
     RDKit          3D

 29 31  0  0  1  0  0  0  0  0999 V2000
    0.9260   -0.0756   -0.0949 C   0  0  0  0  0  0  0  0  0  0  0  0
    0.4725   -0.7237    1.2204 C   0  0  0  0  0  0  0  0  0  0  0  0
    0.3430    1.3152   -0.1706 C   0  0  0  0  0  0  0  0  0  0  0  0
    1.0148   -0.0629    2.5371 C   0  0  0  0  0  0  0  0  0  0  0  0
   -0.3895    1.4476    3.9874 C   0  0  0  0  0  0  0  0  0  0  0  0
    0.9525    2.2826   -1.1504 C   0  0  0  0  0  0  0  0  0  0  0  0
   -0.9547    2.6900    4.6037 C   0  0  0  0  0  0  0  0  0  0  0  0
    0.2679    4.1740    1.9688 C   0  0  0  0  0  0  0  0  0  0  0  0
    0.0977    8.0371    4.4573 C   0  0  0  0  0  0  0  0  0  0  0  0
   -2.9178    8.2461    1.3007 C   0  0  0  0  0  0  0  0  0  0  0  0
    0.5508    1.3596    3.0216 C   0  0  0  0  0  0  0  0  0  0  0  0
   -1.2535    3.9059    1.7817 C   0  0  2  0  0  0  0  0  0  0  0  0
   -1.5084    9.1305    2.6314 C   0  0  0  0  0  0  0  0  0  0  0  0
   -1.9546    3.9755    0.4332 C   0  0  2  0  0  0  0  0  0  0  0  0
   -2.3576    5.4246    0.3048 C   0  0  2  0  0  0  0  0  0  0  0  0
   -0.6539    9.9508    3.3888 C   0  0  0  0  0  0  0  0  0  0  0  0
   -1.4436    7.7558    2.8859 C   0  0  0  0  0  0  0  0  0  0  0  0
   -2.6760    5.8158    1.7445 C   0  0  2  0  0  0  0  0  0  0  0  0
    0.4959    1.9308   -2.4696 N   0  0  0  0  0  0  0  0  0  0  0  0
   -2.4135    2.7161    4.4753 N   0  0  0  0  0  0  0  0  0  0  0  0
   -0.6044   11.3193    3.2161 N   0  0  0  0  0  0  0  0  0  0  0  0
    0.1470    9.3811    4.3080 N   0  0  0  0  0  0  0  0  0  0  0  0
   -0.6652    7.1491    3.7764 N   0  0  0  0  0  0  0  0  0  0  0  0
   -2.4215    9.4185    1.6497 N   0  0  0  0  0  0  0  0  0  0  0  0
   -2.3433    7.2108    2.0053 N   0  0  0  0  0  0  0  0  0  0  0  0
   -3.1688    3.1798    0.4601 O   0  0  0  0  0  0  0  0  0  0  0  0
   -3.4920    5.6023   -0.5437 O   0  0  0  0  0  0  0  0  0  0  0  0
   -1.9810    4.8835    2.5973 O   0  0  0  0  0  0  0  0  0  0  0  0
    1.4894    2.8206    2.5560 S   0  0  0  0  0  0  0  0  0  0  0  0
  2  1  1  0
  3  1  1  0
  4  2  1  0
  5  7  1  0
  6  3  1  0
 11  4  1  0
 11  5  2  3
 12  8  1  6
 14 12  1  0
 14 26  1  1
 15 14  1  0
 15 27  1  6
 16 13  2  0
 17 13  1  0
 18 15  1  0
 18 25  1  1
 19  6  1  0
 20  7  1  0
 21 16  1  0
 22  9  2  0
 22 16  1  0
 23  9  1  0
 23 17  2  0
 24 10  2  0
 24 13  1  0
 25 10  1  0
 25 17  1  0
 28 12  1  0
 28 18  1  0
 29  8  1  0
 29 11  1  0
M  END
>  <DRUGBANK_ID>  (1) 
DB02844

>  <SECONDARY_ACCESSION_NUMBERS>  (1) 
EXPT00386

>  <COMMON_NAME>  (1) 
S-Adenosyl-1,8-Diamino-3-Thiooctane

>  <CAS_NUMBER>  (1) 
76426-40-9

$$$$
