
     RDKit          3D

 19 20  0  0  0  0  0  0  0  0999 V2000
    1.0163    0.0554    0.1282 C   0  0  0  0  0  0  0  0  0  0  0  0
    0.8984   -8.2397   -2.5183 C   0  0  0  0  0  0  0  0  0  0  0  0
    0.5227   -0.6048   -1.1401 C   0  0  0  0  0  0  0  0  0  0  0  0
    4.1167   -4.9652    2.1526 C   0  0  0  0  0  0  0  0  0  0  0  0
    4.5007   -6.4374    2.3362 C   0  0  0  0  0  0  0  0  0  0  0  0
    2.6523   -4.8602    1.8097 C   0  0  0  0  0  0  0  0  0  0  0  0
    2.1518   -2.3317   -2.0035 C   0  0  0  0  0  0  0  0  0  0  0  0
    0.2043   -3.0614   -0.7900 C   0  0  0  0  0  0  0  0  0  0  0  0
    2.4647   -3.6596   -2.3073 C   0  0  0  0  0  0  0  0  0  0  0  0
    0.4571   -4.3743   -1.1818 C   0  0  0  0  0  0  0  0  0  0  0  0
    4.1379   -7.3223    1.1231 C   0  0  0  0  0  0  0  0  0  0  0  0
    2.3784   -5.8165    0.6895 C   0  0  0  0  0  0  0  0  0  0  0  0
    2.2904   -8.0026   -0.3714 C   0  0  0  0  0  0  0  0  0  0  0  0
    1.3676   -7.2941   -1.4228 C   0  0  0  0  0  0  0  0  0  0  0  0
    0.9869   -2.0254   -1.2928 C   0  0  0  0  0  0  0  0  0  0  0  0
    1.5983   -4.6984   -1.9350 C   0  0  0  0  0  0  0  0  0  0  0  0
    2.0763   -6.1245   -2.1273 C   0  0  0  0  0  0  0  0  0  0  0  0
    2.6970   -7.2236    0.8407 N   0  0  0  0  0  0  0  0  0  0  0  0
    3.1226   -6.3178   -2.7619 O   0  0  0  0  0  0  0  0  0  0  0  0
  3  1  1  0
  5  4  1  0
  6  4  1  0
  9  7  2  0
 10  8  1  0
 11  5  1  0
 12  6  1  0
 14  2  1  0
 14 13  1  0
 15  3  1  0
 15  7  1  0
 15  8  2  0
 16  9  1  0
 16 10  2  0
 17 14  1  0
 17 16  1  0
 18 11  1  0
 18 12  1  0
 18 13  1  0
 19 17  2  0
M  END
>  <DRUGBANK_ID>  (1) 
DB08992

>  <COMMON_NAME>  (1) 
Eperisone

>  <CAS_NUMBER>  (1) 
64840-90-0

>  <UNII>  (1) 
2M2P0551D3

>  <SYNONYMS>  (1) 
(2RS)-1-(4-ethylphenyl)-2-methyl-3-(1-piperidyl)propan-1-one; Eperison; Eperisona; Eperisone; Ep√©risone; Eperisonum

$$$$
