
     RDKit          3D

 23 25  0  0  0  0  0  0  0  0999 V2000
   -1.5190    0.3080   -0.3637 C   0  0  0  0  0  0  0  0  0  0  0  0
   -1.0965   -1.1292   -0.0320 C   0  0  0  0  0  0  0  0  0  0  0  0
    0.3815   -1.3824   -0.3035 C   0  0  0  0  0  0  0  0  0  0  0  0
    1.3250   -0.3016    0.2819 C   0  0  0  0  0  0  0  0  0  0  0  0
    0.8881    1.0566   -0.3332 C   0  0  0  0  0  0  0  0  0  0  0  0
   -0.5475    1.4324   -0.0287 C   0  0  0  0  0  0  0  0  0  0  0  0
    1.4762   -0.3161    1.8739 C   0  0  0  0  0  0  0  0  0  0  0  0
    1.9556   -1.7158    2.3318 C   0  0  0  0  0  0  0  0  0  0  0  0
    1.9047   -1.9123    3.8465 C   0  0  0  0  0  0  0  0  0  0  0  0
    0.5311   -1.5746    4.4199 C   0  0  0  0  0  0  0  0  0  0  0  0
    0.0981   -0.1653    4.0905 C   0  0  0  0  0  0  0  0  0  0  0  0
    0.1909    0.0820    2.6114 C   0  0  0  0  0  0  0  0  0  0  0  0
    2.4781    0.7903    2.2446 C   0  0  0  0  0  0  0  0  0  0  0  0
    2.8449    1.6417    1.4682 O   0  0  0  0  0  0  0  0  0  0  0  0
    2.7722    0.8052    3.5736 O   0  0  0  0  0  0  0  0  0  0  0  0
    3.6611    1.8391    4.0276 C   0  0  0  0  0  0  0  0  0  0  0  0
    5.1043    1.5251    3.6039 C   0  0  0  0  0  0  0  0  0  0  0  0
    5.2531    1.5543    2.1573 N   0  0  0  0  0  0  0  0  0  0  0  0
    5.5753    2.8580    1.5996 C   0  0  0  0  0  0  0  0  0  0  0  0
    5.4262    2.8942    0.0768 C   0  0  0  0  0  0  0  0  0  0  0  0
    6.1810    1.7436   -0.5754 C   0  0  0  0  0  0  0  0  0  0  0  0
    5.7620    0.4112    0.0333 C   0  0  0  0  0  0  0  0  0  0  0  0
    5.9174    0.4191    1.5563 C   0  0  0  0  0  0  0  0  0  0  0  0
  1  2  1  0
  1  6  1  0
  2  3  1  0
  3  4  1  0
  4  5  1  0
  4  7  1  0
  5  6  1  0
  7  8  1  0
  7 12  1  0
  7 13  1  0
  8  9  1  0
  9 10  1  0
 10 11  1  0
 11 12  1  0
 13 14  2  0
 13 15  1  0
 15 16  1  0
 16 17  1  0
 17 18  1  0
 18 19  1  0
 18 23  1  0
 19 20  1  0
 20 21  1  0
 21 22  1  0
 22 23  1  0
M  END
>  <DRUGBANK_ID>  (1) 
DB13678

>  <COMMON_NAME>  (1) 
Dihexyverine

>  <CAS_NUMBER>  (1) 
561-77-3

>  <UNII>  (1) 
J2FQ66RU9W

>  <SYNONYMS>  (1) 
Dihexyverine

$$$$
