
     RDKit          3D

 23 25  0  0  0  0  0  0  0  0999 V2000
    3.5258   -0.5361   -0.0041 Cl  0  0  0  0  0  0  0  0  0  0  0  0
   -3.9920    0.2144    0.0050 O   0  0  0  0  0  0  0  0  0  0  0  0
   -6.4656   -4.6309    2.5669 O   0  0  0  0  0  0  0  0  0  0  0  0
   -4.4208   -2.3086   -0.8701 N   0  0  0  0  0  0  0  0  0  0  0  0
   -1.9930    1.3276    0.0351 N   0  0  0  0  0  0  0  0  0  0  0  0
   -8.1261   -4.1388    1.1983 N   0  0  0  0  0  0  0  0  0  0  0  0
   -3.5431   -2.6705    0.1036 C   0  0  0  0  0  0  0  0  0  0  0  0
   -4.2636   -3.3774    1.0523 C   0  0  0  0  0  0  0  0  0  0  0  0
   -5.6934   -3.3925    0.6590 C   0  0  0  0  0  0  0  0  0  0  0  0
   -5.7086   -2.6652   -0.5570 C   0  0  0  0  0  0  0  0  0  0  0  0
   -1.8154   -0.9671   -0.0236 C   0  0  0  0  0  0  0  0  0  0  0  0
   -2.1815   -2.2623   -0.0103 C   0  0  0  0  0  0  0  0  0  0  0  0
   -0.4565   -0.3789   -0.0391 C   0  0  0  0  0  0  0  0  0  0  0  0
   -0.6474    1.0123   -0.0054 C   0  0  0  0  0  0  0  0  0  0  0  0
   -2.7888    0.2005    0.0228 C   0  0  0  0  0  0  0  0  0  0  0  0
   -3.6542   -3.9603    2.2865 C   0  0  0  0  0  0  0  0  0  0  0  0
   -6.7272   -2.1779   -1.5511 C   0  0  0  0  0  0  0  0  0  0  0  0
   -6.7677   -4.0672    1.5082 C   0  0  0  0  0  0  0  0  0  0  0  0
    0.8353   -0.8805   -0.0522 C   0  0  0  0  0  0  0  0  0  0  0  0
    0.3831    1.9309   -0.0052 C   0  0  0  0  0  0  0  0  0  0  0  0
    1.9006    0.0390   -0.0340 C   0  0  0  0  0  0  0  0  0  0  0  0
    1.6808    1.4293   -0.0222 C   0  0  0  0  0  0  0  0  0  0  0  0
   -8.7840   -3.5819    0.0744 C   0  0  0  0  0  0  0  0  0  0  0  0
  1 21  1  0
  2 15  2  0
  3 18  2  0
  4  7  1  0
  4 10  1  0
  5 14  1  0
  5 15  1  0
  6 18  1  0
  6 23  1  0
  7  8  2  0
  7 12  1  0
  8  9  1  0
  8 16  1  0
  9 10  2  0
  9 18  1  0
 10 17  1  0
 11 12  2  0
 11 13  1  0
 11 15  1  0
 13 14  2  0
 13 19  1  0
 14 20  1  0
 19 21  2  0
 20 22  2  0
 21 22  1  0
M  END
>  <DRUGBANK_ID>  (1) 
DB07180

>  <COMMON_NAME>  (1) 
5-[(Z)-(5-Chloro-2-oxo-1,2-dihydro-3H-indol-3-ylidene)methyl]-N,2,4-trimethyl-1H-pyrrole-3-carboxamide

$$$$
