6IP
     RDKit          3D

 18 20  0  0  0  0  0  0  0  0999 V2000
    2.2132   -0.2244   -0.0767 N   0  0  0  0  0  0  0  0  0  0  0  0
    0.8324   -0.2133   -0.2526 C   0  0  0  0  0  0  0  0  0  0  0  0
    0.0860   -1.3560   -0.0439 C   0  0  0  0  0  0  0  0  0  0  0  0
   -1.2992   -1.2461   -0.0309 C   0  0  0  0  0  0  0  0  0  0  0  0
   -1.8924    0.0136   -0.0720 C   0  0  0  0  0  0  0  0  0  0  0  0
   -1.0706    1.1280   -0.1854 C   0  0  0  0  0  0  0  0  0  0  0  0
   -1.6056    2.5296    0.0537 C   0  0  0  0  0  0  0  0  0  0  0  0
   -1.1840    3.1977    1.3955 C   0  0  0  0  0  0  0  0  0  0  0  0
    0.2971    3.4871    1.5574 C   0  0  0  0  0  0  0  0  0  0  0  0
    0.8128    4.7787    1.4215 C   0  0  0  0  0  0  0  0  0  0  0  0
    2.2007    5.0092    1.3917 C   0  0  0  0  0  0  0  0  0  0  0  0
    3.0849    3.9139    1.4161 C   0  0  0  0  0  0  0  0  0  0  0  0
    4.4909    3.7496    1.2657 C   0  0  0  0  0  0  0  0  0  0  0  0
    4.7631    2.3996    1.2778 C   0  0  0  0  0  0  0  0  0  0  0  0
    3.5898    1.7455    1.5462 N   0  0  0  0  0  0  0  0  0  0  0  0
    2.5534    2.6501    1.6217 C   0  0  0  0  0  0  0  0  0  0  0  0
    1.1833    2.4279    1.7974 C   0  0  0  0  0  0  0  0  0  0  0  0
    0.2602    0.9937   -0.4021 N   0  0  0  0  0  0  0  0  0  0  0  0
  1  2  1  0
  2 18  2  0
  2  3  1  0
  3  4  2  0
  4  5  1  0
  5  6  2  0
  6 18  1  0
  6  7  1  0
  7  8  1  0
  8  9  1  0
  9 17  1  0
  9 10  2  0
 10 11  1  0
 11 12  2  0
 12 16  1  0
 12 13  1  0
 13 14  2  0
 14 15  1  0
 15 16  1  0
 16 17  2  0
M  END
>  <DRUGBANK_ID>  (1) 
DB07206

>  <COMMON_NAME>  (1) 
6-[2-(1H-INDOL-6-YL)ETHYL]PYRIDIN-2-AMINE

>  <UNII>  (1) 
K7KY60XF2T

$$$$
