
     RDKit          3D

  7  6  0  0  0  0  0  0  0  0999 V2000
    1.1268   -0.1143   -0.0347 C   0  0  0  0  0  0  0  0  0  0  0  0
    0.5061   -0.7538    1.0861 N   0  0  0  0  0  0  0  0  0  0  0  0
   -0.2934   -0.2934    2.1266 C   0  0  0  0  0  0  0  0  0  0  0  0
   -0.7307   -1.1755    3.0517 C   0  0  0  0  0  0  0  0  0  0  0  0
   -0.7757    1.1267    2.3956 C   0  0  0  0  0  0  0  0  0  0  0  0
   -0.4413    2.1398    1.5819 O   0  0  0  0  0  0  0  0  0  0  0  0
   -1.4869    1.3901    3.3671 O   0  0  0  0  0  0  0  0  0  0  0  0
  1  2  1  0
  2  3  1  0
  3  4  2  0
  3  5  1  0
  5  6  1  0
  5  7  2  0
M  END
>  <DRUGBANK_ID>  (1) 
DB03920

>  <SECONDARY_ACCESSION_NUMBERS>  (1) 
EXPT01110

>  <COMMON_NAME>  (1) 
N-Methyl-Alpha-Beta-Dehydroalanine

>  <UNII>  (1) 
YNW06WML0Q

$$$$
