
     RDKit          3D

  1  0  0  0  0  0  0  0  0  0999 V2000
    1.0076    0.0399    0.0914 Ga  0  0  0  0  0 15  0  0  0  0  0  0
M  CHG  1   1   3
M  ISO  1   1  67
M  END
>  <DRUGBANK_ID>  (1) 
DB14549

>  <COMMON_NAME>  (1) 
Gallium cation Ga-67

>  <UNII>  (1) 
99T03J52W0

>  <SYNONYMS>  (1) 
Gallium (67Ga)cation; Gallium cation Ga 67; Gallium Ga-67 cation

$$$$
