
     RDKit          3D

 28 31  0  0  0  0  0  0  0  0999 V2000
    0.8181   -0.0611    0.0704 O   0  0  0  0  0  0  0  0  0  0  0  0
    0.2829    0.7502    1.0053 C   0  0  0  0  0  0  0  0  0  0  0  0
    0.9908    1.3595    1.7887 O   0  0  0  0  0  0  0  0  0  0  0  0
   -1.2103    0.7571    0.9808 C   0  0  0  0  0  0  0  0  0  0  0  0
   -1.7180    1.2159   -0.3527 C   0  0  0  0  0  0  0  0  0  0  0  0
   -1.5527    2.4644   -0.7055 N   0  0  0  0  0  0  0  0  0  0  0  0
   -1.9761    2.9201   -1.9696 N   0  0  0  0  0  0  0  0  0  0  0  0
   -1.7162    4.3501   -2.2663 C   0  0  0  0  0  0  0  0  0  0  0  0
   -0.7903    4.5157   -3.4487 C   0  0  0  0  0  0  0  0  0  0  0  0
    0.4221    5.0506   -3.5008 N   0  0  0  0  0  0  0  0  0  0  0  0
    0.9301    4.9167   -4.8030 C   0  0  0  0  0  0  0  0  0  0  0  0
    2.1602    5.3582   -5.3260 C   0  0  0  0  0  0  0  0  0  0  0  0
    2.4734    5.0567   -6.6770 C   0  0  0  0  0  0  0  0  0  0  0  0
    1.5995    4.3070   -7.4760 C   0  0  0  0  0  0  0  0  0  0  0  0
    0.3933    3.8723   -6.9791 C   0  0  0  0  0  0  0  0  0  0  0  0
    0.0841    4.2508   -5.6798 C   0  0  0  0  0  0  0  0  0  0  0  0
   -1.4209    4.0717   -4.9753 S   0  0  0  0  0  0  0  0  0  0  0  0
    3.7618    5.5285   -7.2844 C   0  0  0  0  0  0  0  0  0  0  0  0
    3.8755    6.8820   -7.2756 F   0  0  0  0  0  0  0  0  0  0  0  0
    4.8469    5.0390   -6.6309 F   0  0  0  0  0  0  0  0  0  0  0  0
    3.9038    5.1486   -8.5861 F   0  0  0  0  0  0  0  0  0  0  0  0
   -2.7287    2.1271   -2.8614 C   0  0  0  0  0  0  0  0  0  0  0  0
   -3.3438    2.5220   -3.8517 O   0  0  0  0  0  0  0  0  0  0  0  0
   -2.7689    0.7316   -2.5283 C   0  0  0  0  0  0  0  0  0  0  0  0
   -3.2598   -0.2743   -3.3303 C   0  0  0  0  0  0  0  0  0  0  0  0
   -3.1203   -1.7951   -2.5680 S   0  0  0  0  0  0  0  0  0  0  0  0
   -2.6015   -1.0617   -1.1039 C   0  0  0  0  0  0  0  0  0  0  0  0
   -2.3216    0.2765   -1.2736 C   0  0  0  0  0  0  0  0  0  0  0  0
  1  2  1  0
  2  3  2  0
  2  4  1  0
  4  5  1  0
  5  6  2  0
  5 28  1  0
  6  7  1  0
  7  8  1  0
  7 22  1  0
  8  9  1  0
  9 10  2  0
  9 17  1  0
 10 11  1  0
 11 12  2  0
 11 16  1  0
 12 13  1  0
 13 14  2  0
 13 18  1  0
 14 15  1  0
 15 16  2  0
 16 17  1  0
 18 19  1  0
 18 20  1  0
 18 21  1  0
 22 23  2  0
 22 24  1  0
 24 25  2  0
 24 28  1  0
 25 26  1  0
 26 27  1  0
 27 28  2  0
M  END
>  <DRUGBANK_ID>  (1) 
DB16707

>  <COMMON_NAME>  (1) 
Gavorestat

>  <CAS_NUMBER>  (1) 
2170729-29-8

>  <UNII>  (1) 
6JLQ8K35KK

>  <SYNONYMS>  (1) 
2-(4-Oxo-3-((5-(Trifluoromethyl)Benzo[D]Thiazol-2-Yl)Methyl)-3,4-Dihydrothieno[3,4-D]Pyridazin-1-Yl)Acetic Acid; AT-007; AT007; Gavorestat

$$$$
