
     RDKit          3D

 28 32  0  0  1  0  0  0  0  0999 V2000
    0.7624    1.6219   -0.1908 C   0  0  0  0  0  0  0  0  0  0  0  0
   -0.5150    1.1486    0.5615 N   0  0  2  0  0  0  0  0  0  0  0  0
   -0.8646   -0.2458    0.1053 C   0  0  0  0  0  0  0  0  0  0  0  0
   -1.2066   -0.3748   -1.3090 C   0  0  0  0  0  0  0  0  0  0  0  0
   -0.2528   -0.0973   -2.4513 C   0  0  0  0  0  0  0  0  0  0  0  0
   -1.3723    0.8647   -2.1529 C   0  0  0  0  0  0  0  0  0  0  0  0
   -1.4622    2.3455    0.3485 C   0  0  0  0  0  0  0  0  0  0  0  0
   -0.7195    3.5916    0.9019 C   0  0  0  0  0  0  0  0  0  0  0  0
   -0.8078    3.3450    2.3220 C   0  0  2  0  0  0  0  0  0  0  0  0
   -0.6383    4.5710    3.2964 C   0  0  0  0  0  0  0  0  0  0  0  0
   -0.2479    3.6849    4.4644 C   0  0  0  0  0  0  0  0  0  0  0  0
   -0.9928    3.2835    5.2628 O   0  0  0  0  0  0  0  0  0  0  0  0
    1.1264    3.0607    4.2037 C   0  0  0  0  0  0  0  0  0  0  0  0
    1.9298    2.5466    3.0270 C   0  0  0  0  0  0  0  0  0  0  0  0
    0.5453    1.8982    2.6345 C   0  0  1  0  0  0  0  0  0  0  0  0
    1.5546    0.7923    2.1796 O   0  0  0  0  0  0  0  0  0  0  0  0
   -0.3709    0.7899    2.1373 C   0  0  1  0  0  0  0  0  0  0  0  0
   -1.5726    0.8807    3.0635 C   0  0  0  0  0  0  0  0  0  0  0  0
   -2.7688    1.6725    2.8016 C   0  0  0  0  0  0  0  0  0  0  0  0
   -2.5942    3.0480    2.4756 C   0  0  0  0  0  0  0  0  0  0  0  0
   -3.8149    3.7340    2.1492 C   0  0  0  0  0  0  0  0  0  0  0  0
   -3.8206    5.0153    1.6649 O   0  0  0  0  0  0  0  0  0  0  0  0
   -5.0668    2.9997    2.2544 C   0  0  0  0  0  0  0  0  0  0  0  0
   -5.0810    1.6437    2.6617 C   0  0  0  0  0  0  0  0  0  0  0  0
   -3.9307    0.9845    2.9428 C   0  0  0  0  0  0  0  0  0  0  0  0
   -6.4728    3.4380    1.9925 C   0  0  0  0  0  0  0  0  0  0  0  0
   -6.7699    4.1093    0.8487 N   0  0  0  0  0  0  0  0  0  0  0  0
   -7.3779    3.0861    2.7479 O   0  0  0  0  0  0  0  0  0  0  0  0
  2  7  1  0
  2  1  1  6
  2  3  1  0
  3  4  1  0
  4  5  1  0
  4  6  1  0
  5  6  1  0
  7  8  1  0
  9  8  1  6
  9 10  1  0
  9 20  1  0
 10 11  1  0
 11 13  1  0
 11 12  2  0
 13 14  1  0
 15 14  1  0
 15  9  1  0
 15 17  1  0
 15 16  1  1
 17  2  1  0
 17 18  1  1
 18 19  1  0
 19 20  2  0
 19 25  1  0
 20 21  1  0
 21 23  2  0
 21 22  1  0
 23 24  1  0
 23 26  1  0
 24 25  2  0
 26 27  1  0
 26 28  2  0
M  CHG  1   2   1
M  END
>  <DRUGBANK_ID>  (1) 
DB15241

>  <COMMON_NAME>  (1) 
Methylsamidorphan

>  <CAS_NUMBER>  (1) 
1119361-12-4

>  <UNII>  (1) 
8347HC35J6

>  <SYNONYMS>  (1) 
Methylsamidorphan

$$$$
