
     RDKit          3D

 28 30  0  0  0  0  0  0  0  0999 V2000
    1.3569    0.3869   -0.2036 C   0  0  0  0  0  0  0  0  0  0  0  0
    0.6134    1.5186    0.0355 C   0  0  0  0  0  0  0  0  0  0  0  0
   -0.7684    1.4133    0.0821 C   0  0  0  0  0  0  0  0  0  0  0  0
   -1.4339    0.2430    0.0954 N   0  0  0  0  0  0  0  0  0  0  0  0
   -0.7248   -0.8817   -0.1492 C   0  0  0  0  0  0  0  0  0  0  0  0
    0.6710   -0.7699   -0.4904 C   0  0  0  0  0  0  0  0  0  0  0  0
   -1.3663   -2.1146    0.2216 N   0  0  0  0  0  0  0  0  0  0  0  0
   -2.7768   -2.3343    0.1195 C   0  0  0  0  0  0  0  0  0  0  0  0
   -3.4934   -1.8885   -1.0001 C   0  0  0  0  0  0  0  0  0  0  0  0
   -4.8753   -2.0663   -1.1017 C   0  0  0  0  0  0  0  0  0  0  0  0
   -5.5546   -2.7783   -0.1203 C   0  0  0  0  0  0  0  0  0  0  0  0
   -4.8422   -3.3783    0.9276 C   0  0  0  0  0  0  0  0  0  0  0  0
   -3.4585   -3.1222    1.0602 C   0  0  0  0  0  0  0  0  0  0  0  0
   -5.5305   -4.3500    1.8512 C   0  0  0  0  0  0  0  0  0  0  0  0
   -4.9753   -5.5937    1.7808 F   0  0  0  0  0  0  0  0  0  0  0  0
   -5.4734   -3.9868    3.1603 F   0  0  0  0  0  0  0  0  0  0  0  0
   -6.8532   -4.5268    1.5676 F   0  0  0  0  0  0  0  0  0  0  0  0
    1.4576   -1.7800   -1.2524 C   0  0  0  0  0  0  0  0  0  0  0  0
    0.6484   -2.5557   -1.8515 O   0  0  0  0  0  0  0  0  0  0  0  0
    2.9546   -1.9920   -0.8834 O   0  0  0  0  0  0  0  0  0  0  0  0
    3.9794   -3.3806   -0.3789 C   0  0  0  0  0  0  0  0  0  0  0  0
    3.5818   -4.6118    0.9872 C   0  0  0  0  0  0  0  0  0  0  0  0
    2.1191   -5.1743    1.4302 N   0  0  0  0  0  0  0  0  0  0  0  0
    1.4258   -5.7579    0.2161 C   0  0  0  0  0  0  0  0  0  0  0  0
    1.7590   -4.9508   -0.9672 C   0  0  0  0  0  0  0  0  0  0  0  0
    1.7447   -3.6602   -0.3912 O   0  0  0  0  0  0  0  0  0  0  0  0
    1.8478   -3.0345    0.9443 C   0  0  0  0  0  0  0  0  0  0  0  0
    1.3349   -3.9893    1.8866 C   0  0  0  0  0  0  0  0  0  0  0  0
  1  2  2  0
  1  6  1  0
  2  3  1  0
  3  4  2  0
  4  5  1  0
  5  6  2  0
  5  7  1  0
  6 18  1  0
  7  8  1  0
  8  9  2  0
  8 13  1  0
  9 10  1  0
 10 11  2  0
 11 12  1  0
 12 13  2  0
 12 14  1  0
 14 15  1  0
 14 16  1  0
 14 17  1  0
 18 19  2  0
 18 20  1  0
 20 21  1  0
 21 22  1  0
 22 23  1  0
 23 24  1  0
 23 28  1  0
 24 25  1  0
 25 26  1  0
 26 27  1  0
 27 28  1  0
M  END
>  <DRUGBANK_ID>  (1) 
DB09285

>  <COMMON_NAME>  (1) 
Morniflumate

>  <CAS_NUMBER>  (1) 
65847-85-0

>  <UNII>  (1) 
R133MWH7X1

>  <SYNONYMS>  (1) 
Morniflumate; Morniflumato

$$$$
