
     RDKit          3D

 16 16  0  0  0  0  0  0  0  0999 V2000
    0.5437   -6.2108   -0.3299 C   0  0  0  0  0  0  0  0  0  0  0  0
    1.2903   -4.9587    0.1109 C   0  0  1  0  0  0  0  0  0  0  0  0
    2.6140   -4.9824   -0.4136 O   0  0  0  0  0  0  0  0  0  0  0  0
    0.5479   -3.7194   -0.3911 C   0  0  1  0  0  0  0  0  0  0  0  0
    0.4814   -3.7351   -1.8283 O   0  0  0  0  0  0  0  0  0  0  0  0
   -1.5539   -4.9346   -0.2472 O   0  0  0  0  0  0  0  0  0  0  0  0
   -1.6089   -2.4543   -0.2900 C   0  0  2  0  0  0  0  0  0  0  0  0
   -0.9386   -1.2848    0.2269 O   0  0  0  0  0  0  0  0  0  0  0  0
   -3.0553   -2.4041    0.1931 C   0  0  0  0  0  0  0  0  0  0  0  0
   -3.6656   -1.1758   -0.2082 O   0  0  0  0  0  0  0  0  0  0  0  0
   -0.8768   -3.7307    0.1787 C   0  0  2  0  0  0  0  0  0  0  0  0
   -2.0914   -8.3207    0.3258 O   0  0  0  0  0  0  0  0  0  0  0  0
   -1.6641   -7.3966   -0.3606 C   0  0  0  0  0  0  0  0  0  0  0  0
   -1.7724   -7.4456   -1.7057 O   0  0  0  0  0  0  0  0  0  0  0  0
   -0.9005   -6.1435    0.1778 C   0  0  1  0  0  0  0  0  0  0  0  0
   -0.8551   -6.1781    1.6050 O   0  0  0  0  0  0  0  0  0  0  0  0
  1  2  1  0
  2  4  1  0
  2  3  1  6
  4  5  1  6
  4 11  1  0
  7  9  1  0
  7  8  1  1
  7 11  1  0
  9 10  1  0
 11  6  1  6
 13 12  2  0
 13 14  1  0
 15  1  1  0
 15  6  1  0
 15 13  1  0
 15 16  1  1
M  END
>  <DRUGBANK_ID>  (1) 
DB03548

>  <SECONDARY_ACCESSION_NUMBERS>  (1) 
EXPT01967

>  <COMMON_NAME>  (1) 
3-deoxy-alpha-D-manno-oct-2-ulopyranosonic acid

>  <SYNONYMS>  (1) 
3-deoxy-α-D-manno-oct-2-ulopyranosonic acid; α-2-keto-3-deoxyoctulosonic acid pyranose; α-Kdo; α-KDop

$$$$
