1712095
     RDKit          3D

 29 31  0  0  0  0  0  0  0  0999 V2000
    1.1082    0.1454   -0.1422 O   0  0  0  0  0  0  0  0  0  0  0  0
   -1.2102    0.8851    1.4580 O   0  0  0  0  0  0  0  0  0  0  0  0
   -4.7417    8.0542   -4.3671 O   0  0  0  0  0  0  0  0  0  0  0  0
   -5.6649    9.8196   -2.5911 O   0  0  0  0  0  0  0  0  0  0  0  0
   -1.1965    5.5672   -2.2620 N   0  0  0  0  0  0  0  0  0  0  0  0
    0.3475    3.9220   -3.0628 C   0  0  0  0  0  0  0  0  0  0  0  0
   -0.0799    3.1348   -1.8438 C   0  0  0  0  0  0  0  0  0  0  0  0
   -1.1678    3.5336   -1.0205 C   0  0  0  0  0  0  0  0  0  0  0  0
   -0.7133    4.9187   -3.4689 C   0  0  0  0  0  0  0  0  0  0  0  0
   -1.9046    4.8004   -1.3442 C   0  0  0  0  0  0  0  0  0  0  0  0
    0.6950    2.0214   -1.5207 C   0  0  0  0  0  0  0  0  0  0  0  0
   -1.4704    2.7445    0.0950 C   0  0  0  0  0  0  0  0  0  0  0  0
    0.4127    1.2857   -0.3843 C   0  0  0  0  0  0  0  0  0  0  0  0
   -0.7105    1.6039    0.3981 C   0  0  0  0  0  0  0  0  0  0  0  0
   -3.1067    5.1092   -0.8298 C   0  0  0  0  0  0  0  0  0  0  0  0
   -3.9072    6.2797   -1.2296 C   0  0  0  0  0  0  0  0  0  0  0  0
   -4.2280    6.4750   -2.5744 C   0  0  0  0  0  0  0  0  0  0  0  0
   -4.3272    7.2158   -0.2991 C   0  0  0  0  0  0  0  0  0  0  0  0
   -4.7075    7.7035   -3.0374 C   0  0  0  0  0  0  0  0  0  0  0  0
    2.5225    0.1639   -0.1196 C   0  0  0  0  0  0  0  0  0  0  0  0
   -0.5538   -0.3309    1.8162 C   0  0  0  0  0  0  0  0  0  0  0  0
   -5.1122    8.6640   -2.0976 C   0  0  0  0  0  0  0  0  0  0  0  0
   -4.9486    8.3874   -0.7319 C   0  0  0  0  0  0  0  0  0  0  0  0
    2.9321   -1.2299    0.3405 C   0  0  0  0  0  0  0  0  0  0  0  0
   -0.7860   -1.4564    0.8034 C   0  0  0  0  0  0  0  0  0  0  0  0
   -4.1920    7.1479   -5.3312 C   0  0  0  0  0  0  0  0  0  0  0  0
   -6.1404   10.7922   -1.6601 C   0  0  0  0  0  0  0  0  0  0  0  0
   -2.6918    6.9331   -5.1940 C   0  0  0  0  0  0  0  0  0  0  0  0
   -7.4184   10.3396   -0.9638 C   0  0  0  0  0  0  0  0  0  0  0  0
  1 13  1  0
  1 20  1  0
  2 14  1  0
  2 21  1  0
  3 19  1  0
  3 26  1  0
  4 22  1  0
  4 27  1  0
  5  9  1  0
  5 10  1  0
  6  7  1  0
  6  9  1  0
  7  8  2  0
  7 11  1  0
  8 10  1  0
  8 12  1  0
 10 15  2  0
 11 13  2  0
 12 14  2  0
 13 14  1  0
 15 16  1  0
 16 17  2  0
 16 18  1  0
 17 19  1  0
 18 23  2  0
 19 22  2  0
 20 24  1  0
 21 25  1  0
 22 23  1  0
 26 28  1  0
 27 29  1  0
M  END
>  <DRUGBANK_ID>  (1) 
DB06751

>  <COMMON_NAME>  (1) 
Drotaverine

>  <CAS_NUMBER>  (1) 
14009-24-6

>  <UNII>  (1) 
98QS4N58TW

>  <SYNONYMS>  (1) 
Drotaverin; Drotaverina; Drotaverine; Drotaverinum

$$$$
