BTD
     RDKit          3D

 22 24  0  0  0  0  0  0  0  0999 V2000
    0.9142    0.1155    0.1432 O   0  0  0  0  0  0  0  0  0  0  0  0
    0.5068   -1.0397    0.8752 C   0  0  0  0  0  0  0  0  0  0  0  0
    1.1642   -2.3063    0.3085 C   0  0  1  0  0  0  0  0  0  0  0  0
    2.4656   -1.9147   -0.1950 O   0  0  0  0  0  0  0  0  0  0  0  0
    3.4717   -2.2807    0.7673 C   0  0  1  0  0  0  0  0  0  0  0  0
    4.2939   -1.1058    1.0736 N   0  0  0  0  0  0  0  0  0  0  0  0
    3.7531    0.0278    1.6664 C   0  0  0  0  0  0  0  0  0  0  0  0
    5.6166   -1.1162    0.6435 C   0  0  0  0  0  0  0  0  0  0  0  0
    6.1516   -2.0519    0.0582 O   0  0  0  0  0  0  0  0  0  0  0  0
    6.3344    0.0178    0.9265 N   0  0  0  0  0  0  0  0  0  0  0  0
    5.8094    1.2270    1.2832 C   0  0  0  0  0  0  0  0  0  0  0  0
    6.4922    2.2510    1.2653 O   0  0  0  0  0  0  0  0  0  0  0  0
    4.3961    1.2040    1.7272 C   0  0  0  0  0  0  0  0  0  0  0  0
    3.7349    2.3682    2.2152 C   0  0  0  0  0  0  0  0  0  0  0  0
    3.1889    2.6033    3.4678 C   0  0  0  0  0  0  0  0  0  0  0  0
    2.5768    3.8876    3.5815 C   0  0  0  0  0  0  0  0  0  0  0  0
    2.6919    4.5953    2.4141 C   0  0  0  0  0  0  0  0  0  0  0  0
    3.4866    3.7387    1.1901 S   0  0  0  0  0  0  0  0  0  0  0  0
    2.0344    6.3369    2.1966 Br  0  0  0  0  0  0  0  0  0  0  0  0
    2.7625   -2.9069    1.9640 C   0  0  0  0  0  0  0  0  0  0  0  0
    1.4378   -3.3567    1.3832 C   0  0  2  0  0  0  0  0  0  0  0  0
    1.5842   -4.6633    0.8292 O   0  0  0  0  0  0  0  0  0  0  0  0
  1  2  1  0
  3  2  1  1
  3  4  1  0
  3 21  1  0
  4  5  1  0
  5 20  1  0
  5  6  1  1
  6  7  1  0
  6  8  1  0
  7 13  2  0
  8  9  2  0
  8 10  1  0
 10 11  1  0
 11 12  2  0
 11 13  1  0
 13 14  1  0
 14 15  2  0
 14 18  1  0
 15 16  1  0
 16 17  2  0
 17 18  1  0
 17 19  1  0
 20 21  1  0
 21 22  1  6
M  END
>  <DRUGBANK_ID>  (1) 
DB03804

>  <SECONDARY_ACCESSION_NUMBERS>  (1) 
EXPT00766

>  <COMMON_NAME>  (1) 
5-Bromothienyldeoxyuridine

$$$$
