
     RDKit          3D

 31 33  0  0  0  0  0  0  0  0999 V2000
    1.4519    5.3567    1.1583 C   0  0  0  0  0  0  0  0  0  0  0  0
    1.2624    4.2003    0.1457 C   0  0  0  0  0  0  0  0  0  0  0  0
    3.7089    6.1279    0.3171 C   0  0  0  0  0  0  0  0  0  0  0  0
    2.3843    6.4296    0.6294 C   0  0  0  0  0  0  0  0  0  0  0  0
    4.6261    7.0527   -0.1903 C   0  0  0  0  0  0  0  0  0  0  0  0
    4.1929    8.3388   -0.4337 C   0  0  0  0  0  0  0  0  0  0  0  0
    2.8768    8.6802   -0.1170 C   0  0  0  0  0  0  0  0  0  0  0  0
    1.9850    7.7422    0.4300 C   0  0  0  0  0  0  0  0  0  0  0  0
    4.1215    4.8351    0.5729 N   0  0  0  0  0  0  0  0  0  0  0  0
    5.1685    4.7063    1.5493 C   0  0  0  0  0  0  0  0  0  0  0  0
    5.4394    3.2996    3.4238 O   0  0  0  0  0  0  0  0  0  0  0  0
    4.6062    4.1374    2.8319 C   0  0  0  0  0  0  0  0  0  0  0  0
    3.4860    4.2942    3.3196 O   0  0  0  0  0  0  0  0  0  0  0  0
    3.7341    3.8602   -0.3311 C   0  0  0  0  0  0  0  0  0  0  0  0
    4.3615    3.5764   -1.3486 O   0  0  0  0  0  0  0  0  0  0  0  0
    2.4162    3.1679    0.0758 C   0  0  1  0  0  0  0  0  0  0  0  0
    2.5381    2.4987    1.4025 N   0  0  0  0  0  0  0  0  0  0  0  0
    2.0415   -0.3437    1.2660 O   0  0  0  0  0  0  0  0  0  0  0  0
    3.0668    0.2118    0.8905 C   0  0  0  0  0  0  0  0  0  0  0  0
    3.9458   -0.2596   -0.0307 O   0  0  0  0  0  0  0  0  0  0  0  0
    3.5953   -1.5494   -0.5192 C   0  0  0  0  0  0  0  0  0  0  0  0
    3.7351   -2.5868    0.5843 C   0  0  0  0  0  0  0  0  0  0  0  0
    3.5992    1.4829    1.4910 C   0  0  2  0  0  0  0  0  0  0  0  0
    4.0451    1.0608    2.9229 C   0  0  0  0  0  0  0  0  0  0  0  0
    5.5153    0.3856    2.9113 C   0  0  0  0  0  0  0  0  0  0  0  0
    6.7301    0.8701    2.0013 C   0  0  0  0  0  0  0  0  0  0  0  0
    8.0449    2.5954    0.7291 C   0  0  0  0  0  0  0  0  0  0  0  0
    7.2563    2.1748    1.8074 C   0  0  0  0  0  0  0  0  0  0  0  0
    7.4709   -0.0751    1.2962 C   0  0  0  0  0  0  0  0  0  0  0  0
    8.3533    0.3111    0.2518 C   0  0  0  0  0  0  0  0  0  0  0  0
    8.5664    1.6448   -0.0950 C   0  0  0  0  0  0  0  0  0  0  0  0
  1  2  1  0
  2 16  1  0
  4  1  1  0
  4  3  2  0
  5  3  1  0
  5  6  2  0
  6  7  1  0
  7  8  2  0
  8  4  1  0
  9  3  1  0
  9 10  1  0
 10 12  1  0
 12 11  1  0
 12 13  2  0
 14  9  1  0
 14 15  2  0
 16 14  1  0
 16 17  1  1
 19 18  2  0
 19 20  1  0
 20 21  1  0
 21 22  1  0
 23 24  1  1
 23 19  1  0
 23 17  1  0
 24 25  1  0
 25 26  1  0
 26 29  2  0
 27 28  2  0
 27 31  1  0
 28 26  1  0
 29 30  1  0
 30 31  2  0
M  END
>  <DRUGBANK_ID>  (1) 
DB00542

>  <SECONDARY_ACCESSION_NUMBERS>  (1) 
APRD00063

>  <COMMON_NAME>  (1) 
Benazepril

>  <CAS_NUMBER>  (1) 
86541-75-5

>  <UNII>  (1) 
UDM7Q7QWP8

>  <SYNONYMS>  (1) 
Bénazépril; Benazepril; Benazeprilum

$$$$
