
     RDKit          3D

 23 24  0  0  0  0  0  0  0  0999 V2000
    1.3566   -0.1944   -0.0413 C   0  0  0  0  0  0  0  0  0  0  0  0
    2.7896   -0.6234    0.1794 C   0  0  0  0  0  0  0  0  0  0  0  0
    3.7723    0.0697    0.3061 O   0  0  0  0  0  0  0  0  0  0  0  0
    3.1361   -1.9129    0.3429 N   0  0  0  0  0  0  0  0  0  0  0  0
    2.4678   -3.1697    0.4230 C   0  0  0  0  0  0  0  0  0  0  0  0
    2.7758   -3.9926   -0.8272 C   0  0  2  0  0  0  0  0  0  0  0  0
    2.0988   -5.3486   -0.7957 C   0  0  0  0  0  0  0  0  0  0  0  0
    2.9080   -6.1609   -1.7830 C   0  0  0  0  0  0  0  0  0  0  0  0
    4.2730   -5.4800   -1.8729 C   0  0  0  0  0  0  0  0  0  0  0  0
    4.2161   -4.2673   -1.0417 N   0  0  0  0  0  0  0  0  0  0  0  0
    5.0047   -4.4124    0.1956 C   0  0  0  0  0  0  0  0  0  0  0  0
    4.5072   -5.4726    1.1732 C   0  0  0  0  0  0  0  0  0  0  0  0
    0.3688   -1.1876   -0.2150 C   0  0  0  0  0  0  0  0  0  0  0  0
   -0.9943   -0.9860   -0.0597 C   0  0  0  0  0  0  0  0  0  0  0  0
   -1.4427    0.3130    0.0436 C   0  0  0  0  0  0  0  0  0  0  0  0
   -0.4929    1.3540    0.0302 C   0  0  0  0  0  0  0  0  0  0  0  0
    0.9089    1.1282   -0.0399 C   0  0  0  0  0  0  0  0  0  0  0  0
    1.6075    2.3017   -0.1803 O   0  0  0  0  0  0  0  0  0  0  0  0
    3.0054    2.2668   -0.4415 C   0  0  0  0  0  0  0  0  0  0  0  0
   -2.0939   -2.3827    0.0548 S   0  0  0  0  0  0  0  0  0  0  0  0
   -2.7455   -2.3498    1.3447 O   0  0  0  0  0  0  0  0  0  0  0  0
   -2.8143   -2.4917   -1.1874 O   0  0  0  0  0  0  0  0  0  0  0  0
   -1.0915   -3.7561    0.1397 N   0  0  0  0  0  0  0  0  0  0  0  0
  1  2  1  0
  1 13  2  0
  1 17  1  0
  2  3  2  0
  2  4  1  0
  4  5  1  0
  6  5  1  1
  6  7  1  0
  6 10  1  0
  7  8  1  0
  9  8  1  0
 10  9  1  0
 10 11  1  0
 11 12  1  0
 13 14  1  0
 14 15  2  0
 14 20  1  0
 16 15  1  0
 17 16  2  0
 17 18  1  0
 18 19  1  0
 20 21  2  0
 20 22  2  0
 20 23  1  0
M  END
>  <DRUGBANK_ID>  (1) 
DB16021

>  <COMMON_NAME>  (1) 
Levosulpiride

>  <CAS_NUMBER>  (1) 
23672-07-3

>  <UNII>  (1) 
JTG7R315LK

>  <SYNONYMS>  (1) 
Levosulpirida; Levosulpiride; Levosulpiridum; S-(-)-Sulpiride

$$$$
