
     RDKit          3D

 26 30  0  0  0  0  0  0  0  0999 V2000
    2.2284    0.0537    0.0011 O   0  0  0  0  0  0  0  0  0  0  0  0
    0.8628    0.0384    0.0072 C   0  0  0  0  0  0  0  0  0  0  0  0
    0.1575   -1.1583    0.0109 C   0  0  0  0  0  0  0  0  0  0  0  0
   -1.2357   -1.1161    0.0116 C   0  0  0  0  0  0  0  0  0  0  0  0
   -1.9099    0.1178    0.0231 C   0  0  0  0  0  0  0  0  0  0  0  0
   -1.2095    1.3407    0.0287 C   0  0  0  0  0  0  0  0  0  0  0  0
    0.1973    1.2689    0.0103 C   0  0  0  0  0  0  0  0  0  0  0  0
   -1.9119    2.6462    0.0261 C   0  0  0  0  0  0  0  0  0  0  0  0
   -2.7528    2.9119    1.0660 N   0  0  0  0  0  0  0  0  0  0  0  0
   -3.4559    4.0827    1.0935 C   0  0  0  0  0  0  0  0  0  0  0  0
   -4.3104    4.3652    2.1324 N   0  0  0  0  0  0  0  0  0  0  0  0
   -3.8703    4.3614    3.5243 C   0  0  0  0  0  0  0  0  0  0  0  0
   -4.7753    3.4403    4.3577 C   0  0  0  0  0  0  0  0  0  0  0  0
   -6.1669    3.7803    4.1997 O   0  0  0  0  0  0  0  0  0  0  0  0
   -6.5507    3.6790    2.8150 C   0  0  0  0  0  0  0  0  0  0  0  0
   -5.7307    4.6400    1.9279 C   0  0  0  0  0  0  0  0  0  0  0  0
   -3.2365    4.9442    0.0195 C   0  0  0  0  0  0  0  0  0  0  0  0
   -3.7759    6.1790   -0.1983 O   0  0  0  0  0  0  0  0  0  0  0  0
   -3.2312    6.6575   -1.3551 C   0  0  0  0  0  0  0  0  0  0  0  0
   -3.5425    7.8653   -1.8640 N   0  0  0  0  0  0  0  0  0  0  0  0
   -2.8981    8.1435   -3.0206 C   0  0  0  0  0  0  0  0  0  0  0  0
   -1.9982    7.3059   -3.6664 C   0  0  0  0  0  0  0  0  0  0  0  0
   -1.7030    6.0636   -3.1003 C   0  0  0  0  0  0  0  0  0  0  0  0
   -2.3442    5.7241   -1.8937 C   0  0  0  0  0  0  0  0  0  0  0  0
   -2.3452    4.6221   -0.9946 C   0  0  0  0  0  0  0  0  0  0  0  0
   -1.6548    3.4576   -1.0232 N   0  0  0  0  0  0  0  0  0  0  0  0
  1  2  1  0
  2  3  2  0
  2  7  1  0
  3  4  1  0
  4  5  2  0
  5  6  1  0
  6  7  2  0
  6  8  1  0
  8  9  2  0
  8 26  1  0
  9 10  1  0
 10 11  1  0
 10 17  2  0
 11 12  1  0
 11 16  1  0
 12 13  1  0
 13 14  1  0
 14 15  1  0
 15 16  1  0
 17 18  1  0
 17 25  1  0
 18 19  1  0
 19 20  1  0
 19 24  2  0
 20 21  2  0
 21 22  1  0
 22 23  2  0
 23 24  1  0
 24 25  1  0
 25 26  2  0
M  END
>  <DRUGBANK_ID>  (1) 
DB17046

>  <COMMON_NAME>  (1) 
PI-103

>  <CAS_NUMBER>  (1) 
371935-74-9

>  <UNII>  (1) 
YQX02F616F

>  <SYNONYMS>  (1) 
Phenol, 3-(4-(4-morpholinyl)pyrido(3',2':4,5)furo(3,2-d)pyrimidin-2-yl)-

$$$$
