IPE
     RDKit          3D

 14 13  0  0  0  0  0  0  0  0999 V2000
    0.9428    0.1969    0.0898 C   0  0  0  0  0  0  0  0  0  0  0  0
    0.5353   -0.2799    1.3662 O   0  0  0  0  0  0  0  0  0  0  0  0
    0.4840    1.5927   -0.2805 C   0  0  0  0  0  0  0  0  0  0  0  0
    0.9729    1.9173   -1.6862 C   0  0  0  0  0  0  0  0  0  0  0  0
    0.1067    2.1299   -2.6900 C   0  0  0  0  0  0  0  0  0  0  0  0
    2.4606    1.9446   -1.9354 C   0  0  0  0  0  0  0  0  0  0  0  0
    1.1120   -1.8557    1.7872 P   0  0  2  0  0  0  0  0  0  0  0  0
   -0.3161   -2.2758    2.1374 O   0  0  0  0  0  0  0  0  0  0  0  0
    1.3341   -2.2686    0.2146 O   0  0  0  0  0  0  0  0  0  0  0  0
    1.6886   -3.4315    2.2082 O   0  0  0  0  0  0  0  0  0  0  0  0
    3.1990   -3.9060    2.1835 P   0  0  0  0  0  0  0  0  0  0  0  0
    3.3340   -4.6883    3.5680 O   0  0  0  0  0  0  0  0  0  0  0  0
    3.7323   -4.6332    0.9932 O   0  0  0  0  0  0  0  0  0  0  0  0
    4.1554   -2.7045    2.6290 O   0  0  0  0  0  0  0  0  0  0  0  0
  1  2  1  0
  1  3  1  0
  3  4  1  0
  4  5  2  0
  4  6  1  0
  7  2  1  0
  7  8  2  0
  7  9  1  0
  7 10  1  0
 10 11  1  0
 11 12  1  0
 11 13  2  0
 11 14  1  0
M  END
>  <DRUGBANK_ID>  (1) 
DB04714

>  <COMMON_NAME>  (1) 
ISOPENTENYL PYROPHOSPHATE

>  <UNII>  (1) 
LSC8849M7B

$$$$
