501
     RDKit          3D

 24 26  0  0  0  0  0  0  0  0999 V2000
    1.3261    1.1995    0.0122 C   0  0  0  0  0  0  0  0  0  0  0  0
    2.0238   -0.0226   -0.0193 C   0  0  0  0  0  0  0  0  0  0  0  0
    1.2986   -1.2328   -0.0374 C   0  0  0  0  0  0  0  0  0  0  0  0
   -0.1071   -1.1737   -0.0025 C   0  0  0  0  0  0  0  0  0  0  0  0
   -0.7813    0.0396    0.0148 C   0  0  0  0  0  0  0  0  0  0  0  0
   -0.0703    1.2297    0.0139 C   0  0  0  0  0  0  0  0  0  0  0  0
    1.9599   -2.4790   -0.2004 N   0  0  0  0  0  0  0  0  0  0  0  0
    1.3482   -3.6778   -0.1574 C   0  0  0  0  0  0  0  0  0  0  0  0
    0.4033   -4.0111   -1.0743 N   0  0  0  0  0  0  0  0  0  0  0  0
   -0.0166   -5.1961   -0.6851 C   0  0  0  0  0  0  0  0  0  0  0  0
    0.6505   -5.5467    0.4914 N   0  0  0  0  0  0  0  0  0  0  0  0
    1.5812   -4.5976    0.7633 N   0  0  0  0  0  0  0  0  0  0  0  0
   -0.9510   -5.9978   -1.2583 N   0  0  0  0  0  0  0  0  0  0  0  0
   -1.2141   -7.1120   -0.6392 C   0  0  0  0  0  0  0  0  0  0  0  0
   -0.5822   -7.5577    0.6406 C   0  0  0  0  0  0  0  0  0  0  0  0
    0.3389   -6.7442    1.1902 C   0  0  0  0  0  0  0  0  0  0  0  0
    0.9702   -7.0550    2.3928 N   0  0  0  0  0  0  0  0  0  0  0  0
    1.9446   -6.2598    3.1249 C   0  0  0  0  0  0  0  0  0  0  0  0
    1.4207   -5.8969    4.5077 C   0  0  0  0  0  0  0  0  0  0  0  0
    1.2568   -7.1149    5.4074 C   0  0  0  0  0  0  0  0  0  0  0  0
    2.5697   -7.8659    5.5705 C   0  0  0  0  0  0  0  0  0  0  0  0
   -2.2458   -8.0187   -1.2593 C   0  0  0  0  0  0  0  0  0  0  0  0
   -2.5017    0.0527    0.0161 Cl  0  0  0  0  0  0  0  0  0  0  0  0
    3.5288   -0.0068   -0.0239 C   0  0  0  0  0  0  0  0  0  0  0  0
  1  2  2  0
  1  6  1  0
  2  3  1  0
  2 24  1  0
  3  4  2  0
  3  7  1  0
  4  5  1  0
  5  6  2  0
  5 23  1  0
  7  8  1  0
  8  9  1  0
  8 12  2  0
  9 10  2  0
 10 11  1  0
 10 13  1  0
 11 12  1  0
 11 16  1  0
 13 14  2  0
 14 15  1  0
 14 22  1  0
 15 16  2  0
 16 17  1  0
 17 18  1  0
 18 19  1  0
 19 20  1  0
 20 21  1  0
M  END
>  <DRUGBANK_ID>  (1) 
DB07128

>  <COMMON_NAME>  (1) 
N7-BUTYL-N2-(5-CHLORO-2-METHYLPHENYL)-5-METHYL[1,2,4]TRIAZOLO[1,5-A]PYRIMIDINE-2,7-DIAMINE

$$$$
