PN5
     RDKit          3D

 24 23  0  0  0  0  0  0  0  0999 V2000
   -3.9184   -0.2983    4.6764 C   0  0  0  0  0  0  0  0  0  0  0  0
   -2.3941   -0.3241    4.6103 C   0  0  0  0  0  0  0  0  0  0  0  0
   -1.8433   -1.6085    5.1280 N   0  0  0  0  0  0  0  0  0  0  0  0
   -1.5997   -2.7655    4.3613 C   0  0  0  0  0  0  0  0  0  0  0  0
   -1.7381   -3.8495    4.8423 O   0  0  0  0  0  0  0  0  0  0  0  0
   -1.2708   -2.5795    2.8881 C   0  0  0  0  0  0  0  0  0  0  0  0
   -2.3740   -2.3460    1.8865 C   0  0  0  0  0  0  0  0  0  0  0  0
   -3.2243   -1.1561    1.9391 N   0  0  0  0  0  0  0  0  0  0  0  0
   -3.6763   -0.2158    1.0790 C   0  0  0  0  0  0  0  0  0  0  0  0
   -4.3533    0.7257    1.5129 O   0  0  0  0  0  0  0  0  0  0  0  0
   -3.3442   -0.3415   -0.3779 C   0  0  2  0  0  0  0  0  0  0  0  0
   -3.7969    0.8445   -1.0603 O   0  0  0  0  0  0  0  0  0  0  0  0
   -3.9991   -1.6066   -1.0177 C   0  0  0  0  0  0  0  0  0  0  0  0
   -3.5102   -2.9672   -0.5452 C   0  0  0  0  0  0  0  0  0  0  0  0
   -3.5103   -1.6293   -2.4646 C   0  0  0  0  0  0  0  0  0  0  0  0
   -5.5550   -1.6324   -0.7962 C   0  0  0  0  0  0  0  0  0  0  0  0
   -6.0132   -1.5968    0.6272 O   0  0  0  0  0  0  0  0  0  0  0  0
   -6.1214   -2.7441    1.3653 C   0  0  0  0  0  0  0  0  0  0  0  0
   -5.8224   -3.8511    0.9188 O   0  0  0  0  0  0  0  0  0  0  0  0
   -6.6727   -2.6023    2.8153 C   0  0  0  0  0  0  0  0  0  0  0  0
   -6.1692   -3.9303    3.6184 C   0  0  0  0  0  0  0  0  0  0  0  0
   -6.6810   -1.1599    3.4553 C   0  0  0  0  0  0  0  0  0  0  0  0
   -8.1818   -2.7166    2.7922 C   0  0  0  0  0  0  0  0  0  0  0  0
   -4.2610   -2.0697    4.4659 S   0  0  0  0  0  0  0  0  0  0  0  0
  1  2  1  0
  1 24  1  0
  2  3  1  0
  3  4  1  0
  4  5  2  0
  4  6  1  0
  6  7  1  0
  7  8  1  0
  8  9  1  0
  9 10  2  0
 11 12  1  6
 11  9  1  0
 13 15  1  0
 13 14  1  0
 13 16  1  0
 13 11  1  0
 16 17  1  0
 17 18  1  0
 18 19  2  0
 18 20  1  0
 20 22  1  0
 20 23  1  0
 20 21  1  0
M  END
>  <DRUGBANK_ID>  (1) 
DB08408

>  <COMMON_NAME>  (1) 
(3R)-3-hydroxy-2,2-dimethyl-4-oxo-4-({3-oxo-3-[(2-sulfanylethyl)amino]propyl}amino)butyl 2,2-dimethylpropanoate

$$$$
