
     RDKit          3D

 27 29  0  0  1  0  0  0  0  0999 V2000
    6.0863    1.0855   -4.3608 C   0  0  0  0  0  0  0  0  0  0  0  0
    5.5109    0.1053   -3.4822 C   0  0  0  0  0  0  0  0  0  0  0  0
    5.0891   -0.7165   -2.7137 C   0  0  0  0  0  0  0  0  0  0  0  0
    4.7115   -1.7291   -1.8069 C   0  0  0  0  0  0  0  0  0  0  0  0
    5.0035   -2.8753   -2.1020 O   0  0  0  0  0  0  0  0  0  0  0  0
    4.0708   -1.2781   -0.6853 N   0  0  0  0  0  0  0  0  0  0  0  0
    3.3841   -2.1868    0.2009 C   0  0  1  0  0  0  0  0  0  0  0  0
    3.5828   -3.6744   -0.0879 C   0  0  0  0  0  0  0  0  0  0  0  0
    3.0722   -4.6469    0.9564 C   0  0  0  0  0  0  0  0  0  0  0  0
    3.5608   -4.2564    2.3503 C   0  0  0  0  0  0  0  0  0  0  0  0
    3.1062   -2.8948    2.6281 N   0  0  0  0  0  0  0  0  0  0  0  0
    3.6380   -1.8629    1.7129 C   0  0  0  0  0  0  0  0  0  0  0  0
    2.2355   -2.6246    3.6912 C   0  0  0  0  0  0  0  0  0  0  0  0
    0.9302   -2.0394    3.5352 C   0  0  0  0  0  0  0  0  0  0  0  0
    0.1747   -1.6306    2.3903 C   0  0  0  0  0  0  0  0  0  0  0  0
    0.5496   -1.7306    1.0032 C   0  0  0  0  0  0  0  0  0  0  0  0
   -1.0338   -1.1392    2.7556 C   0  0  0  0  0  0  0  0  0  0  0  0
   -2.0986   -0.6026    1.8839 C   0  0  0  0  0  0  0  0  0  0  0  0
   -1.0926   -1.2693    4.0996 N   0  0  0  0  0  0  0  0  0  0  0  0
    0.0675   -1.8158    4.6261 C   0  0  0  0  0  0  0  0  0  0  0  0
    0.4329   -2.1381    5.9467 C   0  0  0  0  0  0  0  0  0  0  0  0
    1.7098   -2.7122    6.1159 C   0  0  0  0  0  0  0  0  0  0  0  0
    2.5642   -2.9524    5.0295 C   0  0  0  0  0  0  0  0  0  0  0  0
    3.7690   -3.4911    5.2957 F   0  0  0  0  0  0  0  0  0  0  0  0
   -0.4273   -1.9147    7.1503 C   0  0  0  0  0  0  0  0  0  0  0  0
   -1.6767   -1.3674    7.0199 N   0  0  0  0  0  0  0  0  0  0  0  0
   -0.0345   -2.2126    8.2736 O   0  0  0  0  0  0  0  0  0  0  0  0
  1  2  1  0
  2  3  3  0
  3  4  1  0
  4  5  2  0
  4  6  1  0
  7  8  1  0
  7 12  1  0
  7  6  1  6
  8  9  1  0
  9 10  1  0
 10 11  1  0
 11 12  1  0
 11 13  1  0
 13 14  2  0
 13 23  1  0
 14 15  1  0
 14 20  1  0
 15 16  1  0
 15 17  2  0
 17 18  1  0
 17 19  1  0
 19 20  1  0
 20 21  2  0
 21 22  1  0
 21 25  1  0
 22 23  2  0
 23 24  1  0
 25 26  1  0
 25 27  2  0
M  END
>  <DRUGBANK_ID>  (1) 
DB15347

>  <COMMON_NAME>  (1) 
Branebrutinib

>  <CAS_NUMBER>  (1) 
1912445-55-6

>  <UNII>  (1) 
7LBRZUYSHU

>  <SYNONYMS>  (1) 
BMS-986195; Branebrutinib

$$$$
