TI3
     RDKit          3D

 29 31  0  0  0  0  0  0  0  0999 V2000
    0.8464    0.3453   -0.0902 S   0  0  0  0  0  0  0  0  0  0  0  0
    0.5956   -0.2707   -1.7790 C   0  0  1  0  0  0  0  0  0  0  0  0
    1.0514    0.8038   -2.8065 C   0  0  0  0  0  0  0  0  0  0  0  0
    2.5442    1.0640   -3.0192 C   0  0  0  0  0  0  0  0  0  0  0  0
    3.1677    2.2507   -2.6210 C   0  0  0  0  0  0  0  0  0  0  0  0
    3.3895    0.0759   -3.5241 C   0  0  0  0  0  0  0  0  0  0  0  0
    4.5661    2.3219   -2.4544 C   0  0  0  0  0  0  0  0  0  0  0  0
    4.7698    0.0916   -3.1971 C   0  0  0  0  0  0  0  0  0  0  0  0
    5.3518    1.1940   -2.6093 C   0  0  0  0  0  0  0  0  0  0  0  0
    0.9389   -1.7524   -2.0738 C   0  0  0  0  0  0  0  0  0  0  0  0
    0.0755   -2.4994   -2.5537 O   0  0  0  0  0  0  0  0  0  0  0  0
    2.1642   -2.3278   -1.9140 N   0  0  0  0  0  0  0  0  0  0  0  0
    3.4129   -1.7312   -1.5301 C   0  0  0  0  0  0  0  0  0  0  0  0
    4.3318   -1.7905   -0.3357 C   0  0  0  0  0  0  0  0  0  0  0  0
    5.5102   -1.5074   -0.4172 O   0  0  0  0  0  0  0  0  0  0  0  0
    3.6441   -1.8763    0.8377 N   0  0  0  0  0  0  0  0  0  0  0  0
    2.4499   -2.6594    0.9948 C   0  0  2  0  0  0  0  0  0  0  0  0
    4.1434   -1.3426    2.0892 C   0  0  1  0  0  0  0  0  0  0  0  0
    2.9662   -1.5877    3.0494 C   0  0  0  0  0  0  0  0  0  0  0  0
    1.7905   -2.0164    2.1872 C   0  0  0  0  0  0  0  0  0  0  0  0
    2.7653   -4.1274    1.0786 C   0  0  0  0  0  0  0  0  0  0  0  0
    1.7130   -5.0102    1.3082 C   0  0  0  0  0  0  0  0  0  0  0  0
    4.0530   -4.6482    0.8523 C   0  0  0  0  0  0  0  0  0  0  0  0
    1.9599   -6.3723    1.3944 C   0  0  0  0  0  0  0  0  0  0  0  0
    4.2981   -6.0076    0.9177 C   0  0  0  0  0  0  0  0  0  0  0  0
    3.2529   -6.8661    1.2210 C   0  0  0  0  0  0  0  0  0  0  0  0
    5.3906   -2.0784    2.5843 C   0  0  0  0  0  0  0  0  0  0  0  0
    5.4515   -3.2257    3.0002 O   0  0  0  0  0  0  0  0  0  0  0  0
    6.5241   -1.3608    2.4739 O   0  0  0  0  0  0  0  0  0  0  0  0
  2  1  1  1
  2  3  1  0
  2 10  1  0
  3  4  1  0
  4  5  2  0
  4  6  1  0
  5  7  1  0
  6  8  2  0
  7  9  2  0
  8  9  1  0
 10 11  2  0
 10 12  1  0
 12 13  1  0
 13 14  1  0
 14 15  2  0
 14 16  1  0
 16 17  1  0
 16 18  1  0
 17 20  1  0
 17 21  1  1
 18 19  1  0
 18 27  1  1
 19 20  1  0
 21 22  2  0
 21 23  1  0
 22 24  1  0
 23 25  2  0
 24 26  2  0
 25 26  1  0
 27 28  2  0
 27 29  1  0
M  END
>  <DRUGBANK_ID>  (1) 
DB02669

>  <SECONDARY_ACCESSION_NUMBERS>  (1) 
EXPT03062

>  <COMMON_NAME>  (1) 
RB106

$$$$
