
     RDKit          3D

 23 25  0  0  0  0  0  0  0  0999 V2000
    0.6795    0.0789   -0.1645 C   0  0  0  0  0  0  0  0  0  0  0  0
    0.5435    4.1635    2.0291 C   0  0  0  0  0  0  0  0  0  0  0  0
    0.2080    1.3939    0.4625 C   0  0  0  0  0  0  0  0  0  0  0  0
    0.3060    3.8559    0.5533 C   0  0  0  0  0  0  0  0  0  0  0  0
    5.5891    1.1800   -1.2223 C   0  0  0  0  0  0  0  0  0  0  0  0
    5.7896    0.0155   -1.8623 C   0  0  0  0  0  0  0  0  0  0  0  0
    3.0568    2.6492    1.4677 C   0  0  0  0  0  0  0  0  0  0  0  0
    4.8909    1.1759   -0.0095 C   0  0  0  0  0  0  0  0  0  0  0  0
    5.2368   -1.1390   -1.3131 C   0  0  0  0  0  0  0  0  0  0  0  0
    1.1487   -3.3096    3.2357 C   0  0  0  0  0  0  0  0  0  0  0  0
    2.0428   -3.4295    2.1830 C   0  0  0  0  0  0  0  0  0  0  0  0
    2.3541    2.6314    0.0706 C   0  0  0  0  0  0  0  0  0  0  0  0
    2.8643    1.4132    2.3047 C   0  0  0  0  0  0  0  0  0  0  0  0
    1.6112   -0.9340    3.2783 C   0  0  0  0  0  0  0  0  0  0  0  0
    0.9215   -2.0558    3.7682 C   0  0  0  0  0  0  0  0  0  0  0  0
    4.2151    0.0651    0.5786 C   0  0  0  0  0  0  0  0  0  0  0  0
    2.5659   -1.0229    2.2234 C   0  0  0  0  0  0  0  0  0  0  0  0
    4.4487   -1.1148   -0.1260 C   0  0  0  0  0  0  0  0  0  0  0  0
    2.7377   -2.3109    1.6774 C   0  0  0  0  0  0  0  0  0  0  0  0
   -0.2152   -1.8789    5.0518 Cl  0  0  0  0  0  0  0  0  0  0  0  0
    0.8878    2.6219    0.0209 N   0  0  0  0  0  0  0  0  0  0  0  0
    3.2937    0.1226    1.6918 N   0  0  0  0  0  0  0  0  0  0  0  0
    3.7786   -2.6929    0.3020 S   0  0  0  0  0  0  0  0  0  0  0  0
  3  1  1  0
  4  2  1  0
  6  5  2  0
  8  5  1  0
  9  6  1  0
 11 10  1  0
 12  7  1  0
 13  7  1  0
 15 10  2  0
 15 14  1  0
 16  8  2  0
 17 14  2  0
 18  9  2  0
 18 16  1  0
 19 11  2  0
 19 17  1  0
 20 15  1  0
 21  3  1  0
 21  4  1  0
 21 12  1  0
 22 13  1  0
 22 16  1  0
 22 17  1  0
 23 18  1  0
 23 19  1  0
M  END
>  <DRUGBANK_ID>  (1) 
DB13382

>  <COMMON_NAME>  (1) 
Chlorproethazine

>  <CAS_NUMBER>  (1) 
84-01-5

>  <UNII>  (1) 
960NX27Z07

>  <SYNONYMS>  (1) 
Chlorproethazine

$$$$
