855
     RDKit          3D

  9  8  0  0  0  0  0  0  0  0999 V2000
    1.0097    0.0011   -0.0759 O   0  0  0  0  0  0  0  0  0  0  0  0
    6.3227    0.5967   -1.3064 O   0  0  0  0  0  0  0  0  0  0  0  0
    4.8148    2.0827   -0.5965 O   0  0  0  0  0  0  0  0  0  0  0  0
    2.6047    2.3313    0.9485 N   0  0  0  0  0  0  0  0  0  0  0  0
    3.1385   -0.6600   -0.9383 C   0  0  0  0  0  0  0  0  0  0  0  0
    3.9980    0.2007   -1.8613 C   0  0  0  0  0  0  0  0  0  0  0  0
    2.2359    0.0928    0.0319 C   0  0  0  0  0  0  0  0  0  0  0  0
    2.8861    0.9059    1.1496 C   0  0  0  0  0  0  0  0  0  0  0  0
    5.0602    1.0432   -1.1944 C   0  0  0  0  0  0  0  0  0  0  0  0
  1  7  2  0
  2  9  1  0
  3  9  2  0
  4  8  1  0
  5  6  1  0
  5  7  1  0
  6  9  1  0
  7  8  1  0
M  END
>  <DRUGBANK_ID>  (1) 
DB00855

>  <SECONDARY_ACCESSION_NUMBERS>  (1) 
APRD00793; DB05277

>  <COMMON_NAME>  (1) 
Aminolevulinic acid

>  <CAS_NUMBER>  (1) 
106-60-5

>  <UNII>  (1) 
88755TAZ87

>  <SYNONYMS>  (1) 
5-ALA; 5-Aminolevulinic acid; ácido 5-aminolevulínico; Aminolevulinic acid; dALA; δ-ALA; δ-aminolevulinic acid

$$$$
