
     RDKit          3D

 33 32  0  0  0  0  0  0  0  0999 V2000
    1.1509   -0.3740   -0.0543 O   0  0  0  0  0  0  0  0  0  0  0  0
    0.5337    0.7897    0.1340 C   0  0  0  0  0  0  0  0  0  0  0  0
    1.3189    1.7228    0.1171 O   0  0  0  0  0  0  0  0  0  0  0  0
   -1.0357    0.2749    0.0676 C   0  0  0  0  0  0  0  0  0  0  0  0
   -1.8176   -0.1814   -1.3534 N   0  0  0  0  0  0  0  0  0  0  0  0
   -3.2932    0.2463   -1.4297 C   0  0  0  0  0  0  0  0  0  0  0  0
   -4.0150    1.5728   -1.8640 C   0  0  0  0  0  0  0  0  0  0  0  0
   -3.4728    2.5533   -3.0554 N   0  0  0  0  0  0  0  0  0  0  0  0
   -3.7886    4.1470   -3.0166 C   0  0  0  0  0  0  0  0  0  0  0  0
   -3.0965    5.0763   -1.1982 C   0  0  0  0  0  0  0  0  0  0  0  0
   -2.0285    6.6093   -1.0631 O   0  0  0  0  0  0  0  0  0  0  0  0
   -2.7943    4.3616   -0.2093 O   0  0  0  0  0  0  0  0  0  0  0  0
   -1.7621    2.7921   -3.2817 C   0  0  0  0  0  0  0  0  0  0  0  0
   -0.3367    3.6181   -1.8381 C   0  0  0  0  0  0  0  0  0  0  0  0
    0.0614    3.2092   -0.6750 O   0  0  0  0  0  0  0  0  0  0  0  0
   -0.4551    5.0981   -1.7036 N   0  0  0  0  0  0  0  0  0  0  0  0
   -2.1990    5.7416   -2.6178 C   0  0  0  0  0  0  0  0  0  0  0  0
   -4.2879    6.0225   -1.7966 C   0  0  0  0  0  0  0  0  0  0  0  0
   -4.3448    7.5851    0.4867 S   0  0  0  0  0  0  0  0  0  0  0  0
   -0.9178    0.3576   -2.5985 C   0  0  0  0  0  0  0  0  0  0  0  0
   -0.6560    1.7269   -2.0723 C   0  0  0  0  0  0  0  0  0  0  0  0
   -1.8665    2.5397   -0.9777 N   0  0  0  0  0  0  0  0  0  0  0  0
   -2.3334    3.6815   -1.7055 C   0  0  0  0  0  0  0  0  0  0  0  0
   -4.4553    3.7923   -1.1803 C   0  0  0  0  0  0  0  0  0  0  0  0
   -5.2594    4.9403   -0.0507 O   0  0  0  0  0  0  0  0  0  0  0  0
   -5.4944    3.8273   -1.9130 O   0  0  0  0  0  0  0  0  0  0  0  0
   -2.0133    2.5303    0.5877 C   0  0  0  0  0  0  0  0  0  0  0  0
   -3.5250    2.5897    0.9905 C   0  0  0  0  0  0  0  0  0  0  0  0
   -4.2281    1.5624    0.9154 O   0  0  0  0  0  0  0  0  0  0  0  0
   -4.0665    4.0494    1.0340 N   0  0  0  0  0  0  0  0  0  0  0  0
   -3.3225    5.8425    0.4738 C   0  0  0  0  0  0  0  0  0  0  0  0
   -3.6352    7.4121   -1.2405 C   0  0  0  0  0  0  0  0  0  0  0  0
   -6.1510    7.2770   -1.3449 S   0  0  0  0  0  0  0  0  0  0  0  0
  1  2  1  0
  2  3  2  0
  2  4  1  0
  4  5  1  0
  5  6  1  0
  5 20  1  0
  6  7  1  0
  7  8  1  0
  8  9  1  0
  8 13  1  0
  9 10  1  0
 10 11  1  0
 10 12  2  0
 13 14  1  0
 14 15  2  0
 14 16  1  0
 16 17  1  0
 17 18  1  0
 18 19  1  0
 20 21  1  0
 21 22  1  0
 22 23  1  0
 22 27  1  0
 23 24  1  0
 24 25  1  0
 24 26  2  0
 27 28  1  0
 28 29  2  0
 28 30  1  0
 30 31  1  0
 31 32  1  0
 32 33  1  0
M  END
>  <DRUGBANK_ID>  (1) 
DB04229

>  <SECONDARY_ACCESSION_NUMBERS>  (1) 
EXPT03274

>  <COMMON_NAME>  (1) 
7,10,13-Tri(Carboxymethyl)-5,15-Dioxo-4,7,10,13,16-Pentaaza-1,19-Dithianonadecane

$$$$
