PB3
     RDKit          3D

 28 30  0  0  0  0  0  0  0  0999 V2000
    1.1196   -0.7890    0.0153 C   0  0  0  0  0  0  0  0  0  0  0  0
   -0.1000   -1.4336    0.0025 C   0  0  0  0  0  0  0  0  0  0  0  0
   -1.2243   -0.6344   -0.0187 C   0  0  0  0  0  0  0  0  0  0  0  0
    1.2440    0.5586    0.0157 N   0  0  0  0  0  0  0  0  0  0  0  0
   -6.7056    2.4740    3.0361 C   0  0  0  0  0  0  0  0  0  0  0  0
    6.7525    1.5676   -3.2545 C   0  0  0  0  0  0  0  0  0  0  0  0
   -2.5718   -1.3113   -0.0610 C   0  0  0  0  0  0  0  0  0  0  0  0
   -5.0455   -1.0917   -0.1056 C   0  0  0  0  0  0  0  0  0  0  0  0
   -5.8480   -0.6955    1.1119 C   0  0  0  0  0  0  0  0  0  0  0  0
    2.3658   -1.6374    0.0328 C   0  0  0  0  0  0  0  0  0  0  0  0
    5.8737   -0.1346   -1.6322 C   0  0  0  0  0  0  0  0  0  0  0  0
    7.0691   -2.2113   -3.0488 C   0  0  0  0  0  0  0  0  0  0  0  0
   -6.5215   -1.6599    1.8783 C   0  0  0  0  0  0  0  0  0  0  0  0
   -7.2206   -1.2907    3.0302 C   0  0  0  0  0  0  0  0  0  0  0  0
   -7.2729    0.0473    3.4177 C   0  0  0  0  0  0  0  0  0  0  0  0
   -5.9537    0.6514    1.4875 C   0  0  0  0  0  0  0  0  0  0  0  0
   -1.1692    0.7179   -0.0171 N   0  0  0  0  0  0  0  0  0  0  0  0
    0.0770    1.2367    0.0028 C   0  0  0  0  0  0  0  0  0  0  0  0
   -3.7022   -0.5192   -0.0982 N   0  0  0  0  0  0  0  0  0  0  0  0
    3.5900   -1.0007    0.0489 N   0  0  0  0  0  0  0  0  0  0  0  0
    4.8456   -1.7451    0.0260 C   0  0  0  0  0  0  0  0  0  0  0  0
    5.6775   -1.4536   -1.2015 C   0  0  0  0  0  0  0  0  0  0  0  0
    6.6207    0.1523   -2.7802 C   0  0  0  0  0  0  0  0  0  0  0  0
    7.2176   -0.8957   -3.4873 C   0  0  0  0  0  0  0  0  0  0  0  0
    6.3052   -2.4894   -1.9117 C   0  0  0  0  0  0  0  0  0  0  0  0
   -6.6490    1.0291    2.6433 C   0  0  0  0  0  0  0  0  0  0  0  0
    2.2608   -2.8633    0.0384 O   0  0  0  0  0  0  0  0  0  0  0  0
   -2.6284   -2.5401   -0.0713 O   0  0  0  0  0  0  0  0  0  0  0  0
  1  2  2  0
  1  4  1  0
  1 10  1  0
  2  3  1  0
  3  7  1  0
  3 17  2  0
  4 18  2  0
  5 26  1  0
  6 23  1  0
  7 19  1  0
  7 28  2  0
  8  9  1  0
  8 19  1  0
  9 13  2  0
  9 16  1  0
 10 20  1  0
 10 27  2  0
 11 22  2  0
 11 23  1  0
 12 24  1  0
 12 25  2  0
 13 14  1  0
 14 15  2  0
 15 26  1  0
 16 26  2  0
 17 18  1  0
 20 21  1  0
 21 22  1  0
 22 25  1  0
 23 24  2  0
M  END
>  <DRUGBANK_ID>  (1) 
DB04759

>  <COMMON_NAME>  (1) 
PYRIMIDINE-4,6-DICARBOXYLIC ACID BIS-(3-METHYL-BENZYLAMIDE)

>  <UNII>  (1) 
X969YB2837

$$$$
