
     RDKit          3D

 35 39  0  0  0  0  0  0  0  0999 V2000
    1.1845    1.2248   -0.6584 C   0  0  2  0  0  0  0  0  0  0  0  0
   -0.1497    0.5657   -0.3250 C   0  0  0  0  0  0  0  0  0  0  0  0
    2.2902    0.3697   -0.2915 N   0  0  0  0  0  0  0  0  0  0  0  0
   -0.2375   -0.8420   -0.2944 C   0  0  0  0  0  0  0  0  0  0  0  0
   -1.2894    1.3302   -0.0461 C   0  0  0  0  0  0  0  0  0  0  0  0
    2.1157   -0.9276    0.3128 C   0  0  0  0  0  0  0  0  0  0  0  0
   -1.4709   -1.4466   -0.0651 C   0  0  0  0  0  0  0  0  0  0  0  0
    1.0327   -1.6449   -0.4571 C   0  0  0  0  0  0  0  0  0  0  0  0
   -2.5200    0.7409    0.2129 C   0  0  0  0  0  0  0  0  0  0  0  0
   -2.6176   -0.6645    0.1673 C   0  0  0  0  0  0  0  0  0  0  0  0
   -3.6265    1.4901    0.5092 O   0  0  0  0  0  0  0  0  0  0  0  0
   -3.7556   -1.4174    0.3333 O   0  0  0  0  0  0  0  0  0  0  0  0
   -4.9655   -0.6948    0.5138 C   0  0  0  0  0  0  0  0  0  0  0  0
    6.7731    9.1715    6.5785 C   0  0  0  0  0  0  0  0  0  0  0  0
    9.1372    8.6078    3.6353 C   0  0  0  0  0  0  0  0  0  0  0  0
    7.9603    8.3600    4.3649 O   0  0  0  0  0  0  0  0  0  0  0  0
    6.8313    7.7377    3.9051 C   0  0  0  0  0  0  0  0  0  0  0  0
    5.8406    7.6840    4.9060 C   0  0  0  0  0  0  0  0  0  0  0  0
    5.7865    8.2456    6.1549 O   0  0  0  0  0  0  0  0  0  0  0  0
    6.5721    7.1253    2.5920 C   0  0  0  0  0  0  0  0  0  0  0  0
    5.2796    6.5388    2.2671 C   0  0  0  0  0  0  0  0  0  0  0  0
    4.5796    6.2739    3.4400 C   0  0  0  0  0  0  0  0  0  0  0  0
    4.7488    6.8798    4.6781 C   0  0  0  0  0  0  0  0  0  0  0  0
    4.6704    5.5876    0.9395 C   0  0  1  0  0  0  0  0  0  0  0  0
    5.3789    4.3520    1.2639 N   0  0  0  0  0  0  0  0  0  0  0  0
    4.6983    4.0283    2.5758 C   0  0  0  0  0  0  0  0  0  0  0  0
    3.7838    5.0644    3.3284 C   0  0  0  0  0  0  0  0  0  0  0  0
    2.9772    4.9169    0.4740 C   0  0  0  0  0  0  0  0  0  0  0  0
    2.7536    3.3438    0.0543 C   0  0  0  0  0  0  0  0  0  0  0  0
    3.8853    2.6193    0.3349 C   0  0  0  0  0  0  0  0  0  0  0  0
    5.1411    3.4137    0.1393 C   0  0  0  0  0  0  0  0  0  0  0  0
    1.3487    2.6754   -0.0243 C   0  0  0  0  0  0  0  0  0  0  0  0
    3.8983    1.5465    1.4825 C   0  0  0  0  0  0  0  0  0  0  0  0
    2.8241    1.6624    2.6424 C   0  0  0  0  0  0  0  0  0  0  0  0
   -3.5350    2.9067    0.5674 C   0  0  0  0  0  0  0  0  0  0  0  0
  1  2  1  0
  1  3  1  0
  1 32  1  1
  2  4  2  0
  2  5  1  0
  3  6  1  0
  4  7  1  0
  4  8  1  0
  5  9  2  0
  6  8  1  0
  7 10  2  0
  9 11  1  0
  9 10  1  0
 10 12  1  0
 11 35  1  0
 12 13  1  0
 14 19  1  0
 15 16  1  0
 16 17  1  0
 17 18  2  0
 17 20  1  0
 18 19  1  0
 18 23  1  0
 20 21  2  0
 21 22  1  0
 21 24  1  0
 22 23  2  0
 22 27  1  0
 24 25  1  0
 24 28  1  1
 25 26  1  0
 25 31  1  0
 26 27  1  0
 28 29  1  0
 29 30  2  0
 29 32  1  0
 30 31  1  0
 30 33  1  0
 33 34  1  0
M  END
>  <DRUGBANK_ID>  (1) 
DB13865

>  <COMMON_NAME>  (1) 
Dehydroemetine

>  <CAS_NUMBER>  (1) 
4914-30-1

>  <UNII>  (1) 
7S79QT1T91

>  <SYNONYMS>  (1) 
Dehydroemetine

$$$$
