692
     RDKit          3D

 21 23  0  0  0  0  0  0  0  0999 V2000
    2.2736    0.0217    0.0039 O   0  0  0  0  0  0  0  0  0  0  0  0
   -1.9413   -2.4072   -0.0690 N   0  0  0  0  0  0  0  0  0  0  0  0
   -4.4260   -2.4528   -2.4357 N   0  0  0  0  0  0  0  0  0  0  0  0
   -4.1549   -4.4355   -1.3738 N   0  0  0  0  0  0  0  0  0  0  0  0
   -3.4438   -2.4494   -0.0572 C   0  0  0  0  0  0  0  0  0  0  0  0
   -4.0274   -3.1301   -1.2998 C   0  0  0  0  0  0  0  0  0  0  0  0
   -5.0155   -3.4015   -3.3498 C   0  0  0  0  0  0  0  0  0  0  0  0
   -4.3710   -4.6803   -2.8300 C   0  0  0  0  0  0  0  0  0  0  0  0
   -1.3151   -3.6832    0.0239 C   0  0  0  0  0  0  0  0  0  0  0  0
   -1.2368   -1.1801   -0.0173 C   0  0  0  0  0  0  0  0  0  0  0  0
   -0.5277   -4.0599    1.1187 C   0  0  0  0  0  0  0  0  0  0  0  0
   -1.3536   -4.5711   -1.0543 C   0  0  0  0  0  0  0  0  0  0  0  0
    0.1790   -1.1684   -0.0221 C   0  0  0  0  0  0  0  0  0  0  0  0
   -1.8598    0.0780   -0.0071 C   0  0  0  0  0  0  0  0  0  0  0  0
    0.0313   -6.1864    0.0631 C   0  0  0  0  0  0  0  0  0  0  0  0
    0.1656   -5.2823    1.1229 C   0  0  0  0  0  0  0  0  0  0  0  0
   -0.7650   -5.8321   -1.0182 C   0  0  0  0  0  0  0  0  0  0  0  0
    0.9091    0.0198    0.0033 C   0  0  0  0  0  0  0  0  0  0  0  0
   -1.1241    1.2712    0.0087 C   0  0  0  0  0  0  0  0  0  0  0  0
    0.2636    1.2414    0.0185 C   0  0  0  0  0  0  0  0  0  0  0  0
    0.7526   -7.4977    0.0380 C   0  0  0  0  0  0  0  0  0  0  0  0
  1 18  1  0
  2  5  1  0
  2  9  1  0
  2 10  1  0
  3  6  1  0
  3  7  1  0
  4  6  2  0
  4  8  1  0
  5  6  1  0
  7  8  1  0
  9 11  2  0
  9 12  1  0
 10 13  2  0
 10 14  1  0
 11 16  1  0
 12 17  2  0
 13 18  1  0
 14 19  2  0
 15 16  2  0
 15 17  1  0
 15 21  1  0
 18 20  2  0
 19 20  1  0
M  END
>  <DRUGBANK_ID>  (1) 
DB00692

>  <SECONDARY_ACCESSION_NUMBERS>  (1) 
APRD00615

>  <COMMON_NAME>  (1) 
Phentolamine

>  <CAS_NUMBER>  (1) 
50-60-2

>  <UNII>  (1) 
Z468598HBV

>  <SYNONYMS>  (1) 
2-(N-(m-hydroxyphenyl)-p-toluidinomethyl)imidazoline; 3-((4,5-DIHYDRO-1H-IMIDAZOL-2-YLMETHYL)(4-METHYLPHENYL)AMINO)PHENOL; Fentolamina; Phentolamin; Phentolamine; Phentolaminum

$$$$
