
     RDKit          3D

 24 27  0  0  0  0  0  0  0  0999 V2000
   -2.0912    0.0152   -0.0728 C   0  0  2  0  0  0  0  0  0  0  0  0
   -2.2976    0.5135    1.3517 C   0  0  0  0  0  0  0  0  0  0  0  0
   -2.1521    2.0285    1.4697 C   0  0  0  0  0  0  0  0  0  0  0  0
   -2.9616    2.8860    0.4273 C   0  0  1  0  0  0  0  0  0  0  0  0
   -2.4158    2.4452   -0.9528 C   0  0  2  0  0  0  0  0  0  0  0  0
   -3.3465    3.1281   -1.9425 C   0  0  0  0  0  0  0  0  0  0  0  0
   -4.7315    2.6788   -1.3674 C   0  0  0  0  0  0  0  0  0  0  0  0
   -4.5531    2.6536    0.2442 C   0  0  2  0  0  0  0  0  0  0  0  0
   -5.4047    3.7227    0.6764 O   0  0  0  0  0  0  0  0  0  0  0  0
   -4.9849    1.6045    1.2071 C   0  0  0  0  0  0  0  0  0  0  0  0
   -5.1738    1.0960    2.3186 C   0  0  0  0  0  0  0  0  0  0  0  0
   -2.5473    0.9170   -1.2078 C   0  0  1  0  0  0  0  0  0  0  0  0
   -1.8465    0.4731   -2.5170 C   0  0  1  0  0  0  0  0  0  0  0  0
   -0.4452    0.7054   -2.4614 O   0  0  0  0  0  0  0  0  0  0  0  0
   -2.0382   -0.9929   -2.7611 C   0  0  0  0  0  0  0  0  0  0  0  0
   -2.3732   -1.8614   -1.7881 C   0  0  0  0  0  0  0  0  0  0  0  0
   -2.6550   -3.3248   -2.0541 C   0  0  0  0  0  0  0  0  0  0  0  0
   -4.1424   -3.4731   -1.6758 C   0  0  2  0  0  0  0  0  0  0  0  0
   -4.4229   -3.1903   -0.1816 C   0  0  0  0  0  0  0  0  0  0  0  0
   -4.1623   -1.6756    0.0017 C   0  0  0  0  0  0  0  0  0  0  0  0
   -2.6282   -1.4310   -0.3233 C   0  0  2  0  0  0  0  0  0  0  0  0
   -1.8207   -2.3122    0.6662 C   0  0  0  0  0  0  0  0  0  0  0  0
   -4.7932   -4.6254   -2.1719 O   0  0  0  0  0  0  0  0  0  0  0  0
   -2.5910    4.3805    0.6335 C   0  0  0  0  0  0  0  0  0  0  0  0
  1 21  1  0
  1  2  1  1
  3  2  1  0
  4  3  1  0
  4 24  1  1
  5  4  1  0
  5 12  1  0
  5  6  1  6
  7  6  1  0
  8  7  1  0
  8  4  1  0
  8  9  1  1
  8 10  1  0
 10 11  3  0
 12 13  1  6
 12  1  1  0
 13 15  1  0
 13 14  1  1
 15 16  2  0
 16 21  1  0
 17 16  1  0
 18 17  1  0
 18 19  1  0
 18 23  1  1
 19 20  1  0
 20 21  1  0
 21 22  1  1
M  END
>  <DRUGBANK_ID>  (1) 
DB05212

>  <COMMON_NAME>  (1) 
HE3286

>  <CAS_NUMBER>  (1) 
1001100-69-1

>  <UNII>  (1) 
PH8858757I

$$$$
