
     RDKit          3D

  6  2  0  0  0  0  0  0  0  0999 V2000
    4.0461    0.2940    2.1879 Fe  0  0  0  0  0 15  0  0  0  0  0  0
   -2.5262    0.7339    0.9250 Fe  0  0  0  0  0 15  0  0  0  0  0  0
   -0.2449    0.4029   -0.1620 O   0  0  0  0  0  0  0  0  0  0  0  0
    2.7886   -1.0900   -0.8917 N   0  0  0  0  0  0  0  0  0  0  0  0
    3.7097   -0.3881   -0.8360 N   0  0  0  0  0  0  0  0  0  0  0  0
    4.3502    0.3267   -0.2492 N   0  0  0  0  0  0  0  0  0  0  0  0
  4  5  2  0
  5  6  2  0
M  CHG  3   4  -1   5   1   6  -1
M  END
>  <DRUGBANK_ID>  (1) 
DB02013

>  <SECONDARY_ACCESSION_NUMBERS>  (1) 
EXPT01417

>  <COMMON_NAME>  (1) 
Iron azide hydrate

>  <SYNONYMS>  (1) 
Monoazido-mu-oxo-diiron; Monoazido-Î¼-Oxo-Diiron

$$$$
