34T
     RDKit          3D

 14 15  0  0  0  0  0  0  0  0999 V2000
    0.9671    0.0258    0.0418 S   0  0  0  0  0  0  0  0  0  0  0  0
    0.5948   -0.8596    1.1335 O   0  0  0  0  0  0  0  0  0  0  0  0
    2.3854    3.7526   -1.9996 C   0  0  0  0  0  0  0  0  0  0  0  0
    2.6339    4.9525   -1.0904 C   0  0  1  0  0  0  0  0  0  0  0  0
    1.3072    5.2856   -0.4040 C   0  0  0  0  0  0  0  0  0  0  0  0
    0.6748    4.0541    0.2095 C   0  0  0  0  0  0  0  0  0  0  0  0
   -0.3157    4.2387    1.1847 C   0  0  0  0  0  0  0  0  0  0  0  0
   -0.9091    3.1406    1.7949 C   0  0  0  0  0  0  0  0  0  0  0  0
   -0.5222    1.8532    1.4296 C   0  0  0  0  0  0  0  0  0  0  0  0
    0.4583    1.6685    0.4437 C   0  0  0  0  0  0  0  0  0  0  0  0
    1.0794    2.7536   -0.1867 C   0  0  0  0  0  0  0  0  0  0  0  0
    3.7351    4.6609   -0.0588 C   0  0  0  0  0  0  0  0  0  0  0  0
    2.0380    2.6064   -1.1820 N   0  0  0  0  0  0  0  0  0  0  0  0
    0.5815   -0.2517   -1.3240 O   0  0  0  0  0  0  0  0  0  0  0  0
  1 10  1  0
  1 14  2  0
  2  1  2  0
  3  4  1  0
  4 12  1  1
  5  4  1  0
  6  5  1  0
  7  6  2  0
  8  7  1  0
  9  8  2  0
  9 10  1  0
 10 11  2  0
 11  6  1  0
 11 13  1  0
 13  3  1  0
M  END
>  <DRUGBANK_ID>  (1) 
DB07016

>  <COMMON_NAME>  (1) 
(3R)-8-(dioxidosulfanyl)-3-methyl-1,2,3,4-tetrahydroquinoline

$$$$
