
     RDKit          3D

 21 21  0  0  0  0  0  0  0  0999 V2000
    1.0928   -0.3728   -0.0055 O   0  0  0  0  0  0  0  0  0  0  0  0
    1.8350    4.0759   -0.7134 O   0  0  0  0  0  0  0  0  0  0  0  0
    6.1224    0.3910   -2.2805 O   0  0  0  0  0  0  0  0  0  0  0  0
    4.4616   -0.5579   -3.4241 O   0  0  0  0  0  0  0  0  0  0  0  0
    6.0352   -4.2158   -3.3530 O   0  0  0  0  0  0  0  0  0  0  0  0
    4.2680   -2.9636   -3.8678 O   0  0  0  0  0  0  0  0  0  0  0  0
    2.5189    2.2908    0.5385 N   0  0  0  0  0  0  0  0  0  0  0  0
    3.0949   -1.0053   -0.7981 N   0  0  0  0  0  0  0  0  0  0  0  0
    3.2282    1.5027   -2.3058 N   0  0  0  0  0  0  0  0  0  0  0  0
    2.9778    0.9245    0.7799 C   0  0  1  0  0  0  0  0  0  0  0  0
    2.6429    0.7510    2.2632 C   0  0  0  0  0  0  0  0  0  0  0  0
    3.0276    2.0988    2.8575 C   0  0  0  0  0  0  0  0  0  0  0  0
    2.7697    3.0987    1.7257 C   0  0  0  0  0  0  0  0  0  0  0  0
    2.3137   -0.2034   -0.0094 C   0  0  0  0  0  0  0  0  0  0  0  0
    2.0936    2.8705   -0.6483 C   0  0  0  0  0  0  0  0  0  0  0  0
    4.5563   -0.9946   -0.9964 C   0  0  1  0  0  0  0  0  0  0  0  0
    5.0878   -2.3942   -0.6700 C   0  0  0  0  0  0  0  0  0  0  0  0
    1.9234    2.0021   -1.9057 C   0  0  0  0  0  0  0  0  0  0  0  0
    4.5707   -3.5366   -1.5518 C   0  0  0  0  0  0  0  0  0  0  0  0
    5.0365   -0.4174   -2.3567 C   0  0  0  0  0  0  0  0  0  0  0  0
    4.9363   -3.5060   -3.0235 C   0  0  0  0  0  0  0  0  0  0  0  0
  1 14  2  0
  2 15  2  0
  3 20  1  0
  4 20  2  0
  5 21  1  0
  6 21  2  0
  7 10  1  0
  7 13  1  0
  7 15  1  0
  8 14  1  0
  9 18  1  0
 10 11  1  0
 10 14  1  6
 11 12  1  0
 12 13  1  0
 15 18  1  0
 16  8  1  0
 16 17  1  6
 16 20  1  0
 17 19  1  0
 19 21  1  0
M  END
>  <DRUGBANK_ID>  (1) 
DB05633

>  <COMMON_NAME>  (1) 
Glypromate

>  <CAS_NUMBER>  (1) 
32302-76-4

>  <UNII>  (1) 
ZYK4RVV5LS

>  <SYNONYMS>  (1) 
Gly-pro-glu; Glycyl-prolyl-glutamic acid; GPE

$$$$
