
     RDKit          3D

 18 17  0  0  0  0  0  0  0  0999 V2000
    1.3908    0.1974    0.1955 C   0  0  0  0  0  0  0  0  0  0  0  0
    0.7270    0.4592   -1.1382 C   0  0  0  0  0  0  0  0  0  0  0  0
    1.0800   -0.5833   -2.1749 C   0  0  0  0  0  0  0  0  0  0  0  0
    0.4956   -1.9927   -2.0953 C   0  0  0  0  0  0  0  0  0  0  0  0
   -0.9963   -2.0552   -2.2830 C   0  0  0  0  0  0  0  0  0  0  0  0
   -1.4957   -1.7404   -3.6672 C   0  0  0  0  0  0  0  0  0  0  0  0
   -0.9454   -2.8611   -5.0189 S   0  0  0  0  0  0  0  0  0  0  0  0
    0.9039   -2.8219   -5.0994 C   0  0  0  0  0  0  0  0  0  0  0  0
    1.5900   -1.5238   -5.5390 C   0  0  0  0  0  0  0  0  0  0  0  0
    1.1247   -0.3060   -5.0089 O   0  0  0  0  0  0  0  0  0  0  0  0
    0.9715   -1.1599    0.6965 C   0  0  0  0  0  0  0  0  0  0  0  0
    1.3921   -1.5588    2.0702 C   0  0  0  0  0  0  0  0  0  0  0  0
    0.6237   -0.7811    3.1009 C   0  0  0  0  0  0  0  0  0  0  0  0
   -0.9014   -0.9025    3.0008 C   0  0  0  0  0  0  0  0  0  0  0  0
   -1.6877   -2.5421    3.3773 S   0  0  0  0  0  0  0  0  0  0  0  0
   -1.1834   -3.7707    2.0830 C   0  0  0  0  0  0  0  0  0  0  0  0
   -1.8166   -3.6235    0.7082 C   0  0  0  0  0  0  0  0  0  0  0  0
   -1.8747   -2.2760    0.2915 O   0  0  0  0  0  0  0  0  0  0  0  0
  1  2  1  0
  1 11  1  0
  2  3  1  0
  3  4  1  0
  4  5  1  0
  5  6  1  0
  6  7  1  0
  7  8  1  0
  8  9  1  0
  9 10  1  0
 11 12  1  0
 12 13  1  0
 13 14  1  0
 14 15  1  0
 15 16  1  0
 16 17  1  0
 17 18  1  0
M  END
>  <DRUGBANK_ID>  (1) 
DB13348

>  <COMMON_NAME>  (1) 
Tiadenol

>  <CAS_NUMBER>  (1) 
6964-20-1

>  <UNII>  (1) 
22251270CX

>  <SYNONYMS>  (1) 
Tiadenol

$$$$
