
     RDKit          3D

 11 11  0  0  0  0  0  0  0  0999 V2000
    1.6818   -1.3353   -0.0009 O   0  0  0  0  0  0  0  0  0  0  0  0
    0.4773   -0.6889   -0.0011 C   0  0  0  0  0  0  0  0  0  0  0  0
   -0.7323   -1.3803   -0.0090 C   0  0  0  0  0  0  0  0  0  0  0  0
   -1.9353   -0.6601   -0.0107 C   0  0  0  0  0  0  0  0  0  0  0  0
   -1.9073    0.7460    0.0054 C   0  0  0  0  0  0  0  0  0  0  0  0
   -0.6906    1.4346    0.0159 C   0  0  0  0  0  0  0  0  0  0  0  0
    0.4902    0.7063    0.0061 C   0  0  0  0  0  0  0  0  0  0  0  0
    1.6696    1.3947   -0.0001 O   0  0  0  0  0  0  0  0  0  0  0  0
   -3.1635    1.5070    0.0093 N   0  0  0  0  0  0  0  0  0  0  0  0
   -3.0890    2.7450    0.0281 O   0  0  0  0  0  0  0  0  0  0  0  0
   -4.2243    0.8687   -0.0063 O   0  0  0  0  0  0  0  0  0  0  0  0
  1  2  1  0
  2  3  2  0
  2  7  1  0
  3  4  1  0
  4  5  2  0
  5  6  1  0
  5  9  1  0
  6  7  2  0
  7  8  1  0
  9 10  1  0
  9 11  2  0
M  CHG  2   9   1  10  -1
M  END
>  <DRUGBANK_ID>  (1) 
DB03407

>  <SECONDARY_ACCESSION_NUMBERS>  (1) 
EXPT00222

>  <COMMON_NAME>  (1) 
4-Nitrocatechol

>  <CAS_NUMBER>  (1) 
3316-09-4

>  <UNII>  (1) 
SW60NG75EN

$$$$
