
     RDKit          3D

 36 38  0  0  1  0  0  0  0  0999 V2000
    0.9840    0.0227   -0.0562 C   0  0  0  0  0  0  0  0  0  0  0  0
    0.4769    1.2676    0.6640 C   0  0  1  0  0  0  0  0  0  0  0  0
    1.3119    2.4675    0.2124 C   0  0  0  0  0  0  0  0  0  0  0  0
    2.4033    2.8940    0.9181 C   0  0  0  0  0  0  0  0  0  0  0  0
    3.1080    4.1334    0.4650 C   0  0  0  0  0  0  0  0  0  0  0  0
    1.7480    4.6731    0.2018 C   0  0  1  0  0  0  0  0  0  0  0  0
    1.2022    3.4539   -0.9830 C   0  0  2  0  0  0  0  0  0  0  0  0
    0.0373    4.0891   -1.7313 C   0  0  0  0  0  0  0  0  0  0  0  0
   -0.0481    5.4896   -1.2933 C   0  0  0  0  0  0  0  0  0  0  0  0
   -0.4100    5.1729    0.1351 C   0  0  0  0  0  0  0  0  0  0  0  0
    0.6021    4.8537    1.2596 C   0  0  0  0  0  0  0  0  0  0  0  0
    0.5932    4.3574    2.5791 C   0  0  0  0  0  0  0  0  0  0  0  0
   -0.4668    3.6367    3.4510 C   0  0  0  0  0  0  0  0  0  0  0  0
   -0.4813    3.2684    4.7776 C   0  0  0  0  0  0  0  0  0  0  0  0
   -1.7952    3.0201    5.5195 C   0  0  0  0  0  0  0  0  0  0  0  0
   -1.9096    4.0892    6.6245 C   0  0  2  0  0  0  0  0  0  0  0  0
   -0.5620    4.2208    7.3606 C   0  0  0  0  0  0  0  0  0  0  0  0
    0.5865    4.5853    6.4166 C   0  0  1  0  0  0  0  0  0  0  0  0
    0.7135    3.4706    5.4509 C   0  0  0  0  0  0  0  0  0  0  0  0
    1.7991    2.7276    5.0724 C   0  0  0  0  0  0  0  0  0  0  0  0
    0.2811    5.8207    5.7508 O   0  0  0  0  0  0  0  0  0  0  0  0
   -2.9365    3.7389    7.5493 O   0  0  0  0  0  0  0  0  0  0  0  0
    1.5968    2.5291   -2.1551 C   0  0  0  0  0  0  0  0  0  0  0  0
   -0.9499    1.4115    0.7804 O   0  0  0  0  0  0  0  0  0  0  0  0
   -1.8007    1.2069   -0.3270 C   0  0  0  0  0  0  0  0  0  0  0  0
   -2.3216    2.4090   -1.1346 C   0  0  0  0  0  0  0  0  0  0  0  0
   -2.2422    2.3354   -2.3732 O   0  0  0  0  0  0  0  0  0  0  0  0
   -2.7313    3.6210   -0.5827 N   0  0  0  0  0  0  0  0  0  0  0  0
   -3.1941    4.1032    0.7799 C   0  0  0  0  0  0  0  0  0  0  0  0
   -2.3253    4.8954    1.8176 C   0  0  0  0  0  0  0  0  0  0  0  0
   -1.6216    6.5247    1.9913 C   0  0  0  0  0  0  0  0  0  0  0  0
   -2.6479    7.4114    1.9870 F   0  0  0  0  0  0  0  0  0  0  0  0
   -0.9556    6.6906    3.1751 F   0  0  0  0  0  0  0  0  0  0  0  0
   -0.7540    7.1036    1.0951 F   0  0  0  0  0  0  0  0  0  0  0  0
   -2.9172    4.6940    3.0473 F   0  0  0  0  0  0  0  0  0  0  0  0
   -1.4318    3.8889    1.6844 F   0  0  0  0  0  0  0  0  0  0  0  0
  2  1  1  6
  2 24  1  0
  2  3  1  0
  3  4  2  0
  3  7  1  0
  4  5  1  0
  6  5  1  1
  6  7  1  0
  6 11  1  0
  7  8  1  0
  7 23  1  6
  8  9  1  0
  9 10  1  0
 10 11  1  0
 11 12  2  0
 12 13  1  0
 13 14  2  0
 14 15  1  0
 14 19  1  0
 15 16  1  0
 16 17  1  0
 16 22  1  1
 17 18  1  0
 18 19  1  0
 18 21  1  6
 19 20  2  0
 24 25  1  0
 25 26  1  0
 26 27  2  0
 26 28  1  0
 28 29  1  0
 29 30  1  0
 30 31  1  0
 30 35  1  0
 30 36  1  0
 31 32  1  0
 31 33  1  0
 31 34  1  0
M  END
>  <DRUGBANK_ID>  (1) 
DB11786

>  <COMMON_NAME>  (1) 
Pefcalcitol

>  <CAS_NUMBER>  (1) 
381212-03-9

>  <UNII>  (1) 
KT5224XSHW

>  <SYNONYMS>  (1) 
Pefcalcitol

$$$$
