
     RDKit          3D

 23 24  0  0  1  0  0  0  0  0999 V2000
    1.0642    0.4891   -0.2052 C   0  0  0  0  0  0  0  0  0  0  0  0
    1.7832   -3.6550   -3.9659 C   0  0  0  0  0  0  0  0  0  0  0  0
    1.0518   -3.8121   -2.8410 C   0  0  0  0  0  0  0  0  0  0  0  0
    2.0010   -2.3498   -4.4320 C   0  0  0  0  0  0  0  0  0  0  0  0
    0.3592   -2.6773   -2.4571 C   0  0  0  0  0  0  0  0  0  0  0  0
    1.6817   -1.1941   -3.6728 C   0  0  0  0  0  0  0  0  0  0  0  0
    0.3405   -4.0450    2.0583 C   0  0  0  0  0  0  0  0  0  0  0  0
    1.0686   -5.1559    2.5016 C   0  0  0  0  0  0  0  0  0  0  0  0
   -1.4519   -3.0409    0.5705 C   0  0  0  0  0  0  0  0  0  0  0  0
   -1.2486   -5.4899    0.9648 C   0  0  0  0  0  0  0  0  0  0  0  0
    0.7046   -2.0545   -0.1166 C   0  0  0  0  0  0  0  0  0  0  0  0
    0.4529   -0.0003   -1.6688 C   0  0  1  0  0  0  0  0  0  0  0  0
   -0.7828   -4.1944    1.2262 C   0  0  0  0  0  0  0  0  0  0  0  0
    0.8328   -1.3133   -2.5974 C   0  0  0  0  0  0  0  0  0  0  0  0
   -0.8154   -2.0545   -0.1166 C   0  0  0  0  0  0  0  0  0  0  0  0
    0.6426   -6.4298    2.1550 C   0  0  0  0  0  0  0  0  0  0  0  0
   -0.5127   -6.5915    1.3959 C   0  0  0  0  0  0  0  0  0  0  0  0
   -1.5121   -0.9052   -0.8077 C   0  0  0  0  0  0  0  0  0  0  0  0
    1.9656   -2.0545   -0.1166 N   0  0  0  0  0  0  0  0  0  0  0  0
   -1.0098    0.0369   -1.4766 N   0  0  0  0  0  0  0  0  0  0  0  0
    1.3264   -7.5457    2.5471 O   0  0  0  0  0  0  0  0  0  0  0  0
   -0.9262   -7.8380    1.0173 O   0  0  0  0  0  0  0  0  0  0  0  0
   -2.8660   -0.8954   -0.7380 O   0  0  0  0  0  0  0  0  0  0  0  0
  3  2  2  0
  4  2  1  0
  5  3  1  0
  6  4  2  0
  8  7  2  0
 12  1  1  1
 12 14  1  0
 12 20  1  0
 13  7  1  0
 13  9  1  0
 13 10  2  0
 14  5  2  0
 14  6  1  0
 15  9  2  0
 15 11  1  0
 16  8  1  0
 17 10  1  0
 17 16  2  0
 18 15  1  0
 18 23  1  0
 19 11  3  0
 20 18  2  3
 21 16  1  0
 22 17  1  0
M  END
>  <DRUGBANK_ID>  (1) 
DB16763

>  <COMMON_NAME>  (1) 
Tyrphostin AG 835

>  <CAS_NUMBER>  (1) 
133550-37-5

>  <SYNONYMS>  (1) 
Tyrphostin Ag-835; Tyrphostin B44, (+) enantiomer; Tyrphostin B50

$$$$
