
     RDKit          3D

 21 22  0  0  0  0  0  0  0  0999 V2000
    0.7015   -0.3789   -0.4915 C   0  0  0  0  0  0  0  0  0  0  0  0
    0.8906    1.2815    1.0452 N   0  0  0  0  0  0  0  0  0  0  0  0
    1.4951    3.1074    0.4688 C   0  0  0  0  0  0  0  0  0  0  0  0
   -1.1319    1.0591    0.1188 C   0  0  0  0  0  0  0  0  0  0  0  0
    1.1841    1.2725    2.5009 C   0  0  0  0  0  0  0  0  0  0  0  0
    0.6399   -0.0172    3.0466 C   0  0  0  0  0  0  0  0  0  0  0  0
    1.0274   -1.2715    2.5466 O   0  0  0  0  0  0  0  0  0  0  0  0
    0.7092   -1.1712    1.2211 C   0  0  0  0  0  0  0  0  0  0  0  0
   -1.3225   -1.3523    1.0136 C   0  0  0  0  0  0  0  0  0  0  0  0
   -2.5651    0.0066    1.6489 C   0  0  0  0  0  0  0  0  0  0  0  0
   -2.4783   -0.1120    2.9892 C   0  0  0  0  0  0  0  0  0  0  0  0
   -2.3826    1.1081    3.7301 C   0  0  0  0  0  0  0  0  0  0  0  0
   -2.1460    2.4383    3.2826 C   0  0  0  0  0  0  0  0  0  0  0  0
   -2.1333    2.6844    1.9835 C   0  0  0  0  0  0  0  0  0  0  0  0
   -2.8067    1.6365    1.2324 C   0  0  0  0  0  0  0  0  0  0  0  0
    2.0193    0.2480    0.3516 C   0  0  0  0  0  0  0  0  0  0  0  0
    0.5426    1.3623   -0.4374 C   0  0  0  0  0  0  0  0  0  0  0  0
    0.2004    2.3473   -1.3310 C   0  0  0  0  0  0  0  0  0  0  0  0
    1.5525    2.3561   -1.8588 C   0  0  0  0  0  0  0  0  0  0  0  0
    2.7215    1.3843   -1.6474 C   0  0  0  0  0  0  0  0  0  0  0  0
    2.8837    0.2810   -0.7188 C   0  0  0  0  0  0  0  0  0  0  0  0
  1  2  1  0
  2  3  1  0
  2  4  1  0
  2  5  1  0
  5  6  1  0
  6  7  1  0
  7  8  1  0
  8  9  1  0
  8 16  1  0
  9 10  1  0
 10 11  2  0
 10 15  1  0
 11 12  1  0
 12 13  2  0
 13 14  1  0
 14 15  2  0
 16 17  2  0
 16 21  1  0
 17 18  1  0
 18 19  2  0
 19 20  1  0
 20 21  2  0
M  CHG  1   2   1
M  END
>  <DRUGBANK_ID>  (1) 
DB13630

>  <COMMON_NAME>  (1) 
Bibenzonium

>  <CAS_NUMBER>  (1) 
59866-76-1

>  <UNII>  (1) 
34YTZ517S2

$$$$
