1087
     RDKit          3D

 19 20  0  0  1  0  0  0  0  0999 V2000
    0.8872   -0.0233    0.0696 O   0  0  0  0  0  0  0  0  0  0  0  0
    0.0648   -4.7303   -0.8763 N   0  0  0  0  0  0  0  0  0  0  0  0
    0.0310   -9.4277   -1.2466 N   0  0  0  0  0  0  0  0  0  0  0  0
   -2.2299   -3.8529   -2.4065 N   0  0  0  0  0  0  0  0  0  0  0  0
   -0.6783   -5.8684   -1.4239 C   0  0  0  0  0  0  0  0  0  0  0  0
    0.2107   -6.6693   -2.3775 C   0  0  0  0  0  0  0  0  0  0  0  0
    1.3827   -7.3980   -1.7376 C   0  0  0  0  0  0  0  0  0  0  0  0
   -1.4440   -6.5869   -0.3192 C   0  0  0  0  0  0  0  0  0  0  0  0
   -0.2835   -3.3804   -1.0597 C   0  0  0  0  0  0  0  0  0  0  0  0
    0.9986   -8.4704   -0.7215 C   0  0  0  0  0  0  0  0  0  0  0  0
   -1.4206   -2.9667   -1.8020 C   0  0  0  0  0  0  0  0  0  0  0  0
    0.5385   -2.3984   -0.4543 C   0  0  0  0  0  0  0  0  0  0  0  0
   -1.7268   -1.5981   -1.9054 C   0  0  0  0  0  0  0  0  0  0  0  0
    0.2296   -1.0400   -0.5669 C   0  0  0  0  0  0  0  0  0  0  0  0
   -0.9036   -0.6537   -1.2796 C   0  0  0  0  0  0  0  0  0  0  0  0
   -2.8759   -1.2351   -2.6363 C   0  0  0  0  0  0  0  0  0  0  0  0
   -3.6781   -2.1933   -3.2469 C   0  0  0  0  0  0  0  0  0  0  0  0
   -3.3098   -3.5005   -3.1058 C   0  0  0  0  0  0  0  0  0  0  0  0
    2.3089   -0.0775    0.0463 C   0  0  0  0  0  0  0  0  0  0  0  0
  1 14  1  0
  1 19  1  0
  2  5  1  0
  2  9  1  0
  3 10  1  0
  4 11  2  0
  4 18  1  0
  5  6  1  0
  5  8  1  0
  6  7  1  0
  7 10  1  0
  9 11  1  0
  9 12  2  0
 11 13  1  0
 12 14  1  0
 13 15  1  0
 13 16  2  0
 14 15  2  0
 16 17  1  0
 17 18  2  0
M  END
>  <DRUGBANK_ID>  (1) 
DB01087

>  <SECONDARY_ACCESSION_NUMBERS>  (1) 
APRD00604

>  <COMMON_NAME>  (1) 
Primaquine

>  <CAS_NUMBER>  (1) 
90-34-6

>  <UNII>  (1) 
MVR3634GX1

>  <SYNONYMS>  (1) 
6-Methoxy-8-(4-amino-1-methylbutylamino)quinoline; 8-((4-Amino-1-methylbutyl)amino)-6-methoxyquinoline; 8-(4-Amino-1-methylbutylamino)-6-methoxyquinoline; Primachin; Primachina; Primachinum; Primaquin; Primaquina; Primaquine; Primaquinum

$$$$
