807
     RDKit          3D

 21 21  0  0  0  0  0  0  0  0999 V2000
    1.0589   -0.4916   -0.1331 O   0  0  0  0  0  0  0  0  0  0  0  0
    5.1974    0.4504   -5.0344 O   0  0  0  0  0  0  0  0  0  0  0  0
    3.0495   -0.9333    0.7946 O   0  0  0  0  0  0  0  0  0  0  0  0
    1.6225    2.2586   -1.5062 N   0  0  0  0  0  0  0  0  0  0  0  0
    5.5189   -2.2921   -3.4256 N   0  0  0  0  0  0  0  0  0  0  0  0
    0.3263    1.5903   -1.5305 C   0  0  0  0  0  0  0  0  0  0  0  0
    1.9559    3.2856   -2.4865 C   0  0  0  0  0  0  0  0  0  0  0  0
    2.4133    2.1334   -0.2793 C   0  0  0  0  0  0  0  0  0  0  0  0
    0.2386    0.0469   -1.1953 C   0  0  0  0  0  0  0  0  0  0  0  0
    1.8060    4.5493   -1.7246 C   0  0  0  0  0  0  0  0  0  0  0  0
    2.2361    2.8924    0.9627 C   0  0  0  0  0  0  0  0  0  0  0  0
    3.1502   -0.4451   -1.5364 C   0  0  0  0  0  0  0  0  0  0  0  0
    2.4336   -0.6804   -0.2004 C   0  0  0  0  0  0  0  0  0  0  0  0
    4.4689   -0.0957   -4.0191 C   0  0  0  0  0  0  0  0  0  0  0  0
    4.7493   -1.1675   -3.1092 C   0  0  0  0  0  0  0  0  0  0  0  0
    4.1512   -1.2767   -1.8357 C   0  0  0  0  0  0  0  0  0  0  0  0
    3.1994    0.6787   -2.3730 C   0  0  0  0  0  0  0  0  0  0  0  0
    6.4240   -0.1476   -5.3216 C   0  0  0  0  0  0  0  0  0  0  0  0
    3.5228    0.7981   -3.6969 C   0  0  0  0  0  0  0  0  0  0  0  0
    7.5552    0.1163   -4.2900 C   0  0  0  0  0  0  0  0  0  0  0  0
    7.3827   -0.1078   -2.7779 C   0  0  0  0  0  0  0  0  0  0  0  0
  1  9  1  0
  1 13  1  0
  2 14  1  0
  2 18  1  0
  3 13  2  0
  4  6  1  0
  4  7  1  0
  4  8  1  0
  5 15  1  0
  6  9  1  0
  7 10  1  0
  8 11  1  0
 12 13  1  0
 12 16  2  0
 12 17  1  0
 14 15  2  0
 14 19  1  0
 15 16  1  0
 17 19  2  0
 18 20  1  0
 20 21  1  0
M  END
>  <DRUGBANK_ID>  (1) 
DB00807

>  <SECONDARY_ACCESSION_NUMBERS>  (1) 
APRD00522

>  <COMMON_NAME>  (1) 
Proparacaine

>  <CAS_NUMBER>  (1) 
499-67-2

>  <UNII>  (1) 
B4OB0JHI1X

>  <SYNONYMS>  (1) 
Proximetacaina; Proxymetacaine; Proxymetacainum

$$$$
