DRS
     RDKit          3D

 26 27  0  0  0  0  0  0  0  0999 V2000
    0.7537   -0.3970    0.1809 C   0  0  0  0  0  0  0  0  0  0  0  0
    0.5954   -1.3802    1.5769 C   0  0  0  0  0  0  0  0  0  0  0  0
    1.0626   -0.3265    2.5929 C   0  0  0  0  0  0  0  0  0  0  0  0
   -0.7436   -2.4635    2.2747 C   0  0  1  0  0  0  0  0  0  0  0  0
   -0.9841   -4.1654    3.2031 C   0  0  0  0  0  0  0  0  0  0  0  0
   -0.2994   -5.1313    2.8357 O   0  0  0  0  0  0  0  0  0  0  0  0
   -2.0208   -4.5064    4.3614 N   0  0  0  0  0  0  0  0  0  0  0  0
   -3.0318   -5.7867    5.1011 C   0  0  2  0  0  0  0  0  0  0  0  0
   -4.4098   -5.6066    4.4238 C   0  0  0  0  0  0  0  0  0  0  0  0
   -4.6380   -4.7469    3.5833 O   0  0  0  0  0  0  0  0  0  0  0  0
   -5.4243   -6.4095    4.8252 O   0  0  0  0  0  0  0  0  0  0  0  0
   -3.4397   -5.6870    6.7340 C   0  0  0  0  0  0  0  0  0  0  0  0
   -3.8405   -4.3133    7.2102 C   0  0  0  0  0  0  0  0  0  0  0  0
   -5.1324   -3.9074    7.5714 C   0  0  0  0  0  0  0  0  0  0  0  0
   -5.4629   -2.5360    7.5519 C   0  0  0  0  0  0  0  0  0  0  0  0
   -2.8467   -3.3710    7.3240 C   0  0  0  0  0  0  0  0  0  0  0  0
   -3.1711   -2.0690    7.7176 C   0  0  0  0  0  0  0  0  0  0  0  0
   -4.4582   -1.5933    7.4504 C   0  0  0  0  0  0  0  0  0  0  0  0
   -4.7676   -0.2715    7.2163 O   0  0  0  0  0  0  0  0  0  0  0  0
   -4.3584    0.4222    5.9835 C   0  0  0  0  0  0  0  0  0  0  0  0
   -2.8416    0.5968    5.8143 C   0  0  0  0  0  0  0  0  0  0  0  0
   -2.2498   -0.7070    5.3922 C   0  0  0  0  0  0  0  0  0  0  0  0
   -2.8990   -1.4080    4.2804 C   0  0  0  0  0  0  0  0  0  0  0  0
   -2.4055   -0.8112    3.0456 C   0  0  0  0  0  0  0  0  0  0  0  0
   -2.4557    0.3410    2.7821 O   0  0  0  0  0  0  0  0  0  0  0  0
   -2.0473   -1.8709    2.2592 N   0  0  0  0  0  0  0  0  0  0  0  0
  1  2  1  0
  2  3  1  0
  4  2  1  1
  4  5  1  0
  4 26  1  0
  5  6  2  0
  5  7  1  0
  7  8  1  0
  8 12  1  0
  8  9  1  6
  9 10  2  0
  9 11  1  0
 12 13  1  0
 13 14  2  0
 13 16  1  0
 14 15  1  0
 15 18  2  0
 16 17  2  0
 17 18  1  0
 18 19  1  0
 19 20  1  0
 20 21  1  0
 21 22  1  0
 22 23  1  0
 23 24  1  0
 24 25  2  0
 24 26  1  0
M  END
>  <DRUGBANK_ID>  (1) 
DB07679

>  <COMMON_NAME>  (1) 
(9S,12S)-9-(1-methylethyl)-7,10-dioxo-2-oxa-8,11-diazabicyclo[12.2.2]octadeca-1(16),14,17-triene-12-carboxylic acid

$$$$
