
     RDKit          3D

 14 14  0  0  1  0  0  0  0  0999 V2000
    3.1866   -0.1894    2.2454 C   0  0  0  0  0  0  0  0  0  0  0  0
    1.4556   -2.1732    0.9976 C   0  0  2  0  0  0  0  0  0  0  0  0
    0.2636   -2.8082    0.2646 C   0  0  2  0  0  0  0  0  0  0  0  0
    0.9829   -1.1526    2.0639 C   0  0  1  0  0  0  0  0  0  0  0  0
    0.0076   -1.8952    2.9894 C   0  0  1  0  0  0  0  0  0  0  0  0
   -0.3276   -1.0541    4.2141 C   0  0  0  0  0  0  0  0  0  0  0  0
   -0.8056   -3.2950    1.2605 C   0  0  1  0  0  0  0  0  0  0  0  0
    2.3477   -1.5928    0.0339 O   0  0  0  0  0  0  0  0  0  0  0  0
    0.7247   -3.9060   -0.5377 O   0  0  0  0  0  0  0  0  0  0  0  0
    0.0145   -1.3080    5.3652 O   0  0  0  0  0  0  0  0  0  0  0  0
   -1.0430    0.0549    3.9502 O   0  0  0  0  0  0  0  0  0  0  0  0
   -0.4031   -4.5269    1.8556 O   0  0  0  0  0  0  0  0  0  0  0  0
    2.0255   -0.6496    2.9055 O   0  0  0  0  0  0  0  0  0  0  0  0
   -1.1308   -2.3389    2.2601 O   0  0  0  0  0  0  0  0  0  0  0  0
  2  8  1  6
  3  2  1  0
  3  9  1  1
  4  2  1  0
  4 13  1  1
  5  4  1  0
  5  6  1  1
  7  3  1  0
  7 12  1  1
 10  6  2  0
 11  6  1  0
 13  1  1  0
 14  5  1  0
 14  7  1  0
M  END
>  <DRUGBANK_ID>  (1) 
DB04303

>  <SECONDARY_ACCESSION_NUMBERS>  (1) 
EXPT01566

>  <COMMON_NAME>  (1) 
4-O-methyl-alpha-D-glucuronic acid

$$$$
