
     RDKit          3D

 28 29  0  0  0  0  0  0  0  0999 V2000
   -0.0742   -1.5280    0.5918 C   0  0  0  0  0  0  0  0  0  0  0  0
   -0.4132   -2.8292    1.7520 C   0  0  0  0  0  0  0  0  0  0  0  0
   -1.2874   -0.6739    0.5330 C   0  0  0  0  0  0  0  0  0  0  0  0
    1.3085   -0.7697    0.3805 C   0  0  0  0  0  0  0  0  0  0  0  0
   -1.6724   -3.9708    1.7553 C   0  0  0  0  0  0  0  0  0  0  0  0
    0.8394   -3.1077    2.3800 C   0  0  0  0  0  0  0  0  0  0  0  0
   -1.3148    0.5781    0.0795 C   0  0  0  0  0  0  0  0  0  0  0  0
   -2.4579   -1.4221    0.4257 C   0  0  0  0  0  0  0  0  0  0  0  0
    1.0590    0.5328   -0.0088 C   0  0  0  0  0  0  0  0  0  0  0  0
    2.6857   -1.5984    0.3936 C   0  0  0  0  0  0  0  0  0  0  0  0
   -1.2646   -5.1995    2.3023 C   0  0  0  0  0  0  0  0  0  0  0  0
   -3.1773   -4.3355    0.7248 N   0  0  0  0  0  0  0  0  0  0  0  0
    1.0589   -4.3744    2.8820 C   0  0  0  0  0  0  0  0  0  0  0  0
   -0.1462    1.0927   -0.3181 N   0  0  0  0  0  0  0  0  0  0  0  0
   -2.4963    1.4525    0.0692 C   0  0  0  0  0  0  0  0  0  0  0  0
   -2.0542   -2.5640   -0.1100 O   0  0  0  0  0  0  0  0  0  0  0  0
   -3.6356   -1.1135    0.7647 O   0  0  0  0  0  0  0  0  0  0  0  0
    1.9991    1.6326   -0.0597 C   0  0  0  0  0  0  0  0  0  0  0  0
    3.9444   -1.1187    0.6412 O   0  0  0  0  0  0  0  0  0  0  0  0
    2.6850   -2.8244    0.2632 O   0  0  0  0  0  0  0  0  0  0  0  0
    0.0301   -5.3449    2.8837 C   0  0  0  0  0  0  0  0  0  0  0  0
   -3.7031   -5.4298    0.9456 O   0  0  0  0  0  0  0  0  0  0  0  0
   -3.5952   -3.7620   -0.3242 O   0  0  0  0  0  0  0  0  0  0  0  0
   -1.1163   -3.7285   -0.6005 C   0  0  0  0  0  0  0  0  0  0  0  0
    4.3097    0.2373    0.6170 C   0  0  0  0  0  0  0  0  0  0  0  0
   -0.6092   -3.7710   -1.9433 C   0  0  0  0  0  0  0  0  0  0  0  0
    0.8382   -3.4113   -1.9408 C   0  0  0  0  0  0  0  0  0  0  0  0
   -1.2948   -4.1352   -2.8807 O   0  0  0  0  0  0  0  0  0  0  0  0
  1  4  1  0
  1  2  1  0
  1  3  1  0
  2  5  2  0
  2  6  1  0
  3  7  2  0
  3  8  1  0
  4  9  2  0
  4 10  1  0
  5 11  1  0
  5 12  1  0
  6 13  2  0
  7 14  1  0
  7 15  1  0
  8 16  1  0
  8 17  2  0
  9 18  1  0
  9 14  1  0
 10 19  1  0
 10 20  2  0
 11 21  2  0
 12 22  2  0
 12 23  1  0
 13 21  1  0
 16 24  1  0
 19 25  1  0
 24 26  1  0
 26 27  1  0
 26 28  2  0
M  CHG  2  12   1  23  -1
M  END
>  <DRUGBANK_ID>  (1) 
DB09229

>  <COMMON_NAME>  (1) 
Aranidipine

>  <CAS_NUMBER>  (1) 
86780-90-7

>  <UNII>  (1) 
4Y7UR6X2PO

>  <SYNONYMS>  (1) 
Aranidipine

$$$$
