S17
     RDKit          3D

 26 26  0  0  0  0  0  0  0  0999 V2000
    2.3388   -1.1057    1.0184 C   0  0  0  0  0  0  0  0  0  0  0  0
    0.9064   -1.1616    0.8638 C   0  0  0  0  0  0  0  0  0  0  0  0
    0.1736    0.0123    0.6933 C   0  0  0  0  0  0  0  0  0  0  0  0
   -1.6375   -0.0324    0.1198 Br  0  0  0  0  0  0  0  0  0  0  0  0
    0.8635    1.2205    0.6198 C   0  0  0  0  0  0  0  0  0  0  0  0
    2.2679    1.2658    0.7416 C   0  0  0  0  0  0  0  0  0  0  0  0
    3.0601    0.1247    0.8362 C   0  0  0  0  0  0  0  0  0  0  0  0
    4.6041    0.2265    0.5245 C   0  0  0  0  0  0  0  0  0  0  0  0
    5.3111    1.0355   -0.7352 C   0  0  1  0  0  0  0  0  0  0  0  0
    4.8772    2.4889   -1.0188 C   0  0  0  0  0  0  0  0  0  0  0  0
    5.6051    3.4655   -0.9561 O   0  0  0  0  0  0  0  0  0  0  0  0
    3.5698    2.5322   -1.4378 O   0  0  0  0  0  0  0  0  0  0  0  0
    2.9442    3.8201   -1.3640 C   0  0  0  0  0  0  0  0  0  0  0  0
    6.7664    0.6915   -1.0034 N   0  0  0  0  0  0  0  0  0  0  0  0
    7.4564    0.0942   -2.0561 C   0  0  0  0  0  0  0  0  0  0  0  0
    8.6923    0.1181   -1.9804 O   0  0  0  0  0  0  0  0  0  0  0  0
    6.8557   -0.6024   -3.3179 C   0  0  0  0  0  0  0  0  0  0  0  0
    6.0349   -1.8648   -3.0872 C   0  0  0  0  0  0  0  0  0  0  0  0
    4.8365   -1.4487   -2.3272 C   0  0  0  0  0  0  0  0  0  0  0  0
    4.0024   -0.3409   -3.1399 C   0  0  0  0  0  0  0  0  0  0  0  0
    3.0622   -0.9356   -4.1645 C   0  0  0  0  0  0  0  0  0  0  0  0
    2.0882   -2.0011   -3.6299 C   0  0  0  0  0  0  0  0  0  0  0  0
    0.9377   -1.3297   -2.8770 C   0  0  0  0  0  0  0  0  0  0  0  0
   -0.2252   -1.6268   -2.8691 O   0  0  0  0  0  0  0  0  0  0  0  0
    1.4669   -0.4103   -2.0018 N   0  0  0  0  0  0  0  0  0  0  0  0
    2.3332   -1.2933   -1.3052 O   0  0  0  0  0  0  0  0  0  0  0  0
  1  2  2  0
  1  7  1  0
  2  3  1  0
  3  4  1  0
  3  5  2  0
  5  6  1  0
  6  7  2  0
  7  8  1  0
  9  8  1  1
  9 10  1  0
  9 14  1  0
 10 11  2  0
 10 12  1  0
 12 13  1  0
 14 15  1  0
 15 16  2  0
 15 17  1  0
 17 18  1  0
 18 19  1  0
 19 20  1  0
 20 21  1  0
 21 22  1  0
 22 23  1  0
 23 24  2  0
 23 25  1  0
 25 26  1  0
M  END
>  <DRUGBANK_ID>  (1) 
DB08505

>  <COMMON_NAME>  (1) 
methyl 4-bromo-N-[8-(hydroxyamino)-8-oxooctanoyl]-L-phenylalaninate

$$$$
