
     RDKit          3D

 24 26  0  0  0  0  0  0  0  0999 V2000
    1.1916    0.1632    0.2033 O   0  0  0  0  0  0  0  0  0  0  0  0
    3.0242   -1.0358   -0.0334 O   0  0  0  0  0  0  0  0  0  0  0  0
    3.1641    1.5501    2.3098 O   0  0  0  0  0  0  0  0  0  0  0  0
   -1.7443    3.2478   -0.4588 N   0  0  2  0  0  0  0  0  0  0  0  0
   -0.6460    3.5462    0.6389 C   0  0  1  0  0  0  0  0  0  0  0  0
   -0.8246    2.9114   -1.6125 C   0  0  2  0  0  0  0  0  0  0  0  0
   -2.6010    4.5136   -0.7842 C   0  0  0  0  0  0  0  0  0  0  0  0
    0.1484    1.1548    0.0573 C   0  0  1  0  0  0  0  0  0  0  0  0
   -0.1146    2.2040    1.1609 C   0  0  0  0  0  0  0  0  0  0  0  0
   -0.2489    1.5148   -1.3817 C   0  0  0  0  0  0  0  0  0  0  0  0
    0.3847    4.4061   -0.0980 C   0  0  0  0  0  0  0  0  0  0  0  0
    0.2218    4.0068   -1.5400 C   0  0  0  0  0  0  0  0  0  0  0  0
   -2.7093    2.1009   -0.1200 C   0  0  0  0  0  0  0  0  0  0  0  0
    2.5150    0.0651   -0.0345 C   0  0  0  0  0  0  0  0  0  0  0  0
    3.3509    1.3202   -0.1934 C   0  0  1  0  0  0  0  0  0  0  0  0
   -3.5200    4.2479   -1.9853 C   0  0  0  0  0  0  0  0  0  0  0  0
   -3.4031    4.8918    0.4560 C   0  0  0  0  0  0  0  0  0  0  0  0
    3.1801    2.0404   -1.5367 C   0  0  0  0  0  0  0  0  0  0  0  0
    3.1161    2.1938    1.0451 C   0  0  0  0  0  0  0  0  0  0  0  0
    2.6166    1.4001   -2.6593 C   0  0  0  0  0  0  0  0  0  0  0  0
    3.5078    3.4031   -1.6720 C   0  0  0  0  0  0  0  0  0  0  0  0
    2.1795    2.1401   -3.7753 C   0  0  0  0  0  0  0  0  0  0  0  0
    3.1314    4.1309   -2.8157 C   0  0  0  0  0  0  0  0  0  0  0  0
    2.4455    3.5040   -3.8598 C   0  0  0  0  0  0  0  0  0  0  0  0
  1 14  1  0
  2 14  2  0
  3 19  1  0
  4  5  1  0
  4  6  1  0
  4  7  1  0
  4 13  1  1
  5  9  1  6
  5 11  1  0
  6 10  1  1
  6 12  1  0
  7 16  1  0
  7 17  1  0
  8  1  1  6
  8  9  1  0
  8 10  1  0
 11 12  1  0
 14 15  1  0
 15 18  1  0
 15 19  1  1
 18 20  2  0
 18 21  1  0
 20 22  1  0
 21 23  2  0
 22 24  2  0
 23 24  1  0
M  CHG  1   4   1
M  END
>  <DRUGBANK_ID>  (1) 
DB00332

>  <SECONDARY_ACCESSION_NUMBERS>  (1) 
APRD00537

>  <COMMON_NAME>  (1) 
Ipratropium

>  <CAS_NUMBER>  (1) 
60205-81-4

>  <UNII>  (1) 
GR88G0I6UL

>  <SYNONYMS>  (1) 
bromuro de ipratropio; Ipratropium cation; Ipratropium ion

$$$$
