
     RDKit          3D

 17 18  0  0  1  0  0  0  0  0999 V2000
    0.8580   -0.1978   -0.1728 N   0  0  0  0  0  0  0  0  0  0  0  0
    0.1657    0.6245   -1.0002 C   0  0  0  0  0  0  0  0  0  0  0  0
   -0.9467    1.1850   -0.6893 N   0  0  0  0  0  0  0  0  0  0  0  0
   -1.6002    1.9162   -1.6508 C   0  0  0  0  0  0  0  0  0  0  0  0
   -2.6050    2.5749   -1.3613 O   0  0  0  0  0  0  0  0  0  0  0  0
   -1.1452    1.8821   -2.9545 N   0  0  0  0  0  0  0  0  0  0  0  0
    0.0083    1.1280   -3.3248 C   0  0  0  0  0  0  0  0  0  0  0  0
    0.7577    0.7090   -2.1959 N   0  0  0  0  0  0  0  0  0  0  0  0
   -1.8754    2.5622   -4.0142 C   0  0  2  0  0  0  0  0  0  0  0  0
   -2.3300    1.5879   -4.9706 O   0  0  0  0  0  0  0  0  0  0  0  0
   -2.0974    2.0722   -6.3133 C   0  0  2  0  0  0  0  0  0  0  0  0
   -1.1052    1.1137   -6.9891 C   0  0  0  0  0  0  0  0  0  0  0  0
   -1.4332    0.9229   -8.3609 O   0  0  0  0  0  0  0  0  0  0  0  0
   -1.5753    3.5106   -6.1979 C   0  0  1  0  0  0  0  0  0  0  0  0
   -2.6259    4.4697   -6.3497 O   0  0  0  0  0  0  0  0  0  0  0  0
   -1.0150    3.5743   -4.7878 C   0  0  1  0  0  0  0  0  0  0  0  0
   -1.0115    4.8708   -4.2094 O   0  0  0  0  0  0  0  0  0  0  0  0
  1  2  1  0
  2  3  2  0
  2  8  1  0
  3  4  1  0
  4  5  2  0
  4  6  1  0
  6  7  1  0
  7  8  1  0
  9  6  1  1
  9 10  1  0
 11 10  1  0
 11 12  1  1
 12 13  1  0
 14 11  1  0
 14 15  1  1
 14 16  1  0
 16  9  1  0
 16 17  1  1
M  END
>  <DRUGBANK_ID>  (1) 
DB17151

>  <COMMON_NAME>  (1) 
5,6-dihydro-5-azacytidine

>  <CAS_NUMBER>  (1) 
62488-57-7

>  <UNII>  (1) 
0627D8VG1C

>  <SYNONYMS>  (1) 
1,3,5-triazin-2(1h)-one, 4-amino-5,6-dihydro-1-.beta.-d-ribofuranosyl-

$$$$
