
     RDKit          3D

 23 24  0  0  1  0  0  0  0  0999 V2000
    0.9849   -0.1319   -0.3397 C   0  0  0  0  0  0  0  0  0  0  0  0
    0.7311   -1.6665   -0.2238 C   0  0  1  0  0  0  0  0  0  0  0  0
    1.5471   -2.1568    1.0512 C   0  0  1  0  0  0  0  0  0  0  0  0
    1.1737   -1.7917    2.4904 C   0  0  0  0  0  0  0  0  0  0  0  0
    0.8393   -2.7077    3.5046 C   0  0  0  0  0  0  0  0  0  0  0  0
    0.7255   -2.2907    4.8453 C   0  0  0  0  0  0  0  0  0  0  0  0
    0.9797   -0.9689    5.2008 C   0  0  0  0  0  0  0  0  0  0  0  0
    1.2694   -0.0467    4.2092 C   0  0  0  0  0  0  0  0  0  0  0  0
    1.2999   -0.4513    2.8811 C   0  0  0  0  0  0  0  0  0  0  0  0
    1.8935   -3.5296    0.9329 O   0  0  0  0  0  0  0  0  0  0  0  0
   -0.7183   -1.8235   -0.1952 N   0  0  0  0  0  0  0  0  0  0  0  0
   -1.5342   -3.0191   -0.3482 C   0  0  0  0  0  0  0  0  0  0  0  0
   -1.6706   -3.7643    0.9717 C   0  0  0  0  0  0  0  0  0  0  0  0
   -2.1515   -3.0364    2.2950 C   0  0  0  0  0  0  0  0  0  0  0  0
   -2.3747   -3.7762    3.2368 O   0  0  0  0  0  0  0  0  0  0  0  0
   -2.1563   -1.4755    2.5939 C   0  0  0  0  0  0  0  0  0  0  0  0
   -2.1499   -0.4021    1.6804 C   0  0  0  0  0  0  0  0  0  0  0  0
   -1.6956    0.8850    2.0209 C   0  0  0  0  0  0  0  0  0  0  0  0
   -1.4714    1.2146    3.3386 C   0  0  0  0  0  0  0  0  0  0  0  0
   -1.7084    0.2579    4.3194 C   0  0  0  0  0  0  0  0  0  0  0  0
   -1.9970   -1.0856    3.9403 C   0  0  0  0  0  0  0  0  0  0  0  0
   -1.4988    0.5031    5.6585 O   0  0  0  0  0  0  0  0  0  0  0  0
   -1.1041    1.8347    6.0087 C   0  0  0  0  0  0  0  0  0  0  0  0
  2  1  1  1
  2  3  1  0
  2 11  1  0
  3  4  1  0
  3 10  1  1
  4  5  2  0
  4  9  1  0
  5  6  1  0
  6  7  2  0
  7  8  1  0
  8  9  2  0
 11 12  1  0
 12 13  1  0
 13 14  1  0
 14 15  2  0
 14 16  1  0
 16 17  2  0
 16 21  1  0
 17 18  1  0
 18 19  2  0
 19 20  1  0
 20 21  2  0
 20 22  1  0
 22 23  1  0
M  END
>  <DRUGBANK_ID>  (1) 
DB13398

>  <COMMON_NAME>  (1) 
Oxyfedrine

>  <CAS_NUMBER>  (1) 
15687-41-9

>  <UNII>  (1) 
DWL616XF1K

>  <SYNONYMS>  (1) 
Oxyfedrine

$$$$
