
     RDKit          3D

 21 21  0  0  0  0  0  0  0  0999 V2000
   -1.7414    0.2047   -0.0829 C   0  0  0  0  0  0  0  0  0  0  0  0
   -1.1331   -1.0997    0.0004 C   0  0  0  0  0  0  0  0  0  0  0  0
   -3.1902    0.4570   -0.0034 C   0  0  0  0  0  0  0  0  0  0  0  0
   -0.9833    1.3590   -0.0946 C   0  0  0  0  0  0  0  0  0  0  0  0
    0.2706   -1.1571   -0.0333 C   0  0  0  0  0  0  0  0  0  0  0  0
   -3.8337   -0.5274    0.1538 O   0  0  0  0  0  0  0  0  0  0  0  0
    1.0297    0.0168   -0.0533 C   0  0  0  0  0  0  0  0  0  0  0  0
   -3.9020    1.6148   -0.1895 O   0  0  0  0  0  0  0  0  0  0  0  0
    0.3921    1.2608   -0.0517 C   0  0  0  0  0  0  0  0  0  0  0  0
   -1.6475   -2.3630    0.2400 O   0  0  0  0  0  0  0  0  0  0  0  0
   -5.6309   -0.8171   -1.7247 N   0  0  0  0  0  0  0  0  0  0  0  0
    2.4059   -0.0221    0.0625 N   0  0  0  0  0  0  0  0  0  0  0  0
   -5.3781    1.3284   -0.0987 C   0  0  0  0  0  0  0  0  0  0  0  0
   -6.0764    0.5664   -1.3422 C   0  0  0  0  0  0  0  0  0  0  0  0
   -6.3581   -1.5757   -2.7108 C   0  0  0  0  0  0  0  0  0  0  0  0
   -4.2448   -0.8451   -2.2328 C   0  0  0  0  0  0  0  0  0  0  0  0
   -3.0228   -2.6412    0.5159 C   0  0  0  0  0  0  0  0  0  0  0  0
   -3.6592   -2.0476    1.8709 C   0  0  0  0  0  0  0  0  0  0  0  0
   -5.9873   -0.9863   -4.0634 C   0  0  0  0  0  0  0  0  0  0  0  0
   -3.2985    0.0103   -3.0523 C   0  0  0  0  0  0  0  0  0  0  0  0
   -3.3328   -0.5967    2.4044 C   0  0  0  0  0  0  0  0  0  0  0  0
  2  1  2  0
  3  1  1  0
  4  1  1  0
  5  2  1  0
  6  3  2  0
  7  9  1  0
  7  5  2  0
  8  3  1  0
  9  4  2  0
 10  2  1  0
 11 14  1  0
 12  7  1  0
 13  8  1  0
 14 13  1  0
 15 11  1  0
 16 11  1  0
 17 10  1  0
 18 17  1  0
 19 15  1  0
 20 16  1  0
 21 18  1  0
M  END
>  <DRUGBANK_ID>  (1) 
DB09342

>  <COMMON_NAME>  (1) 
Propoxycaine

>  <CAS_NUMBER>  (1) 
86-43-1

>  <UNII>  (1) 
EPD1EH7F53

>  <SYNONYMS>  (1) 
Propoxycaine

$$$$
