WW7
     RDKit          3D

 22 23  0  0  0  0  0  0  0  0999 V2000
    1.1238   -0.0498    0.0846 S   0  0  0  0  0  0  0  0  0  0  0  0
    0.7622   -0.8452   -1.0627 O   0  0  0  0  0  0  0  0  0  0  0  0
    0.6723   -0.4422    1.4071 O   0  0  0  0  0  0  0  0  0  0  0  0
    0.5330    1.5004   -0.1680 N   0  0  0  0  0  0  0  0  0  0  0  0
    5.6767    0.0146   -0.0180 C   0  0  0  0  0  0  0  0  0  0  0  0
    4.9563   -1.1807   -0.0094 C   0  0  0  0  0  0  0  0  0  0  0  0
    3.5715   -1.1514    0.0266 C   0  0  0  0  0  0  0  0  0  0  0  0
    2.9087    0.0777    0.1500 C   0  0  0  0  0  0  0  0  0  0  0  0
    3.6427    1.3105    0.2200 C   0  0  0  0  0  0  0  0  0  0  0  0
    5.0463    1.2791    0.0473 C   0  0  0  0  0  0  0  0  0  0  0  0
    7.4876    2.5749   -0.1307 Cl  0  0  0  0  0  0  0  0  0  0  0  0
    5.7589    2.5141   -0.0274 C   0  0  0  0  0  0  0  0  0  0  0  0
    5.1067    3.7497   -0.0157 C   0  0  0  0  0  0  0  0  0  0  0  0
    3.7511    3.7879    0.1989 C   0  0  0  0  0  0  0  0  0  0  0  0
    3.0887    2.5947    0.4552 C   0  0  0  0  0  0  0  0  0  0  0  0
    0.9301    2.2595   -1.3655 C   0  0  0  0  0  0  0  0  0  0  0  0
    0.3674    1.6427   -2.6036 C   0  0  0  0  0  0  0  0  0  0  0  0
   -1.6327    3.1326   -2.4703 C   0  0  0  0  0  0  0  0  0  0  0  0
   -1.1452    1.6773   -2.5047 C   0  0  0  0  0  0  0  0  0  0  0  0
   -1.1501    3.9024   -3.7090 C   0  0  0  0  0  0  0  0  0  0  0  0
   -1.6019    3.2154   -4.9981 C   0  0  0  0  0  0  0  0  0  0  0  0
   -3.0582    3.1598   -5.0337 N   0  0  0  0  0  0  0  0  0  0  0  0
  1  2  2  0
  1  3  2  0
  1  4  1  0
  1  8  1  0
  4 16  1  0
  5  6  2  0
  5 10  1  0
  6  7  1  0
  7  8  2  0
  8  9  1  0
  9 10  2  0
  9 15  1  0
 10 12  1  0
 11 12  1  0
 12 13  2  0
 13 14  1  0
 14 15  2  0
 16 17  1  0
 17 19  1  0
 18 19  1  0
 18 20  1  0
 20 21  1  0
 21 22  1  0
M  END
>  <DRUGBANK_ID>  (1) 
DB04513

>  <SECONDARY_ACCESSION_NUMBERS>  (1) 
EXPT03246

>  <COMMON_NAME>  (1) 
N-(6-Aminohexyl)-5-Chloro-1-Naphthalenesulfonamide

$$$$
