Structure #1
     RDKit          3D

 11 12  0  0  0  0  0  0  0  0999 V2000
   -1.9294   -1.6081    0.0005 C   0  0  0  0  0  0  0  0  0  0  0  0
    2.7314   -0.2652    0.0093 C   0  0  0  0  0  0  0  0  0  0  0  0
   -0.5784   -1.9507   -0.0094 C   0  0  0  0  0  0  0  0  0  0  0  0
    1.7777   -1.2755    0.0039 C   0  0  0  0  0  0  0  0  0  0  0  0
   -2.3015   -0.2673    0.0135 C   0  0  0  0  0  0  0  0  0  0  0  0
    2.2889    1.0417    0.0027 C   0  0  0  0  0  0  0  0  0  0  0  0
    0.4129   -0.9520   -0.0034 C   0  0  0  0  0  0  0  0  0  0  0  0
   -1.3141    0.7219    0.0060 C   0  0  0  0  0  0  0  0  0  0  0  0
    0.0522    0.4152   -0.0014 C   0  0  0  0  0  0  0  0  0  0  0  0
    0.9878    1.3904   -0.0027 N   0  0  0  0  0  0  0  0  0  0  0  0
   -1.6910    2.0461    0.0084 O   0  0  0  0  0  0  0  0  0  0  0  0
  1  3  2  0
  1  5  1  0
  2  4  1  0
  2  6  2  0
  3  7  1  0
  4  7  2  0
  5  8  2  0
  6 10  1  0
  7  9  1  0
  8  9  1  0
  8 11  1  0
  9 10  2  0
M  END
>  <DRUGBANK_ID>  (1) 
DB11145

>  <COMMON_NAME>  (1) 
Oxyquinoline

>  <CAS_NUMBER>  (1) 
148-24-3

>  <UNII>  (1) 
5UTX5635HP

>  <SYNONYMS>  (1) 
8-Hydroxyquinoline; hydroxybenzopyridine; Hydroxyquinoline; oxine; Oxyquinoline; Phenopyridine

$$$$
