
     RDKit          3D

 38 41  0  0  1  0  0  0  0  0999 V2000
   -1.1580    1.6868   -1.4252 C   0  0  0  0  0  0  0  0  0  0  0  0
   -0.0684    0.7159   -1.4653 C   0  0  1  0  0  0  0  0  0  0  0  0
   -0.2422   -0.6582   -1.8383 C   0  0  0  0  0  0  0  0  0  0  0  0
    0.6643   -0.9863   -0.6560 C   0  0  2  0  0  0  0  0  0  0  0  0
    1.7556    0.7064   -0.6822 C   0  0  2  0  0  0  0  0  0  0  0  0
    1.3033    0.9314   -2.0997 C   0  0  1  0  0  0  0  0  0  0  0  0
    2.3316   -0.0863   -2.5723 O   0  0  0  0  0  0  0  0  0  0  0  0
    2.8158   -0.9204   -3.5218 C   0  0  0  0  0  0  0  0  0  0  0  0
    3.9963   -0.8574   -3.8377 O   0  0  0  0  0  0  0  0  0  0  0  0
    1.9311   -2.0609   -3.9171 C   0  0  0  0  0  0  0  0  0  0  0  0
    0.8293   -1.6122   -4.6192 C   0  0  0  0  0  0  0  0  0  0  0  0
   -0.2970   -2.4216   -4.7399 C   0  0  0  0  0  0  0  0  0  0  0  0
   -0.2906   -3.7445   -4.3028 C   0  0  0  0  0  0  0  0  0  0  0  0
    0.8565   -4.2724   -3.7312 C   0  0  0  0  0  0  0  0  0  0  0  0
    1.9525   -3.4186   -3.4919 C   0  0  0  0  0  0  0  0  0  0  0  0
    3.3652    1.6069   -0.8733 C   0  0  2  0  0  0  0  0  0  0  0  0
    4.2109    1.3995    0.3288 C   0  0  0  0  0  0  0  0  0  0  0  0
    4.1656    2.0520    1.4970 C   0  0  0  0  0  0  0  0  0  0  0  0
    5.0327    0.1797    0.1776 C   0  0  0  0  0  0  0  0  0  0  0  0
    4.4988   -0.8175    1.1883 C   0  0  0  0  0  0  0  0  0  0  0  0
    4.9748   -2.2063    0.9571 C   0  0  1  0  0  0  0  0  0  0  0  0
    3.9882   -3.3653    1.0373 C   0  0  2  0  0  0  0  0  0  0  0  0
    4.7909   -2.9238   -0.2935 C   0  0  0  0  0  0  0  0  0  0  0  0
    5.6605   -4.0122   -0.8242 C   0  0  0  0  0  0  0  0  0  0  0  0
    4.0592   -2.2834   -1.4154 C   0  0  0  0  0  0  0  0  0  0  0  0
    2.6912   -3.6856    0.4236 C   0  0  0  0  0  0  0  0  0  0  0  0
    1.6519   -2.8728    0.5873 C   0  0  0  0  0  0  0  0  0  0  0  0
    1.0079   -2.4375   -0.6727 C   0  0  0  0  0  0  0  0  0  0  0  0
    0.5037   -3.2073   -1.4430 O   0  0  0  0  0  0  0  0  0  0  0  0
    1.1221   -2.2406    1.8252 C   0  0  0  0  0  0  0  0  0  0  0  0
    3.4869    3.1487   -1.2853 O   0  0  0  0  0  0  0  0  0  0  0  0
    3.9941    4.2892   -0.6539 C   0  0  0  0  0  0  0  0  0  0  0  0
    5.0101    4.9224   -0.9527 O   0  0  0  0  0  0  0  0  0  0  0  0
    2.9387    4.9321    0.1953 C   0  0  0  0  0  0  0  0  0  0  0  0
   -0.8629   -1.7036    0.1072 O   0  0  0  0  0  0  0  0  0  0  0  0
   -1.2437   -3.1763    0.3921 C   0  0  0  0  0  0  0  0  0  0  0  0
   -0.4407   -4.1198    0.5191 O   0  0  0  0  0  0  0  0  0  0  0  0
   -2.6375   -3.7383    0.7039 C   0  0  0  0  0  0  0  0  0  0  0  0
  2  3  1  0
  2  6  1  0
  2  1  1  6
  3  4  1  0
  4 28  1  0
  4 35  1  1
  5  4  1  0
  5  6  1  0
  5 16  1  6
  6  7  1  6
  7  8  1  0
  8  9  2  0
  8 10  1  0
 10 11  2  0
 10 15  1  0
 11 12  1  0
 12 13  2  0
 13 14  1  0
 14 15  2  0
 16 17  1  0
 16 31  1  1
 17 18  2  0
 17 19  1  0
 19 20  1  0
 21 20  1  6
 21 22  1  0
 21 23  1  0
 22 23  1  0
 22 26  1  6
 23 24  1  0
 23 25  1  0
 26 27  2  0
 27 28  1  0
 27 30  1  0
 28 29  2  0
 31 32  1  0
 32 33  2  0
 32 34  1  0
 35 36  1  0
 36 37  2  0
 36 38  1  0
M  END
>  <DRUGBANK_ID>  (1) 
DB11260

>  <COMMON_NAME>  (1) 
Diacetyl benzoyl lathyrol

>  <CAS_NUMBER>  (1) 
218916-52-0

>  <UNII>  (1) 
8986760I2S

$$$$
