
     RDKit          3D

 36 38  0  0  0  0  0  0  0  0999 V2000
    0.7281    1.2737   -0.2707 C   0  0  2  0  0  0  0  0  0  0  0  0
    0.7121    1.2809   -1.6746 O   0  0  0  0  0  0  0  0  0  0  0  0
    2.0504    1.1633   -2.7646 P   0  0  1  0  0  0  0  0  0  0  0  0
    1.3216   -0.0343   -3.3671 O   0  0  0  0  0  0  0  0  0  0  0  0
    1.3748    2.4044   -3.5921 O   0  0  0  0  0  0  0  0  0  0  0  0
    3.3887    1.0457   -3.8545 O   0  0  0  0  0  0  0  0  0  0  0  0
    4.0800   -0.5367   -3.7502 P   0  0  1  0  0  0  0  0  0  0  0  0
    3.9715   -0.4708   -2.2419 O   0  0  0  0  0  0  0  0  0  0  0  0
    2.8934   -0.9394   -4.7562 O   0  0  0  0  0  0  0  0  0  0  0  0
    4.7714   -2.1191   -3.6460 O   0  0  0  0  0  0  0  0  0  0  0  0
    4.1518   -3.0807   -4.5166 C   0  0  0  0  0  0  0  0  0  0  0  0
    2.6379   -3.2928   -4.2219 C   0  0  1  0  0  0  0  0  0  0  0  0
    2.2815   -4.6716   -4.3232 O   0  0  0  0  0  0  0  0  0  0  0  0
    1.8098   -5.0389   -3.0320 C   0  0  2  0  0  0  0  0  0  0  0  0
    2.2516   -4.0523   -1.9911 C   0  0  1  0  0  0  0  0  0  0  0  0
    2.1424   -2.8377   -2.8344 C   0  0  2  0  0  0  0  0  0  0  0  0
    0.7616   -2.4344   -2.8453 O   0  0  0  0  0  0  0  0  0  0  0  0
    1.3457   -4.1133   -0.9062 O   0  0  0  0  0  0  0  0  0  0  0  0
    2.2483   -6.3460   -2.7221 N   0  0  0  0  0  0  0  0  0  0  0  0
    3.6076   -6.5685   -2.5959 C   0  0  0  0  0  0  0  0  0  0  0  0
    4.4886   -5.7336   -2.7716 O   0  0  0  0  0  0  0  0  0  0  0  0
    3.9418   -7.8398   -2.2446 N   0  0  0  0  0  0  0  0  0  0  0  0
    3.0852   -8.8867   -2.3268 C   0  0  0  0  0  0  0  0  0  0  0  0
    3.4711  -10.0636   -2.3363 O   0  0  0  0  0  0  0  0  0  0  0  0
    1.6517   -8.5772   -2.3897 C   0  0  0  0  0  0  0  0  0  0  0  0
    1.2970   -7.3021   -2.5162 C   0  0  0  0  0  0  0  0  0  0  0  0
    1.4496    0.1002    0.3419 C   0  0  2  0  0  0  0  0  0  0  0  0
    2.7167    0.0586   -0.1426 F   0  0  0  0  0  0  0  0  0  0  0  0
    0.7490   -1.1844   -0.0014 C   0  0  1  0  0  0  0  0  0  0  0  0
    1.3675   -2.2294    0.7359 O   0  0  0  0  0  0  0  0  0  0  0  0
   -0.7355   -1.1955    0.3082 C   0  0  2  0  0  0  0  0  0  0  0  0
   -1.3697   -2.3612   -0.2477 O   0  0  0  0  0  0  0  0  0  0  0  0
   -1.3793    0.0774   -0.2317 C   0  0  1  0  0  0  0  0  0  0  0  0
   -2.8347    0.0934    0.2578 C   0  0  0  0  0  0  0  0  0  0  0  0
   -3.5093    1.2474   -0.2226 O   0  0  0  0  0  0  0  0  0  0  0  0
   -0.6550    1.2594    0.2015 O   0  0  0  0  0  0  0  0  0  0  0  0
  1 27  1  0
  1 36  1  0
  1  2  1  6
  3  2  1  0
  3  5  1  6
  4  3  2  0
  6  3  1  0
  7  6  1  0
  7  9  1  6
  8  7  2  0
 10  7  1  0
 11 10  1  0
 12 11  1  1
 12 13  1  0
 14 13  1  0
 14 15  1  0
 14 19  1  1
 15 16  1  0
 15 18  1  1
 16 12  1  0
 16 17  1  6
 20 19  1  0
 20 21  2  0
 20 22  1  0
 23 22  1  0
 23 24  2  0
 23 25  1  0
 25 26  2  0
 26 19  1  0
 27 28  1  6
 27 29  1  0
 29 31  1  0
 29 30  1  1
 31 32  1  6
 31 33  1  0
 33 36  1  0
 33 34  1  1
 34 35  1  0
M  END
>  <DRUGBANK_ID>  (1) 
DB03488

>  <SECONDARY_ACCESSION_NUMBERS>  (1) 
EXPT03157

>  <COMMON_NAME>  (1) 
Uridine-5'-diphosphate-2-deoxy-2-fluoro-alpha-D-galactose

$$$$
