
     RDKit          3D

 24 25  0  0  1  0  0  0  0  0999 V2000
    1.5916   -0.1398   -0.4732 C   0  0  0  0  0  0  0  0  0  0  0  0
    0.8451    1.0175   -0.8795 O   0  0  0  0  0  0  0  0  0  0  0  0
    1.1794    2.2596   -0.2327 C   0  0  0  0  0  0  0  0  0  0  0  0
    0.6393    2.5420    1.2068 C   0  0  0  0  0  0  0  0  0  0  0  0
    0.8917    1.5479    2.2084 O   0  0  0  0  0  0  0  0  0  0  0  0
    0.1825    0.3458    1.9533 C   0  0  0  0  0  0  0  0  0  0  0  0
   -1.2999    0.1957    1.7284 C   0  0  0  0  0  0  0  0  0  0  0  0
   -1.7824    1.2101    0.8215 O   0  0  0  0  0  0  0  0  0  0  0  0
   -2.1945    0.9626   -0.4569 C   0  0  0  0  0  0  0  0  0  0  0  0
   -2.5519   -0.2927   -0.9410 C   0  0  0  0  0  0  0  0  0  0  0  0
   -3.1799   -0.4132   -2.1800 C   0  0  0  0  0  0  0  0  0  0  0  0
   -3.5667   -1.6424   -2.6384 O   0  0  0  0  0  0  0  0  0  0  0  0
   -3.4211    0.7195   -2.9568 C   0  0  0  0  0  0  0  0  0  0  0  0
   -2.9844    1.9793   -2.5204 C   0  0  0  0  0  0  0  0  0  0  0  0
   -2.3662    2.0966   -1.2724 C   0  0  0  0  0  0  0  0  0  0  0  0
   -4.1053    0.5860   -4.2493 C   0  0  0  0  0  0  0  0  0  0  0  0
   -5.3251    0.1597   -4.4185 N   0  0  0  0  0  0  0  0  0  0  0  0
   -5.6401    0.1504   -5.8877 C   0  0  2  0  0  0  0  0  0  0  0  0
   -5.5325   -1.2693   -6.4553 C   0  0  0  0  0  0  0  0  0  0  0  0
   -4.6921    1.1056   -6.6237 C   0  0  0  0  0  0  0  0  0  0  0  0
   -3.1865    1.0852   -5.6464 S   0  0  0  0  0  0  0  0  0  0  0  0
   -7.0844    0.6040   -6.1079 C   0  0  0  0  0  0  0  0  0  0  0  0
   -7.9139    0.5420   -5.0470 O   0  0  0  0  0  0  0  0  0  0  0  0
   -7.5052    0.9632   -7.2271 O   0  0  0  0  0  0  0  0  0  0  0  0
  1  2  1  0
  2  3  1  0
  3  4  1  0
  4  5  1  0
  5  6  1  0
  6  7  1  0
  7  8  1  0
  8  9  1  0
  9 10  2  0
  9 15  1  0
 10 11  1  0
 11 12  1  0
 11 13  2  0
 13 14  1  0
 13 16  1  0
 14 15  2  0
 16 17  2  0
 16 21  1  0
 18 17  1  0
 18 20  1  0
 18 22  1  0
 18 19  1  6
 20 21  1  0
 22 23  1  0
 22 24  2  0
M  END
>  <DRUGBANK_ID>  (1) 
DB16069

>  <COMMON_NAME>  (1) 
SP-420

>  <CAS_NUMBER>  (1) 
911714-45-9

>  <UNII>  (1) 
WBX54NZ436

$$$$
