
     RDKit          3D

  8  8  0  0  1  0  0  0  0  0999 V2000
    1.1098   -0.6048    2.1822 O   0  0  0  0  0  0  0  0  0  0  0  0
    0.5162   -0.8796    0.8978 C   0  0  1  0  0  0  0  0  0  0  0  0
    0.8159   -2.3431    0.5451 C   0  0  0  0  0  0  0  0  0  0  0  0
    0.2199   -2.7822   -1.1091 S   0  0  0  0  0  0  0  0  0  0  0  0
   -1.7853   -2.4620   -0.8444 S   0  0  0  0  0  0  0  0  0  0  0  0
   -1.7427   -0.7225   -0.3414 C   0  0  0  0  0  0  0  0  0  0  0  0
   -0.9859   -0.5283    0.9768 C   0  0  2  0  0  0  0  0  0  0  0  0
   -1.1092    0.8606    1.3444 O   0  0  0  0  0  0  0  0  0  0  0  0
  2  3  1  0
  2  7  1  0
  2  1  1  1
  3  4  1  0
  4  5  1  0
  5  6  1  0
  6  7  1  0
  7  8  1  6
M  END
>  <DRUGBANK_ID>  (1) 
DB01822

>  <SECONDARY_ACCESSION_NUMBERS>  (1) 
EXPT01282

>  <COMMON_NAME>  (1) 
(4R,5R)-1,2-dithiane-4,5-diol

>  <CAS_NUMBER>  (1) 
16096-98-3

>  <UNII>  (1) 
3OED5PX4AN

>  <SYNONYMS>  (1) 
D-4,5-Dihydroxy-1,2-dithiane; Dithiane Diol

$$$$
