ATX
     RDKit          3D

 14 14  0  0  0  0  0  0  0  0999 V2000
    1.0008    1.6249    1.7502 N   0  0  0  0  0  0  0  0  0  0  0  0
    0.5125    0.2717    1.3677 C   0  0  2  0  0  0  0  0  0  0  0  0
    1.0239   -0.1128   -0.0339 C   0  0  0  0  0  0  0  0  0  0  0  0
    1.3842    0.7775   -0.8166 O   0  0  0  0  0  0  0  0  0  0  0  0
   -1.0072    0.3032    1.3953 C   0  0  0  0  0  0  0  0  0  0  0  0
    1.1160   -1.5250   -0.3475 C   0  0  0  0  0  0  0  0  0  0  0  0
    2.0820   -2.0696   -1.0582 N   0  0  0  0  0  0  0  0  0  0  0  0
    1.7891   -3.4063   -1.1700 N   0  0  0  0  0  0  0  0  0  0  0  0
    0.6421   -3.6006   -0.5525 C   0  0  0  0  0  0  0  0  0  0  0  0
    0.1589   -2.4448    0.0306 O   0  0  0  0  0  0  0  0  0  0  0  0
   -0.1203   -4.8966   -0.4345 C   0  0  0  0  0  0  0  0  0  0  0  0
   -0.4064   -5.4543   -1.8434 C   0  0  0  0  0  0  0  0  0  0  0  0
    0.7461   -5.9199    0.3220 C   0  0  0  0  0  0  0  0  0  0  0  0
   -1.4534   -4.7298    0.3063 C   0  0  0  0  0  0  0  0  0  0  0  0
  2  5  1  6
  2  3  1  0
  2  1  1  0
  3  4  2  0
  3  6  1  0
  6  7  2  0
  6 10  1  0
  7  8  1  0
  8  9  2  0
  9 10  1  0
  9 11  1  0
 11 12  1  0
 11 13  1  0
 11 14  1  0
M  END
>  <DRUGBANK_ID>  (1) 
DB07391

>  <COMMON_NAME>  (1) 
(2S)-2-AMINO-1-(5-TERT-BUTYL-1,3,4-OXADIAZOL-2-YL)PROPAN-1-ONE

$$$$
