
     RDKit          3D

 30 34  0  0  1  0  0  0  0  0999 V2000
    2.5078    0.9915    0.0123 C   0  0  0  0  0  0  0  0  0  0  0  0
    1.1749    0.2997    0.0433 C   0  0  0  0  0  0  0  0  0  0  0  0
    0.0179    1.0552    0.0135 C   0  0  0  0  0  0  0  0  0  0  0  0
   -1.1608    0.3511    0.0039 C   0  0  0  0  0  0  0  0  0  0  0  0
   -2.4898    1.0389   -0.0191 C   0  0  0  0  0  0  0  0  0  0  0  0
   -1.1836   -0.9904    0.0072 N   0  0  0  0  0  0  0  0  0  0  0  0
   -0.0272   -1.6695    0.0642 C   0  0  0  0  0  0  0  0  0  0  0  0
    1.1666   -1.0558    0.1008 N   0  0  0  0  0  0  0  0  0  0  0  0
   -0.0960   -3.0451    0.0128 N   0  0  0  0  0  0  0  0  0  0  0  0
    0.5909   -3.8375    1.0205 C   0  0  0  0  0  0  0  0  0  0  0  0
   -0.0336   -5.2163    0.8413 C   0  0  2  0  0  0  0  0  0  0  0  0
    0.5553   -5.9526   -0.3480 C   0  0  0  0  0  0  0  0  0  0  0  0
   -0.5405   -6.7619   -0.8462 N   0  0  0  0  0  0  0  0  0  0  0  0
   -1.8264   -6.1634   -0.4869 C   0  0  0  0  0  0  0  0  0  0  0  0
   -1.4723   -4.9618    0.3965 C   0  0  2  0  0  0  0  0  0  0  0  0
   -1.3769   -3.6417   -0.3744 C   0  0  0  0  0  0  0  0  0  0  0  0
   -0.4176   -7.8580   -1.6806 C   0  0  0  0  0  0  0  0  0  0  0  0
   -1.3812   -8.4692   -2.1489 O   0  0  0  0  0  0  0  0  0  0  0  0
    0.9497   -8.3235   -2.0335 C   0  0  0  0  0  0  0  0  0  0  0  0
    1.8061   -8.7745   -1.0231 C   0  0  0  0  0  0  0  0  0  0  0  0
    1.4109   -8.7823    0.2595 F   0  0  0  0  0  0  0  0  0  0  0  0
    3.1001   -9.2178   -1.3030 C   0  0  0  0  0  0  0  0  0  0  0  0
    3.5406   -9.2834   -2.6218 C   0  0  0  0  0  0  0  0  0  0  0  0
    2.6689   -8.9369   -3.6568 C   0  0  0  0  0  0  0  0  0  0  0  0
    1.3788   -8.4525   -3.3599 C   0  0  0  0  0  0  0  0  0  0  0  0
    0.5137   -8.1214   -4.4175 N   0  0  0  0  0  0  0  0  0  0  0  0
   -0.0394   -6.8860   -4.5344 N   0  0  0  0  0  0  0  0  0  0  0  0
   -0.7820   -7.0248   -5.6359 C   0  0  0  0  0  0  0  0  0  0  0  0
   -0.6251   -8.3126   -6.1576 C   0  0  0  0  0  0  0  0  0  0  0  0
    0.2999   -8.9736   -5.4559 N   0  0  0  0  0  0  0  0  0  0  0  0
  1  2  1  0
  2  3  2  0
  2  8  1  0
  3  4  1  0
  4  5  1  0
  4  6  2  0
  6  7  1  0
  7  8  2  0
  7  9  1  0
  9 10  1  0
  9 16  1  0
 11 10  1  6
 11 12  1  0
 11 15  1  0
 12 13  1  0
 13 14  1  0
 13 17  1  0
 15 14  1  6
 15 16  1  0
 17 18  2  0
 17 19  1  0
 19 20  2  0
 19 25  1  0
 20 21  1  0
 20 22  1  0
 22 23  2  0
 23 24  1  0
 24 25  2  0
 25 26  1  0
 26 27  1  0
 26 30  1  0
 27 28  2  0
 28 29  1  0
 29 30  2  0
M  END
>  <DRUGBANK_ID>  (1) 
DB14961

>  <COMMON_NAME>  (1) 
Seltorexant

>  <CAS_NUMBER>  (1) 
1452539-75-1

>  <UNII>  (1) 
AIS8N3O50B

>  <SYNONYMS>  (1) 
JNJ-42847922; Seltorexant

$$$$
