
     RDKit          3D

 17 17  0  0  0  0  0  0  0  0999 V2000
    0.9413   -0.0340   -0.0735 C   0  0  0  0  0  0  0  0  0  0  0  0
    0.3313   -0.4608    1.5983 P   0  0  0  0  0  0  0  0  0  0  0  0
    0.3313    1.6271   -0.5398 P   0  0  0  0  0  0  0  0  0  0  0  0
    0.3585   -1.1751   -0.9114 N   0  0  0  0  0  0  0  0  0  0  0  0
    1.5145    0.2978    2.1945 O   0  0  0  0  0  0  0  0  0  0  0  0
    1.3954    1.7571   -1.6362 O   0  0  0  0  0  0  0  0  0  0  0  0
   -0.9470    0.5628    1.4846 O   0  0  0  0  0  0  0  0  0  0  0  0
   -0.9596    0.9498   -1.3220 O   0  0  0  0  0  0  0  0  0  0  0  0
   -0.2454    3.1974   -0.9806 O   0  0  0  0  0  0  0  0  0  0  0  0
   -0.2454   -0.8642    3.1787 O   0  0  0  0  0  0  0  0  0  0  0  0
    1.0662   -2.4595   -0.6462 C   0  0  0  0  0  0  0  0  0  0  0  0
    0.5636   -3.5583   -1.6123 C   0  0  0  0  0  0  0  0  0  0  0  0
    1.0571   -3.0349    0.7920 C   0  0  0  0  0  0  0  0  0  0  0  0
    1.1618   -4.9395   -1.2657 C   0  0  0  0  0  0  0  0  0  0  0  0
   -0.2184   -3.7846    1.1822 C   0  0  0  0  0  0  0  0  0  0  0  0
    0.3029   -5.7847   -0.3030 C   0  0  0  0  0  0  0  0  0  0  0  0
    0.1039   -5.2678    1.1251 C   0  0  0  0  0  0  0  0  0  0  0  0
  2  1  1  0
  3  1  1  0
  4  1  1  0
  5  2  2  0
  6  3  2  0
  7  2  1  0
  8  3  1  0
  9  3  1  0
 10  2  1  0
 11  4  1  0
 12 11  1  0
 13 11  1  0
 14 12  1  0
 15 13  1  0
 16 14  1  0
 16 17  1  0
 17 15  1  0
M  END
>  <DRUGBANK_ID>  (1) 
DB06255

>  <COMMON_NAME>  (1) 
Incadronic acid

>  <CAS_NUMBER>  (1) 
124351-85-5

>  <UNII>  (1) 
G5C4M8847E

>  <SYNONYMS>  (1) 
Cimadronate; Incadronate; Incadronic acid

$$$$
