
     RDKit          3D

 31 34  0  0  0  0  0  0  0  0999 V2000
   12.5712   -6.5335  -14.2017 N   0  0  0  0  0  0  0  0  0  0  0  0
   12.8391   -5.3924  -13.5654 N   0  0  0  0  0  0  0  0  0  0  0  0
   12.4163   -4.3355  -14.3326 C   0  0  0  0  0  0  0  0  0  0  0  0
   11.4954   -4.8937  -15.2583 C   0  0  0  0  0  0  0  0  0  0  0  0
   11.6971   -6.2640  -15.1890 N   0  0  0  0  0  0  0  0  0  0  0  0
    9.8279   -4.1524  -16.2010 S   0  0  0  0  0  0  0  0  0  0  0  0
    9.0679   -2.2105  -15.6397 C   0  0  0  0  0  0  0  0  0  0  0  0
    8.4269   -2.1304  -14.1835 C   0  0  0  0  0  0  0  0  0  0  0  0
    8.9037   -2.8598  -13.1825 C   0  0  0  0  0  0  0  0  0  0  0  0
    8.4752   -3.0520  -11.9390 N   0  0  0  0  0  0  0  0  0  0  0  0
    7.2588   -2.5340  -11.4494 C   0  0  2  0  0  0  0  0  0  0  0  0
    7.3512   -0.7528  -11.9044 S   0  0  0  0  0  0  0  0  0  0  0  0
    7.4245   -1.0806  -13.7846 C   0  0  0  0  0  0  0  0  0  0  0  0
   10.1228   -3.4814  -13.4316 C   0  0  0  0  0  0  0  0  0  0  0  0
   10.2793   -4.6337  -13.0684 O   0  0  0  0  0  0  0  0  0  0  0  0
   10.8430   -2.5582  -14.1580 O   0  0  0  0  0  0  0  0  0  0  0  0
    9.0941   -3.3005  -10.7728 C   0  0  0  0  0  0  0  0  0  0  0  0
    7.7544   -3.0843  -10.0699 C   0  0  1  0  0  0  0  0  0  0  0  0
   10.2662   -3.5067  -10.4584 O   0  0  0  0  0  0  0  0  0  0  0  0
    7.7022   -2.1361   -8.9643 N   0  0  0  0  0  0  0  0  0  0  0  0
    7.1644   -2.4860   -7.7512 C   0  0  0  0  0  0  0  0  0  0  0  0
    7.0216   -1.4097   -6.6236 C   0  0  2  0  0  0  0  0  0  0  0  0
    6.7166   -3.6269   -7.5911 O   0  0  0  0  0  0  0  0  0  0  0  0
    5.5900   -1.4607   -6.2057 N   0  0  0  0  0  0  0  0  0  0  0  0
    7.4988    0.0062   -6.9495 C   0  0  0  0  0  0  0  0  0  0  0  0
    8.6032    0.2668   -7.7821 C   0  0  0  0  0  0  0  0  0  0  0  0
    8.8441    1.5408   -8.2926 C   0  0  0  0  0  0  0  0  0  0  0  0
    8.1229    2.6081   -7.7863 C   0  0  0  0  0  0  0  0  0  0  0  0
    7.1767    2.4110   -6.7949 C   0  0  0  0  0  0  0  0  0  0  0  0
    6.8720    1.1210   -6.3751 C   0  0  0  0  0  0  0  0  0  0  0  0
    8.3464    3.8853   -8.1962 O   0  0  0  0  0  0  0  0  0  0  0  0
  1  2  1  0
  2  3  1  0
  3  4  2  0
  4  5  1  0
  4  6  1  0
  5  1  2  0
  6  7  1  0
  7  8  1  0
  8  9  2  0
  9 10  1  0
  9 14  1  0
 10 11  1  0
 10 17  1  0
 11 12  1  1
 11 18  1  0
 12 13  1  0
 13  8  1  0
 14 15  2  0
 14 16  1  0
 17 19  2  0
 18 17  1  0
 18 20  1  1
 20 21  1  0
 21 23  2  0
 22 25  1  0
 22 24  1  6
 22 21  1  0
 25 26  2  0
 26 27  1  0
 27 28  2  0
 28 29  1  0
 28 31  1  0
 29 30  2  0
 30 25  1  0
M  END
>  <DRUGBANK_ID>  (1) 
DB13266

>  <COMMON_NAME>  (1) 
Cefatrizine

>  <CAS_NUMBER>  (1) 
51627-14-6

>  <UNII>  (1) 
8P4W949T8K

>  <SYNONYMS>  (1) 
cefatrizina; cÃ©fatrizine; Cefatrizine; cefatrizinum

$$$$
