1AW
     RDKit          3D

 26 28  0  0  0  0  0  0  0  0999 V2000
    1.3985   -0.1219   -0.0183 C   0  0  0  0  0  0  0  0  0  0  0  0
    0.5504   -1.2511    0.0017 C   0  0  0  0  0  0  0  0  0  0  0  0
   -0.8369   -1.1054   -0.0155 C   0  0  0  0  0  0  0  0  0  0  0  0
   -1.3791    0.1648    0.0123 C   0  0  0  0  0  0  0  0  0  0  0  0
   -0.5370    1.2734    0.0532 C   0  0  0  0  0  0  0  0  0  0  0  0
    0.8573    1.1709   -0.0464 C   0  0  0  0  0  0  0  0  0  0  0  0
    1.6924    2.3281   -0.2175 N   0  0  0  0  0  0  0  0  0  0  0  0
    1.1937    3.6162   -0.3660 C   0  0  0  0  0  0  0  0  0  0  0  0
   -0.0095    3.8955   -0.3297 O   0  0  0  0  0  0  0  0  0  0  0  0
    2.1308    4.6157   -0.5871 N   0  0  0  0  0  0  0  0  0  0  0  0
    1.6316    5.9285   -0.6871 C   0  0  0  0  0  0  0  0  0  0  0  0
    0.6544    6.5271    0.0788 C   0  0  0  0  0  0  0  0  0  0  0  0
    0.5156    7.8523   -0.3845 C   0  0  0  0  0  0  0  0  0  0  0  0
   -0.4430    8.9117    0.1584 C   0  0  0  0  0  0  0  0  0  0  0  0
   -1.4954    9.3197   -0.8907 C   0  0  0  0  0  0  0  0  0  0  0  0
    0.3329   10.1661    0.5979 C   0  0  0  0  0  0  0  0  0  0  0  0
   -1.2068    8.3765    1.3956 C   0  0  0  0  0  0  0  0  0  0  0  0
    1.4062    8.1053   -1.3577 N   0  0  0  0  0  0  0  0  0  0  0  0
    2.0425    6.9125   -1.5712 N   0  0  0  0  0  0  0  0  0  0  0  0
    2.8831    6.7570   -2.6953 C   0  0  0  0  0  0  0  0  0  0  0  0
    3.9331    7.6623   -2.8930 C   0  0  0  0  0  0  0  0  0  0  0  0
    2.6292    5.7384   -3.6203 C   0  0  0  0  0  0  0  0  0  0  0  0
    3.4519    5.6187   -4.7380 C   0  0  0  0  0  0  0  0  0  0  0  0
    4.5094    6.5140   -4.9267 C   0  0  0  0  0  0  0  0  0  0  0  0
    4.7123    7.5852   -4.0494 C   0  0  0  0  0  0  0  0  0  0  0  0
    5.8138    8.4346   -4.2251 N   0  0  0  0  0  0  0  0  0  0  0  0
  2  1  2  0
  3  2  1  0
  4  3  2  0
  4  5  1  0
  5  6  2  0
  6  1  1  0
  6  7  1  0
  8  7  1  0
  8 10  1  0
  9  8  2  0
 11 10  1  0
 11 19  1  0
 12 11  2  0
 12 13  1  0
 13 18  2  0
 14 13  1  0
 14 16  1  0
 15 14  1  0
 17 14  1  0
 18 19  1  0
 19 20  1  0
 20 22  1  0
 20 21  2  0
 21 25  1  0
 22 23  2  0
 23 24  1  0
 25 24  2  0
 25 26  1  0
M  END
>  <DRUGBANK_ID>  (1) 
DB06883

>  <COMMON_NAME>  (1) 
1-[1-(3-aminophenyl)-3-tert-butyl-1H-pyrazol-5-yl]-3-phenylurea

$$$$
