
     RDKit          3D

 12 12  0  0  0  0  0  0  0  0999 V2000
    1.4785   -0.1388    0.1999 C   0  0  0  0  0  0  0  0  0  0  0  0
    0.6223   -1.2655    0.0726 C   0  0  0  0  0  0  0  0  0  0  0  0
    0.8820    1.1303    0.0771 C   0  0  0  0  0  0  0  0  0  0  0  0
    2.9779   -0.1536    0.4773 C   0  0  0  0  0  0  0  0  0  0  0  0
   -0.7801   -1.0745    0.0038 C   0  0  0  0  0  0  0  0  0  0  0  0
    0.9160   -2.5981   -0.0994 O   0  0  0  0  0  0  0  0  0  0  0  0
   -0.5051    1.3007    0.0348 C   0  0  0  0  0  0  0  0  0  0  0  0
    3.7506    0.9343    0.2003 N   0  0  0  0  0  0  0  0  0  0  0  0
    3.6297   -1.0802    0.9548 O   0  0  0  0  0  0  0  0  0  0  0  0
   -1.3420    0.1983    0.0074 C   0  0  0  0  0  0  0  0  0  0  0  0
    2.2736   -2.9998   -0.2052 C   0  0  0  0  0  0  0  0  0  0  0  0
    2.9680   -2.4088   -1.4380 C   0  0  0  0  0  0  0  0  0  0  0  0
  1  2  2  0
  1  3  1  0
  1  4  1  0
  2  5  1  0
  2  6  1  0
  3  7  2  0
  4  8  1  0
  4  9  2  0
  5 10  2  0
  6 11  1  0
  7 10  1  0
 11 12  1  0
M  END
>  <DRUGBANK_ID>  (1) 
DB13544

>  <COMMON_NAME>  (1) 
Ethenzamide

>  <CAS_NUMBER>  (1) 
938-73-8

>  <UNII>  (1) 
L929ZCK4BF

>  <SYNONYMS>  (1) 
Etenzamida; Etenzamide; Ethbenzamide; Ã©thenzamide; Ethenzamide; Ethenzamidum; o-Ethoxybenzamide

$$$$
