
     RDKit          3D

 26 28  0  0  0  0  0  0  0  0999 V2000
    1.0819    0.0338    0.0089 C   0  0  0  0  0  0  0  0  0  0  0  0
    0.5153    0.0064    1.4089 C   0  0  0  0  0  0  0  0  0  0  0  0
   -0.1742    1.0278    1.9741 C   0  0  0  0  0  0  0  0  0  0  0  0
   -0.6523    2.1491    1.2322 C   0  0  0  0  0  0  0  0  0  0  0  0
   -1.2001    2.1592   -0.0387 C   0  0  0  0  0  0  0  0  0  0  0  0
   -1.4468    3.4629   -0.5205 C   0  0  0  0  0  0  0  0  0  0  0  0
   -1.2239    4.4374    0.4311 C   0  0  0  0  0  0  0  0  0  0  0  0
   -0.6708    3.7444    1.8963 S   0  0  0  0  0  0  0  0  0  0  0  0
   -1.4363    5.8550    0.2041 C   0  0  0  0  0  0  0  0  0  0  0  0
   -1.1836    6.6562    1.2670 O   0  0  0  0  0  0  0  0  0  0  0  0
   -1.8214    6.3241   -0.8645 O   0  0  0  0  0  0  0  0  0  0  0  0
    0.7740   -1.2323    2.2085 C   0  0  0  0  0  0  0  0  0  0  0  0
    2.0488   -1.8289    2.2052 C   0  0  0  0  0  0  0  0  0  0  0  0
    2.3996   -2.9285    3.0329 C   0  0  0  0  0  0  0  0  0  0  0  0
    1.4104   -3.4875    3.8593 C   0  0  0  0  0  0  0  0  0  0  0  0
    0.1216   -2.9259    3.8180 C   0  0  0  0  0  0  0  0  0  0  0  0
   -0.2188   -1.8469    2.9850 C   0  0  0  0  0  0  0  0  0  0  0  0
   -1.6635   -1.4288    2.9940 C   0  0  0  0  0  0  0  0  0  0  0  0
    1.6889   -4.6564    4.8107 C   0  0  0  0  0  0  0  0  0  0  0  0
    0.5544   -5.7011    4.7377 C   0  0  0  0  0  0  0  0  0  0  0  0
    1.7891   -4.1202    6.2545 C   0  0  0  0  0  0  0  0  0  0  0  0
    3.0070   -5.3757    4.4548 C   0  0  0  0  0  0  0  0  0  0  0  0
    4.1263   -4.3617    4.2463 C   0  0  0  0  0  0  0  0  0  0  0  0
    3.8344   -3.4741    3.0133 C   0  0  0  0  0  0  0  0  0  0  0  0
    4.8564   -2.3180    3.0288 C   0  0  0  0  0  0  0  0  0  0  0  0
    4.0390   -4.3179    1.7394 C   0  0  0  0  0  0  0  0  0  0  0  0
  1  2  1  0
  2  3  2  0
  2 12  1  0
  3  4  1  0
  4  5  2  0
  4  8  1  0
  5  6  1  0
  6  7  2  0
  7  8  1  0
  7  9  1  0
  9 10  1  0
  9 11  2  0
 12 13  2  0
 12 17  1  0
 13 14  1  0
 14 15  2  0
 14 24  1  0
 15 16  1  0
 15 19  1  0
 16 17  2  0
 17 18  1  0
 19 20  1  0
 19 21  1  0
 19 22  1  0
 22 23  1  0
 23 24  1  0
 24 25  1  0
 24 26  1  0
M  END
>  <DRUGBANK_ID>  (1) 
DB18220

>  <COMMON_NAME>  (1) 
Indralin

>  <CAS_NUMBER>  (1) 
156691-86-0

>  <UNII>  (1) 
ACF4F9H44I

>  <SYNONYMS>  (1) 
2-thiophenecarboxylic acid, 5-((1e)-2-(5,6,7,8-tetrahydro-3,5,5,8,8-pentamethyl-2-naphthalenyl)-1-propen-1-yl)-; 5-((1e)-2-(5,6,7,8-tetrahydro-3,5,5,8,8-pentamethyl-2-naphthalenyl)-1-propen-1-yl)-2-thiophenecarboxylic acid; Indraline

$$$$
