
     RDKit          3D

 19 21  0  0  0  0  0  0  0  0999 V2000
    0.7687    0.0959    0.0701 C   0  0  0  0  0  0  0  0  0  0  0  0
    0.4688    1.0037   -1.1134 C   0  0  0  0  0  0  0  0  0  0  0  0
    8.2080    1.7980   -6.7238 C   0  0  0  0  0  0  0  0  0  0  0  0
    3.1323   -0.2221   -1.7256 C   0  0  0  0  0  0  0  0  0  0  0  0
    6.8318    1.9149   -6.5587 C   0  0  0  0  0  0  0  0  0  0  0  0
    4.5026   -0.2199   -1.9140 C   0  0  0  0  0  0  0  0  0  0  0  0
    8.3883    0.6658   -4.6050 C   0  0  0  0  0  0  0  0  0  0  0  0
    2.7869    1.0601   -3.7228 C   0  0  0  0  0  0  0  0  0  0  0  0
    8.9982    1.1862   -5.7468 C   0  0  0  0  0  0  0  0  0  0  0  0
    2.2754    0.4810   -2.5680 C   0  0  0  0  0  0  0  0  0  0  0  0
    6.2336    1.4099   -5.4096 C   0  0  0  0  0  0  0  0  0  0  0  0
    4.1639    0.9919   -3.9751 C   0  0  0  0  0  0  0  0  0  0  0  0
    5.0299    0.3696   -3.0488 C   0  0  0  0  0  0  0  0  0  0  0  0
    7.0089    0.7809   -4.4243 C   0  0  0  0  0  0  0  0  0  0  0  0
    4.7622    1.5403   -5.2250 C   0  0  0  0  0  0  0  0  0  0  0  0
   10.3558    1.0279   -5.9500 N   0  0  0  0  0  0  0  0  0  0  0  0
    4.0678    2.1209   -6.1644 N   0  0  0  0  0  0  0  0  0  0  0  0
    6.4025    0.2837   -3.2739 N   0  0  0  0  0  0  0  0  0  0  0  0
    0.9216    0.5059   -2.3846 O   0  0  0  0  0  0  0  0  0  0  0  0
  2  1  1  0
  5  3  2  0
  6  4  1  0
  9  3  1  0
  9  7  2  0
 10  4  2  0
 10  8  1  0
 11  5  1  0
 12  8  2  0
 13  6  2  0
 13 12  1  0
 14  7  1  0
 14 11  2  0
 15 11  1  0
 15 12  1  0
 16  9  1  0
 17 15  2  0
 18 13  1  0
 18 14  1  0
 19  2  1  0
 19 10  1  0
M  END
>  <DRUGBANK_ID>  (1) 
DB13190

>  <COMMON_NAME>  (1) 
Ethacridine

>  <CAS_NUMBER>  (1) 
442-16-0

>  <UNII>  (1) 
WIX85M1A6R

>  <SYNONYMS>  (1) 
Etacridina; Ethacridine; Ethacridinum

$$$$
