IM9
     RDKit          3D

 32 35  0  0  0  0  0  0  0  0999 V2000
    1.1914    0.0748   -0.0940 C   0  0  0  0  0  0  0  0  0  0  0  0
    0.5479    1.3394    0.4912 C   0  0  0  0  0  0  0  0  0  0  0  0
    1.2198    2.4684   -0.2787 C   0  0  0  0  0  0  0  0  0  0  0  0
   -0.9280    1.3792    0.4605 N   0  0  0  0  0  0  0  0  0  0  0  0
   -1.7823    0.2746    0.5164 C   0  0  0  0  0  0  0  0  0  0  0  0
   -1.3744   -1.1561    0.5411 C   0  0  0  0  0  0  0  0  0  0  0  0
   -3.0453    0.6446    0.5441 N   0  0  0  0  0  0  0  0  0  0  0  0
   -3.0398    2.0015    0.5140 C   0  0  0  0  0  0  0  0  0  0  0  0
   -1.7575    2.5104    0.4921 C   0  0  0  0  0  0  0  0  0  0  0  0
   -1.3880    3.9213    0.5285 C   0  0  0  0  0  0  0  0  0  0  0  0
   -1.6539    4.7118    1.6157 C   0  0  0  0  0  0  0  0  0  0  0  0
   -1.1518    5.9881    1.5398 C   0  0  0  0  0  0  0  0  0  0  0  0
   -0.3962    6.4428    0.5134 N   0  0  0  0  0  0  0  0  0  0  0  0
   -0.2145    5.6062   -0.5217 C   0  0  0  0  0  0  0  0  0  0  0  0
    0.7003    5.9735   -1.5181 N   0  0  0  0  0  0  0  0  0  0  0  0
    1.1669    5.1796   -2.5786 C   0  0  0  0  0  0  0  0  0  0  0  0
    0.2680    4.5791   -3.4626 C   0  0  0  0  0  0  0  0  0  0  0  0
    0.7011    3.7153   -4.4847 C   0  0  0  0  0  0  0  0  0  0  0  0
    2.0498    3.3760   -4.6396 C   0  0  0  0  0  0  0  0  0  0  0  0
    2.9522    4.0004   -3.7673 C   0  0  0  0  0  0  0  0  0  0  0  0
    2.5220    4.8725   -2.7401 C   0  0  0  0  0  0  0  0  0  0  0  0
    2.4621    2.4552   -5.5800 N   0  0  0  0  0  0  0  0  0  0  0  0
    2.1602    2.6057   -7.0090 C   0  0  0  0  0  0  0  0  0  0  0  0
    1.4456    1.3500   -7.5518 C   0  0  0  0  0  0  0  0  0  0  0  0
    2.1974    0.1254   -7.2298 N   0  0  0  0  0  0  0  0  0  0  0  0
    2.4879   -0.0186   -5.7922 C   0  0  0  0  0  0  0  0  0  0  0  0
    3.2135    1.2345   -5.2290 C   0  0  0  0  0  0  0  0  0  0  0  0
    2.6219   -0.8264   -8.1413 C   0  0  0  0  0  0  0  0  0  0  0  0
    3.2644   -1.8295   -7.7975 O   0  0  0  0  0  0  0  0  0  0  0  0
    2.2867   -0.6206   -9.6286 C   0  0  0  0  0  0  0  0  0  0  0  0
    0.8971   -0.5721   -9.9063 O   0  0  0  0  0  0  0  0  0  0  0  0
   -0.7686    4.3837   -0.5676 N   0  0  0  0  0  0  0  0  0  0  0  0
  1  2  1  0
  2  3  1  0
  2  4  1  0
  4  5  1  0
  4  9  1  0
  5  6  1  0
  5  7  2  0
  7  8  1  0
  8  9  2  0
  9 10  1  0
 10 11  2  0
 10 32  1  0
 11 12  1  0
 12 13  2  0
 13 14  1  0
 14 15  1  0
 14 32  2  0
 15 16  1  0
 16 17  2  0
 16 21  1  0
 17 18  1  0
 18 19  2  0
 19 20  1  0
 19 22  1  0
 20 21  2  0
 22 23  1  0
 22 27  1  0
 23 24  1  0
 24 25  1  0
 25 26  1  0
 25 28  1  0
 26 27  1  0
 28 29  2  0
 28 30  1  0
 30 31  1  0
M  END
>  <DRUGBANK_ID>  (1) 
DB07982

>  <COMMON_NAME>  (1) 
2-{4-[4-({4-[2-methyl-1-(1-methylethyl)-1H-imidazol-5-yl]pyrimidin-2-yl}amino)phenyl]piperazin-1-yl}-2-oxoethanol

$$$$
