
     RDKit          3D

 20 20  0  0  0  0  0  0  0  0999 V2000
   -1.5469   -1.7625    0.0205 C   0  0  0  0  0  0  0  0  0  0  0  0
   -0.4133   -0.7787    0.0001 C   0  0  0  0  0  0  0  0  0  0  0  0
    0.8304   -1.3164   -0.0036 N   0  0  0  0  0  0  0  0  0  0  0  0
    1.8736   -0.4682   -0.0356 C   0  0  0  0  0  0  0  0  0  0  0  0
    1.7608    0.9215   -0.0524 C   0  0  0  0  0  0  0  0  0  0  0  0
    3.0556    1.7003   -0.0021 C   0  0  0  0  0  0  0  0  0  0  0  0
    3.7437    1.5233    1.2464 O   0  0  0  0  0  0  0  0  0  0  0  0
    2.7632    1.8082    2.6429 P   0  0  0  0  0  0  0  0  0  0  0  0
    4.1897    2.0386    3.4287 O   0  0  0  0  0  0  0  0  0  0  0  0
    2.7796    3.3799    2.1840 O   0  0  0  0  0  0  0  0  0  0  0  0
    1.8856    2.0631    3.8928 O   0  0  0  0  0  0  0  0  0  0  0  0
    0.4538    1.4844   -0.0647 C   0  0  0  0  0  0  0  0  0  0  0  0
    0.2239    2.9807   -0.1213 C   0  0  0  0  0  0  0  0  0  0  0  0
    0.6148    3.5984    1.1415 N   0  0  0  0  0  0  0  0  0  0  0  0
    0.4764    5.0753    1.1617 C   0  0  0  0  0  0  0  0  0  0  0  0
   -0.9877    5.4968    1.1501 C   0  0  0  0  0  0  0  0  0  0  0  0
   -1.3859    6.1495    2.2661 O   0  0  0  0  0  0  0  0  0  0  0  0
   -1.7561    5.2242    0.2516 O   0  0  0  0  0  0  0  0  0  0  0  0
   -0.6419    0.6003   -0.0248 C   0  0  0  0  0  0  0  0  0  0  0  0
   -1.9500    1.0028   -0.0046 O   0  0  0  0  0  0  0  0  0  0  0  0
  1  2  1  0
  2  3  2  0
  2 19  1  0
  3  4  1  0
  4  5  2  0
  5  6  1  0
  5 12  1  0
  6  7  1  0
  7  8  1  0
  8  9  1  0
  8 10  1  0
  8 11  2  0
 12 13  1  0
 12 19  2  0
 13 14  1  0
 14 15  1  0
 15 16  1  0
 16 17  1  0
 16 18  2  0
 19 20  1  0
M  END
>  <DRUGBANK_ID>  (1) 
DB02824

>  <SECONDARY_ACCESSION_NUMBERS>  (1) 
EXPT02606

>  <COMMON_NAME>  (1) 
N-Pyridoxyl-Glycine-5-Monophosphate

$$$$
