
     RDKit          3D

 23 25  0  0  0  0  0  0  0  0999 V2000
    0.9720   -0.0503   -0.0822 C   0  0  0  0  0  0  0  0  0  0  0  0
    0.4843   -1.0464    0.8078 O   0  0  0  0  0  0  0  0  0  0  0  0
    0.8496   -2.3206    0.4699 C   0  0  0  0  0  0  0  0  0  0  0  0
   -0.1658   -3.2645    0.5417 C   0  0  0  0  0  0  0  0  0  0  0  0
    0.1049   -4.6110    0.2394 C   0  0  0  0  0  0  0  0  0  0  0  0
    1.4073   -5.0109   -0.0883 C   0  0  0  0  0  0  0  0  0  0  0  0
    2.4492   -4.0638   -0.1283 C   0  0  0  0  0  0  0  0  0  0  0  0
    2.1445   -2.7173    0.1528 C   0  0  0  0  0  0  0  0  0  0  0  0
    1.3655   -6.3907   -0.3019 N   0  0  0  0  0  0  0  0  0  0  0  0
    0.0423   -6.7985   -0.2614 C   0  0  0  0  0  0  0  0  0  0  0  0
   -0.7286   -5.7525    0.1925 C   0  0  0  0  0  0  0  0  0  0  0  0
   -2.1792   -5.8236    0.5224 C   0  0  0  0  0  0  0  0  0  0  0  0
   -2.4363   -5.4465    1.9678 C   0  0  0  0  0  0  0  0  0  0  0  0
   -3.2877   -4.3999    2.1146 O   0  0  0  0  0  0  0  0  0  0  0  0
   -1.9633   -6.0270    2.9273 O   0  0  0  0  0  0  0  0  0  0  0  0
   -0.4581   -8.1552   -0.5643 C   0  0  0  0  0  0  0  0  0  0  0  0
    2.5133   -7.2561   -0.6401 C   0  0  0  0  0  0  0  0  0  0  0  0
    2.8321   -8.3272    0.3973 C   0  0  0  0  0  0  0  0  0  0  0  0
    1.9425   -9.3373    0.7964 C   0  0  0  0  0  0  0  0  0  0  0  0
    2.1560  -10.1711    1.8837 C   0  0  0  0  0  0  0  0  0  0  0  0
    3.4037  -10.1904    2.4565 C   0  0  0  0  0  0  0  0  0  0  0  0
    4.3961   -9.3547    1.9459 C   0  0  0  0  0  0  0  0  0  0  0  0
    4.0989   -8.3842    0.9768 C   0  0  0  0  0  0  0  0  0  0  0  0
  1  2  1  0
  3  2  1  0
  3  4  2  0
  3  8  1  0
  4  5  1  0
  5  6  2  0
  6  7  1  0
  6  9  1  0
  7  8  2  0
 10  9  1  0
 10 11  2  0
 10 16  1  0
 11  5  1  0
 11 12  1  0
 12 13  1  0
 13 14  1  0
 13 15  2  0
 17  9  1  0
 17 18  1  0
 18 19  2  0
 18 23  1  0
 19 20  1  0
 20 21  2  0
 21 22  1  0
 22 23  2  0
M  END
>  <DRUGBANK_ID>  (1) 
DB03121

>  <SECONDARY_ACCESSION_NUMBERS>  (1) 
EXPT01810

>  <COMMON_NAME>  (1) 
(1-Benzyl-5-methoxy-2-methyl-1H-indol-3-yl)acetic acid

>  <CAS_NUMBER>  (1) 
59283-35-1

>  <UNII>  (1) 
5JSR5TT2JJ

$$$$
