
     RDKit          3D

 32 35  0  0  1  0  0  0  0  0999 V2000
    3.0081    2.8170   -1.1046 C   0  0  0  0  0  0  0  0  0  0  0  0
    2.5659    2.7892   -2.5453 C   0  0  0  0  0  0  0  0  0  0  0  0
    1.6203    3.9104   -3.0156 C   0  0  0  0  0  0  0  0  0  0  0  0
    2.2515    5.2944   -2.7572 C   0  0  0  0  0  0  0  0  0  0  0  0
    3.5336    5.5304   -3.5530 C   0  0  0  0  0  0  0  0  0  0  0  0
    1.2137    3.7546   -4.5108 C   0  0  0  0  0  0  0  0  0  0  0  0
    0.7009    2.4436   -4.8297 O   0  0  0  0  0  0  0  0  0  0  0  0
    1.7026    1.5514   -5.0838 C   0  0  0  0  0  0  0  0  0  0  0  0
    2.8838    1.8174   -5.0267 O   0  0  0  0  0  0  0  0  0  0  0  0
    1.2627    0.1260   -5.3542 C   0  0  2  0  0  0  0  0  0  0  0  0
    2.5502   -0.6615   -5.6613 C   0  0  0  0  0  0  0  0  0  0  0  0
    2.3363   -2.1381   -6.0039 C   0  0  1  0  0  0  0  0  0  0  0  0
    1.9418   -2.8938   -4.7210 C   0  0  0  0  0  0  0  0  0  0  0  0
    0.7934   -3.9093   -4.7134 C   0  0  2  0  0  0  0  0  0  0  0  0
    0.3588   -4.4432   -6.0734 C   0  0  0  0  0  0  0  0  0  0  0  0
    0.9608   -3.7450   -7.3037 C   0  0  0  0  0  0  0  0  0  0  0  0
    1.3374   -2.2576   -7.1468 C   0  0  1  0  0  0  0  0  0  0  0  0
    0.1395   -1.3888   -6.8369 C   0  0  0  0  0  0  0  0  0  0  0  0
    0.3125    0.0076   -6.4619 N   0  0  0  0  0  0  0  0  0  0  0  0
   -0.3179   -3.5182   -3.8068 O   0  0  0  0  0  0  0  0  0  0  0  0
   -1.1613   -2.4519   -4.0854 C   0  0  0  0  0  0  0  0  0  0  0  0
   -2.0523   -2.4926   -5.1937 C   0  0  0  0  0  0  0  0  0  0  0  0
   -2.6745   -1.3351   -5.6877 C   0  0  0  0  0  0  0  0  0  0  0  0
   -2.5486   -0.1459   -4.9952 C   0  0  0  0  0  0  0  0  0  0  0  0
   -1.8254   -0.1238   -3.7931 C   0  0  0  0  0  0  0  0  0  0  0  0
   -1.1057   -1.2629   -3.3134 C   0  0  0  0  0  0  0  0  0  0  0  0
   -0.3106   -1.1419   -2.0775 C   0  0  0  0  0  0  0  0  0  0  0  0
    1.0565   -1.1423   -1.9365 N   0  0  0  0  0  0  0  0  0  0  0  0
    1.4118   -0.9635   -0.6627 N   0  0  0  0  0  0  0  0  0  0  0  0
    0.2731   -0.7830   -0.0213 N   0  0  0  0  0  0  0  0  0  0  0  0
   -0.7946   -0.8720   -0.8791 N   0  0  0  0  0  0  0  0  0  0  0  0
   -1.7378    1.4238   -3.0115 Cl  0  0  0  0  0  0  0  0  0  0  0  0
  1  2  1  0
  2  3  1  0
  3  4  1  0
  3  6  1  0
  4  5  1  0
  6  7  1  0
  7  8  1  0
  8  9  2  0
 10 11  1  0
 10 19  1  0
 10  8  1  6
 12 11  1  1
 12 13  1  0
 12 17  1  0
 13 14  1  0
 14 15  1  0
 14 20  1  6
 15 16  1  0
 17 16  1  1
 17 18  1  0
 18 19  1  0
 20 21  1  0
 21 22  2  0
 21 26  1  0
 22 23  1  0
 23 24  2  0
 24 25  1  0
 25 26  2  0
 25 32  1  0
 26 27  1  0
 27 28  1  0
 27 31  2  0
 28 29  1  0
 29 30  2  0
 30 31  1  0
M  END
>  <DRUGBANK_ID>  (1) 
DB12049

>  <COMMON_NAME>  (1) 
Dasolampanel etibutil

>  <CAS_NUMBER>  (1) 
503291-52-9

>  <UNII>  (1) 
M7BFC308LR

>  <SYNONYMS>  (1) 
Dasolampanel etibutil

$$$$
