
     RDKit          3D

 36 37  0  0  1  0  0  0  0  0999 V2000
    2.1872   -5.7079   -3.6935 C   0  0  2  0  0  0  0  0  0  0  0  0
    1.0383   -6.2706   -2.9242 O   0  0  0  0  0  0  0  0  0  0  0  0
    0.2959   -5.5762   -1.8512 C   0  0  1  0  0  0  0  0  0  0  0  0
    0.9439   -5.6764   -0.4503 C   0  0  0  0  0  0  0  0  0  0  0  0
    1.0263   -4.7485    0.3575 O   0  0  0  0  0  0  0  0  0  0  0  0
   -0.0721   -4.1670   -2.3526 C   0  0  1  0  0  0  0  0  0  0  0  0
   -1.1011   -4.0841   -3.3461 O   0  0  0  0  0  0  0  0  0  0  0  0
   -2.3694   -4.5743   -2.9518 C   0  0  1  0  0  0  0  0  0  0  0  0
   -2.6263   -4.3509   -1.5468 O   0  0  0  0  0  0  0  0  0  0  0  0
   -2.5922   -2.9450   -1.2179 C   0  0  2  0  0  0  0  0  0  0  0  0
   -2.3040   -2.6783    0.3862 C   0  0  0  0  0  0  0  0  0  0  0  0
   -0.9603   -2.6014    0.9573 O   0  0  0  0  0  0  0  0  0  0  0  0
   -3.5608   -2.0825   -2.0562 C   0  0  2  0  0  0  0  0  0  0  0  0
   -4.8635   -2.3976   -1.6231 O   0  0  0  0  0  0  0  0  0  0  0  0
   -3.3489   -2.3474   -3.5817 C   0  0  2  0  0  0  0  0  0  0  0  0
   -4.3576   -1.6476   -4.3080 O   0  0  0  0  0  0  0  0  0  0  0  0
   -3.4174   -3.8517   -3.8049 C   0  0  1  0  0  0  0  0  0  0  0  0
   -3.3607   -4.1954   -5.2134 N   0  0  0  0  0  0  0  0  0  0  0  0
   -4.5335   -4.7051   -5.7428 C   0  0  0  0  0  0  0  0  0  0  0  0
   -4.5047   -4.9361   -7.2249 C   0  0  0  0  0  0  0  0  0  0  0  0
   -5.4881   -4.9922   -5.0784 O   0  0  0  0  0  0  0  0  0  0  0  0
    0.1859   -2.7651   -1.5201 C   0  0  1  0  0  0  0  0  0  0  0  0
    1.2590   -2.5219   -0.6429 O   0  0  0  0  0  0  0  0  0  0  0  0
   -0.2209   -1.3020   -2.1474 C   0  0  2  0  0  0  0  0  0  0  0  0
    0.9548   -0.5051   -2.3909 O   0  0  0  0  0  0  0  0  0  0  0  0
   -1.0941   -0.3545   -1.2676 C   0  0  0  0  0  0  0  0  0  0  0  0
   -1.6232    0.7199   -2.0465 O   0  0  0  0  0  0  0  0  0  0  0  0
    3.4026   -5.6196   -2.9269 O   0  0  0  0  0  0  0  0  0  0  0  0
    3.2913   -4.5694   -1.9755 C   0  0  1  0  0  0  0  0  0  0  0  0
    4.1031   -4.8169   -0.7124 C   0  0  0  0  0  0  0  0  0  0  0  0
    3.1940   -3.1340   -2.5564 C   0  0  1  0  0  0  0  0  0  0  0  0
    4.4405   -2.6141   -2.9185 O   0  0  0  0  0  0  0  0  0  0  0  0
    2.2038   -3.0464   -3.7635 C   0  0  1  0  0  0  0  0  0  0  0  0
    2.0865   -1.9181   -4.6269 O   0  0  0  0  0  0  0  0  0  0  0  0
    2.0757   -4.3803   -4.5709 C   0  0  2  0  0  0  0  0  0  0  0  0
    0.9481   -4.4195   -5.4634 O   0  0  0  0  0  0  0  0  0  0  0  0
  1  2  1  1
  1 28  1  0
  3  2  1  0
  3  4  1  1
  4  5  2  0
  6  3  1  0
  6  7  1  1
  6 22  1  0
  8  9  1  0
  8  7  1  6
 10  9  1  0
 10 11  1  1
 11 12  1  0
 13 10  1  0
 13 14  1  1
 13 15  1  0
 15 16  1  6
 15 17  1  0
 17  8  1  0
 17 18  1  6
 18 19  1  0
 19 20  1  0
 19 21  2  0
 22 23  1  6
 24 26  1  0
 24 25  1  1
 24 22  1  0
 26 27  1  0
 29 28  1  0
 29 30  1  1
 31 29  1  0
 31 32  1  6
 31 33  1  0
 33 34  1  6
 33 35  1  0
 35  1  1  0
 35 36  1  1
M  END
>  <DRUGBANK_ID>  (1) 
DB17689

>  <COMMON_NAME>  (1) 
Trisaccharide A

>  <CAS_NUMBER>  (1) 
49777-13-1

>  <UNII>  (1) 
P104QT2V1B

>  <SYNONYMS>  (1) 
3-o-(2-acetamido-2-deoxy-.alpha.-d-galactopyranosyl)-2-o-(.alpha.-l-fucopyranosyl)-d-galactose; A trisaccharide; A-trisaccharide; Bg-a trisaccharide; Blood-group a trisaccharide

$$$$
