
     RDKit          3D

  4  3  0  0  0  0  0  0  0  0999 V2000
    0.9473    0.0642   -0.0556 O   0  0  0  0  0  0  0  0  0  0  0  0
    2.7973    0.0642   -0.0556 As  0  0  0  0  0  3  0  0  0  0  0  0
    3.4139    0.0529   -1.7998 O   0  0  0  0  0  0  0  0  0  0  0  0
    3.4139    1.5804    0.8067 O   0  0  0  0  0  0  0  0  0  0  0  0
  1  2  1  0
  2  3  1  0
  2  4  1  0
M  CHG  3   1  -1   3  -1   4  -1
M  END
>  <DRUGBANK_ID>  (1) 
DB18509

>  <COMMON_NAME>  (1) 
Arsenite ion

>  <CAS_NUMBER>  (1) 
15502-74-6

>  <UNII>  (1) 
N5509X556J

>  <SYNONYMS>  (1) 
Arsenite; Arsenite anion; Ortho-arsenite

$$$$
