F6F
     RDKit          3D

 21 21  0  0  0  0  0  0  0  0999 V2000
    1.3843   -0.3218    0.0342 C   0  0  0  0  0  0  0  0  0  0  0  0
    0.4610   -1.3697    0.0164 C   0  0  0  0  0  0  0  0  0  0  0  0
   -0.9194   -1.1284   -0.0343 C   0  0  0  0  0  0  0  0  0  0  0  0
   -1.4130    0.1696   -0.1149 C   0  0  0  0  0  0  0  0  0  0  0  0
   -0.4731    1.2067   -0.1304 C   0  0  0  0  0  0  0  0  0  0  0  0
    0.9059    0.9770   -0.0494 C   0  0  0  0  0  0  0  0  0  0  0  0
    2.7413   -0.4455    0.1242 O   0  0  0  0  0  0  0  0  0  0  0  0
    3.2359   -1.7667    0.2804 C   0  0  0  0  0  0  0  0  0  0  0  0
    2.7099   -2.3575    1.3759 F   0  0  0  0  0  0  0  0  0  0  0  0
    2.9553   -2.5106   -0.8118 F   0  0  0  0  0  0  0  0  0  0  0  0
    4.5768   -1.7274    0.4294 F   0  0  0  0  0  0  0  0  0  0  0  0
   -2.9050    0.3668   -0.2112 C   0  0  0  0  0  0  0  0  0  0  0  0
   -3.3668    1.6570   -0.3578 N   0  0  0  0  0  0  0  0  0  0  0  0
   -3.6699   -0.5984   -0.1828 O   0  0  0  0  0  0  0  0  0  0  0  0
   -4.7950    2.0216   -0.4490 C   0  0  0  0  0  0  0  0  0  0  0  0
   -5.3208    2.8413    0.7542 C   0  0  0  0  0  0  0  0  0  0  0  0
   -4.6604    4.1092    0.8723 O   0  0  0  0  0  0  0  0  0  0  0  0
   -2.9656    3.8235    1.0693 P   0  0  0  0  0  0  0  0  0  0  0  0
   -2.6294    4.8514   -0.1443 O   0  0  0  0  0  0  0  0  0  0  0  0
   -2.9162    4.6072    2.3747 O   0  0  0  0  0  0  0  0  0  0  0  0
   -1.2707    3.5378    1.2663 O   0  0  0  0  0  0  0  0  0  0  0  0
  1  2  2  0
  1  6  1  0
  1  7  1  0
  2  3  1  0
  3  4  2  0
  4  5  1  0
  4 12  1  0
  5  6  2  0
  7  8  1  0
  8  9  1  0
  8 10  1  0
  8 11  1  0
 12 13  1  0
 12 14  2  0
 13 15  1  0
 15 16  1  0
 16 17  1  0
 17 18  1  0
 18 19  1  0
 18 20  2  0
 18 21  1  0
M  END
>  <DRUGBANK_ID>  (1) 
DB07745

>  <COMMON_NAME>  (1) 
2-{[4-(TRIFLUOROMETHOXY)BENZOYL]AMINO}ETHYL DIHYDROGEN PHOSPHATE

$$$$
