
     RDKit          3D

 39 43  0  0  1  0  0  0  0  0999 V2000
    1.4437   -0.7038    0.3676 C   0  0  0  0  0  0  0  0  0  0  0  0
    0.5128    0.6442    0.9199 C   0  0  2  0  0  0  0  0  0  0  0  0
   -1.1392    0.2044   -0.1176 C   0  0  0  0  0  0  0  0  0  0  0  0
   -1.1567    1.1294   -1.7461 N   0  0  0  0  0  0  0  0  0  0  0  0
   -2.5356    1.3031   -2.1995 C   0  0  0  0  0  0  0  0  0  0  0  0
   -3.4931    2.4274   -1.4899 C   0  0  0  0  0  0  0  0  0  0  0  0
   -3.9640    3.2550   -2.3005 O   0  0  0  0  0  0  0  0  0  0  0  0
   -3.7726    2.5912   -0.0899 N   0  0  0  0  0  0  0  0  0  0  0  0
   -3.1744    2.3103    1.1991 C   0  0  0  0  0  0  0  0  0  0  0  0
   -3.5038    3.0670    2.4884 C   0  0  0  0  0  0  0  0  0  0  0  0
   -2.7370    4.4041    2.5882 C   0  0  0  0  0  0  0  0  0  0  0  0
   -3.1523    2.2468    3.8130 C   0  0  0  0  0  0  0  0  0  0  0  0
   -4.8536    3.0880    1.9362 C   0  0  0  0  0  0  0  0  0  0  0  0
   -4.9531    2.8562    0.5296 C   0  0  0  0  0  0  0  0  0  0  0  0
   -6.0986    2.4993   -0.0146 C   0  0  0  0  0  0  0  0  0  0  0  0
   -7.1918    2.7072    0.7889 C   0  0  0  0  0  0  0  0  0  0  0  0
   -8.5095    2.6742    0.1006 C   0  0  0  0  0  0  0  0  0  0  0  0
   -8.6035    3.7246   -0.9762 C   0  0  0  0  0  0  0  0  0  0  0  0
   -7.7723    3.6593   -2.1015 C   0  0  0  0  0  0  0  0  0  0  0  0
   -7.7995    4.6119   -3.0921 C   0  0  0  0  0  0  0  0  0  0  0  0
   -8.5495    5.7422   -2.8807 C   0  0  0  0  0  0  0  0  0  0  0  0
   -8.6012    6.6689   -3.8417 F   0  0  0  0  0  0  0  0  0  0  0  0
   -9.2958    5.8949   -1.7177 C   0  0  0  0  0  0  0  0  0  0  0  0
   -9.4648    4.8093   -0.8618 C   0  0  0  0  0  0  0  0  0  0  0  0
   -7.0209    2.9951    2.1644 C   0  0  0  0  0  0  0  0  0  0  0  0
   -8.1374    3.2434    3.1041 C   0  0  0  0  0  0  0  0  0  0  0  0
   -8.1864    2.2406    4.1103 O   0  0  0  0  0  0  0  0  0  0  0  0
   -5.8447    3.1004    2.7759 N   0  0  0  0  0  0  0  0  0  0  0  0
   -0.3672    2.7850   -1.9878 C   0  0  1  0  0  0  0  0  0  0  0  0
   -0.9615    4.0301   -1.2194 C   0  0  0  0  0  0  0  0  0  0  0  0
   -0.8948    3.8379    0.2529 N   0  0  0  0  0  0  0  0  0  0  0  0
    0.4282    4.2927    1.2109 C   0  0  0  0  0  0  0  0  0  0  0  0
    2.2531    3.5344    1.0479 C   0  0  0  0  0  0  0  0  0  0  0  0
    2.4412    1.7047    0.2767 O   0  0  0  0  0  0  0  0  0  0  0  0
    0.8169    1.2010   -0.8032 C   0  0  0  0  0  0  0  0  0  0  0  0
   -0.8587    2.1646    0.2295 C   0  0  1  0  0  0  0  0  0  0  0  0
   -1.0238    1.5526    2.0265 C   0  0  0  0  0  0  0  0  0  0  0  0
    1.0548    3.0629   -1.4096 C   0  0  0  0  0  0  0  0  0  0  0  0
    0.8709    2.5338    0.3870 N   0  0  0  0  0  0  0  0  0  0  0  0
  2  1  1  6
  2  3  1  0
  2 39  1  0
  3  4  1  0
  4  5  1  0
  5  6  1  0
  6  7  2  0
  6  8  1  0
  8  9  1  0
  8 14  1  0
  9 10  1  0
 10 11  1  0
 10 12  1  0
 10 13  1  0
 13 14  2  0
 13 28  1  0
 14 15  1  0
 15 16  2  0
 16 17  1  0
 16 25  1  0
 17 18  1  0
 18 19  2  0
 18 24  1  0
 19 20  1  0
 20 21  2  0
 21 22  1  0
 21 23  1  0
 23 24  2  0
 25 26  1  0
 25 28  2  0
 26 27  1  0
 29  4  1  0
 29 38  1  0
 29 30  1  1
 30 31  1  0
 31 32  1  0
 32 33  1  0
 33 34  1  0
 34 35  1  0
 36 35  1  0
 36 31  1  0
 36 37  1  1
 38 39  1  0
M  END
>  <DRUGBANK_ID>  (1) 
DB16160

>  <COMMON_NAME>  (1) 
Tolinapant

>  <CAS_NUMBER>  (1) 
1799328-86-1

>  <UNII>  (1) 
2LHZ9ZC3YO

$$$$
