
     RDKit          3D

 33 35  0  0  0  0  0  0  0  0999 V2000
    3.2709   -4.8950    4.9027 C   0  0  0  0  0  0  0  0  0  0  0  0
    2.5930   -6.1132    5.0030 C   0  0  0  0  0  0  0  0  0  0  0  0
    1.7820   -6.5599    3.9624 C   0  0  0  0  0  0  0  0  0  0  0  0
    1.6860   -5.8030    2.8054 C   0  0  0  0  0  0  0  0  0  0  0  0
    3.1561   -4.1447    3.7420 C   0  0  0  0  0  0  0  0  0  0  0  0
    2.4075   -4.6046    2.6812 C   0  0  0  0  0  0  0  0  0  0  0  0
    2.4205   -3.8600    1.4392 C   0  0  0  0  0  0  0  0  0  0  0  0
    3.0143   -2.6444    1.3460 C   0  0  0  0  0  0  0  0  0  0  0  0
    3.7418   -2.1071    2.5421 C   0  0  0  0  0  0  0  0  0  0  0  0
    3.8217   -2.9158    3.6715 O   0  0  0  0  0  0  0  0  0  0  0  0
    4.2897   -1.0081    2.5288 O   0  0  0  0  0  0  0  0  0  0  0  0
    1.7606   -4.5767    0.4710 O   0  0  0  0  0  0  0  0  0  0  0  0
    3.0417   -1.7044    0.1238 C   0  0  1  0  0  0  0  0  0  0  0  0
    3.2596   -2.5179   -1.1961 C   0  0  0  0  0  0  0  0  0  0  0  0
    3.2910   -1.6901   -2.4608 C   0  0  0  0  0  0  0  0  0  0  0  0
    1.7296   -0.9021    0.0581 C   0  0  0  0  0  0  0  0  0  0  0  0
    0.2540    1.0493   -0.0545 C   0  0  0  0  0  0  0  0  0  0  0  0
    1.5577    0.5040    0.1219 C   0  0  0  0  0  0  0  0  0  0  0  0
    0.5854   -1.6816   -0.1469 C   0  0  0  0  0  0  0  0  0  0  0  0
   -0.6414   -1.1759   -0.4293 C   0  0  0  0  0  0  0  0  0  0  0  0
   -0.8052    0.1710   -0.3160 C   0  0  0  0  0  0  0  0  0  0  0  0
   -0.0249    2.4519    0.0012 N   0  0  0  0  0  0  0  0  0  0  0  0
   -1.3046    2.9995   -0.2070 C   0  0  0  0  0  0  0  0  0  0  0  0
   -2.3251    2.3763   -0.5042 O   0  0  0  0  0  0  0  0  0  0  0  0
   -1.4412    4.5134   -0.1186 C   0  0  0  0  0  0  0  0  0  0  0  0
   -2.0476    4.9989   -1.3527 N   0  0  0  0  0  0  0  0  0  0  0  0
   -3.3194    5.5259   -1.4338 C   0  0  0  0  0  0  0  0  0  0  0  0
   -4.0105    5.7290   -0.4532 O   0  0  0  0  0  0  0  0  0  0  0  0
   -3.7722    5.8708   -2.6873 O   0  0  0  0  0  0  0  0  0  0  0  0
   -3.0772    5.7014   -3.9534 C   0  0  0  0  0  0  0  0  0  0  0  0
   -1.7772    6.5153   -3.9543 C   0  0  0  0  0  0  0  0  0  0  0  0
   -2.9066    4.2061   -4.2427 C   0  0  0  0  0  0  0  0  0  0  0  0
   -3.9530    6.2755   -5.0931 C   0  0  0  0  0  0  0  0  0  0  0  0
  1  2  2  0
  1  5  1  0
  2  3  1  0
  3  4  2  0
  4  6  1  0
  5 10  1  0
  5  6  2  0
  6  7  1  0
  7  8  2  0
  7 12  1  0
  8  9  1  0
  9 10  1  0
  9 11  2  0
 13 14  1  6
 13 16  1  0
 13  8  1  0
 14 15  1  0
 16 18  1  0
 16 19  2  0
 17 18  2  0
 17 21  1  0
 17 22  1  0
 19 20  1  0
 20 21  2  0
 22 23  1  0
 23 25  1  0
 23 24  2  0
 25 26  1  0
 26 27  1  0
 27 29  1  0
 27 28  2  0
 29 30  1  0
 30 31  1  0
 30 32  1  0
 30 33  1  0
M  END
>  <DRUGBANK_ID>  (1) 
DB08664

>  <COMMON_NAME>  (1) 
({3-[1-(4-Hydroxy-2-oxo-2H-chromen-3-yl)-propyl]-phenylcarbamoyl}-methyl)-carbamic acid tert-butyl ester

>  <SYNONYMS>  (1) 
tert-butyl N-[({3-[(1S)-1-(4-hydroxy-2-oxo-2H-chromen-3-yl)propyl]phenyl}carbamoyl)methyl]carbamate

$$$$
