
     RDKit          3D

 16 15  0  0  1  0  0  0  0  0999 V2000
    1.0813   -1.9376   -1.1103 C   0  0  0  0  0  0  0  0  0  0  0  0
    0.9462    0.0801    0.0520 C   0  0  0  0  0  0  0  0  0  0  0  0
    0.9396   -0.8164    1.3813 C   0  0  0  0  0  0  0  0  0  0  0  0
   -1.1550   -0.8926   -1.0600 C   0  0  0  0  0  0  0  0  0  0  0  0
    0.3687   -0.6576   -1.1864 C   0  0  2  0  0  0  0  0  0  0  0  0
   -2.1361    0.6870   -1.5898 Br  0  0  0  0  0  0  0  0  0  0  0  0
    0.7568   -0.2641   -2.4866 O   0  0  0  0  0  0  0  0  0  0  0  0
   -0.4383   -4.7780   -2.1512 O   0  0  0  0  0  0  0  0  0  0  0  0
   -0.4158   -5.8888    0.0092 O   0  0  0  0  0  0  0  0  0  0  0  0
   -2.2238   -4.5229   -0.6330 O   0  0  0  0  0  0  0  0  0  0  0  0
    3.0893   -3.9632    0.9690 O   0  0  0  0  0  0  0  0  0  0  0  0
    0.7953   -4.2624    2.1730 O   0  0  0  0  0  0  0  0  0  0  0  0
    1.7767   -1.9988    1.2847 O   0  0  0  0  0  0  0  0  0  0  0  0
    1.0394   -4.2289   -0.5208 O   0  0  0  0  0  0  0  0  0  0  0  0
   -0.6826   -4.3841   -0.5800 P   0  0  0  0  0  0  0  0  0  0  0  0
    1.5071   -3.6240    1.0670 P   0  0  1  0  0  0  0  0  0  0  0  0
  3  2  1  0
  5  4  1  0
  5  7  1  0
  5  2  1  0
  5  1  1  1
  6  4  1  0
 13  3  1  0
 15  8  1  0
 15  9  1  0
 15 10  2  0
 15 14  1  0
 16 11  1  1
 16 12  2  0
 16 13  1  0
 16 14  1  0
M  END
>  <DRUGBANK_ID>  (1) 
DB02480

>  <SECONDARY_ACCESSION_NUMBERS>  (1) 
EXPT02854

>  <COMMON_NAME>  (1) 
(S)-4-bromo-3-hydroxy-3-methylbutyl diphosphate

$$$$
