
     RDKit          3D

 32 34  0  0  0  0  0  0  0  0999 V2000
   10.9880   -0.4585    5.4447 C   0  0  0  0  0  0  0  0  0  0  0  0
    9.7745    0.3085    4.9224 C   0  0  0  0  0  0  0  0  0  0  0  0
   12.2115   -0.0623    4.6994 C   0  0  0  0  0  0  0  0  0  0  0  0
   13.2978   -0.7204    5.1336 O   0  0  0  0  0  0  0  0  0  0  0  0
   12.2927    0.7785    3.8078 O   0  0  0  0  0  0  0  0  0  0  0  0
    8.5134   -0.0518    5.6483 C   0  0  0  0  0  0  0  0  0  0  0  0
    8.5861   -0.2237    7.0246 C   0  0  0  0  0  0  0  0  0  0  0  0
    7.4365   -0.2144    7.7518 C   0  0  0  0  0  0  0  0  0  0  0  0
    6.2013   -0.0890    7.1288 C   0  0  0  0  0  0  0  0  0  0  0  0
    6.0816   -0.1937    5.7464 C   0  0  0  0  0  0  0  0  0  0  0  0
    7.2590   -0.0806    5.0026 C   0  0  0  0  0  0  0  0  0  0  0  0
    4.9230   -0.3780    5.0400 O   0  0  0  0  0  0  0  0  0  0  0  0
    3.7516   -0.9025    5.7070 C   0  0  0  0  0  0  0  0  0  0  0  0
    3.8774   -2.3839    6.1883 C   0  0  1  0  0  0  0  0  0  0  0  0
    4.4298   -2.4331    7.6122 C   0  0  0  0  0  0  0  0  0  0  0  0
    4.6590   -3.6911    8.3036 N   0  0  0  0  0  0  0  0  0  0  0  0
    2.5999   -3.0291    6.1632 O   0  0  0  0  0  0  0  0  0  0  0  0
    5.1932   -3.4572    9.6744 C   0  0  0  0  0  0  0  0  0  0  0  0
    4.1304   -2.7612   10.5754 C   0  0  0  0  0  0  0  0  0  0  0  0
    5.7250   -4.7959   10.1834 C   0  0  0  0  0  0  0  0  0  0  0  0
    6.4216   -2.5520    9.7335 C   0  0  0  0  0  0  0  0  0  0  0  0
    2.7966   -3.4878   10.5943 C   0  0  0  0  0  0  0  0  0  0  0  0
    1.8017   -2.8865   11.5961 C   0  0  0  0  0  0  0  0  0  0  0  0
    2.9565   -4.9614   10.9740 C   0  0  0  0  0  0  0  0  0  0  0  0
    1.6563   -5.2716   11.5820 C   0  0  0  0  0  0  0  0  0  0  0  0
    0.9919   -4.0992   11.9344 C   0  0  0  0  0  0  0  0  0  0  0  0
   -0.2433   -4.1793   12.5259 C   0  0  0  0  0  0  0  0  0  0  0  0
   -0.7932   -5.4508   12.7320 C   0  0  0  0  0  0  0  0  0  0  0  0
   -0.1038   -6.6219   12.3700 C   0  0  0  0  0  0  0  0  0  0  0  0
    1.1512   -6.5378   11.7966 C   0  0  0  0  0  0  0  0  0  0  0  0
    5.1188    0.0556    7.9050 F   0  0  0  0  0  0  0  0  0  0  0  0
    7.5756   -0.2869    9.0793 F   0  0  0  0  0  0  0  0  0  0  0  0
  1  3  1  0
  1  2  1  0
  2  6  1  0
  3  5  2  0
  3  4  1  0
  6  7  2  0
  7  8  1  0
  8  9  2  0
  8 32  1  0
  9 10  1  0
  9 31  1  0
 10 11  2  0
 10 12  1  0
 11  6  1  0
 12 13  1  0
 14 15  1  0
 14 13  1  0
 14 17  1  1
 15 16  1  0
 16 18  1  0
 18 19  1  0
 18 20  1  0
 18 21  1  0
 19 22  1  0
 22 23  1  0
 23 26  1  0
 24 22  1  0
 25 24  1  0
 25 26  2  0
 26 27  1  0
 27 28  2  0
 28 29  1  0
 29 30  2  0
 30 25  1  0
M  END
>  <DRUGBANK_ID>  (1) 
DB05255

>  <COMMON_NAME>  (1) 
Ronacaleret

>  <CAS_NUMBER>  (1) 
753449-67-1

>  <UNII>  (1) 
DIH95YP7J3

>  <SYNONYMS>  (1) 
Ronacaleret

$$$$
