
     RDKit          3D

 21 23  0  0  0  0  0  0  0  0999 V2000
    3.6953    1.0892    0.0236 C   0  0  0  0  0  0  0  0  0  0  0  0
    2.4762    1.7630    0.0275 C   0  0  0  0  0  0  0  0  0  0  0  0
    3.7163   -0.3033    0.0039 C   0  0  0  0  0  0  0  0  0  0  0  0
   -2.4815    1.7850   -0.0387 C   0  0  0  0  0  0  0  0  0  0  0  0
   -3.7208   -0.2873   -0.0113 C   0  0  0  0  0  0  0  0  0  0  0  0
   -3.7080    1.1113   -0.0432 C   0  0  0  0  0  0  0  0  0  0  0  0
    1.2715    1.0422    0.0077 C   0  0  0  0  0  0  0  0  0  0  0  0
   -1.2773    1.0598   -0.0161 C   0  0  0  0  0  0  0  0  0  0  0  0
    2.5163   -1.0211   -0.0119 C   0  0  0  0  0  0  0  0  0  0  0  0
   -2.5212   -1.0005    0.0160 C   0  0  0  0  0  0  0  0  0  0  0  0
    1.2792   -0.3556   -0.0077 C   0  0  0  0  0  0  0  0  0  0  0  0
   -1.2871   -0.3334   -0.0007 C   0  0  0  0  0  0  0  0  0  0  0  0
    0.0004    1.7929    0.0052 C   0  0  0  0  0  0  0  0  0  0  0  0
   -0.0149   -1.0880   -0.0052 C   0  0  0  0  0  0  0  0  0  0  0  0
   -5.0058    1.8324   -0.0751 C   0  0  0  0  0  0  0  0  0  0  0  0
    2.5764   -2.3853   -0.0297 O   0  0  0  0  0  0  0  0  0  0  0  0
   -2.6376   -2.3649    0.0678 O   0  0  0  0  0  0  0  0  0  0  0  0
    0.0040    3.0182    0.0256 O   0  0  0  0  0  0  0  0  0  0  0  0
   -0.0875   -2.3130   -0.0049 O   0  0  0  0  0  0  0  0  0  0  0  0
   -6.1068    1.3125   -0.0801 O   0  0  0  0  0  0  0  0  0  0  0  0
   -4.8590    3.1685   -0.1008 O   0  0  0  0  0  0  0  0  0  0  0  0
  2  1  2  0
  3  1  1  0
  6  4  1  0
  6  5  2  0
  7  2  1  0
  8  4  2  0
  9  3  2  0
 10  5  1  0
 11  7  2  0
 11  9  1  0
 12  8  1  0
 12 10  2  0
 13  7  1  0
 13  8  1  0
 14 11  1  0
 14 12  1  0
 15  6  1  0
 16  9  1  0
 17 10  1  0
 18 13  2  0
 19 14  2  0
 20 15  2  0
 21 15  1  0
M  END
>  <DRUGBANK_ID>  (1) 
DB13174

>  <COMMON_NAME>  (1) 
Rhein

>  <CAS_NUMBER>  (1) 
478-43-3

>  <UNII>  (1) 
YM64C2P6UX

$$$$
