
     RDKit          3D

 16 19  0  0  0  0  0  0  0  0999 V2000
    0.7487    0.4906   -0.3447 C   0  0  0  0  0  0  0  0  0  0  0  0
    0.8208   -0.7308    0.2441 C   0  0  0  0  0  0  0  0  0  0  0  0
   -0.4157   -1.3996    0.1709 C   0  0  0  0  0  0  0  0  0  0  0  0
   -0.3229    1.3482   -0.2286 C   0  0  0  0  0  0  0  0  0  0  0  0
   -1.5534    0.7395    0.0145 C   0  0  0  0  0  0  0  0  0  0  0  0
   -1.5962   -0.6842    0.0807 C   0  0  0  0  0  0  0  0  0  0  0  0
   -2.7406   -1.3821    0.1147 N   0  0  0  0  0  0  0  0  0  0  0  0
   -3.8614   -0.6517    0.2148 C   0  0  0  0  0  0  0  0  0  0  0  0
   -3.8374    0.7299    0.2261 C   0  0  0  0  0  0  0  0  0  0  0  0
   -2.6962    1.4520    0.1022 N   0  0  0  0  0  0  0  0  0  0  0  0
    3.4062   -1.3813    1.0581 C   0  0  0  0  0  0  0  0  0  0  0  0
    4.1122   -0.1002    0.8012 N   0  0  0  0  0  0  0  0  0  0  0  0
    3.0586    0.8661    0.3809 C   0  0  0  0  0  0  0  0  0  0  0  0
    2.5165   -1.3278   -0.0212 C   0  0  0  0  0  0  0  0  0  0  0  0
    2.0241    0.2251   -0.9814 C   0  0  0  0  0  0  0  0  0  0  0  0
    1.7921   -1.7249   -1.1875 C   0  0  0  0  0  0  0  0  0  0  0  0
  1  2  1  0
  2  3  2  0
  3  6  1  0
  4  1  2  0
  5  6  2  0
  5  4  1  0
  6  7  1  0
  7  8  2  0
  8  9  1  0
  9 10  2  0
 10  5  1  0
 11 14  1  0
 11 12  1  0
 12 13  1  0
 13 15  1  0
 14  2  1  0
 15  1  1  0
 15 16  1  0
 16 14  1  0
M  END
>  <DRUGBANK_ID>  (1) 
DB01273

>  <COMMON_NAME>  (1) 
Varenicline

>  <CAS_NUMBER>  (1) 
249296-44-4

>  <UNII>  (1) 
W6HS99O8ZO

>  <SYNONYMS>  (1) 
Vareniclina; Varenicline; Vareniclinum

$$$$
