
     RDKit          3D

  4  3  0  0  0  0  0  0  0  0999 V2000
    1.0611    0.0916   -0.0423 Cl  0  0  0  0  0  0  0  0  0  0  0  0
    2.5050    0.0696   -0.0345 O   0  0  0  0  0  0  0  0  0  0  0  0
    0.2999   -1.0659    0.3688 O   0  0  0  0  0  0  0  0  0  0  0  0
    0.2475    1.4034   -0.5082 O   0  0  0  0  0  0  0  0  0  0  0  0
  1  3  1  0
  1  4  1  0
  1  2  1  0
M  CHG  3   1   2   2  -1   3  -1
M  END
>  <DRUGBANK_ID>  (1) 
DB14150

>  <COMMON_NAME>  (1) 
Chloric acid

>  <CAS_NUMBER>  (1) 
7790-93-4

>  <UNII>  (1) 
Z0V9L75H3K

>  <SYNONYMS>  (1) 
Chlorate; Chlors√§ure

$$$$
