
     RDKit          3D

 20 21  0  0  1  0  0  0  0  0999 V2000
    0.2320   -7.8788    1.3023 C   0  0  0  0  0  0  0  0  0  0  0  0
   -0.0989   -7.3585   -1.2418 C   0  0  0  0  0  0  0  0  0  0  0  0
   -4.1621   -5.5498    0.9112 C   0  0  0  0  0  0  0  0  0  0  0  0
   -2.2253   -3.5378    4.2683 C   0  0  0  0  0  0  0  0  0  0  0  0
    1.7809   -7.9846   -2.0142 C   0  0  0  0  0  0  0  0  0  0  0  0
    0.6079   -7.8007   -0.1422 C   0  0  0  0  0  0  0  0  0  0  0  0
   -2.3351   -4.9751    3.7201 C   0  0  1  0  0  0  0  0  0  0  0  0
   -0.8218   -6.8570    1.6336 C   0  0  0  0  0  0  0  0  0  0  0  0
   -4.2193   -5.7189   -0.6098 C   0  0  0  0  0  0  0  0  0  0  0  0
   -1.9710   -5.0249    2.1757 C   0  0  1  0  0  0  0  0  0  0  0  0
   -2.2869   -7.1445    1.3837 C   0  0  0  0  0  0  0  0  0  0  0  0
   -1.4679   -5.8582    4.5606 N   0  0  0  0  0  0  0  0  0  0  0  0
    0.6347   -7.4689   -2.3880 N   0  0  0  0  0  0  0  0  0  0  0  0
    1.8139   -8.2156   -0.6652 N   0  0  0  0  0  0  0  0  0  0  0  0
   -0.6010   -5.6372    2.0443 N   0  0  0  0  0  0  0  0  0  0  0  0
   -2.8448   -5.9075    1.4353 N   0  0  0  0  0  0  0  0  0  0  0  0
   -0.8847   -3.2286    4.6463 O   0  0  0  0  0  0  0  0  0  0  0  0
   -5.0495   -6.3628   -1.2317 O   0  0  0  0  0  0  0  0  0  0  0  0
   -3.2823   -4.9988   -1.2650 O   0  0  0  0  0  0  0  0  0  0  0  0
   -2.7654   -8.2281    1.1407 O   0  0  0  0  0  0  0  0  0  0  0  0
  6  1  1  0
  6  2  2  0
  7 12  1  1
  7  4  1  0
  8  1  1  0
  9  3  1  0
 10  7  1  0
 11  8  1  0
 13  2  1  0
 13  5  2  0
 14  5  1  0
 14  6  1  0
 15  8  2  0
 10 15  1  1
 16  3  1  0
 16 10  1  0
 16 11  1  0
 17  4  1  0
 18  9  2  0
 19  9  1  0
 20 11  2  0
M  END
>  <DRUGBANK_ID>  (1) 
DB02356

>  <SECONDARY_ACCESSION_NUMBERS>  (1) 
EXPT01855

>  <COMMON_NAME>  (1) 
4-Imidazolmethylene-5-Imidazolone Chromophore

$$$$
