
     RDKit          3D

 27 29  0  0  0  0  0  0  0  0999 V2000
    1.0659    0.0723    0.0909 C   0  0  0  0  0  0  0  0  0  0  0  0
    0.4235   -0.9863    0.0888 O   0  0  0  0  0  0  0  0  0  0  0  0
    0.3027    1.4131    0.0726 C   0  0  0  0  0  0  0  0  0  0  0  0
   -0.5598    1.5342   -1.1307 N   0  0  0  0  0  0  0  0  0  0  0  0
   -1.3057    2.7905   -1.0818 C   0  0  0  0  0  0  0  0  0  0  0  0
    0.2395    1.4889   -2.3534 C   0  0  0  0  0  0  0  0  0  0  0  0
    4.2847   -1.3451   -0.9569 C   0  0  0  0  0  0  0  0  0  0  0  0
    3.2441   -1.0829   -0.0603 C   0  0  0  0  0  0  0  0  0  0  0  0
    2.9475   -2.0364    0.9144 C   0  0  0  0  0  0  0  0  0  0  0  0
    3.6074   -3.2516    1.0540 C   0  0  0  0  0  0  0  0  0  0  0  0
    4.6387   -3.5201    0.1563 C   0  0  0  0  0  0  0  0  0  0  0  0
    4.9722   -2.5753   -0.8332 C   0  0  0  0  0  0  0  0  0  0  0  0
    4.7010    3.6758    0.0621 C   0  0  0  0  0  0  0  0  0  0  0  0
    4.0561    3.2503    1.2238 C   0  0  0  0  0  0  0  0  0  0  0  0
    3.3142    2.0684    1.2151 C   0  0  0  0  0  0  0  0  0  0  0  0
    3.2300    1.3104    0.0385 C   0  0  0  0  0  0  0  0  0  0  0  0
    3.9025    1.7189   -1.1170 C   0  0  0  0  0  0  0  0  0  0  0  0
    4.6259    2.9134   -1.1046 C   0  0  0  0  0  0  0  0  0  0  0  0
    3.8631    0.8278   -2.3261 C   0  0  0  0  0  0  0  0  0  0  0  0
    2.4710    0.1203   -0.0077 N   0  0  0  0  0  0  0  0  0  0  0  0
    4.7007   -0.4276   -2.0873 C   0  0  0  0  0  0  0  0  0  0  0  0
    3.2729   -4.1822    2.0674 N   0  0  0  0  0  0  0  0  0  0  0  0
    2.3103   -4.0916    3.0568 C   0  0  0  0  0  0  0  0  0  0  0  0
    2.1596   -4.9863    3.8852 O   0  0  0  0  0  0  0  0  0  0  0  0
    1.5817   -2.9575    3.0298 O   0  0  0  0  0  0  0  0  0  0  0  0
    0.5199   -2.6842    3.9490 C   0  0  0  0  0  0  0  0  0  0  0  0
   -0.6204   -3.6606    3.7772 C   0  0  0  0  0  0  0  0  0  0  0  0
  1  3  1  0
  1  2  2  0
  3  4  1  0
  4  5  1  0
  4  6  1  0
  7  8  1  0
  7 21  1  0
  8  9  2  0
  9 10  1  0
 10 11  2  0
 10 22  1  0
 11 12  1  0
 12  7  2  0
 13 14  1  0
 14 15  2  0
 15 16  1  0
 16 20  1  0
 16 17  2  0
 17 18  1  0
 17 19  1  0
 18 13  2  0
 19 21  1  0
 20  8  1  0
 20  1  1  0
 22 23  1  0
 23 24  2  0
 23 25  1  0
 25 26  1  0
 26 27  1  0
M  END
>  <DRUGBANK_ID>  (1) 
DB13635

>  <COMMON_NAME>  (1) 
Tiracizine

>  <CAS_NUMBER>  (1) 
83275-56-3

>  <UNII>  (1) 
9UUO2T61K7

>  <SYNONYMS>  (1) 
Tiracizina; Tiracizine; Tiracizinum

$$$$
