
     RDKit          3D

 21 23  0  0  0  0  0  0  0  0999 V2000
    1.1190    0.0922   -0.0708 C   0  0  0  0  0  0  0  0  0  0  0  0
   -0.8463   -0.0365    1.2856 C   0  0  0  0  0  0  0  0  0  0  0  0
    1.1560   -6.9037   -2.4998 C   0  0  0  0  0  0  0  0  0  0  0  0
    4.7328   -4.7967    3.0752 C   0  0  0  0  0  0  0  0  0  0  0  0
    1.9010   -5.7276   -2.4811 C   0  0  0  0  0  0  0  0  0  0  0  0
    0.2292   -7.1570   -1.4921 C   0  0  0  0  0  0  0  0  0  0  0  0
    3.7280   -3.9988    3.6197 C   0  0  0  0  0  0  0  0  0  0  0  0
    4.5140   -5.4372    1.8711 C   0  0  0  0  0  0  0  0  0  0  0  0
    1.7388   -4.8180   -1.4352 C   0  0  0  0  0  0  0  0  0  0  0  0
    0.0709   -6.2550   -0.4416 C   0  0  0  0  0  0  0  0  0  0  0  0
    2.5051   -3.8769    2.9596 C   0  0  0  0  0  0  0  0  0  0  0  0
    3.3226   -5.2413    1.1794 C   0  0  0  0  0  0  0  0  0  0  0  0
   -1.0555   -3.0071    0.7032 C   0  0  0  0  0  0  0  0  0  0  0  0
   -1.2184   -3.9588    1.8525 C   0  0  0  0  0  0  0  0  0  0  0  0
    0.9523   -1.6824    1.5696 C   0  0  0  0  0  0  0  0  0  0  0  0
    0.8728   -5.1052   -0.3553 C   0  0  0  0  0  0  0  0  0  0  0  0
    2.2785   -4.4414    1.6947 C   0  0  0  0  0  0  0  0  0  0  0  0
    0.4561   -2.8108    0.6320 C   0  0  0  0  0  0  0  0  0  0  0  0
    0.9355   -4.2646    0.9570 C   0  0  0  0  0  0  0  0  0  0  0  0
    0.5851   -0.2945    1.2309 N   0  0  0  0  0  0  0  0  0  0  0  0
   -0.0700   -4.7965    1.8678 O   0  0  0  0  0  0  0  0  0  0  0  0
  5  3  2  0
  6  3  1  0
  7  4  2  0
  8  4  1  0
  9  5  1  0
 10  6  2  0
 11  7  1  0
 12  8  2  0
 14 13  1  0
 16  9  2  0
 16 10  1  0
 17 11  2  0
 17 12  1  0
 18 13  1  0
 18 15  1  0
 19 16  1  0
 19 17  1  0
 19 18  1  0
 20  1  1  0
 20  2  1  0
 20 15  1  0
 21 14  1  0
 21 19  1  0
M  END
>  <DRUGBANK_ID>  (1) 
DB05592

>  <COMMON_NAME>  (1) 
Blarcamesine

>  <CAS_NUMBER>  (1) 
195615-83-9

>  <UNII>  (1) 
9T210MMZ3F

>  <SYNONYMS>  (1) 
Anavex 2-73; ANAVEX 2-73 FREE BASE; ANAVEX2-73; ANAVEX2-73 free base; Blarcamesine; Tetrahydro-N,N-dimethyl-2,2-diphenyl-3-furanemethanamine; THD-DP-FM

$$$$
