
     RDKit          3D

 15 16  0  0  0  0  0  0  0  0999 V2000
    1.0253   -0.1469    0.1163 N   0  0  0  0  0  0  0  0  0  0  0  0
   -0.7980   -1.5488   -0.8011 N   0  0  0  0  0  0  0  0  0  0  0  0
   -1.1636   -3.8272   -0.0285 N   0  0  0  0  0  0  0  0  0  0  0  0
   -1.3408   -0.7087   -1.7308 N   0  0  0  0  0  0  0  0  0  0  0  0
   -2.4874   -2.6831   -1.6949 N   0  0  0  0  0  0  0  0  0  0  0  0
    0.2780   -1.3451    0.1058 C   0  0  0  0  0  0  0  0  0  0  0  0
    0.3503    1.1681    0.0670 C   0  0  0  0  0  0  0  0  0  0  0  0
    2.5083   -0.1005    0.0449 C   0  0  0  0  0  0  0  0  0  0  0  0
    0.5381   -2.3420    0.9673 C   0  0  0  0  0  0  0  0  0  0  0  0
   -1.5042   -2.7688   -0.8225 C   0  0  0  0  0  0  0  0  0  0  0  0
   -0.1939   -3.6216    0.8127 C   0  0  0  0  0  0  0  0  0  0  0  0
    0.6799    1.9832    1.3118 C   0  0  0  0  0  0  0  0  0  0  0  0
    3.2023   -1.4548   -0.0617 C   0  0  0  0  0  0  0  0  0  0  0  0
    0.2532   -4.7470    1.7107 C   0  0  0  0  0  0  0  0  0  0  0  0
   -2.3546   -1.4309   -2.2021 C   0  0  0  0  0  0  0  0  0  0  0  0
  1  6  1  0
  1  7  1  0
  1  8  1  0
  2  4  1  0
  2  6  1  0
  2 10  1  0
  3 10  1  0
  3 11  2  0
  4 15  2  0
  5 10  2  0
  5 15  1  0
  6  9  2  0
  7 12  1  0
  8 13  1  0
  9 11  1  0
 11 14  1  0
M  END
>  <DRUGBANK_ID>  (1) 
DB09283

>  <COMMON_NAME>  (1) 
Trapidil

>  <CAS_NUMBER>  (1) 
15421-84-8

>  <UNII>  (1) 
EYG5Y6355E

>  <SYNONYMS>  (1) 
Trapidil

$$$$
