
     RDKit          3D

 34 37  0  0  0  0  0  0  0  0999 V2000
    0.9475    0.1190   -0.1087 C   0  0  0  0  0  0  0  0  0  0  0  0
    0.4820   -0.3134    1.2586 C   0  0  0  0  0  0  0  0  0  0  0  0
   -0.0537    0.6298    2.1369 C   0  0  0  0  0  0  0  0  0  0  0  0
   -0.4456    0.3005    3.4415 C   0  0  0  0  0  0  0  0  0  0  0  0
   -1.1034    1.2312    4.2155 N   0  0  0  0  0  0  0  0  0  0  0  0
   -0.3822   -1.0408    3.8457 C   0  0  0  0  0  0  0  0  0  0  0  0
   -0.8461   -1.5086    5.1414 C   0  0  0  0  0  0  0  0  0  0  0  0
   -0.9497   -2.8679    5.4663 C   0  0  0  0  0  0  0  0  0  0  0  0
   -0.4655   -3.7561    4.5852 C   0  0  0  0  0  0  0  0  0  0  0  0
   -0.1027   -3.2508    3.3395 C   0  0  0  0  0  0  0  0  0  0  0  0
    0.0593   -1.9379    2.9189 C   0  0  0  0  0  0  0  0  0  0  0  0
    0.5786   -1.6102    1.6659 N   0  0  0  0  0  0  0  0  0  0  0  0
    1.2011   -2.6170    0.7069 C   0  0  0  0  0  0  0  0  0  0  0  0
    2.5581   -3.1580    1.1689 C   0  0  0  0  0  0  0  0  0  0  0  0
    2.4257   -4.0942    2.3486 C   0  0  0  0  0  0  0  0  0  0  0  0
    1.4354   -5.2511    1.9784 C   0  0  0  0  0  0  0  0  0  0  0  0
    1.9738   -6.1610    0.9208 C   0  0  0  0  0  0  0  0  0  0  0  0
    3.2134   -6.7495    1.4977 C   0  0  0  0  0  0  0  0  0  0  0  0
    2.8034   -7.4304    2.7861 C   0  0  0  0  0  0  0  0  0  0  0  0
    1.7342   -8.5381    2.5293 C   0  0  0  0  0  0  0  0  0  0  0  0
    2.3907   -9.6164    1.7209 C   0  0  0  0  0  0  0  0  0  0  0  0
    3.6760  -10.0595    2.4205 C   0  0  0  0  0  0  0  0  0  0  0  0
    3.4500  -10.7609    3.7406 N   0  0  0  0  0  0  0  0  0  0  0  0
    3.0442  -10.1259    4.9150 C   0  0  0  0  0  0  0  0  0  0  0  0
    2.8159   -8.6587    5.2323 C   0  0  0  0  0  0  0  0  0  0  0  0
    2.8545  -10.8526    6.0812 C   0  0  0  0  0  0  0  0  0  0  0  0
    3.1717  -12.1740    6.1779 C   0  0  0  0  0  0  0  0  0  0  0  0
    2.8663  -12.7901    7.3807 N   0  0  0  0  0  0  0  0  0  0  0  0
    3.5643  -12.8239    5.0107 C   0  0  0  0  0  0  0  0  0  0  0  0
    3.7133  -12.1195    3.7789 C   0  0  0  0  0  0  0  0  0  0  0  0
    4.1301  -12.8701    2.6523 C   0  0  0  0  0  0  0  0  0  0  0  0
    4.1958  -14.2592    2.6833 C   0  0  0  0  0  0  0  0  0  0  0  0
    3.9533  -14.9259    3.8646 C   0  0  0  0  0  0  0  0  0  0  0  0
    3.7786  -14.2049    5.0343 C   0  0  0  0  0  0  0  0  0  0  0  0
  1  2  1  0
  2  3  2  0
  2 12  1  0
  3  4  1  0
  4  5  1  0
  4  6  2  0
  6  7  1  0
  6 11  1  0
  7  8  2  0
  8  9  1  0
  9 10  2  0
 10 11  1  0
 11 12  2  0
 12 13  1  0
 13 14  1  0
 14 15  1  0
 15 16  1  0
 16 17  1  0
 17 18  1  0
 18 19  1  0
 19 20  1  0
 20 21  1  0
 21 22  1  0
 22 23  1  0
 23 24  2  0
 23 30  1  0
 24 25  1  0
 24 26  1  0
 26 27  2  0
 27 28  1  0
 27 29  1  0
 29 30  2  0
 29 34  1  0
 30 31  1  0
 31 32  2  0
 32 33  1  0
 33 34  2  0
M  CHG  2  12   1  23   1
M  END
>  <DRUGBANK_ID>  (1) 
DB04209

>  <SECONDARY_ACCESSION_NUMBERS>  (1) 
EXPT01162; DB11615

>  <COMMON_NAME>  (1) 
Dequalinium

>  <CAS_NUMBER>  (1) 
6707-58-0

>  <UNII>  (1) 
E7QC7V26B8

>  <SYNONYMS>  (1) 
1,1'-(1,10-Decanediyl)bis(4-amino-2-methylquinolinium) dichloride; 1,1'-Decamethylenebis(4-aminoquinaldinium chloride); Decamethylenebis(4-aminoquinaldinium chloride)

$$$$
