TYP
     RDKit          3D

 19 21  0  0  0  0  0  0  0  0999 V2000
    0.7045    1.8535   -0.0207 N   0  0  0  0  0  0  0  0  0  0  0  0
   -0.6255    1.8683    0.6039 C   0  0  2  0  0  0  0  0  0  0  0  0
   -1.4064    0.6646    0.0144 C   0  0  0  0  0  0  0  0  0  0  0  0
   -2.5509    0.6902   -0.4248 O   0  0  0  0  0  0  0  0  0  0  0  0
   -1.3415    3.1980    0.4039 C   0  0  0  0  0  0  0  0  0  0  0  0
   -2.7013    3.2199    1.0589 C   0  0  0  0  0  0  0  0  0  0  0  0
   -2.8547    3.0071    2.4374 C   0  0  0  0  0  0  0  0  0  0  0  0
   -4.1294    2.9572    3.0068 C   0  0  0  0  0  0  0  0  0  0  0  0
   -5.1116    3.3209    0.8276 C   0  0  0  0  0  0  0  0  0  0  0  0
   -3.8422    3.3704    0.2598 C   0  0  0  0  0  0  0  0  0  0  0  0
   -5.2472    3.1276    2.1953 C   0  0  0  0  0  0  0  0  0  0  0  0
   -6.5136    3.1124    2.7000 O   0  0  0  0  0  0  0  0  0  0  0  0
   -0.6716   -0.4983    0.0847 N   0  0  0  0  0  0  0  0  0  0  0  0
    0.7047   -0.5124    0.5662 C   0  0  2  0  0  0  0  0  0  0  0  0
    1.4397    0.6803   -0.0687 C   0  0  0  0  0  0  0  0  0  0  0  0
    2.5942    0.6623   -0.4801 O   0  0  0  0  0  0  0  0  0  0  0  0
    1.2096   -1.8918    0.1807 C   0  0  0  0  0  0  0  0  0  0  0  0
   -0.0674   -2.7372    0.1422 C   0  0  0  0  0  0  0  0  0  0  0  0
   -1.1200   -1.7813   -0.3941 C   0  0  0  0  0  0  0  0  0  0  0  0
  1  2  1  0
  1 15  1  0
  2  3  1  0
  2  5  1  6
  3  4  2  0
  3 13  1  0
  5  6  1  0
  6  7  2  0
  6 10  1  0
  7  8  1  0
  8 11  2  0
  9 10  2  0
  9 11  1  0
 11 12  1  0
 13 14  1  0
 13 19  1  0
 14 15  1  0
 14 17  1  6
 15 16  2  0
 17 18  1  0
 18 19  1  0
M  END
>  <DRUGBANK_ID>  (1) 
DB04520

>  <SECONDARY_ACCESSION_NUMBERS>  (1) 
EXPT03139

>  <COMMON_NAME>  (1) 
(3s,8ar)-3-(4-Hydroxybenzyl)Hexahydropyrrolo[1,2-a]Pyrazine-1,4-Dione

$$$$
