
     RDKit          3D

 12 11  0  0  0  0  0  0  0  0999 V2000
    0.9818    0.0822   -0.0540 C   0  0  0  0  0  0  0  0  0  0  0  0
    0.3718    0.5271   -1.7209 P   0  0  0  0  0  0  0  0  0  0  0  0
    0.6200   -1.3604    0.4317 C   0  0  0  0  0  0  0  0  0  0  0  0
    0.5008    1.0260    0.9543 O   0  0  0  0  0  0  0  0  0  0  0  0
   -1.0975    0.8302   -0.9921 O   0  0  0  0  0  0  0  0  0  0  0  0
    1.1438    2.0136   -1.4985 O   0  0  0  0  0  0  0  0  0  0  0  0
   -0.1443    0.9036   -3.1314 O   0  0  0  0  0  0  0  0  0  0  0  0
    1.7143   -1.8126    1.8274 Cl  0  0  0  0  0  0  0  0  0  0  0  0
   -1.0233   -1.5671    1.1464 Cl  0  0  0  0  0  0  0  0  0  0  0  0
    0.8906   -2.5721   -0.8516 Cl  0  0  0  0  0  0  0  0  0  0  0  0
   -2.1211   -0.0856   -1.3808 C   0  0  0  0  0  0  0  0  0  0  0  0
    2.4034    2.1958   -0.8370 C   0  0  0  0  0  0  0  0  0  0  0  0
  1  2  1  0
  1  3  1  0
  1  4  1  0
  2  5  1  0
  2  6  1  0
  2  7  2  0
  3  8  1  0
  3  9  1  0
  3 10  1  0
  5 11  1  0
  6 12  1  0
M  END
>  <DRUGBANK_ID>  (1) 
DB11473

>  <COMMON_NAME>  (1) 
Metrifonate

>  <CAS_NUMBER>  (1) 
52-68-6

>  <UNII>  (1) 
DBF2DG4G2K

>  <SYNONYMS>  (1) 
(±)-Trichlorfon; 1-Hydroxy-2,2,2-trichloroethylphosphonic acid dimethyl ester; Chlorophos; Methyl chlorophos; Metrifonate; Métrifonate; Metrifonato; Metrifonatum; Trichlorfon

$$$$
