
     RDKit          3D

  9  9  0  0  1  0  0  0  0  0999 V2000
    1.0479   -0.0056   -0.1300 O   0  0  0  0  0  0  0  0  0  0  0  0
    0.5684    0.9220   -1.1070 C   0  0  0  0  0  0  0  0  0  0  0  0
    1.1693    2.3173   -0.8902 C   0  0  2  0  0  0  0  0  0  0  0  0
    0.9658    2.8440    0.4717 N   0  0  0  0  0  0  0  0  0  0  0  0
    1.0073    4.3087    0.3864 C   0  0  0  0  0  0  0  0  0  0  0  0
    1.1001    4.6659   -1.1009 C   0  0  2  0  0  0  0  0  0  0  0  0
    0.3712    5.8376   -1.4320 O   0  0  0  0  0  0  0  0  0  0  0  0
    0.5753    3.3999   -1.7927 C   0  0  1  0  0  0  0  0  0  0  0  0
    1.0050    3.2800   -3.1418 O   0  0  0  0  0  0  0  0  0  0  0  0
  1  2  1  0
  3  2  1  1
  3  4  1  0
  3  8  1  0
  4  5  1  0
  5  6  1  0
  6  7  1  1
  6  8  1  0
  8  9  1  6
M  END
>  <DRUGBANK_ID>  (1) 
DB03411

>  <SECONDARY_ACCESSION_NUMBERS>  (1) 
EXPT01875

>  <COMMON_NAME>  (1) 
2-Hydroxymethyl-Pyrrolidine-3,4-Diol

>  <UNII>  (1) 
Z330X18GMD

$$$$
