
     RDKit          3D

 30 32  0  0  0  0  0  0  0  0999 V2000
    2.5218    0.0214   -0.0175 C   0  0  0  0  0  0  0  0  0  0  0  0
    1.0277    0.0373    0.0080 C   0  0  0  0  0  0  0  0  0  0  0  0
    0.3049    1.2372    0.0050 C   0  0  0  0  0  0  0  0  0  0  0  0
   -1.0928    1.2298    0.0051 C   0  0  0  0  0  0  0  0  0  0  0  0
   -1.7830    0.0160    0.0331 C   0  0  0  0  0  0  0  0  0  0  0  0
   -1.0418   -1.1724    0.1009 C   0  0  0  0  0  0  0  0  0  0  0  0
    0.3423   -1.1716    0.0465 C   0  0  0  0  0  0  0  0  0  0  0  0
   -3.2887   -0.0408   -0.0464 C   0  0  0  0  0  0  0  0  0  0  0  0
   -3.7213   -0.7457   -1.2382 N   0  0  0  0  0  0  0  0  0  0  0  0
   -3.6060   -2.1008   -1.5283 C   0  0  0  0  0  0  0  0  0  0  0  0
   -3.2439   -3.0321   -0.8206 O   0  0  0  0  0  0  0  0  0  0  0  0
   -3.9954   -2.2405   -2.8216 N   0  0  0  0  0  0  0  0  0  0  0  0
   -4.3806   -1.0224   -3.2182 C   0  0  0  0  0  0  0  0  0  0  0  0
   -4.1975   -0.0857   -2.3374 N   0  0  0  0  0  0  0  0  0  0  0  0
   -5.0507   -0.8235   -4.5388 C   0  0  0  0  0  0  0  0  0  0  0  0
   -6.5279   -0.4818   -4.3018 C   0  0  0  0  0  0  0  0  0  0  0  0
   -6.7213    0.9011   -3.6296 C   0  0  0  0  0  0  0  0  0  0  0  0
   -6.7354    2.0752   -4.5613 C   0  0  0  0  0  0  0  0  0  0  0  0
   -6.7640    1.8735   -5.9256 C   0  0  0  0  0  0  0  0  0  0  0  0
   -6.8432    2.9367   -6.7823 C   0  0  0  0  0  0  0  0  0  0  0  0
   -6.8770    4.2495   -6.3416 C   0  0  0  0  0  0  0  0  0  0  0  0
   -6.8032    4.4796   -4.9683 C   0  0  0  0  0  0  0  0  0  0  0  0
   -6.7333    3.3942   -4.0791 C   0  0  0  0  0  0  0  0  0  0  0  0
   -6.9794    5.3260   -7.1788 O   0  0  0  0  0  0  0  0  0  0  0  0
   -7.0740    5.0984   -8.6063 C   0  0  0  0  0  0  0  0  0  0  0  0
   -5.7755    4.4716   -9.1657 C   0  0  0  0  0  0  0  0  0  0  0  0
   -8.3731    4.3462   -8.9817 C   0  0  0  0  0  0  0  0  0  0  0  0
   -7.1890    6.4832   -9.2837 C   0  0  0  0  0  0  0  0  0  0  0  0
   -7.2057    7.5828   -8.7544 O   0  0  0  0  0  0  0  0  0  0  0  0
   -7.2790    6.3977  -10.6364 O   0  0  0  0  0  0  0  0  0  0  0  0
  1  2  1  0
  2  3  2  0
  2  7  1  0
  3  4  1  0
  4  5  2  0
  5  6  1  0
  5  8  1  0
  6  7  2  0
  8  9  1  0
  9 10  1  0
  9 14  1  0
 10 11  2  0
 10 12  1  0
 12 13  1  0
 13 14  2  0
 13 15  1  0
 15 16  1  0
 16 17  1  0
 17 18  1  0
 18 19  2  0
 18 23  1  0
 19 20  1  0
 20 21  2  0
 21 22  1  0
 21 24  1  0
 22 23  2  0
 24 25  1  0
 25 26  1  0
 25 27  1  0
 25 28  1  0
 28 29  2  0
 28 30  1  0
M  END
>  <DRUGBANK_ID>  (1) 
DB12988

>  <SECONDARY_ACCESSION_NUMBERS>  (1) 
DB05627

>  <COMMON_NAME>  (1) 
LY-518674

>  <CAS_NUMBER>  (1) 
425671-29-0

>  <UNII>  (1) 
U8I57RC739

$$$$
