439
     RDKit          3D

 33 34  0  0  1  0  0  0  0  0999 V2000
    2.1798   -0.0179   -0.0057 F   0  0  0  0  0  0  0  0  0  0  0  0
   -3.7512    0.6369   -3.4340 O   0  0  0  0  0  0  0  0  0  0  0  0
   -3.6674   -1.9151    5.6424 O   0  0  0  0  0  0  0  0  0  0  0  0
   -2.0931   -4.7005    2.7964 O   0  0  0  0  0  0  0  0  0  0  0  0
   -6.1274   -6.9011    2.3371 O   0  0  0  0  0  0  0  0  0  0  0  0
   -6.0256   -5.9074    4.3347 O   0  0  0  0  0  0  0  0  0  0  0  0
   -6.2400    0.0666   -0.0586 N   0  0  0  0  0  0  0  0  0  0  0  0
   -5.5344    0.6522   -1.0404 C   0  0  0  0  0  0  0  0  0  0  0  0
   -5.6056   -0.5180    0.9858 C   0  0  0  0  0  0  0  0  0  0  0  0
   -4.1383    0.6710   -1.0281 C   0  0  0  0  0  0  0  0  0  0  0  0
   -4.1985   -0.5865    1.1066 C   0  0  0  0  0  0  0  0  0  0  0  0
   -3.4490    0.0307    0.0488 C   0  0  0  0  0  0  0  0  0  0  0  0
   -6.5936   -1.0504    1.9801 C   0  0  0  0  0  0  0  0  0  0  0  0
   -6.3729    1.2541   -2.1529 C   0  0  0  0  0  0  0  0  0  0  0  0
   -3.4132    1.2884   -2.2063 C   0  0  0  0  0  0  0  0  0  0  0  0
   -1.9609    0.0113    0.0349 C   0  0  0  0  0  0  0  0  0  0  0  0
   -3.4576   -1.2102    2.2624 C   0  0  0  0  0  0  0  0  0  0  0  0
   -3.2201   -2.5482    4.4499 C   0  0  1  0  0  0  0  0  0  0  0  0
   -7.3803    0.0123    2.7184 C   0  0  0  0  0  0  0  0  0  0  0  0
   -7.3588   -2.2700    1.4991 C   0  0  0  0  0  0  0  0  0  0  0  0
   -7.2126    0.1788   -2.8440 C   0  0  0  0  0  0  0  0  0  0  0  0
   -7.2518    2.3700   -1.5983 C   0  0  0  0  0  0  0  0  0  0  0  0
   -3.7349   -3.9955    4.4351 C   0  0  0  0  0  0  0  0  0  0  0  0
   -3.9125   -1.8683    3.3359 C   0  0  0  0  0  0  0  0  0  0  0  0
   -3.4931   -4.7205    3.0975 C   0  0  2  0  0  0  0  0  0  0  0  0
   -1.2265    1.2128    0.0751 C   0  0  0  0  0  0  0  0  0  0  0  0
   -1.2473   -1.2015   -0.0362 C   0  0  0  0  0  0  0  0  0  0  0  0
   -3.9570   -6.1752    3.1185 C   0  0  0  0  0  0  0  0  0  0  0  0
    0.1675    1.2045    0.0274 C   0  0  0  0  0  0  0  0  0  0  0  0
    0.1484   -1.2119   -0.0193 C   0  0  0  0  0  0  0  0  0  0  0  0
    0.8413   -0.0084    0.0005 C   0  0  0  0  0  0  0  0  0  0  0  0
   -3.3925   -0.7394   -3.4247 C   0  0  0  0  0  0  0  0  0  0  0  0
   -5.4507   -6.3000    3.3414 C   0  0  0  0  0  0  0  0  0  0  0  0
  1 31  1  0
  2 15  1  0
  2 32  1  0
  5 33  1  0
  6 33  2  0
  7  8  2  0
  7  9  1  0
  8 10  1  0
  8 14  1  0
  9 11  2  0
  9 13  1  0
 10 12  2  0
 10 15  1  0
 11 12  1  0
 11 17  1  0
 12 16  1  0
 13 19  1  0
 13 20  1  0
 14 21  1  0
 14 22  1  0
 16 26  2  0
 16 27  1  0
 17 24  2  0
 18  3  1  1
 18 23  1  0
 18 24  1  0
 23 25  1  0
 25  4  1  1
 25 28  1  0
 26 29  1  0
 27 30  2  0
 28 33  1  0
 29 31  2  0
 30 31  1  0
M  END
>  <DRUGBANK_ID>  (1) 
DB00439

>  <SECONDARY_ACCESSION_NUMBERS>  (1) 
APRD00102

>  <COMMON_NAME>  (1) 
Cerivastatin

>  <CAS_NUMBER>  (1) 
145599-86-6

>  <UNII>  (1) 
AM91H2KS67

>  <SYNONYMS>  (1) 
Cerivastatin

$$$$
