802
     RDKit          3D

 20 22  0  0  0  0  0  0  0  0999 V2000
    2.1806    0.7598   -0.0194 C   0  0  0  0  0  0  0  0  0  0  0  0
    2.1775   -0.6558   -0.0058 C   0  0  0  0  0  0  0  0  0  0  0  0
    0.9987   -1.4230    0.0072 C   0  0  0  0  0  0  0  0  0  0  0  0
   -0.1966   -0.7144    0.0328 C   0  0  0  0  0  0  0  0  0  0  0  0
   -0.2486    0.6673    0.0682 C   0  0  0  0  0  0  0  0  0  0  0  0
    0.9358    1.4129    0.0185 C   0  0  0  0  0  0  0  0  0  0  0  0
    3.4416    1.5438   -0.0629 C   0  0  0  0  0  0  0  0  0  0  0  0
    3.4298    2.8631   -0.0809 N   0  0  0  0  0  0  0  0  0  0  0  0
    4.6110    0.9350   -0.0819 N   0  0  0  0  0  0  0  0  0  0  0  0
   -1.5162   -1.0875    0.0147 N   0  0  0  0  0  0  0  0  0  0  0  0
   -1.5249    1.1185    0.1749 N   0  0  0  0  0  0  0  0  0  0  0  0
   -2.2955    0.0480    0.0774 C   0  0  0  0  0  0  0  0  0  0  0  0
   -3.7645   -0.0118    0.0165 C   0  0  0  0  0  0  0  0  0  0  0  0
   -4.4329   -0.7309    1.0310 C   0  0  0  0  0  0  0  0  0  0  0  0
   -5.8001   -0.9369    0.9481 C   0  0  0  0  0  0  0  0  0  0  0  0
   -6.4097   -1.7156    1.8547 F   0  0  0  0  0  0  0  0  0  0  0  0
   -6.5395   -0.3548   -0.0600 C   0  0  0  0  0  0  0  0  0  0  0  0
   -5.8853    0.4365   -1.0083 C   0  0  0  0  0  0  0  0  0  0  0  0
   -4.4822    0.5842   -1.0626 C   0  0  0  0  0  0  0  0  0  0  0  0
   -3.9425    1.1970   -2.0505 O   0  0  0  0  0  0  0  0  0  0  0  0
  1  2  2  0
  1  6  1  0
  1  7  1  0
  2  3  1  0
  3  4  2  0
  4  5  1  0
  4 10  1  0
  5  6  2  0
  5 11  1  0
  7  8  1  0
  7  9  2  0
 10 12  1  0
 11 12  2  0
 12 13  1  0
 13 14  2  0
 13 19  1  0
 14 15  1  0
 15 16  1  0
 15 17  2  0
 17 18  1  0
 18 19  2  0
 19 20  1  0
M  CHG  2   9   1  20  -1
M  END
>  <DRUGBANK_ID>  (1) 
DB02875

>  <SECONDARY_ACCESSION_NUMBERS>  (1) 
EXPT00318

>  <COMMON_NAME>  (1) 
CRA_1802

$$$$
