8IN
     RDKit          3D

 29 31  0  0  0  0  0  0  0  0999 V2000
   -1.8343    0.2972   -0.7350 C   0  0  0  0  0  0  0  0  0  0  0  0
   -0.8095    1.1916   -0.3310 C   0  0  0  0  0  0  0  0  0  0  0  0
    0.3694    0.5555   -0.0434 C   0  0  0  0  0  0  0  0  0  0  0  0
    0.3714   -0.8399    0.0504 C   0  0  0  0  0  0  0  0  0  0  0  0
   -0.8225   -1.6009    0.0669 C   0  0  0  0  0  0  0  0  0  0  0  0
   -1.9909   -0.9705   -0.2323 C   0  0  0  0  0  0  0  0  0  0  0  0
    1.6742    1.0199    0.0556 N   0  0  0  0  0  0  0  0  0  0  0  0
    2.4789   -0.0938   -0.0888 C   0  0  0  0  0  0  0  0  0  0  0  0
    1.7109   -1.2252    0.0453 C   0  0  0  0  0  0  0  0  0  0  0  0
    2.1732   -2.6294    0.0646 C   0  0  0  0  0  0  0  0  0  0  0  0
    1.6481   -3.3405    1.3009 C   0  0  0  0  0  0  0  0  0  0  0  0
    0.9397   -4.3206    1.2525 O   0  0  0  0  0  0  0  0  0  0  0  0
    2.0456   -2.8052    2.5034 N   0  0  0  0  0  0  0  0  0  0  0  0
    3.9287   -0.0974   -0.3115 C   0  0  0  0  0  0  0  0  0  0  0  0
    2.1287    2.4331    0.0676 C   0  0  0  0  0  0  0  0  0  0  0  0
    2.9474    2.7784    1.3049 C   0  0  0  0  0  0  0  0  0  0  0  0
    4.1534    2.1371    1.6148 C   0  0  0  0  0  0  0  0  0  0  0  0
    4.7308    2.1544    2.8713 C   0  0  0  0  0  0  0  0  0  0  0  0
    4.2957    3.0998    3.7658 C   0  0  0  0  0  0  0  0  0  0  0  0
    3.2686    3.9673    3.3898 C   0  0  0  0  0  0  0  0  0  0  0  0
    2.5434    3.7608    2.2052 C   0  0  0  0  0  0  0  0  0  0  0  0
   -3.1848   -1.6145   -0.0786 O   0  0  0  0  0  0  0  0  0  0  0  0
   -4.4061   -0.8401    0.0056 C   0  0  0  0  0  0  0  0  0  0  0  0
   -4.5110    0.0485    1.2495 C   0  0  0  0  0  0  0  0  0  0  0  0
   -3.4547    1.1660    1.2416 C   0  0  0  0  0  0  0  0  0  0  0  0
   -3.5524    2.2130   -0.2561 P   0  0  0  0  0  0  0  0  0  0  0  0
   -5.0769    2.1930   -0.2127 O   0  0  0  0  0  0  0  0  0  0  0  0
   -3.0198    3.5111    0.5926 O   0  0  0  0  0  0  0  0  0  0  0  0
   -3.6448    3.2028   -1.6720 O   0  0  0  0  0  0  0  0  0  0  0  0
  1  2  2  0
  1  6  1  0
  2  3  1  0
  3  4  2  0
  3  7  1  0
  4  5  1  0
  4  9  1  0
  5  6  2  0
  6 22  1  0
  7  8  1  0
  7 15  1  0
  8  9  2  0
  8 14  1  0
  9 10  1  0
 10 11  1  0
 11 12  2  0
 11 13  1  0
 15 16  1  0
 16 17  2  0
 16 21  1  0
 17 18  1  0
 18 19  2  0
 19 20  1  0
 20 21  2  0
 22 23  1  0
 23 24  1  0
 24 25  1  0
 25 26  1  0
 26 27  2  0
 26 28  1  0
 26 29  1  0
M  END
>  <DRUGBANK_ID>  (1) 
DB02504

>  <SECONDARY_ACCESSION_NUMBERS>  (1) 
EXPT00335

>  <COMMON_NAME>  (1) 
[3-(1-Benzyl-3-Carbamoylmethyl-2-Methyl-1h-Indol-5-Yloxy)-Propyl-]-Phosphonic Acid

$$$$
