
     RDKit          3D

 17 17  0  0  0  0  0  0  0  0999 V2000
    1.0210    0.0891   -0.0402 O   0  0  0  0  0  0  0  0  0  0  0  0
    0.4444   -0.3694   -1.6055 P   0  0  0  0  0  0  0  0  0  0  0  0
   -0.2997    1.0827   -1.5261 O   0  0  0  0  0  0  0  0  0  0  0  0
    1.8520   -0.1052   -2.1477 O   0  0  0  0  0  0  0  0  0  0  0  0
   -0.1656   -0.8545   -3.2613 C   0  0  0  0  0  0  0  0  0  0  0  0
    0.1056   -2.3012   -3.6477 N   0  0  0  0  0  0  0  0  0  0  0  0
   -0.9631   -3.1789   -3.8745 C   0  0  0  0  0  0  0  0  0  0  0  0
   -1.9568   -2.9046   -4.8087 C   0  0  0  0  0  0  0  0  0  0  0  0
   -3.1109   -3.6905   -4.8933 C   0  0  0  0  0  0  0  0  0  0  0  0
   -3.1869   -4.8341   -4.1134 C   0  0  0  0  0  0  0  0  0  0  0  0
   -4.5482   -5.8708   -4.2294 Cl  0  0  0  0  0  0  0  0  0  0  0  0
   -2.1302   -5.0960   -3.2663 C   0  0  0  0  0  0  0  0  0  0  0  0
   -1.0381   -4.2808   -3.1032 N   0  0  0  0  0  0  0  0  0  0  0  0
   -1.9552   -0.4918   -3.3824 P   0  0  0  0  0  0  0  0  0  0  0  0
   -2.1056   -1.1359   -1.8763 O   0  0  0  0  0  0  0  0  0  0  0  0
   -1.7273    1.1111   -3.1755 O   0  0  0  0  0  0  0  0  0  0  0  0
   -3.4694   -0.1849   -3.4849 O   0  0  0  0  0  0  0  0  0  0  0  0
  1  2  1  0
  2  3  1  0
  2  4  2  0
  2  5  1  0
  5  6  1  0
  5 14  1  0
  6  7  1  0
  7  8  2  0
  7 13  1  0
  8  9  1  0
  9 10  2  0
 10 11  1  0
 10 12  1  0
 12 13  2  0
 14 15  1  0
 14 16  1  0
 14 17  2  0
M  END
>  <DRUGBANK_ID>  (1) 
DB03649

>  <SECONDARY_ACCESSION_NUMBERS>  (1) 
EXPT00850

>  <COMMON_NAME>  (1) 
[{(5-Chloro-2-Pyridinyl)Amino} Methylene]-1,1-Bisphosphonate

>  <UNII>  (1) 
UIQ69AB4DJ

$$$$
