
     RDKit          3D

 36 41  0  0  1  0  0  0  0  0999 V2000
    1.0245    0.0231    0.0309 O   0  0  0  0  0  0  0  0  0  0  0  0
    0.4709   -0.7609   -0.8967 C   0  0  0  0  0  0  0  0  0  0  0  0
    1.1230   -1.4690   -1.6580 O   0  0  0  0  0  0  0  0  0  0  0  0
   -0.9808   -0.7275   -0.8001 C   0  0  0  0  0  0  0  0  0  0  0  0
   -1.6960    0.4745   -0.6921 C   0  0  0  0  0  0  0  0  0  0  0  0
   -3.0916    0.4755   -0.7354 C   0  0  0  0  0  0  0  0  0  0  0  0
   -3.7757   -0.7358   -0.8330 C   0  0  0  0  0  0  0  0  0  0  0  0
   -5.2730   -0.7254   -1.0813 C   0  0  0  0  0  0  0  0  0  0  0  0
   -5.6671   -1.1461   -2.4249 N   0  0  0  0  0  0  0  0  0  0  0  0
   -5.2445   -2.5247   -2.7064 C   0  0  0  0  0  0  0  0  0  0  0  0
   -4.5322   -2.4210   -4.0465 C   0  0  2  0  0  0  0  0  0  0  0  0
   -3.8253   -1.0713   -3.9120 C   0  0  0  0  0  0  0  0  0  0  0  0
   -5.1189   -0.3543   -3.5689 C   0  0  1  0  0  0  0  0  0  0  0  0
   -5.8307   -0.6824   -4.9148 C   0  0  0  0  0  0  0  0  0  0  0  0
   -5.5406   -2.1244   -5.1252 N   0  0  0  0  0  0  0  0  0  0  0  0
   -6.7752   -2.9747   -5.1542 C   0  0  0  0  0  0  0  0  0  0  0  0
   -7.7546   -3.0183   -3.9554 C   0  0  0  0  0  0  0  0  0  0  0  0
   -8.2840   -1.8402   -3.4146 C   0  0  0  0  0  0  0  0  0  0  0  0
   -8.7497   -1.7763   -2.1093 C   0  0  0  0  0  0  0  0  0  0  0  0
   -8.8894   -2.9159   -1.3390 C   0  0  0  0  0  0  0  0  0  0  0  0
   -9.2981   -2.8827   -0.0225 O   0  0  0  0  0  0  0  0  0  0  0  0
   -9.8166   -1.7121    0.5050 C   0  0  0  0  0  0  0  0  0  0  0  0
  -10.8074   -0.9534   -0.1286 C   0  0  0  0  0  0  0  0  0  0  0  0
  -11.3440    0.1750    0.4958 C   0  0  0  0  0  0  0  0  0  0  0  0
  -10.9507    0.5303    1.7914 C   0  0  0  0  0  0  0  0  0  0  0  0
   -9.9938   -0.2599    2.4430 C   0  0  0  0  0  0  0  0  0  0  0  0
   -9.3935   -1.3458    1.7836 C   0  0  0  0  0  0  0  0  0  0  0  0
  -11.6076    1.6600    2.4346 C   0  0  0  0  0  0  0  0  0  0  0  0
  -12.8995    1.8532    2.6190 N   0  0  0  0  0  0  0  0  0  0  0  0
  -12.9775    3.1224    3.1261 C   0  0  0  0  0  0  0  0  0  0  0  0
  -11.7227    3.6699    3.2092 C   0  0  0  0  0  0  0  0  0  0  0  0
  -10.8240    2.7346    2.7779 O   0  0  0  0  0  0  0  0  0  0  0  0
   -8.4955   -4.1413   -1.8900 C   0  0  0  0  0  0  0  0  0  0  0  0
   -7.9051   -4.1933   -3.1746 C   0  0  0  0  0  0  0  0  0  0  0  0
   -3.0086   -1.9264   -0.8835 C   0  0  0  0  0  0  0  0  0  0  0  0
   -1.6332   -1.9349   -0.9025 C   0  0  0  0  0  0  0  0  0  0  0  0
  1  2  1  0
  2  3  2  0
  2  4  1  0
  4  5  2  0
  4 36  1  0
  5  6  1  0
  6  7  2  0
  7  8  1  0
  7 35  1  0
  8  9  1  0
  9 10  1  0
 11 10  1  1
 11 12  1  0
 11 15  1  0
 13 12  1  0
 13  9  1  0
 13 14  1  6
 14 15  1  0
 15 16  1  0
 16 17  1  0
 17 18  2  0
 17 34  1  0
 18 19  1  0
 19 20  2  0
 20 21  1  0
 20 33  1  0
 21 22  1  0
 22 23  2  0
 22 27  1  0
 23 24  1  0
 24 25  2  0
 25 26  1  0
 25 28  1  0
 26 27  2  0
 28 29  2  0
 28 32  1  0
 29 30  1  0
 30 31  2  0
 31 32  1  0
 33 34  2  0
 35 36  2  0
M  END
>  <DRUGBANK_ID>  (1) 
DB15385

>  <COMMON_NAME>  (1) 
Acebilustat

>  <CAS_NUMBER>  (1) 
943764-99-6

>  <UNII>  (1) 
J64RI4D29U

>  <SYNONYMS>  (1) 
Acebilustat

$$$$
