
     RDKit          3D

 27 30  0  0  0  0  0  0  0  0999 V2000
    9.0966    0.4064    1.8156 C   0  0  0  0  0  0  0  0  0  0  0  0
    5.5094   -0.3736    1.5213 C   0  0  0  0  0  0  0  0  0  0  0  0
    9.7003   -1.7910    0.9260 C   0  0  2  0  0  0  0  0  0  0  0  0
    8.4423   -1.6436   -1.4294 C   0  0  0  0  0  0  0  0  0  0  0  0
    9.2542   -1.0435    2.2598 C   0  0  0  0  0  0  0  0  0  0  0  0
    5.1349   -2.7647    0.2591 C   0  0  2  0  0  0  0  0  0  0  0  0
    7.3036   -2.5779   -1.0540 C   0  0  0  0  0  0  0  0  0  0  0  0
    4.5821   -1.6123    2.3265 C   0  0  0  0  0  0  0  0  0  0  0  0
    4.5130   -3.0875    1.7149 C   0  0  0  0  0  0  0  0  0  0  0  0
    4.7039   -3.7704   -0.8457 C   0  0  0  0  0  0  0  0  0  0  0  0
    4.2526   -4.4117    2.2246 C   0  0  0  0  0  0  0  0  0  0  0  0
    3.9643   -4.8322   -0.1211 C   0  0  0  0  0  0  0  0  0  0  0  0
    6.7676   -0.8957    0.7923 C   0  0  1  0  0  0  0  0  0  0  0  0
    6.1939   -1.7738   -0.3833 C   0  0  2  0  0  0  0  0  0  0  0  0
    9.1610   -0.8205   -0.2839 C   0  0  2  0  0  0  0  0  0  0  0  0
   10.2038    0.1061   -0.9718 C   0  0  0  0  0  0  0  0  0  0  0  0
    8.1308    0.0665    0.5161 C   0  0  2  0  0  0  0  0  0  0  0  0
    4.9367   -5.0232    1.0437 C   0  0  0  0  0  0  0  0  0  0  0  0
    9.2156   -3.1312    0.4701 C   0  0  0  0  0  0  0  0  0  0  0  0
   11.0682   -2.1568    1.1873 O   0  0  0  0  0  0  0  0  0  0  0  0
    9.0773   -4.2291    0.0969 C   0  0  0  0  0  0  0  0  0  0  0  0
    6.2210   -5.3088    1.0547 N   0  0  0  0  0  0  0  0  0  0  0  0
   11.1501   -0.6468   -1.8902 C   0  0  0  0  0  0  0  0  0  0  0  0
   11.2750   -3.4286    1.7796 C   0  0  0  0  0  0  0  0  0  0  0  0
   10.1012   -4.1657    2.5469 C   0  0  0  0  0  0  0  0  0  0  0  0
   12.3343   -4.0236    1.5847 O   0  0  0  0  0  0  0  0  0  0  0  0
    6.8332   -4.7484    2.2441 O   0  0  0  0  0  0  0  0  0  0  0  0
  2  8  1  0
  3  5  1  0
  3 20  1  0
  3 19  1  6
  4  7  1  0
  5  1  1  0
  6  9  1  0
  6 10  1  6
  8  9  1  0
  9 11  2  0
 10 12  1  0
 11 18  1  0
 12 18  1  0
 13 14  1  0
 13  2  1  6
 14  6  1  0
 14  7  1  1
 15  3  1  0
 15  4  1  0
 15 16  1  6
 16 23  1  0
 17 13  1  0
 17 15  1  0
 17  1  1  1
 18 22  2  0
 19 21  3  0
 20 24  1  0
 22 27  1  0
 24 25  1  0
 24 26  2  0
M  END
>  <DRUGBANK_ID>  (1) 
DB00957

>  <SECONDARY_ACCESSION_NUMBERS>  (1) 
APRD00569

>  <COMMON_NAME>  (1) 
Norgestimate

>  <CAS_NUMBER>  (1) 
35189-28-7

>  <UNII>  (1) 
NKX8DN6TY9

>  <SYNONYMS>  (1) 
(+)-13-Ethyl-17-hydroxy-18,19-dinor-17α-pregn-4-en-20-yn-3-one oxime acetate (ester); (17α)-17-(Acetyloxy)-13-ethyl-18,19-dinorpregn-4-en-20-yn-3-one 3-oxime; d-13β-Ethyl-17α-ethynyl-17β-acetoxygon-4-en-3-one oxime; Dexnorgestrel Acetime; Norgestimate; Norgestimato; Norgestimatum

$$$$
