
     RDKit          3D

 19 21  0  0  0  0  0  0  0  0999 V2000
    0.9498    0.0130    0.0388 C   0  0  0  0  0  0  0  0  0  0  0  0
    0.5113    1.3525    0.5297 C   0  0  0  0  0  0  0  0  0  0  0  0
    1.0625    2.5116    0.0530 C   0  0  0  0  0  0  0  0  0  0  0  0
    0.7003    3.7365    0.4916 N   0  0  0  0  0  0  0  0  0  0  0  0
   -0.2533    3.8824    1.4460 C   0  0  0  0  0  0  0  0  0  0  0  0
   -0.9001    2.7446    1.9778 C   0  0  0  0  0  0  0  0  0  0  0  0
   -0.4925    1.4864    1.4800 C   0  0  0  0  0  0  0  0  0  0  0  0
   -1.9048    2.8797    2.9735 C   0  0  0  0  0  0  0  0  0  0  0  0
   -2.6125    1.6726    3.5563 C   0  0  0  0  0  0  0  0  0  0  0  0
   -2.2606    4.1646    3.4468 C   0  0  0  0  0  0  0  0  0  0  0  0
   -3.3299    4.3152    4.5163 C   0  0  0  0  0  0  0  0  0  0  0  0
   -1.6159    5.3140    2.9239 C   0  0  0  0  0  0  0  0  0  0  0  0
   -0.6075    5.1748    1.9191 C   0  0  0  0  0  0  0  0  0  0  0  0
   -0.0070    6.3295    1.4451 N   0  0  0  0  0  0  0  0  0  0  0  0
    1.0534    6.2883    0.4059 C   0  0  0  0  0  0  0  0  0  0  0  0
   -0.3519    7.5561    1.9025 C   0  0  0  0  0  0  0  0  0  0  0  0
   -1.3223    7.7333    2.8696 C   0  0  0  0  0  0  0  0  0  0  0  0
   -1.6851    9.1060    3.3550 C   0  0  0  0  0  0  0  0  0  0  0  0
   -1.9474    6.6049    3.3742 C   0  0  0  0  0  0  0  0  0  0  0  0
  1  2  1  0
  2  3  2  0
  2  7  1  0
  3  4  1  0
  4  5  2  0
  5  6  1  0
  5 13  1  0
  6  7  2  0
  6  8  1  0
  8  9  1  0
  8 10  2  0
 10 11  1  0
 10 12  1  0
 12 13  2  0
 12 19  1  0
 13 14  1  0
 14 15  1  0
 14 16  2  0
 16 17  1  0
 17 18  1  0
 17 19  2  0
M  CHG  1  14   1
M  END
>  <DRUGBANK_ID>  (1) 
DB02310

>  <SECONDARY_ACCESSION_NUMBERS>  (1) 
EXPT03080

>  <COMMON_NAME>  (1) 
3,5,6,8-Tetramethyl-N-Methyl Phenanthrolinium

$$$$
