
     RDKit          3D

 34 37  0  0  1  0  0  0  0  0999 V2000
    0.8907   -0.0356    0.0764 C   0  0  0  0  0  0  0  0  0  0  0  0
    0.3345   -0.0455   -1.2365 O   0  0  0  0  0  0  0  0  0  0  0  0
    0.8117    0.9580   -2.0327 C   0  0  0  0  0  0  0  0  0  0  0  0
    2.1644    1.3005   -2.0823 C   0  0  0  0  0  0  0  0  0  0  0  0
    2.6039    2.3286   -2.9069 C   0  0  0  0  0  0  0  0  0  0  0  0
    4.0714    2.6629   -3.0008 C   0  0  0  0  0  0  0  0  0  0  0  0
    4.6584    2.4039   -4.3958 C   0  0  0  0  0  0  0  0  0  0  0  0
    4.1610    3.3571   -5.4238 C   0  0  0  0  0  0  0  0  0  0  0  0
    4.2303    4.7343   -5.5232 C   0  0  0  0  0  0  0  0  0  0  0  0
    3.5124    5.0679   -6.6968 C   0  0  0  0  0  0  0  0  0  0  0  0
    3.2589    6.3467   -7.1551 N   0  0  0  0  0  0  0  0  0  0  0  0
    2.5550    6.7445   -8.2927 C   0  0  0  0  0  0  0  0  0  0  0  0
    2.5449    7.9202   -8.6219 O   0  0  0  0  0  0  0  0  0  0  0  0
    1.7305    5.7687   -9.0709 C   0  0  0  0  0  0  0  0  0  0  0  0
    0.8233    4.9933   -8.3749 C   0  0  0  0  0  0  0  0  0  0  0  0
    0.1365    3.9247   -8.9660 C   0  0  0  0  0  0  0  0  0  0  0  0
    0.2050    3.7013  -10.3331 C   0  0  0  0  0  0  0  0  0  0  0  0
    0.9879    4.6114  -11.0626 C   0  0  0  0  0  0  0  0  0  0  0  0
    1.7753    5.6154  -10.4467 C   0  0  0  0  0  0  0  0  0  0  0  0
   -0.4500    2.6469  -10.9357 N   0  0  0  0  0  0  0  0  0  0  0  0
   -1.8439    2.2921  -10.6274 C   0  0  0  0  0  0  0  0  0  0  0  0
   -2.0105    0.8152  -10.1695 C   0  0  2  0  0  0  0  0  0  0  0  0
   -1.7079    0.6137   -8.6761 C   0  0  0  0  0  0  0  0  0  0  0  0
   -1.3014   -0.1453  -11.0578 N   0  0  0  0  0  0  0  0  0  0  0  0
    0.1193    0.2454  -11.2668 C   0  0  2  0  0  0  0  0  0  0  0  0
    0.9445    0.0794   -9.9908 C   0  0  0  0  0  0  0  0  0  0  0  0
    0.2766    1.7011  -11.7993 C   0  0  0  0  0  0  0  0  0  0  0  0
    3.0996    3.9565   -7.3028 N   0  0  0  0  0  0  0  0  0  0  0  0
    3.3792    2.9597   -6.4683 N   0  0  0  0  0  0  0  0  0  0  0  0
    1.6571    3.0094   -3.6699 C   0  0  0  0  0  0  0  0  0  0  0  0
    0.3329    2.5830   -3.7334 C   0  0  0  0  0  0  0  0  0  0  0  0
   -0.6032    3.0741   -4.5973 O   0  0  0  0  0  0  0  0  0  0  0  0
   -0.0545    3.8646   -5.6293 C   0  0  0  0  0  0  0  0  0  0  0  0
   -0.1002    1.5811   -2.8804 C   0  0  0  0  0  0  0  0  0  0  0  0
  1  2  1  0
  2  3  1  0
  3  4  2  0
  3 34  1  0
  4  5  1  0
  5  6  1  0
  5 30  2  0
  6  7  1  0
  7  8  1  0
  8  9  2  0
  8 29  1  0
  9 10  1  0
 10 11  1  0
 10 28  2  0
 11 12  1  0
 12 13  2  0
 12 14  1  0
 14 15  2  0
 14 19  1  0
 15 16  1  0
 16 17  2  0
 17 18  1  0
 17 20  1  0
 18 19  2  0
 20 21  1  0
 20 27  1  0
 22 21  1  0
 22 23  1  1
 22 24  1  0
 25 24  1  0
 25 26  1  1
 25 27  1  0
 28 29  1  0
 30 31  1  0
 31 32  1  0
 31 34  2  0
 32 33  1  0
M  END
>  <DRUGBANK_ID>  (1) 
DB18442

>  <COMMON_NAME>  (1) 
ABSK-091

>  <CAS_NUMBER>  (1) 
1035270-39-3

>  <SYNONYMS>  (1) 
Benzamide, n-(5-(2-(3,5-dimethoxyphenyl)ethyl)-1h-pyrazol-3-yl)-4-((3r,5s)-3,5-dimethyl-1-piperazinyl)-, rel-

$$$$
