
     RDKit          3D

 17 16  0  0  1  0  0  0  0  0999 V2000
    1.8788    0.3838    1.3928 Cl  0  0  0  0  0  0  0  0  0  0  0  0
    3.3522    2.5119   -3.1318 S   0  0  0  0  0  0  0  0  0  0  0  0
    0.4971    0.2443   -1.5771 S   0  0  0  0  0  0  0  0  0  0  0  0
    3.0020    1.4782   -4.0997 O   0  0  0  0  0  0  0  0  0  0  0  0
    2.9944    3.8844   -3.3579 O   0  0  0  0  0  0  0  0  0  0  0  0
   -0.3204    0.1845   -0.3736 O   0  0  0  0  0  0  0  0  0  0  0  0
   -0.1263    0.0965   -2.8808 O   0  0  0  0  0  0  0  0  0  0  0  0
    1.1429    4.1182   -1.5757 O   0  0  0  0  0  0  0  0  0  0  0  0
    2.7674    1.9119   -1.5402 N   0  0  0  0  0  0  0  0  0  0  0  0
    1.2846    1.7643   -1.5604 N   0  0  0  0  0  0  0  0  0  0  0  0
   -0.8112    3.1762   -1.7402 N   0  0  0  0  0  0  0  0  0  0  0  0
    3.5057    0.7309   -1.0551 C   0  0  0  0  0  0  0  0  0  0  0  0
    5.1461    2.5076   -3.0055 C   0  0  0  0  0  0  0  0  0  0  0  0
    3.3811    0.3685    0.4465 C   0  0  0  0  0  0  0  0  0  0  0  0
    0.5511    3.0364   -1.6320 C   0  0  0  0  0  0  0  0  0  0  0  0
    1.4641   -1.2593   -1.4182 C   0  0  0  0  0  0  0  0  0  0  0  0
   -1.9001    2.2479   -1.6023 C   0  0  0  0  0  0  0  0  0  0  0  0
  1 14  1  0
  2  4  2  0
  2  5  2  0
  2  9  1  0
  2 13  1  0
  3  6  2  0
  3  7  2  0
  3 10  1  0
  3 16  1  0
  8 15  2  0
  9 10  1  0
  9 12  1  0
 10 15  1  0
 11 15  1  0
 11 17  1  0
 12 14  1  0
M  END
>  <DRUGBANK_ID>  (1) 
DB05817

>  <SECONDARY_ACCESSION_NUMBERS>  (1) 
DB12324

>  <COMMON_NAME>  (1) 
Laromustine

>  <CAS_NUMBER>  (1) 
173424-77-6

>  <UNII>  (1) 
14J2G0U3NQ

>  <SYNONYMS>  (1) 
Cloretazine; Laromustine; Onrigin

$$$$
