
     RDKit          3D

 10  9  0  0  0  0  0  0  0  0999 V2000
    1.0714   -0.0322    0.1427 C   0  0  0  0  0  0  0  0  0  0  0  0
    0.6082    0.5660   -1.1748 C   0  0  0  0  0  0  0  0  0  0  0  0
    1.0941   -0.2087   -2.4383 C   0  0  0  0  0  0  0  0  0  0  0  0
    0.5359   -1.6418   -2.3627 C   0  0  0  0  0  0  0  0  0  0  0  0
    0.5455    0.5206   -3.6911 C   0  0  0  0  0  0  0  0  0  0  0  0
    1.0465    1.9550   -3.8147 C   0  0  0  0  0  0  0  0  0  0  0  0
    2.5577   -0.2301   -2.4492 O   0  0  0  0  0  0  0  0  0  0  0  0
    3.1940   -0.8691   -3.4662 C   0  0  0  0  0  0  0  0  0  0  0  0
    2.6756   -1.4604   -4.4041 O   0  0  0  0  0  0  0  0  0  0  0  0
    4.5406   -0.7971   -3.3636 N   0  0  0  0  0  0  0  0  0  0  0  0
  1  2  1  0
  2  3  1  0
  3  4  1  0
  3  5  1  0
  3  7  1  0
  5  6  1  0
  7  8  1  0
  8  9  2  0
  8 10  1  0
M  END
>  <DRUGBANK_ID>  (1) 
DB13572

>  <COMMON_NAME>  (1) 
Emylcamate

>  <CAS_NUMBER>  (1) 
78-28-4

>  <UNII>  (1) 
KCJ747D3R4

>  <SYNONYMS>  (1) 
Emylcamate

$$$$
