
     RDKit          3D

  9  9  0  0  1  0  0  0  0  0999 V2000
    0.9889   -0.1977   -2.3585 C   0  0  0  0  0  0  0  0  0  0  0  0
   -0.9982    0.7870   -1.1180 C   0  0  0  0  0  0  0  0  0  0  0  0
   -1.3199    2.0514   -0.8209 C   0  0  0  0  0  0  0  0  0  0  0  0
    0.5141    0.6461   -1.1863 C   0  0  2  0  0  0  0  0  0  0  0  0
    0.9653    2.1296   -1.2822 C   0  0  2  0  0  0  0  0  0  0  0  0
    2.2963    2.4046   -0.6060 C   0  0  0  0  0  0  0  0  0  0  0  0
   -0.1995    2.8195   -0.7146 N   0  0  0  0  0  0  0  0  0  0  0  0
    3.3023    2.8109   -1.1792 O   0  0  0  0  0  0  0  0  0  0  0  0
    2.3480    2.1426    0.7136 O   0  0  0  0  0  0  0  0  0  0  0  0
  3  2  2  0
  4  2  1  0
  4  1  1  6
  5  4  1  0
  5  6  1  1
  7  3  1  0
  7  5  1  0
  8  6  2  0
  9  6  1  0
M  END
>  <DRUGBANK_ID>  (1) 
DB03930

>  <SECONDARY_ACCESSION_NUMBERS>  (1) 
EXPT00689

>  <COMMON_NAME>  (1) 
4-Methyl-Pyrroline-5-Carboxylic Acid

$$$$
