
     RDKit          3D

 27 30  0  0  1  0  0  0  0  0999 V2000
   -4.0044    3.6120   14.1451 C   0  0  0  0  0  0  0  0  0  0  0  0
   -4.9975    2.5782   13.7964 C   0  0  0  0  0  0  0  0  0  0  0  0
   -6.3474    2.7176   14.1416 C   0  0  0  0  0  0  0  0  0  0  0  0
   -7.3012    1.8380   13.6185 C   0  0  0  0  0  0  0  0  0  0  0  0
   -6.9090    0.7821   12.7876 C   0  0  0  0  0  0  0  0  0  0  0  0
   -5.5371    0.6194   12.5211 C   0  0  0  0  0  0  0  0  0  0  0  0
   -4.5895    1.5188   12.9919 C   0  0  0  0  0  0  0  0  0  0  0  0
   -7.9488   -0.1425   12.1695 C   0  0  0  0  0  0  0  0  0  0  0  0
   -8.0897   -0.0687   10.7005 N   0  0  0  0  0  0  0  0  0  0  0  0
   -8.5174    1.2697   10.2821 C   0  0  0  0  0  0  0  0  0  0  0  0
   -8.6913    1.3377    8.7719 C   0  0  0  0  0  0  0  0  0  0  0  0
   -7.4182    0.9237    8.0258 C   0  0  0  0  0  0  0  0  0  0  0  0
   -6.9493   -0.4563    8.5120 C   0  0  0  0  0  0  0  0  0  0  0  0
   -6.8499   -0.4472   10.0185 C   0  0  0  0  0  0  0  0  0  0  0  0
   -7.6439    0.8518    6.5207 C   0  0  0  0  0  0  0  0  0  0  0  0
   -8.1286    2.1040    5.9311 N   0  0  0  0  0  0  0  0  0  0  0  0
   -8.1911    1.9606    4.4700 C   0  0  1  0  0  0  0  0  0  0  0  0
   -9.4496    1.4569    3.7927 C   0  0  1  0  0  0  0  0  0  0  0  0
   -8.9801    2.8721    3.5839 C   0  0  0  0  0  0  0  0  0  0  0  0
   -9.3739    0.3445    2.7690 C   0  0  0  0  0  0  0  0  0  0  0  0
   -9.1159   -0.9684    3.2071 C   0  0  0  0  0  0  0  0  0  0  0  0
   -9.2704   -2.0756    2.3688 C   0  0  0  0  0  0  0  0  0  0  0  0
   -9.6951   -1.8955    1.0587 C   0  0  0  0  0  0  0  0  0  0  0  0
   -9.9512   -0.6083    0.5922 C   0  0  0  0  0  0  0  0  0  0  0  0
   -9.7472    0.5029    1.4244 C   0  0  0  0  0  0  0  0  0  0  0  0
   -3.1519    3.9885   13.3484 O   0  0  0  0  0  0  0  0  0  0  0  0
   -4.1167    4.0947   15.3954 O   0  0  0  0  0  0  0  0  0  0  0  0
  1  2  1  0
  1 26  2  0
  1 27  1  0
  2  3  2  0
  2  7  1  0
  3  4  1  0
  4  5  2  0
  5  6  1  0
  5  8  1  0
  6  7  2  0
  8  9  1  0
  9 10  1  0
  9 14  1  0
 10 11  1  0
 11 12  1  0
 12 13  1  0
 12 15  1  0
 13 14  1  0
 15 16  1  0
 17 18  1  0
 17 19  1  0
 17 16  1  1
 18 19  1  0
 18 20  1  6
 20 21  2  0
 20 25  1  0
 21 22  1  0
 22 23  2  0
 23 24  1  0
 24 25  2  0
M  END
>  <DRUGBANK_ID>  (1) 
DB16895

>  <COMMON_NAME>  (1) 
GSK-2879552

>  <CAS_NUMBER>  (1) 
1401966-69-5

>  <UNII>  (1) 
GT77Z6Y09Z

>  <SYNONYMS>  (1) 
GSK2879552

$$$$
