SCZ
     RDKit          3D

 26 30  0  0  0  0  0  0  0  0999 V2000
    1.4343   -1.3737    0.0016 C   0  0  0  0  0  0  0  0  0  0  0  0
    0.1361   -0.8749    0.0157 C   0  0  0  0  0  0  0  0  0  0  0  0
    0.2824    0.5419   -0.0041 N   0  0  0  0  0  0  0  0  0  0  0  0
    1.5878    0.8970   -0.0220 N   0  0  0  0  0  0  0  0  0  0  0  0
    2.2546   -0.2359   -0.0159 C   0  0  0  0  0  0  0  0  0  0  0  0
   -1.1061   -1.4351    0.0688 N   0  0  0  0  0  0  0  0  0  0  0  0
   -2.1272   -0.6122    0.0610 C   0  0  0  0  0  0  0  0  0  0  0  0
   -2.0570    0.8879   -0.0057 C   0  0  0  0  0  0  0  0  0  0  0  0
   -0.8310    1.4391   -0.0067 C   0  0  0  0  0  0  0  0  0  0  0  0
   -0.6281    2.8340   -0.0127 N   0  0  0  0  0  0  0  0  0  0  0  0
   -3.4880   -1.1966    0.1446 C   0  0  0  0  0  0  0  0  0  0  0  0
    0.6200    3.5890    0.0280 C   0  0  0  0  0  0  0  0  0  0  0  0
    0.7527    4.4422   -1.1970 C   0  0  0  0  0  0  0  0  0  0  0  0
    1.0808    3.8820   -2.4291 C   0  0  0  0  0  0  0  0  0  0  0  0
    1.2046    4.5945   -3.5731 N   0  0  0  0  0  0  0  0  0  0  0  0
    0.9951    5.9249   -3.4815 C   0  0  0  0  0  0  0  0  0  0  0  0
    0.6869    6.5791   -2.2998 C   0  0  0  0  0  0  0  0  0  0  0  0
    0.5716    5.8241   -1.1394 C   0  0  0  0  0  0  0  0  0  0  0  0
   -3.7730   -2.0869    1.1865 C   0  0  0  0  0  0  0  0  0  0  0  0
   -4.9694   -2.8040    1.1801 C   0  0  0  0  0  0  0  0  0  0  0  0
   -5.9026   -2.5912    0.1652 C   0  0  0  0  0  0  0  0  0  0  0  0
   -5.6300   -1.6816   -0.8591 C   0  0  0  0  0  0  0  0  0  0  0  0
   -4.4189   -0.9852   -0.8771 C   0  0  0  0  0  0  0  0  0  0  0  0
    2.1799   -2.6898   -0.0054 C   0  0  0  0  0  0  0  0  0  0  0  0
    1.7873   -3.8317   -0.9144 C   0  0  0  0  0  0  0  0  0  0  0  0
    1.8500   -4.0310    0.5641 C   0  0  0  0  0  0  0  0  0  0  0  0
  1  2  2  0
  1 24  1  0
  2  6  1  0
  3  2  1  0
  4  5  2  0
  4  3  1  0
  5  1  1  0
  7  6  2  0
  7 11  1  0
  8  7  1  0
  9  3  1  0
  9  8  2  0
 10 12  1  0
 10  9  1  0
 11 23  1  0
 11 19  2  0
 13 18  1  0
 13 12  1  0
 14 13  2  0
 15 16  2  0
 15 14  1  0
 16 17  1  0
 17 18  2  0
 19 20  1  0
 20 21  2  0
 22 21  1  0
 23 22  2  0
 24 25  1  0
 24 26  1  0
 25 26  1  0
M  END
>  <DRUGBANK_ID>  (1) 
DB08539

>  <COMMON_NAME>  (1) 
3-cyclopropyl-5-phenyl-N-(pyridin-3-ylmethyl)pyrazolo[1,5-a]pyrimidin-7-amine

$$$$
