
     RDKit          3D

 30 34  0  0  1  0  0  0  0  0999 V2000
    2.6674   -1.5168   -0.0210 C   0  0  0  0  0  0  0  0  0  0  0  0
    1.2700   -1.5730   -0.0858 C   0  0  0  0  0  0  0  0  0  0  0  0
    0.5166   -0.3970   -0.0928 C   0  0  0  0  0  0  0  0  0  0  0  0
    1.1564    0.8661   -0.0447 C   0  0  0  0  0  0  0  0  0  0  0  0
    2.5695    0.9045    0.0466 C   0  0  0  0  0  0  0  0  0  0  0  0
    3.3289   -0.2831    0.0577 C   0  0  0  0  0  0  0  0  0  0  0  0
    4.8215   -0.2961    0.1447 C   0  0  0  0  0  0  0  0  0  0  0  0
    5.5239   -1.2914    0.1440 O   0  0  0  0  0  0  0  0  0  0  0  0
    5.3606    0.9356    0.2251 O   0  0  0  0  0  0  0  0  0  0  0  0
    0.3546    2.1599   -0.0775 C   0  0  0  0  0  0  0  0  0  0  0  0
   -1.1128    1.9010    0.2449 C   0  0  0  0  0  0  0  0  0  0  0  0
   -1.7441    0.7349   -0.5117 C   0  0  1  0  0  0  0  0  0  0  0  0
   -0.9675   -0.4881   -0.1060 C   0  0  0  0  0  0  0  0  0  0  0  0
   -1.6690   -1.5224    0.2660 N   0  0  0  0  0  0  0  0  0  0  0  0
   -2.9849   -1.1722    0.1628 N   0  0  0  0  0  0  0  0  0  0  0  0
   -3.1822    0.2647   -0.1282 C   0  0  1  0  0  0  0  0  0  0  0  0
   -3.8143    1.0658    1.0416 C   0  0  0  0  0  0  0  0  0  0  0  0
   -3.0279    1.0817    2.3572 C   0  0  0  0  0  0  0  0  0  0  0  0
   -3.9946    1.4738    3.4454 C   0  0  0  0  0  0  0  0  0  0  0  0
   -5.3814    1.2800    2.8681 C   0  0  0  0  0  0  0  0  0  0  0  0
   -5.1844    0.5995    1.5259 C   0  0  0  0  0  0  0  0  0  0  0  0
   -4.0250   -2.0603    0.4721 C   0  0  0  0  0  0  0  0  0  0  0  0
   -5.0699   -2.2903   -0.4385 C   0  0  0  0  0  0  0  0  0  0  0  0
   -6.1991   -3.0583   -0.0957 C   0  0  0  0  0  0  0  0  0  0  0  0
   -6.3998   -3.4706    1.2258 C   0  0  0  0  0  0  0  0  0  0  0  0
   -5.3809   -3.2345    2.1535 C   0  0  0  0  0  0  0  0  0  0  0  0
   -4.1700   -2.6238    1.7563 C   0  0  0  0  0  0  0  0  0  0  0  0
   -5.6100   -3.5865    3.8357 Cl  0  0  0  0  0  0  0  0  0  0  0  0
   -7.6401   -4.0885    1.6013 C   0  0  0  0  0  0  0  0  0  0  0  0
   -8.6563   -4.5754    1.9034 N   0  0  0  0  0  0  0  0  0  0  0  0
  1  2  2  0
  1  6  1  0
  2  3  1  0
  3  4  2  0
  3 13  1  0
  4  5  1  0
  4 10  1  0
  5  6  2  0
  6  7  1  0
  7  8  2  0
  7  9  1  0
 10 11  1  0
 12 11  1  1
 12 13  1  0
 12 16  1  0
 13 14  2  0
 14 15  1  0
 15 16  1  0
 15 22  1  0
 16 17  1  1
 17 18  1  0
 17 21  1  0
 18 19  1  0
 19 20  1  0
 20 21  1  0
 22 23  2  0
 22 27  1  0
 23 24  1  0
 24 25  2  0
 25 26  1  0
 25 29  1  0
 26 27  2  0
 26 28  1  0
 29 30  3  0
M  END
>  <DRUGBANK_ID>  (1) 
DB11814

>  <COMMON_NAME>  (1) 
PF-03882845

>  <CAS_NUMBER>  (1) 
1023650-66-9

>  <UNII>  (1) 
34ZKU73FU3

$$$$
