GPI
     RDKit          3D

 26 27  0  0  0  0  0  0  0  0999 V2000
   -0.8117   -0.8582   -0.1720 C   0  0  1  0  0  0  0  0  0  0  0  0
   -1.0473    0.5365    0.2510 N   0  0  0  0  0  0  0  0  0  0  0  0
    0.1956    1.2750    0.0639 C   0  0  0  0  0  0  0  0  0  0  0  0
    0.6524   -1.0738    0.2104 C   0  0  0  0  0  0  0  0  0  0  0  0
    1.3028    0.2356   -0.1422 C   0  0  0  0  0  0  0  0  0  0  0  0
   -1.5361   -1.9375    0.5653 C   0  0  0  0  0  0  0  0  0  0  0  0
   -1.0218   -3.0061    0.8998 O   0  0  0  0  0  0  0  0  0  0  0  0
   -2.8022   -1.5603    0.6523 O   0  0  0  0  0  0  0  0  0  0  0  0
   -4.0734   -2.1834    0.8311 C   0  0  0  0  0  0  0  0  0  0  0  0
   -4.4569   -3.3096   -0.0568 C   0  0  0  0  0  0  0  0  0  0  0  0
   -3.3704   -4.3220    0.1037 C   0  0  0  0  0  0  0  0  0  0  0  0
   -2.7951   -6.3751    3.1947 N   0  0  0  0  0  0  0  0  0  0  0  0
   -2.8981   -5.4624    4.1954 C   0  0  0  0  0  0  0  0  0  0  0  0
   -3.0560   -4.1263    4.0033 C   0  0  0  0  0  0  0  0  0  0  0  0
   -3.0542   -3.7411    2.6890 C   0  0  0  0  0  0  0  0  0  0  0  0
   -3.1354   -4.6398    1.5832 C   0  0  0  0  0  0  0  0  0  0  0  0
   -2.9227   -5.9442    1.9197 C   0  0  0  0  0  0  0  0  0  0  0  0
   -2.2330    1.2397    0.5720 C   0  0  0  0  0  0  0  0  0  0  0  0
   -2.2055    2.3856    1.0152 O   0  0  0  0  0  0  0  0  0  0  0  0
   -3.6257    0.6506    0.2507 C   0  0  0  0  0  0  0  0  0  0  0  0
   -3.7056    0.1386   -0.8742 O   0  0  0  0  0  0  0  0  0  0  0  0
   -4.9316    0.9556    1.1179 C   0  0  0  0  0  0  0  0  0  0  0  0
   -4.7123    1.3608    2.5930 C   0  0  0  0  0  0  0  0  0  0  0  0
   -5.4363    2.1235    0.2808 C   0  0  0  0  0  0  0  0  0  0  0  0
   -6.1508   -0.0899    1.1124 C   0  0  0  0  0  0  0  0  0  0  0  0
   -6.5233   -0.6890   -0.2767 C   0  0  0  0  0  0  0  0  0  0  0  0
  1  2  1  0
  1  4  1  0
  1  6  1  1
  2  3  1  0
  2 18  1  0
  3  5  1  0
  4  5  1  0
  6  7  2  0
  6  8  1  0
  8  9  1  0
  9 10  1  0
 10 11  1  0
 11 16  1  0
 12 13  2  0
 12 17  1  0
 13 14  1  0
 14 15  2  0
 15 16  1  0
 16 17  2  0
 18 19  2  0
 18 20  1  0
 20 21  2  0
 20 22  1  0
 22 23  1  0
 22 24  1  0
 22 25  1  0
 25 26  1  0
M  END
>  <DRUGBANK_ID>  (1) 
DB01951

>  <SECONDARY_ACCESSION_NUMBERS>  (1) 
EXPT01638

>  <COMMON_NAME>  (1) 
Gpi-1046

$$$$
