
     RDKit          3D

 29 31  0  0  0  0  0  0  0  0999 V2000
    1.2711   -0.4765   -0.2895 C   0  0  0  0  0  0  0  0  0  0  0  0
    0.8008   -0.4618   -1.6351 C   0  0  0  0  0  0  0  0  0  0  0  0
    0.5441   -1.6642   -2.2032 C   0  0  0  0  0  0  0  0  0  0  0  0
    0.0216   -1.3518   -3.4473 C   0  0  0  0  0  0  0  0  0  0  0  0
   -0.3036   -2.1859   -4.5061 C   0  0  0  0  0  0  0  0  0  0  0  0
   -0.7524   -1.5766   -5.6523 C   0  0  0  0  0  0  0  0  0  0  0  0
   -0.8890   -0.1898   -5.6642 C   0  0  0  0  0  0  0  0  0  0  0  0
   -0.6265    0.6786   -4.6414 N   0  0  0  0  0  0  0  0  0  0  0  0
   -0.1572    0.0421   -3.5466 C   0  0  0  0  0  0  0  0  0  0  0  0
    0.2368    0.6066   -2.3325 N   0  0  0  0  0  0  0  0  0  0  0  0
    0.1497    2.0632   -1.9346 C   0  0  0  0  0  0  0  0  0  0  0  0
   -0.7494    2.4507   -0.7136 C   0  0  0  0  0  0  0  0  0  0  0  0
   -1.9958    3.0743   -0.9492 C   0  0  0  0  0  0  0  0  0  0  0  0
   -3.0016    3.1033    0.0438 C   0  0  0  0  0  0  0  0  0  0  0  0
   -2.7144    2.6802    1.3405 C   0  0  0  0  0  0  0  0  0  0  0  0
   -1.4467    2.2428    1.6336 C   0  0  0  0  0  0  0  0  0  0  0  0
   -0.4475    2.1994    0.6564 C   0  0  0  0  0  0  0  0  0  0  0  0
    0.8452    1.7003    1.2415 C   0  0  0  0  0  0  0  0  0  0  0  0
    1.3684    2.3481    2.3072 F   0  0  0  0  0  0  0  0  0  0  0  0
    0.6351    0.4448    1.7647 F   0  0  0  0  0  0  0  0  0  0  0  0
    1.8323    1.7040    0.3188 F   0  0  0  0  0  0  0  0  0  0  0  0
   -3.8502    2.9054    2.6837 S   0  0  0  0  0  0  0  0  0  0  0  0
   -4.0128    4.3307    2.8161 O   0  0  0  0  0  0  0  0  0  0  0  0
   -4.9815    2.0196    2.4333 O   0  0  0  0  0  0  0  0  0  0  0  0
   -3.0253    2.3204    4.1603 C   0  0  0  0  0  0  0  0  0  0  0  0
    0.8085   -2.9778   -1.5416 C   0  0  0  0  0  0  0  0  0  0  0  0
   -0.4225   -3.8123   -1.4284 C   0  0  0  0  0  0  0  0  0  0  0  0
   -0.5598   -4.9291   -1.9272 O   0  0  0  0  0  0  0  0  0  0  0  0
   -1.4021   -3.2621   -0.6837 O   0  0  0  0  0  0  0  0  0  0  0  0
  1  2  1  0
  2  3  2  0
  2 10  1  0
  3  4  1  0
  3 26  1  0
  4  5  2  0
  4  9  1  0
  5  6  1  0
  6  7  2  0
  7  8  1  0
  8  9  2  0
  9 10  1  0
 10 11  1  0
 11 12  1  0
 12 13  2  0
 12 17  1  0
 13 14  1  0
 14 15  2  0
 15 16  1  0
 15 22  1  0
 16 17  2  0
 17 18  1  0
 18 19  1  0
 18 20  1  0
 18 21  1  0
 22 23  2  0
 22 24  2  0
 22 25  1  0
 26 27  1  0
 27 28  2  0
 27 29  1  0
M  END
>  <DRUGBANK_ID>  (1) 
DB12011

>  <COMMON_NAME>  (1) 
Fevipiprant

>  <CAS_NUMBER>  (1) 
872365-14-5

>  <UNII>  (1) 
2PEX5N7DQ4

>  <SYNONYMS>  (1) 
Fevipiprant

$$$$
