SB1
     RDKit          3D

 31 32  0  0  0  0  0  0  0  0999 V2000
   -1.2161    2.1126    1.9335 N   0  0  0  0  0  0  0  0  0  0  0  0
   -2.7730    2.6711    3.3755 C   0  0  0  0  0  0  0  0  0  0  0  0
   -2.8968    3.9057    3.9221 O   0  0  0  0  0  0  0  0  0  0  0  0
   -4.0462    2.7465    5.1768 C   0  0  0  0  0  0  0  0  0  0  0  0
   -4.3459    1.9042    6.3442 O   0  0  0  0  0  0  0  0  0  0  0  0
   -5.7938    2.4883    6.4025 C   0  0  0  0  0  0  0  0  0  0  0  0
   -7.0879    1.4765    5.9284 C   0  0  0  0  0  0  0  0  0  0  0  0
   -6.6770    0.1156    5.7010 O   0  0  0  0  0  0  0  0  0  0  0  0
   -5.5336   -0.1541    5.0394 C   0  0  0  0  0  0  0  0  0  0  0  0
   -5.1045   -1.2889    4.9067 O   0  0  0  0  0  0  0  0  0  0  0  0
   -4.7244    0.9284    4.4778 C   0  0  0  0  0  0  0  0  0  0  0  0
   -3.0455    0.9245    5.4224 C   0  0  0  0  0  0  0  0  0  0  0  0
   -2.4222   -0.2946    5.1455 C   0  0  0  0  0  0  0  0  0  0  0  0
   -2.3566   -0.3362    3.7258 C   0  0  0  0  0  0  0  0  0  0  0  0
   -1.3701    0.6505    3.4982 C   0  0  0  0  0  0  0  0  0  0  0  0
   -0.0983    1.1058    4.0963 C   0  0  0  0  0  0  0  0  0  0  0  0
    0.6747   -0.0892    3.8822 C   0  0  0  0  0  0  0  0  0  0  0  0
    0.9528   -0.0959    2.5117 C   0  0  0  0  0  0  0  0  0  0  0  0
    1.8286    1.4930    2.0840 C   0  0  0  0  0  0  0  0  0  0  0  0
    3.1578    1.3106    2.5510 C   0  0  0  0  0  0  0  0  0  0  0  0
    3.7015    0.0389    2.0135 C   0  0  0  0  0  0  0  0  0  0  0  0
    3.4648    0.1453    0.5933 O   0  0  0  0  0  0  0  0  0  0  0  0
    2.1246    0.5583   -0.1659 C   0  0  0  0  0  0  0  0  0  0  0  0
    2.4377    0.2007   -1.3205 O   0  0  0  0  0  0  0  0  0  0  0  0
    0.3020    1.1277    0.7362 C   0  0  1  0  0  0  0  0  0  0  0  0
    0.3470   -0.7553   -0.0690 C   0  0  0  0  0  0  0  0  0  0  0  0
   -0.9668   -1.1908    0.2648 C   0  0  0  0  0  0  0  0  0  0  0  0
   -1.6314    0.0932   -0.2061 C   0  0  0  0  0  0  0  0  0  0  0  0
   -1.7199    1.6370    0.5657 C   0  0  0  0  0  0  0  0  0  0  0  0
   -6.7214    3.6318    7.1259 C   0  0  0  0  0  0  0  0  0  0  0  0
   -5.9800    1.5199    8.1110 C   0  0  0  0  0  0  0  0  0  0  0  0
  1  2  1  0
  1 25  1  0
  1 29  1  0
  2  3  2  0
  2  4  1  0
  4  5  2  0
  4  6  1  0
  6  7  1  0
  6 30  1  0
  6 31  1  0
  7  8  1  0
  8  9  1  0
  9 10  2  0
  9 11  1  0
 11 12  1  0
 12 13  1  0
 13 14  1  0
 14 15  1  0
 15 16  1  0
 16 17  1  0
 17 18  1  0
 18 19  1  0
 19 20  1  0
 20 21  1  0
 21 22  1  0
 22 23  1  0
 23 24  2  0
 23 25  1  0
 25 26  1  1
 26 27  1  0
 27 28  1  0
 28 29  1  0
M  END
>  <DRUGBANK_ID>  (1) 
DB08520

>  <COMMON_NAME>  (1) 
(21S)-1AZA-4,4-DIMETHYL-6,19-DIOXA-2,3,7,20-TETRAOXOBICYCLO[19.4.0] PENTACOSANE

$$$$
