1528
     RDKit          3D

 15 15  0  0  1  0  0  0  0  0999 V2000
    0.9305    0.0019    0.1023 O   0  0  0  0  0  0  0  0  0  0  0  0
   -1.6658   -4.8041   -0.9683 O   0  0  0  0  0  0  0  0  0  0  0  0
    0.9003   -4.3716    2.8880 N   0  0  0  0  0  0  0  0  0  0  0  0
    1.7809   -2.5077    1.4551 C   0  0  0  0  0  0  0  0  0  0  0  0
    1.3931   -2.9982    2.8571 C   0  0  0  0  0  0  0  0  0  0  0  0
    0.7047   -2.4136    0.4024 C   0  0  0  0  0  0  0  0  0  0  0  0
    0.3529   -1.2088   -0.1957 C   0  0  0  0  0  0  0  0  0  0  0  0
    0.0137   -3.5795    0.0047 C   0  0  0  0  0  0  0  0  0  0  0  0
    2.6268   -2.8799    3.7578 C   0  0  0  0  0  0  0  0  0  0  0  0
   -1.4994   -2.3379   -1.3938 C   0  0  0  0  0  0  0  0  0  0  0  0
   -1.1100   -3.5576   -0.8421 C   0  0  0  0  0  0  0  0  0  0  0  0
   -0.7561   -1.1738   -1.0591 C   0  0  0  0  0  0  0  0  0  0  0  0
   -2.6401   -2.1667   -2.3562 C   0  0  0  0  0  0  0  0  0  0  0  0
    2.3343    0.1200   -0.1577 C   0  0  0  0  0  0  0  0  0  0  0  0
   -2.8098   -5.0126   -1.7767 C   0  0  0  0  0  0  0  0  0  0  0  0
  1  7  1  0
  1 14  1  0
  2 11  1  0
  2 15  1  0
  3  5  1  0
  4  5  1  0
  4  6  1  0
  5  9  1  0
  6  7  2  0
  6  8  1  0
  7 12  1  0
  8 11  2  0
 10 11  1  0
 10 12  2  0
 10 13  1  0
M  END
>  <DRUGBANK_ID>  (1) 
DB01528

>  <COMMON_NAME>  (1) 
4-Methyl-2,5-dimethoxyamphetamine

>  <CAS_NUMBER>  (1) 
15588-95-1

>  <UNII>  (1) 
UKI9MLD5OI

>  <SYNONYMS>  (1) 
STP

$$$$
