
     RDKit          3D

 40 42  0  0  1  0  0  0  0  0999 V2000
    2.3638    1.2964    0.0874 C   0  0  0  0  0  0  0  0  0  0  0  0
    1.0527    0.5398    0.0001 C   0  0  0  0  0  0  0  0  0  0  0  0
    0.9644   -0.8286   -0.0248 C   0  0  0  0  0  0  0  0  0  0  0  0
   -0.1563   -1.6615   -0.1456 C   0  0  0  0  0  0  0  0  0  0  0  0
   -1.3663   -1.0242   -0.0905 C   0  0  0  0  0  0  0  0  0  0  0  0
   -1.3775    0.3834   -0.0352 C   0  0  0  0  0  0  0  0  0  0  0  0
   -0.1718    1.1538   -0.0347 C   0  0  0  0  0  0  0  0  0  0  0  0
   -0.1652    2.5929   -0.0492 C   0  0  0  0  0  0  0  0  0  0  0  0
    0.4199    3.2654   -1.1265 C   0  0  0  0  0  0  0  0  0  0  0  0
    0.4582    4.6368   -1.1344 C   0  0  0  0  0  0  0  0  0  0  0  0
   -0.1485    5.3545   -0.0981 C   0  0  0  0  0  0  0  0  0  0  0  0
   -0.7570    4.6578    0.9614 C   0  0  0  0  0  0  0  0  0  0  0  0
   -0.6727    3.2891    1.0366 C   0  0  0  0  0  0  0  0  0  0  0  0
   -0.1219    6.8719   -0.0655 C   0  0  0  0  0  0  0  0  0  0  0  0
   -1.5647    7.3959   -0.1083 C   0  0  0  0  0  0  0  0  0  0  0  0
    0.5685    7.3213    1.2356 C   0  0  0  0  0  0  0  0  0  0  0  0
    0.6595    7.4575   -1.2554 C   0  0  0  0  0  0  0  0  0  0  0  0
   -2.7012    1.0806   -0.0200 C   0  0  0  0  0  0  0  0  0  0  0  0
   -0.1128   -3.0353   -0.1535 O   0  0  0  0  0  0  0  0  0  0  0  0
    1.1358   -3.8023    0.0177 C   0  0  1  0  0  0  0  0  0  0  0  0
    2.0954   -3.6567   -1.2386 C   0  0  0  0  0  0  0  0  0  0  0  0
    2.7733   -2.3154   -1.5563 C   0  0  0  0  0  0  0  0  0  0  0  0
    3.8740   -1.9359   -0.5527 C   0  0  0  0  0  0  0  0  0  0  0  0
    4.9324   -2.7548   -0.6742 F   0  0  0  0  0  0  0  0  0  0  0  0
    4.3017   -0.6789   -0.7848 F   0  0  0  0  0  0  0  0  0  0  0  0
    3.5396   -1.9792    0.7448 F   0  0  0  0  0  0  0  0  0  0  0  0
    1.7014   -3.7202    1.4459 C   0  0  0  0  0  0  0  0  0  0  0  0
    1.4386   -2.5799    2.1828 C   0  0  0  0  0  0  0  0  0  0  0  0
    2.2459   -2.1307    3.1899 C   0  0  0  0  0  0  0  0  0  0  0  0
    3.1274   -2.9675    3.8042 C   0  0  0  0  0  0  0  0  0  0  0  0
    3.1242   -4.2979    3.3507 C   0  0  0  0  0  0  0  0  0  0  0  0
    2.5103   -4.6468    2.1091 C   0  0  0  0  0  0  0  0  0  0  0  0
    3.9388   -2.4773    4.9457 C   0  0  0  0  0  0  0  0  0  0  0  0
    4.4470   -3.3077    5.7057 O   0  0  0  0  0  0  0  0  0  0  0  0
    4.1449   -1.1365    5.2042 N   0  0  0  0  0  0  0  0  0  0  0  0
    3.7556    0.1238    4.5504 C   0  0  0  0  0  0  0  0  0  0  0  0
    2.6338    0.8349    5.3022 C   0  0  0  0  0  0  0  0  0  0  0  0
    3.2369    1.5352    6.4903 C   0  0  0  0  0  0  0  0  0  0  0  0
    3.2937    2.7248    6.6631 O   0  0  0  0  0  0  0  0  0  0  0  0
    3.7869    0.6624    7.3677 O   0  0  0  0  0  0  0  0  0  0  0  0
  1  2  1  0
  2  3  2  0
  2  7  1  0
  3  4  1  0
  4  5  2  0
  4 19  1  0
  5  6  1  0
  6  7  2  0
  6 18  1  0
  7  8  1  0
  8  9  2  0
  8 13  1  0
  9 10  1  0
 10 11  2  0
 11 12  1  0
 11 14  1  0
 12 13  2  0
 14 15  1  0
 14 16  1  0
 14 17  1  0
 20 19  1  0
 20 21  1  6
 20 27  1  0
 21 22  1  0
 22 23  1  0
 23 24  1  0
 23 25  1  0
 23 26  1  0
 27 28  2  0
 27 32  1  0
 28 29  1  0
 29 30  2  0
 30 31  1  0
 30 33  1  0
 31 32  2  0
 33 34  2  0
 33 35  1  0
 35 36  1  0
 36 37  1  0
 37 38  1  0
 38 39  2  0
 38 40  1  0
M  END
>  <DRUGBANK_ID>  (1) 
DB11704

>  <COMMON_NAME>  (1) 
Adomeglivant

>  <CAS_NUMBER>  (1) 
1488363-78-5

>  <UNII>  (1) 
74Z5ZL2KVG

>  <SYNONYMS>  (1) 
Adomeglivant

$$$$
