1268
     RDKit          3D

 29 31  0  0  0  0  0  0  0  0999 V2000
    0.9887   -0.2336    0.0746 F   0  0  0  0  0  0  0  0  0  0  0  0
    5.3510    8.9423    0.0813 O   0  0  0  0  0  0  0  0  0  0  0  0
    7.6660    2.2363    0.0461 O   0  0  0  0  0  0  0  0  0  0  0  0
   10.0891   10.0140   -1.5260 N   0  0  0  0  0  0  0  0  0  0  0  0
    6.7561    4.6017    0.0355 N   0  0  0  0  0  0  0  0  0  0  0  0
    7.5473    8.9854    0.1918 N   0  0  0  0  0  0  0  0  0  0  0  0
    6.4312    0.2897    0.0501 N   0  0  0  0  0  0  0  0  0  0  0  0
    9.6897    8.6427   -1.2824 C   0  0  0  0  0  0  0  0  0  0  0  0
    6.3500    6.7816    0.0424 C   0  0  0  0  0  0  0  0  0  0  0  0
    5.0889    6.0304    0.0558 C   0  0  0  0  0  0  0  0  0  0  0  0
    5.4181    4.6889    0.0480 C   0  0  0  0  0  0  0  0  0  0  0  0
    8.9060    8.5431    0.0313 C   0  0  0  0  0  0  0  0  0  0  0  0
    7.3606    5.7993    0.0266 C   0  0  0  0  0  0  0  0  0  0  0  0
   10.9174   10.1557   -2.7186 C   0  0  0  0  0  0  0  0  0  0  0  0
    8.9409   10.9212   -1.4837 C   0  0  0  0  0  0  0  0  0  0  0  0
    6.3841    8.2659    0.0867 C   0  0  0  0  0  0  0  0  0  0  0  0
    5.1996    2.2492    0.0584 C   0  0  0  0  0  0  0  0  0  0  0  0
    4.6911    3.4916    0.0597 C   0  0  0  0  0  0  0  0  0  0  0  0
    4.2970    1.1121    0.0624 C   0  0  0  0  0  0  0  0  0  0  0  0
    3.7010    6.5986    0.0985 C   0  0  0  0  0  0  0  0  0  0  0  0
    5.0806   -0.0444    0.0574 C   0  0  0  0  0  0  0  0  0  0  0  0
    8.8570    5.6490    0.0046 C   0  0  0  0  0  0  0  0  0  0  0  0
    6.6076    1.6658    0.0506 C   0  0  0  0  0  0  0  0  0  0  0  0
   10.2501    9.7936   -4.0383 C   0  0  0  0  0  0  0  0  0  0  0  0
    7.7588   10.5588   -2.3954 C   0  0  0  0  0  0  0  0  0  0  0  0
    2.9192    1.0746    0.0674 C   0  0  0  0  0  0  0  0  0  0  0  0
    4.4959   -1.2905    0.0600 C   0  0  0  0  0  0  0  0  0  0  0  0
    2.3247   -0.1669    0.0704 C   0  0  0  0  0  0  0  0  0  0  0  0
    3.0920   -1.3396    0.0685 C   0  0  0  0  0  0  0  0  0  0  0  0
  1 28  1  0
  2 16  2  0
  3 23  2  0
  4  8  1  0
  4 14  1  0
  4 15  1  0
  5 11  1  0
  5 13  1  0
  6 12  1  0
  6 16  1  0
  7 21  1  0
  7 23  1  0
  8 12  1  0
  9 10  1  0
  9 13  2  0
  9 16  1  0
 10 11  2  0
 10 20  1  0
 11 18  1  0
 13 22  1  0
 14 24  1  0
 15 25  1  0
 17 18  2  0
 17 19  1  0
 17 23  1  0
 19 21  2  0
 19 26  1  0
 21 27  1  0
 26 28  2  0
 27 29  2  0
 28 29  1  0
M  END
>  <DRUGBANK_ID>  (1) 
DB01268

>  <SECONDARY_ACCESSION_NUMBERS>  (1) 
DB07417

>  <COMMON_NAME>  (1) 
Sunitinib

>  <CAS_NUMBER>  (1) 
557795-19-4

>  <UNII>  (1) 
V99T50803M

>  <SYNONYMS>  (1) 
Sunitinib; Sunitinibum

$$$$
