
     RDKit          3D

 15 14  0  0  0  0  0  0  0  0999 V2000
    0.8816    0.0790    0.0695 O   0  0  0  0  0  0  0  0  0  0  0  0
    0.9495    0.4243    2.2836 O   0  0  0  0  0  0  0  0  0  0  0  0
   -3.2466   -2.0226    3.1982 N   0  0  0  0  0  0  0  0  0  0  0  0
   -1.7598    1.3618    0.3345 N   0  0  0  0  0  0  0  0  0  0  0  0
   -5.2886   -2.8875    3.9339 N   0  0  0  0  0  0  0  0  0  0  0  0
   -3.2694   -3.8328    4.6666 N   0  0  0  0  0  0  0  0  0  0  0  0
   -1.7523   -1.0671    0.7503 C   0  0  0  0  0  0  0  0  0  0  0  0
   -1.2975   -2.1868    1.6871 C   0  0  0  0  0  0  0  0  0  0  0  0
   -1.2372    0.3049    1.2043 C   0  0  1  0  0  0  0  0  0  0  0  0
   -1.7757   -1.9684    3.1138 C   0  0  0  0  0  0  0  0  0  0  0  0
    0.2922    0.3106    1.2550 C   0  0  0  0  0  0  0  0  0  0  0  0
   -3.9364   -2.9198    3.9392 C   0  0  0  0  0  0  0  0  0  0  0  0
   -6.1350   -3.8321    4.6565 C   0  0  0  0  0  0  0  0  0  0  0  0
   -7.0063   -3.0765    5.5952 C   0  0  0  0  0  0  0  0  0  0  0  0
   -8.3364   -3.2289    5.6230 C   0  0  0  0  0  0  0  0  0  0  0  0
  1 11  1  0
  2 11  2  0
  3 10  1  0
  3 12  2  0
  5 12  1  0
  5 13  1  0
  6 12  1  0
  7  8  1  0
  7  9  1  0
  8 10  1  0
  9  4  1  6
  9 11  1  0
 13 14  1  0
 14 15  2  0
M  CHG  1   3   1
M  END
>  <DRUGBANK_ID>  (1) 
DB03892

>  <SECONDARY_ACCESSION_NUMBERS>  (1) 
EXPT00563

>  <COMMON_NAME>  (1) 
5-N-Allyl-arginine

$$$$
