
     RDKit          3D

 31 32  0  0  0  0  0  0  0  0999 V2000
    0.8685    0.1002   -0.1516 O   0  0  0  0  0  0  0  0  0  0  0  0
    0.2713   -0.5829   -1.1617 C   0  0  0  0  0  0  0  0  0  0  0  0
    0.9389   -1.1142   -2.0313 O   0  0  0  0  0  0  0  0  0  0  0  0
   -1.2523   -0.6507   -1.1522 C   0  0  0  0  0  0  0  0  0  0  0  0
   -1.8316   -1.5145   -0.0060 C   0  0  0  0  0  0  0  0  0  0  0  0
   -1.4402   -0.9212    1.2484 C   0  0  0  0  0  0  0  0  0  0  0  0
   -2.0908    0.3892    0.9773 C   0  0  0  0  0  0  0  0  0  0  0  0
   -3.5917    0.5834    1.2486 C   0  0  0  0  0  0  0  0  0  0  0  0
   -4.0616   -0.0030    2.5803 C   0  0  0  0  0  0  0  0  0  0  0  0
   -3.7665    0.7232    3.7590 O   0  0  0  0  0  0  0  0  0  0  0  0
   -2.5073    0.5165    3.8936 C   0  0  0  0  0  0  0  0  0  0  0  0
   -1.5369    1.2589    3.5737 C   0  0  0  0  0  0  0  0  0  0  0  0
   -2.5913    2.7778    2.1685 Cl  0  0  0  0  0  0  0  0  0  0  0  0
    0.4063    1.8750    4.0132 C   0  0  0  0  0  0  0  0  0  0  0  0
    1.3289    2.1468    4.7793 C   0  0  0  0  0  0  0  0  0  0  0  0
    2.5396    1.5241    4.9104 N   0  0  0  0  0  0  0  0  0  0  0  0
    2.9498    1.1146    6.1843 C   0  0  0  0  0  0  0  0  0  0  0  0
    4.1556    1.0984    6.3975 O   0  0  0  0  0  0  0  0  0  0  0  0
    1.9177    0.6598    7.2230 N   0  0  0  0  0  0  0  0  0  0  0  0
    0.4763    0.2662    7.4059 C   0  0  0  0  0  0  0  0  0  0  0  0
   -0.1690    0.1145    8.4364 O   0  0  0  0  0  0  0  0  0  0  0  0
   -0.4283    0.2417    6.2286 C   0  0  0  0  0  0  0  0  0  0  0  0
   -1.1830    2.0724    6.0460 C   0  0  0  0  0  0  0  0  0  0  0  0
   -1.2563    3.0204    4.3247 C   0  0  0  0  0  0  0  0  0  0  0  0
   -0.4739    2.3382    2.5770 C   0  0  0  0  0  0  0  0  0  0  0  0
    0.1208    0.4234    2.8253 C   0  0  0  0  0  0  0  0  0  0  0  0
    0.1882   -0.5118    4.5243 C   0  0  0  0  0  0  0  0  0  0  0  0
    1.8133   -1.3426    4.5423 Cl  0  0  0  0  0  0  0  0  0  0  0  0
    0.2370    1.4513    4.9427 C   0  0  0  0  0  0  0  0  0  0  0  0
   -1.5940    0.5945    4.7467 C   0  0  0  0  0  0  0  0  0  0  0  0
   -2.8300   -0.0497    6.3962 Cl  0  0  0  0  0  0  0  0  0  0  0  0
  1  2  1  0
  2  3  2  0
  2  4  1  0
  4  5  1  0
  5  6  1  0
  6  7  1  0
  7  8  1  0
  8  9  1  0
  9 10  1  0
 10 11  1  0
 11 12  2  0
 11 30  1  0
 12 13  1  0
 12 14  1  0
 14 15  2  0
 15 16  1  0
 15 29  1  0
 16 17  1  0
 17 18  2  0
 17 19  1  0
 19 20  1  0
 20 21  2  0
 20 22  1  0
 22 23  2  0
 22 27  1  0
 23 24  1  0
 24 25  2  0
 25 26  1  0
 26 27  2  0
 27 28  1  0
 29 30  2  0
 30 31  1  0
M  END
>  <DRUGBANK_ID>  (1) 
DB04642

>  <COMMON_NAME>  (1) 
7-{2,6-DICHLORO-4-[3-(2-CHLORO-BENZOYL)-UREIDO]-PHENOXY}-HEPTANOIC ACID

$$$$
