PF3
     RDKit          3D

 31 34  0  0  0  0  0  0  0  0999 V2000
    1.9355    7.9326   -0.8991 S   0  0  0  0  0  0  0  0  0  0  0  0
    1.9352    6.2247   -0.6727 C   0  0  0  0  0  0  0  0  0  0  0  0
    1.3059    6.0014    0.5438 C   0  0  0  0  0  0  0  0  0  0  0  0
    0.8704    7.0765    1.3116 C   0  0  0  0  0  0  0  0  0  0  0  0
    1.1265    8.2292    0.6171 C   0  0  0  0  0  0  0  0  0  0  0  0
    0.2800    6.9194    2.6384 C   0  0  0  0  0  0  0  0  0  0  0  0
    0.9583    6.3183    3.7120 C   0  0  0  0  0  0  0  0  0  0  0  0
    0.4171    6.2101    4.9910 C   0  0  0  0  0  0  0  0  0  0  0  0
   -0.8785    6.6507    5.2090 C   0  0  0  0  0  0  0  0  0  0  0  0
   -1.5954    7.1741    4.1179 C   0  0  0  0  0  0  0  0  0  0  0  0
   -1.0454    7.2475    2.8353 C   0  0  0  0  0  0  0  0  0  0  0  0
   -1.5047    6.4868    6.5164 C   0  0  0  0  0  0  0  0  0  0  0  0
   -0.9733    7.0824    7.6623 C   0  0  0  0  0  0  0  0  0  0  0  0
   -1.6341    6.9018    8.8645 C   0  0  0  0  0  0  0  0  0  0  0  0
   -2.7537    6.1596    9.0040 N   0  0  0  0  0  0  0  0  0  0  0  0
   -3.2327    5.5681    7.8901 C   0  0  0  0  0  0  0  0  0  0  0  0
   -2.6528    5.7002    6.6435 C   0  0  0  0  0  0  0  0  0  0  0  0
    2.7010    5.2932   -1.5591 C   0  0  0  0  0  0  0  0  0  0  0  0
    3.3008    5.6398   -2.5798 O   0  0  0  0  0  0  0  0  0  0  0  0
    2.8489    3.9492   -1.2160 N   0  0  0  0  0  0  0  0  0  0  0  0
    2.3509    3.2510   -0.0362 C   0  0  2  0  0  0  0  0  0  0  0  0
    0.7729    3.2765   -0.1276 C   0  0  0  0  0  0  0  0  0  0  0  0
    0.1139    2.5481    0.9898 C   0  0  0  0  0  0  0  0  0  0  0  0
   -0.4726    3.0369    1.9180 O   0  0  0  0  0  0  0  0  0  0  0  0
    0.2198    1.2169    0.8278 O   0  0  0  0  0  0  0  0  0  0  0  0
    3.2002    3.6677    1.2177 C   0  0  0  0  0  0  0  0  0  0  0  0
    3.6764    4.9797    1.4363 C   0  0  0  0  0  0  0  0  0  0  0  0
    3.9717    5.4954    2.6928 C   0  0  0  0  0  0  0  0  0  0  0  0
    4.0915    4.6278    3.7502 C   0  0  0  0  0  0  0  0  0  0  0  0
    3.9525    3.2637    3.4995 C   0  0  0  0  0  0  0  0  0  0  0  0
    3.5232    2.7814    2.2414 C   0  0  0  0  0  0  0  0  0  0  0  0
  1  2  1  0
  1  5  1  0
  2  3  2  0
  2 18  1  0
  3  4  1  0
  4  5  2  0
  4  6  1  0
  6  7  2  0
  6 11  1  0
  7  8  1  0
  8  9  2  0
  9 10  1  0
  9 12  1  0
 10 11  2  0
 12 13  2  0
 12 17  1  0
 13 14  1  0
 14 15  2  0
 15 16  1  0
 16 17  2  0
 18 19  2  0
 18 20  1  0
 21 26  1  0
 21 22  1  1
 21 20  1  0
 22 23  1  0
 23 24  2  0
 23 25  1  0
 26 27  2  0
 26 31  1  0
 27 28  1  0
 28 29  2  0
 29 30  1  0
 30 31  2  0
M  END
>  <DRUGBANK_ID>  (1) 
DB03367

>  <SECONDARY_ACCESSION_NUMBERS>  (1) 
EXPT02553

>  <COMMON_NAME>  (1) 
PF-00356231

>  <CAS_NUMBER>  (1) 
766536-21-4

>  <SYNONYMS>  (1) 
(3R)-3-Phenyl-3-[({4-[4-(4-pyridinyl)phenyl]-2-thienyl}carbonyl)amino]propanoic acid; 3-phenyl-3-({[4-(4-pyridin-4-ylphenyl)thien-2-yl]carbonyl}amino)propanoic acid

$$$$
