CCK
     RDKit          3D

 28 31  0  0  0  0  0  0  0  0999 V2000
   -1.3659    0.1302    0.0037 N   0  0  0  0  0  0  0  0  0  0  0  0
   -0.5637    1.2293    0.0382 C   0  0  0  0  0  0  0  0  0  0  0  0
    0.8271    1.1489    0.0379 C   0  0  0  0  0  0  0  0  0  0  0  0
    1.4719   -0.0533    0.0422 N   0  0  0  0  0  0  0  0  0  0  0  0
    0.6673   -1.1497   -0.0034 C   0  0  0  0  0  0  0  0  0  0  0  0
   -0.7200   -1.0611   -0.0357 C   0  0  0  0  0  0  0  0  0  0  0  0
    1.5837    2.3571    0.0292 N   0  0  0  0  0  0  0  0  0  0  0  0
    1.2526   -2.4348   -0.0014 N   0  0  0  0  0  0  0  0  0  0  0  0
    1.5206    3.3839    0.9614 C   0  0  0  0  0  0  0  0  0  0  0  0
    2.4329    4.3461    0.5545 C   0  0  0  0  0  0  0  0  0  0  0  0
    2.9667    3.8299   -0.6413 C   0  0  0  0  0  0  0  0  0  0  0  0
    2.4939    2.6185   -0.9491 N   0  0  0  0  0  0  0  0  0  0  0  0
    2.1293   -2.9266    0.9436 C   0  0  0  0  0  0  0  0  0  0  0  0
    2.4431   -4.2365    0.6198 C   0  0  0  0  0  0  0  0  0  0  0  0
    1.7845   -4.5181   -0.6082 C   0  0  0  0  0  0  0  0  0  0  0  0
    1.0266   -3.4190   -0.9379 C   0  0  0  0  0  0  0  0  0  0  0  0
    2.6216    5.4937    1.3440 C   0  0  0  0  0  0  0  0  0  0  0  0
    1.8931    5.6236    2.5416 C   0  0  0  0  0  0  0  0  0  0  0  0
    0.9842    4.6440    2.9670 C   0  0  0  0  0  0  0  0  0  0  0  0
    0.8043    3.5130    2.1572 C   0  0  0  0  0  0  0  0  0  0  0  0
    0.3030    4.8078    4.1622 N   0  0  0  0  0  0  0  0  0  0  0  0
   -0.6567    3.8487    4.6971 C   0  0  0  0  0  0  0  0  0  0  0  0
   -0.1802    3.3243    6.0425 C   0  0  0  0  0  0  0  0  0  0  0  0
   -2.0317    4.4891    4.8010 C   0  0  0  0  0  0  0  0  0  0  0  0
    3.3080   -5.1907    1.3770 C   0  0  0  0  0  0  0  0  0  0  0  0
    2.5717   -6.4651    1.7147 C   0  0  0  0  0  0  0  0  0  0  0  0
    2.8715   -7.5912    1.3357 O   0  0  0  0  0  0  0  0  0  0  0  0
    1.4998   -6.2792    2.5128 O   0  0  0  0  0  0  0  0  0  0  0  0
  1  2  2  0
  1  6  1  0
  2  3  1  0
  3  4  2  0
  3  7  1  0
  4  5  1  0
  5  6  2  0
  5  8  1  0
  7  9  1  0
  7 12  1  0
  8 13  1  0
  8 16  1  0
  9 10  2  0
  9 20  1  0
 10 11  1  0
 10 17  1  0
 11 12  2  0
 13 14  2  0
 14 15  1  0
 14 25  1  0
 15 16  2  0
 17 18  2  0
 18 19  1  0
 19 20  2  0
 19 21  1  0
 21 22  1  0
 22 23  1  0
 22 24  1  0
 25 26  1  0
 26 27  2  0
 26 28  1  0
M  END
>  <DRUGBANK_ID>  (1) 
DB07546

>  <COMMON_NAME>  (1) 
[1-(6-{6-[(1-methylethyl)amino]-1H-indazol-1-yl}pyrazin-2-yl)-1H-pyrrol-3-yl]acetic acid

$$$$
