
     RDKit          3D

 17 17  0  0  0  0  0  0  0  0999 V2000
   -1.0498    0.5312    0.1734 N   0  0  0  0  0  0  0  0  0  0  0  0
   -2.2548    1.0873    0.5605 C   0  0  0  0  0  0  0  0  0  0  0  0
   -2.3852    2.5790    0.8923 C   0  0  0  0  0  0  0  0  0  0  0  0
   -3.7448    3.1163    1.4493 C   0  0  0  0  0  0  0  0  0  0  0  0
   -3.5445    3.6725    2.8829 C   0  0  0  0  0  0  0  0  0  0  0  0
   -2.5225    4.7965    2.9924 C   0  0  0  0  0  0  0  0  0  0  0  0
   -4.2038    4.2313    0.4952 C   0  0  0  0  0  0  0  0  0  0  0  0
   -4.9085    2.1031    1.5228 C   0  0  0  0  0  0  0  0  0  0  0  0
   -1.4226    3.3180    0.6934 O   0  0  0  0  0  0  0  0  0  0  0  0
   -3.2552    0.3971    0.7232 O   0  0  0  0  0  0  0  0  0  0  0  0
   -0.8998   -0.8891   -0.2088 C   0  0  2  0  0  0  0  0  0  0  0  0
   -1.8738   -1.9676    0.3208 C   0  0  0  0  0  0  0  0  0  0  0  0
   -1.5776   -2.9766    0.9409 O   0  0  0  0  0  0  0  0  0  0  0  0
   -3.1465   -1.7711   -0.0926 O   0  0  0  0  0  0  0  0  0  0  0  0
    0.5477   -1.1478    0.2300 C   0  0  0  0  0  0  0  0  0  0  0  0
    1.2710    0.1468   -0.1402 C   0  0  0  0  0  0  0  0  0  0  0  0
    0.2169    1.2370    0.0256 C   0  0  0  0  0  0  0  0  0  0  0  0
  2  1  1  0
  3  2  1  0
  4  3  1  0
  5  4  1  0
  6  5  1  0
  7  4  1  0
  8  4  1  0
  9  3  2  0
 10  2  2  0
 11  1  1  0
 11 12  1  1
 13 12  2  0
 14 12  1  0
 15 11  1  0
 16 15  1  0
 16 17  1  0
 17  1  1  0
M  END
>  <DRUGBANK_ID>  (1) 
DB05814

>  <COMMON_NAME>  (1) 
GPI-1485

>  <CAS_NUMBER>  (1) 
186268-78-0

>  <UNII>  (1) 
0709BVY57W

$$$$
