
     RDKit          3D

 17 17  0  0  0  0  0  0  0  0999 V2000
    0.8449   -0.1020   -0.0597 C   0  0  0  0  0  0  0  0  0  0  0  0
    0.4294    0.4898   -1.3912 C   0  0  0  0  0  0  0  0  0  0  0  0
   -0.2420   -0.1604   -2.1929 O   0  0  0  0  0  0  0  0  0  0  0  0
    0.7043    1.8152   -1.6633 N   0  0  0  0  0  0  0  0  0  0  0  0
    1.6093    2.6754   -1.0033 C   0  0  0  0  0  0  0  0  0  0  0  0
    2.8010    2.1316   -0.4961 C   0  0  0  0  0  0  0  0  0  0  0  0
    3.7390    2.9077    0.1718 C   0  0  0  0  0  0  0  0  0  0  0  0
    3.5652    4.2806    0.2459 C   0  0  0  0  0  0  0  0  0  0  0  0
    2.4492    4.8444   -0.3852 C   0  0  0  0  0  0  0  0  0  0  0  0
    1.3885    4.0769   -0.9167 C   0  0  0  0  0  0  0  0  0  0  0  0
    0.2013    4.7007   -1.3591 N   0  0  0  0  0  0  0  0  0  0  0  0
   -0.0926    6.0829   -1.0884 C   0  0  0  0  0  0  0  0  0  0  0  0
   -0.2193    6.7594   -2.3280 N   0  0  0  0  0  0  0  0  0  0  0  0
   -1.2743    6.3301   -0.3327 N   0  0  0  0  0  0  0  0  0  0  0  0
    4.5707    5.0696    1.0110 C   0  0  0  0  0  0  0  0  0  0  0  0
    4.3655    6.3944    1.1159 O   0  0  0  0  0  0  0  0  0  0  0  0
    5.5196    4.5263    1.5643 O   0  0  0  0  0  0  0  0  0  0  0  0
  1  2  1  0
  2  3  2  0
  2  4  1  0
  4  5  1  0
  5  6  2  0
  5 10  1  0
  6  7  1  0
  7  8  2  0
  8  9  1  0
  8 15  1  0
  9 10  2  0
 10 11  1  0
 11 12  1  0
 12 13  1  0
 12 14  1  0
 15 16  1  0
 15 17  2  0
M  END
>  <DRUGBANK_ID>  (1) 
DB03342

>  <SECONDARY_ACCESSION_NUMBERS>  (1) 
EXPT02961

>  <COMMON_NAME>  (1) 
4-(Acetylamino)-3-Guanidinobenzoic Acid

>  <UNII>  (1) 
V02KF5948M

$$$$
