9BD
     RDKit          3D

 27 30  0  0  0  0  0  0  0  0999 V2000
    1.7966    0.1163   -0.7794 C   0  0  0  0  0  0  0  0  0  0  0  0
    0.5125   -1.9531   -2.1657 C   0  0  0  0  0  0  0  0  0  0  0  0
   -0.0874    3.3187   -0.2844 C   0  0  0  0  0  0  0  0  0  0  0  0
   -0.3492    0.4034    0.2189 C   0  0  0  0  0  0  0  0  0  0  0  0
    0.1098    3.1695    3.4699 C   0  0  0  0  0  0  0  0  0  0  0  0
   -0.2200    4.9768    1.9210 C   0  0  0  0  0  0  0  0  0  0  0  0
   -0.5652    2.8061    7.8433 C   0  0  0  0  0  0  0  0  0  0  0  0
    0.5546   -1.0692   -1.0969 O   0  0  0  0  0  0  0  0  0  0  0  0
   -0.0032   -0.9085   -3.0692 C   0  0  0  0  0  0  0  0  0  0  0  0
    0.0873    0.4932   -2.5796 O   0  0  0  0  0  0  0  0  0  0  0  0
   -0.3379    1.0315   -1.2544 C   0  0  0  0  0  0  0  0  0  0  0  0
   -0.1339    2.4620   -1.3994 C   0  0  0  0  0  0  0  0  0  0  0  0
   -0.0931    2.7417    1.0226 C   0  0  0  0  0  0  0  0  0  0  0  0
   -0.2042    1.3468    1.2611 C   0  0  0  0  0  0  0  0  0  0  0  0
    0.4591   -0.9711    0.9149 O   0  0  0  0  0  0  0  0  0  0  0  0
    1.7396   -2.0750    0.3840 C   0  0  0  0  0  0  0  0  0  0  0  0
   -0.0287    3.6454    2.1420 C   0  0  0  0  0  0  0  0  0  0  0  0
   -0.1200    4.0564    4.5237 C   0  0  0  0  0  0  0  0  0  0  0  0
   -0.4535    5.3354    4.3320 N   0  0  0  0  0  0  0  0  0  0  0  0
   -0.4551    5.8278    3.0590 C   0  0  0  0  0  0  0  0  0  0  0  0
   -0.2433    5.4418    0.5920 C   0  0  0  0  0  0  0  0  0  0  0  0
   -0.0749    4.6353   -0.4979 N   0  0  0  0  0  0  0  0  0  0  0  0
   -0.6652    7.1579    2.9135 N   0  0  0  0  0  0  0  0  0  0  0  0
   -0.0587    3.4935    5.8241 N   0  0  0  0  0  0  0  0  0  0  0  0
   -1.0538    3.5240    6.7738 C   0  0  0  0  0  0  0  0  0  0  0  0
    0.6836    2.3122    7.5716 N   0  0  0  0  0  0  0  0  0  0  0  0
    0.9500    2.7194    6.3506 C   0  0  0  0  0  0  0  0  0  0  0  0
  1  8  1  0
  2  8  1  0
  2  9  1  0
  3 12  2  0
  3 13  1  0
  3 22  1  0
  4 11  2  0
  4 14  1  0
  4 15  1  0
  5 17  2  0
  5 18  1  0
  6 17  1  0
  6 20  2  0
  6 21  1  0
  7 25  2  0
  7 26  1  0
  9 10  1  0
 10 11  1  0
 11 12  1  0
 13 14  2  0
 13 17  1  0
 15 16  1  0
 18 19  2  0
 18 24  1  0
 19 20  1  0
 20 23  1  0
 21 22  2  0
 24 25  1  0
 24 27  1  0
 26 27  2  0
M  END
>  <DRUGBANK_ID>  (1) 
DB07300

>  <COMMON_NAME>  (1) 
2-(1H-imidazol-1-yl)-9-methoxy-8-(2-methoxyethoxy)benzo[c][2,7]naphthyridin-4-amine

$$$$
