
     RDKit          3D

 25 27  0  0  1  0  0  0  0  0999 V2000
    1.0615    0.0852   -0.0882 C   0  0  0  0  0  0  0  0  0  0  0  0
    0.5516   -0.5065   -1.3050 N   0  0  0  0  0  0  0  0  0  0  0  0
   -0.3083   -1.6694   -1.2619 C   0  0  0  0  0  0  0  0  0  0  0  0
    0.8577    0.1017   -2.5118 C   0  0  0  0  0  0  0  0  0  0  0  0
    2.1332    0.5388   -2.7216 N   0  0  0  0  0  0  0  0  0  0  0  0
    2.4500    1.1218   -3.8980 C   0  0  0  0  0  0  0  0  0  0  0  0
    1.6422    1.4310   -4.9374 N   0  0  0  0  0  0  0  0  0  0  0  0
    0.3862    1.0293   -4.6816 C   0  0  0  0  0  0  0  0  0  0  0  0
   -0.0780    0.3632   -3.5470 C   0  0  0  0  0  0  0  0  0  0  0  0
   -1.4409    0.1515   -3.6447 N   0  0  0  0  0  0  0  0  0  0  0  0
   -1.7912    0.6788   -4.7984 C   0  0  0  0  0  0  0  0  0  0  0  0
   -0.7226    1.2254   -5.4629 N   0  0  0  0  0  0  0  0  0  0  0  0
   -0.8177    1.9697   -6.7060 C   0  0  2  0  0  0  0  0  0  0  0  0
   -0.0350    1.3370   -7.7442 O   0  0  0  0  0  0  0  0  0  0  0  0
    0.5471    2.3571   -8.6050 C   0  0  2  0  0  0  0  0  0  0  0  0
    2.0924    2.3049   -8.5697 C   0  0  0  0  0  0  0  0  0  0  0  0
    2.5931    1.0462   -9.0561 O   0  0  0  0  0  0  0  0  0  0  0  0
    1.9679   -0.2125   -8.0474 P   0  0  0  0  0  0  0  0  0  0  0  0
    1.9159   -1.0823   -9.4332 O   0  0  0  0  0  0  0  0  0  0  0  0
    3.5417   -0.4986   -7.6963 O   0  0  0  0  0  0  0  0  0  0  0  0
    1.4084   -1.3391   -7.1446 O   0  0  0  0  0  0  0  0  0  0  0  0
   -0.0084    3.7027   -8.1205 C   0  0  1  0  0  0  0  0  0  0  0  0
   -1.1881    4.0789   -8.9164 N   0  0  0  0  0  0  0  0  0  0  0  0
   -0.3419    3.4195   -6.6499 C   0  0  1  0  0  0  0  0  0  0  0  0
   -1.3012    4.3307   -6.1228 O   0  0  0  0  0  0  0  0  0  0  0  0
  1  2  1  0
  2  3  1  0
  2  4  1  0
  4  5  2  0
  4  9  1  0
  5  6  1  0
  6  7  2  0
  7  8  1  0
  8  9  2  0
  8 12  1  0
  9 10  1  0
 10 11  2  0
 11 12  1  0
 13 12  1  1
 13 14  1  0
 13 24  1  0
 14 15  1  0
 15 16  1  1
 15 22  1  0
 16 17  1  0
 17 18  1  0
 18 19  1  0
 18 20  1  0
 18 21  2  0
 22 24  1  0
 22 23  1  6
 24 25  1  6
M  END
>  <DRUGBANK_ID>  (1) 
DB04602

>  <COMMON_NAME>  (1) 
PUROMYCIN AMINONUCLEOSIDE-5'-MONOPHOSPHATE

$$$$
