
     RDKit          3D

 12 11  0  0  1  0  0  0  0  0999 V2000
   -1.2676    3.3585   -0.6786 C   0  0  0  0  0  0  0  0  0  0  0  0
   -1.5300    1.8568   -1.0869 C   0  0  1  0  0  0  0  0  0  0  0  0
   -0.8967    1.3783   -2.4113 C   0  0  1  0  0  0  0  0  0  0  0  0
    0.6554    1.2130   -2.4932 C   0  0  2  0  0  0  0  0  0  0  0  0
    1.4574    1.7381   -1.2906 C   0  0  1  0  0  0  0  0  0  0  0  0
    2.0866    0.8101   -0.2666 C   0  0  0  0  0  0  0  0  0  0  0  0
    3.1183    1.1023    0.3555 O   0  0  0  0  0  0  0  0  0  0  0  0
    2.1737    2.9080   -1.6544 O   0  0  0  0  0  0  0  0  0  0  0  0
    1.0701    1.9035   -3.6982 O   0  0  0  0  0  0  0  0  0  0  0  0
   -1.4753    0.1027   -2.7714 O   0  0  0  0  0  0  0  0  0  0  0  0
   -1.3311    0.8643   -0.0652 O   0  0  0  0  0  0  0  0  0  0  0  0
    0.0299    3.9327   -0.5820 O   0  0  0  0  0  0  0  0  0  0  0  0
  1  2  1  0
  1 12  1  0
  2  3  1  0
  2 11  1  1
  3 10  1  1
  4  9  1  6
  4  5  1  0
  4  3  1  0
  5  6  1  0
  5  8  1  6
  6  7  2  0
M  END
>  <DRUGBANK_ID>  (1) 
DB12970

>  <COMMON_NAME>  (1) 
Levoglucose

>  <CAS_NUMBER>  (1) 
921-60-8

>  <UNII>  (1) 
02833ISA66

>  <SYNONYMS>  (1) 
L-glucose; L(-)-Glucose; Levoglucose

$$$$
