
     RDKit          3D

 40 44  0  0  1  0  0  0  0  0999 V2000
   -0.8665   -3.9289   -0.0753 C   0  0  0  0  0  0  0  0  0  0  0  0
   -0.8381   -3.5318    1.2832 O   0  0  0  0  0  0  0  0  0  0  0  0
   -2.0922   -3.5586    1.8145 C   0  0  0  0  0  0  0  0  0  0  0  0
   -2.8879   -4.7229    1.8620 C   0  0  0  0  0  0  0  0  0  0  0  0
   -3.9869   -4.8346    2.7212 C   0  0  0  0  0  0  0  0  0  0  0  0
   -4.4136   -3.7200    3.3960 C   0  0  0  0  0  0  0  0  0  0  0  0
   -3.8089   -2.4909    3.0903 C   0  0  0  0  0  0  0  0  0  0  0  0
   -2.5242   -2.4087    2.4299 C   0  0  0  0  0  0  0  0  0  0  0  0
   -1.6560   -1.1477    2.5984 C   0  0  2  0  0  0  0  0  0  0  0  0
   -0.2204   -0.8338    3.0572 C   0  0  0  0  0  0  0  0  0  0  0  0
    0.0843    0.2169    4.4579 N   0  0  0  0  0  0  0  0  0  0  0  0
   -0.8537    0.6479    5.7465 C   0  0  0  0  0  0  0  0  0  0  0  0
   -0.3721    0.7461    7.1420 C   0  0  0  0  0  0  0  0  0  0  0  0
   -1.8268    0.4246    8.2222 C   0  0  0  0  0  0  0  0  0  0  0  0
   -1.7654   -0.1563    9.6967 C   0  0  0  0  0  0  0  0  0  0  0  0
   -3.0334    0.0775    7.3312 C   0  0  0  0  0  0  0  0  0  0  0  0
   -1.5381   -0.6115    7.0530 S   0  0  0  0  0  0  0  0  0  0  0  0
   -4.3375   -0.7910    7.3278 C   0  0  0  0  0  0  0  0  0  0  0  0
   -4.5636   -2.0825    6.9675 N   0  0  0  0  0  0  0  0  0  0  0  0
   -5.9573   -2.2688    6.8720 C   0  0  0  0  0  0  0  0  0  0  0  0
   -6.5393   -1.0974    7.2586 C   0  0  0  0  0  0  0  0  0  0  0  0
   -5.5638   -0.1725    7.4927 O   0  0  0  0  0  0  0  0  0  0  0  0
    1.1399    0.4053    7.2713 C   0  0  0  0  0  0  0  0  0  0  0  0
    1.6089    0.1175    8.4145 O   0  0  0  0  0  0  0  0  0  0  0  0
    1.9494    0.2401    6.0373 N   0  0  0  0  0  0  0  0  0  0  0  0
    1.4453    0.0082    4.7581 C   0  0  0  0  0  0  0  0  0  0  0  0
    2.0887   -0.6748    3.9483 O   0  0  0  0  0  0  0  0  0  0  0  0
    3.4903    0.1474    6.1312 C   0  0  0  0  0  0  0  0  0  0  0  0
    3.7685    1.5333    6.7341 C   0  0  0  0  0  0  0  0  0  0  0  0
    4.0717   -0.9386    7.1017 C   0  0  0  0  0  0  0  0  0  0  0  0
    4.5571    0.1053    4.9029 C   0  0  0  0  0  0  0  0  0  0  0  0
    4.2291   -0.1710    3.6320 O   0  0  0  0  0  0  0  0  0  0  0  0
    5.7575    0.2946    5.1096 O   0  0  0  0  0  0  0  0  0  0  0  0
   -2.1449   -0.7780    3.8246 O   0  0  0  0  0  0  0  0  0  0  0  0
   -1.7444   -1.7139    4.8936 C   0  0  0  0  0  0  0  0  0  0  0  0
   -0.1796   -2.1278    5.4921 C   0  0  0  0  0  0  0  0  0  0  0  0
    0.0986   -2.7935    6.8600 C   0  0  0  0  0  0  0  0  0  0  0  0
   -0.6416   -3.9669    6.8467 O   0  0  0  0  0  0  0  0  0  0  0  0
   -2.0166   -3.6581    6.6227 C   0  0  0  0  0  0  0  0  0  0  0  0
   -2.3468   -2.9978    5.2918 C   0  0  0  0  0  0  0  0  0  0  0  0
  1  2  1  0
  2  3  1  0
  3  4  2  0
  3  8  1  0
  4  5  1  0
  5  6  2  0
  6  7  1  0
  7  8  2  0
  9 34  1  0
  9 10  1  1
  9  8  1  0
 10 11  1  0
 11 12  1  0
 11 26  1  0
 12 13  2  0
 12 17  1  0
 13 14  1  0
 13 23  1  0
 14 15  1  0
 14 16  2  0
 16 17  1  0
 16 18  1  0
 18 19  2  0
 18 22  1  0
 19 20  1  0
 20 21  2  0
 21 22  1  0
 23 24  2  0
 23 25  1  0
 25 26  1  0
 25 28  1  0
 26 27  2  0
 28 29  1  0
 28 30  1  0
 28 31  1  0
 31 32  1  0
 31 33  2  0
 34 35  1  0
 35 36  1  0
 35 40  1  0
 36 37  1  0
 37 38  1  0
 38 39  1  0
 39 40  1  0
M  END
>  <DRUGBANK_ID>  (1) 
DB16166

>  <COMMON_NAME>  (1) 
Firsocostat

>  <CAS_NUMBER>  (1) 
1434635-54-7

>  <UNII>  (1) 
XE10NJQ95M

>  <SYNONYMS>  (1) 
Firsocostat

$$$$
