
     RDKit          3D

 17 17  0  0  1  0  0  0  0  0999 V2000
    1.0072    0.4516   -0.1765 C   0  0  0  0  0  0  0  0  0  0  0  0
    1.8102   -0.1223    2.7496 C   0  0  0  0  0  0  0  0  0  0  0  0
    3.3036    0.0117    2.3391 C   0  0  1  0  0  0  0  0  0  0  0  0
   -0.1786    1.3592   -0.0975 C   0  0  2  0  0  0  0  0  0  0  0  0
    0.5761   -0.9305    0.2285 C   0  0  2  0  0  0  0  0  0  0  0  0
   -0.0122    2.4277    1.0187 C   0  0  1  0  0  0  0  0  0  0  0  0
    3.7078    0.1270    0.8393 C   0  0  0  0  0  0  0  0  0  0  0  0
    1.2170    3.3834    0.8443 C   0  0  0  0  0  0  0  0  0  0  0  0
    3.8315    1.2177    3.0543 N   0  0  0  0  0  0  0  0  0  0  0  0
   -1.2229    3.2655    1.1172 N   0  0  0  0  0  0  0  0  0  0  0  0
   -0.8006   -0.8993   -0.2322 N   0  0  0  0  0  0  0  0  0  0  0  0
    4.1916    1.1024    0.2783 O   0  0  0  0  0  0  0  0  0  0  0  0
    3.3689   -0.9535    0.1078 O   0  0  0  0  0  0  0  0  0  0  0  0
    1.1734    4.5652    0.5760 O   0  0  0  0  0  0  0  0  0  0  0  0
    2.4060    2.7922    1.0696 O   0  0  0  0  0  0  0  0  0  0  0  0
   -1.2629    0.4446    0.1580 O   0  0  0  0  0  0  0  0  0  0  0  0
    0.6749   -1.3703    2.0119 S   0  0  0  0  0  0  0  0  0  0  0  0
  3  2  1  0
  3  9  1  1
  4  1  1  1
  4  6  1  0
  5  1  1  0
  5 17  1  1
  6 10  1  6
  7  3  1  0
  8  6  1  0
 11  5  1  0
 12  7  2  0
 13  7  1  0
 14  8  2  0
 15  8  1  0
 16  4  1  0
 16 11  1  0
 17  2  1  0
M  END
>  <DRUGBANK_ID>  (1) 
DB04323

>  <SECONDARY_ACCESSION_NUMBERS>  (1) 
EXPT00242

>  <COMMON_NAME>  (1) 
2-Amino-3-(Cystein-S-Yl)-Isoxazolidin-5-Yl-Acetic Acid

$$$$
