
     RDKit          3D

 23 25  0  0  0  0  0  0  0  0999 V2000
   -1.2806    1.1703    0.5556 C   0  0  0  0  0  0  0  0  0  0  0  0
   -2.4486    0.5353    0.1363 C   0  0  0  0  0  0  0  0  0  0  0  0
   -2.4385   -0.8353   -0.0014 C   0  0  0  0  0  0  0  0  0  0  0  0
   -1.2152   -1.4763   -0.0628 C   0  0  0  0  0  0  0  0  0  0  0  0
   -0.0669   -0.7006   -0.2501 C   0  0  0  0  0  0  0  0  0  0  0  0
   -0.0726    0.6139    0.1526 C   0  0  0  0  0  0  0  0  0  0  0  0
    1.1900   -1.2803   -0.7441 C   0  0  0  0  0  0  0  0  0  0  0  0
    2.3454   -0.5927   -0.3730 N   0  0  0  0  0  0  0  0  0  0  0  0
    2.3469    0.7702   -0.1222 N   0  0  0  0  0  0  0  0  0  0  0  0
    1.1948    1.3651    0.0133 C   0  0  0  0  0  0  0  0  0  0  0  0
    3.6088   -1.3249   -0.2406 C   0  0  0  0  0  0  0  0  0  0  0  0
    3.7576   -2.1972    1.0631 C   0  0  0  0  0  0  0  0  0  0  0  0
    2.7316   -3.2373    1.3084 N   0  0  0  0  0  0  0  0  0  0  0  0
    3.0833   -4.1794    2.3647 C   0  0  0  0  0  0  0  0  0  0  0  0
    1.4703   -2.6680    1.7595 C   0  0  0  0  0  0  0  0  0  0  0  0
    1.1484   -2.4030   -1.2735 O   0  0  0  0  0  0  0  0  0  0  0  0
    1.1524    2.8871   -0.0071 C   0  0  0  0  0  0  0  0  0  0  0  0
    0.3934    3.5031   -1.1811 C   0  0  0  0  0  0  0  0  0  0  0  0
   -0.9733    3.3031   -1.4156 C   0  0  0  0  0  0  0  0  0  0  0  0
   -1.7637    4.0334   -2.2787 C   0  0  0  0  0  0  0  0  0  0  0  0
   -1.1332    4.8848   -3.1387 C   0  0  0  0  0  0  0  0  0  0  0  0
    0.2606    4.9825   -3.0903 C   0  0  0  0  0  0  0  0  0  0  0  0
    1.0143    4.3573   -2.0793 C   0  0  0  0  0  0  0  0  0  0  0  0
  1  2  2  0
  2  3  1  0
  3  4  2  0
  4  5  1  0
  5  6  2  0
  5  7  1  0
  6  1  1  0
  6 10  1  0
  7  8  1  0
  7 16  2  0
  8  9  1  0
  8 11  1  0
  9 10  2  0
 10 17  1  0
 11 12  1  0
 12 13  1  0
 13 14  1  0
 13 15  1  0
 17 18  1  0
 18 19  2  0
 19 20  1  0
 20 21  2  0
 21 22  1  0
 22 23  2  0
 23 18  1  0
M  END
>  <DRUGBANK_ID>  (1) 
DB13349

>  <COMMON_NAME>  (1) 
Talastine

>  <CAS_NUMBER>  (1) 
16188-61-7

>  <UNII>  (1) 
49AB2PA48B

>  <SYNONYMS>  (1) 
Talastine

$$$$
