
     RDKit          3D

 16 15  0  0  0  0  0  0  0  0999 V2000
    1.2216    0.0736   -0.1135 C   0  0  0  0  0  0  0  0  0  0  0  0
   -1.6047   -2.5285    2.8760 C   0  0  0  0  0  0  0  0  0  0  0  0
    0.6751   -1.3285    0.1608 C   0  0  0  0  0  0  0  0  0  0  0  0
   -1.0100   -1.1444    2.6701 C   0  0  0  0  0  0  0  0  0  0  0  0
    1.1206   -1.9035    1.5045 C   0  0  0  0  0  0  0  0  0  0  0  0
    0.5171   -1.2291    2.7411 C   0  0  0  0  0  0  0  0  0  0  0  0
    1.1506    2.5494    0.6657 C   0  0  0  0  0  0  0  0  0  0  0  0
   -1.6144   -2.1718    5.3923 C   0  0  0  0  0  0  0  0  0  0  0  0
    0.9707    1.0927    0.9972 C   0  0  0  0  0  0  0  0  0  0  0  0
   -1.2017   -3.0948    4.2417 C   0  0  0  0  0  0  0  0  0  0  0  0
    0.4264    3.0136   -0.5818 C   0  0  0  0  0  0  0  0  0  0  0  0
   -1.1009    3.0367   -0.5589 N   0  0  0  0  0  0  0  0  0  0  0  0
   -3.1257   -2.0274    5.4318 C   0  0  0  0  0  0  0  0  0  0  0  0
   -1.5936    3.8768    0.5789 C   0  0  0  0  0  0  0  0  0  0  0  0
   -1.5044    3.6244   -1.7457 O   0  0  0  0  0  0  0  0  0  0  0  0
   -1.7475    1.6818   -0.5010 C   0  0  0  0  0  0  0  0  0  0  0  0
  1  9  1  0
  2 10  1  0
  3  1  1  0
  4  2  1  0
  5  3  1  0
  6  4  1  0
  6  5  1  0
  7 11  1  0
  8 13  1  0
  9  7  1  0
 10  8  1  0
 11 12  1  0
 12 14  1  0
 12 15  1  0
 12 16  1  0
M  CHG  2  12   1  15  -1
M  END
>  <DRUGBANK_ID>  (1) 
DB04147

>  <SECONDARY_ACCESSION_NUMBERS>  (1) 
EXPT02013

>  <COMMON_NAME>  (1) 
Dodecyldimethylamine N-oxide

>  <CAS_NUMBER>  (1) 
1643-20-5

>  <UNII>  (1) 
4F6FC4MI8W

>  <SYNONYMS>  (1) 
Dimethylaurylamine oxide; Dimethyldodecylamine N-oxide; Dimethyldodecylamine oxide; Dodecyl(dimethyl)amine oxide; Dodecyldimethylamine oxide; Lauramine oxide; Lauryl dimethylamine-N-oxide; lauryldimethylamine N-oxide; Lauryldimethylamine oxide; n-Dodecyldimethylamine oxide; N,N-Dimethyldodecylamine oxide

$$$$
