
     RDKit          3D

 34 36  0  0  0  0  0  0  0  0999 V2000
    7.4623    0.9986    3.1169 C   0  0  1  0  0  0  0  0  0  0  0  0
    6.4215    1.9444    3.0556 O   0  0  0  0  0  0  0  0  0  0  0  0
    9.0158    1.6712    3.3222 C   0  0  1  0  0  0  0  0  0  0  0  0
    7.7605    0.5751    5.2781 C   0  0  2  0  0  0  0  0  0  0  0  0
    7.8454    3.0159    6.7998 C   0  0  1  0  0  0  0  0  0  0  0  0
    6.5861    3.1782    2.3326 C   0  0  1  0  0  0  0  0  0  0  0  0
    9.1860    2.8299    2.3761 C   0  0  2  0  0  0  0  0  0  0  0  0
    7.1516    2.1416    5.6794 C   0  0  1  0  0  0  0  0  0  0  0  0
    8.0250    3.8584    2.4522 C   0  0  2  0  0  0  0  0  0  0  0  0
    5.2366    3.0309    9.3756 C   0  0  1  0  0  0  0  0  0  0  0  0
    5.5441    3.2504    7.8783 C   0  0  1  0  0  0  0  0  0  0  0  0
    7.0792    0.0626    4.1545 O   0  0  0  0  0  0  0  0  0  0  0  0
    6.3104    2.0866    9.9986 C   0  0  2  0  0  0  0  0  0  0  0  0
    6.8485    3.8007    7.5708 O   0  0  0  0  0  0  0  0  0  0  0  0
    6.5151    0.7080    9.2700 C   0  0  2  0  0  0  0  0  0  0  0  0
    8.1561   -0.3229    6.4407 C   0  0  2  0  0  0  0  0  0  0  0  0
    8.8050    2.2064    7.7272 C   0  0  1  0  0  0  0  0  0  0  0  0
    5.2249    1.9536    7.4216 O   0  0  0  0  0  0  0  0  0  0  0  0
    9.1566    0.6372    7.2823 C   0  0  0  0  0  0  0  0  0  0  0  0
    6.1208    0.9539    7.8231 C   0  0  0  0  0  0  0  0  0  0  0  0
    9.5805    2.1928    4.6268 N   0  0  0  0  0  0  0  0  0  0  0  0
    5.9648    2.8814    0.9625 C   0  0  2  0  0  0  0  0  0  0  0  0
    6.2136    1.7373   11.4153 N   0  0  0  0  0  0  0  0  0  0  0  0
    5.1326    4.2775   10.0500 O   0  0  0  0  0  0  0  0  0  0  0  0
    9.3392    2.2209    1.1273 O   0  0  0  0  0  0  0  0  0  0  0  0
    8.2682    4.5784    3.7112 O   0  0  0  0  0  0  0  0  0  0  0  0
    6.7948    3.2233    4.8802 O   0  0  0  0  0  0  0  0  0  0  0  0
    8.7645   -1.6639    6.1952 N   0  0  0  0  0  0  0  0  0  0  0  0
    9.5902    2.9500    8.7578 N   0  0  0  0  0  0  0  0  0  0  0  0
    5.5092   -0.2795    9.5124 O   0  0  0  0  0  0  0  0  0  0  0  0
    4.9883    1.8281    1.0884 O   0  0  0  0  0  0  0  0  0  0  0  0
    7.9372    0.0268    9.8313 C   0  0  0  0  0  0  0  0  0  0  0  0
    7.2783    2.4156   12.1369 C   0  0  0  0  0  0  0  0  0  0  0  0
    6.9390    2.4448   -0.0940 C   0  0  0  0  0  0  0  0  0  0  0  0
  2  1  1  0
  3  1  1  0
  3 21  1  1
  4 12  1  1
  5  8  1  0
  5 14  1  1
  6  2  1  1
  7  3  1  0
  7 25  1  6
  8  4  1  0
  8 27  1  6
  9  6  1  0
  9  7  1  0
  9 26  1  1
 10 11  1  0
 10 24  1  1
 11 14  1  1
  1 12  1  1
 13 10  1  0
 13 23  1  1
 15 20  1  0
 15 30  1  0
 15 32  1  6
 15 13  1  0
 16  4  1  0
 16 28  1  6
 17  5  1  0
 17 29  1  6
 17 19  1  0
 18 11  1  0
 19 16  1  0
 20 18  1  0
 22 31  1  0
 22  6  1  0
 33 23  1  0
 22 34  1  6
M  END
>  <DRUGBANK_ID>  (1) 
DB04263

>  <SECONDARY_ACCESSION_NUMBERS>  (1) 
EXPT01586

>  <COMMON_NAME>  (1) 
Geneticin

>  <CAS_NUMBER>  (1) 
49863-47-0

>  <UNII>  (1) 
A08F5XTI6G

$$$$
