RSS
     RDKit          3D

 32 34  0  0  0  0  0  0  0  0999 V2000
    2.9177    3.7929    0.8826 C   0  0  0  0  0  0  0  0  0  0  0  0
    3.3830    4.2613   -0.1501 O   0  0  0  0  0  0  0  0  0  0  0  0
    2.8133    4.5641    1.9612 O   0  0  0  0  0  0  0  0  0  0  0  0
    2.4669    2.3662    1.1660 C   0  0  0  0  0  0  0  0  0  0  0  0
    2.7935    1.6506   -0.0664 C   0  0  2  0  0  0  0  0  0  0  0  0
    2.4180    0.2764   -0.0581 C   0  0  0  0  0  0  0  0  0  0  0  0
    1.3099   -0.0554   -0.4409 O   0  0  0  0  0  0  0  0  0  0  0  0
    3.4039   -0.4535    0.5448 N   0  0  0  0  0  0  0  0  0  0  0  0
    5.2306   -0.1911    0.5495 C   0  0  2  0  0  0  0  0  0  0  0  0
    6.2620    1.7802    0.0639 C   0  0  0  0  0  0  0  0  0  0  0  0
    7.2861    2.4315    0.2874 O   0  0  0  0  0  0  0  0  0  0  0  0
    6.0363    3.0640   -1.1719 N   0  0  0  0  0  0  0  0  0  0  0  0
    6.5362    3.4983   -2.9060 C   0  0  0  0  0  0  0  0  0  0  0  0
    7.4439    2.4744   -3.5454 C   0  0  0  0  0  0  0  0  0  0  0  0
    7.1452    1.2798   -2.8810 C   0  0  0  0  0  0  0  0  0  0  0  0
    5.7805    0.8555   -3.1940 C   0  0  0  0  0  0  0  0  0  0  0  0
    5.2770    0.2628   -4.4152 C   0  0  0  0  0  0  0  0  0  0  0  0
    5.8793   -1.1139   -4.2233 C   0  0  0  0  0  0  0  0  0  0  0  0
    5.2603   -1.9965   -3.2086 N   0  0  0  0  0  0  0  0  0  0  0  0
    4.2090    1.6971   -0.0104 C   0  0  0  0  0  0  0  0  0  0  0  0
    4.8056    0.8324   -1.2012 C   0  0  0  0  0  0  0  0  0  0  0  0
    3.7594    1.6904   -2.5300 C   0  0  0  0  0  0  0  0  0  0  0  0
    6.7310    0.1241   -1.0519 C   0  0  0  0  0  0  0  0  0  0  0  0
    4.8977   -2.1264    0.2699 C   0  0  0  0  0  0  0  0  0  0  0  0
    4.5826   -2.6703   -1.1818 C   0  0  0  0  0  0  0  0  0  0  0  0
    5.4920   -2.0727   -1.9186 C   0  0  0  0  0  0  0  0  0  0  0  0
    4.1053   -3.6056   -2.1357 C   0  0  0  0  0  0  0  0  0  0  0  0
    4.4991   -3.0983   -3.4126 C   0  0  0  0  0  0  0  0  0  0  0  0
    3.4656   -4.8501   -2.1416 C   0  0  0  0  0  0  0  0  0  0  0  0
    4.2357   -3.6870   -4.6304 C   0  0  0  0  0  0  0  0  0  0  0  0
    3.2252   -5.4771   -3.3751 C   0  0  0  0  0  0  0  0  0  0  0  0
    3.5992   -4.9019   -4.5871 C   0  0  0  0  0  0  0  0  0  0  0  0
  1  2  2  0
  1  3  1  0
  1  4  1  0
  5 20  1  1
  5  6  1  0
  5  4  1  0
  6  7  2  0
  6  8  1  0
  9  8  1  6
  9 10  1  0
  9 24  1  0
 10 11  2  0
 10 12  1  0
 12 13  1  0
 13 14  1  0
 14 15  1  0
 15 16  1  0
 16 17  1  0
 17 18  1  0
 18 19  1  0
 19 26  1  0
 19 28  1  0
 20 21  1  0
 21 22  1  0
 21 23  1  0
 24 25  1  0
 25 26  2  0
 25 27  1  0
 27 28  2  0
 27 29  1  0
 28 30  1  0
 29 31  2  0
 30 32  2  0
 31 32  1  0
M  END
>  <DRUGBANK_ID>  (1) 
DB08493

>  <COMMON_NAME>  (1) 
5-METHYL-3-(9-OXO-1,8-DIAZA-TRICYCLO[10.6.1.013,18]NONADECA-12(19),13,15,17-TETRAEN-10-YLCARBAMOYL)-HEXANOIC ACID

$$$$
