
     RDKit          3D

 10  9  0  0  0  0  0  0  0  0999 V2000
    1.0519   -0.0570   -0.1560 C   0  0  0  0  0  0  0  0  0  0  0  0
    0.5952   -1.4712    0.1659 C   0  0  0  0  0  0  0  0  0  0  0  0
    1.0836   -1.8961    1.5521 C   0  0  0  0  0  0  0  0  0  0  0  0
    0.5385   -0.9810    2.6558 C   0  0  0  0  0  0  0  0  0  0  0  0
   -0.9953   -0.9861    2.6968 C   0  0  0  0  0  0  0  0  0  0  0  0
   -1.5540   -2.3819    3.0013 C   0  0  0  0  0  0  0  0  0  0  0  0
   -1.0665   -2.9008    4.3510 C   0  0  0  0  0  0  0  0  0  0  0  0
   -1.5018   -2.0309    5.4188 N   0  0  0  0  0  0  0  0  0  0  0  0
   -2.3148   -2.4191    6.4330 C   0  0  0  0  0  0  0  0  0  0  0  0
   -2.7190   -1.6431    7.2919 O   0  0  0  0  0  0  0  0  0  0  0  0
  1  2  1  0
  2  3  1  0
  3  4  1  0
  4  5  1  0
  5  6  1  0
  6  7  1  0
  7  8  1  0
  8  9  1  0
  9 10  2  0
M  END
>  <DRUGBANK_ID>  (1) 
DB04105

>  <SECONDARY_ACCESSION_NUMBERS>  (1) 
EXPT01771

>  <COMMON_NAME>  (1) 
N-Heptylformamide

>  <UNII>  (1) 
E80SN819M5

$$$$
