
     RDKit          3D

 21 23  0  0  0  0  0  0  0  0999 V2000
    1.1571    0.0657    0.0341 C   0  0  0  0  0  0  0  0  0  0  0  0
   -1.7343   -0.8725   -1.9761 C   0  0  0  0  0  0  0  0  0  0  0  0
   -1.5414   -1.0988    0.3960 C   0  0  0  0  0  0  0  0  0  0  0  0
   -1.7820   -3.1697   -4.0065 C   0  0  0  0  0  0  0  0  0  0  0  0
    1.7461   -6.3106    1.0330 C   0  0  0  0  0  0  0  0  0  0  0  0
   -3.0599   -3.5280   -3.5596 C   0  0  0  0  0  0  0  0  0  0  0  0
    0.6272   -6.9666    1.5436 C   0  0  0  0  0  0  0  0  0  0  0  0
   -0.6587   -3.3310   -3.1756 C   0  0  0  0  0  0  0  0  0  0  0  0
    1.6097   -5.1257    0.3053 C   0  0  0  0  0  0  0  0  0  0  0  0
   -3.2273   -4.0898   -2.2944 C   0  0  0  0  0  0  0  0  0  0  0  0
   -0.6397   -6.4413    1.3336 C   0  0  0  0  0  0  0  0  0  0  0  0
    0.4805   -0.8629   -0.9941 C   0  0  0  0  0  0  0  0  0  0  0  0
   -0.8344   -3.7885   -1.8561 C   0  0  0  0  0  0  0  0  0  0  0  0
    0.3420   -4.6071    0.0406 C   0  0  0  0  0  0  0  0  0  0  0  0
   -2.1212   -4.2468   -1.4498 C   0  0  0  0  0  0  0  0  0  0  0  0
   -0.7819   -5.2785    0.5777 C   0  0  0  0  0  0  0  0  0  0  0  0
    1.0131   -2.3733   -0.8607 C   0  0  0  0  0  0  0  0  0  0  0  0
   -0.9644   -0.5226   -0.8176 N   0  0  0  0  0  0  0  0  0  0  0  0
    0.1600   -3.4949   -0.8533 N   0  0  0  0  0  0  0  0  0  0  0  0
    2.2528   -2.5004   -0.6977 O   0  0  0  0  0  0  0  0  0  0  0  0
   -2.4389   -4.7308    0.2359 S   0  0  0  0  0  0  0  0  0  0  0  0
  6  4  2  0
  7  5  2  0
  8  4  1  0
  9  5  1  0
 10  6  1  0
 11  7  1  0
 12  1  1  0
 13  8  2  0
 14  9  2  0
 15 10  2  0
 15 13  1  0
 16 11  2  0
 16 14  1  0
 17 12  1  0
 18  2  1  0
 18  3  1  0
 18 12  1  0
 19 13  1  0
 19 14  1  0
 19 17  1  0
 20 17  2  0
 21 15  1  0
 21 16  1  0
M  END
>  <DRUGBANK_ID>  (1) 
DB13672

>  <COMMON_NAME>  (1) 
Dimethylaminopropionylphenothiazine

>  <CAS_NUMBER>  (1) 
63834-04-8

>  <UNII>  (1) 
00435Z54H1

$$$$
