
     RDKit          3D

 12 12  0  0  0  0  0  0  0  0999 V2000
    1.0528   -0.0276   -0.0250 C   0  0  0  0  0  0  0  0  0  0  0  0
    1.0673   -2.3889   -3.7288 C   0  0  0  0  0  0  0  0  0  0  0  0
    0.5560   -0.7509   -1.2617 C   0  0  0  0  0  0  0  0  0  0  0  0
   -0.3388   -6.4481    1.3679 C   0  0  0  0  0  0  0  0  0  0  0  0
   -0.6425   -5.1082    1.2020 C   0  0  0  0  0  0  0  0  0  0  0  0
    0.3990   -7.1218    0.3931 C   0  0  0  0  0  0  0  0  0  0  0  0
   -0.2274   -4.4429    0.0509 C   0  0  0  0  0  0  0  0  0  0  0  0
    0.8618   -6.4376   -0.7355 C   0  0  0  0  0  0  0  0  0  0  0  0
    1.0322   -4.3949   -2.1893 C   0  0  0  0  0  0  0  0  0  0  0  0
    0.5805   -2.9262   -2.3835 C   0  0  0  0  0  0  0  0  0  0  0  0
    0.5401   -5.0914   -0.9321 C   0  0  0  0  0  0  0  0  0  0  0  0
    1.0933   -2.0989   -1.2830 N   0  0  0  0  0  0  0  0  0  0  0  0
  3  1  1  0
  5  4  2  0
  6  4  1  0
  7  5  1  0
  8  6  2  0
 10  2  1  0
 10  9  1  0
 11  7  2  0
 11  8  1  0
 11  9  1  0
 12  3  1  0
 12 10  1  0
M  END
>  <DRUGBANK_ID>  (1) 
DB13285

>  <COMMON_NAME>  (1) 
Etilamfetamine

>  <CAS_NUMBER>  (1) 
457-87-4

>  <UNII>  (1) 
022YON1XMX

>  <SYNONYMS>  (1) 
Etilamfetamine

$$$$
