S11
     RDKit          3D

 29 31  0  0  0  0  0  0  0  0999 V2000
   -0.3674   -1.0011    0.1359 N   0  0  0  0  0  0  0  0  0  0  0  0
    0.9178   -0.5587    0.1630 C   0  0  0  0  0  0  0  0  0  0  0  0
    1.0399    0.8185    0.0199 C   0  0  0  0  0  0  0  0  0  0  0  0
   -0.3169    1.2309   -0.0384 N   0  0  0  0  0  0  0  0  0  0  0  0
   -1.1277    0.0657    0.0181 C   0  0  0  0  0  0  0  0  0  0  0  0
    4.1535    1.0539   -0.2006 C   0  0  0  0  0  0  0  0  0  0  0  0
    2.4915    1.9520   -0.1554 S   0  0  0  0  0  0  0  0  0  0  0  0
    4.6619    0.3649   -1.3282 C   0  0  0  0  0  0  0  0  0  0  0  0
    5.6570   -0.6357   -1.1857 C   0  0  0  0  0  0  0  0  0  0  0  0
    5.8782   -1.8439   -2.4165 Cl  0  0  0  0  0  0  0  0  0  0  0  0
    6.3397   -0.7902    0.0073 C   0  0  0  0  0  0  0  0  0  0  0  0
    6.0529    0.1020    1.0350 C   0  0  0  0  0  0  0  0  0  0  0  0
    6.9925    0.0184    2.4763 Cl  0  0  0  0  0  0  0  0  0  0  0  0
    4.9648    1.0040    0.9503 C   0  0  0  0  0  0  0  0  0  0  0  0
    2.0013   -1.5478    0.1582 C   0  0  0  0  0  0  0  0  0  0  0  0
    2.5628   -1.4392   -1.2474 C   0  0  0  0  0  0  0  0  0  0  0  0
    2.8936   -1.2524    1.3725 C   0  0  0  0  0  0  0  0  0  0  0  0
   -0.7401    2.6373   -0.0246 C   0  0  0  0  0  0  0  0  0  0  0  0
   -1.4997    3.0772   -1.2483 C   0  0  0  0  0  0  0  0  0  0  0  0
   -2.7903    2.6098   -1.4648 C   0  0  0  0  0  0  0  0  0  0  0  0
   -3.4685    2.9079   -2.6272 C   0  0  0  0  0  0  0  0  0  0  0  0
   -2.9954    3.7660   -3.5400 N   0  0  0  0  0  0  0  0  0  0  0  0
   -1.7973    4.3295   -3.2674 C   0  0  0  0  0  0  0  0  0  0  0  0
   -1.0105    4.0093   -2.1637 C   0  0  0  0  0  0  0  0  0  0  0  0
   -2.6338   -0.1383    0.0539 C   0  0  0  0  0  0  0  0  0  0  0  0
   -3.1797    0.5317    1.1966 O   0  0  0  0  0  0  0  0  0  0  0  0
   -3.0045    0.0420    2.4598 C   0  0  0  0  0  0  0  0  0  0  0  0
   -2.2632   -1.0999    2.5769 N   0  0  0  0  0  0  0  0  0  0  0  0
   -3.4524    0.6044    3.4322 O   0  0  0  0  0  0  0  0  0  0  0  0
  1  2  1  0
  1  5  2  0
  2  3  2  0
  2 15  1  0
  3  4  1  0
  3  7  1  0
  4  5  1  0
  4 18  1  0
  5 25  1  0
  6  7  1  0
  6  8  2  0
  6 14  1  0
  8  9  1  0
  9 10  1  0
  9 11  2  0
 11 12  1  0
 12 13  1  0
 12 14  2  0
 15 16  1  0
 15 17  1  0
 18 19  1  0
 19 20  2  0
 19 24  1  0
 20 21  1  0
 21 22  2  0
 22 23  1  0
 23 24  2  0
 25 26  1  0
 26 27  1  0
 27 28  1  0
 27 29  2  0
M  END
>  <DRUGBANK_ID>  (1) 
DB08502

>  <SECONDARY_ACCESSION_NUMBERS>  (1) 
DB06456

>  <COMMON_NAME>  (1) 
Capravirine

>  <CAS_NUMBER>  (1) 
178979-85-6

>  <UNII>  (1) 
VHC779598X

>  <SYNONYMS>  (1) 
Capravirina; Capravirine; Capravirinum

$$$$
