
     RDKit          3D

 31 32  0  0  0  0  0  0  0  0999 V2000
   -5.2607   -1.8504    3.3097 C   0  0  0  0  0  0  0  0  0  0  0  0
   -5.6541   -0.3757    3.3719 C   0  0  2  0  0  0  0  0  0  0  0  0
   -6.5294    0.0133    2.1839 C   0  0  0  0  0  0  0  0  0  0  0  0
   -4.9294   -2.3038    1.8870 C   0  0  1  0  0  0  0  0  0  0  0  0
   -6.1771   -2.1919    0.9981 C   0  0  1  0  0  0  0  0  0  0  0  0
   -6.7753   -0.7716    1.1022 C   0  0  0  0  0  0  0  0  0  0  0  0
   -7.3246   -0.1589   -0.1166 C   0  0  0  0  0  0  0  0  0  0  0  0
   -7.4034   -0.8160   -1.2789 C   0  0  0  0  0  0  0  0  0  0  0  0
   -7.0375   -2.2495   -1.3430 C   0  0  2  0  0  0  0  0  0  0  0  0
   -8.3407   -2.8372   -0.8651 C   0  0  0  0  0  0  0  0  0  0  0  0
   -4.3779    0.4640    3.6095 C   0  0  0  0  0  0  0  0  0  0  0  0
   -3.7243   -1.6833    1.3314 O   0  0  0  0  0  0  0  0  0  0  0  0
   -3.6968   -0.4126    0.8361 C   0  0  0  0  0  0  0  0  0  0  0  0
   -4.6349    0.3036    0.6076 O   0  0  0  0  0  0  0  0  0  0  0  0
   -2.3472    0.1665    0.5193 C   0  0  0  0  0  0  0  0  0  0  0  0
   -1.2373   -0.1212    1.5381 C   0  0  0  0  0  0  0  0  0  0  0  0
   -2.0757   -0.3533   -0.8846 C   0  0  0  0  0  0  0  0  0  0  0  0
   -2.5702    1.7139    0.4707 C   0  0  0  0  0  0  0  0  0  0  0  0
   -0.9270   -1.5955    1.7310 C   0  0  0  0  0  0  0  0  0  0  0  0
   -5.3954   -4.1603   -0.5488 C   0  0  0  0  0  0  0  0  0  0  0  0
   -6.4485   -5.2668   -0.7209 C   0  0  0  0  0  0  0  0  0  0  0  0
   -6.2511   -5.5036   -3.1112 O   0  0  0  0  0  0  0  0  0  0  0  0
  -10.6827   -6.8916   -1.0338 C   0  0  0  0  0  0  0  0  0  0  0  0
   -9.4936   -5.9464   -0.9645 C   0  0  1  0  0  0  0  0  0  0  0  0
   -8.4510   -6.1490   -2.1083 C   0  0  0  0  0  0  0  0  0  0  0  0
  -11.9970   -6.1733   -1.3044 C   0  0  0  0  0  0  0  0  0  0  0  0
  -12.5148   -6.4180   -2.5261 O   0  0  0  0  0  0  0  0  0  0  0  0
  -12.5305   -5.3781   -0.5442 O   0  0  0  0  0  0  0  0  0  0  0  0
  -10.0276   -4.6441   -0.8994 O   0  0  0  0  0  0  0  0  0  0  0  0
   -7.1982   -5.2479   -2.0750 C   0  0  1  0  0  0  0  0  0  0  0  0
   -5.8570   -2.6571   -0.4507 C   0  0  2  0  0  0  0  0  0  0  0  0
  1  2  1  0
  1  4  1  0
  2  3  1  0
  2 11  1  6
  3  6  2  0
  4 12  1  6
  5  4  1  0
  5  6  1  6
  5 31  1  0
  6  7  1  0
  7  8  2  0
  8  9  1  0
  9 31  1  0
  9 10  1  1
 12 13  1  0
 13 14  2  0
 13 15  1  0
 15 16  1  0
 15 17  1  0
 15 18  1  0
 16 19  1  0
 20 21  1  0
 23 26  1  0
 24 29  1  6
 24 25  1  0
 24 23  1  0
 26 27  1  0
 26 28  2  0
 30 21  1  0
 30 22  1  6
 30 25  1  0
 31 20  1  1
M  END
>  <DRUGBANK_ID>  (1) 
DB14714

>  <COMMON_NAME>  (1) 
Tenivastatin

>  <CAS_NUMBER>  (1) 
121009-77-6

>  <UNII>  (1) 
9L6M5TH46B

>  <SYNONYMS>  (1) 
Tenivastatin

$$$$
