
     RDKit          3D

 29 28  0  0  0  0  0  0  0  0999 V2000
    6.1444   -2.0055   -0.7524 C   0  0  0  0  0  0  0  0  0  0  0  0
    6.7025   -0.6639   -2.5800 C   0  0  0  0  0  0  0  0  0  0  0  0
    5.8384   -5.2413   -1.6837 C   0  0  0  0  0  0  0  0  0  0  0  0
    6.6661   -5.1308    0.6032 C   0  0  0  0  0  0  0  0  0  0  0  0
    1.4648   -4.4624   -5.1571 C   0  0  0  0  0  0  0  0  0  0  0  0
    4.0867    1.2147   -7.3211 C   0  0  0  0  0  0  0  0  0  0  0  0
    2.4183    0.0615    1.6286 C   0  0  0  0  0  0  0  0  0  0  0  0
    3.9035   -3.6219   -2.8543 C   0  0  0  0  0  0  0  0  0  0  0  0
    4.3990   -3.2283    1.5871 C   0  0  0  0  0  0  0  0  0  0  0  0
    3.0515   -2.2356   -6.6153 C   0  0  0  0  0  0  0  0  0  0  0  0
    4.5322    1.5449   -4.4129 C   0  0  0  0  0  0  0  0  0  0  0  0
    5.0119   -2.4855   -2.9957 C   0  0  0  0  0  0  0  0  0  0  0  0
    4.4563   -4.0463    0.2805 C   0  0  0  0  0  0  0  0  0  0  0  0
    2.4080   -3.4366   -3.0307 C   0  0  0  0  0  0  0  0  0  0  0  0
    4.3123   -1.6340    1.5834 C   0  0  0  0  0  0  0  0  0  0  0  0
    2.9161   -2.4901   -5.1763 C   0  0  0  0  0  0  0  0  0  0  0  0
    2.5453   -0.8132   -6.8601 C   0  0  0  0  0  0  0  0  0  0  0  0
    3.6635    0.5109   -5.0360 C   0  0  0  0  0  0  0  0  0  0  0  0
    3.7919    2.2772   -3.3110 C   0  0  0  0  0  0  0  0  0  0  0  0
    2.9195   -0.9908   -0.5229 C   0  0  0  0  0  0  0  0  0  0  0  0
    1.8846   -0.2609   -1.3333 C   0  0  0  0  0  0  0  0  0  0  0  0
    5.8959   -1.8424   -2.1826 C   0  0  0  0  0  0  0  0  0  0  0  0
    5.4803   -4.8137   -0.2339 C   0  0  0  0  0  0  0  0  0  0  0  0
    2.1951   -3.3728   -4.4917 C   0  0  0  0  0  0  0  0  0  0  0  0
    3.4520    0.2942   -6.3418 C   0  0  0  0  0  0  0  0  0  0  0  0
    3.1925   -0.9086    0.7974 C   0  0  0  0  0  0  0  0  0  0  0  0
    3.3638    1.4797   -2.0821 C   0  0  0  0  0  0  0  0  0  0  0  0
    3.7212    1.7664   -0.9665 O   0  0  0  0  0  0  0  0  0  0  0  0
    2.4620    0.5047   -2.4004 O   0  0  0  0  0  0  0  0  0  0  0  0
 12  8  1  0
 13  9  1  0
 14  8  1  0
 15  9  1  0
 16 10  1  0
 17 10  1  0
 18 11  1  0
 19 11  1  0
 21 20  1  0
 22  1  1  0
 22  2  1  0
 22 12  2  3
 23  3  1  0
 23  4  1  0
 23 13  2  3
 24  5  1  0
 24 14  1  0
 24 16  2  0
 25  6  1  0
 25 17  1  0
 25 18  2  0
 26  7  1  0
 26 15  1  0
 26 20  2  0
 27 19  1  0
 28 27  2  0
 29 21  1  0
 29 27  1  0
M  END
>  <DRUGBANK_ID>  (1) 
DB12079

>  <COMMON_NAME>  (1) 
Gefarnate

>  <CAS_NUMBER>  (1) 
51-77-4

>  <UNII>  (1) 
1ISE2Y6ULA

>  <SYNONYMS>  (1) 
Gefarnate

$$$$
