
     RDKit          3D

 28 31  0  0  0  0  0  0  0  0999 V2000
   -1.5255    0.3990   -0.7466 C   0  0  0  0  0  0  0  0  0  0  0  0
   -0.4080   -0.3184   -1.0671 C   0  0  0  0  0  0  0  0  0  0  0  0
   -1.3143   -1.4585   -0.8847 C   0  0  0  0  0  0  0  0  0  0  0  0
   -1.9483   -1.6811   -2.2605 C   0  0  0  0  0  0  0  0  0  0  0  0
   -3.0615   -0.9336   -2.4374 C   0  0  0  0  0  0  0  0  0  0  0  0
   -4.0890   -1.2571   -3.5344 C   0  0  0  0  0  0  0  0  0  0  0  0
   -3.2849   -0.0092   -1.2755 C   0  0  2  0  0  0  0  0  0  0  0  0
   -6.9105   -0.3606    0.5440 C   0  0  0  0  0  0  0  0  0  0  0  0
   -7.9683   -0.6720   -0.4733 C   0  0  1  0  0  0  0  0  0  0  0  0
   -8.2366   -1.0308   -1.7261 C   0  0  1  0  0  0  0  0  0  0  0  0
   -9.6829   -0.2613   -0.5298 C   0  0  0  0  0  0  0  0  0  0  0  0
   -9.1514   -1.9262    0.0469 C   0  0  1  0  0  0  0  0  0  0  0  0
   -8.2582    0.8277   -1.6100 C   0  0  0  0  0  0  0  0  0  0  0  0
   -3.4676    1.4698   -1.1713 C   0  0  0  0  0  0  0  0  0  0  0  0
   -1.8185   -1.6784    0.2261 O   0  0  0  0  0  0  0  0  0  0  0  0
   -5.0105   -0.5976   -0.9405 C   0  0  1  0  0  0  0  0  0  0  0  0
   -6.3144   -0.8707   -2.1739 C   0  0  1  0  0  0  0  0  0  0  0  0
   -5.4985   -1.9125   -3.0805 C   0  0  0  0  0  0  0  0  0  0  0  0
   -7.3842   -3.7162    0.2153 C   0  0  0  0  0  0  0  0  0  0  0  0
   -8.7039   -3.1862    0.7049 C   0  0  0  0  0  0  0  0  0  0  0  0
   -4.8786   -1.8844   -0.4362 F   0  0  0  0  0  0  0  0  0  0  0  0
   -5.6480    0.2457    0.1122 C   0  0  1  0  0  0  0  0  0  0  0  0
   -5.9138    1.6049   -0.2242 O   0  0  0  0  0  0  0  0  0  0  0  0
   -9.9707   -1.0344    0.8197 C   0  0  1  0  0  0  0  0  0  0  0  0
   -9.3961   -0.5549    2.1665 C   0  0  0  0  0  0  0  0  0  0  0  0
  -10.1405   -2.4889   -0.9868 O   0  0  0  0  0  0  0  0  0  0  0  0
   -9.4113   -3.7909    1.5119 O   0  0  0  0  0  0  0  0  0  0  0  0
   -7.3330   -4.0040   -1.1648 O   0  0  0  0  0  0  0  0  0  0  0  0
  1  7  1  0
  2  1  2  0
  3  4  1  0
  3  2  1  0
  3 15  2  0
  4  5  2  0
  5  7  1  0
  6 18  1  0
  6  5  1  0
  7 16  1  0
  7 14  1  6
  8  9  1  0
  9 13  1  6
 10  9  1  0
 10 11  1  6
 12  9  1  0
 12 26  1  6
 12 20  1  0
 16 21  1  1
 17 10  1  0
 17 16  1  0
 17 18  1  1
 19 28  1  0
 19 20  1  0
 20 27  2  0
 22 16  1  0
 22  8  1  0
 22 23  1  6
 24 12  1  0
 24 11  1  0
 24 25  1  1
M  END
>  <DRUGBANK_ID>  (1) 
DB00443

>  <SECONDARY_ACCESSION_NUMBERS>  (1) 
APRD00513

>  <COMMON_NAME>  (1) 
Betamethasone

>  <CAS_NUMBER>  (1) 
378-44-9

>  <UNII>  (1) 
9842X06Q6M

>  <SYNONYMS>  (1) 
16β-Methyl-1,4-pregnadiene-9α-fluoro-11β,17α,21-triol-3,20-dione; 9-Fluoro-16β-methylprednisolone; 9α-Fluoro-16β-methylprednisolone; beta-Methasone alcohol; Betadexamethasone; Betametasona; Betamethasone; Bétaméthasone; Betamethasonum

$$$$
