
     RDKit          3D

 19 21  0  0  1  0  0  0  0  0999 V2000
   -0.6911    0.4715    0.5219 C   0  0  1  0  0  0  0  0  0  0  0  0
    0.0564   -0.8584    0.5004 C   0  0  2  0  0  0  0  0  0  0  0  0
    1.5301   -0.4079    0.4668 C   0  0  1  0  0  0  0  0  0  0  0  0
    1.5312    0.8499   -0.3371 N   0  0  0  0  0  0  0  0  0  0  0  0
    0.1470    1.3684   -0.3937 C   0  0  2  0  0  0  0  0  0  0  0  0
   -2.0306    0.3660    0.0530 O   0  0  0  0  0  0  0  0  0  0  0  0
   -0.2905   -1.6015   -0.6830 O   0  0  0  0  0  0  0  0  0  0  0  0
   -0.0125    2.8541   -0.0149 C   0  0  0  0  0  0  0  0  0  0  0  0
    2.1335   -0.1904    1.8333 C   0  0  0  0  0  0  0  0  0  0  0  0
   -0.3723    3.6380   -1.1510 O   0  0  0  0  0  0  0  0  0  0  0  0
    2.2799   -1.1750    2.8440 C   0  0  0  0  0  0  0  0  0  0  0  0
    2.8963   -0.6295    3.9356 C   0  0  0  0  0  0  0  0  0  0  0  0
    3.1570    0.6776    3.6524 N   0  0  0  0  0  0  0  0  0  0  0  0
    2.7026    0.9567    2.3829 C   0  0  0  0  0  0  0  0  0  0  0  0
    1.8834   -2.5141    2.7968 N   0  0  0  0  0  0  0  0  0  0  0  0
    2.1589   -3.1712    3.8819 C   0  0  0  0  0  0  0  0  0  0  0  0
    2.7780   -2.6750    5.0102 N   0  0  0  0  0  0  0  0  0  0  0  0
    3.1886   -1.3697    5.1140 C   0  0  0  0  0  0  0  0  0  0  0  0
    3.7417   -0.9198    6.1138 O   0  0  0  0  0  0  0  0  0  0  0  0
  1  2  1  0
  1  5  1  0
  1  6  1  6
  2  3  1  0
  2  7  1  6
  3  4  1  0
  3  9  1  1
  4  5  1  0
  5  8  1  1
  8 10  1  0
  9 11  1  0
  9 14  2  0
 11 12  2  0
 11 15  1  0
 12 13  1  0
 12 18  1  0
 13 14  1  0
 15 16  2  0
 16 17  1  0
 17 18  1  0
 18 19  2  0
M  END
>  <DRUGBANK_ID>  (1) 
DB06185

>  <SECONDARY_ACCESSION_NUMBERS>  (1) 
DB03743

>  <COMMON_NAME>  (1) 
Forodesine

>  <CAS_NUMBER>  (1) 
209799-67-7

>  <UNII>  (1) 
426X066ELK

>  <SYNONYMS>  (1) 
(1S)-1,4-dideoxy-4-imino-(9-deazahypoxanthin-9-yl)-D-ribitol; 1,4-Dideoxy-4-aza-1-(S)-(9-deazahypoxanthin-9-yl)-D-ribitol; Forodesine; Immucillin H; Immucillin-H

$$$$
