DR4
     RDKit          3D

 24 24  0  0  0  0  0  0  0  0999 V2000
    0.8133   -2.1674  -15.7046 C   0  0  0  0  0  0  0  0  0  0  0  0
    0.7799   -2.4098  -14.2957 O   0  0  0  0  0  0  0  0  0  0  0  0
    1.8982   -2.9573  -13.7552 C   0  0  0  0  0  0  0  0  0  0  0  0
    2.8492   -3.3882  -14.4126 O   0  0  0  0  0  0  0  0  0  0  0  0
    1.8560   -2.9843  -12.2445 C   0  0  0  0  0  0  0  0  0  0  0  0
    1.8511   -1.5791  -11.6419 C   0  0  0  0  0  0  0  0  0  0  0  0
    0.5823   -0.8121  -12.0156 C   0  0  0  0  0  0  0  0  0  0  0  0
   -0.6558   -1.6033  -11.5712 C   0  0  0  0  0  0  0  0  0  0  0  0
   -0.6536   -1.7356  -10.0447 C   0  0  0  0  0  0  0  0  0  0  0  0
   -0.6281   -0.3442   -9.4321 C   0  0  0  0  0  0  0  0  0  0  0  0
   -1.8248    0.4207   -9.9714 C   0  0  0  0  0  0  0  0  0  0  0  0
   -3.0852   -0.2762   -9.4153 C   0  0  0  0  0  0  0  0  0  0  0  0
   -2.9336   -0.2928   -7.9641 O   0  0  0  0  0  0  0  0  0  0  0  0
   -3.4641    0.9306   -7.4686 C   0  0  2  0  0  0  0  0  0  0  0  0
   -3.2293    1.8938   -8.4772 O   0  0  0  0  0  0  0  0  0  0  0  0
   -4.0962    2.9867   -8.5333 C   0  0  2  0  0  0  0  0  0  0  0  0
   -3.8466    3.6754   -9.8795 C   0  0  0  0  0  0  0  0  0  0  0  0
   -4.1484    2.7966  -10.9701 O   0  0  0  0  0  0  0  0  0  0  0  0
   -3.6874    3.8084   -7.3254 C   0  0  2  0  0  0  0  0  0  0  0  0
   -2.3245    4.2644   -7.4387 O   0  0  0  0  0  0  0  0  0  0  0  0
   -3.8028    2.9103   -6.0682 C   0  0  2  0  0  0  0  0  0  0  0  0
   -3.4764    3.6689   -4.9091 O   0  0  0  0  0  0  0  0  0  0  0  0
   -2.9633    1.5835   -6.1616 C   0  0  1  0  0  0  0  0  0  0  0  0
   -3.1981    0.7684   -5.0126 O   0  0  0  0  0  0  0  0  0  0  0  0
  1  2  1  0
  2  3  1  0
  3  4  2  0
  3  5  1  0
  5  6  1  0
  6  7  1  0
  7  8  1  0
  8  9  1  0
  9 10  1  0
 10 11  1  0
 11 12  1  0
 12 13  1  0
 14 15  1  0
 14 23  1  0
 14 13  1  6
 15 16  1  0
 16 17  1  6
 16 19  1  0
 17 18  1  0
 19 20  1  6
 19 21  1  0
 21 22  1  1
 21 23  1  0
 23 24  1  1
M  END
>  <DRUGBANK_ID>  (1) 
DB04680

>  <COMMON_NAME>  (1) 
GALACTOSE GREASE

$$$$
