1506
     RDKit          3D

 13 14  0  0  0  0  0  0  0  0999 V2000
   -2.3751   -0.0927    0.1481 N   0  0  0  0  0  0  0  0  0  0  0  0
   -0.9886   -0.0749   -0.3529 C   0  0  0  0  0  0  0  0  0  0  0  0
   -0.2981    1.2266    0.1577 C   0  0  0  0  0  0  0  0  0  0  0  0
   -0.2192   -1.2786    0.2629 C   0  0  0  0  0  0  0  0  0  0  0  0
    1.1956    1.2689   -0.1795 C   0  0  0  0  0  0  0  0  0  0  0  0
    1.2893   -1.2471   -0.0593 C   0  0  0  0  0  0  0  0  0  0  0  0
    1.9333    0.0566    0.3823 C   0  0  0  0  0  0  0  0  0  0  0  0
   -1.0216   -0.1163   -1.8921 C   0  0  0  0  0  0  0  0  0  0  0  0
   -1.5482    0.9543   -2.6255 C   0  0  0  0  0  0  0  0  0  0  0  0
   -0.4562   -1.1804   -2.6221 C   0  0  0  0  0  0  0  0  0  0  0  0
   -1.4238    1.0021   -4.0176 C   0  0  0  0  0  0  0  0  0  0  0  0
   -0.2318   -1.0842   -3.9929 C   0  0  0  0  0  0  0  0  0  0  0  0
   -0.7313   -0.0035   -4.6911 C   0  0  0  0  0  0  0  0  0  0  0  0
  1  2  1  0
  2  3  1  0
  2  4  1  0
  2  8  1  0
  3  5  1  0
  4  6  1  0
  5  7  1  0
  6  7  1  0
  8  9  2  0
  8 10  1  0
  9 11  1  0
 10 12  2  0
 11 13  2  0
 12 13  1  0
M  END
>  <DRUGBANK_ID>  (1) 
DB01506

>  <COMMON_NAME>  (1) 
1-Phenylcyclohexylamine

>  <CAS_NUMBER>  (1) 
2201-24-3

>  <UNII>  (1) 
HBO2D49I2S

$$$$
