668
     RDKit          3D

 13 13  0  0  1  0  0  0  0  0999 V2000
    0.9974   -0.9462    2.0695 O   0  0  0  0  0  0  0  0  0  0  0  0
    0.4337   -1.8591   -3.2461 O   0  0  0  0  0  0  0  0  0  0  0  0
    2.4740   -0.2597   -4.0879 O   0  0  0  0  0  0  0  0  0  0  0  0
    0.5600    2.6793    1.2677 N   0  0  0  0  0  0  0  0  0  0  0  0
    0.6148    0.1704    1.2669 C   0  0  2  0  0  0  0  0  0  0  0  0
    1.1774   -0.0185   -0.1363 C   0  0  0  0  0  0  0  0  0  0  0  0
    1.0484    1.4854    1.9710 C   0  0  0  0  0  0  0  0  0  0  0  0
    0.5627   -0.9220   -1.0220 C   0  0  0  0  0  0  0  0  0  0  0  0
    2.2776    0.7308   -0.6022 C   0  0  0  0  0  0  0  0  0  0  0  0
    1.0091   -1.0090   -2.3426 C   0  0  0  0  0  0  0  0  0  0  0  0
    2.6982    0.6591   -1.9282 C   0  0  0  0  0  0  0  0  0  0  0  0
    2.0570   -0.2068   -2.7885 C   0  0  0  0  0  0  0  0  0  0  0  0
    1.1249    3.8897    1.8381 C   0  0  0  0  0  0  0  0  0  0  0  0
  2 10  1  0
  3 12  1  0
  4  7  1  0
  4 13  1  0
  5  7  1  0
  5  6  1  0
  5  1  1  1
  6  8  2  0
  6  9  1  0
  8 10  1  0
  9 11  2  0
 10 12  2  0
 11 12  1  0
M  END
>  <DRUGBANK_ID>  (1) 
DB00668

>  <SECONDARY_ACCESSION_NUMBERS>  (1) 
APRD00450; EXPT00496

>  <COMMON_NAME>  (1) 
Epinephrine

>  <CAS_NUMBER>  (1) 
51-43-4

>  <UNII>  (1) 
YKH834O4BH

>  <SYNONYMS>  (1) 
(−)-(R)-epinephrine; (−)-3,4-dihydroxy-α-((methylamino)methyl)benzyl alcohol; (−)-adrenaline; (R)-(-)-Adnephrine; (R)-(-)-Adrenaline; (R)-(-)-Epinephrine; (R)-(-)-Epirenamine; (R)-(−)-adrenaline; 4-[(1R)-1-Hydroxy-2-(methylamino)ethyl]-1,2-benzenediol; Adrénaline; Adrenaline; Epinefrin; Epinefrina; Epinephrin; Epinephrine; Epinephrinum; L-Adrenaline; Levoepinephrine

$$$$
