F10
     RDKit          3D

 23 26  0  0  0  0  0  0  0  0999 V2000
   -2.0994    0.7664   -0.0258 N   0  0  0  0  0  0  0  0  0  0  0  0
   -0.9739    2.7353    0.0047 O   0  0  0  0  0  0  0  0  0  0  0  0
    7.6086   -2.1685   -1.8492 C   0  0  0  0  0  0  0  0  0  0  0  0
    4.5884   -0.5560   -1.0223 C   0  0  0  0  0  0  0  0  0  0  0  0
    8.2445   -2.8263   -2.9062 C   0  0  0  0  0  0  0  0  0  0  0  0
    1.6138    1.1713    0.0037 C   0  0  0  0  0  0  0  0  0  0  0  0
   -2.1995   -0.6865    0.0229 C   0  0  0  0  0  0  0  0  0  0  0  0
   -0.8944   -1.5127    0.0175 C   0  0  0  0  0  0  0  0  0  0  0  0
    0.2748    0.7376   -0.0061 C   0  0  0  0  0  0  0  0  0  0  0  0
   -0.9465    1.5082   -0.0080 C   0  0  0  0  0  0  0  0  0  0  0  0
    4.5711    0.6388    1.0577 C   0  0  0  0  0  0  0  0  0  0  0  0
    5.9524    0.6432    1.0095 C   0  0  0  0  0  0  0  0  0  0  0  0
    0.2999   -0.6401   -0.0053 C   0  0  0  0  0  0  0  0  0  0  0  0
    3.8769    0.0123    0.0266 C   0  0  0  0  0  0  0  0  0  0  0  0
    2.4266    0.0539    0.0046 C   0  0  0  0  0  0  0  0  0  0  0  0
    5.9787   -0.4865   -1.0060 C   0  0  0  0  0  0  0  0  0  0  0  0
    6.7593   -1.0778   -2.0909 C   0  0  0  0  0  0  0  0  0  0  0  0
    6.6118   -0.6402   -3.4142 C   0  0  0  0  0  0  0  0  0  0  0  0
    7.2518   -1.2831   -4.4712 C   0  0  0  0  0  0  0  0  0  0  0  0
    8.0599   -2.3884   -4.2175 C   0  0  0  0  0  0  0  0  0  0  0  0
    5.8160    0.4035   -3.6965 F   0  0  0  0  0  0  0  0  0  0  0  0
    1.6066   -1.0557   -0.0163 N   0  0  0  0  0  0  0  0  0  0  0  0
    6.6718    0.0812    0.0126 N   0  0  0  0  0  0  0  0  0  0  0  0
  1 10  1  0
  1  7  1  0
  2 10  2  0
  3  5  2  0
  3 17  1  0
  4 16  2  0
  4 14  1  0
  5 20  1  0
  6 15  2  0
  6  9  1  0
  7  8  1  0
  8 13  1  0
  9 10  1  0
  9 13  2  0
 11 12  1  0
 11 14  2  0
 12 23  2  0
 13 22  1  0
 14 15  1  0
 15 22  1  0
 16 23  1  0
 16 17  1  0
 17 18  2  0
 18 19  1  0
 18 21  1  0
 19 20  2  0
M  END
>  <DRUGBANK_ID>  (1) 
DB07728

>  <COMMON_NAME>  (1) 
2-[2-(2-FLUOROPHENYL)PYRIDIN-4-YL]-1,5,6,7-TETRAHYDRO-4H-PYRROLO[3,2-C]PYRIDIN-4-ONE

$$$$
