
     RDKit          3D

 28 29  0  0  0  0  0  0  0  0999 V2000
   -1.5289    1.1336    0.0609 C   0  0  2  0  0  0  0  0  0  0  0  0
    0.1645    1.3139   -0.1492 C   0  0  0  0  0  0  0  0  0  0  0  0
   -1.9609   -0.3833   -0.0326 C   0  0  0  0  0  0  0  0  0  0  0  0
   -2.5616    1.9587   -0.8412 C   0  0  0  0  0  0  0  0  0  0  0  0
    0.9517    0.2059   -0.0215 C   0  0  0  0  0  0  0  0  0  0  0  0
    1.0228    2.5116   -0.5069 C   0  0  0  0  0  0  0  0  0  0  0  0
   -0.9523   -1.2725    0.1201 C   0  0  0  0  0  0  0  0  0  0  0  0
   -3.4691   -0.6365   -0.2986 C   0  0  0  0  0  0  0  0  0  0  0  0
   -2.6174    1.7157   -2.2534 C   0  0  0  0  0  0  0  0  0  0  0  0
   -3.2937    3.0951   -0.3153 C   0  0  0  0  0  0  0  0  0  0  0  0
    0.3578   -0.9766    0.2942 N   0  0  0  0  0  0  0  0  0  0  0  0
    2.4800   -0.0100   -0.1105 C   0  0  0  0  0  0  0  0  0  0  0  0
    0.7977    3.7553    0.0071 O   0  0  0  0  0  0  0  0  0  0  0  0
    1.9892    2.4042   -1.3196 O   0  0  0  0  0  0  0  0  0  0  0  0
   -1.1372   -2.7152    0.1633 C   0  0  0  0  0  0  0  0  0  0  0  0
   -4.0311   -1.7433   -0.8577 O   0  0  0  0  0  0  0  0  0  0  0  0
   -4.2801    0.2589   -0.0670 O   0  0  0  0  0  0  0  0  0  0  0  0
   -3.0930    2.7248   -3.1236 C   0  0  0  0  0  0  0  0  0  0  0  0
   -1.6331    0.4772   -3.0043 Cl  0  0  0  0  0  0  0  0  0  0  0  0
   -3.7538    4.1102   -1.2061 C   0  0  0  0  0  0  0  0  0  0  0  0
    2.9973   -0.4686    1.1547 O   0  0  0  0  0  0  0  0  0  0  0  0
   -0.5160    4.1113   -0.2389 C   0  0  0  0  0  0  0  0  0  0  0  0
   -3.5485   -3.0720   -1.0520 C   0  0  0  0  0  0  0  0  0  0  0  0
   -3.6136    3.9379   -2.6082 C   0  0  0  0  0  0  0  0  0  0  0  0
    2.6276    0.3375    2.2851 C   0  0  0  0  0  0  0  0  0  0  0  0
   -0.7052    3.7368   -1.6843 C   0  0  0  0  0  0  0  0  0  0  0  0
    3.2527    1.7454    2.3201 C   0  0  0  0  0  0  0  0  0  0  0  0
    2.8057    2.6347    1.2870 N   0  0  0  0  0  0  0  0  0  0  0  0
  1  2  1  0
  1  3  1  0
  1  4  1  6
  2  5  2  0
  2  6  1  0
  3  7  2  0
  3  8  1  0
  4  9  2  0
  4 10  1  0
  5 11  1  0
  5 12  1  0
  6 13  1  0
  6 14  2  0
  7 15  1  0
  7 11  1  0
  8 16  1  0
  8 17  2  0
  9 18  1  0
  9 19  1  0
 10 20  2  0
 12 21  1  0
 13 22  1  0
 16 23  1  0
 18 24  2  0
 20 24  1  0
 21 25  1  0
 22 26  1  0
 25 27  1  0
 27 28  1  0
M  END
>  <DRUGBANK_ID>  (1) 
DB09237

>  <COMMON_NAME>  (1) 
Levamlodipine

>  <CAS_NUMBER>  (1) 
103129-82-4

>  <UNII>  (1) 
0P6NLP6806

>  <SYNONYMS>  (1) 
Levamlodipine; Levoamlodipine; S-amlodipine

$$$$
