
     RDKit          3D

 10 10  0  0  0  0  0  0  0  0999 V2000
    1.3802   -0.1780   -0.0051 C   0  0  0  0  0  0  0  0  0  0  0  0
    0.5182   -1.2837    0.0137 C   0  0  0  0  0  0  0  0  0  0  0  0
   -0.8628   -1.0997   -0.0057 C   0  0  0  0  0  0  0  0  0  0  0  0
   -1.3841    0.1867    0.0135 C   0  0  0  0  0  0  0  0  0  0  0  0
   -0.5252    1.2848    0.0353 C   0  0  0  0  0  0  0  0  0  0  0  0
    0.8672    1.1272   -0.0453 C   0  0  0  0  0  0  0  0  0  0  0  0
    1.7748    2.2797   -0.2439 C   0  0  0  0  0  0  0  0  0  0  0  0
    1.3389    3.5424   -0.3833 C   0  0  0  0  0  0  0  0  0  0  0  0
    2.2329    4.6813   -0.6504 C   0  0  0  0  0  0  0  0  0  0  0  0
    1.7794    5.8194   -0.7536 O   0  0  0  0  0  0  0  0  0  0  0  0
  1  2  2  0
  1  6  1  0
  2  3  1  0
  3  4  2  0
  4  5  1  0
  5  6  2  0
  6  7  1  0
  7  8  2  0
  8  9  1  0
  9 10  2  0
M  END
>  <DRUGBANK_ID>  (1) 
DB14184

>  <COMMON_NAME>  (1) 
Cinnamaldehyde

>  <CAS_NUMBER>  (1) 
14371-10-9

>  <UNII>  (1) 
SR60A3XG0F

>  <SYNONYMS>  (1) 
(3E)-3-phenylprop-2-enal; (E)-3-Phenyl-2-propenal; (E)-3-Phenyl-propenal; (E)-3-Phenylpropenal; 3-phenylacrylaldehyde; Cinnamal; Cinnamaldehyde; trans-Cinnamaldehyde; trans-Cinnamic aldehyde; Zimtaldehyde

$$$$
