
     RDKit          3D

 12 13  0  0  0  0  0  0  0  0999 V2000
    0.9434    0.0431   -0.0771 C   0  0  0  0  0  0  0  0  0  0  0  0
    0.4628   -0.9794    0.9156 C   0  0  0  0  0  0  0  0  0  0  0  0
    0.6681   -2.3378    0.6290 C   0  0  0  0  0  0  0  0  0  0  0  0
    0.3571   -3.3270    1.5643 C   0  0  0  0  0  0  0  0  0  0  0  0
   -0.1732   -2.9748    2.8033 C   0  0  0  0  0  0  0  0  0  0  0  0
   -0.4138   -1.6289    3.0954 C   0  0  0  0  0  0  0  0  0  0  0  0
   -0.1079   -0.6197    2.1498 C   0  0  0  0  0  0  0  0  0  0  0  0
   -0.3320    0.8368    2.4946 C   0  0  0  0  0  0  0  0  0  0  0  0
   -1.2246    0.9923    3.7080 C   0  0  0  0  0  0  0  0  0  0  0  0
   -0.7905    0.0910    4.7401 N   0  0  0  0  0  0  0  0  0  0  0  0
   -0.8617   -1.2550    4.4714 C   0  0  0  0  0  0  0  0  0  0  0  0
   -1.1891   -2.0810    5.3175 O   0  0  0  0  0  0  0  0  0  0  0  0
  1  2  1  0
  2  3  2  0
  2  7  1  0
  3  4  1  0
  4  5  2  0
  5  6  1  0
  6  7  2  0
  6 11  1  0
  7  8  1  0
  8  9  1  0
  9 10  1  0
 10 11  1  0
 11 12  2  0
M  END
>  <DRUGBANK_ID>  (1) 
DB03722

>  <SECONDARY_ACCESSION_NUMBERS>  (1) 
EXPT01196

>  <COMMON_NAME>  (1) 
3,4-Dihydro-5-Methyl-Isoquinolinone

>  <UNII>  (1) 
FI8AN8XP0W

$$$$
