
     RDKit          3D

 13 12  0  0  1  0  0  0  0  0999 V2000
    5.4505    6.4294   -3.8492 C   0  0  0  0  0  0  0  0  0  0  0  0
    6.2139    5.2128   -3.3339 C   0  0  0  0  0  0  0  0  0  0  0  0
    5.4142    4.3825   -2.3339 C   0  0  0  0  0  0  0  0  0  0  0  0
    4.0343    3.9602   -2.8744 C   0  0  1  0  0  0  0  0  0  0  0  0
    4.2435    2.9871   -4.0379 C   0  0  0  0  0  0  0  0  0  0  0  0
    3.1409    3.3355   -1.7993 C   0  0  0  0  0  0  0  0  0  0  0  0
    2.5611    4.3219   -0.7256 C   0  0  2  0  0  0  0  0  0  0  0  0
    1.0208    4.2163   -0.7535 C   0  0  0  0  0  0  0  0  0  0  0  0
    0.5000    4.5586   -2.0769 N   0  0  0  0  0  0  0  0  0  0  0  0
    2.9945    5.8024   -0.8549 C   0  0  0  0  0  0  0  0  0  0  0  0
    2.4974    6.7354    0.2180 C   0  0  0  0  0  0  0  0  0  0  0  0
    3.4799    7.3053    0.9517 O   0  0  0  0  0  0  0  0  0  0  0  0
    1.3174    7.0106    0.4009 O   0  0  0  0  0  0  0  0  0  0  0  0
  1  2  1  0
  2  3  1  0
  4  3  1  0
  4  5  1  6
  4  6  1  0
  7 10  1  6
  7  8  1  0
  7  6  1  0
  8  9  1  0
 10 11  1  0
 11 12  1  0
 11 13  2  0
M  END
>  <DRUGBANK_ID>  (1) 
DB15264

>  <COMMON_NAME>  (1) 
PD-0299685

>  <CAS_NUMBER>  (1) 
313651-33-1

>  <UNII>  (1) 
61SA6645RL

$$$$
