CLI
     RDKit          3D

 19 20  0  0  0  0  0  0  0  0999 V2000
    1.0335   -0.0132    0.1190 O   0  0  0  0  0  0  0  0  0  0  0  0
    0.4678    1.0966    0.6362 C   0  0  0  0  0  0  0  0  0  0  0  0
    1.1568    1.9637    1.1465 O   0  0  0  0  0  0  0  0  0  0  0  0
   -1.0311    1.0637    0.6242 C   0  0  0  0  0  0  0  0  0  0  0  0
   -1.6376    1.0014   -0.7749 C   0  0  0  0  0  0  0  0  0  0  0  0
   -1.2796   -0.2495   -1.5277 C   0  0  0  0  0  0  0  0  0  0  0  0
   -1.6953   -1.5744   -1.1470 C   0  0  0  0  0  0  0  0  0  0  0  0
   -0.4316   -0.3315   -2.6450 C   0  0  0  0  0  0  0  0  0  0  0  0
    0.2556    0.7812   -3.3009 C   0  0  0  0  0  0  0  0  0  0  0  0
    1.0031    0.4535   -4.3784 O   0  0  0  0  0  0  0  0  0  0  0  0
    0.2052    1.9538   -2.9394 O   0  0  0  0  0  0  0  0  0  0  0  0
   -0.3598   -1.6781   -2.9498 N   0  0  0  0  0  0  0  0  0  0  0  0
   -1.0963   -2.4422   -2.0633 C   0  0  0  0  0  0  0  0  0  0  0  0
   -1.2912   -3.8357   -2.0064 C   0  0  0  0  0  0  0  0  0  0  0  0
   -2.0853   -4.3543   -0.9732 C   0  0  0  0  0  0  0  0  0  0  0  0
   -2.3753   -6.0488   -0.8812 Cl  0  0  0  0  0  0  0  0  0  0  0  0
   -2.6747   -3.5333   -0.0311 C   0  0  0  0  0  0  0  0  0  0  0  0
   -2.5018   -2.1599   -0.1327 C   0  0  0  0  0  0  0  0  0  0  0  0
   -3.3752   -1.1735    0.9615 Cl  0  0  0  0  0  0  0  0  0  0  0  0
  1  2  1  0
  2  3  2  0
  2  4  1  0
  4  5  1  0
  5  6  1  0
  6  7  1  0
  6  8  2  0
  7 13  2  0
  7 18  1  0
  8  9  1  0
  8 12  1  0
  9 10  1  0
  9 11  2  0
 12 13  1  0
 13 14  1  0
 14 15  2  0
 15 16  1  0
 15 17  1  0
 17 18  2  0
 18 19  1  0
M  END
>  <DRUGBANK_ID>  (1) 
DB04175

>  <SECONDARY_ACCESSION_NUMBERS>  (1) 
EXPT00939

>  <COMMON_NAME>  (1) 
Mdl-29951

>  <CAS_NUMBER>  (1) 
101861-63-6

$$$$
