
     RDKit          3D

 34 38  0  0  0  0  0  0  0  0999 V2000
    4.7747    3.0157   -0.2148 F   0  0  0  0  0  0  0  0  0  0  0  0
    5.2355   -3.2677    5.3063 O   0  0  0  0  0  0  0  0  0  0  0  0
    5.0090   -1.3075    6.6054 O   0  0  0  0  0  0  0  0  0  0  0  0
    2.5361   -2.6386    1.0057 O   0  0  0  0  0  0  0  0  0  0  0  0
    7.6340   -2.1876    2.8358 O   0  0  0  0  0  0  0  0  0  0  0  0
    8.6953   -1.1328    5.8461 O   0  0  0  0  0  0  0  0  0  0  0  0
    1.8409    4.4656   -2.2007 O   0  0  0  0  0  0  0  0  0  0  0  0
    8.8107    0.3309    4.0911 O   0  0  0  0  0  0  0  0  0  0  0  0
    5.4408   -0.5226    2.8322 C   0  0  1  0  0  0  0  0  0  0  0  0
    4.8768   -1.9589    3.1271 C   0  0  1  0  0  0  0  0  0  0  0  0
    4.7329   -0.1483    1.4519 C   0  0  1  0  0  0  0  0  0  0  0  0
    5.5999   -2.1890    4.4790 C   0  0  1  0  0  0  0  0  0  0  0  0
    3.2110   -0.2183    1.0932 C   0  0  1  0  0  0  0  0  0  0  0  0
    5.0135   -0.9786    5.2330 C   0  0  2  0  0  0  0  0  0  0  0  0
    2.6328    0.4212   -0.5908 C   0  0  1  0  0  0  0  0  0  0  0  0
    5.7113    0.0811    4.4463 C   0  0  0  0  0  0  0  0  0  0  0  0
    2.5918   -1.4863    1.8124 C   0  0  2  0  0  0  0  0  0  0  0  0
    3.3000   -1.7978    3.1684 C   0  0  0  0  0  0  0  0  0  0  0  0
    5.2583    1.1585    1.0030 C   0  0  0  0  0  0  0  0  0  0  0  0
    7.2491   -2.2051    4.0181 C   0  0  0  0  0  0  0  0  0  0  0  0
    2.7170    1.8163   -0.0491 C   0  0  0  0  0  0  0  0  0  0  0  0
    5.2582   -2.7279    6.6485 C   0  0  0  0  0  0  0  0  0  0  0  0
    5.1983   -3.1222    2.1727 C   0  0  0  0  0  0  0  0  0  0  0  0
    4.3006    1.8030    0.0747 C   0  0  1  0  0  0  0  0  0  0  0  0
    3.4435    1.2806   -2.1175 C   0  0  0  0  0  0  0  0  0  0  0  0
    1.0911    0.0708   -0.3407 C   0  0  0  0  0  0  0  0  0  0  0  0
    1.7908    2.6771   -0.6157 C   0  0  0  0  0  0  0  0  0  0  0  0
    8.4046   -2.2501    4.9897 C   0  0  0  0  0  0  0  0  0  0  0  0
    3.3885    2.6730   -2.3927 C   0  0  0  0  0  0  0  0  0  0  0  0
    4.4081   -3.5923    7.5654 C   0  0  0  0  0  0  0  0  0  0  0  0
    6.6123   -2.7953    7.3157 C   0  0  0  0  0  0  0  0  0  0  0  0
    2.3036    3.4679   -1.7697 C   0  0  0  0  0  0  0  0  0  0  0  0
    8.7680    0.1105    5.2938 C   0  0  0  0  0  0  0  0  0  0  0  0
    8.5345    1.1979    6.3213 C   0  0  0  0  0  0  0  0  0  0  0  0
  2 22  1  0
  3 22  1  0
  5 20  2  0
  6 28  1  0
  6 33  1  0
  7 32  2  0
  8 33  2  0
  9 10  1  0
  9 11  1  0
  9 16  1  1
 10 12  1  0
 10 18  1  0
 10 23  1  6
 11 13  1  0
 11 19  1  1
 12  2  1  0
 12 14  1  0
 12 20  1  6
 13 15  1  0
 13 17  1  6
 14  3  1  0
 14 16  1  1
 15 21  1  0
 15 25  1  0
 15 26  1  6
 17  4  1  6
 17 18  1  0
 19 24  1  0
 20 28  1  0
 21 24  1  0
 21 27  2  0
 22 30  1  0
 22 31  1  0
 24  1  1  1
 25 29  2  0
 27 32  1  0
 29 32  1  0
 33 34  1  0
M  END
>  <DRUGBANK_ID>  (1) 
DB14662

>  <SECONDARY_ACCESSION_NUMBERS>  (1) 
DBSALT001846

>  <COMMON_NAME>  (1) 
Flunisolide acetate

>  <CAS_NUMBER>  (1) 
4533-89-5

>  <UNII>  (1) 
N225H64CIH

>  <SYNONYMS>  (1) 
Flunisolide 21-acetate; Flunisolide acetate

$$$$
