B21
     RDKit          3D

 16 17  0  0  0  0  0  0  0  0999 V2000
    0.6741    0.0124    0.1140 C   0  0  0  0  0  0  0  0  0  0  0  0
    0.3126    0.5305   -1.1644 O   0  0  0  0  0  0  0  0  0  0  0  0
    0.8313    1.7589   -1.5053 C   0  0  0  0  0  0  0  0  0  0  0  0
   -0.0775    2.6271   -2.1375 C   0  0  0  0  0  0  0  0  0  0  0  0
    0.3523    3.8455   -2.6706 C   0  0  0  0  0  0  0  0  0  0  0  0
    1.6786    4.2367   -2.5158 C   0  0  0  0  0  0  0  0  0  0  0  0
    2.5879    3.3842   -1.8842 C   0  0  0  0  0  0  0  0  0  0  0  0
    2.1864    2.1325   -1.3918 C   0  0  0  0  0  0  0  0  0  0  0  0
    3.2080    1.2217   -0.8977 C   0  0  0  0  0  0  0  0  0  0  0  0
    3.8774    1.5761    0.2439 O   0  0  0  0  0  0  0  0  0  0  0  0
    3.5419   -0.0660   -1.2639 C   0  0  0  0  0  0  0  0  0  0  0  0
    4.4239   -0.5448   -0.2734 C   0  0  0  0  0  0  0  0  0  0  0  0
    4.6324    0.4882    0.6263 C   0  0  0  0  0  0  0  0  0  0  0  0
    5.4522    0.5432    1.8091 C   0  0  0  0  0  0  0  0  0  0  0  0
    5.6091    1.4669    2.6023 O   0  0  0  0  0  0  0  0  0  0  0  0
    6.1222   -0.6232    1.9853 O   0  0  0  0  0  0  0  0  0  0  0  0
  1  2  1  0
  2  3  1  0
  3  8  2  0
  3  4  1  0
  4  5  2  0
  5  6  1  0
  6  7  2  0
  7  8  1  0
  8  9  1  0
  9 10  1  0
  9 11  2  0
 10 13  1  0
 11 12  1  0
 12 13  2  0
 13 14  1  0
 14 15  2  0
 14 16  1  0
M  END
>  <DRUGBANK_ID>  (1) 
DB07407

>  <COMMON_NAME>  (1) 
5-(2-METHOXYPHENYL)-2-FUROIC ACID

$$$$
