
     RDKit          3D

  6  5  0  0  0  0  0  0  0  0999 V2000
    0.9331    0.0538    0.0195 O   0  0  0  0  0  0  0  0  0  0  0  0
    0.4986   -1.2967    0.1926 C   0  0  0  0  0  0  0  0  0  0  0  0
    0.9727   -2.1438   -1.0011 C   0  0  0  0  0  0  0  0  0  0  0  0
    3.1294   -2.1955   -1.1979 I   0  0  0  0  0  0  0  0  0  0  0  0
    0.9382   -1.8746    1.5473 C   0  0  0  0  0  0  0  0  0  0  0  0
    0.1403   -0.7547    3.2010 I   0  0  0  0  0  0  0  0  0  0  0  0
  1  2  1  0
  2  3  1  0
  2  5  1  0
  3  4  1  0
  5  6  1  0
M  END
>  <DRUGBANK_ID>  (1) 
DB13383

>  <COMMON_NAME>  (1) 
Diiodohydroxypropane

>  <CAS_NUMBER>  (1) 
534-08-7

>  <UNII>  (1) 
1Z11279H67

$$$$
