HM2
     RDKit          3D

 23 25  0  0  0  0  0  0  0  0999 V2000
   -1.3671   -0.0627   -0.0126 N   0  0  0  0  0  0  0  0  0  0  0  0
   -1.1245   -3.3180    1.0517 N   0  0  0  0  0  0  0  0  0  0  0  0
   -2.1992   -2.7674   -1.0032 N   0  0  0  0  0  0  0  0  0  0  0  0
   -1.4529   -5.4011    2.0845 N   0  0  0  0  0  0  0  0  0  0  0  0
   -0.6959    1.1093   -0.0071 C   0  0  0  0  0  0  0  0  0  0  0  0
    0.6845    1.2111    0.0016 C   0  0  0  0  0  0  0  0  0  0  0  0
    1.4282    0.0378    0.0061 C   0  0  0  0  0  0  0  0  0  0  0  0
    0.7652   -1.1877    0.0125 C   0  0  0  0  0  0  0  0  0  0  0  0
   -0.6316   -1.2114   -0.0012 C   0  0  0  0  0  0  0  0  0  0  0  0
   -1.3731   -2.4846    0.0205 C   0  0  0  0  0  0  0  0  0  0  0  0
   -1.7874   -4.4862    1.0824 C   0  0  0  0  0  0  0  0  0  0  0  0
   -2.8460   -3.9572   -0.9725 C   0  0  0  0  0  0  0  0  0  0  0  0
   -2.6743   -4.8578    0.0714 C   0  0  0  0  0  0  0  0  0  0  0  0
   -0.6858   -4.9605    3.2458 C   0  0  0  0  0  0  0  0  0  0  0  0
   -1.5102   -5.0141    4.5448 C   0  0  0  0  0  0  0  0  0  0  0  0
   -2.0724   -6.3769    4.8988 C   0  0  0  0  0  0  0  0  0  0  0  0
   -1.4805   -7.5567    4.4214 C   0  0  0  0  0  0  0  0  0  0  0  0
   -1.9680   -8.8075    4.7815 C   0  0  0  0  0  0  0  0  0  0  0  0
   -3.0325   -8.9022    5.6677 C   0  0  0  0  0  0  0  0  0  0  0  0
   -3.6198   -7.7439    6.1756 C   0  0  0  0  0  0  0  0  0  0  0  0
   -3.1612   -6.4852    5.7752 C   0  0  0  0  0  0  0  0  0  0  0  0
   -3.7300   -4.2204   -2.1532 C   0  0  0  0  0  0  0  0  0  0  0  0
   -3.5127   -6.3701    0.1473 Cl  0  0  0  0  0  0  0  0  0  0  0  0
  1  5  2  0
  1  9  1  0
  2 10  2  0
  2 11  1  0
  3 10  1  0
  3 12  2  0
  4 11  1  0
  4 14  1  0
  5  6  1  0
  6  7  2  0
  7  8  1  0
  8  9  2  0
  9 10  1  0
 11 13  2  0
 12 13  1  0
 12 22  1  0
 13 23  1  0
 14 15  1  0
 15 16  1  0
 16 17  2  0
 16 21  1  0
 17 18  1  0
 18 19  2  0
 19 20  1  0
 20 21  2  0
M  END
>  <DRUGBANK_ID>  (1) 
DB07901

>  <COMMON_NAME>  (1) 
5-CHLORO-6-METHYL-N-(2-PHENYLETHYL)-2-PYRIDIN-2-YLPYRIMIDIN-4-AMINE

$$$$
