CPV
     RDKit          3D

 19 19  0  0  0  0  0  0  0  0999 V2000
    0.3032   -0.2472   -0.2915 C   0  0  0  0  0  0  0  0  0  0  0  0
    3.9668    0.6290    3.6642 N   0  0  0  0  0  0  0  0  0  0  0  0
   -0.3587   -0.7223   -1.2258 O   0  0  0  0  0  0  0  0  0  0  0  0
    2.5479    0.6786    3.2970 C   0  0  1  0  0  0  0  0  0  0  0  0
    2.6348    1.8748    2.3276 C   0  0  0  0  0  0  0  0  0  0  0  0
    3.1641    1.4838    0.9192 C   0  0  0  0  0  0  0  0  0  0  0  0
    1.9432   -0.7579    2.8466 C   0  0  1  0  0  0  0  0  0  0  0  0
    2.1808   -1.7402    3.8854 O   0  0  0  0  0  0  0  0  0  0  0  0
    5.5230    0.6110   -0.6222 C   0  0  0  0  0  0  0  0  0  0  0  0
   -0.1992   -0.0031    1.1530 C   0  0  2  0  0  0  0  0  0  0  0  0
   -0.0803    1.4453    1.5782 C   0  0  0  0  0  0  0  0  0  0  0  0
    0.4565   -0.8992    2.3118 C   0  0  0  0  0  0  0  0  0  0  0  0
    4.2667    2.4402    0.6173 C   0  0  0  0  0  0  0  0  0  0  0  0
    3.6479    0.0049    0.7143 C   0  0  0  0  0  0  0  0  0  0  0  0
    4.9947    2.0466   -0.6472 C   0  0  0  0  0  0  0  0  0  0  0  0
    4.3945   -0.3555   -0.5365 C   0  0  0  0  0  0  0  0  0  0  0  0
   -0.4865    1.8640    3.0131 C   0  0  0  0  0  0  0  0  0  0  0  0
   -0.1194    2.6318    0.6208 C   0  0  0  0  0  0  0  0  0  0  0  0
    1.5308    0.1130   -0.5814 O   0  0  0  0  0  0  0  0  0  0  0  0
  1  3  2  0
  1 10  1  0
  1 19  1  0
  4  2  1  6
  5  4  1  0
  6  5  1  0
  6 14  1  0
  6 13  1  0
  7  4  1  0
  7  8  1  1
  7 12  1  0
 10 12  1  1
 10 11  1  0
 11 18  1  0
 15  9  1  0
 15 13  1  0
 16  9  1  0
 16 14  1  0
 17 11  1  0
M  END
>  <DRUGBANK_ID>  (1) 
DB07581

>  <COMMON_NAME>  (1) 
5-AMINO-6-CYCLOHEXYL-4-HYDROXY-2-ISOPROPYL-HEXANOIC ACID

$$$$
