
     RDKit          3D

 13 12  0  0  1  0  0  0  0  0999 V2000
    0.9004    0.0207   -0.2665 O   0  0  0  0  0  0  0  0  0  0  0  0
    0.9733   -1.7661   -1.5924 O   0  0  0  0  0  0  0  0  0  0  0  0
   -1.2096   -0.9227   -0.9245 C   0  0  1  0  0  0  0  0  0  0  0  0
   -1.7133   -1.2077    0.5030 C   0  0  0  0  0  0  0  0  0  0  0  0
   -1.2900   -0.1749    1.5564 C   0  0  0  0  0  0  0  0  0  0  0  0
   -1.7566    0.3691   -1.5521 C   0  0  0  0  0  0  0  0  0  0  0  0
   -1.8006    1.2437    1.3001 C   0  0  0  0  0  0  0  0  0  0  0  0
   -3.3283    1.2759    1.1683 C   0  0  0  0  0  0  0  0  0  0  0  0
   -1.2938    0.6935   -2.9469 C   0  0  0  0  0  0  0  0  0  0  0  0
    0.3090   -0.9624   -0.9778 C   0  0  0  0  0  0  0  0  0  0  0  0
   -3.9367    0.9465    2.5233 C   0  0  0  0  0  0  0  0  0  0  0  0
   -1.8158   -0.3332   -3.9035 C   0  0  0  0  0  0  0  0  0  0  0  0
   -3.4509    1.9544    3.5518 C   0  0  0  0  0  0  0  0  0  0  0  0
  1 10  1  0
  2 10  2  0
  3  4  1  1
  3  6  1  0
  3 10  1  0
  4  5  1  0
  5  7  1  0
  6  9  1  0
  7  8  1  0
  8 11  1  0
  9 12  1  0
 11 13  1  0
M  END
>  <DRUGBANK_ID>  (1) 
DB05343

>  <SECONDARY_ACCESSION_NUMBERS>  (1) 
DB11887

>  <COMMON_NAME>  (1) 
Arundic acid

>  <CAS_NUMBER>  (1) 
185517-21-9

>  <UNII>  (1) 
F2628ZD0FO

>  <SYNONYMS>  (1) 
(2R)-2-propyloctanoic acid; Arundic acid

$$$$
