
     RDKit          3D

 39 40  0  0  0  0  0  0  0  0999 V2000
    1.1723    0.6669    0.7310 C   0  0  1  0  0  0  0  0  0  0  0  0
    0.5018    1.6760   -0.1553 C   0  0  0  0  0  0  0  0  0  0  0  0
   -0.7857    1.5997   -0.5744 C   0  0  0  0  0  0  0  0  0  0  0  0
    0.5835   -1.1626   -0.9744 C   0  0  2  0  0  0  0  0  0  0  0  0
   -1.6323    0.3372   -0.3191 C   0  0  0  0  0  0  0  0  0  0  0  0
   -1.1534   -0.6420    0.7432 C   0  0  2  0  0  0  0  0  0  0  0  0
   -0.3474   -1.7824    0.0873 C   0  0  0  0  0  0  0  0  0  0  0  0
    2.2883    1.1641    1.7278 C   0  0  0  0  0  0  0  0  0  0  0  0
    1.4013    2.4932   -0.7970 O   0  0  0  0  0  0  0  0  0  0  0  0
    2.4755    0.5633    2.7999 O   0  0  0  0  0  0  0  0  0  0  0  0
    3.2861    2.2769    1.3667 C   0  0  0  0  0  0  0  0  0  0  0  0
   -2.4961   -0.0335   -1.1287 O   0  0  0  0  0  0  0  0  0  0  0  0
   -2.4404   -1.2560    1.3459 C   0  0  0  0  0  0  0  0  0  0  0  0
   -2.2907   -1.9079    2.6823 C   0  0  0  0  0  0  0  0  0  0  0  0
   -3.0069   -1.5475    3.7624 C   0  0  0  0  0  0  0  0  0  0  0  0
   -2.7457   -2.1627    5.1032 C   0  0  0  0  0  0  0  0  0  0  0  0
   -4.0711   -0.4846    3.6962 C   0  0  0  0  0  0  0  0  0  0  0  0
   -1.1904    2.5527   -1.6285 C   0  0  0  0  0  0  0  0  0  0  0  0
   -2.6422    2.6366   -1.8168 C   0  0  0  0  0  0  0  0  0  0  0  0
   -3.3727    3.6765   -1.4067 C   0  0  0  0  0  0  0  0  0  0  0  0
   -4.8507    3.6034   -1.5546 C   0  0  0  0  0  0  0  0  0  0  0  0
   -2.7415    4.8990   -0.8085 C   0  0  0  0  0  0  0  0  0  0  0  0
    0.6264   -1.8233   -2.3681 C   0  0  0  0  0  0  0  0  0  0  0  0
    0.0172   -0.8479   -3.3966 C   0  0  0  0  0  0  0  0  0  0  0  0
    0.6669   -0.1377   -4.3398 C   0  0  0  0  0  0  0  0  0  0  0  0
   -0.0381    0.8722   -5.2077 C   0  0  0  0  0  0  0  0  0  0  0  0
    2.1316   -0.3014   -4.5960 C   0  0  0  0  0  0  0  0  0  0  0  0
   -0.1561    0.2061    1.5742 C   0  0  0  0  0  0  0  0  0  0  0  0
   -0.5367    0.7830    2.5998 O   0  0  0  0  0  0  0  0  0  0  0  0
    4.0785    2.1577    0.0706 C   0  0  0  0  0  0  0  0  0  0  0  0
    2.5973    3.6216    1.5009 C   0  0  0  0  0  0  0  0  0  0  0  0
    1.7800   -0.4854   -0.2197 C   0  0  1  0  0  0  0  0  0  0  0  0
    3.1605   -0.5109   -1.1331 C   0  0  0  0  0  0  0  0  0  0  0  0
    4.4346   -1.4556   -0.5905 C   0  0  0  0  0  0  0  0  0  0  0  0
    4.1157   -2.9799   -0.4124 C   0  0  0  0  0  0  0  0  0  0  0  0
    4.5466   -3.9589   -1.1559 C   0  0  0  0  0  0  0  0  0  0  0  0
    3.8957   -5.3231   -1.1465 C   0  0  0  0  0  0  0  0  0  0  0  0
    5.7276   -3.6375   -1.9897 C   0  0  0  0  0  0  0  0  0  0  0  0
    2.3095   -1.3864    0.8187 C   0  0  0  0  0  0  0  0  0  0  0  0
  1 28  1  0
  1  2  1  0
  1 32  1  0
  1  8  1  1
  2  3  2  0
  2  9  1  0
  3  5  1  0
  3 18  1  0
  4  7  1  0
  4 23  1  6
  5 12  2  0
  6 28  1  0
  6  5  1  0
  6  7  1  0
  6 13  1  1
  8 10  2  0
  8 11  1  0
 11 30  1  0
 11 31  1  0
 13 14  1  0
 14 15  2  3
 15 16  1  0
 15 17  1  0
 18 19  1  0
 19 20  2  3
 20 21  1  0
 20 22  1  0
 23 24  1  0
 24 25  2  3
 25 26  1  0
 25 27  1  0
 28 29  2  0
 32  4  1  0
 32 39  1  1
 32 33  1  0
 33 34  1  0
 34 35  1  0
 35 36  2  3
 36 37  1  0
 36 38  1  0
M  END
>  <DRUGBANK_ID>  (1) 
DB01892

>  <SECONDARY_ACCESSION_NUMBERS>  (1) 
EXPT01804

>  <COMMON_NAME>  (1) 
Hyperforin

>  <CAS_NUMBER>  (1) 
11079-53-1

>  <UNII>  (1) 
RM741E34FP

>  <SYNONYMS>  (1) 
Hiperforina; Hyperforine

$$$$
