
     RDKit          3D

 10 10  0  0  0  0  0  0  0  0999 V2000
    1.0689   -0.0216   -0.0692 P   0  0  0  0  0  0  0  0  0  0  0  0
    1.1881    1.7724   -0.7201 C   0  0  0  0  0  0  0  0  0  0  0  0
    2.2694    2.5543   -0.7622 C   0  0  0  0  0  0  0  0  0  0  0  0
    2.3068    3.9266   -1.3320 C   0  0  0  0  0  0  0  0  0  0  0  0
    1.0405    4.4188   -1.8495 N   0  0  0  0  0  0  0  0  0  0  0  0
   -0.1020    3.9009   -1.0993 C   0  0  0  0  0  0  0  0  0  0  0  0
   -0.1594    2.3721   -1.1259 C   0  0  0  0  0  0  0  0  0  0  0  0
    1.2519   -0.8583   -1.4928 O   0  0  0  0  0  0  0  0  0  0  0  0
   -0.4795   -0.0216   -0.0692 O   0  0  0  0  0  0  0  0  0  0  0  0
    2.8989   -0.0216   -0.0692 C   0  0  0  0  0  0  0  0  0  0  0  0
  1  2  1  0
  1  8  1  0
  1  9  2  0
  1 10  1  0
  2  3  2  0
  2  7  1  0
  3  4  1  0
  4  5  1  0
  6  5  1  0
  7  6  1  0
M  END
>  <DRUGBANK_ID>  (1) 
DB16754

>  <COMMON_NAME>  (1) 
TPMPA

>  <CAS_NUMBER>  (1) 
182485-36-5

>  <UNII>  (1) 
TR7I0800L2

>  <SYNONYMS>  (1) 
(1,2,5,6-tetrahydropyridine-4-yl)methylphosphinic acid; P-Methyl-P-(1,2,3,6-tetrahydro-4-pyridinyl)phosphinic acid; Phosphinic acid, P-methyl-P-(1,2,3,6-tetrahydro-4-pyridinyl)-

$$$$
