
     RDKit          3D

 34 38  0  0  1  0  0  0  0  0999 V2000
    2.5116   -0.2919    0.1799 C   0  0  0  0  0  0  0  0  0  0  0  0
    1.1051   -0.0265   -0.3503 C   0  0  1  0  0  0  0  0  0  0  0  0
    0.1922   -1.1969    0.1300 C   0  0  0  0  0  0  0  0  0  0  0  0
   -1.1835   -1.0156   -0.2473 O   0  0  0  0  0  0  0  0  0  0  0  0
   -1.6963    0.1944    0.3293 C   0  0  0  0  0  0  0  0  0  0  0  0
   -0.8989    1.4223   -0.1647 C   0  0  0  0  0  0  0  0  0  0  0  0
    0.5301    1.2331    0.1591 N   0  0  0  0  0  0  0  0  0  0  0  0
    1.3145    2.3325    0.5278 C   0  0  0  0  0  0  0  0  0  0  0  0
    1.1204    2.8782    1.7996 C   0  0  0  0  0  0  0  0  0  0  0  0
    0.2022    2.3603    2.7236 C   0  0  0  0  0  0  0  0  0  0  0  0
    0.1803    2.8182    4.0149 C   0  0  0  0  0  0  0  0  0  0  0  0
    0.9304    3.9410    4.3074 C   0  0  0  0  0  0  0  0  0  0  0  0
    1.8046    4.4822    3.4203 N   0  0  0  0  0  0  0  0  0  0  0  0
    1.9703    3.9090    2.2068 C   0  0  0  0  0  0  0  0  0  0  0  0
    2.9673    4.3053    1.4248 N   0  0  0  0  0  0  0  0  0  0  0  0
    3.1399    3.7331    0.2231 C   0  0  0  0  0  0  0  0  0  0  0  0
    2.3303    2.7576   -0.2486 N   0  0  0  0  0  0  0  0  0  0  0  0
    4.1030    4.3015   -0.5806 N   0  0  0  0  0  0  0  0  0  0  0  0
    5.5231    4.1457   -0.2345 C   0  0  0  0  0  0  0  0  0  0  0  0
    6.2911    5.4233   -0.6317 C   0  0  0  0  0  0  0  0  0  0  0  0
    6.1075    5.7246   -2.0267 O   0  0  0  0  0  0  0  0  0  0  0  0
    4.7126    5.9404   -2.2958 C   0  0  0  0  0  0  0  0  0  0  0  0
    3.8489    4.6840   -1.9773 C   0  0  2  0  0  0  0  0  0  0  0  0
    2.3889    5.0518   -2.2266 C   0  0  0  0  0  0  0  0  0  0  0  0
    0.6959    4.5856    5.6048 C   0  0  0  0  0  0  0  0  0  0  0  0
   -0.1148    5.7151    5.7168 C   0  0  0  0  0  0  0  0  0  0  0  0
   -0.6340    6.0892    6.9653 C   0  0  0  0  0  0  0  0  0  0  0  0
   -0.2001    5.4855    8.1611 C   0  0  0  0  0  0  0  0  0  0  0  0
    0.7130    4.4237    8.0750 C   0  0  0  0  0  0  0  0  0  0  0  0
    1.0739    3.9460    6.7921 C   0  0  0  0  0  0  0  0  0  0  0  0
    1.3816    3.7201    9.2243 C   0  0  0  0  0  0  0  0  0  0  0  0
    2.3392    4.5547    9.8626 O   0  0  0  0  0  0  0  0  0  0  0  0
   -0.7716    6.0555    9.2683 O   0  0  0  0  0  0  0  0  0  0  0  0
   -0.3021    5.7203   10.5657 C   0  0  0  0  0  0  0  0  0  0  0  0
  2  1  1  1
  2  3  1  0
  2  7  1  0
  3  4  1  0
  4  5  1  0
  5  6  1  0
  6  7  1  0
  7  8  1  0
  8  9  1  0
  8 17  2  0
  9 10  2  0
  9 14  1  0
 10 11  1  0
 11 12  2  0
 12 13  1  0
 12 25  1  0
 13 14  2  0
 14 15  1  0
 15 16  2  0
 16 17  1  0
 16 18  1  0
 18 19  1  0
 18 23  1  0
 19 20  1  0
 20 21  1  0
 21 22  1  0
 22 23  1  0
 23 24  1  1
 25 26  2  0
 25 30  1  0
 26 27  1  0
 27 28  2  0
 28 29  1  0
 28 33  1  0
 29 30  2  0
 29 31  1  0
 31 32  1  0
 33 34  1  0
M  END
>  <DRUGBANK_ID>  (1) 
DB12774

>  <COMMON_NAME>  (1) 
AZD-8055

>  <CAS_NUMBER>  (1) 
1009298-09-2

>  <UNII>  (1) 
970JJ37FPW

$$$$
