
     RDKit          3D

 14 14  0  0  1  0  0  0  0  0999 V2000
    3.4503   -0.1955   -2.0704 C   0  0  0  0  0  0  0  0  0  0  0  0
    2.2705   -0.1987   -2.8645 O   0  0  0  0  0  0  0  0  0  0  0  0
    1.1096    0.3746   -2.2258 C   0  0  1  0  0  0  0  0  0  0  0  0
    1.4504    1.7384   -1.5846 C   0  0  2  0  0  0  0  0  0  0  0  0
    2.2330    1.5857   -0.3858 O   0  0  0  0  0  0  0  0  0  0  0  0
    0.2309    2.5885   -1.2559 C   0  0  1  0  0  0  0  0  0  0  0  0
    0.6553    3.9063   -0.8750 O   0  0  0  0  0  0  0  0  0  0  0  0
   -0.7037    2.6370   -2.4710 C   0  0  2  0  0  0  0  0  0  0  0  0
   -1.9054    3.3167   -2.1564 O   0  0  0  0  0  0  0  0  0  0  0  0
   -1.0635    1.3414   -2.9164 O   0  0  0  0  0  0  0  0  0  0  0  0
    0.0548    0.5603   -3.3350 C   0  0  2  0  0  0  0  0  0  0  0  0
   -0.4981   -0.7871   -3.8114 C   0  0  0  0  0  0  0  0  0  0  0  0
   -1.2355   -0.6914   -4.9488 O   0  0  0  0  0  0  0  0  0  0  0  0
   -0.3431   -1.8610   -3.2406 O   0  0  0  0  0  0  0  0  0  0  0  0
  1  2  1  0
  3  4  1  0
  3 11  1  0
  3  2  1  6
  4  5  1  1
  4  6  1  0
  6  7  1  6
  6  8  1  0
  8  9  1  1
  8 10  1  0
 10 11  1  0
 11 12  1  1
 12 13  1  0
 12 14  2  0
M  END
>  <DRUGBANK_ID>  (1) 
DB02722

>  <SECONDARY_ACCESSION_NUMBERS>  (1) 
EXPT01567

>  <COMMON_NAME>  (1) 
4-O-methyl-beta-D-glucuronic acid

$$$$
