
     RDKit          3D

 29 32  0  0  1  0  0  0  0  0999 V2000
    0.6569   -0.3149    2.3770 C   0  0  1  0  0  0  0  0  0  0  0  0
    2.2734   -3.5242    5.2809 C   0  0  2  0  0  0  0  0  0  0  0  0
    1.2941   -1.5494    3.0892 C   0  0  1  0  0  0  0  0  0  0  0  0
   -0.8301   -0.0015    2.1283 C   0  0  0  0  0  0  0  0  0  0  0  0
    0.8427   -3.4762    4.5833 C   0  0  2  0  0  0  0  0  0  0  0  0
    0.6523   -2.9051    3.0743 C   0  0  1  0  0  0  0  0  0  0  0  0
    1.5146   -4.0374    6.9537 C   0  0  2  0  0  0  0  0  0  0  0  0
    2.7810   -1.3967    3.3745 C   0  0  2  0  0  0  0  0  0  0  0  0
    0.6559    0.5058    3.6580 C   0  0  0  0  0  0  0  0  0  0  0  0
    3.0816   -2.0185    4.7936 C   0  0  0  0  0  0  0  0  0  0  0  0
    0.7543   -2.6805    7.1089 C   0  0  2  0  0  0  0  0  0  0  0  0
   -0.0590   -2.6442    5.8205 C   0  0  0  0  0  0  0  0  0  0  0  0
   -0.8815   -2.6576    2.8958 C   0  0  0  0  0  0  0  0  0  0  0  0
   -1.4571   -1.4807    1.9632 C   0  0  2  0  0  0  0  0  0  0  0  0
   -1.2801    1.3430    2.4427 C   0  0  0  0  0  0  0  0  0  0  0  0
    0.3527   -4.8645    8.1337 C   0  0  0  0  0  0  0  0  0  0  0  0
    0.9046    1.7958    3.7359 C   0  0  0  0  0  0  0  0  0  0  0  0
   -0.5538    2.0161    3.7818 C   0  0  0  0  0  0  0  0  0  0  0  0
    0.9342   -1.3312    4.3894 F   0  0  0  0  0  0  0  0  0  0  0  0
    0.7941   -5.1974    9.2545 O   0  0  0  0  0  0  0  0  0  0  0  0
   -1.1465    2.4271    4.8116 O   0  0  0  0  0  0  0  0  0  0  0  0
    1.3650   -0.1541    1.0094 C   0  0  0  0  0  0  0  0  0  0  0  0
    3.5372   -4.2624    4.6275 C   0  0  0  0  0  0  0  0  0  0  0  0
    3.1852   -0.0058    3.5627 O   0  0  0  0  0  0  0  0  0  0  0  0
   -1.2514   -1.8699    0.6657 F   0  0  0  0  0  0  0  0  0  0  0  0
   -1.3121   -5.4195    7.8601 C   0  0  0  0  0  0  0  0  0  0  0  0
   -2.5006   -4.6536    7.9721 O   0  0  0  0  0  0  0  0  0  0  0  0
    1.5648   -1.3568    7.1733 C   0  0  0  0  0  0  0  0  0  0  0  0
    0.6771   -5.2437    6.3085 O   0  0  0  0  0  0  0  0  0  0  0  0
  1 22  1  6
  2 23  1  6
  3  1  1  0
  3 19  1  1
  4  1  1  0
  5  2  1  0
  6  3  1  0
  6  5  1  0
  7  2  1  0
  7 29  1  1
  7 16  1  0
  8  3  1  0
  8 24  1  1
  9  1  1  0
 10  2  1  0
 10  8  1  0
 11  7  1  0
 11 28  1  6
  5 12  1  1
 12 11  1  0
  6 13  1  1
 14  4  1  0
 14 13  1  0
 14 25  1  6
 15  4  2  0
 17  9  2  0
 18 15  1  0
 18 17  1  0
 20 16  2  0
 21 18  2  0
 26 16  1  0
 27 26  1  0
M  END
>  <DRUGBANK_ID>  (1) 
DB00223

>  <SECONDARY_ACCESSION_NUMBERS>  (1) 
APRD00921

>  <COMMON_NAME>  (1) 
Diflorasone

>  <CAS_NUMBER>  (1) 
2557-49-5

>  <UNII>  (1) 
T2DHJ9645W

>  <SYNONYMS>  (1) 
(6α,11β,16β)-6,9-difluoro-11,17,21-trihydroxy-16-methylpregna-1,4-diene-3,20-dione; Diflorasona; Diflorasone; Diflorasonum

$$$$
