S5H
     RDKit          3D

 30 33  0  0  0  0  0  0  0  0999 V2000
   -2.5651    1.4678   -0.5089 C   0  0  0  0  0  0  0  0  0  0  0  0
   -4.0564    1.3110   -0.2243 C   0  0  0  0  0  0  0  0  0  0  0  0
   -4.5648   -0.1143   -0.4781 C   0  0  2  0  0  0  0  0  0  0  0  0
   -5.9042   -0.3384    0.0037 O   0  0  0  0  0  0  0  0  0  0  0  0
   -3.6879   -1.2210    0.0766 C   0  0  0  0  0  0  0  0  0  0  0  0
   -2.2260   -1.0160   -0.2670 C   0  0  2  0  0  0  0  0  0  0  0  0
   -1.4088   -2.1714    0.3113 C   0  0  0  0  0  0  0  0  0  0  0  0
    0.0450   -2.0651   -0.1130 C   0  0  0  0  0  0  0  0  0  0  0  0
    0.6494   -0.6974    0.2208 C   0  0  2  0  0  0  0  0  0  0  0  0
   -0.2185    0.4765   -0.3244 C   0  0  1  0  0  0  0  0  0  0  0  0
   -1.6945    0.3808    0.1779 C   0  0  1  0  0  0  0  0  0  0  0  0
    0.4446    1.8571   -0.0881 C   0  0  0  0  0  0  0  0  0  0  0  0
    1.9118    1.9125   -0.5465 C   0  0  0  0  0  0  0  0  0  0  0  0
    2.7354    0.7656    0.0623 C   0  0  1  0  0  0  0  0  0  0  0  0
    2.0513   -0.5532   -0.3694 C   0  0  1  0  0  0  0  0  0  0  0  0
    3.0792   -1.6247   -0.0517 C   0  0  0  0  0  0  0  0  0  0  0  0
    4.4128   -0.9502   -0.3863 C   0  0  0  0  0  0  0  0  0  0  0  0
    4.1354    0.5635   -0.5644 C   0  0  2  0  0  0  0  0  0  0  0  0
    2.8186    0.9136    1.6009 C   0  0  0  0  0  0  0  0  0  0  0  0
   -1.7727    0.5787    1.7150 C   0  0  0  0  0  0  0  0  0  0  0  0
    5.3078    1.3894   -0.0238 C   0  0  0  0  0  0  0  0  0  0  0  0
    5.2230    2.2193    0.8779 O   0  0  0  0  0  0  0  0  0  0  0  0
    6.6275    1.1922   -0.7122 C   0  0  0  0  0  0  0  0  0  0  0  0
   -6.1873   -0.0926    1.3085 C   0  0  0  0  0  0  0  0  0  0  0  0
   -5.3784    0.1739    2.1867 O   0  0  0  0  0  0  0  0  0  0  0  0
   -7.6587   -0.2079    1.5755 C   0  0  0  0  0  0  0  0  0  0  0  0
   -8.4696    0.8971    0.9178 C   0  0  0  0  0  0  0  0  0  0  0  0
   -8.5528    0.7832   -0.5804 C   0  0  0  0  0  0  0  0  0  0  0  0
   -9.5140    0.3697   -1.2143 O   0  0  0  0  0  0  0  0  0  0  0  0
   -7.4289    1.1611   -1.2102 O   0  0  0  0  0  0  0  0  0  0  0  0
  1  2  1  0
  1 11  1  0
  2  3  1  0
  3  4  1  1
  3  5  1  0
  4 24  1  0
  6  5  1  1
  6  7  1  0
  6 11  1  0
  7  8  1  0
  9  8  1  6
  9 10  1  0
  9 15  1  0
 10 11  1  0
 10 12  1  1
 11 20  1  1
 12 13  1  0
 13 14  1  0
 14 15  1  0
 14 18  1  0
 14 19  1  1
 15 16  1  1
 16 17  1  0
 17 18  1  0
 18 21  1  1
 21 22  2  0
 21 23  1  0
 24 25  2  0
 24 26  1  0
 26 27  1  0
 27 28  1  0
 28 29  2  0
 28 30  1  0
M  END
>  <DRUGBANK_ID>  (1) 
DB08510

>  <COMMON_NAME>  (1) 
5-ALPHA-PREGNANE-3-BETA-OL-HEMISUCCINATE

$$$$
