
     RDKit          3D

  8  7  0  0  0  0  0  0  0  0999 V2000
    0.8151   -0.0005    0.2240 N   0  0  0  0  0  0  0  0  0  0  0  0
    0.0956    0.8031   -0.6288 C   0  0  0  0  0  0  0  0  0  0  0  0
   -1.2170    0.8698   -0.8888 C   0  0  0  0  0  0  0  0  0  0  0  0
   -1.8729    1.6934   -1.8269 O   0  0  0  0  0  0  0  0  0  0  0  0
   -1.0079    2.7435   -2.8955 P   0  0  0  0  0  0  0  0  0  0  0  0
    0.0515    1.5363   -3.2233 O   0  0  0  0  0  0  0  0  0  0  0  0
   -2.1135    2.3245   -4.0325 O   0  0  0  0  0  0  0  0  0  0  0  0
   -0.2337    3.6834   -3.8519 O   0  0  0  0  0  0  0  0  0  0  0  0
  1  2  1  0
  2  3  2  0
  3  4  1  0
  4  5  1  0
  5  6  1  0
  5  7  1  0
  5  8  2  0
M  END
>  <DRUGBANK_ID>  (1) 
DB02907

>  <SECONDARY_ACCESSION_NUMBERS>  (1) 
EXPT01321

>  <COMMON_NAME>  (1) 
2-Amino-Vinyl-Phosphate

$$$$
