
     RDKit          3D

 32 34  0  0  1  0  0  0  0  0999 V2000
   -1.1425   -1.7383    3.4395 C   0  0  0  0  0  0  0  0  0  0  0  0
   -1.6089   -0.3347    3.7866 C   0  0  0  0  0  0  0  0  0  0  0  0
   -1.0740   -0.0152    5.1761 C   0  0  0  0  0  0  0  0  0  0  0  0
   -1.1328    0.7337    2.7787 C   0  0  0  0  0  0  0  0  0  0  0  0
   -1.6554    0.4650    1.3635 C   0  0  2  0  0  0  0  0  0  0  0  0
   -0.9538    1.2147    0.3297 N   0  0  0  0  0  0  0  0  0  0  0  0
    0.3732    1.1214    0.0204 C   0  0  0  0  0  0  0  0  0  0  0  0
    0.9134    2.0581   -0.5646 O   0  0  0  0  0  0  0  0  0  0  0  0
    1.0813    0.0536    0.5090 N   0  0  0  0  0  0  0  0  0  0  0  0
    2.4253    0.2635    0.9526 C   0  0  0  0  0  0  0  0  0  0  0  0
    2.5122   -0.3374    2.3381 C   0  0  0  0  0  0  0  0  0  0  0  0
    2.1808   -1.7541    2.4312 N   0  0  0  0  0  0  0  0  0  0  0  0
    2.6709   -2.5705    3.5495 C   0  0  0  0  0  0  0  0  0  0  0  0
    4.1447   -2.6996    3.4277 C   0  0  0  0  0  0  0  0  0  0  0  0
    4.7843   -3.8720    3.0971 N   0  0  0  0  0  0  0  0  0  0  0  0
    6.1168   -3.5911    2.9922 C   0  0  0  0  0  0  0  0  0  0  0  0
    6.3702   -2.3318    3.2570 N   0  0  0  0  0  0  0  0  0  0  0  0
    5.1652   -1.7761    3.5914 C   0  0  0  0  0  0  0  0  0  0  0  0
    5.0881   -0.3424    3.9766 C   0  0  0  0  0  0  0  0  0  0  0  0
    1.1629   -2.2443    1.6433 C   0  0  0  0  0  0  0  0  0  0  0  0
    0.6706   -3.3541    1.8562 O   0  0  0  0  0  0  0  0  0  0  0  0
    0.7481   -1.3756    0.4210 C   0  0  2  0  0  0  0  0  0  0  0  0
    1.3662   -2.0198   -0.8132 C   0  0  0  0  0  0  0  0  0  0  0  0
    0.8126   -3.4122   -0.9584 C   0  0  0  0  0  0  0  0  0  0  0  0
   -0.5768   -3.5929   -1.0657 C   0  0  0  0  0  0  0  0  0  0  0  0
   -1.1199   -4.8661   -1.0869 C   0  0  0  0  0  0  0  0  0  0  0  0
   -0.2735   -5.9688   -1.0497 C   0  0  0  0  0  0  0  0  0  0  0  0
    1.1081   -5.7999   -0.9365 C   0  0  0  0  0  0  0  0  0  0  0  0
    1.6495   -4.5239   -0.8316 C   0  0  0  0  0  0  0  0  0  0  0  0
   -3.1757    0.5348    1.3138 C   0  0  0  0  0  0  0  0  0  0  0  0
   -3.7664   -0.6413    0.9790 O   0  0  0  0  0  0  0  0  0  0  0  0
   -3.8303    1.5469    1.5599 O   0  0  0  0  0  0  0  0  0  0  0  0
  1  2  1  0
  2  3  1  0
  2  4  1  0
  5 30  1  0
  5  6  1  0
  5  4  1  1
  6  7  1  0
  7  8  2  0
  7  9  1  0
  9 10  1  0
 10 11  1  0
 11 12  1  0
 12 13  1  0
 12 20  1  0
 13 14  1  0
 14 15  1  0
 14 18  2  0
 15 16  1  0
 16 17  2  0
 17 18  1  0
 18 19  1  0
 20 21  2  0
 22 20  1  0
 22  9  1  0
 22 23  1  6
 23 24  1  0
 24 25  2  0
 24 29  1  0
 25 26  1  0
 26 27  2  0
 27 28  1  0
 28 29  2  0
 30 31  1  0
 30 32  2  0
M  END
>  <DRUGBANK_ID>  (1) 
DB18125

>  <COMMON_NAME>  (1) 
PTX-100

>  <CAS_NUMBER>  (1) 
501010-06-6

>  <UNII>  (1) 
M67G28K74K

>  <SYNONYMS>  (1) 
2-{[2-benzyl-4-(5-methyl-3H-imidazol-4-ylmethyl)-3-oxo-piperazine-1-carbonyl]- amino}-4methyl-pentanoic acid; GGTI-2418

$$$$
