
     RDKit          3D

 17 18  0  0  1  0  0  0  0  0999 V2000
   -0.7140    1.1401    0.0092 C   0  0  0  0  0  0  0  0  0  0  0  0
   -1.4316    0.0239    0.0076 C   0  0  0  0  0  0  0  0  0  0  0  0
   -0.6559   -1.2389   -0.0026 C   0  0  0  0  0  0  0  0  0  0  0  0
    0.6459   -1.2582   -0.0066 N   0  0  0  0  0  0  0  0  0  0  0  0
    1.3628   -0.0782   -0.0091 C   0  0  0  0  0  0  0  0  0  0  0  0
    2.5956   -0.0984   -0.0275 O   0  0  0  0  0  0  0  0  0  0  0  0
    0.6645    1.1340   -0.0152 N   0  0  0  0  0  0  0  0  0  0  0  0
    1.4180    2.3879   -0.0088 C   0  0  1  0  0  0  0  0  0  0  0  0
    1.1657    3.3014   -1.2079 C   0  0  0  0  0  0  0  0  0  0  0  0
    1.3570    4.6821   -0.6193 C   0  0  1  0  0  0  0  0  0  0  0  0
    0.9181    4.5322    0.8341 C   0  0  2  0  0  0  0  0  0  0  0  0
    1.0925    3.1410    1.1763 O   0  0  0  0  0  0  0  0  0  0  0  0
   -0.5437    4.9492    1.0667 C   0  0  0  0  0  0  0  0  0  0  0  0
   -1.4871    4.2038    0.3071 O   0  0  0  0  0  0  0  0  0  0  0  0
    2.7337    5.0514   -0.7058 O   0  0  0  0  0  0  0  0  0  0  0  0
   -1.3105   -2.4392   -0.0145 N   0  0  0  0  0  0  0  0  0  0  0  0
   -3.1419    0.0018    0.0009 Cl  0  0  0  0  0  0  0  0  0  0  0  0
  1  2  2  0
  1  7  1  0
  2  3  1  0
  2 17  1  0
  3  4  2  0
  3 16  1  0
  4  5  1  0
  5  6  2  0
  5  7  1  0
  8  7  1  6
  8  9  1  0
  8 12  1  0
  9 10  1  0
 10 11  1  0
 10 15  1  1
 11 12  1  0
 11 13  1  6
 13 14  1  0
M  END
>  <DRUGBANK_ID>  (1) 
DB12383

>  <COMMON_NAME>  (1) 
Cytochlor

>  <CAS_NUMBER>  (1) 
32387-56-7

>  <UNII>  (1) 
J14D49ZN55

$$$$
