HQC
     RDKit          3D

 34 36  0  0  0  0  0  0  0  0999 V2000
   -1.3315    5.9998    3.3853 O   0  0  0  0  0  0  0  0  0  0  0  0
   -0.5028    5.2172    2.9316 C   0  0  0  0  0  0  0  0  0  0  0  0
    0.1521    5.3554    1.5593 C   0  0  2  0  0  0  0  0  0  0  0  0
   -0.4265    6.4705    0.7102 C   0  0  0  0  0  0  0  0  0  0  0  0
   -1.9212    6.4428    0.6911 C   0  0  0  0  0  0  0  0  0  0  0  0
   -2.6624    7.3670    0.9979 O   0  0  0  0  0  0  0  0  0  0  0  0
   -2.4135    5.2732    0.2398 O   0  0  0  0  0  0  0  0  0  0  0  0
    0.1587    4.0602    0.8858 N   0  0  0  0  0  0  0  0  0  0  0  0
    1.2083    3.2958    0.4480 C   0  0  0  0  0  0  0  0  0  0  0  0
    0.9153    2.2726   -0.1663 O   0  0  0  0  0  0  0  0  0  0  0  0
    2.6387    3.7456    0.7846 C   0  0  2  0  0  0  0  0  0  0  0  0
    3.7168    3.1952   -0.1285 C   0  0  0  0  0  0  0  0  0  0  0  0
    3.7808    1.5468   -0.5897 S   0  0  0  0  0  0  0  0  0  0  0  0
    5.1906    1.7859   -1.5129 C   0  0  0  0  0  0  0  0  0  0  0  0
    5.6842    3.0617   -1.3861 C   0  0  0  0  0  0  0  0  0  0  0  0
    4.8336    3.8773   -0.5917 C   0  0  0  0  0  0  0  0  0  0  0  0
    2.9696    3.4530    2.2625 C   0  0  0  0  0  0  0  0  0  0  0  0
    4.3069    4.0593    2.7163 C   0  0  0  0  0  0  0  0  0  0  0  0
    4.3482    5.5810    2.5850 C   0  0  0  0  0  0  0  0  0  0  0  0
    3.2960    6.2660    3.4356 C   0  0  0  0  0  0  0  0  0  0  0  0
    3.5168    6.0543    4.8442 N   0  0  0  0  0  0  0  0  0  0  0  0
    3.7329    7.0182    5.7978 C   0  0  0  0  0  0  0  0  0  0  0  0
    4.0132    6.6889    6.9473 O   0  0  0  0  0  0  0  0  0  0  0  0
    3.6701    8.4546    5.4057 C   0  0  0  0  0  0  0  0  0  0  0  0
    2.6504    8.8190    4.5924 N   0  0  0  0  0  0  0  0  0  0  0  0
    4.6488    9.3222    5.8451 C   0  0  0  0  0  0  0  0  0  0  0  0
    4.5696   10.6453    5.4245 C   0  0  0  0  0  0  0  0  0  0  0  0
    3.5285   11.0547    4.5726 C   0  0  0  0  0  0  0  0  0  0  0  0
    3.4078   12.3847    4.1320 C   0  0  0  0  0  0  0  0  0  0  0  0
    2.5874   10.0886    4.1581 C   0  0  0  0  0  0  0  0  0  0  0  0
    1.5824   10.4816    3.2682 C   0  0  0  0  0  0  0  0  0  0  0  0
    0.7069    9.5260    2.8036 O   0  0  0  0  0  0  0  0  0  0  0  0
    1.4629   11.7994    2.8261 C   0  0  0  0  0  0  0  0  0  0  0  0
    2.3742   12.7543    3.2699 C   0  0  0  0  0  0  0  0  0  0  0  0
  1  2  2  0
  3  8  1  0
  3  4  1  6
  3  2  1  0
  4  5  1  0
  5  6  2  0
  5  7  1  0
  8  9  1  0
  9 10  2  0
 11 17  1  1
 11 12  1  0
 11  9  1  0
 12 13  1  0
 12 16  2  0
 13 14  1  0
 14 15  2  0
 15 16  1  0
 17 18  1  0
 18 19  1  0
 19 20  1  0
 20 21  1  0
 21 22  1  0
 22 23  2  0
 22 24  1  0
 24 25  2  0
 24 26  1  0
 25 30  1  0
 26 27  2  0
 27 28  1  0
 28 29  1  0
 28 30  2  0
 29 34  2  0
 30 31  1  0
 31 32  1  0
 31 33  2  0
 33 34  1  0
M  END
>  <DRUGBANK_ID>  (1) 
DB07916

>  <COMMON_NAME>  (1) 
3-{6-[(8-HYDROXY-QUINOLINE-2-CARBONYL)-AMINO]-2-THIOPHEN-2-YL-HEXANOYLAMINO}-4-OXO-BUTYRI ACID

$$$$
