
     RDKit          3D

 21 23  0  0  0  0  0  0  0  0999 V2000
    2.5310   -1.3270    0.0130 O   0  0  0  0  0  0  0  0  0  0  0  0
    1.5650   -0.3870   -0.0080 B   0  0  0  0  0  0  0  0  0  0  0  0
    1.9330    0.9520    0.0150 O   0  0  0  0  0  0  0  0  0  0  0  0
    0.7540    1.8000   -0.0010 C   0  0  0  0  0  0  0  0  0  0  0  0
   -0.4180    0.8540   -0.0210 C   0  0  0  0  0  0  0  0  0  0  0  0
    0.0110   -0.4750   -0.0300 C   0  0  0  0  0  0  0  0  0  0  0  0
   -0.9430   -1.5040   -0.0120 C   0  0  0  0  0  0  0  0  0  0  0  0
   -2.2940   -1.1730    0.0150 C   0  0  0  0  0  0  0  0  0  0  0  0
   -2.6930    0.1620    0.0190 C   0  0  0  0  0  0  0  0  0  0  0  0
   -4.0781    0.4740    0.0411 O   0  0  0  0  0  0  0  0  0  0  0  0
   -5.0408   -0.5696    0.0588 C   0  0  0  0  0  0  0  0  0  0  0  0
   -5.0847   -1.5192    1.1014 C   0  0  0  0  0  0  0  0  0  0  0  0
   -6.0304   -2.5281    1.1059 C   0  0  0  0  0  0  0  0  0  0  0  0
   -6.0260   -3.4856    2.1794 C   0  0  0  0  0  0  0  0  0  0  0  0
   -6.0327   -4.2580    3.0254 N   0  0  0  0  0  0  0  0  0  0  0  0
   -6.9867   -2.6403    0.0834 C   0  0  0  0  0  0  0  0  0  0  0  0
   -6.9381   -1.7125   -0.9462 C   0  0  0  0  0  0  0  0  0  0  0  0
   -6.0010   -0.7087   -0.9642 C   0  0  0  0  0  0  0  0  0  0  0  0
   -7.9880   -3.6646    0.1190 C   0  0  0  0  0  0  0  0  0  0  0  0
   -8.7943   -4.4804    0.1536 N   0  0  0  0  0  0  0  0  0  0  0  0
   -1.7720    1.1840    0.0020 C   0  0  0  0  0  0  0  0  0  0  0  0
  1  2  1  0
  2  3  1  0
  2  6  1  0
  3  4  1  0
  4  5  1  0
  5  6  2  0
  5 21  1  0
  6  7  1  0
  7  8  2  0
  8  9  1  0
  9 10  1  0
  9 21  2  0
 10 11  1  0
 11 12  2  0
 11 18  1  0
 12 13  1  0
 13 14  1  0
 13 16  2  0
 14 15  3  0
 16 17  1  0
 16 19  1  0
 17 18  2  0
 19 20  3  0
M  END
>  <DRUGBANK_ID>  (1) 
DB16039

>  <COMMON_NAME>  (1) 
AN2898

>  <CAS_NUMBER>  (1) 
906673-33-4

>  <UNII>  (1) 
6O60L94RMB

$$$$
