
     RDKit          3D

 21 19  0  0  0  0  0  0  0  0999 V2000
   -0.0202   -0.4582    0.4709 C   0  0  0  0  0  0  0  0  0  0  0  0
    0.5626    2.5928   -0.8319 C   0  0  0  0  0  0  0  0  0  0  0  0
   -0.2190   -1.3272    1.6392 C   0  0  0  0  0  0  0  0  0  0  0  0
   -0.1453    1.3998    0.3795 C   0  0  1  0  0  0  0  0  0  0  0  0
   -0.0816    3.1197   -1.7379 O   0  0  0  0  0  0  0  0  0  0  0  0
   -0.6080   -0.9933    2.7736 O   0  0  0  0  0  0  0  0  0  0  0  0
   -1.5828    1.6057    0.2323 N   0  0  0  0  0  0  0  0  0  0  0  0
    1.8964    2.8932   -0.7568 O   0  0  0  0  0  0  0  0  0  0  0  0
    0.3284   -2.5572    1.3909 O   0  0  0  0  0  0  0  0  0  0  0  0
    2.1334    0.5388   -0.3475 C   0  0  0  0  0  0  0  0  0  0  0  0
   -0.4566   -0.5240   -5.8776 C   0  0  0  0  0  0  0  0  0  0  0  0
    2.1873    0.7264    0.9598 N   0  0  0  0  0  0  0  0  0  0  0  0
   -0.9891   -0.6937   -6.9634 O   0  0  0  0  0  0  0  0  0  0  0  0
    1.1970    0.2863   -1.4366 N   0  0  0  0  0  0  0  0  0  0  0  0
   -1.1778   -0.4021   -4.5145 C   0  0  1  0  0  0  0  0  0  0  0  0
    3.4041    0.3231   -0.5771 N   0  0  0  0  0  0  0  0  0  0  0  0
    0.8868   -0.4133   -5.7872 O   0  0  0  0  0  0  0  0  0  0  0  0
   -2.6441   -0.4444   -4.7076 N   0  0  0  0  0  0  0  0  0  0  0  0
    1.4057   -0.1523   -2.7917 C   0  0  0  0  0  0  0  0  0  0  0  0
   -0.7729   -1.5133   -3.5373 C   0  0  0  0  0  0  0  0  0  0  0  0
    0.7318   -1.5005   -3.1738 C   0  0  0  0  0  0  0  0  0  0  0  0
  2  4  1  0
  3  1  1  0
  4  1  1  0
  4  7  1  6
  5  2  2  0
  6  3  2  0
  8  2  1  0
  9  3  1  0
 11 15  1  0
 12 10  2  0
 13 11  2  0
 14 10  1  0
 15 20  1  0
 15 18  1  6
 16 10  1  0
 17 11  1  0
 19 14  1  0
 20 21  1  0
 21 19  1  0
M  END
>  <DRUGBANK_ID>  (1) 
DB15993

>  <COMMON_NAME>  (1) 
Arginine aspartate

>  <CAS_NUMBER>  (1) 
7675-83-4

>  <UNII>  (1) 
LZB1G2I725

>  <SYNONYMS>  (1) 
Arginine L-aspartate; L-Arginine aspartate; L-Arginine-L-aspartate

$$$$
