
     RDKit          3D

 22 24  0  0  1  0  0  0  0  0999 V2000
   -1.0658    1.4988    0.9618 C   0  0  0  0  0  0  0  0  0  0  0  0
    0.2785    1.4153    0.1779 C   0  0  1  0  0  0  0  0  0  0  0  0
    0.0870    1.7264   -1.3268 C   0  0  0  0  0  0  0  0  0  0  0  0
    0.0718    3.1510   -1.8198 C   0  0  0  0  0  0  0  0  0  0  0  0
   -0.0202    4.4255   -0.5851 S   0  0  0  0  0  0  0  0  0  0  0  0
    0.7973    3.6910    0.7574 C   0  0  0  0  0  0  0  0  0  0  0  0
    1.0960    2.4309    0.8929 N   0  0  0  0  0  0  0  0  0  0  0  0
    1.0213    4.6402    1.7090 N   0  0  0  0  0  0  0  0  0  0  0  0
    0.8682   -0.0484    0.1239 C   0  0  0  0  0  0  0  0  0  0  0  0
    2.1279   -0.2658   -0.4977 C   0  0  0  0  0  0  0  0  0  0  0  0
    2.5022   -1.5365   -1.0142 C   0  0  0  0  0  0  0  0  0  0  0  0
    1.6483   -2.6233   -0.8102 C   0  0  0  0  0  0  0  0  0  0  0  0
    0.4618   -2.4712   -0.1343 C   0  0  0  0  0  0  0  0  0  0  0  0
    0.0805   -1.2111    0.3089 C   0  0  0  0  0  0  0  0  0  0  0  0
   -1.1445   -1.1977    0.8383 F   0  0  0  0  0  0  0  0  0  0  0  0
    1.9544   -3.8380   -1.2895 F   0  0  0  0  0  0  0  0  0  0  0  0
    3.7201   -1.7121   -1.7980 C   0  0  0  0  0  0  0  0  0  0  0  0
    4.9721   -1.4569   -1.2750 C   0  0  0  0  0  0  0  0  0  0  0  0
    6.1252   -1.6004   -1.9581 N   0  0  0  0  0  0  0  0  0  0  0  0
    6.0002   -2.0261   -3.2241 C   0  0  0  0  0  0  0  0  0  0  0  0
    4.8509   -2.3227   -3.8486 N   0  0  0  0  0  0  0  0  0  0  0  0
    3.7319   -2.1654   -3.1098 C   0  0  0  0  0  0  0  0  0  0  0  0
  2  3  1  0
  2  7  1  0
  2  9  1  0
  2  1  1  1
  3  4  1  0
  4  5  1  0
  5  6  1  0
  6  7  2  0
  6  8  1  0
  9 10  2  0
  9 14  1  0
 10 11  1  0
 11 12  2  0
 11 17  1  0
 12 13  1  0
 12 16  1  0
 13 14  2  0
 14 15  1  0
 17 18  2  0
 17 22  1  0
 18 19  1  0
 19 20  2  0
 20 21  1  0
 21 22  2  0
M  END
>  <DRUGBANK_ID>  (1) 
DB13065

>  <COMMON_NAME>  (1) 
LY-2811376

>  <CAS_NUMBER>  (1) 
1194044-20-6

>  <UNII>  (1) 
UR18YJ97SJ

$$$$
