323
     RDKit          3D

 20 21  0  0  0  0  0  0  0  0999 V2000
    1.0327    0.0588    0.1275 O   0  0  0  0  0  0  0  0  0  0  0  0
    5.4048    3.1580   -2.0595 O   0  0  0  0  0  0  0  0  0  0  0  0
    5.0430    4.9527   -0.1245 O   0  0  0  0  0  0  0  0  0  0  0  0
    3.8910    5.5158    2.1355 O   0  0  0  0  0  0  0  0  0  0  0  0
    2.5097    4.0877    3.0365 O   0  0  0  0  0  0  0  0  0  0  0  0
    3.2844    4.4370    2.1335 N   0  0  0  0  0  0  0  0  0  0  0  0
    2.9891    1.3228    0.0204 C   0  0  0  0  0  0  0  0  0  0  0  0
    2.9879   -1.2823    0.0824 C   0  0  0  0  0  0  0  0  0  0  0  0
    2.2609    0.0256    0.0745 C   0  0  0  0  0  0  0  0  0  0  0  0
    2.7934    2.2590    1.0477 C   0  0  0  0  0  0  0  0  0  0  0  0
    3.8476    1.6186   -1.0477 C   0  0  0  0  0  0  0  0  0  0  0  0
    3.4847    3.4901    1.0228 C   0  0  0  0  0  0  0  0  0  0  0  0
    4.5281    2.8357   -1.0569 C   0  0  0  0  0  0  0  0  0  0  0  0
    4.3284   -3.7665    0.0839 C   0  0  0  0  0  0  0  0  0  0  0  0
    2.2627   -2.4842    0.0794 C   0  0  0  0  0  0  0  0  0  0  0  0
    4.3850   -1.3409    0.1185 C   0  0  0  0  0  0  0  0  0  0  0  0
    4.3515    3.7768   -0.0356 C   0  0  0  0  0  0  0  0  0  0  0  0
    2.9302   -3.7174    0.0832 C   0  0  0  0  0  0  0  0  0  0  0  0
    5.0483   -2.5692    0.1062 C   0  0  0  0  0  0  0  0  0  0  0  0
    5.0655   -5.0730    0.0618 C   0  0  0  0  0  0  0  0  0  0  0  0
  1  9  2  0
  2 13  1  0
  3 17  1  0
  4  6  1  0
  5  6  2  0
  6 12  1  0
  7  9  1  0
  7 10  2  0
  7 11  1  0
  8  9  1  0
  8 15  2  0
  8 16  1  0
 10 12  1  0
 11 13  2  0
 12 17  2  0
 13 17  1  0
 14 18  2  0
 14 19  1  0
 14 20  1  0
 15 18  1  0
 16 19  2  0
M  CHG  2   4  -1   6   1
M  END
>  <DRUGBANK_ID>  (1) 
DB00323

>  <SECONDARY_ACCESSION_NUMBERS>  (1) 
APRD00445

>  <COMMON_NAME>  (1) 
Tolcapone

>  <CAS_NUMBER>  (1) 
134308-13-7

>  <UNII>  (1) 
CIF6334OLY

>  <SYNONYMS>  (1) 
(3,4-dihydroxy-5-nitrophenyl)(4-methylphenyl)methanone; 3,4-dihydroxy-4'-methyl-5-nitrobenzophenone; 3,4-dihydroxy-5-nitro-4'-methylbenzophenone; 4'-methyl-3,4-dihydroxy-5-nitrobenzophenone; Tolcapon; Tolcapona; Tolcapone; Tolcaponum

$$$$
