
     RDKit          3D

 32 36  0  0  1  0  0  0  0  0999 V2000
    1.3139   -0.4877   -0.0134 C   0  0  0  0  0  0  0  0  0  0  0  0
    0.2401   -1.3686   -0.0066 C   0  0  0  0  0  0  0  0  0  0  0  0
   -1.0694   -0.9081   -0.0083 C   0  0  0  0  0  0  0  0  0  0  0  0
   -1.2970    0.4603   -0.0335 C   0  0  0  0  0  0  0  0  0  0  0  0
   -0.2394    1.3719   -0.0762 C   0  0  0  0  0  0  0  0  0  0  0  0
    1.0629    0.8765   -0.0419 C   0  0  0  0  0  0  0  0  0  0  0  0
    2.0982    1.7276   -0.0132 F   0  0  0  0  0  0  0  0  0  0  0  0
   -0.4898    2.8398   -0.0291 C   0  0  0  0  0  0  0  0  0  0  0  0
   -1.3200    3.3260   -1.1155 N   0  0  0  0  0  0  0  0  0  0  0  0
   -2.5503    3.9101   -1.0446 C   0  0  0  0  0  0  0  0  0  0  0  0
   -3.1359    4.1979   -2.1105 O   0  0  0  0  0  0  0  0  0  0  0  0
   -3.1554    4.2073    0.2739 C   0  0  0  0  0  0  0  0  0  0  0  0
   -2.4511    4.8281    1.2380 C   0  0  0  0  0  0  0  0  0  0  0  0
   -2.8850    5.1049    2.5254 N   0  0  0  0  0  0  0  0  0  0  0  0
   -4.2616    4.9188    2.8422 C   0  0  0  0  0  0  0  0  0  0  0  0
   -5.0955    4.2926    1.9670 C   0  0  0  0  0  0  0  0  0  0  0  0
   -4.5658    3.8957    0.6034 C   0  0  0  0  0  0  0  0  0  0  0  0
   -5.3353    3.3463   -0.1859 O   0  0  0  0  0  0  0  0  0  0  0  0
   -6.4347    4.0135    2.1749 O   0  0  0  0  0  0  0  0  0  0  0  0
   -4.7586    5.5635    4.1857 C   0  0  0  0  0  0  0  0  0  0  0  0
   -5.8333    5.2723    4.7150 O   0  0  0  0  0  0  0  0  0  0  0  0
   -3.7820    6.4450    4.7540 N   0  0  0  0  0  0  0  0  0  0  0  0
   -3.9527    7.8588    5.3798 C   0  0  2  0  0  0  0  0  0  0  0  0
   -2.7842    9.1193    5.5938 C   0  0  0  0  0  0  0  0  0  0  0  0
   -1.5779    8.3074    5.8962 C   0  0  0  0  0  0  0  0  0  0  0  0
   -2.2361    7.2461    6.7671 C   0  0  1  0  0  0  0  0  0  0  0  0
   -3.7929    7.5517    6.8342 C   0  0  0  0  0  0  0  0  0  0  0  0
   -1.8394    6.0473    6.0950 O   0  0  0  0  0  0  0  0  0  0  0  0
   -2.5739    5.6763    4.9356 C   0  0  2  0  0  0  0  0  0  0  0  0
   -1.9445    5.7170    3.5269 C   0  0  0  0  0  0  0  0  0  0  0  0
   -2.5602    0.9049    0.0170 F   0  0  0  0  0  0  0  0  0  0  0  0
    0.4734   -2.6861    0.0101 F   0  0  0  0  0  0  0  0  0  0  0  0
  1  2  2  0
  1  6  1  0
  2  3  1  0
  2 32  1  0
  3  4  2  0
  4  5  1  0
  4 31  1  0
  5  6  2  0
  5  8  1  0
  6  7  1  0
  8  9  1  0
  9 10  1  0
 10 11  2  0
 10 12  1  0
 12 13  2  0
 12 17  1  0
 13 14  1  0
 14 15  1  0
 14 30  1  0
 15 16  2  0
 15 20  1  0
 16 17  1  0
 16 19  1  0
 17 18  2  0
 20 21  2  0
 20 22  1  0
 22 23  1  0
 23 24  1  6
 23 27  1  0
 24 25  1  0
 26 25  1  6
 26 27  1  0
 26 28  1  0
 28 29  1  0
 29 22  1  0
 29 30  1  6
M  END
>  <DRUGBANK_ID>  (1) 
DB11799

>  <COMMON_NAME>  (1) 
Bictegravir

>  <CAS_NUMBER>  (1) 
1611493-60-7

>  <UNII>  (1) 
8GB79LOJ07

>  <SYNONYMS>  (1) 
Bictegravir

$$$$
