
     RDKit          3D

 30 31  0  0  1  0  0  0  0  0999 V2000
    2.8680    0.4877   -1.7005 C   0  0  0  0  0  0  0  0  0  0  0  0
    2.3967   -0.7900   -2.3465 C   0  0  0  0  0  0  0  0  0  0  0  0
    2.8905   -1.9344   -1.6397 O   0  0  0  0  0  0  0  0  0  0  0  0
    2.2552   -2.2464   -0.3706 C   0  0  2  0  0  0  0  0  0  0  0  0
    0.7488   -2.4444   -0.6136 C   0  0  0  0  0  0  0  0  0  0  0  0
    0.2696   -3.7633   -0.3367 O   0  0  0  0  0  0  0  0  0  0  0  0
    0.6566   -4.7289   -1.2225 C   0  0  0  0  0  0  0  0  0  0  0  0
    1.9629   -4.8997   -1.6803 C   0  0  0  0  0  0  0  0  0  0  0  0
    2.3316   -5.9691   -2.4649 C   0  0  0  0  0  0  0  0  0  0  0  0
    1.3796   -6.9060   -2.8251 C   0  0  0  0  0  0  0  0  0  0  0  0
    0.0661   -6.7737   -2.3431 C   0  0  0  0  0  0  0  0  0  0  0  0
   -0.3041   -5.6684   -1.5725 C   0  0  0  0  0  0  0  0  0  0  0  0
    1.7677   -7.9923   -3.7782 C   0  0  0  0  0  0  0  0  0  0  0  0
    1.6001   -9.2348   -3.2592 F   0  0  0  0  0  0  0  0  0  0  0  0
    1.0306   -7.9414   -4.9199 F   0  0  0  0  0  0  0  0  0  0  0  0
    3.0706   -7.9193   -4.1757 F   0  0  0  0  0  0  0  0  0  0  0  0
    2.7277   -1.3054    0.7390 C   0  0  0  0  0  0  0  0  0  0  0  0
    2.2627   -1.6532    2.4549 S   0  0  0  0  0  0  0  0  0  0  0  0
    0.4853   -1.5211    2.3591 C   0  0  0  0  0  0  0  0  0  0  0  0
   -0.2062   -2.7276    2.3889 C   0  0  0  0  0  0  0  0  0  0  0  0
   -1.5954   -2.7623    2.3795 C   0  0  0  0  0  0  0  0  0  0  0  0
   -2.3400   -1.5870    2.3747 C   0  0  0  0  0  0  0  0  0  0  0  0
   -1.6587   -0.3570    2.3975 C   0  0  0  0  0  0  0  0  0  0  0  0
   -0.2465   -0.3287    2.2850 C   0  0  0  0  0  0  0  0  0  0  0  0
   -2.3919    0.9214    2.7097 C   0  0  0  0  0  0  0  0  0  0  0  0
   -3.7104   -1.5440    2.3475 O   0  0  0  0  0  0  0  0  0  0  0  0
   -4.4081   -2.7757    2.2125 C   0  0  0  0  0  0  0  0  0  0  0  0
   -4.1364   -3.5785    0.9392 C   0  0  0  0  0  0  0  0  0  0  0  0
   -3.7182   -4.7149    0.8884 O   0  0  0  0  0  0  0  0  0  0  0  0
   -4.3823   -2.8850   -0.1938 O   0  0  0  0  0  0  0  0  0  0  0  0
  1  2  1  0
  2  3  1  0
  4 17  1  1
  4  5  1  0
  4  3  1  0
  5  6  1  0
  6  7  1  0
  7  8  2  0
  7 12  1  0
  8  9  1  0
  9 10  2  0
 10 11  1  0
 10 13  1  0
 11 12  2  0
 13 14  1  0
 13 15  1  0
 13 16  1  0
 17 18  1  0
 18 19  1  0
 19 20  2  0
 19 24  1  0
 20 21  1  0
 21 22  2  0
 22 23  1  0
 22 26  1  0
 23 24  2  0
 23 25  1  0
 26 27  1  0
 27 28  1  0
 28 29  2  0
 28 30  1  0
M  END
>  <DRUGBANK_ID>  (1) 
DB12390

>  <COMMON_NAME>  (1) 
Seladelpar

>  <CAS_NUMBER>  (1) 
851528-79-5

>  <UNII>  (1) 
7C00L34NB9

>  <SYNONYMS>  (1) 
Seladelpar

$$$$
