
     RDKit          3D

 17 19  0  0  1  0  0  0  0  0999 V2000
   -7.8384    3.3547   -5.1212 N   0  0  0  0  0  0  0  0  0  0  0  0
   -6.8347    2.7226   -4.3913 C   0  0  0  0  0  0  0  0  0  0  0  0
   -6.8851    2.7742   -3.0447 N   0  0  0  0  0  0  0  0  0  0  0  0
   -5.9918    2.0426   -2.3389 C   0  0  0  0  0  0  0  0  0  0  0  0
   -4.9839    1.2624   -2.7995 N   0  0  0  0  0  0  0  0  0  0  0  0
   -4.9280    1.3073   -4.1363 C   0  0  0  0  0  0  0  0  0  0  0  0
   -4.0748    0.6433   -4.9819 N   0  0  0  0  0  0  0  0  0  0  0  0
   -4.3668    1.0599   -6.2520 C   0  0  0  0  0  0  0  0  0  0  0  0
   -5.4330    1.8337   -6.2991 N   0  0  0  0  0  0  0  0  0  0  0  0
   -5.7883    1.9988   -4.9873 C   0  0  0  0  0  0  0  0  0  0  0  0
   -3.1748   -0.4485   -4.6246 C   0  0  1  0  0  0  0  0  0  0  0  0
   -3.9375   -1.7242   -4.2872 C   0  0  0  0  0  0  0  0  0  0  0  0
   -4.0347   -2.4216   -5.6244 C   0  0  0  0  0  0  0  0  0  0  0  0
   -2.7182   -2.0556   -6.2958 C   0  0  1  0  0  0  0  0  0  0  0  0
   -2.8183   -2.0586   -7.8354 C   0  0  0  0  0  0  0  0  0  0  0  0
   -2.1663   -0.9571   -8.4541 O   0  0  0  0  0  0  0  0  0  0  0  0
   -2.3493   -0.7593   -5.7746 O   0  0  0  0  0  0  0  0  0  0  0  0
  1  2  1  0
  2  3  2  0
  2 10  1  0
  3  4  1  0
  4  5  2  0
  5  6  1  0
  6  7  1  0
  6 10  2  0
  7  8  1  0
  8  9  2  0
  9 10  1  0
 11 12  1  0
 11 17  1  0
 11  7  1  6
 12 13  1  0
 14 13  1  0
 14 17  1  0
 14 15  1  6
 15 16  1  0
M  END
>  <DRUGBANK_ID>  (1) 
DB17756

>  <COMMON_NAME>  (1) 
Dideoxyadenosine

>  <CAS_NUMBER>  (1) 
4097-22-7

>  <UNII>  (1) 
4Q86AH641A

>  <SYNONYMS>  (1) 
2'-3'-dideoxyadenosine; 2',3'-dideoxyadenosine; 6-amino-9-(2',3'-dideoxy-.beta.-d-glycero-pentofuranosyl)purine; 9-(2,3-dideoxy-.beta.-d-glycero-pentofuranosyl)-9h-purin-6-amine; Dideoxyadenosine

$$$$
