D56
     RDKit          3D

 31 33  0  0  0  0  0  0  0  0999 V2000
    1.2981   -0.0018    0.3095 N   0  0  0  0  0  0  0  0  0  0  0  0
    0.7319    1.2353   -0.2012 C   0  0  0  0  0  0  0  0  0  0  0  0
   -0.7267    1.2865    0.2402 C   0  0  0  0  0  0  0  0  0  0  0  0
   -1.4852    0.0228   -0.1876 C   0  0  0  0  0  0  0  0  0  0  0  0
   -0.7490   -1.2579    0.2261 C   0  0  0  0  0  0  0  0  0  0  0  0
    0.7134   -1.2306   -0.2227 C   0  0  0  0  0  0  0  0  0  0  0  0
    2.4160   -0.0222    1.1067 C   0  0  0  0  0  0  0  0  0  0  0  0
    3.5665   -0.6294    0.6295 C   0  0  0  0  0  0  0  0  0  0  0  0
    4.7339   -0.6887    1.3797 C   0  0  0  0  0  0  0  0  0  0  0  0
    6.0687   -1.2508    0.4219 Cl  0  0  0  0  0  0  0  0  0  0  0  0
    4.7325   -0.2508    2.7185 C   0  0  0  0  0  0  0  0  0  0  0  0
    3.6168    0.4805    3.1954 C   0  0  0  0  0  0  0  0  0  0  0  0
    3.6025    1.1481    4.4727 N   0  0  0  0  0  0  0  0  0  0  0  0
    4.6483    1.3266    5.3820 C   0  0  0  0  0  0  0  0  0  0  0  0
    4.4416    1.1872    6.5990 O   0  0  0  0  0  0  0  0  0  0  0  0
    5.9914    1.8277    4.9195 C   0  0  0  0  0  0  0  0  0  0  0  0
    6.1117    2.3539    3.6297 C   0  0  0  0  0  0  0  0  0  0  0  0
    7.3383    2.6569    3.0247 C   0  0  0  0  0  0  0  0  0  0  0  0
    6.9147   -2.4731    3.2451 C   0  0  0  0  0  0  0  0  0  0  0  0
    7.2024    3.1035    1.5849 C   0  0  0  0  0  0  0  0  0  0  0  0
    8.5082    2.4684    3.7906 C   0  0  0  0  0  0  0  0  0  0  0  0
    9.7989    2.5200    3.3247 O   0  0  0  0  0  0  0  0  0  0  0  0
   10.0567    2.7039    1.9364 C   0  0  0  0  0  0  0  0  0  0  0  0
    9.8837    1.4288    1.0547 C   0  0  0  0  0  0  0  0  0  0  0  0
    8.7754    0.5201    1.2899 N   0  0  0  0  0  0  0  0  0  0  0  0
    8.4081    2.0609    5.1564 C   0  0  0  0  0  0  0  0  0  0  0  0
    9.6322    1.9494    6.0429 C   0  0  0  0  0  0  0  0  0  0  0  0
    7.1449    1.7291    5.7061 C   0  0  0  0  0  0  0  0  0  0  0  0
    2.4663    0.5718    2.3810 C   0  0  0  0  0  0  0  0  0  0  0  0
    5.6553   -0.5143    3.6966 O   0  0  0  0  0  0  0  0  0  0  0  0
    6.9391   -0.9832    3.3659 C   0  0  0  0  0  0  0  0  0  0  0  0
  1  2  1  0
  1  6  1  0
  1  7  1  0
  2  3  1  0
  3  4  1  0
  4  5  1  0
  5  6  1  0
  7  8  2  0
  7 29  1  0
  8  9  1  0
  9 10  1  0
  9 11  2  0
 11 12  1  0
 11 30  1  0
 12 13  1  0
 12 29  2  0
 13 14  1  0
 14 15  2  0
 14 16  1  0
 16 17  2  0
 16 28  1  0
 17 18  1  0
 18 20  1  0
 18 21  2  0
 19 31  1  0
 21 22  1  0
 21 26  1  0
 22 23  1  0
 23 24  1  0
 24 25  1  0
 26 27  1  0
 26 28  2  0
 30 31  1  0
M  END
>  <DRUGBANK_ID>  (1) 
DB07626

>  <COMMON_NAME>  (1) 
4-(2-aminoethoxy)-N-(3-chloro-2-ethoxy-5-piperidin-1-ylphenyl)-3,5-dimethylbenzamide

$$$$
