VGI
     RDKit          3D

 26 29  0  0  0  0  0  0  0  0999 V2000
    0.9828   -1.2105   -0.0445 C   0  0  0  0  0  0  0  0  0  0  0  0
    0.3030    0.0043   -0.0229 C   0  0  0  0  0  0  0  0  0  0  0  0
   -1.5871    0.0122   -0.0107 Br  0  0  0  0  0  0  0  0  0  0  0  0
    1.0009    1.2122   -0.0071 C   0  0  0  0  0  0  0  0  0  0  0  0
    2.3948    1.2085    0.0157 C   0  0  0  0  0  0  0  0  0  0  0  0
    3.0829   -0.0032    0.0333 C   0  0  0  0  0  0  0  0  0  0  0  0
    2.3787   -1.2162   -0.0194 C   0  0  0  0  0  0  0  0  0  0  0  0
    3.0983   -2.4438   -0.0441 N   0  0  0  0  0  0  0  0  0  0  0  0
    2.8886   -3.3261   -1.1078 C   0  0  0  0  0  0  0  0  0  0  0  0
    2.0394   -3.1766   -1.9927 O   0  0  0  0  0  0  0  0  0  0  0  0
    3.9467   -2.6934    1.0258 C   0  0  0  0  0  0  0  0  0  0  0  0
    4.0660   -1.9685    2.0226 O   0  0  0  0  0  0  0  0  0  0  0  0
    4.7343   -3.9301    0.9791 C   0  0  0  0  0  0  0  0  0  0  0  0
    5.5513   -4.1876    2.0834 C   0  0  0  0  0  0  0  0  0  0  0  0
    6.3401   -5.2983    2.0789 C   0  0  0  0  0  0  0  0  0  0  0  0
    6.2896   -6.1411    0.9805 C   0  0  0  0  0  0  0  0  0  0  0  0
    5.5197   -5.9294   -0.1996 C   0  0  0  0  0  0  0  0  0  0  0  0
    4.6819   -4.7797   -0.1450 C   0  0  0  0  0  0  0  0  0  0  0  0
    3.7947   -4.5011   -1.1920 C   0  0  0  0  0  0  0  0  0  0  0  0
    3.7508   -5.3165   -2.3253 C   0  0  0  0  0  0  0  0  0  0  0  0
    4.6077   -6.4140   -2.4240 C   0  0  0  0  0  0  0  0  0  0  0  0
    5.5124   -6.7548   -1.3879 C   0  0  0  0  0  0  0  0  0  0  0  0
    6.2766   -7.9020   -1.6084 N   0  0  0  0  0  0  0  0  0  0  0  0
    7.3680   -8.4372   -0.8019 C   0  0  0  0  0  0  0  0  0  0  0  0
    6.9638   -9.7663   -0.1681 C   0  0  0  0  0  0  0  0  0  0  0  0
    7.0015  -10.7901   -1.1552 O   0  0  0  0  0  0  0  0  0  0  0  0
  1  2  2  0
  1  7  1  0
  2  3  1  0
  2  4  1  0
  4  5  2  0
  5  6  1  0
  6  7  2  0
  7  8  1  0
  8  9  1  0
  8 11  1  0
  9 10  2  0
  9 19  1  0
 11 12  2  0
 11 13  1  0
 13 14  2  0
 13 18  1  0
 14 15  1  0
 15 16  2  0
 16 17  1  0
 17 18  1  0
 17 22  2  0
 18 19  2  0
 19 20  1  0
 20 21  2  0
 21 22  1  0
 22 23  1  0
 23 24  1  0
 24 25  1  0
 25 26  1  0
M  END
>  <DRUGBANK_ID>  (1) 
DB08701

>  <COMMON_NAME>  (1) 
2-(3-BROMOPHENYL)-6-[(2-HYDROXYETHYL)AMINO]-1H-BENZO[DE]ISOQUINOLINE-1,3(2H)-DIONE

$$$$
