RRR
     RDKit          3D

 28 31  0  0  0  0  0  0  0  0999 V2000
    1.6228   -1.0429    0.0030 N   0  0  0  0  0  0  0  0  0  0  0  0
    0.2847   -0.7003   -0.0061 C   0  0  0  0  0  0  0  0  0  0  0  0
    0.2090    0.6891    0.0147 C   0  0  0  0  0  0  0  0  0  0  0  0
   -1.0366    1.3201   -0.0042 C   0  0  0  0  0  0  0  0  0  0  0  0
   -2.1702    0.5857   -0.0000 N   0  0  0  0  0  0  0  0  0  0  0  0
   -2.0602   -0.7622    0.0041 C   0  0  0  0  0  0  0  0  0  0  0  0
   -0.8679   -1.4796   -0.0193 C   0  0  0  0  0  0  0  0  0  0  0  0
    1.5291    1.1653    0.0679 C   0  0  0  0  0  0  0  0  0  0  0  0
    2.4007    0.0919    0.0183 C   0  0  0  0  0  0  0  0  0  0  0  0
    3.8993    0.0889   -0.0177 C   0  0  0  0  0  0  0  0  0  0  0  0
    4.2839    0.7481   -1.2515 N   0  0  0  0  0  0  0  0  0  0  0  0
    4.1513    2.1290   -1.3405 C   0  0  0  0  0  0  0  0  0  0  0  0
    3.8690    2.8650   -0.3934 O   0  0  0  0  0  0  0  0  0  0  0  0
    4.2116    2.7236   -2.7181 C   0  0  0  0  0  0  0  0  0  0  0  0
    5.0377    2.0275   -3.7313 N   0  0  0  0  0  0  0  0  0  0  0  0
    4.7112    0.5581   -3.6776 C   0  0  0  0  0  0  0  0  0  0  0  0
    5.0075   -0.0018   -2.2811 C   0  0  0  0  0  0  0  0  0  0  0  0
    6.7095    2.3849   -3.6295 S   0  0  0  0  0  0  0  0  0  0  0  0
    7.1238    2.0846   -2.2797 O   0  0  0  0  0  0  0  0  0  0  0  0
    7.3312    1.6754   -4.7352 O   0  0  0  0  0  0  0  0  0  0  0  0
    6.9831    4.0744   -3.8570 C   0  0  0  0  0  0  0  0  0  0  0  0
    6.0080    4.9605   -4.1053 C   0  0  0  0  0  0  0  0  0  0  0  0
    6.3193    6.3388   -4.2292 C   0  0  0  0  0  0  0  0  0  0  0  0
    7.3413    6.9065   -4.9656 C   0  0  0  0  0  0  0  0  0  0  0  0
    7.3185    8.3256   -4.9443 C   0  0  0  0  0  0  0  0  0  0  0  0
    6.3155    8.7903   -4.1369 C   0  0  0  0  0  0  0  0  0  0  0  0
    5.9729   10.4400   -3.8037 Cl  0  0  0  0  0  0  0  0  0  0  0  0
    5.3694    7.5570   -3.4628 S   0  0  0  0  0  0  0  0  0  0  0  0
  1  2  1  0
  1  9  1  0
  2  3  2  0
  2  7  1  0
  3  4  1  0
  3  8  1  0
  4  5  2  0
  5  6  1  0
  6  7  2  0
  8  9  2  0
  9 10  1  0
 10 11  1  0
 11 12  1  0
 11 17  1  0
 12 13  2  0
 12 14  1  0
 14 15  1  0
 15 16  1  0
 15 18  1  0
 16 17  1  0
 18 19  2  0
 18 20  2  0
 18 21  1  0
 21 22  2  0
 22 23  1  0
 23 24  2  0
 23 28  1  0
 24 25  1  0
 25 26  2  0
 26 27  1  0
 26 28  1  0
M  END
>  <DRUGBANK_ID>  (1) 
DB08488

>  <COMMON_NAME>  (1) 
4-{[(E)-2-(5-CHLOROTHIEN-2-YL)VINYL]SULFONYL}-1-(1H-PYRROLO[3,2-C]PYRIDIN-2-YLMETHYL)PIPERAZIN-2-ONE

$$$$
