
     RDKit          3D

 29 28  0  0  0  0  0  0  0  0999 V2000
    0.9721    0.1809   -0.0731 C   0  0  0  0  0  0  0  0  0  0  0  0
    0.5270   -0.9295   -1.0111 C   0  0  0  0  0  0  0  0  0  0  0  0
    1.0217   -2.2862   -0.5070 C   0  0  0  0  0  0  0  0  0  0  0  0
    0.4632   -2.6012    0.8843 C   0  0  0  0  0  0  0  0  0  0  0  0
   -1.0702   -2.6006    0.8656 C   0  0  0  0  0  0  0  0  0  0  0  0
   -1.5992   -3.6737   -0.0939 C   0  0  0  0  0  0  0  0  0  0  0  0
   -1.1192   -5.0541    0.3442 C   0  0  0  0  0  0  0  0  0  0  0  0
   -1.5365   -5.3150    1.7804 C   0  0  0  0  0  0  0  0  0  0  0  0
   -3.0164   -5.3424    1.8161 C   0  0  0  0  0  0  0  0  0  0  0  0
   -3.6921   -6.4884    2.0866 C   0  0  0  0  0  0  0  0  0  0  0  0
   -3.0065   -7.7010    2.5900 C   0  0  0  0  0  0  0  0  0  0  0  0
   -3.4462   -7.8435    4.0418 C   0  0  0  0  0  0  0  0  0  0  0  0
   -4.9903   -7.9547    4.0923 C   0  0  0  0  0  0  0  0  0  0  0  0
   -5.4628   -9.0331    3.1501 C   0  0  0  0  0  0  0  0  0  0  0  0
   -4.6993  -10.1858    3.6364 C   0  0  0  0  0  0  0  0  0  0  0  0
   -5.1731  -10.4884    5.2907 C   0  0  0  0  0  0  0  0  0  0  0  0
   -6.5252  -11.2343    5.2702 C   0  0  0  0  0  0  0  0  0  0  0  0
   -6.7514  -12.4610    4.2998 C   0  0  0  0  0  0  0  0  0  0  0  0
   -6.0074  -13.6887    4.5604 O   0  0  0  0  0  0  0  0  0  0  0  0
   -4.3066  -13.3888    4.4607 P   0  0  0  0  0  0  0  0  0  0  0  0
   -4.5677  -13.5861    3.0123 O   0  0  0  0  0  0  0  0  0  0  0  0
   -4.1136  -11.9771    4.4649 O   0  0  0  0  0  0  0  0  0  0  0  0
   -2.6057  -13.0888    4.3609 O   0  0  0  0  0  0  0  0  0  0  0  0
   -2.1013  -13.5165    3.0622 C   0  0  0  0  0  0  0  0  0  0  0  0
   -2.2617  -15.0711    2.6627 C   0  0  0  0  0  0  0  0  0  0  0  0
   -3.6751  -15.7401    2.6268 N   0  0  0  0  0  0  0  0  0  0  0  0
   -4.5476  -14.8975    1.3633 C   0  0  0  0  0  0  0  0  0  0  0  0
   -3.9628  -17.1290    2.2597 C   0  0  0  0  0  0  0  0  0  0  0  0
   -4.1550  -15.8465    4.1210 C   0  0  0  0  0  0  0  0  0  0  0  0
  1  2  1  0
  2  3  1  0
  3  4  1  0
  4  5  1  0
  5  6  1  0
  6  7  1  0
  7  8  1  0
  8  9  1  0
  9 10  2  0
 10 11  1  0
 11 12  1  0
 12 13  1  0
 13 14  1  0
 14 15  1  0
 15 16  1  0
 16 17  1  0
 17 18  1  0
 18 19  1  0
 19 20  1  0
 20 21  1  0
 20 22  2  0
 20 23  1  0
 23 24  1  0
 24 25  1  0
 25 26  1  0
 26 27  1  0
 26 28  1  0
 26 29  1  0
M  CHG  2  21  -1  26   1
M  END
>  <DRUGBANK_ID>  (1) 
DB17750

>  <COMMON_NAME>  (1) 
Oleylphosphocholine

>  <CAS_NUMBER>  (1) 
76622-80-5

>  <UNII>  (1) 
Z46GXL23LX

>  <SYNONYMS>  (1) 
Cis-9-octadecenylphosphocholine; Ethanaminium, 2-((hydroxy((9z)-9-octadecen-1-yloxy)phosphinyl)oxy)-n,n,n-trimethyl-, inner salt; Ethanaminium, 2-((hydroxy(9-octadecenyloxy)phosphinyl)oxy)-n,n,n-trimethyl-, inner salt, (z)-; Oleyl phosphocholine

$$$$
