
     RDKit          3D

 23 25  0  0  0  0  0  0  0  0999 V2000
    0.7773   -0.2720    0.4085 C   0  0  0  0  0  0  0  0  0  0  0  0
    0.4647    1.1651    0.6047 C   0  0  0  0  0  0  0  0  0  0  0  0
   -0.7200    1.4610    1.2777 C   0  0  0  0  0  0  0  0  0  0  0  0
   -1.0547    2.7704    1.5926 C   0  0  0  0  0  0  0  0  0  0  0  0
   -2.2358    3.0217    2.2993 C   0  0  0  0  0  0  0  0  0  0  0  0
   -2.6959    4.3169    2.4427 C   0  0  0  0  0  0  0  0  0  0  0  0
   -1.9241    5.3699    1.9697 C   0  0  0  0  0  0  0  0  0  0  0  0
   -0.6380    5.1379    1.4754 C   0  0  0  0  0  0  0  0  0  0  0  0
   -0.2099    3.8317    1.1852 C   0  0  0  0  0  0  0  0  0  0  0  0
    0.9797    3.5385    0.4679 C   0  0  0  0  0  0  0  0  0  0  0  0
    1.3045    2.2073    0.1425 C   0  0  0  0  0  0  0  0  0  0  0  0
    2.5393    1.9747   -0.5796 O   0  0  0  0  0  0  0  0  0  0  0  0
    2.8191    0.8006   -1.2929 C   0  0  0  0  0  0  0  0  0  0  0  0
    2.0779   -0.1166   -1.5648 O   0  0  0  0  0  0  0  0  0  0  0  0
    4.1316    0.6631   -1.9001 C   0  0  0  0  0  0  0  0  0  0  0  0
    5.2781    1.3064   -1.4855 C   0  0  0  0  0  0  0  0  0  0  0  0
    6.3976    1.1897   -2.3086 C   0  0  0  0  0  0  0  0  0  0  0  0
    6.3932    0.3584   -3.4466 C   0  0  0  0  0  0  0  0  0  0  0  0
    5.3073   -0.4687   -3.6873 C   0  0  0  0  0  0  0  0  0  0  0  0
    4.1591   -0.2637   -2.9629 C   0  0  0  0  0  0  0  0  0  0  0  0
    7.5474    0.1925   -4.2105 N   0  0  0  0  0  0  0  0  0  0  0  0
    1.7760    4.5963    0.0950 O   0  0  0  0  0  0  0  0  0  0  0  0
   -1.6004    0.4684    1.6437 O   0  0  0  0  0  0  0  0  0  0  0  0
  1  2  1  0
  2  3  2  0
  2 11  1  0
  3  4  1  0
  3 23  1  0
  4  5  2  0
  4  9  1  0
  5  6  1  0
  6  7  2  0
  7  8  1  0
  8  9  2  0
  9 10  1  0
 10 11  2  0
 10 22  1  0
 11 12  1  0
 12 13  1  0
 13 14  2  0
 13 15  1  0
 15 16  2  0
 15 20  1  0
 16 17  1  0
 17 18  2  0
 18 19  1  0
 18 21  1  0
 19 20  2  0
M  END
>  <DRUGBANK_ID>  (1) 
DB13039

>  <COMMON_NAME>  (1) 
Aminaphthone

>  <CAS_NUMBER>  (1) 
14748-94-8

>  <UNII>  (1) 
03JLX11PE9

>  <SYNONYMS>  (1) 
Aminaftone; Aminaphtone

$$$$
