
     RDKit          3D

 28 31  0  0  1  0  0  0  0  0999 V2000
    2.0311    1.9312   -0.4689 C   0  0  0  0  0  0  0  0  0  0  0  0
    8.4068   -1.7336    1.2591 C   0  0  0  0  0  0  0  0  0  0  0  0
    8.7948   -3.8163   -0.5193 C   0  0  0  0  0  0  0  0  0  0  0  0
    2.3768   -0.7820    3.0872 C   0  0  0  0  0  0  0  0  0  0  0  0
    6.1499   -4.5902   -0.7721 C   0  0  0  0  0  0  0  0  0  0  0  0
   -0.2777   -2.6217    1.0184 C   0  0  0  0  0  0  0  0  0  0  0  0
    2.8212   -3.6986    1.5797 C   0  0  0  0  0  0  0  0  0  0  0  0
    4.2718   -2.7553   -0.3094 C   0  0  0  0  0  0  0  0  0  0  0  0
    0.4619   -2.1603    2.2655 C   0  0  0  0  0  0  0  0  0  0  0  0
    3.9491   -4.5883    0.7201 C   0  0  0  0  0  0  0  0  0  0  0  0
    4.9796   -2.8822    1.5973 C   0  0  0  0  0  0  0  0  0  0  0  0
    3.5165    0.1394   -0.0820 C   0  0  0  0  0  0  0  0  0  0  0  0
   -0.0877   -0.0500    0.6684 C   0  0  0  0  0  0  0  0  0  0  0  0
    2.2745    0.6020    0.1483 C   0  0  0  0  0  0  0  0  0  0  0  0
    7.1558   -1.9398    1.9486 C   0  0  0  0  0  0  0  0  0  0  0  0
    8.5164   -4.4988    0.9895 C   0  0  0  0  0  0  0  0  0  0  0  0
   -0.9187   -1.3294    0.5621 C   0  0  0  0  0  0  0  0  0  0  0  0
    4.0139   -1.0549    0.6046 C   0  0  1  0  0  0  0  0  0  0  0  0
    2.5835   -2.1658    1.0039 C   0  0  2  0  0  0  0  0  0  0  0  0
    5.3198   -1.9062   -0.1217 C   0  0  1  0  0  0  0  0  0  0  0  0
    1.2373   -0.1740    0.8932 C   0  0  0  0  0  0  0  0  0  0  0  0
    1.6722   -1.3163    1.8280 C   0  0  2  0  0  0  0  0  0  0  0  0
    5.6105   -3.6409    0.3071 C   0  0  2  0  0  0  0  0  0  0  0  0
    6.4171   -3.2764    1.5066 C   0  0  2  0  0  0  0  0  0  0  0  0
    6.7593   -1.0673    2.7695 O   0  0  0  0  0  0  0  0  0  0  0  0
    9.4474   -5.0611    1.5690 O   0  0  0  0  0  0  0  0  0  0  0  0
   -2.0246   -1.3157    0.0311 O   0  0  0  0  0  0  0  0  0  0  0  0
    7.2613   -4.4090    1.6657 O   0  0  0  0  0  0  0  0  0  0  0  0
  9  6  1  0
 10  7  1  0
 11  8  1  0
 14 12  2  0
 14  1  1  0
 15  2  1  0
 16  3  1  0
 17  6  1  0
 17 13  1  0
 18 12  1  6
 19  7  1  1
 19 18  1  0
 20  8  1  6
 20 18  1  0
 21 13  2  0
 21 14  1  0
 22  9  1  0
 22 19  1  0
 22 21  1  0
 22  4  1  1
 23 10  1  0
 23 20  1  0
 23  5  1  6
 24 11  1  0
 24 23  1  0
 24 28  1  1
 24 15  1  0
 25 15  2  0
 26 16  2  0
 27 17  2  0
 28 16  1  0
M  END
>  <DRUGBANK_ID>  (1) 
DB00351

>  <SECONDARY_ACCESSION_NUMBERS>  (1) 
APRD01092

>  <COMMON_NAME>  (1) 
Megestrol acetate

>  <CAS_NUMBER>  (1) 
595-33-5

>  <UNII>  (1) 
TJ2M0FR8ES

>  <SYNONYMS>  (1) 
17-Acetoxy-6-methylpregna-4,6-diene-3,20-dione; 17-Hydroxy-6-methylpregna-4,6-diene-3,20-dione 17-acetate; 17alpha-Acetoxy-6-dehydro-6-methylprogesterone; 17alpha-Hydroxy-6-methylpregna-4,6-diene-3,20-dione acetate; 17α-Acetoxy-6-dehydro-6-methylprogesterone; 17α-Hydroxy-6-methylpregna-4,6-diene-3,20-dione acetate; 6-Dehydro-6-methyl-17alpha-acetoxyprogesterone; 6-Dehydro-6-methyl-17α-acetoxyprogesterone; 6-Methyl-17alpha-acetoxypregna-4,6-diene-3,20-dione; 6-Methyl-17alpha-hydroxy-delta(sup 6)-progesterone acetate; 6-Methyl-17α-acetoxypregna-4,6-diene-3,20-dione; 6-Methyl-17α-hydroxy-delta(sup 6)-progesterone acetate; 6-Methyl-6-dehydro-17alpha-acetoxyprogesterone; 6-Methyl-6-dehydro-17α-acetoxyprogesterone; 6-Methyl-delta(sup 4,6)-pregnadien-17alpha-ol-3,20-dione acetate; 6-Methyl-delta(sup 4,6)-pregnadien-17α-ol-3,20-dione acetate; 6-Methyl-delta(sup 6)-dehydro-17alpha-acetoxyprogesterone; 6-Methyl-delta(sup 6)-dehydro-17α-acetoxyprogesterone; Megestrol acetate; MGA

$$$$
