LI4
     RDKit          3D

 19 21  0  0  0  0  0  0  0  0999 V2000
   -1.8710   -0.1494    0.0044 C   0  0  0  0  0  0  0  0  0  0  0  0
   -1.2879   -1.4145    0.0428 C   0  0  0  0  0  0  0  0  0  0  0  0
    0.0627   -1.5846    0.4063 C   0  0  0  0  0  0  0  0  0  0  0  0
    0.7226   -0.5071    1.0004 C   0  0  0  0  0  0  0  0  0  0  0  0
   -1.0704    0.9089    0.3552 C   0  0  0  0  0  0  0  0  0  0  0  0
    0.6226   -2.7904    0.0751 O   0  0  0  0  0  0  0  0  0  0  0  0
    2.0807   -0.6628    1.5163 N   0  0  0  0  0  0  0  0  0  0  0  0
    2.3120    0.8631   -0.7048 C   0  0  0  0  0  0  0  0  0  0  0  0
    2.6448   -0.3588   -1.4896 C   0  0  0  0  0  0  0  0  0  0  0  0
    3.0784    0.1143   -2.7007 C   0  0  0  0  0  0  0  0  0  0  0  0
    3.0024    1.5522   -3.0482 C   0  0  0  0  0  0  0  0  0  0  0  0
    2.4975    2.5759   -2.2055 C   0  0  0  0  0  0  0  0  0  0  0  0
    2.1622    2.2255   -0.9886 C   0  0  0  0  0  0  0  0  0  0  0  0
    2.6647   -1.9341   -1.2392 C   0  0  0  0  0  0  0  0  0  0  0  0
    3.2819   -2.7714   -2.1865 C   0  0  0  0  0  0  0  0  0  0  0  0
    3.7623   -2.2131   -3.3482 C   0  0  0  0  0  0  0  0  0  0  0  0
    3.6411   -0.8281   -3.6068 C   0  0  0  0  0  0  0  0  0  0  0  0
    0.1437    0.7392    0.9580 N   0  0  0  0  0  0  0  0  0  0  0  0
    2.0532   -2.7986   -0.0451 C   0  0  0  0  0  0  0  0  0  0  0  0
  1  2  2  0
  1  5  1  0
  2  3  1  0
  3  4  2  0
  3  6  1  0
  4  7  1  0
  4 18  1  0
  5 18  2  0
  6 19  1  0
  8  9  2  0
  8 13  1  0
  9 10  1  0
  9 14  1  0
 10 11  2  0
 10 17  1  0
 11 12  1  0
 12 13  2  0
 14 15  2  0
 14 19  1  0
 15 16  1  0
 16 17  2  0
M  END
>  <DRUGBANK_ID>  (1) 
DB08093

>  <COMMON_NAME>  (1) 
3-(1-NAPHTHYLMETHOXY)PYRIDIN-2-AMINE

$$$$
