SBZ
     RDKit          3D

 16 17  0  0  0  0  0  0  0  0999 V2000
   -0.0170   -1.1260    0.0300 B   0  0  0  0  0  0  0  0  0  0  0  0
   -0.0404   -2.6230    0.1224 O   0  0  0  0  0  0  0  0  0  0  0  0
   -1.1450   -0.3660   -0.0620 O   0  0  0  0  0  0  0  0  0  0  0  0
    1.1390   -0.3930    0.0300 O   0  0  0  0  0  0  0  0  0  0  0  0
   -0.7540    1.0160    0.0990 C   0  0  0  0  0  0  0  0  0  0  0  0
    0.7790    1.0080   -0.0840 C   0  0  0  0  0  0  0  0  0  0  0  0
   -1.3854   -3.0777    0.0976 C   0  0  0  0  0  0  0  0  0  0  0  0
   -2.1423   -2.4855    1.2752 C   0  0  0  0  0  0  0  0  0  0  0  0
   -2.6931   -3.2769    2.1882 C   0  0  0  0  0  0  0  0  0  0  0  0
   -2.1485   -1.1080    1.4204 C   0  0  0  0  0  0  0  0  0  0  0  0
   -3.1488   -2.7612    3.3774 C   0  0  0  0  0  0  0  0  0  0  0  0
   -2.5095   -0.6698    2.7164 C   0  0  0  0  0  0  0  0  0  0  0  0
   -3.1308   -1.4144    3.6128 C   0  0  0  0  0  0  0  0  0  0  0  0
   -3.7902   -0.8070    4.8402 C   0  0  0  0  0  0  0  0  0  0  0  0
   -3.7515    0.4940    5.0319 N   0  0  0  0  0  0  0  0  0  0  0  0
   -4.4713   -1.6733    5.8132 N   0  0  0  0  0  0  0  0  0  0  0  0
  1  2  1  0
  1  3  1  0
  1  4  1  0
  2  7  1  0
  3  5  1  0
  4  6  1  0
  5  6  1  0
  7  8  1  0
  8  9  2  0
  8 10  1  0
  9 11  1  0
 10 12  2  0
 11 13  2  0
 12 13  1  0
 13 14  1  0
 14 15  2  0
 14 16  1  0
M  CHG  1  15   1
M  END
>  <DRUGBANK_ID>  (1) 
DB04109

>  <SECONDARY_ACCESSION_NUMBERS>  (1) 
EXPT02862

>  <COMMON_NAME>  (1) 
[4-(1,3,2-Dioxaborolan-2-Yloxy)Methyl]Benzamidine

$$$$
