
     RDKit          3D

 20 19  0  0  1  0  0  0  0  0999 V2000
    1.1534   -1.5220   -1.8627 C   0  0  0  0  0  0  0  0  0  0  0  0
   -5.1428   -5.1114    3.5005 C   0  0  0  0  0  0  0  0  0  0  0  0
   -1.6708   -0.7500    3.4743 C   0  0  0  0  0  0  0  0  0  0  0  0
   -9.4724   -4.7844    3.4800 C   0  0  0  0  0  0  0  0  0  0  0  0
    0.9735    0.0386    0.0950 C   0  0  0  0  0  0  0  0  0  0  0  0
   -6.3243   -2.8871    2.9493 C   0  0  0  0  0  0  0  0  0  0  0  0
   -2.1440   -2.5275    1.7286 C   0  0  0  0  0  0  0  0  0  0  0  0
    0.5367   -0.2305   -1.3444 C   0  0  2  0  0  0  0  0  0  0  0  0
   -5.1876   -3.5952    3.6971 C   0  0  2  0  0  0  0  0  0  0  0  0
   -2.0526   -1.0350    2.0284 C   0  0  2  0  0  0  0  0  0  0  0  0
   -7.7563   -3.1653    3.3602 C   0  0  0  0  0  0  0  0  0  0  0  0
    0.1813   -0.7460    1.1037 C   0  0  0  0  0  0  0  0  0  0  0  0
   -3.5032   -3.1126    2.0082 C   0  0  0  0  0  0  0  0  0  0  0  0
   -0.8739   -0.2526   -1.5246 O   0  0  0  0  0  0  0  0  0  0  0  0
   -8.5518   -2.2759    3.6415 O   0  0  0  0  0  0  0  0  0  0  0  0
    0.6641   -1.6482    1.7826 O   0  0  0  0  0  0  0  0  0  0  0  0
   -4.1573   -3.6613    1.1284 O   0  0  0  0  0  0  0  0  0  0  0  0
   -8.0903   -4.4778    3.2511 O   0  0  0  0  0  0  0  0  0  0  0  0
   -1.1252   -0.3604    1.1323 O   0  0  0  0  0  0  0  0  0  0  0  0
   -3.8915   -3.0130    3.3131 O   0  0  0  0  0  0  0  0  0  0  0  0
  8 14  1  0
  8  5  1  0
  8  1  1  1
  9  6  1  0
  9  2  1  6
 10  7  1  0
 10  3  1  1
 11  6  1  0
 12  5  1  0
 13  7  1  0
 15 11  2  0
 16 12  2  0
 17 13  2  0
 18  4  1  0
 18 11  1  0
 19 10  1  0
 19 12  1  0
 20  9  1  0
 20 13  1  0
M  END
>  <DRUGBANK_ID>  (1) 
DB04773

>  <COMMON_NAME>  (1) 
METHYL (3R)-3-{[(3R)-3-{[(3R)-3-HYDROXYBUTANOYL]OXY}BUTANOYL]OXY}BUTANOATE

$$$$
