
     RDKit          3D

 33 37  0  0  1  0  0  0  0  0999 V2000
    0.9682   -0.2052    2.6210 C   0  0  0  0  0  0  0  0  0  0  0  0
   -1.7373    1.1590    2.5661 C   0  0  0  0  0  0  0  0  0  0  0  0
   -2.1569   -0.1241    3.2678 C   0  0  0  0  0  0  0  0  0  0  0  0
    8.0275    1.6154    5.2466 C   0  0  0  0  0  0  0  0  0  0  0  0
    7.9697    4.0272    4.7667 C   0  0  0  0  0  0  0  0  0  0  0  0
    4.4546    0.7608    2.7468 C   0  0  0  0  0  0  0  0  0  0  0  0
    4.3127    3.0522    2.2933 C   0  0  0  0  0  0  0  0  0  0  0  0
    8.5796    1.3885    4.0000 C   0  0  0  0  0  0  0  0  0  0  0  0
    8.5557    3.7913    3.5407 C   0  0  0  0  0  0  0  0  0  0  0  0
    2.6893    5.8498    3.9149 C   0  0  0  0  0  0  0  0  0  0  0  0
    3.5941    0.4808    1.6192 C   0  0  0  0  0  0  0  0  0  0  0  0
    3.2600    2.7797    1.3336 C   0  0  0  0  0  0  0  0  0  0  0  0
    2.8508    4.5361    4.2299 C   0  0  0  0  0  0  0  0  0  0  0  0
   -1.6055    0.7185    1.1250 C   0  0  0  0  0  0  0  0  0  0  0  0
   -1.6611   -1.2705    2.3752 C   0  0  0  0  0  0  0  0  0  0  0  0
    4.1821    6.4313    5.7326 C   0  0  0  0  0  0  0  0  0  0  0  0
    1.1427    0.0396    0.0212 C   0  0  0  0  0  0  0  0  0  0  0  0
    0.4406   -0.6620    1.2508 C   0  0  2  0  0  0  0  0  0  0  0  0
    4.8002    2.0748    3.1936 C   0  0  0  0  0  0  0  0  0  0  0  0
    7.5616    2.9101    5.4870 C   0  0  0  0  0  0  0  0  0  0  0  0
    8.8015    2.4784    3.1626 C   0  0  0  0  0  0  0  0  0  0  0  0
    3.2702    6.8120    4.7428 C   0  0  0  0  0  0  0  0  0  0  0  0
    2.8617    1.4880    1.0121 C   0  0  0  0  0  0  0  0  0  0  0  0
    3.7685    4.1242    5.1759 C   0  0  0  0  0  0  0  0  0  0  0  0
    4.5022    5.0838    5.8897 C   0  0  0  0  0  0  0  0  0  0  0  0
    5.1172    2.3330    4.8144 C   0  0  1  0  0  0  0  0  0  0  0  0
    6.1585    2.9359    5.9991 C   0  0  2  0  0  0  0  0  0  0  0  0
   -1.0510   -0.6447    1.1787 N   0  0  0  0  0  0  0  0  0  0  0  0
    9.2226    2.2847    1.8791 O   0  0  0  0  0  0  0  0  0  0  0  0
    2.8841    8.1039    4.6237 O   0  0  0  0  0  0  0  0  0  0  0  0
    1.7206    1.3461    0.2538 O   0  0  0  0  0  0  0  0  0  0  0  0
    3.8574    2.7630    5.3545 O   0  0  0  0  0  0  0  0  0  0  0  0
    5.7712    4.4993    6.9560 S   0  0  0  0  0  0  0  0  0  0  0  0
  3  2  1  0
  8  4  2  0
  9  5  1  0
 11  6  2  0
 12  7  1  0
 13 10  2  0
 14  2  1  0
 15  3  1  0
 18 17  1  0
 18  1  1  1
 19  6  1  0
 19  7  2  0
 20  4  1  0
 20  5  2  0
 21  8  1  0
 21  9  2  0
 22 10  1  0
 22 16  2  0
 23 11  1  0
 23 12  2  0
 24 13  1  0
 25 16  1  0
 25 24  2  0
 26 19  1  6
 27 20  1  6
 27 26  1  0
 28 14  1  0
 28 15  1  0
 28 18  1  0
 29 21  1  0
 30 22  1  0
 31 17  1  0
 31 23  1  0
 32 24  1  0
 32 26  1  0
 33 25  1  0
 33 27  1  0
M  END
>  <DRUGBANK_ID>  (1) 
DB02615

>  <SECONDARY_ACCESSION_NUMBERS>  (1) 
EXPT00478; EXPT00338

>  <COMMON_NAME>  (1) 
Compound 19

$$$$
