1465
     RDKit          3D

 14 14  0  0  1  0  0  0  0  0999 V2000
    1.0187   -0.0112    0.1260 O   0  0  0  0  0  0  0  0  0  0  0  0
   -1.8483   -4.5348   -1.3627 O   0  0  0  0  0  0  0  0  0  0  0  0
    0.9589   -4.4792    2.6132 N   0  0  0  0  0  0  0  0  0  0  0  0
    1.9099   -2.7710    1.0719 C   0  0  0  0  0  0  0  0  0  0  0  0
    1.6181   -3.1780    2.5216 C   0  0  0  0  0  0  0  0  0  0  0  0
    0.7345   -2.4623    0.1880 C   0  0  0  0  0  0  0  0  0  0  0  0
    0.4133   -1.1750   -0.2728 C   0  0  0  0  0  0  0  0  0  0  0  0
    2.9484   -3.2259    3.2784 C   0  0  0  0  0  0  0  0  0  0  0  0
   -0.0773   -3.5450   -0.2224 C   0  0  0  0  0  0  0  0  0  0  0  0
   -1.1901   -3.3823   -1.0380 C   0  0  0  0  0  0  0  0  0  0  0  0
   -0.7253   -1.0113   -1.0743 C   0  0  0  0  0  0  0  0  0  0  0  0
   -1.5311   -2.0965   -1.4486 C   0  0  0  0  0  0  0  0  0  0  0  0
    2.4207    0.1402   -0.0964 C   0  0  0  0  0  0  0  0  0  0  0  0
   -2.7988   -4.4358   -2.4156 C   0  0  0  0  0  0  0  0  0  0  0  0
  1  7  1  0
  1 13  1  0
  2 10  1  0
  2 14  1  0
  3  5  1  0
  4  5  1  0
  4  6  1  0
  5  8  1  0
  6  7  2  0
  6  9  1  0
  7 11  1  0
  9 10  2  0
 10 12  1  0
 11 12  2  0
M  END
>  <DRUGBANK_ID>  (1) 
DB01465

>  <COMMON_NAME>  (1) 
2,5-Dimethoxyamphetamine

>  <CAS_NUMBER>  (1) 
2801-68-5

>  <UNII>  (1) 
OIM1536TQQ

$$$$
