
     RDKit          3D

 29 32  0  0  0  0  0  0  0  0999 V2000
    2.3152   -0.9431   -0.0189 F   0  0  0  0  0  0  0  0  0  0  0  0
    0.9776   -0.9506    0.0264 C   0  0  0  0  0  0  0  0  0  0  0  0
    0.3626    0.1884    0.2990 C   0  0  0  0  0  0  0  0  0  0  0  0
   -1.0491    0.2850    0.2110 C   0  0  0  0  0  0  0  0  0  0  0  0
   -1.9685   -0.6769    0.0127 C   0  0  0  0  0  0  0  0  0  0  0  0
   -1.3188   -1.8935   -0.0653 C   0  0  0  0  0  0  0  0  0  0  0  0
    0.1369   -2.0234   -0.0805 C   0  0  0  0  0  0  0  0  0  0  0  0
   -3.4765   -0.3029    0.0217 C   0  0  0  0  0  0  0  0  0  0  0  0
   -4.2658   -1.2582   -0.0217 O   0  0  0  0  0  0  0  0  0  0  0  0
   -4.0927    1.1789    0.0231 C   0  0  0  0  0  0  0  0  0  0  0  0
   -3.9186    2.1024    1.2405 C   0  0  0  0  0  0  0  0  0  0  0  0
   -2.5393    2.7082    1.4106 C   0  0  0  0  0  0  0  0  0  0  0  0
   -2.1346    3.5608    0.2417 N   0  0  0  0  0  0  0  0  0  0  0  0
   -1.2494    2.9529   -0.7830 C   0  0  0  0  0  0  0  0  0  0  0  0
    0.1202    2.7881   -0.1733 C   0  0  0  0  0  0  0  0  0  0  0  0
    0.7924    3.9532    0.4211 C   0  0  0  0  0  0  0  0  0  0  0  0
   -0.1431    4.5568    1.4573 C   0  0  0  0  0  0  0  0  0  0  0  0
   -1.5089    4.7629    0.8328 C   0  0  0  0  0  0  0  0  0  0  0  0
    1.3506    4.7938   -0.6676 N   0  0  0  0  0  0  0  0  0  0  0  0
    2.7563    4.9816   -0.3466 C   0  0  0  0  0  0  0  0  0  0  0  0
    3.1292    3.8856    0.4898 N   0  0  0  0  0  0  0  0  0  0  0  0
    2.0399    3.4234    1.2041 C   0  0  0  0  0  0  0  0  0  0  0  0
    2.0937    2.7324    2.1824 O   0  0  0  0  0  0  0  0  0  0  0  0
    0.8458    4.8089   -1.9739 C   0  0  0  0  0  0  0  0  0  0  0  0
   -0.4346    5.3499   -2.2373 C   0  0  0  0  0  0  0  0  0  0  0  0
   -1.1328    5.3182   -3.4468 C   0  0  0  0  0  0  0  0  0  0  0  0
   -0.4830    4.8644   -4.5571 C   0  0  0  0  0  0  0  0  0  0  0  0
    0.8044    4.3486   -4.3940 C   0  0  0  0  0  0  0  0  0  0  0  0
    1.4279    4.2407   -3.1125 C   0  0  0  0  0  0  0  0  0  0  0  0
  1  2  1  0
  2  3  2  0
  2  7  1  0
  3  4  1  0
  4  5  2  0
  5  6  1  0
  5  8  1  0
  6  7  2  0
  8  9  2  0
  8 10  1  0
 10 11  1  0
 11 12  1  0
 12 13  1  0
 13 14  1  0
 13 18  1  0
 14 15  1  0
 15 16  1  0
 16 17  1  0
 16 19  1  0
 16 22  1  0
 17 18  1  0
 19 20  1  0
 19 24  1  0
 20 21  1  0
 21 22  1  0
 22 23  2  0
 24 25  2  0
 24 29  1  0
 25 26  1  0
 26 27  2  0
 27 28  1  0
 28 29  2  0
M  END
>  <DRUGBANK_ID>  (1) 
DB17056

>  <COMMON_NAME>  (1) 
Spiperone

>  <CAS_NUMBER>  (1) 
749-02-0

>  <UNII>  (1) 
4X6E73CJ0Q

>  <SYNONYMS>  (1) 
Spiropitan

$$$$
