
     RDKit          3D

 26 28  0  0  0  0  0  0  0  0999 V2000
    0.9183    0.1093    0.0511 C   0  0  0  0  0  0  0  0  0  0  0  0
    0.4300    0.1205    1.4652 C   0  0  0  0  0  0  0  0  0  0  0  0
    0.1500   -0.9763    2.2157 C   0  0  0  0  0  0  0  0  0  0  0  0
   -0.3330   -0.5206    3.5342 C   0  0  0  0  0  0  0  0  0  0  0  0
   -0.7588   -1.2364    4.6505 C   0  0  0  0  0  0  0  0  0  0  0  0
   -1.1575   -0.5292    5.7891 C   0  0  0  0  0  0  0  0  0  0  0  0
   -1.1765    0.8575    5.8147 C   0  0  0  0  0  0  0  0  0  0  0  0
   -0.8136    1.5571    4.6765 C   0  0  0  0  0  0  0  0  0  0  0  0
   -0.3435    0.8806    3.5612 C   0  0  0  0  0  0  0  0  0  0  0  0
    0.1780    1.3421    2.2617 C   0  0  0  0  0  0  0  0  0  0  0  0
    0.4001    2.6212    1.8848 C   0  0  0  0  0  0  0  0  0  0  0  0
    0.1727    3.8381    2.7014 C   0  0  0  0  0  0  0  0  0  0  0  0
    0.7874    4.0312    3.9512 C   0  0  0  0  0  0  0  0  0  0  0  0
    0.3246    5.0265    4.8280 C   0  0  0  0  0  0  0  0  0  0  0  0
   -0.6169    5.9570    4.3830 C   0  0  0  0  0  0  0  0  0  0  0  0
   -1.0849    5.8934    3.0701 C   0  0  0  0  0  0  0  0  0  0  0  0
   -0.7425    4.8003    2.2604 C   0  0  0  0  0  0  0  0  0  0  0  0
   -1.2131    7.1729    5.5426 S   0  0  0  0  0  0  0  0  0  0  0  0
   -2.0087    6.4583    6.5214 O   0  0  0  0  0  0  0  0  0  0  0  0
   -0.0609    7.9595    5.9433 O   0  0  0  0  0  0  0  0  0  0  0  0
   -2.3080    8.2470    4.6530 C   0  0  0  0  0  0  0  0  0  0  0  0
   -1.5563   -1.1914    6.8819 F   0  0  0  0  0  0  0  0  0  0  0  0
    0.2857   -2.4202    1.8467 C   0  0  0  0  0  0  0  0  0  0  0  0
    1.2442   -3.1601    2.7495 C   0  0  0  0  0  0  0  0  0  0  0  0
    0.9657   -4.1373    3.4374 O   0  0  0  0  0  0  0  0  0  0  0  0
    2.4972   -2.6685    2.7358 O   0  0  0  0  0  0  0  0  0  0  0  0
  1  2  1  0
  2  3  2  0
  2 10  1  0
  3  4  1  0
  3 23  1  0
  4  5  2  0
  4  9  1  0
  5  6  1  0
  6  7  2  0
  6 22  1  0
  7  8  1  0
  8  9  2  0
  9 10  1  0
 10 11  2  0
 11 12  1  0
 12 13  2  0
 12 17  1  0
 13 14  1  0
 14 15  2  0
 15 16  1  0
 15 18  1  0
 16 17  2  0
 18 19  2  0
 18 20  2  0
 18 21  1  0
 23 24  1  0
 24 25  2  0
 24 26  1  0
M  END
>  <DRUGBANK_ID>  (1) 
DB06246

>  <COMMON_NAME>  (1) 
Exisulind

>  <CAS_NUMBER>  (1) 
59973-80-7

>  <UNII>  (1) 
K619IIG2R9

>  <SYNONYMS>  (1) 
5-Fluoro-2-methyl-1-((Z)-p-(methylsulfonyl)benzylidene)indene-3-acetic acid; cis-5-Fluoro-2-methyl-1-(p-methylsulfonylbenzylidenyl)indene-3-acetic acid; Exisulind; Sulindac sulfone

$$$$
