
     RDKit          3D

 30 32  0  0  0  0  0  0  0  0999 V2000
   -1.4621    0.6296   -0.7475 N   0  0  0  0  0  0  0  0  0  0  0  0
   -1.3317    1.9448   -0.3354 C   0  0  0  0  0  0  0  0  0  0  0  0
   -0.6644   -0.4887   -0.2673 C   0  0  1  0  0  0  0  0  0  0  0  0
   -0.2317    2.3990    0.6295 C   0  0  1  0  0  0  0  0  0  0  0  0
    0.4186    1.4686    2.8696 C   0  0  0  0  0  0  0  0  0  0  0  0
   -2.8020    0.1618   -1.2023 C   0  0  2  0  0  0  0  0  0  0  0  0
   -0.5075    2.0625    2.0397 N   0  0  0  0  0  0  0  0  0  0  0  0
    0.8368   -0.4095   -0.1797 C   0  0  0  0  0  0  0  0  0  0  0  0
    0.0572    1.2210    4.3161 C   0  0  1  0  0  0  0  0  0  0  0  0
    1.6392    0.7323   -0.0694 C   0  0  0  0  0  0  0  0  0  0  0  0
   -3.7457    1.1787   -1.8450 C   0  0  0  0  0  0  0  0  0  0  0  0
    1.1757    2.1559    0.1169 C   0  0  0  0  0  0  0  0  0  0  0  0
    0.3663   -0.5967    4.6388 S   0  0  0  0  0  0  0  0  0  0  0  0
   -1.0540   -1.3353    3.9579 C   0  0  0  0  0  0  0  0  0  0  0  0
   -2.1157    2.8201   -0.7236 O   0  0  0  0  0  0  0  0  0  0  0  0
    1.5632    1.1823    2.5278 O   0  0  0  0  0  0  0  0  0  0  0  0
   -3.7415    1.5268   -3.0132 O   0  0  0  0  0  0  0  0  0  0  0  0
   -2.0726   -0.6765    3.7350 O   0  0  0  0  0  0  0  0  0  0  0  0
    1.0858    2.0418    5.1535 C   0  0  0  0  0  0  0  0  0  0  0  0
   -4.5692    1.7615   -0.9384 O   0  0  0  0  0  0  0  0  0  0  0  0
   -1.3557   -1.1098    0.9379 C   0  0  0  0  0  0  0  0  0  0  0  0
   -3.5590   -0.6154   -0.0994 C   0  0  0  0  0  0  0  0  0  0  0  0
    1.4809   -1.6723   -0.2672 C   0  0  0  0  0  0  0  0  0  0  0  0
    3.0420    0.5773   -0.0785 C   0  0  0  0  0  0  0  0  0  0  0  0
   -2.7093   -1.7005    0.5462 C   0  0  0  0  0  0  0  0  0  0  0  0
   -0.9850   -2.8318    3.7771 C   0  0  0  0  0  0  0  0  0  0  0  0
    1.0190    3.5499    4.8608 C   0  0  0  0  0  0  0  0  0  0  0  0
    0.8799    1.8102    6.6463 C   0  0  0  0  0  0  0  0  0  0  0  0
    2.8617   -1.7991   -0.3213 C   0  0  0  0  0  0  0  0  0  0  0  0
    3.6462   -0.6659   -0.2243 C   0  0  0  0  0  0  0  0  0  0  0  0
  2  1  1  0
  3  1  1  0
  4  2  1  0
  4  7  1  1
  5  7  1  0
  6  1  1  0
  6 11  1  1
  8  3  1  0
  9  5  1  6
  9 13  1  0
 10  8  2  0
 10 12  1  0
 12  4  1  0
 14 13  1  0
 15  2  2  0
 16  5  2  0
 17 11  2  0
 18 14  2  0
 19  9  1  0
 20 11  1  0
  3 21  1  1
 22  6  1  0
 23  8  1  0
 24 10  1  0
 25 21  1  0
 25 22  1  0
 26 14  1  0
 27 19  1  0
 28 19  1  0
 29 23  2  0
 30 24  2  0
 30 29  1  0
M  END
>  <DRUGBANK_ID>  (1) 
DB06604

>  <COMMON_NAME>  (1) 
Ilepatril

>  <CAS_NUMBER>  (1) 
473289-62-2

>  <UNII>  (1) 
5N1YAP5FCM

>  <SYNONYMS>  (1) 
Ilepatril

$$$$
