
     RDKit          3D

 28 30  0  0  0  0  0  0  0  0999 V2000
    0.6919   -0.5813    0.5055 O   0  0  0  0  0  0  0  0  0  0  0  0
    0.5634   -1.4930   -0.5846 C   0  0  0  0  0  0  0  0  0  0  0  0
    1.4271   -1.1905   -1.7921 C   0  0  0  0  0  0  0  0  0  0  0  0
    2.7834   -0.8032   -1.8198 O   0  0  0  0  0  0  0  0  0  0  0  0
    3.0995    0.3973   -1.0552 C   0  0  0  0  0  0  0  0  0  0  0  0
    2.1440    1.7297   -0.9355 C   0  0  0  0  0  0  0  0  0  0  0  0
    0.7253    1.6244   -1.0893 O   0  0  0  0  0  0  0  0  0  0  0  0
    0.3457    1.3242   -2.4466 C   0  0  0  0  0  0  0  0  0  0  0  0
    1.5439    1.0964   -3.4546 C   0  0  0  0  0  0  0  0  0  0  0  0
    2.9381    1.3308   -3.7156 O   0  0  0  0  0  0  0  0  0  0  0  0
    3.4744    2.6134   -3.3900 C   0  0  0  0  0  0  0  0  0  0  0  0
    2.5751    3.9714   -3.5430 C   0  0  0  0  0  0  0  0  0  0  0  0
    1.0826    4.1065   -3.7835 O   0  0  0  0  0  0  0  0  0  0  0  0
    0.3935    3.5554   -4.8777 C   0  0  0  0  0  0  0  0  0  0  0  0
    1.0078    2.5285   -5.6099 C   0  0  0  0  0  0  0  0  0  0  0  0
    0.2268    1.4542   -6.1225 C   0  0  0  0  0  0  0  0  0  0  0  0
   -1.0019    1.5492   -6.6610 C   0  0  0  0  0  0  0  0  0  0  0  0
   -1.6342    2.7504   -6.1659 C   0  0  0  0  0  0  0  0  0  0  0  0
   -0.9293    3.6868   -5.2027 C   0  0  0  0  0  0  0  0  0  0  0  0
   -1.3999    0.3452   -7.6350 C   0  0  0  0  0  0  0  0  0  0  0  0
   -1.8174    0.2314   -8.9136 N   0  0  0  0  0  0  0  0  0  0  0  0
   -2.0555   -1.1723   -9.3034 C   0  0  0  0  0  0  0  0  0  0  0  0
   -2.6966   -1.7896  -10.4424 C   0  0  0  0  0  0  0  0  0  0  0  0
   -3.1817   -3.1318  -10.3432 C   0  0  0  0  0  0  0  0  0  0  0  0
   -2.8924   -3.9129   -9.2353 C   0  0  0  0  0  0  0  0  0  0  0  0
   -2.0030   -3.4305   -8.2898 C   0  0  0  0  0  0  0  0  0  0  0  0
   -1.6731   -2.0624   -8.3075 C   0  0  0  0  0  0  0  0  0  0  0  0
   -0.8391   -1.2430   -7.0765 S   0  0  0  0  0  0  0  0  0  0  0  0
  1  2  1  0
  2  3  1  0
  3  4  1  0
  4  5  1  0
  5  6  1  0
  6  7  1  0
  7  8  1  0
  8  9  1  0
  9 10  1  0
 10 11  1  0
 11 12  1  0
 12 13  1  0
 13 14  1  0
 14 15  2  0
 14 19  1  0
 15 16  1  0
 16 17  2  0
 17 18  1  0
 17 20  1  0
 18 19  2  0
 20 21  2  0
 20 28  1  0
 21 22  1  0
 22 23  2  0
 22 27  1  0
 23 24  1  0
 24 25  2  0
 25 26  1  0
 26 27  2  0
 27 28  1  0
M  END
>  <DRUGBANK_ID>  (1) 
DB18103

>  <COMMON_NAME>  (1) 
SPG302

>  <CAS_NUMBER>  (1) 
2274723-90-7

>  <UNII>  (1) 
CMJ4GT6MRD

>  <SYNONYMS>  (1) 
2-(2-(2-(2-(4-benzothiazol-2-y1-phenoxy)-ethoxy)-ethoxy)-ethoxy)-ethanol; Ethanol, 2-(2-(2-(2-(4-(2-benzothiazolyl)phenoxy)ethoxy)ethoxy)ethoxy)-

$$$$
