
     RDKit          3D

 32 34  0  0  1  0  0  0  0  0999 V2000
    2.7329   -0.2596    0.0357 C   0  0  0  0  0  0  0  0  0  0  0  0
    1.2698   -0.0262   -0.0155 C   0  0  0  0  0  0  0  0  0  0  0  0
    0.6550    1.2773   -0.0000 C   0  0  0  0  0  0  0  0  0  0  0  0
   -0.7220    1.2445   -0.1623 C   0  0  0  0  0  0  0  0  0  0  0  0
   -1.1095   -0.3237   -0.7348 S   0  0  0  0  0  0  0  0  0  0  0  0
    0.3240   -1.0255   -0.1320 C   0  0  0  0  0  0  0  0  0  0  0  0
    0.4831   -2.5249   -0.0488 C   0  0  0  0  0  0  0  0  0  0  0  0
   -0.0995   -3.1727    1.2180 C   0  0  0  0  0  0  0  0  0  0  0  0
   -1.6132   -3.0049    1.3010 C   0  0  1  0  0  0  0  0  0  0  0  0
   -2.3340   -4.2392    1.8611 C   0  0  0  0  0  0  0  0  0  0  0  0
   -3.7970   -3.9594    2.0823 C   0  0  0  0  0  0  0  0  0  0  0  0
   -4.7008   -5.0928    2.2527 C   0  0  0  0  0  0  0  0  0  0  0  0
   -4.2989   -6.2509    2.2460 O   0  0  0  0  0  0  0  0  0  0  0  0
   -6.0061   -4.7694    2.4460 N   0  0  0  0  0  0  0  0  0  0  0  0
   -6.4535   -3.4846    2.4559 C   0  0  0  0  0  0  0  0  0  0  0  0
   -5.6614   -2.4723    2.2921 N   0  0  0  0  0  0  0  0  0  0  0  0
   -4.3180   -2.7202    2.1429 C   0  0  0  0  0  0  0  0  0  0  0  0
   -3.4167   -1.6866    2.0778 N   0  0  0  0  0  0  0  0  0  0  0  0
   -1.9955   -1.8349    2.2047 C   0  0  0  0  0  0  0  0  0  0  0  0
   -7.7822   -3.3223    2.6549 N   0  0  0  0  0  0  0  0  0  0  0  0
   -1.6330    2.3968   -0.0879 C   0  0  0  0  0  0  0  0  0  0  0  0
   -1.2034    3.5525   -0.0124 O   0  0  0  0  0  0  0  0  0  0  0  0
   -3.0091    2.2826   -0.0478 N   0  0  0  0  0  0  0  0  0  0  0  0
   -3.8325    1.0858   -0.0781 C   0  0  1  0  0  0  0  0  0  0  0  0
   -4.8093    1.0299    1.0954 C   0  0  0  0  0  0  0  0  0  0  0  0
   -5.8623    2.0979    1.2313 C   0  0  0  0  0  0  0  0  0  0  0  0
   -6.9543    1.9493    0.2133 C   0  0  0  0  0  0  0  0  0  0  0  0
   -7.9214    1.2370    0.2888 O   0  0  0  0  0  0  0  0  0  0  0  0
   -6.6908    2.6392   -0.9085 O   0  0  0  0  0  0  0  0  0  0  0  0
   -4.3604    0.7224   -1.4686 C   0  0  0  0  0  0  0  0  0  0  0  0
   -4.5217   -0.4070   -1.9004 O   0  0  0  0  0  0  0  0  0  0  0  0
   -4.8053    1.7648   -2.1892 O   0  0  0  0  0  0  0  0  0  0  0  0
  1  2  1  0
  2  3  1  0
  2  6  2  0
  3  4  2  0
  4  5  1  0
  4 21  1  0
  5  6  1  0
  6  7  1  0
  7  8  1  0
  9  8  1  1
  9 10  1  0
  9 19  1  0
 10 11  1  0
 11 12  1  0
 11 17  2  0
 12 13  2  0
 12 14  1  0
 14 15  1  0
 15 16  2  0
 15 20  1  0
 16 17  1  0
 17 18  1  0
 18 19  1  0
 21 22  2  0
 21 23  1  0
 24 23  1  0
 24 25  1  1
 24 30  1  0
 25 26  1  0
 26 27  1  0
 27 28  2  0
 27 29  1  0
 30 31  2  0
 30 32  1  0
M  END
>  <DRUGBANK_ID>  (1) 
DB12757

>  <COMMON_NAME>  (1) 
Pelitrexol

>  <CAS_NUMBER>  (1) 
446022-33-9

>  <UNII>  (1) 
DHT6E8M4KP

>  <SYNONYMS>  (1) 
Pelitrexol

$$$$
