
     RDKit          3D

 17 18  0  0  0  0  0  0  0  0999 V2000
    1.2790    0.5539   -0.3253 O   0  0  0  0  0  0  0  0  0  0  0  0
   -1.7659    0.0723   -0.6371 O   0  0  0  0  0  0  0  0  0  0  0  0
    0.0292    2.9252    2.0419 O   0  0  0  0  0  0  0  0  0  0  0  0
    3.0742   -2.6696   -1.8722 O   0  0  0  0  0  0  0  0  0  0  0  0
    5.8150   -2.9014    1.7541 O   0  0  0  0  0  0  0  0  0  0  0  0
    3.8452   -1.7304    1.9480 N   0  0  0  0  0  0  0  0  0  0  0  0
    4.4361   -2.7720   -0.0458 N   0  0  0  0  0  0  0  0  0  0  0  0
   -0.8888    0.0326    0.4858 C   0  0  1  0  0  0  0  0  0  0  0  0
    1.1235   -0.8873   -0.4388 C   0  0  2  0  0  0  0  0  0  0  0  0
   -0.0958   -1.2511    0.4233 C   0  0  0  0  0  0  0  0  0  0  0  0
    0.1659    1.1314    0.3915 C   0  0  1  0  0  0  0  0  0  0  0  0
    2.3843   -1.5025    0.0815 C   0  0  0  0  0  0  0  0  0  0  0  0
    0.6126    1.6511    1.7730 C   0  0  0  0  0  0  0  0  0  0  0  0
    2.7228   -1.2590    1.3494 C   0  0  0  0  0  0  0  0  0  0  0  0
    3.3049   -2.3520   -0.7087 C   0  0  0  0  0  0  0  0  0  0  0  0
    4.7718   -2.4940    1.2617 C   0  0  0  0  0  0  0  0  0  0  0  0
    4.0801   -1.3604    3.3301 C   0  0  0  0  0  0  0  0  0  0  0  0
  1  9  1  0
  1 11  1  0
  3 13  1  0
  4 15  2  0
  5 16  2  0
  6 14  1  0
  6 16  1  0
  6 17  1  0
  7 15  1  0
  7 16  1  0
  8  2  1  6
  8 10  1  0
  8 11  1  0
  9 10  1  0
  9 12  1  1
 11 13  1  1
 12 14  2  0
 12 15  1  0
M  END
>  <DRUGBANK_ID>  (1) 
DB03763

>  <SECONDARY_ACCESSION_NUMBERS>  (1) 
EXPT00252

>  <COMMON_NAME>  (1) 
5-methyl-2'-deoxypseudouridine

>  <CAS_NUMBER>  (1) 
65358-15-8

$$$$
