
     RDKit          3D

 12 11  0  0  0  0  0  0  0  0999 V2000
    1.1350    0.0058    0.2363 C   0  0  0  0  0  0  0  0  0  0  0  0
    0.6029    1.3960   -0.1366 C   0  0  0  0  0  0  0  0  0  0  0  0
    1.0428    1.9863   -1.4970 C   0  0  0  0  0  0  0  0  0  0  0  0
    0.5031    1.3323   -2.8059 C   0  0  0  0  0  0  0  0  0  0  0  0
   -1.0507    1.3458   -2.7669 C   0  0  0  0  0  0  0  0  0  0  0  0
   -1.7084    1.9008   -3.8024 O   0  0  0  0  0  0  0  0  0  0  0  0
    0.7067   -1.1162   -0.5755 N   0  0  0  0  0  0  0  0  0  0  0  0
   -1.6747    0.7676   -1.8941 O   0  0  0  0  0  0  0  0  0  0  0  0
    1.0701    2.0684   -4.0221 C   0  0  0  0  0  0  0  0  0  0  0  0
    2.4236    2.0015   -4.0541 F   0  0  0  0  0  0  0  0  0  0  0  0
    0.6262    1.4270   -5.1464 F   0  0  0  0  0  0  0  0  0  0  0  0
    0.8783   -0.1051   -2.9377 N   0  0  0  0  0  0  0  0  0  0  0  0
  2  1  1  0
  3  2  1  0
  4  3  1  0
  4 12  1  0
  5  4  1  0
  6  5  1  0
  7  1  1  0
  8  5  2  0
  9  4  1  0
 10  9  1  0
 11  9  1  0
M  END
>  <DRUGBANK_ID>  (1) 
DB06243

>  <COMMON_NAME>  (1) 
Eflornithine

>  <CAS_NUMBER>  (1) 
70052-12-9

>  <UNII>  (1) 
ZQN1G5V6SR

>  <SYNONYMS>  (1) 
(RS)-2,5-diamino-2-(difluoromethyl)pentanoic acid; 2-(difluoromethyl)ornithine; alpha-difluoromethylornithine; DFMO; Eflornithine; Î±-difluoromethylornithine

$$$$
