
     RDKit          3D

 41 45  0  0  0  0  0  0  0  0999 V2000
    0.4552    1.1112    2.6608 Cl  0  0  0  0  0  0  0  0  0  0  0  0
    0.2362    2.8027    2.4571 C   0  0  0  0  0  0  0  0  0  0  0  0
   -0.2201    3.4110    1.2737 C   0  0  0  0  0  0  0  0  0  0  0  0
   -0.5838    2.6400    0.0270 C   0  0  2  0  0  0  0  0  0  0  0  0
   -0.1199    3.3496   -1.2431 N   0  0  0  0  0  0  0  0  0  0  0  0
   -1.1001    3.6940   -2.2515 C   0  0  0  0  0  0  0  0  0  0  0  0
   -2.3104    4.2875   -1.9134 C   0  0  0  0  0  0  0  0  0  0  0  0
   -3.2946    4.5036   -2.8589 C   0  0  0  0  0  0  0  0  0  0  0  0
   -4.4848    4.9832   -2.4801 F   0  0  0  0  0  0  0  0  0  0  0  0
   -3.0104    4.2375   -4.1764 C   0  0  0  0  0  0  0  0  0  0  0  0
   -1.8162    3.7558   -4.5890 N   0  0  0  0  0  0  0  0  0  0  0  0
   -0.8936    3.4979   -3.6223 C   0  0  0  0  0  0  0  0  0  0  0  0
    1.2259    3.6771   -1.5208 C   0  0  0  0  0  0  0  0  0  0  0  0
    2.3341    3.2095   -0.5549 C   0  0  1  0  0  0  0  0  0  0  0  0
    2.7048    1.8025   -0.6290 N   0  0  0  0  0  0  0  0  0  0  0  0
    1.8459    0.6935   -0.7456 C   0  0  0  0  0  0  0  0  0  0  0  0
    1.8042   -0.1910    0.2728 N   0  0  0  0  0  0  0  0  0  0  0  0
    0.8400   -1.1438    0.2848 C   0  0  0  0  0  0  0  0  0  0  0  0
   -0.1074   -1.2763   -0.7081 C   0  0  0  0  0  0  0  0  0  0  0  0
   -0.0478   -0.3795   -1.7708 C   0  0  0  0  0  0  0  0  0  0  0  0
   -1.0748   -0.3832   -2.7752 C   0  0  0  0  0  0  0  0  0  0  0  0
   -1.9319   -0.3660   -3.5471 N   0  0  0  0  0  0  0  0  0  0  0  0
    0.9428    0.6064   -1.7959 C   0  0  0  0  0  0  0  0  0  0  0  0
    4.0721    1.6137   -0.4973 C   0  0  0  0  0  0  0  0  0  0  0  0
    4.7219    2.9587   -0.3091 C   0  0  0  0  0  0  0  0  0  0  0  0
    3.6718    3.9218   -0.8389 C   0  0  0  0  0  0  0  0  0  0  0  0
    4.6838    0.5610   -0.5784 O   0  0  0  0  0  0  0  0  0  0  0  0
    1.5437    4.3155   -2.5301 O   0  0  0  0  0  0  0  0  0  0  0  0
   -2.0689    2.2280    0.1616 C   0  0  0  0  0  0  0  0  0  0  0  0
   -2.4277    0.9025    0.0430 N   0  0  0  0  0  0  0  0  0  0  0  0
   -3.8629    0.5477   -0.0101 C   0  0  0  0  0  0  0  0  0  0  0  0
   -4.7496    1.3625    0.9679 C   0  0  0  0  0  0  0  0  0  0  0  0
   -5.5706    0.0942    1.1785 C   0  0  0  0  0  0  0  0  0  0  0  0
   -6.0220   -0.1069    2.4344 F   0  0  0  0  0  0  0  0  0  0  0  0
   -6.6292   -0.0331    0.3482 F   0  0  0  0  0  0  0  0  0  0  0  0
   -4.2972   -0.7013    0.7781 C   0  0  0  0  0  0  0  0  0  0  0  0
   -2.9356    3.0752    0.3750 O   0  0  0  0  0  0  0  0  0  0  0  0
   -0.4165    4.7966    1.2492 C   0  0  0  0  0  0  0  0  0  0  0  0
   -0.2058    5.5522    2.3851 C   0  0  0  0  0  0  0  0  0  0  0  0
    0.2569    4.9435    3.5453 C   0  0  0  0  0  0  0  0  0  0  0  0
    0.5084    3.5771    3.5745 C   0  0  0  0  0  0  0  0  0  0  0  0
  1  2  1  0
  2  3  2  0
  2 41  1  0
  3 38  1  0
  4  5  1  0
  4 29  1  6
  4  3  1  0
  5  6  1  0
  5 13  1  0
  6  7  2  0
  6 12  1  0
  7  8  1  0
  8  9  1  0
  8 10  2  0
 10 11  1  0
 11 12  2  0
 14 13  1  6
 13 28  2  0
 14 15  1  0
 14 26  1  0
 15 16  1  0
 15 24  1  0
 16 17  2  0
 16 23  1  0
 17 18  1  0
 18 19  2  0
 19 20  1  0
 20 21  1  0
 20 23  2  0
 21 22  3  0
 24 25  1  0
 24 27  2  0
 25 26  1  0
 29 30  1  0
 29 37  2  0
 30 31  1  0
 31 32  1  0
 31 36  1  0
 32 33  1  0
 33 34  1  0
 33 35  1  0
 33 36  1  0
 38 39  2  0
 39 40  1  0
 40 41  2  0
M  END
>  <DRUGBANK_ID>  (1) 
DB14568

>  <COMMON_NAME>  (1) 
Ivosidenib

>  <CAS_NUMBER>  (1) 
1448347-49-6

>  <UNII>  (1) 
Q2PCN8MAM6

>  <SYNONYMS>  (1) 
Ivosidenib

$$$$
