
     RDKit          3D

 29 31  0  0  1  0  0  0  0  0999 V2000
    1.3785   -8.6294    1.9271 C   0  0  0  0  0  0  0  0  0  0  0  0
    2.6099   -7.7637    1.7762 C   0  0  0  0  0  0  0  0  0  0  0  0
    3.8813   -8.2193    2.1881 C   0  0  0  0  0  0  0  0  0  0  0  0
    5.0000   -7.3770    2.0288 C   0  0  0  0  0  0  0  0  0  0  0  0
    4.8803   -6.1133    1.4601 C   0  0  0  0  0  0  0  0  0  0  0  0
    3.6296   -5.6606    1.0600 C   0  0  0  0  0  0  0  0  0  0  0  0
    2.4879   -6.4663    1.2271 C   0  0  0  0  0  0  0  0  0  0  0  0
    1.1365   -5.8909    0.8754 C   0  0  0  0  0  0  0  0  0  0  0  0
    0.8550   -4.6974    1.6349 O   0  0  0  0  0  0  0  0  0  0  0  0
    0.7701   -4.8063    3.0003 C   0  0  0  0  0  0  0  0  0  0  0  0
    0.8178   -5.8299    3.6484 O   0  0  0  0  0  0  0  0  0  0  0  0
    0.5931   -3.4513    3.6117 C   0  0  2  0  0  0  0  0  0  0  0  0
    0.8672   -3.0643    5.0586 C   0  0  2  0  0  0  0  0  0  0  0  0
    1.2674   -3.9778    6.1424 C   0  0  0  0  0  0  0  0  0  0  0  0
    0.6086   -4.2715    7.2862 C   0  0  0  0  0  0  0  0  0  0  0  0
   -0.8088   -3.3977    7.8093 Cl  0  0  0  0  0  0  0  0  0  0  0  0
    0.9986   -5.3707    8.2227 C   0  0  0  0  0  0  0  0  0  0  0  0
    1.5383   -6.4419    7.5845 F   0  0  0  0  0  0  0  0  0  0  0  0
    1.9225   -4.9333    9.1133 F   0  0  0  0  0  0  0  0  0  0  0  0
   -0.0500   -5.8527    8.9440 F   0  0  0  0  0  0  0  0  0  0  0  0
   -0.5707   -3.1227    4.5364 C   0  0  0  0  0  0  0  0  0  0  0  0
   -1.2663   -1.7909    4.3838 C   0  0  0  0  0  0  0  0  0  0  0  0
   -1.5195   -4.2453    4.9230 C   0  0  0  0  0  0  0  0  0  0  0  0
    4.0860   -9.5598    2.7480 C   0  0  0  0  0  0  0  0  0  0  0  0
    3.7616  -10.6972    1.9899 C   0  0  0  0  0  0  0  0  0  0  0  0
    3.9583  -11.9759    2.4980 C   0  0  0  0  0  0  0  0  0  0  0  0
    4.5422  -12.1334    3.7509 C   0  0  0  0  0  0  0  0  0  0  0  0
    4.9013  -11.0156    4.5040 C   0  0  0  0  0  0  0  0  0  0  0  0
    4.6212   -9.7351    4.0305 C   0  0  0  0  0  0  0  0  0  0  0  0
  1  2  1  0
  2  3  2  0
  2  7  1  0
  3  4  1  0
  3 24  1  0
  4  5  2  0
  5  6  1  0
  6  7  2  0
  7  8  1  0
  8  9  1  0
  9 10  1  0
 10 11  2  0
 12 13  1  0
 12 21  1  0
 12 10  1  1
 13 21  1  0
 13 14  1  1
 14 15  2  0
 15 16  1  0
 15 17  1  0
 17 18  1  0
 17 19  1  0
 17 20  1  0
 21 22  1  0
 21 23  1  0
 24 25  2  0
 24 29  1  0
 25 26  1  0
 26 27  2  0
 27 28  1  0
 28 29  2  0
M  END
>  <DRUGBANK_ID>  (1) 
DB15056

>  <COMMON_NAME>  (1) 
Bifenthrin

>  <CAS_NUMBER>  (1) 
82657-04-3

>  <UNII>  (1) 
6B66JED0KN

>  <SYNONYMS>  (1) 
CAPTURE

$$$$
