VX2
     RDKit          3D

 26 29  0  0  0  0  0  0  0  0999 V2000
    0.9815    0.0495    0.1586 C   0  0  0  0  0  0  0  0  0  0  0  0
    3.4556    6.1746   -0.8123 N   0  0  0  0  0  0  0  0  0  0  0  0
   -0.8509    1.7197    0.6455 C   0  0  0  0  0  0  0  0  0  0  0  0
   -1.3010    3.0377    0.7274 C   0  0  0  0  0  0  0  0  0  0  0  0
   -0.3949    4.0993    0.6115 C   0  0  0  0  0  0  0  0  0  0  0  0
    3.1533    6.7506    0.3313 C   0  0  0  0  0  0  0  0  0  0  0  0
    3.6131    7.9161    0.9760 C   0  0  0  0  0  0  0  0  0  0  0  0
    2.0973    7.3285    2.7929 C   0  0  0  0  0  0  0  0  0  0  0  0
    0.5819    6.7966    4.7127 C   0  0  0  0  0  0  0  0  0  0  0  0
    0.5121    1.4527    0.4530 C   0  0  0  0  0  0  0  0  0  0  0  0
    1.4188    2.5259    0.4102 C   0  0  0  0  0  0  0  0  0  0  0  0
    3.1208    8.2333    2.1859 C   0  0  0  0  0  0  0  0  0  0  0  0
    0.0918    4.4447    5.5479 C   0  0  0  0  0  0  0  0  0  0  0  0
    2.7007    5.0227   -0.9103 N   0  0  0  0  0  0  0  0  0  0  0  0
    0.5357   -0.8663    1.0614 F   0  0  0  0  0  0  0  0  0  0  0  0
    0.5459   -0.3850   -1.0583 F   0  0  0  0  0  0  0  0  0  0  0  0
    2.3373   -0.0785    0.1325 F   0  0  0  0  0  0  0  0  0  0  0  0
    0.9745    3.8540    0.4409 C   0  0  0  0  0  0  0  0  0  0  0  0
    1.9279    4.9300    0.1614 C   0  0  0  0  0  0  0  0  0  0  0  0
    1.5827    7.6217    4.0361 N   0  0  0  0  0  0  0  0  0  0  0  0
    1.1471    5.3956    5.0028 C   0  0  0  0  0  0  0  0  0  0  0  0
   -1.1289    4.3922    4.6361 C   0  0  0  0  0  0  0  0  0  0  0  0
   -1.7392    5.7766    4.4457 C   0  0  0  0  0  0  0  0  0  0  0  0
   -0.7225    6.7664    3.8976 C   0  0  0  0  0  0  0  0  0  0  0  0
    1.6622    6.2591    2.1872 N   0  0  0  0  0  0  0  0  0  0  0  0
    2.1988    6.0047    0.9791 N   0  0  0  0  0  0  0  0  0  0  0  0
  1 15  1  0
  1 10  1  0
  2 14  1  0
  3  4  2  0
  5  4  1  0
  6  2  2  0
  7  6  1  0
  8 12  1  0
  8 25  2  0
  9 21  1  0
  9 20  1  0
 10  3  1  0
 11 10  2  0
 11 18  1  0
 12  7  2  0
 13 21  1  0
 16  1  1  0
 17  1  1  0
 18  5  2  0
 19 14  2  0
 19 18  1  0
 20  8  1  0
 22 13  1  0
 23 22  1  0
 23 24  1  0
 24  9  1  0
 25 26  1  0
 26  6  1  0
 26 19  1  0
M  END
>  <DRUGBANK_ID>  (1) 
DB08708

>  <COMMON_NAME>  (1) 
N-cyclohexyl-3-[3-(trifluoromethyl)phenyl][1,2,4]triazolo[4,3-b]pyridazin-6-amine

$$$$
