
     RDKit          3D

 32 35  0  0  1  0  0  0  0  0999 V2000
    0.8224   -0.0108   -0.1459 O   0  0  0  0  0  0  0  0  0  0  0  0
    0.2380   -1.0275   -0.8455 C   0  0  0  0  0  0  0  0  0  0  0  0
    0.6773   -2.3477   -0.7285 C   0  0  0  0  0  0  0  0  0  0  0  0
    0.0661   -3.3465   -1.4975 C   0  0  0  0  0  0  0  0  0  0  0  0
   -0.9521   -3.0102   -2.4024 C   0  0  0  0  0  0  0  0  0  0  0  0
   -1.5800   -4.0547   -3.2827 C   0  0  0  0  0  0  0  0  0  0  0  0
   -0.6682   -5.2732   -3.3809 C   0  0  2  0  0  0  0  0  0  0  0  0
   -1.3607   -6.3475   -4.0566 O   0  0  0  0  0  0  0  0  0  0  0  0
   -1.2875   -6.6466   -5.3781 C   0  0  0  0  0  0  0  0  0  0  0  0
   -2.0973   -7.4208   -5.8891 O   0  0  0  0  0  0  0  0  0  0  0  0
   -0.2311   -6.0523   -6.2405 C   0  0  0  0  0  0  0  0  0  0  0  0
    1.1181   -6.0479   -5.8610 C   0  0  0  0  0  0  0  0  0  0  0  0
    2.0945   -5.4747   -6.6686 C   0  0  0  0  0  0  0  0  0  0  0  0
    3.4010   -5.3864   -6.2776 O   0  0  0  0  0  0  0  0  0  0  0  0
    1.7417   -4.9853   -7.9152 C   0  0  0  0  0  0  0  0  0  0  0  0
    2.6788   -4.4424   -8.7506 O   0  0  0  0  0  0  0  0  0  0  0  0
    0.4173   -5.0624   -8.3371 C   0  0  0  0  0  0  0  0  0  0  0  0
    0.0667   -4.6189   -9.5789 O   0  0  0  0  0  0  0  0  0  0  0  0
   -0.5733   -5.5889   -7.5125 C   0  0  0  0  0  0  0  0  0  0  0  0
   -0.2909   -5.6622   -1.9380 C   0  0  2  0  0  0  0  0  0  0  0  0
    0.5424   -4.6307   -1.3501 O   0  0  0  0  0  0  0  0  0  0  0  0
    0.4471   -6.9947   -1.8077 C   0  0  0  0  0  0  0  0  0  0  0  0
    1.6385   -7.2862   -2.4975 C   0  0  0  0  0  0  0  0  0  0  0  0
    2.3121   -8.4909   -2.2904 C   0  0  0  0  0  0  0  0  0  0  0  0
    3.4590   -8.8117   -2.9638 O   0  0  0  0  0  0  0  0  0  0  0  0
    1.8497   -9.3840   -1.3337 C   0  0  0  0  0  0  0  0  0  0  0  0
    2.5560  -10.5101   -1.0230 O   0  0  0  0  0  0  0  0  0  0  0  0
    0.6782   -9.1244   -0.6414 C   0  0  0  0  0  0  0  0  0  0  0  0
   -0.0372   -7.9524   -0.9004 C   0  0  0  0  0  0  0  0  0  0  0  0
   -1.3950   -1.6839   -2.4698 C   0  0  0  0  0  0  0  0  0  0  0  0
   -2.4072   -1.3932   -3.3409 O   0  0  0  0  0  0  0  0  0  0  0  0
   -0.8134   -0.6900   -1.6910 C   0  0  0  0  0  0  0  0  0  0  0  0
  1  2  1  0
  2  3  2  0
  2 32  1  0
  3  4  1  0
  4  5  2  0
  4 21  1  0
  5  6  1  0
  5 30  1  0
  7  6  1  0
  7 20  1  0
  7  8  1  1
  8  9  1  0
  9 10  2  0
  9 11  1  0
 11 12  2  0
 11 19  1  0
 12 13  1  0
 13 14  1  0
 13 15  2  0
 15 16  1  0
 15 17  1  0
 17 18  1  0
 17 19  2  0
 20 21  1  0
 20 22  1  6
 22 23  2  0
 22 29  1  0
 23 24  1  0
 24 25  1  0
 24 26  2  0
 26 27  1  0
 26 28  1  0
 28 29  2  0
 30 31  1  0
 30 32  2  0
M  END
>  <DRUGBANK_ID>  (1) 
DB16120

>  <COMMON_NAME>  (1) 
Epigallo Catechin Gallate

>  <CAS_NUMBER>  (1) 
25615-05-8

>  <UNII>  (1) 
78OW2GLG8Q

>  <SYNONYMS>  (1) 
(+)-catechin 3-gallate; (+)-catechin gallate; Catechin Gallate; Catechin gallate, (+)-

$$$$
