
     RDKit          3D

 14 12  0  0  0  0  0  0  0  0999 V2000
    0.9048    0.0010    0.0307 C   0  0  0  0  0  0  0  0  0  0  0  0
    0.3982   -0.0673   -1.4008 C   0  0  0  0  0  0  0  0  0  0  0  0
   -0.3325   -1.0392   -1.7705 O   0  0  0  0  0  0  0  0  0  0  0  0
    0.7412    0.9548   -2.3249 O   0  0  0  0  0  0  0  0  0  0  0  0
    0.3982   -1.2045    0.8056 C   0  0  0  0  0  0  0  0  0  0  0  0
    0.9048   -1.1361    2.2370 C   0  0  0  0  0  0  0  0  0  0  0  0
    0.3982    0.1377    2.8936 C   0  0  0  0  0  0  0  0  0  0  0  0
   -0.3325    0.0705    3.9313 O   0  0  0  0  0  0  0  0  0  0  0  0
    0.7412    1.4028    2.3475 O   0  0  0  0  0  0  0  0  0  0  0  0
   -1.1218   -1.2045    0.8056 C   0  0  0  0  0  0  0  0  0  0  0  0
   -1.7573   -2.1828    0.3013 O   0  0  0  0  0  0  0  0  0  0  0  0
   -1.8318   -0.1114    1.3690 O   0  0  0  0  0  0  0  0  0  0  0  0
    0.8715   -2.3945    0.1922 O   0  0  0  0  0  0  0  0  0  0  0  0
    0.9857    0.0950   -0.0277 Cr  0  0  0  0  0 15  0  0  0  0  0  0
  1  2  1  0
  1  5  1  0
  2  3  2  0
  2  4  1  0
  5  6  1  0
  5 10  1  0
  5 13  1  0
  6  7  1  0
  7  8  2  0
  7  9  1  0
 10 11  2  0
 10 12  1  0
M  CHG  4   4  -1   9  -1  12  -1  14   3
M  END
>  <DRUGBANK_ID>  (1) 
DB14526

>  <SECONDARY_ACCESSION_NUMBERS>  (1) 
DBSALT002354

>  <COMMON_NAME>  (1) 
Chromic citrate

>  <CAS_NUMBER>  (1) 
57072-40-9

>  <UNII>  (1) 
LQC76G8WUE

$$$$
