
     RDKit          3D

 11 11  0  0  0  0  0  0  0  0999 V2000
    1.0530   -0.1709    0.0618 C   0  0  0  0  0  0  0  0  0  0  0  0
    0.5854    0.0143    1.5134 C   0  0  0  0  0  0  0  0  0  0  0  0
    1.0537    1.3892    2.0513 C   0  0  0  0  0  0  0  0  0  0  0  0
    0.5436    2.6474    1.3085 C   0  0  0  0  0  0  0  0  0  0  0  0
    1.3225    3.8790    1.8024 C   0  0  0  0  0  0  0  0  0  0  0  0
    0.8709    5.1451    1.0778 C   0  0  0  0  0  0  0  0  0  0  0  0
   -0.6295    5.3731    1.2251 C   0  0  0  0  0  0  0  0  0  0  0  0
   -1.4120    4.1696    0.7312 C   0  0  0  0  0  0  0  0  0  0  0  0
   -0.9665    2.9063    1.4516 C   0  0  0  0  0  0  0  0  0  0  0  0
   -0.8504   -0.2632    1.5845 N   0  0  0  0  0  0  0  0  0  0  0  0
   -1.4441   -0.0469    2.8948 C   0  0  0  0  0  0  0  0  0  0  0  0
  1  2  1  0
  2  3  1  0
  2 10  1  0
  3  4  1  0
  4  5  1  0
  4  9  1  0
  5  6  1  0
  6  7  1  0
  7  8  1  0
  8  9  1  0
 10 11  1  0
M  END
>  <DRUGBANK_ID>  (1) 
DB06714

>  <COMMON_NAME>  (1) 
Propylhexedrine

>  <CAS_NUMBER>  (1) 
101-40-6

>  <UNII>  (1) 
LQU92IU8LL

>  <SYNONYMS>  (1) 
Propylhexedrine

$$$$
