
     RDKit          3D

 21 21  0  0  1  0  0  0  0  0999 V2000
   -1.5205   -1.7524    0.0059 C   0  0  0  0  0  0  0  0  0  0  0  0
   -0.9046    5.4571    1.2199 C   0  0  0  0  0  0  0  0  0  0  0  0
    1.9043   -0.4339   -0.3394 C   0  0  0  0  0  0  0  0  0  0  0  0
    0.2299    3.0053   -0.1491 C   0  0  0  0  0  0  0  0  0  0  0  0
    3.0595    1.7868   -0.0414 C   0  0  0  0  0  0  0  0  0  0  0  0
   -0.3861   -0.7677   -0.1116 C   0  0  0  0  0  0  0  0  0  0  0  0
    0.5534    5.0509    1.2061 C   0  0  1  0  0  0  0  0  0  0  0  0
    1.7879    0.9625   -0.3407 C   0  0  0  0  0  0  0  0  0  0  0  0
    0.4598    1.5101   -0.2565 C   0  0  0  0  0  0  0  0  0  0  0  0
   -0.6272    0.6106   -0.1422 C   0  0  0  0  0  0  0  0  0  0  0  0
    1.2547    5.6019    2.4621 C   0  0  0  0  0  0  0  0  0  0  0  0
    0.8650   -1.2954   -0.2014 N   0  0  0  0  0  0  0  0  0  0  0  0
    0.6318    3.5932    1.1051 N   0  0  0  0  0  0  0  0  0  0  0  0
   -1.9364    1.0024   -0.0258 O   0  0  0  0  0  0  0  0  0  0  0  0
    2.2166    6.3697    2.4754 O   0  0  0  0  0  0  0  0  0  0  0  0
    0.7225    5.1854    3.6291 O   0  0  0  0  0  0  0  0  0  0  0  0
    2.7993    3.3457    2.1781 O   0  0  0  0  0  0  0  0  0  0  0  0
    1.5564    0.9805    2.0257 O   0  0  0  0  0  0  0  0  0  0  0  0
    1.8856    2.0631    3.8928 O   0  0  0  0  0  0  0  0  0  0  0  0
    3.7437    1.5233    1.2464 O   0  0  0  0  0  0  0  0  0  0  0  0
    2.7632    1.8082    2.6429 P   0  0  0  0  0  0  0  0  0  0  0  0
  6  1  1  0
  7  2  1  1
  8  3  2  0
  8  5  1  0
  9  4  1  0
  9  8  1  0
 10  6  1  0
 10  9  2  0
 11  7  1  0
 12  3  1  0
 12  6  2  0
 13  4  1  0
 13  7  1  0
 14 10  1  0
 15 11  2  0
 16 11  1  0
 20  5  1  0
 21 17  1  0
 21 18  1  0
 21 19  2  0
 21 20  1  0
M  END
>  <DRUGBANK_ID>  (1) 
DB04467

>  <SECONDARY_ACCESSION_NUMBERS>  (1) 
EXPT02532; EXPT02529; EXPT02635

>  <COMMON_NAME>  (1) 
N-(5'-phosphopyridoxyl)-L-alanine

$$$$
