
     RDKit          3D

  7  6  0  0  0  0  0  0  0  0999 V2000
    0.9416   -0.0589    0.0278 C   0  0  0  0  0  0  0  0  0  0  0  0
    0.4061   -1.3432   -0.6325 C   0  0  0  0  0  0  0  0  0  0  0  0
    0.9489   -2.5404    0.1542 C   0  0  0  0  0  0  0  0  0  0  0  0
   -1.1244   -1.2858   -0.6045 C   0  0  0  0  0  0  0  0  0  0  0  0
    0.8926   -1.3657   -1.9992 O   0  0  0  0  0  0  0  0  0  0  0  0
    0.5552   -2.4089   -2.8022 C   0  0  0  0  0  0  0  0  0  0  0  0
   -0.1348   -3.3780   -2.5193 O   0  0  0  0  0  0  0  0  0  0  0  0
  1  2  1  0
  2  3  1  0
  2  4  1  0
  2  5  1  0
  5  6  1  0
  6  7  2  0
M  END
>  <DRUGBANK_ID>  (1) 
DB02768

>  <SECONDARY_ACCESSION_NUMBERS>  (1) 
EXPT00736

>  <COMMON_NAME>  (1) 
Tert-Butyloxycarbonyl Group

>  <UNII>  (1) 
J5BC8DA85J

$$$$
