
     RDKit          3D

 31 32  0  0  1  0  0  0  0  0999 V2000
   -1.5603   -2.6170   -3.7806 C   0  0  2  0  0  0  0  0  0  0  0  0
   -1.6229   -1.1295   -4.1738 C   0  0  1  0  0  0  0  0  0  0  0  0
   -0.5566   -0.8482   -5.2744 C   0  0  2  0  0  0  0  0  0  0  0  0
   -0.9819   -3.2879   -4.9887 C   0  0  0  0  0  0  0  0  0  0  0  0
   -0.0284   -2.2986   -5.5991 C   0  0  1  0  0  0  0  0  0  0  0  0
    0.3368    0.4096   -4.8654 C   0  0  0  0  0  0  0  0  0  0  0  0
   -3.8999   -0.7408   -3.5174 C   0  0  0  0  0  0  0  0  0  0  0  0
   -2.9709   -0.7163   -4.6802 C   0  0  0  0  0  0  0  0  0  0  0  0
   -2.7731   -3.2826   -3.4948 O   0  0  0  0  0  0  0  0  0  0  0  0
    0.1336   -2.6052   -6.9798 O   0  0  0  0  0  0  0  0  0  0  0  0
   -5.6559    2.1102   -4.0853 C   0  0  0  0  0  0  0  0  0  0  0  0
   -4.3045    1.7000   -3.5612 C   0  0  0  0  0  0  0  0  0  0  0  0
   -6.3003    3.1407   -1.8844 C   0  0  0  0  0  0  0  0  0  0  0  0
   -6.6780    2.1354   -2.9681 C   0  0  0  0  0  0  0  0  0  0  0  0
   -8.3346    4.4456   -2.3937 C   0  0  0  0  0  0  0  0  0  0  0  0
   -7.0854    4.2305   -1.7254 O   0  0  0  0  0  0  0  0  0  0  0  0
   -8.1186    4.7347   -3.8785 C   0  0  0  0  0  0  0  0  0  0  0  0
   -5.3288    3.0013   -1.1801 O   0  0  0  0  0  0  0  0  0  0  0  0
   -9.3496    3.3577   -2.0362 C   0  0  0  0  0  0  0  0  0  0  0  0
    0.6094    0.6152   -3.3472 C   0  0  0  0  0  0  0  0  0  0  0  0
    0.9934   -0.5823   -2.3958 C   0  0  1  0  0  0  0  0  0  0  0  0
    0.7194   -1.9014   -2.8061 O   0  0  0  0  0  0  0  0  0  0  0  0
    3.4300   -1.5680   -2.5417 C   0  0  0  0  0  0  0  0  0  0  0  0
    3.7209   -1.4363   -4.0305 C   0  0  0  0  0  0  0  0  0  0  0  0
    4.9448   -1.5365   -4.6396 C   0  0  0  0  0  0  0  0  0  0  0  0
    5.0674   -1.4872   -6.0607 C   0  0  0  0  0  0  0  0  0  0  0  0
    3.9793   -1.3573   -6.9209 C   0  0  0  0  0  0  0  0  0  0  0  0
    2.7681   -1.2311   -6.3413 C   0  0  0  0  0  0  0  0  0  0  0  0
    2.4400   -0.5434   -1.9070 C   0  0  0  0  0  0  0  0  0  0  0  0
   -4.4410    0.3398   -2.9743 C   0  0  0  0  0  0  0  0  0  0  0  0
    2.7129   -1.2652   -4.9447 C   0  0  0  0  0  0  0  0  0  0  0  0
  1  4  1  0
  1  9  1  6
  2  1  1  0
  2  8  1  6
  3  2  1  0
  3  5  1  0
  3  6  1  1
  4  5  1  0
  5 10  1  6
  6 20  1  0
  7  8  1  0
  7 30  2  0
 11 12  1  0
 11 14  1  0
 13 14  1  0
 13 16  1  0
 13 18  2  0
 15 16  1  0
 15 17  1  0
 15 19  1  0
 21 22  1  6
 21 29  1  0
 21 20  1  0
 23 24  1  0
 24 25  2  0
 24 31  1  0
 25 26  1  0
 26 27  2  0
 27 28  1  0
 28 31  2  0
 29 23  1  0
 30 12  1  0
M  END
>  <DRUGBANK_ID>  (1) 
DB00654

>  <SECONDARY_ACCESSION_NUMBERS>  (1) 
APRD01065

>  <COMMON_NAME>  (1) 
Latanoprost

>  <CAS_NUMBER>  (1) 
130209-82-4

>  <UNII>  (1) 
6Z5B6HVF6O

>  <SYNONYMS>  (1) 
isopropyl (Z)-7-((1R,2R,3R,5S)-3,5-dihydroxy-2-((3R)-3-hydroxy-5-phenylpentyl)cyclopentyl)-5-heptenoate; Latanoprost; Latanoprostum; propan-2-yl (5Z)-7-{(1R,2R,3R,5S)-3,5-dihydroxy-2-[(3R)-3-hydroxy-5-phenylpentyl]cyclopentyl}hept-5-enoate

$$$$
