113
     RDKit          3D

 23 25  0  0  0  0  0  0  0  0999 V2000
    3.5980   -0.7383   -0.0271 C   0  0  0  0  0  0  0  0  0  0  0  0
    2.3899   -1.3842   -0.0390 C   0  0  0  0  0  0  0  0  0  0  0  0
    1.2375   -0.6118   -0.0206 C   0  0  0  0  0  0  0  0  0  0  0  0
    1.2834    0.8094    0.0337 C   0  0  0  0  0  0  0  0  0  0  0  0
    2.5495    1.4964    0.0500 C   0  0  0  0  0  0  0  0  0  0  0  0
    3.6968    0.6635    0.0143 C   0  0  0  0  0  0  0  0  0  0  0  0
    0.0884   -1.3672   -0.0856 O   0  0  0  0  0  0  0  0  0  0  0  0
   -1.1192   -0.7213   -0.0803 C   0  0  0  0  0  0  0  0  0  0  0  0
   -1.2543    0.6032    0.0409 C   0  0  0  0  0  0  0  0  0  0  0  0
   -0.0649    1.4629    0.0577 C   0  0  0  0  0  0  0  0  0  0  0  0
   -2.3291   -1.6173   -0.1717 C   0  0  0  0  0  0  0  0  0  0  0  0
   -3.5469   -0.8374    0.2945 C   0  0  1  0  0  0  0  0  0  0  0  0
   -3.6112    0.4368   -0.3492 O   0  0  0  0  0  0  0  0  0  0  0  0
   -2.5768    1.3150    0.1063 C   0  0  1  0  0  0  0  0  0  0  0  0
    5.0196    1.0202    0.0118 O   0  0  0  0  0  0  0  0  0  0  0  0
    4.7354   -1.5016   -0.0655 O   0  0  0  0  0  0  0  0  0  0  0  0
    2.6279    3.0224    0.0941 C   0  0  0  0  0  0  0  0  0  0  0  0
    3.7942    3.6785    0.1059 O   0  0  0  0  0  0  0  0  0  0  0  0
   -2.7629    1.7847    1.4499 O   0  0  0  0  0  0  0  0  0  0  0  0
   -4.0656    1.6342    1.9842 C   0  0  0  0  0  0  0  0  0  0  0  0
   -4.9044   -1.4831    0.1157 C   0  0  0  0  0  0  0  0  0  0  0  0
    1.6701    3.7751    0.1189 O   0  0  0  0  0  0  0  0  0  0  0  0
   -0.2834    2.6555    0.0502 O   0  0  0  0  0  0  0  0  0  0  0  0
  1  2  2  0
  1  6  1  0
  1 16  1  0
  2  3  1  0
  3  4  2  0
  3  7  1  0
  4  5  1  0
  4 10  1  0
  5  6  2  0
  5 17  1  0
  6 15  1  0
  7  8  1  0
  8  9  2  0
  8 11  1  0
  9 10  1  0
  9 14  1  0
 10 23  2  0
 11 12  1  0
 12 13  1  0
 12 21  1  6
 13 14  1  0
 14 19  1  1
 17 18  1  0
 17 22  2  0
 19 20  1  0
M  END
>  <DRUGBANK_ID>  (1) 
DB02593

>  <SECONDARY_ACCESSION_NUMBERS>  (1) 
EXPT00011

>  <COMMON_NAME>  (1) 
7,8-Dihydroxy-1-Methoxy-3-Methyl-10-Oxo-4,10-Dihydro-1h,3h-Pyrano[4,3-B]Chromene-9-Carboxylic Acid

$$$$
