
     RDKit          3D

 24 25  0  0  1  0  0  0  0  0999 V2000
    1.0613   -0.1816    0.2542 C   0  0  0  0  0  0  0  0  0  0  0  0
    4.8250   -3.4447   -3.7990 C   0  0  0  0  0  0  0  0  0  0  0  0
    6.0885   -3.5403   -1.7493 C   0  0  0  0  0  0  0  0  0  0  0  0
    4.6718   -4.8380   -3.7816 C   0  0  0  0  0  0  0  0  0  0  0  0
    5.9350   -4.9328   -1.7290 C   0  0  0  0  0  0  0  0  0  0  0  0
    0.5622   -1.2818   -2.9924 C   0  0  0  0  0  0  0  0  0  0  0  0
    0.9862   -2.2079   -1.8518 C   0  0  0  0  0  0  0  0  0  0  0  0
    5.6854   -1.3073   -2.7923 C   0  0  0  0  0  0  0  0  0  0  0  0
    2.9043    2.7379   -2.6148 C   0  0  0  0  0  0  0  0  0  0  0  0
    5.5320   -2.7778   -2.7844 C   0  0  0  0  0  0  0  0  0  0  0  0
    5.2362   -5.5725   -2.7459 C   0  0  0  0  0  0  0  0  0  0  0  0
    1.0845    0.1450   -2.8733 C   0  0  1  0  0  0  0  0  0  0  0  0
    4.6390   -0.4691   -2.8324 C   0  0  0  0  0  0  0  0  0  0  0  0
    2.0878    3.2242   -3.7873 C   0  0  0  0  0  0  0  0  0  0  0  0
    2.6224    0.2297   -2.8546 C   0  0  0  0  0  0  0  0  0  0  0  0
    4.6798    1.0187   -2.8021 C   0  0  0  0  0  0  0  0  0  0  0  0
    0.4630    0.9127   -3.9447 N   0  0  0  0  0  0  0  0  0  0  0  0
    3.3299   -0.8573   -2.8896 N   0  0  0  0  0  0  0  0  0  0  0  0
    3.3523    1.3661   -2.7948 N   0  0  0  0  0  0  0  0  0  0  0  0
    5.1337   -6.9312   -2.6813 O   0  0  0  0  0  0  0  0  0  0  0  0
    0.9776    3.7291   -3.6852 O   0  0  0  0  0  0  0  0  0  0  0  0
    2.5970    2.9461   -5.0004 O   0  0  0  0  0  0  0  0  0  0  0  0
    5.6684    1.7361   -2.7636 O   0  0  0  0  0  0  0  0  0  0  0  0
    0.3023   -1.7838   -0.1917 S   0  0  0  0  0  0  0  0  0  0  0  0
  4  2  2  0
  5  3  1  0
  7  6  1  0
 10  2  1  0
 10  3  2  0
 10  8  1  0
 11  4  1  0
 11  5  2  0
 12  6  1  0
 12 17  1  6
 13  8  2  0
 14  9  1  0
 15 12  1  0
 16 13  1  0
 18 13  1  0
 18 15  2  0
 19  9  1  0
 19 15  1  0
 19 16  1  0
 20 11  1  0
 21 14  2  0
 22 14  1  0
 23 16  2  0
 24  1  1  0
 24  7  1  0
M  END
>  <DRUGBANK_ID>  (1) 
DB03391

>  <SECONDARY_ACCESSION_NUMBERS>  (1) 
EXPT00904

>  <COMMON_NAME>  (1) 
Chromophore (Met-Tyr-Gly)

$$$$
