
     RDKit          3D

 28 31  0  0  1  0  0  0  0  0999 V2000
   -1.9805   -5.7854   18.8999 C   0  0  0  0  0  0  0  0  0  0  0  0
   -2.4563   -5.7924   17.4681 C   0  0  0  0  0  0  0  0  0  0  0  0
   -3.5784   -6.2178   17.1895 O   0  0  0  0  0  0  0  0  0  0  0  0
   -1.5480   -5.2741   16.3902 C   0  0  0  0  0  0  0  0  0  0  0  0
   -2.0253   -4.4777   15.4120 C   0  0  0  0  0  0  0  0  0  0  0  0
   -3.4351   -3.9448   15.3697 C   0  0  0  0  0  0  0  0  0  0  0  0
   -1.1403   -4.1534   14.2722 C   0  0  0  0  0  0  0  0  0  0  0  0
   -1.5873   -3.4412   13.1704 C   0  0  0  0  0  0  0  0  0  0  0  0
   -0.8762   -3.2611   12.0413 N   0  0  0  0  0  0  0  0  0  0  0  0
    0.3760   -3.7274   11.9725 C   0  0  0  0  0  0  0  0  0  0  0  0
    1.1417   -3.5206   10.8231 N   0  0  0  0  0  0  0  0  0  0  0  0
    0.4349   -3.1328    9.5872 C   0  0  2  0  0  0  0  0  0  0  0  0
    0.0151   -1.6696    9.7024 C   0  0  0  0  0  0  0  0  0  0  0  0
   -0.7934   -1.2342    8.5034 C   0  0  0  0  0  0  0  0  0  0  0  0
   -1.9026   -2.1011    8.2814 O   0  0  0  0  0  0  0  0  0  0  0  0
   -1.4975   -3.4369    7.9894 C   0  0  0  0  0  0  0  0  0  0  0  0
   -0.7274   -4.0692    9.1552 C   0  0  1  0  0  0  0  0  0  0  0  0
   -0.2487   -5.3728    8.7871 O   0  0  0  0  0  0  0  0  0  0  0  0
    0.9590   -4.3082   13.0832 C   0  0  0  0  0  0  0  0  0  0  0  0
    0.1862   -4.5958   14.2231 C   0  0  0  0  0  0  0  0  0  0  0  0
    0.6949   -5.3473   15.3271 N   0  0  0  0  0  0  0  0  0  0  0  0
    2.0614   -5.8730   15.3208 C   0  0  0  0  0  0  0  0  0  0  0  0
    2.1366   -7.4007   15.2733 C   0  0  0  0  0  0  0  0  0  0  0  0
    3.5177   -7.7339   15.8238 C   0  0  0  0  0  0  0  0  0  0  0  0
    4.0398   -6.4752   16.5211 C   0  0  0  0  0  0  0  0  0  0  0  0
    2.8844   -5.4894   16.5503 C   0  0  0  0  0  0  0  0  0  0  0  0
   -0.1336   -5.7172   16.3838 C   0  0  0  0  0  0  0  0  0  0  0  0
    0.2543   -6.4274   17.3181 O   0  0  0  0  0  0  0  0  0  0  0  0
  1  2  1  0
  2  3  2  0
  2  4  1  0
  4  5  2  0
  4 27  1  0
  5  6  1  0
  5  7  1  0
  7  8  2  0
  7 20  1  0
  8  9  1  0
  9 10  2  0
 10 11  1  0
 10 19  1  0
 12 13  1  0
 12 17  1  0
 12 11  1  1
 13 14  1  0
 14 15  1  0
 15 16  1  0
 17 16  1  0
 17 18  1  6
 19 20  2  0
 20 21  1  0
 21 22  1  0
 21 27  1  0
 22 23  1  0
 22 26  1  0
 23 24  1  0
 24 25  1  0
 25 26  1  0
 27 28  2  0
M  END
>  <DRUGBANK_ID>  (1) 
DB18039

>  <COMMON_NAME>  (1) 
PF-06842874

>  <CAS_NUMBER>  (1) 
2516247-98-4

>  <UNII>  (1) 
AX8OYB2MWW

>  <SYNONYMS>  (1) 
3-acetyl-1-cyclopentyl-7-(((3s,4r)-3-hydroxyoxan-4-yl)amino)-4-methyl-1,6-naphthyridin-2(1h)-one; 3-Acetyl-1-cyclopentyl-7-{[(3S,4R)-3-hydroxyoxan-4-yl]amino }-4-methyl-1,6-naphthyridin-2(1H)-one

$$$$
