
     RDKit          3D

 30 32  0  0  1  0  0  0  0  0999 V2000
    4.6540    0.3831   -1.0581 O   0  0  0  0  0  0  0  0  0  0  0  0
    4.6313   -0.9461   -0.4761 C   0  0  2  0  0  0  0  0  0  0  0  0
    5.1025   -1.9581   -1.5035 C   0  0  0  0  0  0  0  0  0  0  0  0
    4.7434   -3.3003   -1.1801 O   0  0  0  0  0  0  0  0  0  0  0  0
    3.3336   -3.5277   -1.1090 C   0  0  2  0  0  0  0  0  0  0  0  0
    2.4456   -3.4509   -2.7761 S   0  0  0  0  0  0  0  0  0  0  0  0
    1.8687   -1.6649   -3.1259 C   0  0  0  0  0  0  0  0  0  0  0  0
    0.5393   -1.1129   -2.4514 C   0  0  1  0  0  0  0  0  0  0  0  0
   -0.2710   -2.2516   -2.2013 O   0  0  0  0  0  0  0  0  0  0  0  0
   -1.4573   -1.9834   -1.4643 C   0  0  1  0  0  0  0  0  0  0  0  0
   -2.2885   -3.1574   -1.4596 O   0  0  0  0  0  0  0  0  0  0  0  0
   -1.7865   -4.2976   -0.8876 C   0  0  0  0  0  0  0  0  0  0  0  0
   -1.5546   -4.4148    0.4860 C   0  0  0  0  0  0  0  0  0  0  0  0
   -1.1715   -5.6257    1.0570 C   0  0  0  0  0  0  0  0  0  0  0  0
   -1.1444   -6.7681    0.2679 C   0  0  0  0  0  0  0  0  0  0  0  0
   -1.4658   -6.6937   -1.0976 C   0  0  0  0  0  0  0  0  0  0  0  0
   -1.7282   -5.4442   -1.6799 C   0  0  0  0  0  0  0  0  0  0  0  0
   -0.7828   -8.0606    0.8603 N   0  0  0  0  0  0  0  0  0  0  0  0
   -0.8129   -9.0558    0.1583 O   0  0  0  0  0  0  0  0  0  0  0  0
   -0.4456   -8.0507    2.0739 O   0  0  0  0  0  0  0  0  0  0  0  0
   -1.2075   -1.3938   -0.0596 C   0  0  2  0  0  0  0  0  0  0  0  0
   -2.4120   -1.1429    0.6617 O   0  0  0  0  0  0  0  0  0  0  0  0
   -0.3501   -0.1341   -0.0856 C   0  0  1  0  0  0  0  0  0  0  0  0
    0.2331   -0.0211    1.2551 O   0  0  0  0  0  0  0  0  0  0  0  0
    0.7198   -0.2864   -1.1689 C   0  0  2  0  0  0  0  0  0  0  0  0
    1.5631    0.8252   -1.4341 O   0  0  0  0  0  0  0  0  0  0  0  0
    2.7226   -2.7275    0.0312 C   0  0  2  0  0  0  0  0  0  0  0  0
    1.3036   -2.9772    0.0188 O   0  0  0  0  0  0  0  0  0  0  0  0
    3.2104   -1.2677   -0.1427 C   0  0  1  0  0  0  0  0  0  0  0  0
    2.7881   -0.2943    0.8108 O   0  0  0  0  0  0  0  0  0  0  0  0
  2  1  1  6
  2  3  1  0
  2 29  1  0
  3  4  1  0
  4  5  1  0
  5 27  1  0
  5  6  1  6
  6  7  1  0
  8  9  1  0
  8 25  1  0
  8  7  1  1
  9 10  1  0
 10 11  1  1
 10 21  1  0
 11 12  1  0
 12 13  2  0
 12 17  1  0
 13 14  1  0
 14 15  2  0
 15 16  1  0
 15 18  1  0
 16 17  2  0
 18 19  1  0
 18 20  2  0
 21 22  1  6
 21 23  1  0
 23 24  1  1
 23 25  1  0
 25 26  1  6
 27 28  1  6
 27 29  1  0
 29 30  1  1
M  CHG  2  18   1  19  -1
M  END
>  <DRUGBANK_ID>  (1) 
DB04807

>  <COMMON_NAME>  (1) 
4-NITROPHENYL-(6-S-ALPHA-D-XYLOPYRANOSYL)-BETA-D-GLUCOPYRANOSIDE

$$$$
