
     RDKit          3D

 13 15  0  0  0  0  0  0  0  0999 V2000
    0.7069    0.7365    0.8246 C   0  0  0  0  0  0  0  0  0  0  0  0
    1.5859    1.3421   -0.2747 C   0  0  0  0  0  0  0  0  0  0  0  0
    2.5863    0.2380   -0.5905 C   0  0  0  0  0  0  0  0  0  0  0  0
    2.0238   -1.1505   -0.3627 N   0  0  0  0  0  0  0  0  0  0  0  0
    0.5157   -1.3954   -0.2834 C   0  0  0  0  0  0  0  0  0  0  0  0
    1.5922   -0.2150    1.8211 C   0  0  0  0  0  0  0  0  0  0  0  0
    2.3904   -1.3516    1.0431 C   0  0  0  0  0  0  0  0  0  0  0  0
   -1.4569   -0.5373    1.1587 C   0  0  0  0  0  0  0  0  0  0  0  0
   -0.3418   -0.1823    0.1461 C   0  0  1  0  0  0  0  0  0  0  0  0
   -0.8906    0.3431   -1.0661 O   0  0  0  0  0  0  0  0  0  0  0  0
   -2.3194    0.3299   -1.1012 C   0  0  1  0  0  0  0  0  0  0  0  0
   -2.9827    0.1643    0.5481 S   0  0  0  0  0  0  0  0  0  0  0  0
   -2.7079    1.6688   -1.6820 C   0  0  0  0  0  0  0  0  0  0  0  0
  1  2  1  0
  1  9  1  0
  1  6  1  0
  2  3  1  0
  3  4  1  0
  4  5  1  0
  4  7  1  0
  5  9  1  0
  6  7  1  0
  9  8  1  1
  8 12  1  0
  9 10  1  0
 10 11  1  0
 11 12  1  0
 11 13  1  1
M  END
>  <DRUGBANK_ID>  (1) 
DB00185

>  <SECONDARY_ACCESSION_NUMBERS>  (1) 
APRD00224

>  <COMMON_NAME>  (1) 
Cevimeline

>  <CAS_NUMBER>  (1) 
107233-08-9

>  <UNII>  (1) 
K9V0CDQ56E

>  <SYNONYMS>  (1) 
2-Methyspiro(1,3-oxathiolane-5,3)quinuclidine; Cevimelina; Cévimèline; Cevimeline; Cevimelinum

$$$$
