
     RDKit          3D

 27 29  0  0  0  0  0  0  0  0999 V2000
    1.1037   -0.0030    0.2009 C   0  0  0  0  0  0  0  0  0  0  0  0
    0.3413    0.9872   -0.5566 C   0  0  0  0  0  0  0  0  0  0  0  0
    0.5252    1.1332   -1.9406 C   0  0  0  0  0  0  0  0  0  0  0  0
   -0.5029    1.8546   -2.5432 C   0  0  0  0  0  0  0  0  0  0  0  0
   -1.4530    2.6465   -1.8482 C   0  0  0  0  0  0  0  0  0  0  0  0
   -1.6150    2.4924   -0.4970 C   0  0  0  0  0  0  0  0  0  0  0  0
   -0.7435    1.6230    0.1425 C   0  0  0  0  0  0  0  0  0  0  0  0
    0.4545   -0.8681    0.8305 O   0  0  0  0  0  0  0  0  0  0  0  0
    2.4435    0.0727    0.2661 O   0  0  0  0  0  0  0  0  0  0  0  0
    1.6130    0.3789   -2.7392 C   0  0  0  0  0  0  0  0  0  0  0  0
    2.4542    0.8643   -3.9263 C   0  0  0  0  0  0  0  0  0  0  0  0
    3.2617    2.0218   -3.9775 C   0  0  0  0  0  0  0  0  0  0  0  0
    3.7223    2.5660   -5.2427 C   0  0  0  0  0  0  0  0  0  0  0  0
    3.4638    1.9038   -6.4430 C   0  0  0  0  0  0  0  0  0  0  0  0
    2.8876    0.6202   -6.3433 C   0  0  0  0  0  0  0  0  0  0  0  0
    2.3483    0.1374   -5.1176 C   0  0  0  0  0  0  0  0  0  0  0  0
    1.9015   -0.7546   -2.3667 O   0  0  0  0  0  0  0  0  0  0  0  0
    3.3670    2.4915   -7.7035 O   0  0  0  0  0  0  0  0  0  0  0  0
    3.3139    3.9390   -7.9376 C   0  0  0  0  0  0  0  0  0  0  0  0
    1.9813    4.8029   -7.7179 C   0  0  0  0  0  0  0  0  0  0  0  0
    1.4719    4.7668   -6.3600 N   0  0  0  0  0  0  0  0  0  0  0  0
    0.4687    5.7364   -5.8895 C   0  0  0  0  0  0  0  0  0  0  0  0
    0.3353    5.6553   -4.3496 C   0  0  0  0  0  0  0  0  0  0  0  0
    0.0394    4.2465   -3.9453 C   0  0  0  0  0  0  0  0  0  0  0  0
    0.9617    3.3598   -4.6855 C   0  0  0  0  0  0  0  0  0  0  0  0
    0.8848    3.4656   -6.1572 C   0  0  0  0  0  0  0  0  0  0  0  0
    3.2357    1.1360   -0.2889 C   0  0  0  0  0  0  0  0  0  0  0  0
  1  2  1  0
  1  8  2  0
  1  9  1  0
  2  3  2  0
  2  7  1  0
  3  4  1  0
  3 10  1  0
  4  5  2  0
  5  6  1  0
  6  7  2  0
  9 27  1  0
 10 11  1  0
 10 17  2  0
 11 12  2  0
 11 16  1  0
 12 13  1  0
 13 14  2  0
 14 15  1  0
 14 18  1  0
 15 16  2  0
 18 19  1  0
 19 20  1  0
 20 21  1  0
 21 22  1  0
 21 26  1  0
 22 23  1  0
 23 24  1  0
 24 25  1  0
 25 26  1  0
M  END
>  <DRUGBANK_ID>  (1) 
DB15947

>  <COMMON_NAME>  (1) 
Pitofenone

>  <CAS_NUMBER>  (1) 
54063-52-4

>  <UNII>  (1) 
M09N8K7YJY

>  <SYNONYMS>  (1) 
Pitofenona; Pitofenone; Pitofenonum

$$$$
