859
     RDKit          3D

 24 26  0  0  0  0  0  0  0  0999 V2000
    0.0719    1.2747   -0.0779 C   0  0  0  0  0  0  0  0  0  0  0  0
    1.1725    0.5416   -0.2360 N   0  0  0  0  0  0  0  0  0  0  0  0
    1.0981   -0.7899   -0.1601 C   0  0  0  0  0  0  0  0  0  0  0  0
   -0.1135   -1.4271   -0.0708 C   0  0  0  0  0  0  0  0  0  0  0  0
   -1.2154   -0.6028   -0.0219 C   0  0  0  0  0  0  0  0  0  0  0  0
   -1.1553    0.7460   -0.0096 N   0  0  0  0  0  0  0  0  0  0  0  0
    2.3021   -1.5079   -0.2621 N   0  0  0  0  0  0  0  0  0  0  0  0
    3.5723   -0.9095   -0.0092 C   0  0  0  0  0  0  0  0  0  0  0  0
    3.9222   -0.0905    1.1013 C   0  0  0  0  0  0  0  0  0  0  0  0
    5.2381    0.4216    1.1586 C   0  0  0  0  0  0  0  0  0  0  0  0
    6.1948    0.0967    0.1925 C   0  0  0  0  0  0  0  0  0  0  0  0
    5.8678   -0.7634   -0.8437 C   0  0  0  0  0  0  0  0  0  0  0  0
    4.5656   -1.2414   -0.9526 C   0  0  0  0  0  0  0  0  0  0  0  0
    0.2346    2.6480    0.0734 N   0  0  0  0  0  0  0  0  0  0  0  0
    1.4369    3.3633   -0.0090 C   0  0  0  0  0  0  0  0  0  0  0  0
    1.7861    4.2779    0.9911 C   0  0  0  0  0  0  0  0  0  0  0  0
    2.9755    5.0092    0.9019 C   0  0  0  0  0  0  0  0  0  0  0  0
    3.8570    4.7852   -0.1549 C   0  0  0  0  0  0  0  0  0  0  0  0
    3.5276    3.8618   -1.1359 C   0  0  0  0  0  0  0  0  0  0  0  0
    2.3337    3.1518   -1.0675 C   0  0  0  0  0  0  0  0  0  0  0  0
    4.3947    3.6926   -2.1756 O   0  0  0  0  0  0  0  0  0  0  0  0
    2.9646    0.2431    2.2229 C   0  0  0  0  0  0  0  0  0  0  0  0
    3.3196    1.1911    3.1467 N   0  0  0  0  0  0  0  0  0  0  0  0
    1.8893   -0.3286    2.4121 O   0  0  0  0  0  0  0  0  0  0  0  0
  1  6  1  0
  1  2  2  0
  1 14  1  0
  2  3  1  0
  3  4  2  0
  3  7  1  0
  4  5  1  0
  5  6  2  0
  7  8  1  0
  8  9  2  0
  8 13  1  0
  9 22  1  0
  9 10  1  0
 10 11  2  0
 11 12  1  0
 12 13  2  0
 14 15  1  0
 15 20  1  0
 15 16  2  0
 16 17  1  0
 17 18  2  0
 18 19  1  0
 19 20  2  0
 19 21  1  0
 22 23  1  0
 22 24  2  0
M  END
>  <DRUGBANK_ID>  (1) 
DB07268

>  <COMMON_NAME>  (1) 
2-({2-[(3-HYDROXYPHENYL)AMINO]PYRIMIDIN-4-YL}AMINO)BENZAMIDE

>  <UNII>  (1) 
MU563H6ION

$$$$
