
     RDKit          3D

 11 10  0  0  0  0  0  0  0  0999 V2000
    1.4243   -0.2071    0.1778 C   0  0  0  0  0  0  0  0  0  0  0  0
    1.0391    1.1688   -0.2948 C   0  0  0  0  0  0  0  0  0  0  0  0
    1.3475    1.4349   -1.7914 C   0  0  0  0  0  0  0  0  0  0  0  0
    0.5907    0.5413   -2.7916 C   0  0  0  0  0  0  0  0  0  0  0  0
   -1.2393    0.5413   -2.7916 P   0  0  0  0  0  0  0  0  0  0  0  0
   -1.2565   -0.7973   -2.0543 O   0  0  0  0  0  0  0  0  0  0  0  0
   -1.4872    1.9895   -1.5944 C   0  0  0  0  0  0  0  0  0  0  0  0
   -2.2343    3.2225   -2.0826 C   0  0  0  0  0  0  0  0  0  0  0  0
   -3.7208    3.0479   -2.3278 C   0  0  0  0  0  0  0  0  0  0  0  0
   -4.3832    2.3957   -1.1975 N   0  0  0  0  0  0  0  0  0  0  0  0
   -2.9693    0.5413   -2.7916 O   0  0  0  0  0  0  0  0  0  0  0  0
  1  2  1  0
  2  3  1  0
  3  4  1  0
  4  5  1  0
  5  6  2  0
  5  7  1  0
  5 11  1  0
  7  8  1  0
  8  9  1  0
  9 10  1  0
M  END
>  <DRUGBANK_ID>  (1) 
DB05010

>  <SECONDARY_ACCESSION_NUMBERS>  (1) 
DB12646

>  <COMMON_NAME>  (1) 
SGS-742

>  <CAS_NUMBER>  (1) 
123690-78-8

>  <UNII>  (1) 
GBZ5UC0RME

>  <SYNONYMS>  (1) 
(3-Aminopropyl)(n-butyl)phosphinic acid; 3-Aminopropyl-Butyl Phosphinic Acid; SGS 742; SGS-742; SGS742

$$$$
