PRB
     RDKit          3D

 29 32  0  0  0  0  0  0  0  0999 V2000
   -1.4343   -1.0928   -0.2490 C   0  0  0  0  0  0  0  0  0  0  0  0
   -1.6496   -2.4692   -0.2270 C   0  0  0  0  0  0  0  0  0  0  0  0
   -0.7463   -2.6696   -1.2935 C   0  0  0  0  0  0  0  0  0  0  0  0
    0.3115   -3.3766   -1.1433 O   0  0  0  0  0  0  0  0  0  0  0  0
   -1.0470   -1.7608   -2.3665 C   0  0  2  0  0  0  0  0  0  0  0  0
   -2.4740   -1.7639   -2.6038 O   0  0  0  0  0  0  0  0  0  0  0  0
   -0.1923   -2.2949   -3.4340 C   0  0  0  0  0  0  0  0  0  0  0  0
    1.2534   -1.6995   -3.3594 C   0  0  0  0  0  0  0  0  0  0  0  0
    1.3484   -1.1579   -4.5548 C   0  0  0  0  0  0  0  0  0  0  0  0
    0.9435    0.2887   -4.2225 C   0  0  2  0  0  0  0  0  0  0  0  0
   -0.4598    0.6252   -2.9325 C   0  0  1  0  0  0  0  0  0  0  0  0
   -1.8779    0.6140   -3.3141 O   0  0  0  0  0  0  0  0  0  0  0  0
   -0.6889   -0.4952   -1.6718 C   0  0  1  0  0  0  0  0  0  0  0  0
   -0.0585    2.1297   -2.4090 C   0  0  1  0  0  0  0  0  0  0  0  0
   -0.4322    3.3234   -3.4930 C   0  0  2  0  0  0  0  0  0  0  0  0
   -1.4829    3.8559   -4.3515 O   0  0  0  0  0  0  0  0  0  0  0  0
    0.6279    2.9681   -4.6814 C   0  0  1  0  0  0  0  0  0  0  0  0
    1.3989    1.6267   -4.7536 C   0  0  2  0  0  0  0  0  0  0  0  0
    0.2641    1.9021   -5.7547 C   0  0  0  0  0  0  0  0  0  0  0  0
    0.4449    1.6934   -7.1980 C   0  0  0  0  0  0  0  0  0  0  0  0
   -0.9845    1.1047   -5.5174 C   0  0  0  0  0  0  0  0  0  0  0  0
   -0.3330    2.1706   -0.8893 C   0  0  0  0  0  0  0  0  0  0  0  0
   -2.0703   -3.9128    0.1240 C   0  0  0  0  0  0  0  0  0  0  0  0
    2.0543   -0.7050   -2.3739 C   0  0  0  0  0  0  0  0  0  0  0  0
    2.1624   -1.0961   -1.0455 O   0  0  0  0  0  0  0  0  0  0  0  0
    1.1496    4.1893   -5.2850 O   0  0  0  0  0  0  0  0  0  0  0  0
    2.0470    4.9542   -4.6049 C   0  0  0  0  0  0  0  0  0  0  0  0
    1.9697    6.1809   -4.5287 O   0  0  0  0  0  0  0  0  0  0  0  0
    3.1810    4.1606   -4.0584 C   0  0  0  0  0  0  0  0  0  0  0  0
  1  2  2  0
 13  1  1  1
  2  3  1  0
  2 23  1  0
  3  5  1  0
  3  4  2  0
  5  7  1  0
  5 13  1  0
  5  6  1  6
  7  8  1  0
  8  9  2  0
  8 24  1  0
 10  9  1  6
 10 11  1  0
 10 18  1  0
 11 13  1  0
 11 14  1  0
 11 12  1  6
 14 15  1  0
 14 22  1  1
 15 17  1  0
 15 16  1  6
 17 18  1  0
 17 19  1  0
 17 26  1  6
 18 19  1  6
 19 20  1  0
 19 21  1  0
 24 25  1  0
 26 27  1  0
 27 28  2  0
 27 29  1  0
M  END
>  <DRUGBANK_ID>  (1) 
DB04376

>  <SECONDARY_ACCESSION_NUMBERS>  (1) 
EXPT02656

>  <COMMON_NAME>  (1) 
13-Acetylphorbol

$$$$
