
     RDKit          3D

 39 40  0  0  0  0  0  0  0  0999 V2000
    9.7777   -0.9980    0.0487 C   0  0  0  0  0  0  0  0  0  0  0  0
   11.0669   -1.4788    0.2343 C   0  0  0  0  0  0  0  0  0  0  0  0
   11.4462   -2.2658    1.3229 C   0  0  0  0  0  0  0  0  0  0  0  0
   10.4995   -2.5134    2.2699 C   0  0  0  0  0  0  0  0  0  0  0  0
    9.2933   -1.8202    2.1576 C   0  0  0  0  0  0  0  0  0  0  0  0
    8.8097   -1.3359    0.9497 C   0  0  0  0  0  0  0  0  0  0  0  0
   12.7062   -2.6742    1.6509 O   0  0  0  0  0  0  0  0  0  0  0  0
   13.7660   -2.0542    0.9286 C   0  0  0  0  0  0  0  0  0  0  0  0
   13.7316   -2.4779   -0.5349 C   0  0  0  0  0  0  0  0  0  0  0  0
   13.7183   -1.7489   -1.5161 O   0  0  0  0  0  0  0  0  0  0  0  0
    7.3349   -1.1888    0.6404 C   0  0  0  0  0  0  0  0  0  0  0  0
    6.4949   -2.4751    0.2787 C   0  0  1  0  0  0  0  0  0  0  0  0
    7.2654   -3.8080    0.3880 C   0  0  0  0  0  0  0  0  0  0  0  0
    7.6737   -4.4212   -0.6004 O   0  0  0  0  0  0  0  0  0  0  0  0
    7.5660   -4.3005    1.6291 N   0  0  0  0  0  0  0  0  0  0  0  0
    7.3579   -3.6269    2.8839 C   0  0  0  0  0  0  0  0  0  0  0  0
    6.7171   -4.4347    3.9545 C   0  0  0  0  0  0  0  0  0  0  0  0
    7.7122   -5.5181    4.3826 C   0  0  0  0  0  0  0  0  0  0  0  0
    5.2181   -2.5234    1.0492 N   0  0  0  0  0  0  0  0  0  0  0  0
    4.0591   -2.0148    0.5541 C   0  0  0  0  0  0  0  0  0  0  0  0
    3.9690   -1.5850   -0.5932 O   0  0  0  0  0  0  0  0  0  0  0  0
    2.1365    0.2654    0.9820 C   0  0  0  0  0  0  0  0  0  0  0  0
    2.7865    0.8015    0.0775 O   0  0  0  0  0  0  0  0  0  0  0  0
   13.6097   -3.8185   -0.6992 O   0  0  0  0  0  0  0  0  0  0  0  0
   13.9451   -0.5359    1.1725 C   0  0  0  0  0  0  0  0  0  0  0  0
   14.9465   -0.0107    1.6419 O   0  0  0  0  0  0  0  0  0  0  0  0
   12.8871    0.2429    0.8648 O   0  0  0  0  0  0  0  0  0  0  0  0
    3.0328   -1.9565    1.4656 N   0  0  0  0  0  0  0  0  0  0  0  0
    1.7899   -1.2315    1.1200 C   0  0  1  0  0  0  0  0  0  0  0  0
    1.7460    1.0590    1.9889 O   0  0  0  0  0  0  0  0  0  0  0  0
    0.6205   -1.5353    2.0957 C   0  0  0  0  0  0  0  0  0  0  0  0
    9.0466   -5.0024    4.9691 C   0  0  0  0  0  0  0  0  0  0  0  0
    8.8535   -4.0546    6.1404 C   0  0  0  0  0  0  0  0  0  0  0  0
   -0.7473   -0.9800    1.7093 C   0  0  0  0  0  0  0  0  0  0  0  0
   -1.8000   -1.8236    1.3361 C   0  0  0  0  0  0  0  0  0  0  0  0
   -1.0334    0.3920    1.7899 C   0  0  0  0  0  0  0  0  0  0  0  0
   -2.2879    0.9218    1.5106 C   0  0  0  0  0  0  0  0  0  0  0  0
   -3.3083    0.0774    1.1218 C   0  0  0  0  0  0  0  0  0  0  0  0
   -3.0691   -1.2949    1.0482 C   0  0  0  0  0  0  0  0  0  0  0  0
  1  2  2  0
  1  6  1  0
  2  3  1  0
  3  4  2  0
  3  7  1  0
  4  5  1  0
  5  6  2  0
  6 11  1  0
  7  8  1  0
  8  9  1  0
  8 25  1  0
  9 10  2  0
  9 24  1  0
 12 13  1  0
 12 19  1  0
 12 11  1  1
 13 14  2  0
 13 15  1  0
 15 16  1  0
 16 17  1  0
 17 18  1  0
 18 32  1  0
 19 20  1  0
 20 28  1  0
 20 21  2  0
 22 23  2  0
 22 30  1  0
 25 26  2  0
 25 27  1  0
 29 31  1  1
 29 28  1  0
 29 22  1  0
 31 34  1  0
 32 33  1  0
 34 35  2  0
 34 36  1  0
 35 39  1  0
 36 37  2  0
 37 38  1  0
 38 39  2  0
M  END
>  <DRUGBANK_ID>  (1) 
DB02436

>  <SECONDARY_ACCESSION_NUMBERS>  (1) 
EXPT01899

>  <COMMON_NAME>  (1) 
{4-[(2S)-2-({[(1S)-1-Carboxy-2-phenylethyl]carbamoyl}amino)-3-oxo-3-(pentylamino)propyl]phenoxy}malonic acid

>  <UNII>  (1) 
BSW3GP3Z2B

$$$$
