
     RDKit          3D

  7  6  0  0  0  0  0  0  0  0999 V2000
    0.9615   -0.0661   -0.0973 N   0  0  0  0  0  0  0  0  0  0  0  0
    0.3506    1.4351    2.4706 O   0  0  0  0  0  0  0  0  0  0  0  0
    0.4346   -0.6603    1.2395 C   0  0  0  0  0  0  0  0  0  0  0  0
    0.8713    0.1133    2.4945 C   0  0  0  0  0  0  0  0  0  0  0  0
    0.4347    1.3515   -0.3216 C   0  0  0  0  0  0  0  0  0  0  0  0
    0.4386   -0.9464   -1.2307 C   0  0  0  0  0  0  0  0  0  0  0  0
    2.4800   -0.0578   -0.1452 C   0  0  0  0  0  0  0  0  0  0  0  0
  1  5  1  0
  1  6  1  0
  1  7  1  0
  2  4  1  0
  3  1  1  0
  4  3  1  0
M  CHG  1   1   1
M  ISO  1   7  11
M  END
>  <DRUGBANK_ID>  (1) 
DB09563

>  <COMMON_NAME>  (1) 
Choline C-11

>  <CAS_NUMBER>  (1) 
94793-58-5

>  <UNII>  (1) 
M4AS4XGD4Q

>  <SYNONYMS>  (1) 
(11)C-choline; Choline C11

$$$$
