
     RDKit          3D

  8  7  0  0  1  0  0  0  0  0999 V2000
    1.1344   -0.0469   -0.0738 C   0  0  0  0  0  0  0  0  0  0  0  0
   -1.4357   -1.9888   -2.0839 C   0  0  0  0  0  0  0  0  0  0  0  0
   -1.4923   -1.4046    0.2529 C   0  0  0  0  0  0  0  0  0  0  0  0
    0.5937   -1.1191   -1.0282 C   0  0  1  0  0  0  0  0  0  0  0  0
    1.1786   -2.5031   -0.6786 C   0  0  0  0  0  0  0  0  0  0  0  0
   -0.9000   -1.0965   -1.0511 N   0  0  0  0  0  0  0  0  0  0  0  0
    0.5841   -3.5443   -0.4348 O   0  0  0  0  0  0  0  0  0  0  0  0
    2.5254   -2.5371   -0.6914 O   0  0  0  0  0  0  0  0  0  0  0  0
  4  1  1  1
  5  4  1  0
  6  2  1  0
  6  3  1  0
  6  4  1  0
  7  5  2  0
  8  5  1  0
M  END
>  <DRUGBANK_ID>  (1) 
DB02167

>  <SECONDARY_ACCESSION_NUMBERS>  (1) 
EXPT02000

>  <COMMON_NAME>  (1) 
N,N-Dimethyl-L-Alanine

$$$$
