
     RDKit          3D

 16 15  0  0  1  0  0  0  0  0999 V2000
    1.4339    2.2601    1.4088 C   0  0  0  0  0  0  0  0  0  0  0  0
   -1.2351    1.2293   -1.7084 C   0  0  0  0  0  0  0  0  0  0  0  0
    0.6855    0.9805    1.4053 C   0  0  2  0  0  0  0  0  0  0  0  0
   -1.4929   -0.7015   -1.8024 C   0  0  1  0  0  0  0  0  0  0  0  0
   -1.3725    2.0570   -0.0341 C   0  0  2  0  0  0  0  0  0  0  0  0
    1.3998   -0.0863    0.4530 C   0  0  1  0  0  0  0  0  0  0  0  0
   -2.9030   -1.1467   -1.1384 C   0  0  0  0  0  0  0  0  0  0  0  0
    0.5366    0.0787   -0.6826 C   0  0  0  0  0  0  0  0  0  0  0  0
   -0.9709   -1.5943   -2.8475 N   0  0  0  0  0  0  0  0  0  0  0  0
    2.7530    0.1145   -0.1050 N   0  0  0  0  0  0  0  0  0  0  0  0
   -1.0765    3.4172    0.1118 O   0  0  0  0  0  0  0  0  0  0  0  0
   -3.7534   -1.8635   -1.6294 O   0  0  0  0  0  0  0  0  0  0  0  0
   -3.0867   -0.5822    0.1043 O   0  0  0  0  0  0  0  0  0  0  0  0
    0.9181    0.1893   -1.7858 O   0  0  0  0  0  0  0  0  0  0  0  0
   -0.6988   -0.1047    0.0291 O   0  0  0  0  0  0  0  0  0  0  0  0
   -0.7774    1.4686    1.2866 O   0  0  0  0  0  0  0  0  0  0  0  0
  3  6  1  0
  3  1  1  6
  4  2  1  0
  4  9  1  6
  5 11  1  6
  5  2  1  0
  6 10  1  6
  7  4  1  0
  8  6  1  0
 12  7  2  0
 13  7  1  0
 14  8  2  0
 15  8  1  0
 16  3  1  0
 16  5  1  0
M  END
>  <DRUGBANK_ID>  (1) 
DB01817

>  <SECONDARY_ACCESSION_NUMBERS>  (1) 
EXPT00445

>  <COMMON_NAME>  (1) 
Threonine-Aspartic Ester

$$$$
