
     RDKit          3D

  6  5  0  0  0  0  0  0  0  0999 V2000
    0.8931    0.0396    0.1464 O   0  0  0  0  0  0  0  0  0  0  0  0
    0.4494   -0.1157   -1.1919 C   0  0  0  0  0  0  0  0  0  0  0  0
    1.0191    0.9807   -2.0871 C   0  0  0  0  0  0  0  0  0  0  0  0
    2.5509    0.9661   -2.1833 C   0  0  0  0  0  0  0  0  0  0  0  0
    3.1206   -0.3458   -2.7147 C   0  0  0  0  0  0  0  0  0  0  0  0
    2.6769   -0.5927   -4.0392 O   0  0  0  0  0  0  0  0  0  0  0  0
  1  2  1  0
  2  3  1  0
  3  4  1  0
  4  5  1  0
  5  6  1  0
M  END
>  <DRUGBANK_ID>  (1) 
DB01955

>  <SECONDARY_ACCESSION_NUMBERS>  (1) 
EXPT00771

>  <COMMON_NAME>  (1) 
1,4-Butanediol

>  <CAS_NUMBER>  (1) 
110-63-4

>  <UNII>  (1) 
7XOO2LE6G3

$$$$
