644073
     RDKit          3D

 34 40  0  0  1  0  0  0  0  0999 V2000
    0.7413   -0.8540   -1.1195 O   0  0  0  0  0  0  0  0  0  0  0  0
    1.5010   -4.9014   -2.9766 O   0  0  0  0  0  0  0  0  0  0  0  0
    3.2909   -6.7950   -0.7568 O   0  0  0  0  0  0  0  0  0  0  0  0
    1.9061    2.2472   -0.3164 O   0  0  0  0  0  0  0  0  0  0  0  0
    4.0118   -2.7074    1.8457 N   0  0  0  0  0  0  0  0  0  0  0  0
    2.8940   -3.5345   -0.2268 C   0  0  2  0  0  0  0  0  0  0  0  0
    2.0350   -2.3850    0.0497 C   0  0  1  0  0  0  0  0  0  0  0  0
    0.9979   -4.0042   -1.9618 C   0  0  1  0  0  0  0  0  0  0  0  0
    0.8259   -2.4759   -0.8540 C   0  0  2  0  0  0  0  0  0  0  0  0
    1.2497   -5.3040   -0.6897 C   0  0  2  0  0  0  0  0  0  0  0  0
    2.1731   -4.7327    0.3707 C   0  0  0  0  0  0  0  0  0  0  0  0
    4.1413   -3.1708    0.4491 C   0  0  1  0  0  0  0  0  0  0  0  0
    3.3003   -3.6990   -1.7045 C   0  0  0  0  0  0  0  0  0  0  0  0
    2.1772   -3.2102   -2.5171 C   0  0  0  0  0  0  0  0  0  0  0  0
    1.6317   -2.3139    1.6006 C   0  0  0  0  0  0  0  0  0  0  0  0
    2.7980   -1.1608   -0.4851 C   0  0  0  0  0  0  0  0  0  0  0  0
    5.0605   -2.1821   -0.5439 C   0  0  0  0  0  0  0  0  0  0  0  0
    1.8299   -6.8807   -0.7595 C   0  0  1  0  0  0  0  0  0  0  0  0
    2.7728   -2.7576    2.5394 C   0  0  0  0  0  0  0  0  0  0  0  0
    4.2179   -1.0069   -0.6792 C   0  0  0  0  0  0  0  0  0  0  0  0
    1.9660   -0.2134   -0.7380 C   0  0  0  0  0  0  0  0  0  0  0  0
    5.0230   -1.7659    2.1073 C   0  0  0  0  0  0  0  0  0  0  0  0
    1.4882   -7.9159   -1.9070 C   0  0  0  0  0  0  0  0  0  0  0  0
    6.3035   -2.6738    1.7120 C   0  0  0  0  0  0  0  0  0  0  0  0
    1.4160   -7.6359    0.5672 C   0  0  0  0  0  0  0  0  0  0  0  0
    4.8546    0.2317   -0.6460 C   0  0  0  0  0  0  0  0  0  0  0  0
    2.5730    1.0811   -0.5387 C   0  0  0  0  0  0  0  0  0  0  0  0
    6.5713   -3.8756    0.5493 C   0  0  0  0  0  0  0  0  0  0  0  0
    6.2530   -4.2016    1.9650 C   0  0  0  0  0  0  0  0  0  0  0  0
    1.4053   -4.8683   -4.4114 C   0  0  0  0  0  0  0  0  0  0  0  0
    4.0258    1.2578   -0.4242 C   0  0  0  0  0  0  0  0  0  0  0  0
    0.1340   -8.6216   -1.7839 C   0  0  0  0  0  0  0  0  0  0  0  0
    1.3178   -7.2726   -3.2220 C   0  0  0  0  0  0  0  0  0  0  0  0
    2.7040   -8.8404   -2.1856 C   0  0  0  0  0  0  0  0  0  0  0  0
  1 21  1  0
  2 30  1  0
  4 27  1  0
  5 19  1  0
  5 22  1  0
  6  7  1  0
  6 11  1  1
  6 12  1  0
  6 13  1  0
  7  9  1  0
  7 15  1  1
  7 16  1  0
  8  2  1  1
  8  9  1  0
  8 10  1  0
  8 14  1  0
  9  1  1  6
 10 11  1  1
 10 18  1  0
 12  5  1  0
 12 17  1  6
 13 14  1  0
 15 19  1  0
 16 20  1  0
 16 21  2  0
 17 20  1  0
 18 25  1  1
 18 23  1  0
 18  3  1  0
 20 26  2  0
 21 27  1  0
 22 24  1  0
 23 32  1  0
 23 33  1  0
 23 34  1  0
 24 28  1  0
 24 29  1  0
 26 31  1  0
 27 31  2  0
 28 29  1  0
M  END
>  <DRUGBANK_ID>  (1) 
DB00921

>  <SECONDARY_ACCESSION_NUMBERS>  (1) 
APRD00670

>  <COMMON_NAME>  (1) 
Buprenorphine

>  <CAS_NUMBER>  (1) 
52485-79-7

>  <UNII>  (1) 
40D3SCR4GZ

>  <SYNONYMS>  (1) 
(−)-buprenorphine; 17-cyclopropylmethyl-4,5α-epoxy-7α-((S)-1-hydroxy-1,2,2-trimethylpropyl)-6-methoxy-6,14-endo-ethanomorphinan-3-ol; 2-(N-cyclopropylmethyl-4,5α-epoxy-3-hydroxy-6-methoxy-6,14-endo-ethanomorphinan-6α-yl)-3,3-dimethyl-2-butanol; 2-[3-cyclopropylmethyl-11-hydroxy-15-methoxy-(14R)-13-oxa-3-azahexacyclo[13.2.2.12,8.01,6.06,14.07,12]icosa-7,9,11-trien-16-yl]-3,3-dimethyl-2-butanol; 21-cyclopropyl-7α-[(S)-1-hydroxy-1,2,2-trimethylpropyl]-6,14-endo-ethano-6,7,8,14-tetrahydrooripavine; Buprenophine; Buprenorfina; Buprenorphine; Buprenorphinum

$$$$
