1333
     RDKit          3D

 24 26  0  0  1  0  0  0  0  0999 V2000
   -3.1282   -0.3988   -6.6493 S   0  0  0  0  0  0  0  0  0  0  0  0
   -1.5965   -1.5914   -2.8316 O   0  0  0  0  0  0  0  0  0  0  0  0
   -2.4584    3.5026   -2.9453 O   0  0  0  0  0  0  0  0  0  0  0  0
   -2.8347   -4.2413   -2.8442 O   0  0  0  0  0  0  0  0  0  0  0  0
   -2.8298   -5.4776   -4.6695 O   0  0  0  0  0  0  0  0  0  0  0  0
   -3.2301   -1.8507   -4.4540 N   0  0  0  0  0  0  0  0  0  0  0  0
   -2.7351    1.4566   -3.8120 N   0  0  0  0  0  0  0  0  0  0  0  0
   -3.8392    2.7888   -0.4855 N   0  0  0  0  0  0  0  0  0  0  0  0
   -3.8435   -0.6640   -5.0594 C   0  0  1  0  0  0  0  0  0  0  0  0
   -3.3217    0.1200   -3.8881 C   0  0  1  0  0  0  0  0  0  0  0  0
   -2.4571   -1.1760   -3.5934 C   0  0  0  0  0  0  0  0  0  0  0  0
   -3.2702   -3.1041   -4.9951 C   0  0  0  0  0  0  0  0  0  0  0  0
   -3.8323   -1.9642   -7.2157 C   0  0  0  0  0  0  0  0  0  0  0  0
   -3.6250   -3.1749   -6.3032 C   0  0  0  0  0  0  0  0  0  0  0  0
   -3.0870    2.4375   -2.8930 C   0  0  0  0  0  0  0  0  0  0  0  0
   -4.2739    2.2496   -1.7930 C   0  0  1  0  0  0  0  0  0  0  0  0
   -3.8210   -4.4342   -7.1022 C   0  0  0  0  0  0  0  0  0  0  0  0
   -2.9327   -4.3597   -4.1844 C   0  0  0  0  0  0  0  0  0  0  0  0
   -4.8119    0.8615   -1.5001 C   0  0  0  0  0  0  0  0  0  0  0  0
   -6.2773    0.6046   -1.8111 C   0  0  0  0  0  0  0  0  0  0  0  0
   -3.9642   -0.1484   -1.1927 C   0  0  0  0  0  0  0  0  0  0  0  0
   -4.3440   -1.5971   -1.2852 C   0  0  0  0  0  0  0  0  0  0  0  0
   -6.6274   -0.8595   -1.9171 C   0  0  0  0  0  0  0  0  0  0  0  0
   -5.7528   -1.8469   -1.6847 C   0  0  0  0  0  0  0  0  0  0  0  0
  9  1  1  6
  1 13  1  0
  2 11  2  0
  3 15  2  0
  4 18  1  0
  5 18  2  0
  6  9  1  0
  6 11  1  0
  6 12  1  0
  7 15  1  0
  9 10  1  0
 10  7  1  6
 10 11  1  0
 12 14  2  0
 12 18  1  0
 13 14  1  0
 14 17  1  0
 16 19  1  0
 16 15  1  0
 16  8  1  1
 19 20  1  0
 19 21  2  0
 20 23  1  0
 21 22  1  0
 22 24  1  0
 23 24  2  0
M  END
>  <DRUGBANK_ID>  (1) 
DB01333

>  <COMMON_NAME>  (1) 
Cefradine

>  <CAS_NUMBER>  (1) 
38821-53-3

>  <UNII>  (1) 
9YA6SX5S4D

>  <SYNONYMS>  (1) 
(6R,7R)-7-((R)-2-Amino-2-(1,4-cyclohexadien-1-yl)acetamido)-3-methyl-8-oxo-5-thia-1-azabicyclo(4.2.0)oct-2-ene-2-carboxylic acid; (6R,7R)-7-{[(2R)-2-amino-2-cyclohexa-1,4-dien-1-ylacetyl]amino}-3-methyl-8-oxo-5-thia-1-azabicyclo[4.2.0]oct-2-ene-2-carboxylic acid; 7-(D-2-Amino-2-(1,4-cyclohexadienyl)acetamide)desacetoxycephalosporanicacid; CED; Cefradina; Cefradine; Cefradinum; Cephradin; Cephradine

$$$$
