1594
     RDKit          3D

 25 27  0  0  1  0  0  0  0  0999 V2000
    1.0192   -0.0786    0.0575 Cl  0  0  0  0  0  0  0  0  0  0  0  0
    5.0773    1.7459    2.9858 F   0  0  0  0  0  0  0  0  0  0  0  0
    6.3522    1.5006   -2.4076 O   0  0  0  0  0  0  0  0  0  0  0  0
    8.9788    0.9559   -0.1304 O   0  0  0  0  0  0  0  0  0  0  0  0
    6.9755   -0.1564    0.0511 N   0  0  0  0  0  0  0  0  0  0  0  0
    6.4644    2.8897   -0.4007 N   0  0  0  0  0  0  0  0  0  0  0  0
   10.5258   -1.0925   -1.4223 N   0  0  0  0  0  0  0  0  0  0  0  0
    5.5524   -0.0889    0.0846 C   0  0  0  0  0  0  0  0  0  0  0  0
    4.8358    1.1217    0.2007 C   0  0  0  0  0  0  0  0  0  0  0  0
    7.6586   -1.2643    0.7364 C   0  0  0  0  0  0  0  0  0  0  0  0
    5.4781    2.4689    0.3130 C   0  0  0  0  0  0  0  0  0  0  0  0
    7.7835    0.8829   -0.4204 C   0  0  0  0  0  0  0  0  0  0  0  0
    7.1202    1.9597   -1.3118 C   0  0  0  0  0  0  0  0  0  0  0  0
    4.8206   -1.2843   -0.0368 C   0  0  0  0  0  0  0  0  0  0  0  0
    3.4294    1.1119    0.1870 C   0  0  0  0  0  0  0  0  0  0  0  0
    4.9096    3.4148    1.3029 C   0  0  0  0  0  0  0  0  0  0  0  0
    8.4608   -2.1746   -0.2005 C   0  0  0  0  0  0  0  0  0  0  0  0
    3.4250   -1.2841   -0.0485 C   0  0  0  0  0  0  0  0  0  0  0  0
    2.7361   -0.0859    0.0696 C   0  0  0  0  0  0  0  0  0  0  0  0
    4.7094    2.9801    2.6111 C   0  0  0  0  0  0  0  0  0  0  0  0
    4.5510    4.7139    0.9302 C   0  0  0  0  0  0  0  0  0  0  0  0
    4.1175    3.8166    3.5453 C   0  0  0  0  0  0  0  0  0  0  0  0
    4.0802    5.5958    1.9054 C   0  0  0  0  0  0  0  0  0  0  0  0
    3.8617    5.1455    3.2102 C   0  0  0  0  0  0  0  0  0  0  0  0
    9.6157   -1.5499   -0.8571 C   0  0  0  0  0  0  0  0  0  0  0  0
  1 19  1  0
  2 20  1  0
  3 13  1  0
  4 12  2  0
  5  8  1  0
  5 10  1  0
  5 12  1  0
  6 11  2  0
  6 13  1  0
  7 25  3  0
  8  9  2  0
  8 14  1  0
  9 11  1  0
  9 15  1  0
 10 17  1  0
 11 16  1  0
 12 13  1  0
 14 18  2  0
 15 19  2  0
 16 20  2  0
 16 21  1  0
 17 25  1  0
 18 19  1  0
 20 22  1  0
 21 23  2  0
 22 24  2  0
 23 24  1  0
M  END
>  <DRUGBANK_ID>  (1) 
DB01594

>  <COMMON_NAME>  (1) 
Cinolazepam

>  <CAS_NUMBER>  (1) 
75696-02-5

>  <UNII>  (1) 
68P0556B0U

>  <SYNONYMS>  (1) 
1-(2-cyanoethyl)-7-chloro-3-hydroxy-5-(2'-fluorophenyl)-1,3-dihydro-2H-1,4-benzodiazepin-2-one; 7-chloro-5-(2-fluorophenyl)-2,3-dihydro-3-hydroxy-2-oxo-1H-1,4-benzodiazepine-1-propanenitrile; 7-chloro-5-(o-fluorophenyl)-2,3-dihydro-3-hydroxy-2-oxo-1H-1,4-benzodiazepine-1-propionitrile; Cinolazepam; Cinolazepamum

$$$$
