7X5
     RDKit          3D

 28 31  0  0  0  0  0  0  0  0999 V2000
    0.7948   -0.0594   -0.0160 N   0  0  0  0  0  0  0  0  0  0  0  0
    0.1758   -0.9325    0.8599 C   0  0  0  0  0  0  0  0  0  0  0  0
   -0.8307   -1.6708    0.3769 N   0  0  0  0  0  0  0  0  0  0  0  0
   -1.3804   -2.5578    1.2079 C   0  0  0  0  0  0  0  0  0  0  0  0
   -1.0285   -2.6670    2.5283 C   0  0  0  0  0  0  0  0  0  0  0  0
   -0.0110   -1.8432    2.9652 C   0  0  0  0  0  0  0  0  0  0  0  0
    0.2663   -1.7857    4.3492 N   0  0  0  0  0  0  0  0  0  0  0  0
    1.2518   -0.9653    4.9326 C   0  0  0  0  0  0  0  0  0  0  0  0
    2.4006   -1.4976    5.5136 C   0  0  0  0  0  0  0  0  0  0  0  0
    2.6942   -2.8243    5.6726 O   0  0  0  0  0  0  0  0  0  0  0  0
    3.9205   -2.7463    6.4344 C   0  0  0  0  0  0  0  0  0  0  0  0
    4.4498   -1.4100    6.5197 O   0  0  0  0  0  0  0  0  0  0  0  0
    3.4128   -0.6952    6.0037 C   0  0  0  0  0  0  0  0  0  0  0  0
    3.3455    0.6805    5.9583 C   0  0  0  0  0  0  0  0  0  0  0  0
    2.1976    1.2529    5.4105 C   0  0  0  0  0  0  0  0  0  0  0  0
    1.1688    0.4429    4.8955 C   0  0  0  0  0  0  0  0  0  0  0  0
   -0.2554    1.2490    4.3181 Cl  0  0  0  0  0  0  0  0  0  0  0  0
    0.6394   -1.0262    2.1117 N   0  0  0  0  0  0  0  0  0  0  0  0
   -4.1017    2.8441   -0.5911 C   0  0  0  0  0  0  0  0  0  0  0  0
   -2.6273    3.7114   -1.0392 S   0  0  0  0  0  0  0  0  0  0  0  0
   -2.0978    4.3477    0.1458 O   0  0  0  0  0  0  0  0  0  0  0  0
   -2.9505    4.5059   -2.2181 O   0  0  0  0  0  0  0  0  0  0  0  0
   -1.4451    2.4776   -1.5446 C   0  0  0  0  0  0  0  0  0  0  0  0
   -0.9017    2.5462   -2.8303 C   0  0  0  0  0  0  0  0  0  0  0  0
    0.1463    1.6999   -3.1883 C   0  0  0  0  0  0  0  0  0  0  0  0
    0.6838    0.8222   -2.2501 C   0  0  0  0  0  0  0  0  0  0  0  0
    0.1744    0.7722   -0.9503 C   0  0  0  0  0  0  0  0  0  0  0  0
   -0.9446    1.5573   -0.6171 C   0  0  0  0  0  0  0  0  0  0  0  0
  1  2  1  0
  1 27  1  0
  2  3  2  0
  2 18  1  0
  3  4  1  0
  4  5  2  0
  5  6  1  0
  6  7  1  0
  6 18  2  0
  7  8  1  0
  8  9  2  0
  8 16  1  0
  9 10  1  0
  9 13  1  0
 10 11  1  0
 11 12  1  0
 12 13  1  0
 13 14  2  0
 14 15  1  0
 15 16  2  0
 16 17  1  0
 19 20  1  0
 20 21  2  0
 20 22  2  0
 20 23  1  0
 23 24  2  0
 23 28  1  0
 24 25  1  0
 25 26  2  0
 26 27  1  0
 27 28  2  0
M  END
>  <DRUGBANK_ID>  (1) 
DB07253

>  <COMMON_NAME>  (1) 
N'-(5-chloro-1,3-benzodioxol-4-yl)-N-(3-methylsulfonylphenyl)pyrimidine-2,4-diamine

$$$$
