
     RDKit          3D

 12 12  0  0  1  0  0  0  0  0999 V2000
    0.8195   -0.1411    0.0722 C   0  0  0  0  0  0  0  0  0  0  0  0
    0.5444    0.0782   -1.4308 C   0  0  2  0  0  0  0  0  0  0  0  0
    2.7516    1.5336   -2.6780 C   0  0  2  0  0  0  0  0  0  0  0  0
    1.5460   -0.6643   -2.3484 C   0  0  2  0  0  0  0  0  0  0  0  0
    2.9162    0.0422   -2.3809 C   0  0  2  0  0  0  0  0  0  0  0  0
    1.7134    2.1596   -1.7370 C   0  0  1  0  0  0  0  0  0  0  0  0
    2.3452    1.6830   -3.9723 F   0  0  0  0  0  0  0  0  0  0  0  0
    0.2940   -1.3846    0.5207 O   0  0  0  0  0  0  0  0  0  0  0  0
    1.0554   -0.7708   -3.6925 O   0  0  0  0  0  0  0  0  0  0  0  0
    3.6415   -0.2067   -1.1684 O   0  0  0  0  0  0  0  0  0  0  0  0
    1.5017    3.5177   -2.0861 O   0  0  0  0  0  0  0  0  0  0  0  0
    0.4671    1.4763   -1.7693 O   0  0  0  0  0  0  0  0  0  0  0  0
  2  1  1  1
  3  7  1  6
  4  2  1  0
  4  9  1  6
  5  3  1  0
  5  4  1  0
  5 10  1  1
  6  3  1  0
  6 11  1  6
  8  1  1  0
 12  2  1  0
 12  6  1  0
M  END
>  <DRUGBANK_ID>  (1) 
DB04282

>  <SECONDARY_ACCESSION_NUMBERS>  (1) 
EXPT01525

>  <COMMON_NAME>  (1) 
2-deoxy-2-fluoro-Î±-D-glucose

>  <UNII>  (1) 
H0QPM375HE

>  <SYNONYMS>  (1) 
2-deoxy-2-fluoro-alpha-D-glucose; 2-DEOXY-2-FLUORO-GLUCOSE

$$$$
