1218
     RDKit          3D

 33 35  0  0  1  0  0  0  0  0999 V2000
    1.2335   -0.2342   -0.0937 Cl  0  0  0  0  0  0  0  0  0  0  0  0
    5.7732   -2.9782    0.0275 Cl  0  0  0  0  0  0  0  0  0  0  0  0
    9.6920    3.0721    1.0586 F   0  0  0  0  0  0  0  0  0  0  0  0
    9.9591    3.0862   -1.1048 F   0  0  0  0  0  0  0  0  0  0  0  0
    9.8298    4.9652   -0.0113 F   0  0  0  0  0  0  0  0  0  0  0  0
    1.6800    5.0578   -1.6511 O   0  0  0  0  0  0  0  0  0  0  0  0
    3.5564    6.2325    2.7196 N   0  0  0  0  0  0  0  0  0  0  0  0
    2.3880    5.3643    2.5681 C   0  0  0  0  0  0  0  0  0  0  0  0
    1.7208    5.4114    0.9677 C   0  0  0  0  0  0  0  0  0  0  0  0
    2.6865    4.9835   -0.6462 C   0  0  0  0  0  0  0  0  0  0  0  0
    4.4830    5.9623    3.8742 C   0  0  0  0  0  0  0  0  0  0  0  0
    4.2649    6.0755    1.4816 C   0  0  0  0  0  0  0  0  0  0  0  0
    3.7460    3.5428   -1.2430 C   0  0  0  0  0  0  0  0  0  0  0  0
    5.4876    4.7043    4.0462 C   0  0  0  0  0  0  0  0  0  0  0  0
    4.5094    4.5441    1.3177 C   0  0  0  0  0  0  0  0  0  0  0  0
    5.1389    3.5869   -1.1378 C   0  0  0  0  0  0  0  0  0  0  0  0
    5.8516    2.3139   -0.7232 C   0  0  0  0  0  0  0  0  0  0  0  0
    3.1734    2.1094   -1.2911 C   0  0  0  0  0  0  0  0  0  0  0  0
    5.1107    0.9949   -0.5147 C   0  0  0  0  0  0  0  0  0  0  0  0
    3.7909    0.9195   -0.6926 C   0  0  0  0  0  0  0  0  0  0  0  0
    6.7536    4.5499    3.0786 C   0  0  0  0  0  0  0  0  0  0  0  0
    3.8157    3.0740    1.5286 C   0  0  0  0  0  0  0  0  0  0  0  0
    5.8835    4.8233   -1.1246 C   0  0  0  0  0  0  0  0  0  0  0  0
    7.1617    2.4471   -0.3562 C   0  0  0  0  0  0  0  0  0  0  0  0
    7.8513    3.6826   -0.3394 C   0  0  0  0  0  0  0  0  0  0  0  0
    5.7251   -0.2716   -0.1072 C   0  0  0  0  0  0  0  0  0  0  0  0
    7.1865    4.8735   -0.6711 C   0  0  0  0  0  0  0  0  0  0  0  0
    2.9667   -0.2395   -0.2578 C   0  0  0  0  0  0  0  0  0  0  0  0
    7.4865    5.8359    2.7877 C   0  0  0  0  0  0  0  0  0  0  0  0
    2.4326    2.8342    0.9210 C   0  0  0  0  0  0  0  0  0  0  0  0
    4.9458   -1.4634    0.0187 C   0  0  0  0  0  0  0  0  0  0  0  0
    3.5850   -1.4607    0.0011 C   0  0  0  0  0  0  0  0  0  0  0  0
    9.3169    3.7091   -0.0815 C   0  0  0  0  0  0  0  0  0  0  0  0
  1 28  1  0
  2 31  1  0
  3 33  1  0
  4 33  1  0
  5 33  1  0
  6 10  1  0
  7  8  1  0
  7 11  1  0
  7 12  1  0
  8  9  1  0
  9 10  1  0
 10 13  1  0
 11 14  1  0
 12 15  1  0
 13 16  2  0
 13 18  1  0
 14 21  1  0
 15 22  1  0
 16 17  1  0
 16 23  1  0
 17 19  2  0
 17 24  1  0
 18 20  2  0
 19 20  1  0
 19 26  1  0
 20 28  1  0
 21 29  1  0
 22 30  1  0
 23 27  2  0
 24 25  2  0
 25 27  1  0
 25 33  1  0
 26 31  2  0
 28 32  2  0
 31 32  1  0
M  END
>  <DRUGBANK_ID>  (1) 
DB01218

>  <SECONDARY_ACCESSION_NUMBERS>  (1) 
APRD00419

>  <COMMON_NAME>  (1) 
Halofantrine

>  <CAS_NUMBER>  (1) 
69756-53-2

>  <UNII>  (1) 
Q2OS4303HZ

>  <SYNONYMS>  (1) 
Halofantrina; Halofantrine; Halofantrinum

$$$$
