
     RDKit          3D

 29 31  0  0  0  0  0  0  0  0999 V2000
    1.4666   -0.2067   -0.0603 C   0  0  0  0  0  0  0  0  0  0  0  0
   -5.3094   -5.1185    1.2666 C   0  0  0  0  0  0  0  0  0  0  0  0
    0.5880   -1.2915   -0.0925 C   0  0  0  0  0  0  0  0  0  0  0  0
    0.9884    1.1111   -0.0402 C   0  0  0  0  0  0  0  0  0  0  0  0
   -5.3262   -4.2411    2.5236 C   0  0  0  0  0  0  0  0  0  0  0  0
   -6.5969   -3.1027    4.9896 C   0  0  0  0  0  0  0  0  0  0  0  0
   -8.6356   -3.4195    3.6688 C   0  0  0  0  0  0  0  0  0  0  0  0
   -7.3263   -3.3167    6.1465 C   0  0  0  0  0  0  0  0  0  0  0  0
   -9.3472   -3.6685    4.8281 C   0  0  0  0  0  0  0  0  0  0  0  0
   -1.8874   -3.3052   -0.9650 C   0  0  0  0  0  0  0  0  0  0  0  0
   -3.1461   -1.4946    0.1950 C   0  0  0  0  0  0  0  0  0  0  0  0
   -5.4250   -4.4278   -0.1112 C   0  0  0  0  0  0  0  0  0  0  0  0
   -3.0494   -4.2568   -0.6218 C   0  0  0  0  0  0  0  0  0  0  0  0
   -4.2220   -2.4507    0.4709 C   0  0  0  0  0  0  0  0  0  0  0  0
   -1.2240    0.2812   -0.1530 C   0  0  0  0  0  0  0  0  0  0  0  0
   -7.2606   -3.2109    3.7716 C   0  0  0  0  0  0  0  0  0  0  0  0
   -0.7827   -1.0607   -0.1468 C   0  0  0  0  0  0  0  0  0  0  0  0
   -0.3758    1.3597   -0.0010 C   0  0  0  0  0  0  0  0  0  0  0  0
   -8.6856   -3.6188    6.0533 C   0  0  0  0  0  0  0  0  0  0  0  0
   -6.5040   -3.2679    2.5338 C   0  0  0  0  0  0  0  0  0  0  0  0
   -1.7857   -2.1773    0.0780 C   0  0  0  0  0  0  0  0  0  0  0  0
   -0.9795    2.6994    0.3252 C   0  0  0  0  0  0  0  0  0  0  0  0
   -9.3757   -3.8569    7.1735 F   0  0  0  0  0  0  0  0  0  0  0  0
   -0.5235    3.1897    1.5111 F   0  0  0  0  0  0  0  0  0  0  0  0
   -0.7177    3.6418   -0.6142 F   0  0  0  0  0  0  0  0  0  0  0  0
   -2.3418    2.6721    0.4553 F   0  0  0  0  0  0  0  0  0  0  0  0
   -4.3169   -3.5378   -0.4793 N   0  0  0  0  0  0  0  0  0  0  0  0
   -6.9198   -2.6001    1.6109 O   0  0  0  0  0  0  0  0  0  0  0  0
   -1.3879   -2.7302    1.3526 O   0  0  0  0  0  0  0  0  0  0  0  0
  3  1  2  0
  4  1  1  0
  5  2  1  0
  8  6  2  0
  9  7  1  0
 12  2  1  0
 13 10  1  0
 14 11  1  0
 16  6  1  0
 16  7  2  0
 17  3  1  0
 17 15  2  0
 18  4  2  0
 18 15  1  0
 19  8  1  0
 19  9  2  0
 20  5  1  0
 20 16  1  0
 21 10  1  0
 21 11  1  0
 21 17  1  0
 22 18  1  0
 23 19  1  0
 24 22  1  0
 25 22  1  0
 26 22  1  0
 27 12  1  0
 27 13  1  0
 27 14  1  0
 28 20  2  0
 29 21  1  0
M  END
>  <DRUGBANK_ID>  (1) 
DB13552

>  <COMMON_NAME>  (1) 
Trifluperidol

>  <CAS_NUMBER>  (1) 
749-13-3

>  <UNII>  (1) 
R8869Q7R8I

>  <SYNONYMS>  (1) 
Trifluperidol

$$$$
