
     RDKit          3D

 34 37  0  0  1  0  0  0  0  0999 V2000
   -0.0316    7.6787   -2.7324 C   0  0  0  0  0  0  0  0  0  0  0  0
    0.9962    7.1949   -1.7412 C   0  0  0  0  0  0  0  0  0  0  0  0
    0.6026    6.9974   -0.4695 N   0  0  0  0  0  0  0  0  0  0  0  0
    1.5630    6.6386    0.4149 C   0  0  0  0  0  0  0  0  0  0  0  0
    2.8596    6.3975    0.0470 C   0  0  0  0  0  0  0  0  0  0  0  0
    3.1860    6.5861   -1.2742 C   0  0  0  0  0  0  0  0  0  0  0  0
    2.2672    7.0337   -2.1655 N   0  0  0  0  0  0  0  0  0  0  0  0
    4.4777    6.3592   -1.6965 N   0  0  0  0  0  0  0  0  0  0  0  0
    5.2132    7.4769   -2.2579 C   0  0  0  0  0  0  0  0  0  0  0  0
    6.7228    7.4618   -1.9199 C   0  0  0  0  0  0  0  0  0  0  0  0
    7.2497    6.4580   -1.0297 N   0  0  0  0  0  0  0  0  0  0  0  0
    8.5986    6.6155   -0.5327 C   0  0  0  0  0  0  0  0  0  0  0  0
    9.3408    5.2776   -0.4488 C   0  0  0  0  0  0  0  0  0  0  0  0
    8.5482    4.2583    0.1747 O   0  0  0  0  0  0  0  0  0  0  0  0
    7.3224    4.0602   -0.5518 C   0  0  0  0  0  0  0  0  0  0  0  0
    6.4489    5.3359   -0.5602 C   0  0  2  0  0  0  0  0  0  0  0  0
    5.1877    5.1105   -1.4291 C   0  0  0  0  0  0  0  0  0  0  0  0
    3.7792    6.0228    0.9514 F   0  0  0  0  0  0  0  0  0  0  0  0
    1.1420    6.6065    1.7585 N   0  0  0  0  0  0  0  0  0  0  0  0
    1.9051    5.8726    2.6830 N   0  0  0  0  0  0  0  0  0  0  0  0
    1.5781    5.7339    4.0099 C   0  0  0  0  0  0  0  0  0  0  0  0
    2.4902    5.4823    4.8071 O   0  0  0  0  0  0  0  0  0  0  0  0
    0.1548    5.9397    4.5248 C   0  0  2  0  0  0  0  0  0  0  0  0
   -0.1861    4.8480    5.5611 C   0  0  0  0  0  0  0  0  0  0  0  0
   -0.6717    5.3762    6.9225 C   0  0  0  0  0  0  0  0  0  0  0  0
   -0.6704    6.8948    7.1054 C   0  0  0  0  0  0  0  0  0  0  0  0
   -0.5960    7.1549    8.5925 C   0  0  0  0  0  0  0  0  0  0  0  0
   -0.1063    5.8522    9.2117 C   0  0  0  0  0  0  0  0  0  0  0  0
    0.2431    4.9236    8.0554 C   0  0  0  0  0  0  0  0  0  0  0  0
   -0.9362    6.0910    3.4910 C   0  0  0  0  0  0  0  0  0  0  0  0
   -2.2581    6.4019    3.9684 N   0  0  0  0  0  0  0  0  0  0  0  0
   -3.0088    7.4620    3.5278 C   0  0  0  0  0  0  0  0  0  0  0  0
   -4.1797    7.6383    3.8103 O   0  0  0  0  0  0  0  0  0  0  0  0
   -2.9438    5.3331    4.5675 O   0  0  0  0  0  0  0  0  0  0  0  0
  1  2  1  0
  2  3  2  0
  2  7  1  0
  3  4  1  0
  4  5  2  0
  4 19  1  0
  5  6  1  0
  5 18  1  0
  6  7  2  0
  6  8  1  0
  8  9  1  0
  8 17  1  0
  9 10  1  0
 10 11  1  0
 11 12  1  0
 12 13  1  0
 13 14  1  0
 14 15  1  0
 16 15  1  6
 16 11  1  0
 16 17  1  0
 19 20  1  0
 20 21  1  0
 21 22  2  0
 23 30  1  6
 23 24  1  0
 23 21  1  0
 24 25  1  0
 25 26  1  0
 25 29  1  0
 26 27  1  0
 27 28  1  0
 28 29  1  0
 30 31  1  0
 31 32  1  0
 31 34  1  0
 32 33  2  0
M  END
>  <DRUGBANK_ID>  (1) 
DB11912

>  <COMMON_NAME>  (1) 
Lanopepden

>  <CAS_NUMBER>  (1) 
1152107-25-9

>  <UNII>  (1) 
12M6KFD07E

>  <SYNONYMS>  (1) 
Lanopepden

$$$$
