
     RDKit          3D

 20 21  0  0  0  0  0  0  0  0999 V2000
    0.9097   -0.0322    0.0285 P   0  0  0  0  0  0  0  0  0  0  0  0
   -1.3886   -0.9545   -3.2885 O   0  0  0  0  0  0  0  0  0  0  0  0
   -2.0344    2.0684   -2.1845 O   0  0  0  0  0  0  0  0  0  0  0  0
    0.8402   -1.0584   -1.2064 O   0  0  0  0  0  0  0  0  0  0  0  0
    0.8131   -0.9387    1.3668 O   0  0  0  0  0  0  0  0  0  0  0  0
   -0.8203   -0.0322    0.0285 O   0  0  0  0  0  0  0  0  0  0  0  0
   -1.9465   -6.2112    0.6831 O   0  0  0  0  0  0  0  0  0  0  0  0
    2.4581   -0.0322    0.0285 O   0  0  0  0  0  0  0  0  0  0  0  0
   -3.0836   -4.6064   -0.4809 N   0  0  0  0  0  0  0  0  0  0  0  0
   -1.3296    0.8987   -1.8081 C   0  0  2  0  0  0  0  0  0  0  0  0
   -0.5414    0.1550   -2.8822 C   0  0  1  0  0  0  0  0  0  0  0  0
   -2.3836   -0.2164   -1.2688 C   0  0  0  0  0  0  0  0  0  0  0  0
   -2.3058   -1.3361   -2.2525 C   0  0  2  0  0  0  0  0  0  0  0  0
    0.8306   -0.4745   -2.5000 C   0  0  0  0  0  0  0  0  0  0  0  0
   -2.0473   -2.7565   -1.5582 C   0  0  0  0  0  0  0  0  0  0  0  0
   -0.7935   -3.2963   -0.9820 C   0  0  0  0  0  0  0  0  0  0  0  0
   -3.1470   -3.4311   -1.1864 C   0  0  0  0  0  0  0  0  0  0  0  0
   -0.7121   -4.3413   -0.1268 C   0  0  0  0  0  0  0  0  0  0  0  0
   -1.9456   -5.1252    0.0654 C   0  0  0  0  0  0  0  0  0  0  0  0
    0.5365   -4.7995    0.5877 C   0  0  0  0  0  0  0  0  0  0  0  0
  1  4  1  0
  1  5  1  0
  1  6  1  0
  1  8  2  0
  2 11  1  0
  2 13  1  0
  4 14  1  0
  7 19  2  0
  9 17  1  0
  9 19  1  0
 10  3  1  6
 10 11  1  0
 10 12  1  0
 11 14  1  1
 12 13  1  0
 13 15  1  1
 15 16  1  0
 15 17  2  0
 16 18  2  0
 18 19  1  0
 18 20  1  0
M  END
>  <DRUGBANK_ID>  (1) 
DB04060

>  <SECONDARY_ACCESSION_NUMBERS>  (1) 
EXPT02250

>  <COMMON_NAME>  (1) 
(5-methyl-6-oxo-1,6-dihydro-pyridin-3-yl)-1,2-dideoxy-ribofuranose-5-monophosphate

$$$$
