34154
     RDKit          3D

 17 18  0  0  0  0  0  0  0  0999 V2000
    1.0340   -0.1019   -0.0318 O   0  0  0  0  0  0  0  0  0  0  0  0
    3.9167    1.5817   -1.4380 N   0  0  0  0  0  0  0  0  0  0  0  0
    2.2998    2.3843   -0.0620 N   0  0  0  0  0  0  0  0  0  0  0  0
    1.9581   -1.4866    2.4832 C   0  0  0  0  0  0  0  0  0  0  0  0
    0.8098   -1.9223    1.6035 C   0  0  0  0  0  0  0  0  0  0  0  0
    0.4476   -1.2507    0.4270 C   0  0  0  0  0  0  0  0  0  0  0  0
    2.8642    1.3235   -0.6043 C   0  0  0  0  0  0  0  0  0  0  0  0
    1.5732   -1.1894    3.9234 C   0  0  0  0  0  0  0  0  0  0  0  0
    3.0969   -2.5008    2.3501 C   0  0  0  0  0  0  0  0  0  0  0  0
    4.2606    2.9741   -1.3399 C   0  0  0  0  0  0  0  0  0  0  0  0
    0.0738   -3.0632    1.9830 C   0  0  0  0  0  0  0  0  0  0  0  0
    2.4445   -0.0866   -0.2418 C   0  0  0  0  0  0  0  0  0  0  0  0
    2.9557    3.5256   -0.7567 C   0  0  0  0  0  0  0  0  0  0  0  0
   -0.6916   -1.6731   -0.2850 C   0  0  0  0  0  0  0  0  0  0  0  0
   -1.4237   -2.8060    0.1093 C   0  0  0  0  0  0  0  0  0  0  0  0
   -1.0232   -3.5024    1.2479 C   0  0  0  0  0  0  0  0  0  0  0  0
   -2.6166   -3.2959   -0.6575 C   0  0  0  0  0  0  0  0  0  0  0  0
  1  6  1  0
  1 12  1  0
  2  7  1  0
  2 10  1  0
  3  7  2  0
  3 13  1  0
  4  5  1  0
  4  8  1  0
  4  9  1  0
  5  6  2  0
  5 11  1  0
  6 14  1  0
  7 12  1  0
 10 13  1  0
 11 16  2  0
 14 15  2  0
 15 16  1  0
 15 17  1  0
M  END
>  <DRUGBANK_ID>  (1) 
DB08803

>  <COMMON_NAME>  (1) 
Tymazoline

>  <CAS_NUMBER>  (1) 
24243-97-8

>  <UNII>  (1) 
U993RH5585

>  <SYNONYMS>  (1) 
Tymazoline

$$$$
