
     RDKit          3D

 35 39  0  0  0  0  0  0  0  0999 V2000
    0.9309    1.4530   -2.2409 C   0  0  0  0  0  0  0  0  0  0  0  0
    2.2688    2.7354   -3.3636 C   0  0  0  0  0  0  0  0  0  0  0  0
    6.1615    3.8762   -5.4289 C   0  0  0  0  0  0  0  0  0  0  0  0
    4.9042    4.7354   -4.9637 C   0  0  0  0  0  0  0  0  0  0  0  0
    3.6770    4.0062   -3.6860 O   0  0  0  0  0  0  0  0  0  0  0  0
    6.2644    1.1517   -7.2731 O   0  0  0  0  0  0  0  0  0  0  0  0
    7.2281    2.1048   -6.7813 C   0  0  0  0  0  0  0  0  0  0  0  0
    6.5536    3.4659   -6.6694 C   0  0  0  0  0  0  0  0  0  0  0  0
    5.1055    1.0739   -6.4275 C   0  0  0  0  0  0  0  0  0  0  0  0
    5.3001    1.0400   -2.5743 C   0  0  0  0  0  0  0  0  0  0  0  0
    5.2017    1.4686   -3.9022 C   0  0  0  0  0  0  0  0  0  0  0  0
    5.4535    0.6557   -5.0189 C   0  0  0  0  0  0  0  0  0  0  0  0
    6.0869   -0.5482   -4.7985 C   0  0  0  0  0  0  0  0  0  0  0  0
    6.4453   -0.8947   -3.5025 C   0  0  0  0  0  0  0  0  0  0  0  0
    5.9706   -0.1607   -2.4060 C   0  0  0  0  0  0  0  0  0  0  0  0
    3.4327    1.9641   -1.3107 N   0  0  0  0  0  0  0  0  0  0  0  0
    4.7553    1.7974   -1.4202 C   0  0  0  0  0  0  0  0  0  0  0  0
    5.5297    2.2881   -0.4141 C   0  0  0  0  0  0  0  0  0  0  0  0
    4.9571    3.2617    0.3697 C   0  0  0  0  0  0  0  0  0  0  0  0
    3.6666    3.4877    0.4786 N   0  0  0  0  0  0  0  0  0  0  0  0
    2.9375    2.7487   -0.3015 C   0  0  0  0  0  0  0  0  0  0  0  0
    0.1679    1.7715   -1.1701 C   0  0  0  0  0  0  0  0  0  0  0  0
    0.9596    1.4625   -0.0178 C   0  0  0  0  0  0  0  0  0  0  0  0
    1.5678    0.2250    0.2740 C   0  0  0  0  0  0  0  0  0  0  0  0
    1.0418   -0.7756   -0.4217 C   0  0  0  0  0  0  0  0  0  0  0  0
    0.6163   -0.2678   -1.7855 C   0  0  0  0  0  0  0  0  0  0  0  0
    1.6572    2.6669    0.2157 N   0  0  0  0  0  0  0  0  0  0  0  0
   -0.7203   -1.3185   -1.0500 O   0  0  0  0  0  0  0  0  0  0  0  0
   -2.2635   -2.1745   -0.6167 C   0  0  0  0  0  0  0  0  0  0  0  0
   -3.1600   -1.8264    0.7909 C   0  0  0  0  0  0  0  0  0  0  0  0
   -2.9594   -0.4387    0.9380 N   0  0  0  0  0  0  0  0  0  0  0  0
   -2.9788    0.3753    2.1034 C   0  0  0  0  0  0  0  0  0  0  0  0
   -3.5910    1.6421    1.5065 C   0  0  0  0  0  0  0  0  0  0  0  0
   -3.0987    1.7178    0.0790 C   0  0  0  0  0  0  0  0  0  0  0  0
   -2.8524    0.3024   -0.2861 C   0  0  0  0  0  0  0  0  0  0  0  0
  1  2  1  0
  1 22  1  0
  1 26  2  0
  2  5  1  0
  3  4  1  0
  3  8  2  0
  4  5  1  0
  6  7  1  0
  6  9  1  0
  7  8  1  0
  9 12  1  0
 10 11  1  0
 10 17  1  0
 10 15  2  0
 11 12  2  0
 12 13  1  0
 13 14  2  0
 14 15  1  0
 16 21  1  0
 16 17  2  0
 17 18  1  0
 18 19  2  0
 19 20  1  0
 20 21  2  0
 21 27  1  0
 22 23  2  0
 23 24  1  0
 23 27  1  0
 24 25  2  0
 25 26  1  0
 26 28  1  0
 28 29  1  0
 29 30  1  0
 30 31  1  0
 31 32  1  0
 31 35  1  0
 32 33  1  0
 33 34  1  0
 34 35  1  0
M  END
>  <DRUGBANK_ID>  (1) 
DB11697

>  <COMMON_NAME>  (1) 
Pacritinib

>  <CAS_NUMBER>  (1) 
937272-79-2

>  <UNII>  (1) 
G22N65IL3O

>  <SYNONYMS>  (1) 
Pacritinib; Pacritinibum

$$$$
