993
     RDKit          3D

 19 21  0  0  0  0  0  0  0  0999 V2000
    0.9815    0.1437    0.2102 S   0  0  0  0  0  0  0  0  0  0  0  0
   -0.6723   -0.3173   -2.3993 O   0  0  0  0  0  0  0  0  0  0  0  0
   -1.6400   -2.2304   -2.8787 O   0  0  0  0  0  0  0  0  0  0  0  0
    0.6591   -2.4941    0.9188 N   0  0  0  0  0  0  0  0  0  0  0  0
    3.1989    2.5866    0.0230 N   0  0  0  0  0  0  0  0  0  0  0  0
   -0.6176   -3.4185   -0.6508 N   0  0  0  0  0  0  0  0  0  0  0  0
    3.4226   -1.0885   -0.0023 N   0  0  0  0  0  0  0  0  0  0  0  0
    5.4141    2.4435    0.0094 N   0  0  0  0  0  0  0  0  0  0  0  0
   -0.9265   -1.5109   -2.1691 N   0  0  0  0  0  0  0  0  0  0  0  0
    5.5595    0.0407    0.0023 N   0  0  0  0  0  0  0  0  0  0  0  0
    0.4575   -1.5022   -0.0173 C   0  0  0  0  0  0  0  0  0  0  0  0
    3.4839    1.2459    0.0201 C   0  0  0  0  0  0  0  0  0  0  0  0
    2.7408    0.0775    0.0325 C   0  0  0  0  0  0  0  0  0  0  0  0
   -0.3453   -2.0977   -0.9777 C   0  0  0  0  0  0  0  0  0  0  0  0
    0.0082   -3.6220    0.4863 C   0  0  0  0  0  0  0  0  0  0  0  0
    4.8658    1.1903    0.0083 C   0  0  0  0  0  0  0  0  0  0  0  0
    1.3630   -2.3964    2.1750 C   0  0  0  0  0  0  0  0  0  0  0  0
    4.3882    3.2641   -0.0015 C   0  0  0  0  0  0  0  0  0  0  0  0
    4.7725   -1.0394   -0.0198 C   0  0  0  0  0  0  0  0  0  0  0  0
  1 11  1  0
  1 13  1  0
  2  9  1  0
  3  9  2  0
  4 11  1  0
  4 15  1  0
  4 17  1  0
  5 12  1  0
  5 18  1  0
  6 14  1  0
  6 15  2  0
  7 13  1  0
  7 19  2  0
  8 16  1  0
  8 18  2  0
  9 14  1  0
 10 16  2  0
 10 19  1  0
 11 14  2  0
 12 13  2  0
 12 16  1  0
M  CHG  2   2  -1   9   1
M  END
>  <DRUGBANK_ID>  (1) 
DB00993

>  <SECONDARY_ACCESSION_NUMBERS>  (1) 
APRD00811

>  <COMMON_NAME>  (1) 
Azathioprine

>  <CAS_NUMBER>  (1) 
446-86-6

>  <UNII>  (1) 
MRK240IY2L

>  <SYNONYMS>  (1) 
6-((1-Methyl-4-nitro-1H-imidazol-5-yl)thio)-1H-purine; 6-(1'-Methyl-4'-nitro-5'-imidazolyl)-mercaptopurine; Azamun; Azathioprine; Azathioprinum; Azatioprina

$$$$
