
     RDKit          3D

 33 36  0  0  0  0  0  0  0  0999 V2000
    1.2886    5.5675    0.0010 C   0  0  0  0  0  0  0  0  0  0  0  0
    2.0938    5.3861    1.1199 C   0  0  0  0  0  0  0  0  0  0  0  0
    2.0300    4.1851    1.8381 C   0  0  0  0  0  0  0  0  0  0  0  0
    1.1052    3.2133    1.4928 C   0  0  0  0  0  0  0  0  0  0  0  0
    0.2282    3.4417    0.4291 C   0  0  0  0  0  0  0  0  0  0  0  0
    0.4377    4.5575   -0.3919 C   0  0  0  0  0  0  0  0  0  0  0  0
   -1.0368    2.6021    0.3283 C   0  0  1  0  0  0  0  0  0  0  0  0
   -1.7856    2.6492    1.6867 C   0  0  0  0  0  0  0  0  0  0  0  0
   -2.3135    4.0613    1.9705 C   0  0  0  0  0  0  0  0  0  0  0  0
   -3.3103    4.5025    0.8856 C   0  0  1  0  0  0  0  0  0  0  0  0
   -2.6225    4.4656   -0.4853 C   0  0  0  0  0  0  0  0  0  0  0  0
   -1.9861    3.0885   -0.7901 C   0  0  0  0  0  0  0  0  0  0  0  0
   -4.5695    3.6290    0.8349 C   0  0  0  0  0  0  0  0  0  0  0  0
   -5.3758    3.6699    2.0979 C   0  0  0  0  0  0  0  0  0  0  0  0
   -6.5080    4.1273    2.2072 O   0  0  0  0  0  0  0  0  0  0  0  0
   -4.7493    3.1256    3.1543 O   0  0  0  0  0  0  0  0  0  0  0  0
    3.0557    6.4035    1.4682 C   0  0  0  0  0  0  0  0  0  0  0  0
    4.3301    5.9845    1.4008 N   0  0  0  0  0  0  0  0  0  0  0  0
    5.2690    6.9072    1.6458 C   0  0  0  0  0  0  0  0  0  0  0  0
    5.0238    8.2487    1.9632 C   0  0  0  0  0  0  0  0  0  0  0  0
    3.6891    8.6418    2.0279 C   0  0  0  0  0  0  0  0  0  0  0  0
    2.6878    7.7079    1.7795 C   0  0  0  0  0  0  0  0  0  0  0  0
    6.0663    9.1797    2.1236 N   0  0  0  0  0  0  0  0  0  0  0  0
    7.4250    8.8377    2.0664 C   0  0  0  0  0  0  0  0  0  0  0  0
    8.2445    8.7792    3.1877 C   0  0  0  0  0  0  0  0  0  0  0  0
    9.5035    8.2751    3.1776 N   0  0  0  0  0  0  0  0  0  0  0  0
    9.9829    7.7817    1.9952 C   0  0  0  0  0  0  0  0  0  0  0  0
    9.2231    7.8019    0.8282 C   0  0  0  0  0  0  0  0  0  0  0  0
    7.9479    8.3437    0.8696 C   0  0  0  0  0  0  0  0  0  0  0  0
   11.3905    7.2064    1.9423 C   0  0  0  0  0  0  0  0  0  0  0  0
   12.3452    8.1168    2.2839 F   0  0  0  0  0  0  0  0  0  0  0  0
   11.5688    6.1344    2.7644 F   0  0  0  0  0  0  0  0  0  0  0  0
   11.7408    6.7672    0.6946 F   0  0  0  0  0  0  0  0  0  0  0  0
  1  2  2  0
  1  6  1  0
  2  3  1  0
  2 17  1  0
  3  4  2  0
  4  5  1  0
  5  6  2  0
  7  8  1  0
  7 12  1  0
  7  5  1  1
  8  9  1  0
  9 10  1  0
 10 11  1  0
 10 13  1  6
 11 12  1  0
 13 14  1  0
 14 15  2  0
 14 16  1  0
 17 18  2  0
 17 22  1  0
 18 19  1  0
 19 20  2  0
 20 21  1  0
 20 23  1  0
 21 22  2  0
 23 24  1  0
 24 25  2  0
 24 29  1  0
 25 26  1  0
 26 27  2  0
 27 28  1  0
 27 30  1  0
 28 29  2  0
 30 31  1  0
 30 32  1  0
 30 33  1  0
M  END
>  <DRUGBANK_ID>  (1) 
DB12866

>  <COMMON_NAME>  (1) 
Pradigastat

>  <CAS_NUMBER>  (1) 
956136-95-1

>  <UNII>  (1) 
2U23G6VNUZ

>  <SYNONYMS>  (1) 
Pradigastat

$$$$
