
     RDKit          3D

 20 22  0  0  0  0  0  0  0  0999 V2000
   -0.2315    0.7365   -0.2615 C   0  0  0  0  0  0  0  0  0  0  0  0
   -0.2036   -0.6094   -0.5216 C   0  0  0  0  0  0  0  0  0  0  0  0
   -2.3280   -0.0021   -0.2168 C   0  0  0  0  0  0  0  0  0  0  0  0
    0.9473    1.5296   -0.0781 C   0  0  0  0  0  0  0  0  0  0  0  0
    0.9710    2.7366    0.0688 O   0  0  0  0  0  0  0  0  0  0  0  0
    2.0922    0.7565   -0.0891 N   0  0  0  0  0  0  0  0  0  0  0  0
    1.0177   -1.3043   -0.5971 N   0  0  0  0  0  0  0  0  0  0  0  0
   -1.5368    1.1205   -0.1447 N   0  0  0  0  0  0  0  0  0  0  0  0
   -1.5235   -1.1445   -0.3583 C   0  0  0  0  0  0  0  0  0  0  0  0
   -2.0521   -2.4911    0.1157 C   0  0  2  0  0  0  0  0  0  0  0  0
   -1.5239   -2.5852    1.5125 N   0  0  0  0  0  0  0  0  0  0  0  0
   -0.5713   -3.7207    1.5751 C   0  0  2  0  0  0  0  0  0  0  0  0
    0.8838   -3.4466    1.9947 C   0  0  0  0  0  0  0  0  0  0  0  0
    1.2119   -2.0906    1.8084 O   0  0  0  0  0  0  0  0  0  0  0  0
   -1.9087   -3.9324   -0.3923 C   0  0  2  0  0  0  0  0  0  0  0  0
   -2.9753   -4.7338    0.2227 O   0  0  0  0  0  0  0  0  0  0  0  0
   -0.6025   -4.4170    0.2125 C   0  0  2  0  0  0  0  0  0  0  0  0
   -0.5293   -5.8293    0.4128 O   0  0  0  0  0  0  0  0  0  0  0  0
    2.0966   -0.5872   -0.3612 C   0  0  0  0  0  0  0  0  0  0  0  0
    3.3023   -1.2249   -0.3035 N   0  0  0  0  0  0  0  0  0  0  0  0
  1  2  2  0
  2  9  1  0
  4  6  1  0
  4  1  1  0
  4  5  2  0
  6 19  1  0
  7  2  1  0
  8  1  1  0
  8  3  1  0
  9  3  2  0
 10  9  1  6
 10 11  1  0
 12 17  1  0
 12 11  1  0
 12 13  1  6
 13 14  1  0
 15 10  1  0
 15 16  1  1
 17 15  1  0
 17 18  1  1
 19  7  2  0
 19 20  1  0
M  END
>  <DRUGBANK_ID>  (1) 
DB02230

>  <SECONDARY_ACCESSION_NUMBERS>  (1) 
EXPT01868

>  <COMMON_NAME>  (1) 
Immucillin-G

>  <UNII>  (1) 
XLM0Q9H891

>  <SYNONYMS>  (1) 
(1S)-1,4-dideoxy-1,4-imino-1-(9-deazaguanin-9-yl)-D-ribitol

$$$$
