
     RDKit          3D

  7  7  0  0  0  0  0  0  0  0999 V2000
   -2.2695    0.5382    0.0194 O   0  0  0  0  0  0  0  0  0  0  0  0
   -1.1341    0.0961   -0.0154 C   0  0  0  0  0  0  0  0  0  0  0  0
   -0.7610   -1.3570    0.0167 C   0  0  0  0  0  0  0  0  0  0  0  0
    0.7600   -1.3542   -0.0413 C   0  0  0  0  0  0  0  0  0  0  0  0
    1.1288    0.0995   -0.0212 C   0  0  0  0  0  0  0  0  0  0  0  0
    2.2628    0.5436    0.0277 O   0  0  0  0  0  0  0  0  0  0  0  0
   -0.0038    0.8408   -0.0712 N   0  0  0  0  0  0  0  0  0  0  0  0
  1  2  2  0
  2  3  1  0
  2  7  1  0
  3  4  1  0
  4  5  1  0
  5  6  2  0
  5  7  1  0
M  END
>  <DRUGBANK_ID>  (1) 
DB13376

>  <COMMON_NAME>  (1) 
Succinimide

>  <CAS_NUMBER>  (1) 
123-56-8

>  <UNII>  (1) 
10X90O3503

$$$$
