
     RDKit          3D

 35 38  0  0  0  0  0  0  0  0999 V2000
    1.1295   -0.0254    0.0515 C   0  0  0  0  0  0  0  0  0  0  0  0
    0.8006   -1.0035    1.1735 C   0  0  0  0  0  0  0  0  0  0  0  0
    1.4846   -0.7919    2.4513 O   0  0  0  0  0  0  0  0  0  0  0  0
    2.7519   -0.3058    2.5576 C   0  0  0  0  0  0  0  0  0  0  0  0
    3.5775   -0.4443    1.6926 O   0  0  0  0  0  0  0  0  0  0  0  0
    3.0111    0.4634    3.8715 C   0  0  0  0  0  0  0  0  0  0  0  0
    2.3196    0.2426    5.0622 C   0  0  0  0  0  0  0  0  0  0  0  0
    1.0069   -0.4945    5.0876 C   0  0  0  0  0  0  0  0  0  0  0  0
   -0.0733    0.2701    4.4551 N   0  0  0  0  0  0  0  0  0  0  0  0
   -0.1034    1.0146    3.3039 C   0  0  0  0  0  0  0  0  0  0  0  0
   -1.3283    1.3414    2.9886 N   0  0  0  0  0  0  0  0  0  0  0  0
   -1.9935    1.0052    4.1167 C   0  0  0  0  0  0  0  0  0  0  0  0
   -1.2951    0.3208    5.0277 N   0  0  0  0  0  0  0  0  0  0  0  0
    2.7517    0.7207    6.2817 N   0  0  0  0  0  0  0  0  0  0  0  0
    3.8586    1.4929    6.3685 C   0  0  0  0  0  0  0  0  0  0  0  0
    4.3681    1.9220    7.6082 C   0  0  0  0  0  0  0  0  0  0  0  0
    5.5219    2.7447    7.7883 C   0  0  0  0  0  0  0  0  0  0  0  0
    5.7003    2.9429    9.1387 O   0  0  0  0  0  0  0  0  0  0  0  0
    6.6999    3.7957    9.6376 C   0  0  0  0  0  0  0  0  0  0  0  0
    6.1946    3.1585    6.6316 C   0  0  0  0  0  0  0  0  0  0  0  0
    7.3127    3.9007    6.3402 O   0  0  0  0  0  0  0  0  0  0  0  0
    8.1136    4.4290    7.3573 C   0  0  0  0  0  0  0  0  0  0  0  0
    5.6590    2.7394    5.3905 C   0  0  0  0  0  0  0  0  0  0  0  0
    4.5247    1.9007    5.2174 C   0  0  0  0  0  0  0  0  0  0  0  0
    4.0558    1.4179    3.9395 C   0  0  0  0  0  0  0  0  0  0  0  0
    4.7231    1.8668    2.7030 C   0  0  0  0  0  0  0  0  0  0  0  0
    6.0410    1.4565    2.4837 C   0  0  0  0  0  0  0  0  0  0  0  0
    6.7058    1.7862    1.3142 C   0  0  0  0  0  0  0  0  0  0  0  0
    6.0552    2.4967    0.3089 C   0  0  0  0  0  0  0  0  0  0  0  0
    6.6934    2.9101   -0.8237 O   0  0  0  0  0  0  0  0  0  0  0  0
    8.0693    2.6336   -0.9837 C   0  0  0  0  0  0  0  0  0  0  0  0
    4.6973    2.8366    0.4615 C   0  0  0  0  0  0  0  0  0  0  0  0
    3.8793    3.3673   -0.5144 O   0  0  0  0  0  0  0  0  0  0  0  0
    4.4171    3.4125   -1.8388 C   0  0  0  0  0  0  0  0  0  0  0  0
    4.0642    2.5974    1.6943 C   0  0  0  0  0  0  0  0  0  0  0  0
  1  2  1  0
  2  3  1  0
  3  4  1  0
  4  5  2  0
  4  6  1  0
  6  7  2  0
  6 25  1  0
  7  8  1  0
  7 14  1  0
  8  9  1  0
  9 10  1  0
  9 13  1  0
 10 11  2  0
 11 12  1  0
 12 13  2  0
 14 15  2  0
 15 16  1  0
 15 24  1  0
 16 17  2  0
 17 18  1  0
 17 20  1  0
 18 19  1  0
 20 21  1  0
 20 23  2  0
 21 22  1  0
 23 24  1  0
 24 25  2  0
 25 26  1  0
 26 27  2  0
 26 35  1  0
 27 28  1  0
 28 29  2  0
 29 30  1  0
 29 32  1  0
 30 31  1  0
 32 33  1  0
 32 35  2  0
 33 34  1  0
M  END
>  <DRUGBANK_ID>  (1) 
DB17892

>  <COMMON_NAME>  (1) 
TAK-603

>  <CAS_NUMBER>  (1) 
158146-85-1

>  <UNII>  (1) 
W6RZK26FCB

>  <SYNONYMS>  (1) 
3-quinolinecarboxylic acid, 4-(3,4-dimethoxyphenyl)-6,7-dimethoxy-2-(1h-1,2,4-triazol-1-ylmethyl)-, ethyl ester; Ethyl 4-(3,4-dimethoxyphenyl)-6,7-dimethoxy-2-(1,2,4-triazol-1-ylmethyl)quinoline-3-carboxylate; TAK-603

$$$$
