
     RDKit          3D

 27 28  0  0  1  0  0  0  0  0999 V2000
    3.7513   11.8582    4.4938 C   0  0  0  0  0  0  0  0  0  0  0  0
    2.6241   11.1098    5.2301 C   0  0  1  0  0  0  0  0  0  0  0  0
    1.3502   11.2112    4.4506 N   0  0  0  0  0  0  0  0  0  0  0  0
    0.7439   10.0545    3.9934 C   0  0  0  0  0  0  0  0  0  0  0  0
    0.5078    9.1102    4.8827 N   0  0  0  0  0  0  0  0  0  0  0  0
   -0.0218    7.9796    4.4292 C   0  0  0  0  0  0  0  0  0  0  0  0
   -0.4119    7.7905    3.1746 N   0  0  0  0  0  0  0  0  0  0  0  0
   -0.1875    8.8059    2.3606 C   0  0  0  0  0  0  0  0  0  0  0  0
   -0.5587    8.6628    1.0468 N   0  0  0  0  0  0  0  0  0  0  0  0
   -1.2928    7.4806    0.5647 C   0  0  2  0  0  0  0  0  0  0  0  0
   -0.3389    6.2950    0.3947 C   0  0  0  0  0  0  0  0  0  0  0  0
   -2.0125    7.7496   -0.7708 C   0  0  0  0  0  0  0  0  0  0  0  0
   -2.7236    6.6742   -1.1809 F   0  0  0  0  0  0  0  0  0  0  0  0
   -2.8776    8.7853   -0.6637 F   0  0  0  0  0  0  0  0  0  0  0  0
   -1.1322    8.0590   -1.7516 F   0  0  0  0  0  0  0  0  0  0  0  0
    0.3790    9.9605    2.7176 N   0  0  0  0  0  0  0  0  0  0  0  0
   -0.2322    6.8894    5.3992 C   0  0  0  0  0  0  0  0  0  0  0  0
   -0.9211    7.1225    6.5938 C   0  0  0  0  0  0  0  0  0  0  0  0
   -1.1227    6.0730    7.4880 C   0  0  0  0  0  0  0  0  0  0  0  0
   -0.6103    4.8195    7.1847 C   0  0  0  0  0  0  0  0  0  0  0  0
    0.0768    4.6759    5.9917 C   0  0  0  0  0  0  0  0  0  0  0  0
    0.7599    3.1612    5.5621 Cl  0  0  0  0  0  0  0  0  0  0  0  0
    0.2686    5.6609    5.0897 N   0  0  0  0  0  0  0  0  0  0  0  0
    3.1608    9.6970    5.5992 C   0  0  0  0  0  0  0  0  0  0  0  0
    4.3533    9.7941    6.2431 F   0  0  0  0  0  0  0  0  0  0  0  0
    2.3521    9.0231    6.4435 F   0  0  0  0  0  0  0  0  0  0  0  0
    3.3747    8.9430    4.4956 F   0  0  0  0  0  0  0  0  0  0  0  0
  2  1  1  6
  2  3  1  0
  2 24  1  0
  3  4  1  0
  4  5  2  0
  4 16  1  0
  5  6  1  0
  6  7  2  0
  6 17  1  0
  7  8  1  0
  8  9  1  0
  8 16  2  0
 10 12  1  0
 10 11  1  6
 10  9  1  0
 12 13  1  0
 12 14  1  0
 12 15  1  0
 17 18  2  0
 17 23  1  0
 18 19  1  0
 19 20  2  0
 20 21  1  0
 21 22  1  0
 21 23  2  0
 24 25  1  0
 24 26  1  0
 24 27  1  0
M  END
>  <DRUGBANK_ID>  (1) 
DB17097

>  <COMMON_NAME>  (1) 
Vorasidenib

>  <CAS_NUMBER>  (1) 
1644545-52-7

>  <UNII>  (1) 
789Q85GA8P

>  <SYNONYMS>  (1) 
1,3,5-triazine-2,4-diamine, 6-(6-chloro-2-pyridinyl)-n2,n4-bis((1r)-2,2,2-trifluoro-1-methylethyl)-; Vorasidenib

$$$$
