
     RDKit          3D

 20 19  0  0  0  0  0  0  0  0999 V2000
    1.0623   -0.2287   -0.1026 C   0  0  0  0  0  0  0  0  0  0  0  0
    0.6686   -0.5462    1.3301 C   0  0  0  0  0  0  0  0  0  0  0  0
   -0.6737   -0.7461    1.4375 F   0  0  0  0  0  0  0  0  0  0  0  0
    1.2297   -1.7393    1.6995 F   0  0  0  0  0  0  0  0  0  0  0  0
    0.5166    1.9228    2.1296 C   0  0  0  0  0  0  0  0  0  0  0  0
    1.0072    2.7327    3.1180 F   0  0  0  0  0  0  0  0  0  0  0  0
    1.0184    2.4627    0.9780 F   0  0  0  0  0  0  0  0  0  0  0  0
   -1.6275    1.6002    3.4223 C   0  0  0  0  0  0  0  0  0  0  0  0
   -1.1549    2.3134    4.4689 F   0  0  0  0  0  0  0  0  0  0  0  0
   -0.9972    2.0342    2.1098 C   0  0  0  0  0  0  0  0  0  0  0  0
   -1.3429    3.3332    1.8497 F   0  0  0  0  0  0  0  0  0  0  0  0
   -1.5031    1.3245    1.0640 F   0  0  0  0  0  0  0  0  0  0  0  0
    1.1135    0.5291    2.3048 C   0  0  0  0  0  0  0  0  0  0  0  0
    0.8554    0.1092    3.5801 F   0  0  0  0  0  0  0  0  0  0  0  0
    2.4776    0.6320    2.2582 F   0  0  0  0  0  0  0  0  0  0  0  0
    0.4621    0.8925   -0.5562 F   0  0  0  0  0  0  0  0  0  0  0  0
    0.7048   -1.2222   -0.9481 F   0  0  0  0  0  0  0  0  0  0  0  0
    2.3963   -0.0528   -0.2318 F   0  0  0  0  0  0  0  0  0  0  0  0
   -2.9710    1.7566    3.4042 F   0  0  0  0  0  0  0  0  0  0  0  0
   -1.3990    0.2961    3.6872 F   0  0  0  0  0  0  0  0  0  0  0  0
  1 16  1  0
  1 17  1  0
  1 18  1  0
  2  1  1  0
  2  3  1  0
  4  2  1  0
  5 13  1  0
  5  6  1  0
  7  5  1  0
  8 10  1  0
  8 19  1  0
  8 20  1  0
  9  8  1  0
 10  5  1  0
 10 11  1  0
 12 10  1  0
 13  2  1  0
 13 14  1  0
 15 13  1  0
M  END
>  <DRUGBANK_ID>  (1) 
DB09531

>  <COMMON_NAME>  (1) 
Perflexane

>  <CAS_NUMBER>  (1) 
355-42-0

>  <UNII>  (1) 
FX3WJ41CMX

>  <SYNONYMS>  (1) 
1,1,1,2,2,3,3,4,4,5,5,6,6,6-tetradecafluorohexane; n-perfluorohexane; n-tetradecafluorohexane; Perflexane; Perfluorohexane

$$$$
