Carotene-beta
     RDKit          3D

 21 21  0  0  0  0  0  0  0  0999 V2000
    0.1505   -1.0947    0.1388 C   0  0  0  0  0  0  0  0  0  0  0  0
    0.0729   -2.5488    0.3933 C   0  0  0  0  0  0  0  0  0  0  0  0
    1.5045    1.0396   -0.1348 C   0  0  0  0  0  0  0  0  0  0  0  0
   -0.9265    1.1511   -0.5449 C   0  0  0  0  0  0  0  0  0  0  0  0
   -1.0104   -3.3176    0.6191 C   0  0  0  0  0  0  0  0  0  0  0  0
    0.2389    1.8323    0.1374 C   0  0  0  0  0  0  0  0  0  0  0  0
   -1.0424   -4.7661    0.8069 C   0  0  0  0  0  0  0  0  0  0  0  0
   -2.2388   -5.3986    0.8835 C   0  0  0  0  0  0  0  0  0  0  0  0
    0.2979   -5.4497    0.9103 C   0  0  0  0  0  0  0  0  0  0  0  0
   -2.3864   -6.8179    1.1064 C   0  0  0  0  0  0  0  0  0  0  0  0
   -3.5258   -7.5238    1.2174 C   0  0  0  0  0  0  0  0  0  0  0  0
   -3.5343   -8.9723    1.4717 C   0  0  0  0  0  0  0  0  0  0  0  0
   -4.7029   -9.6371    1.5828 C   0  0  0  0  0  0  0  0  0  0  0  0
   -2.1964   -9.6683    1.6043 C   0  0  0  0  0  0  0  0  0  0  0  0
   -4.8728  -11.1049    1.8248 C   0  0  0  0  0  0  0  0  0  0  0  0
    1.3583   -0.4682    0.0243 C   0  0  0  0  0  0  0  0  0  0  0  0
    2.7238   -1.1260    0.0192 C   0  0  0  0  0  0  0  0  0  0  0  0
   -2.1317   -0.8996   -1.0763 C   0  0  0  0  0  0  0  0  0  0  0  0
   -1.1735   -0.2933   -0.0141 C   0  0  0  0  0  0  0  0  0  0  0  0
   -1.8624   -0.1790    1.3663 C   0  0  0  0  0  0  0  0  0  0  0  0
   -5.5770  -11.2798    3.0424 O   0  0  0  0  0  0  0  0  0  0  0  0
  1 16  2  0
  1 19  1  0
  1  2  1  0
  2  5  2  0
  3  6  1  0
  4  6  1  0
  5  7  1  0
  7  8  2  0
  7  9  1  0
  8 10  1  0
 10 11  2  0
 11 12  1  0
 12 13  2  0
 12 14  1  0
 13 15  1  0
 15 21  1  0
 16  3  1  0
 16 17  1  0
 19  4  1  0
 19 18  1  0
 19 20  1  0
M  END
>  <DRUGBANK_ID>  (1) 
DB00162

>  <SECONDARY_ACCESSION_NUMBERS>  (1) 
NUTR00007; APRD00486

>  <COMMON_NAME>  (1) 
Vitamin A

>  <CAS_NUMBER>  (1) 
68-26-8

>  <UNII>  (1) 
G2SH0XKK91

>  <SYNONYMS>  (1) 
(2E,4E,6E,8E)-3,7-dimethyl-9-(2,6,6-trimethylcyclohex-1-en-1-yl)nona-2,4,6,8-tetraen-1-ol; all-trans-retinol; all-trans-retinyl alcohol; all-trans-vitamin A alcohol; Retinol; Retinolum; Vitamin A1

$$$$
