505
     RDKit          3D

 13 13  0  0  0  0  0  0  0  0999 V2000
    0.6137   -0.0873   -1.0561 C   0  0  0  0  0  0  0  0  0  0  0  0
    0.2628    1.3660   -0.6853 C   0  0  1  0  0  0  0  0  0  0  0  0
    0.7315    2.1692   -1.8227 N   0  0  0  0  0  0  0  0  0  0  0  0
   -1.1972    1.3963   -0.1905 C   0  0  0  0  0  0  0  0  0  0  0  0
   -1.3032    1.1450    1.2540 O   0  0  0  0  0  0  0  0  0  0  0  0
   -1.0373   -0.1245    1.7312 C   0  0  0  0  0  0  0  0  0  0  0  0
    0.2783   -0.6245    1.9153 C   0  0  0  0  0  0  0  0  0  0  0  0
    1.5888    0.1374    1.8097 C   0  0  0  0  0  0  0  0  0  0  0  0
    0.4459   -1.9857    2.2461 C   0  0  0  0  0  0  0  0  0  0  0  0
   -0.6431   -2.7770    2.6218 C   0  0  0  0  0  0  0  0  0  0  0  0
   -1.9015   -2.2283    2.6403 C   0  0  0  0  0  0  0  0  0  0  0  0
   -2.1404   -0.9166    2.1779 C   0  0  0  0  0  0  0  0  0  0  0  0
   -3.5637   -0.4307    2.2098 C   0  0  0  0  0  0  0  0  0  0  0  0
  2  1  1  6
  2  3  1  0
  2  4  1  0
  4  5  1  0
  5  6  1  0
  6  7  2  0
  6 12  1  0
  7  8  1  0
  7  9  1  0
  9 10  2  0
 10 11  1  0
 11 12  2  0
 12 13  1  0
M  END
>  <DRUGBANK_ID>  (1) 
DB07129

>  <COMMON_NAME>  (1) 
(2R)-1-(2,6-dimethylphenoxy)propan-2-amine

>  <UNII>  (1) 
4KQ8G4M9DE

$$$$
