
     RDKit          3D

 33 32  0  0  1  0  0  0  0  0999 V2000
    0.8733   -0.3276    0.0564 C   0  0  0  0  0  0  0  0  0  0  0  0
    0.4012   -0.5128    1.4591 C   0  0  0  0  0  0  0  0  0  0  0  0
    0.9204    0.3699    2.5810 C   0  0  0  0  0  0  0  0  0  0  0  0
    0.3412    1.3387   -0.3028 O   0  0  0  0  0  0  0  0  0  0  0  0
    0.4300    1.6306    2.5476 O   0  0  0  0  0  0  0  0  0  0  0  0
   -1.0781   -0.4402    1.3880 O   0  0  0  0  0  0  0  0  0  0  0  0
    1.7132    3.7863   -5.4885 C   0  0  0  0  0  0  0  0  0  0  0  0
    2.1578    2.4722   -4.8741 C   0  0  0  0  0  0  0  0  0  0  0  0
    2.9538    2.7746   -3.6094 C   0  0  0  0  0  0  0  0  0  0  0  0
    2.0638    3.5666   -2.7171 C   0  0  0  0  0  0  0  0  0  0  0  0
    0.8531    2.6739   -2.6238 C   0  0  0  0  0  0  0  0  0  0  0  0
    1.3668    1.3417   -1.9328 C   0  0  0  0  0  0  0  0  0  0  0  0
    2.0806    1.4858   -0.0919 C   0  0  0  0  0  0  0  0  0  0  0  0
    0.7571    2.2354    1.4084 C   0  0  0  0  0  0  0  0  0  0  0  0
    0.2784    3.4605    1.5132 O   0  0  0  0  0  0  0  0  0  0  0  0
   -4.1446    5.8360   -1.8396 C   0  0  0  0  0  0  0  0  0  0  0  0
   -2.6551    5.5855   -1.7277 C   0  0  0  0  0  0  0  0  0  0  0  0
   -2.3426    5.1705   -0.3014 C   0  0  0  0  0  0  0  0  0  0  0  0
   -3.1685    3.9212    0.0605 C   0  0  0  0  0  0  0  0  0  0  0  0
   -2.9833    2.7629   -0.9310 C   0  0  0  0  0  0  0  0  0  0  0  0
   -1.6141    2.3649   -0.7587 C   0  0  0  0  0  0  0  0  0  0  0  0
   -1.6161    1.9231    0.6824 C   0  0  0  0  0  0  0  0  0  0  0  0
   -1.9755    0.5695    1.0841 C   0  0  0  0  0  0  0  0  0  0  0  0
   -3.1789    0.4002    1.1798 O   0  0  0  0  0  0  0  0  0  0  0  0
    3.7788    7.1834    3.3319 C   0  0  0  0  0  0  0  0  0  0  0  0
    4.1446    5.7300    3.5585 C   0  0  0  0  0  0  0  0  0  0  0  0
    2.8827    4.9322    3.7359 C   0  0  0  0  0  0  0  0  0  0  0  0
    2.0617    5.1085    2.4892 C   0  0  0  0  0  0  0  0  0  0  0  0
    2.9014    4.6977    1.2425 C   0  0  0  0  0  0  0  0  0  0  0  0
    3.6670    3.4176    1.3709 C   0  0  0  0  0  0  0  0  0  0  0  0
    2.5004    2.6640    1.3774 C   0  0  0  0  0  0  0  0  0  0  0  0
    1.1728    2.9825   -0.1700 C   0  0  0  0  0  0  0  0  0  0  0  0
    0.6972    4.0371   -0.6549 O   0  0  0  0  0  0  0  0  0  0  0  0
  2  1  1  0
  2  6  1  0
  3  2  1  0
  4  1  1  0
  5  3  1  0
  7  8  1  0
  8  9  1  0
  9 10  1  0
 10 11  1  0
 11 12  1  0
 12 13  1  0
 13 14  1  0
 14  5  1  0
 14 15  2  0
 16 17  1  0
 17 18  1  0
 18 19  1  0
 19 20  1  0
 20 21  1  0
 21 22  1  0
 22 23  1  0
 23  6  1  0
 23 24  2  0
 25 26  1  0
 26 27  1  0
 27 28  1  0
 28 29  1  0
 29 30  1  0
 30 31  1  0
 31 32  1  0
 32  4  1  0
 32 33  2  0
M  END
>  <DRUGBANK_ID>  (1) 
DB12176

>  <SECONDARY_ACCESSION_NUMBERS>  (1) 
DB05781

>  <COMMON_NAME>  (1) 
Tricaprylin

>  <CAS_NUMBER>  (1) 
538-23-8

>  <UNII>  (1) 
6P92858988

>  <SYNONYMS>  (1) 
Caprylic acid triglyceride; Caprylic triglyceride; Glycerol tricaprylate; Glycerol trioctanoate; Tricaprilin; Tricaprylyl glycerin; Tricaprylyl glycerol

$$$$
