
     RDKit          3D

 27 29  0  0  0  0  0  0  0  0999 V2000
   -1.6186   -0.0218   -0.2242 C   0  0  0  0  0  0  0  0  0  0  0  0
   -0.8632    1.2523    0.1233 C   0  0  0  0  0  0  0  0  0  0  0  0
    0.5066    1.1982   -0.5240 C   0  0  0  0  0  0  0  0  0  0  0  0
    1.2404   -0.0470   -0.2226 N   0  0  0  0  0  0  0  0  0  0  0  0
    0.5450   -1.2912   -0.6339 C   0  0  2  0  0  0  0  0  0  0  0  0
   -0.8201   -1.2914    0.2001 C   0  0  1  0  0  0  0  0  0  0  0  0
   -0.8224   -1.2089    1.6932 N   0  0  0  0  0  0  0  0  0  0  0  0
    1.3786   -2.6179   -0.7265 C   0  0  0  0  0  0  0  0  0  0  0  0
   -0.1669   -2.2898    2.3962 C   0  0  0  0  0  0  0  0  0  0  0  0
    1.3476   -2.2874    2.4579 C   0  0  0  0  0  0  0  0  0  0  0  0
    0.8674   -3.8712   -0.9257 C   0  0  0  0  0  0  0  0  0  0  0  0
    2.7631   -2.6636   -0.4631 C   0  0  0  0  0  0  0  0  0  0  0  0
    3.5917   -3.8098   -0.3861 C   0  0  0  0  0  0  0  0  0  0  0  0
    2.9723   -5.0032   -0.2844 C   0  0  0  0  0  0  0  0  0  0  0  0
    1.6141   -5.0617   -0.6554 C   0  0  0  0  0  0  0  0  0  0  0  0
    3.4737   -0.9216    2.1308 C   0  0  0  0  0  0  0  0  0  0  0  0
    2.0843   -1.0270    2.3604 C   0  0  0  0  0  0  0  0  0  0  0  0
    2.0628   -3.4913    2.5092 C   0  0  0  0  0  0  0  0  0  0  0  0
    3.5004   -3.3689    2.4779 C   0  0  0  0  0  0  0  0  0  0  0  0
    4.1822   -2.1227    2.1890 C   0  0  0  0  0  0  0  0  0  0  0  0
    4.1418    0.1391    1.5392 O   0  0  0  0  0  0  0  0  0  0  0  0
    1.5355   -4.7817    2.3927 O   0  0  0  0  0  0  0  0  0  0  0  0
    0.1753   -5.1359    1.9960 C   0  0  0  0  0  0  0  0  0  0  0  0
    3.5350    1.4315    1.4903 C   0  0  0  0  0  0  0  0  0  0  0  0
    2.9016    1.6230    0.3231 F   0  0  0  0  0  0  0  0  0  0  0  0
    2.7055    1.6374    2.5290 F   0  0  0  0  0  0  0  0  0  0  0  0
    4.4827    2.4000    1.5190 F   0  0  0  0  0  0  0  0  0  0  0  0
  1  2  1  0
  1  6  1  0
  2  3  1  0
  3  4  1  0
  4  5  1  0
  5  6  1  0
  5  8  1  1
  6  7  1  1
  7  9  1  0
  8 12  1  0
  9 10  1  0
 10 18  2  0
 11  8  2  0
 11 15  1  0
 12 13  2  0
 13 14  1  0
 14 15  2  0
 16 17  2  0
 16 20  1  0
 16 21  1  0
 17 10  1  0
 18 19  1  0
 18 22  1  0
 19 20  2  0
 21 24  1  0
 22 23  1  0
 24 25  1  0
 24 26  1  0
 24 27  1  0
M  END
>  <DRUGBANK_ID>  (1) 
DB05421

>  <COMMON_NAME>  (1) 
CP-122721

>  <CAS_NUMBER>  (1) 
145742-28-5

>  <UNII>  (1) 
R7OYP6N58F

$$$$
