1238
     RDKit          3D

 30 33  0  0  0  0  0  0  0  0999 V2000
    1.6232    1.3317   -0.0157 Cl  0  0  0  0  0  0  0  0  0  0  0  0
    1.3900   -1.8326    0.0201 Cl  0  0  0  0  0  0  0  0  0  0  0  0
   -6.0637    5.4540    0.4087 O   0  0  0  0  0  0  0  0  0  0  0  0
   -1.6319    8.2639   -4.3665 O   0  0  0  0  0  0  0  0  0  0  0  0
   -0.8060    5.4538    0.8734 N   0  0  0  0  0  0  0  0  0  0  0  0
   -0.8594    2.6345    0.0440 N   0  0  0  0  0  0  0  0  0  0  0  0
   -3.2820    7.3435   -3.0799 N   0  0  0  0  0  0  0  0  0  0  0  0
    0.0049    4.9074   -0.2387 C   0  0  0  0  0  0  0  0  0  0  0  0
   -1.2173    4.3808    1.7903 C   0  0  0  0  0  0  0  0  0  0  0  0
   -0.5306    3.6394   -0.9789 C   0  0  0  0  0  0  0  0  0  0  0  0
   -1.6557    3.0489    1.1460 C   0  0  0  0  0  0  0  0  0  0  0  0
   -1.9260    6.2024    0.3835 C   0  0  0  0  0  0  0  0  0  0  0  0
   -2.9460    5.3912   -0.3494 C   0  0  0  0  0  0  0  0  0  0  0  0
   -1.0789    1.2865   -0.2189 C   0  0  0  0  0  0  0  0  0  0  0  0
   -3.9274    4.4438    0.3390 C   0  0  0  0  0  0  0  0  0  0  0  0
   -4.9650    5.0438    1.2042 C   0  0  0  0  0  0  0  0  0  0  0  0
    0.0814    0.5152   -0.1725 C   0  0  0  0  0  0  0  0  0  0  0  0
   -2.3615    0.6485   -0.1638 C   0  0  0  0  0  0  0  0  0  0  0  0
   -4.8536    8.7020   -1.8510 C   0  0  0  0  0  0  0  0  0  0  0  0
   -4.4111    9.8631   -2.6818 C   0  0  0  0  0  0  0  0  0  0  0  0
   -4.4291    7.4452   -2.2455 C   0  0  0  0  0  0  0  0  0  0  0  0
   -5.7767    6.4722   -0.4687 C   0  0  0  0  0  0  0  0  0  0  0  0
   -0.0253   -0.8588   -0.0690 C   0  0  0  0  0  0  0  0  0  0  0  0
   -2.4564   -0.7341   -0.0346 C   0  0  0  0  0  0  0  0  0  0  0  0
   -2.9349    9.7833   -3.0257 C   0  0  0  0  0  0  0  0  0  0  0  0
   -5.0869    6.3229   -1.7037 C   0  0  0  0  0  0  0  0  0  0  0  0
   -1.2808   -1.4787    0.0028 C   0  0  0  0  0  0  0  0  0  0  0  0
   -5.7841    8.8272   -0.8084 C   0  0  0  0  0  0  0  0  0  0  0  0
   -6.1619    7.7247   -0.0513 C   0  0  0  0  0  0  0  0  0  0  0  0
   -2.5820    8.4218   -3.5603 C   0  0  0  0  0  0  0  0  0  0  0  0
  1 17  1  0
  2 23  1  0
  3 16  1  0
  3 22  1  0
  4 30  2  0
  5  8  1  0
  5  9  1  0
  5 12  1  0
  6 10  1  0
  6 11  1  0
  6 14  1  0
  7 21  1  0
  7 30  1  0
  8 10  1  0
  9 11  1  0
 12 13  1  0
 13 15  1  0
 14 17  2  0
 14 18  1  0
 15 16  1  0
 17 23  1  0
 18 24  2  0
 19 20  1  0
 19 21  2  0
 19 28  1  0
 20 25  1  0
 21 26  1  0
 22 26  2  0
 22 29  1  0
 23 27  2  0
 24 27  1  0
 25 30  1  0
 28 29  2  0
M  END
>  <DRUGBANK_ID>  (1) 
DB01238

>  <SECONDARY_ACCESSION_NUMBERS>  (1) 
APRD00638

>  <COMMON_NAME>  (1) 
Aripiprazole

>  <CAS_NUMBER>  (1) 
129722-12-9

>  <UNII>  (1) 
82VFR53I78

>  <SYNONYMS>  (1) 
Aripiprazol; Aripiprazole; Aripiprazolum

$$$$
