
     RDKit          3D

 11 11  0  0  0  0  0  0  0  0999 V2000
   -1.4206    0.3503   -0.1744 C   0  0  0  0  0  0  0  0  0  0  0  0
   -0.9939   -1.0719    0.2078 C   0  0  0  0  0  0  0  0  0  0  0  0
    1.4221   -0.3287    0.2269 C   0  0  0  0  0  0  0  0  0  0  0  0
    0.9981    1.0911   -0.1623 C   0  0  0  0  0  0  0  0  0  0  0  0
   -0.4210    1.4111    0.3250 C   0  0  2  0  0  0  0  0  0  0  0  0
    0.4263   -1.3893   -0.2773 C   0  0  2  0  0  0  0  0  0  0  0  0
    0.2005    2.5728    2.3553 O   0  0  0  0  0  0  0  0  0  0  0  0
   -0.4729    1.5198    1.8479 C   0  0  0  0  0  0  0  0  0  0  0  0
   -1.0648    0.7427    2.5859 O   0  0  0  0  0  0  0  0  0  0  0  0
    0.4443   -1.4878   -1.8156 C   0  0  0  0  0  0  0  0  0  0  0  0
    1.0528   -2.7349   -2.2491 N   0  0  0  0  0  0  0  0  0  0  0  0
  1  2  1  0
  2  6  1  0
  3  4  1  0
  5  1  1  0
  5  4  1  0
  5  8  1  1
  6  3  1  0
  6 10  1  6
  8  7  1  0
  8  9  2  0
 10 11  1  0
M  END
>  <DRUGBANK_ID>  (1) 
DB00302

>  <SECONDARY_ACCESSION_NUMBERS>  (1) 
APRD01270; EXPT00508

>  <COMMON_NAME>  (1) 
Tranexamic acid

>  <CAS_NUMBER>  (1) 
1197-18-8

>  <UNII>  (1) 
6T84R30KC1

>  <SYNONYMS>  (1) 
Acide tranéxamique; ácido tranexámico; Acidum tranexamicum; Tranexamic acid; Tranexamsaeure; Tranexmic acid; Tranhexamic acid; Trans AMCHA; trans-4-(Aminomethyl)cyclohexanecarboxylic acid; trans-4-aminomethylcyclohexane-1-carboxylic acid; trans-Amcha; trans-Tranexamic acid

$$$$
