
     RDKit          3D

 20 19  0  0  0  0  0  0  0  0999 V2000
   -0.4510    1.3779   -0.5803 C   0  0  0  0  0  0  0  0  0  0  0  0
   -1.1205    0.1095   -0.3174 C   0  0  0  0  0  0  0  0  0  0  0  0
   -0.0238   -1.5985   -0.0998 C   0  0  0  0  0  0  0  0  0  0  0  0
   -0.1535   -2.6582    0.5860 O   0  0  0  0  0  0  0  0  0  0  0  0
    1.9018   -1.3444   -0.2483 C   0  0  0  0  0  0  0  0  0  0  0  0
    2.3737    0.0786   -0.5517 C   0  0  0  0  0  0  0  0  0  0  0  0
    1.2600    1.4776   -0.6523 N   0  0  0  0  0  0  0  0  0  0  0  0
    1.7257    2.7498   -0.0833 C   0  0  0  0  0  0  0  0  0  0  0  0
    2.4614    2.5981    1.2386 C   0  0  0  0  0  0  0  0  0  0  0  0
    3.6791    2.5268    1.3175 O   0  0  0  0  0  0  0  0  0  0  0  0
    1.7023    2.5270    2.3538 O   0  0  0  0  0  0  0  0  0  0  0  0
    2.7966   -3.1615    0.2660 I   0  0  0  0  0  0  0  0  0  0  0  0
   -3.4919    0.6681   -0.1170 I   0  0  0  0  0  0  0  0  0  0  0  0
    0.6532   -0.0061    0.6865 C   0  0  0  0  0  0  0  0  0  0  0  0
    0.5259   -0.3837   -1.4422 C   0  0  0  0  0  0  0  0  0  0  0  0
    0.7922   -1.8343   -2.1564 O   0  0  0  0  0  0  0  0  0  0  0  0
   -0.0391   -0.8149    1.9397 N   0  0  0  0  0  0  0  0  0  0  0  0
   -1.5737   -1.1913    1.6178 C   0  0  0  0  0  0  0  0  0  0  0  0
   -2.2742   -2.0827    0.0399 C   0  0  0  0  0  0  0  0  0  0  0  0
   -1.7404   -3.2989   -0.6493 O   0  0  0  0  0  0  0  0  0  0  0  0
  1  2  2  0
  1  7  1  0
  2  3  1  0
  2 13  1  0
  3  4  2  0
  3  5  1  0
  5  6  2  0
  5 12  1  0
  6  7  1  0
  7  8  1  0
  8  9  1  0
  9 10  2  0
  9 11  1  0
 14 15  1  0
 14 17  1  0
 15 16  1  0
 17 18  1  0
 18 19  1  0
 19 20  1  0
M  END
>  <DRUGBANK_ID>  (1) 
DB13568

>  <COMMON_NAME>  (1) 
Diodone

>  <CAS_NUMBER>  (1) 
300-37-8

>  <UNII>  (1) 
ZTK4026YJ5

>  <SYNONYMS>  (1) 
Diodone; Iodopyracet

$$$$
