
     RDKit          3D

 22 23  0  0  0  0  0  0  0  0999 V2000
    0.8975   -0.0530    0.0293 O   0  0  0  0  0  0  0  0  0  0  0  0
    0.3546   -1.2782    0.0490 C   0  0  0  0  0  0  0  0  0  0  0  0
    1.0403   -2.2918    0.0917 O   0  0  0  0  0  0  0  0  0  0  0  0
   -1.1196   -1.2536    0.0339 C   0  0  0  0  0  0  0  0  0  0  0  0
   -1.8274   -0.3860   -0.8013 C   0  0  0  0  0  0  0  0  0  0  0  0
   -3.2272   -0.4891   -0.8960 C   0  0  0  0  0  0  0  0  0  0  0  0
   -3.9348   -1.4651   -0.1675 C   0  0  0  0  0  0  0  0  0  0  0  0
   -5.4152   -1.5349   -0.2389 C   0  0  0  0  0  0  0  0  0  0  0  0
   -6.1789   -2.3695    0.4942 C   0  0  0  0  0  0  0  0  0  0  0  0
   -7.9259   -2.3661    0.5274 S   0  0  0  0  0  0  0  0  0  0  0  0
   -8.3703   -3.5810   -0.1320 O   0  0  0  0  0  0  0  0  0  0  0  0
   -8.3474   -2.1369    1.9006 O   0  0  0  0  0  0  0  0  0  0  0  0
   -8.4740   -0.9903   -0.4662 C   0  0  0  0  0  0  0  0  0  0  0  0
   -8.0585    0.3729    0.0538 C   0  0  0  0  0  0  0  0  0  0  0  0
   -8.4422    1.5057   -0.6817 C   0  0  0  0  0  0  0  0  0  0  0  0
   -8.1670    2.7913   -0.2013 C   0  0  0  0  0  0  0  0  0  0  0  0
   -7.5055    2.9586    1.0137 C   0  0  0  0  0  0  0  0  0  0  0  0
   -7.1308    4.5285    1.5982 Cl  0  0  0  0  0  0  0  0  0  0  0  0
   -7.1147    1.8557    1.7512 C   0  0  0  0  0  0  0  0  0  0  0  0
   -7.3555    0.5828    1.2528 C   0  0  0  0  0  0  0  0  0  0  0  0
   -3.1954   -2.3345    0.6448 C   0  0  0  0  0  0  0  0  0  0  0  0
   -1.8104   -2.2080    0.7788 C   0  0  0  0  0  0  0  0  0  0  0  0
  1  2  1  0
  2  3  2  0
  2  4  1  0
  4  5  2  0
  4 22  1  0
  5  6  1  0
  6  7  2  0
  7  8  1  0
  7 21  1  0
  8  9  2  0
  9 10  1  0
 10 11  2  0
 10 12  2  0
 10 13  1  0
 13 14  1  0
 14 15  2  0
 14 20  1  0
 15 16  1  0
 16 17  2  0
 17 18  1  0
 17 19  1  0
 19 20  2  0
 21 22  2  0
M  END
>  <DRUGBANK_ID>  (1) 
DB18310

>  <COMMON_NAME>  (1) 
Recilisib

>  <CAS_NUMBER>  (1) 
334969-03-8

>  <UNII>  (1) 
F5V4K11SYV

>  <SYNONYMS>  (1) 
4-((1e)-2-(((4-chlorophenyl)methyl)sulfonyl)ethenyl)benzoic acid; Benzoic acid, 4-((1e)-2-(((4-chlorophenyl)methyl)sulfonyl)ethenyl)-

$$$$
