
     RDKit          3D

 17 17  0  0  0  0  0  0  0  0999 V2000
    1.2054   -1.0086    0.0002 C   0  0  0  0  0  0  0  0  0  0  0  0
    0.0555   -1.7812   -0.0024 C   0  0  0  0  0  0  0  0  0  0  0  0
   -1.1674   -1.1501   -0.0038 C   0  0  0  0  0  0  0  0  0  0  0  0
    1.1475    0.4101    0.0005 C   0  0  0  0  0  0  0  0  0  0  0  0
    2.4842    1.1133    0.0080 C   0  0  0  0  0  0  0  0  0  0  0  0
   -1.2710    0.2512    0.0006 C   0  0  0  0  0  0  0  0  0  0  0  0
   -2.6886    0.7217   -0.0007 C   0  0  0  0  0  0  0  0  0  0  0  0
   -0.1188    1.0772    0.0072 C   0  0  0  0  0  0  0  0  0  0  0  0
   -0.1581    2.5215    0.0133 N   0  0  0  0  0  0  0  0  0  0  0  0
   -1.2762    3.3669    0.0845 C   0  0  0  0  0  0  0  0  0  0  0  0
   -2.4518    3.0919    0.1956 O   0  0  0  0  0  0  0  0  0  0  0  0
   -1.0276    4.8559   -0.0265 C   0  0  0  0  0  0  0  0  0  0  0  0
   -1.8509    6.7989   -1.2644 C   0  0  0  0  0  0  0  0  0  0  0  0
   -0.5469    7.5750   -1.1692 C   0  0  0  0  0  0  0  0  0  0  0  0
   -1.6779    5.3507   -1.2584 N   0  0  0  0  0  0  0  0  0  0  0  0
   -1.1666    4.7521   -2.4930 C   0  0  0  0  0  0  0  0  0  0  0  0
    0.3228    4.9667   -2.7180 C   0  0  0  0  0  0  0  0  0  0  0  0
  1  2  2  0
  1  4  1  0
  2  3  1  0
  3  6  2  0
  4  5  1  0
  6  8  1  0
  6  7  1  0
  8  4  2  0
  8  9  1  0
  9 10  1  0
 10 12  1  0
 10 11  2  0
 12 15  1  0
 13 14  1  0
 15 13  1  0
 15 16  1  0
 16 17  1  0
M  END
>  <DRUGBANK_ID>  (1) 
DB00281

>  <SECONDARY_ACCESSION_NUMBERS>  (1) 
APRD00479; DB05291

>  <COMMON_NAME>  (1) 
Lidocaine

>  <CAS_NUMBER>  (1) 
137-58-6

>  <UNII>  (1) 
98PI200987

>  <SYNONYMS>  (1) 
2-(Diethylamino)-2',6'-acetoxylidide; 2-(Diethylamino)-N-(2,6-dimethylphenyl)acetamide; alpha-diethylamino-2,6-dimethylacetanilide; Lidocaína; Lidocaina; Lidocaine; Lidocainum; Lignocaine; α-diethylamino-2,6-dimethylacetanilide

$$$$
