1244
     RDKit          3D

 27 29  0  0  1  0  0  0  0  0999 V2000
    0.5513    0.1410    0.1067 O   0  0  0  0  0  0  0  0  0  0  0  0
    2.6259   -0.2230   -2.6462 N   0  0  0  0  0  0  0  0  0  0  0  0
   -1.0944   -0.8532   -3.6445 N   0  0  0  0  0  0  0  0  0  0  0  0
    1.1120   -0.2098   -2.3939 C   0  0  0  0  0  0  0  0  0  0  0  0
    3.4182   -1.2779   -1.9678 C   0  0  0  0  0  0  0  0  0  0  0  0
    3.2787    1.0586   -2.3367 C   0  0  0  0  0  0  0  0  0  0  0  0
    4.0949   -0.6704   -0.7642 C   0  0  0  0  0  0  0  0  0  0  0  0
    4.1821    0.8243   -1.1354 C   0  0  0  0  0  0  0  0  0  0  0  0
    0.4077   -0.9364   -3.5836 C   0  0  0  0  0  0  0  0  0  0  0  0
    0.6851   -0.8255   -1.0252 C   0  0  0  0  0  0  0  0  0  0  0  0
   -1.6742   -0.2650   -4.8609 C   0  0  0  0  0  0  0  0  0  0  0  0
   -1.9922   -1.2433   -2.6517 C   0  0  0  0  0  0  0  0  0  0  0  0
    1.8805    0.2581    0.5407 C   0  0  0  0  0  0  0  0  0  0  0  0
    2.6865    0.8957    1.7010 C   0  0  0  0  0  0  0  0  0  0  0  0
   -2.4219   -1.3073   -5.6586 C   0  0  0  0  0  0  0  0  0  0  0  0
   -1.9833   -0.5952   -1.4135 C   0  0  0  0  0  0  0  0  0  0  0  0
   -3.0125   -2.1772   -2.7435 C   0  0  0  0  0  0  0  0  0  0  0  0
    2.2885    0.0420    2.8759 C   0  0  0  0  0  0  0  0  0  0  0  0
    4.3069    0.8521    1.7555 C   0  0  0  0  0  0  0  0  0  0  0  0
   -1.9548   -2.6371   -5.6799 C   0  0  0  0  0  0  0  0  0  0  0  0
   -3.6748   -1.0093   -6.2046 C   0  0  0  0  0  0  0  0  0  0  0  0
   -2.4611   -1.2421   -0.2638 C   0  0  0  0  0  0  0  0  0  0  0  0
   -3.8011   -2.5791   -1.6532 C   0  0  0  0  0  0  0  0  0  0  0  0
   -3.4069   -2.2129   -0.3645 C   0  0  0  0  0  0  0  0  0  0  0  0
   -2.7862   -3.6704   -6.0928 C   0  0  0  0  0  0  0  0  0  0  0  0
   -4.4946   -2.0482   -6.6440 C   0  0  0  0  0  0  0  0  0  0  0  0
   -4.0545   -3.3735   -6.5805 C   0  0  0  0  0  0  0  0  0  0  0  0
  1 10  1  0
  1 13  1  0
  2  4  1  0
  2  5  1  0
  2  6  1  0
  3  9  1  0
  3 11  1  0
  3 12  1  0
  4  9  1  0
  4 10  1  0
  5  7  1  0
  6  8  1  0
  7  8  1  0
 11 15  1  0
 12 16  2  0
 12 17  1  0
 13 14  1  0
 14 18  1  0
 14 19  1  0
 15 20  2  0
 15 21  1  0
 16 22  1  0
 17 23  2  0
 20 25  1  0
 21 26  2  0
 22 24  2  0
 23 24  1  0
 25 27  2  0
 26 27  1  0
M  END
>  <DRUGBANK_ID>  (1) 
DB01244

>  <SECONDARY_ACCESSION_NUMBERS>  (1) 
APRD00727

>  <COMMON_NAME>  (1) 
Bepridil

>  <CAS_NUMBER>  (1) 
64706-54-3

>  <UNII>  (1) 
755BO701MA

>  <SYNONYMS>  (1) 
Bepadin; Bepridil

$$$$
