
     RDKit          3D

 16 16  0  0  0  0  0  0  0  0999 V2000
    1.4766   -0.0985   -0.0237 C   0  0  0  0  0  0  0  0  0  0  0  0
    0.6479   -1.1924    0.0478 C   0  0  0  0  0  0  0  0  0  0  0  0
   -0.7273   -0.9842    0.1435 C   0  0  0  0  0  0  0  0  0  0  0  0
   -1.3586    0.2473   -0.0179 C   0  0  0  0  0  0  0  0  0  0  0  0
   -0.4971    1.3481   -0.0167 C   0  0  0  0  0  0  0  0  0  0  0  0
    0.9047    1.1737   -0.0322 C   0  0  0  0  0  0  0  0  0  0  0  0
   -2.8604    0.4486   -0.1749 C   0  0  0  0  0  0  0  0  0  0  0  0
   -3.2935    1.6028   -0.2065 O   0  0  0  0  0  0  0  0  0  0  0  0
   -3.8882   -0.6665   -0.3197 C   0  0  0  0  0  0  0  0  0  0  0  0
   -3.5986   -1.9634   -0.4377 C   0  0  0  0  0  0  0  0  0  0  0  0
   -4.3641   -3.1819   -0.4643 C   0  0  0  0  0  0  0  0  0  0  0  0
   -3.8406   -4.4289   -0.4061 C   0  0  0  0  0  0  0  0  0  0  0  0
   -2.3922   -4.8561   -0.2424 C   0  0  0  0  0  0  0  0  0  0  0  0
   -2.0487   -6.0202   -0.2050 O   0  0  0  0  0  0  0  0  0  0  0  0
   -1.4896   -3.8763   -0.1280 O   0  0  0  0  0  0  0  0  0  0  0  0
   -4.7382   -5.4965   -0.5036 O   0  0  0  0  0  0  0  0  0  0  0  0
  1  2  2  0
  1  6  1  0
  2  3  1  0
  3  4  2  0
  4  5  1  0
  4  7  1  0
  5  6  2  0
  7  8  2  0
  7  9  1  0
  9 10  2  0
 10 11  1  0
 11 12  2  0
 12 13  1  0
 12 16  1  0
 13 14  2  0
 13 15  1  0
M  END
>  <DRUGBANK_ID>  (1) 
DB07915

>  <COMMON_NAME>  (1) 
(2E,4E)-2-Hydroxy-6-oxo-6-phenyl-2,4-hexadienoic acid

$$$$
