
     RDKit          3D

 25 28  0  0  0  0  0  0  0  0999 V2000
    2.6642    0.4679   -0.6283 N   0  0  0  0  0  0  0  0  0  0  0  0
    2.1127   -0.8815   -0.9283 C   0  0  0  0  0  0  0  0  0  0  0  0
    1.0520   -1.5945    0.0220 C   0  0  0  0  0  0  0  0  0  0  0  0
   -0.2731   -0.8924    0.0702 C   0  0  0  0  0  0  0  0  0  0  0  0
   -0.3963    0.4682    0.4154 C   0  0  0  0  0  0  0  0  0  0  0  0
    0.8088    1.3175    0.8404 C   0  0  2  0  0  0  0  0  0  0  0  0
    1.6910    1.5353   -0.4048 C   0  0  0  0  0  0  0  0  0  0  0  0
   -1.6482    1.0945    0.2463 C   0  0  0  0  0  0  0  0  0  0  0  0
   -2.7607    0.3689   -0.1818 C   0  0  0  0  0  0  0  0  0  0  0  0
   -2.6444   -1.0049   -0.3987 C   0  0  0  0  0  0  0  0  0  0  0  0
   -1.4075   -1.6400   -0.2519 C   0  0  0  0  0  0  0  0  0  0  0  0
   -3.9044    1.0988   -0.3675 O   0  0  0  0  0  0  0  0  0  0  0  0
   -3.7730   -1.8224   -0.8341 N   0  0  0  0  0  0  0  0  0  0  0  0
   -4.8620   -1.2284   -1.0180 O   0  0  0  0  0  0  0  0  0  0  0  0
   -3.6002   -3.0248   -1.0069 O   0  0  0  0  0  0  0  0  0  0  0  0
    3.7549    0.9240   -1.4748 C   0  0  0  0  0  0  0  0  0  0  0  0
    0.7877    2.5738    3.5075 O   0  0  0  0  0  0  0  0  0  0  0  0
    1.2948    3.0422    4.7670 C   0  0  0  0  0  0  0  0  0  0  0  0
    2.1076    1.9498    5.4706 C   0  0  0  0  0  0  0  0  0  0  0  0
    2.1838    0.9438    4.3974 C   0  0  0  0  0  0  0  0  0  0  0  0
    1.4528    1.4031    3.3014 C   0  0  0  0  0  0  0  0  0  0  0  0
    2.9463   -0.2183    4.3462 C   0  0  0  0  0  0  0  0  0  0  0  0
    2.9240   -0.9310    3.1862 C   0  0  0  0  0  0  0  0  0  0  0  0
    2.4590   -0.2603    2.0771 C   0  0  0  0  0  0  0  0  0  0  0  0
    1.5611    0.8150    2.0751 C   0  0  0  0  0  0  0  0  0  0  0  0
  1  2  1  0
  1  7  1  0
  1 16  1  0
  2  3  1  0
  3  4  1  0
  4  5  2  0
  4 11  1  0
  5  6  1  0
  5  8  1  0
  6  7  1  0
  6 25  1  1
  8  9  2  0
  9 10  1  0
  9 12  1  0
 10 11  2  0
 10 13  1  0
 13 14  2  0
 13 15  1  0
 17 18  1  0
 17 21  1  0
 18 19  1  0
 19 20  1  0
 20 21  2  0
 20 22  1  0
 21 25  1  0
 22 23  2  0
 23 24  1  0
 24 25  2  0
M  CHG  2  13   1  15  -1
M  END
>  <DRUGBANK_ID>  (1) 
DB05419

>  <COMMON_NAME>  (1) 
ADX-10061

>  <CAS_NUMBER>  (1) 
128022-68-4

>  <UNII>  (1) 
K389NU4SEV

$$$$
