
     RDKit          3D

 41 45  0  0  1  0  0  0  0  0999 V2000
   -3.6883    0.8238    5.6210 C   0  0  0  0  0  0  0  0  0  0  0  0
   -3.6402   -1.5783    6.5620 C   0  0  0  0  0  0  0  0  0  0  0  0
    2.5076   -3.0851    1.2662 C   0  0  0  0  0  0  0  0  0  0  0  0
   -2.0581   -4.0665    0.4046 C   0  0  0  0  0  0  0  0  0  0  0  0
   -1.2321    1.2162    4.9739 C   0  0  0  0  0  0  0  0  0  0  0  0
    2.8682    0.6044    2.5620 C   0  0  0  0  0  0  0  0  0  0  0  0
   -1.3539    0.5536    1.6433 C   0  0  0  0  0  0  0  0  0  0  0  0
   -2.7145   -3.1670    9.4044 C   0  0  0  0  0  0  0  0  0  0  0  0
   -3.1114   -1.7102    9.6215 C   0  0  0  0  0  0  0  0  0  0  0  0
   -2.1018   -1.3628    4.0915 C   0  0  0  0  0  0  0  0  0  0  0  0
   -0.9865    1.5789    7.5683 C   0  0  0  0  0  0  0  0  0  0  0  0
    0.3463    1.0689    6.5768 C   0  0  0  0  0  0  0  0  0  0  0  0
   -1.0523   -1.5011    3.1158 C   0  0  0  0  0  0  0  0  0  0  0  0
    0.6936   -4.7279    2.1197 C   0  0  0  0  0  0  0  0  0  0  0  0
   -0.0731   -5.3570    0.9833 C   0  0  0  0  0  0  0  0  0  0  0  0
    1.4497   -2.9362    3.5557 C   0  0  0  0  0  0  0  0  0  0  0  0
    2.0812   -1.5891    3.6264 C   0  0  0  0  0  0  0  0  0  0  0  0
    0.9847    0.5937    0.9299 C   0  0  0  0  0  0  0  0  0  0  0  0
    0.1878   -3.0918   -0.3748 C   0  0  0  0  0  0  0  0  0  0  0  0
    1.1914   -0.7750    1.0756 C   0  0  0  0  0  0  0  0  0  0  0  0
    0.3732   -2.2450    0.9485 C   0  0  2  0  0  0  0  0  0  0  0  0
    0.5720    1.5673    2.4807 C   0  0  0  0  0  0  0  0  0  0  0  0
   -1.3943   -0.9863    5.4067 C   0  0  2  0  0  0  0  0  0  0  0  0
   -2.0348    0.3546    7.8268 C   0  0  1  0  0  0  0  0  0  0  0  0
   -2.3832   -3.7683   10.7334 C   0  0  0  0  0  0  0  0  0  0  0  0
   -1.8856   -0.8775    9.8525 C   0  0  0  0  0  0  0  0  0  0  0  0
    0.3914    0.6393    3.8091 C   0  0  1  0  0  0  0  0  0  0  0  0
   -0.8374   -5.1443   -1.4234 C   0  0  0  0  0  0  0  0  0  0  0  0
   -2.7100   -0.3840    6.3920 C   0  0  0  0  0  0  0  0  0  0  0  0
    1.1558   -3.2760    1.9982 C   0  0  1  0  0  0  0  0  0  0  0  0
   -0.6482   -4.4005   -0.0979 C   0  0  2  0  0  0  0  0  0  0  0  0
   -0.1904    0.2902    5.1905 C   0  0  1  0  0  0  0  0  0  0  0  0
    1.5268   -0.6140    2.5087 C   0  0  2  0  0  0  0  0  0  0  0  0
   -0.1924   -0.2756    2.7931 C   0  0  2  0  0  0  0  0  0  0  0  0
    0.1985    2.7804    2.4959 O   0  0  0  0  0  0  0  0  0  0  0  0
   -3.1068   -4.5097   11.3736 O   0  0  0  0  0  0  0  0  0  0  0  0
   -1.2136   -3.3149   11.2120 O   0  0  0  0  0  0  0  0  0  0  0  0
   -1.4100   -0.6760   10.9623 O   0  0  0  0  0  0  0  0  0  0  0  0
   -0.1761   -6.0727   -1.8557 O   0  0  0  0  0  0  0  0  0  0  0  0
   -1.8759   -4.6438   -2.1333 O   0  0  0  0  0  0  0  0  0  0  0  0
   -1.2819   -0.5211    8.6851 O   0  0  0  0  0  0  0  0  0  0  0  0
  9  8  1  0
 12 11  1  0
 13 10  1  0
 15 14  1  0
 17 16  1  0
 20 18  2  0
 21 19  1  6
 21 20  1  0
 22 18  1  0
 23 10  1  6
 24 11  1  0
 24 41  1  6
 25  8  1  0
 26  9  1  0
 27 22  1  6
 29 23  1  0
 29 24  1  0
 29  1  1  0
 29  2  1  0
 30 14  1  0
 30 16  1  0
 30 21  1  0
 30  3  1  6
 31 15  1  0
 31 19  1  0
 31 28  1  0
 31  4  1  1
 32 12  1  0
 32 23  1  0
 32 27  1  0
 32  5  1  6
 33 17  1  0
 33 20  1  0
 33  6  1  6
 34 13  1  0
 34 27  1  0
 34 33  1  0
 34  7  1  6
 35 22  2  0
 36 25  2  0
 37 25  1  0
 38 26  2  0
 39 28  2  0
 40 28  1  0
 41 26  1  0
M  END
>  <DRUGBANK_ID>  (1) 
DB02329

>  <SECONDARY_ACCESSION_NUMBERS>  (1) 
EXPT00848

>  <COMMON_NAME>  (1) 
Carbenoxolone

>  <CAS_NUMBER>  (1) 
5697-56-3

>  <UNII>  (1) 
MM6384NG73

>  <SYNONYMS>  (1) 
Carbenoxolona; Carbenoxolone

$$$$
