
     RDKit          3D

 23 26  0  0  1  0  0  0  0  0999 V2000
   -3.3185   -8.9099    1.0107 C   0  0  0  0  0  0  0  0  0  0  0  0
   -4.0337   -9.8863    0.2205 N   0  0  0  0  0  0  0  0  0  0  0  0
   -4.4074   -9.8240   -1.0958 C   0  0  0  0  0  0  0  0  0  0  0  0
   -5.1406  -10.6955   -1.5690 O   0  0  0  0  0  0  0  0  0  0  0  0
   -3.9470   -8.7121   -1.9584 C   0  0  0  0  0  0  0  0  0  0  0  0
   -2.6291   -8.2424   -1.9169 C   0  0  0  0  0  0  0  0  0  0  0  0
   -2.2153   -7.2066   -2.7508 C   0  0  0  0  0  0  0  0  0  0  0  0
   -3.0832   -6.7012   -3.7171 C   0  0  0  0  0  0  0  0  0  0  0  0
   -2.6400   -5.7488   -4.6473 C   0  0  0  0  0  0  0  0  0  0  0  0
   -3.4908   -5.2872   -5.6586 C   0  0  0  0  0  0  0  0  0  0  0  0
   -4.8044   -5.7938   -5.6860 C   0  0  0  0  0  0  0  0  0  0  0  0
   -5.2716   -6.7060   -4.7489 C   0  0  0  0  0  0  0  0  0  0  0  0
   -4.4122   -7.1891   -3.7732 C   0  0  0  0  0  0  0  0  0  0  0  0
   -4.8443   -8.1734   -2.8797 C   0  0  0  0  0  0  0  0  0  0  0  0
   -3.0062   -4.2412   -6.6500 C   0  0  1  0  0  0  0  0  0  0  0  0
   -1.8243   -4.6907   -7.5719 C   0  0  0  0  0  0  0  0  0  0  0  0
   -2.3144   -4.5659   -9.0327 C   0  0  0  0  0  0  0  0  0  0  0  0
   -3.6575   -4.0609   -8.9006 N   0  0  0  0  0  0  0  0  0  0  0  0
   -4.0356   -3.8274   -7.6213 C   0  0  0  0  0  0  0  0  0  0  0  0
   -5.3333   -3.3973   -7.7029 C   0  0  0  0  0  0  0  0  0  0  0  0
   -5.7464   -3.4312   -9.0179 N   0  0  0  0  0  0  0  0  0  0  0  0
   -4.6990   -3.8314   -9.7181 C   0  0  0  0  0  0  0  0  0  0  0  0
   -2.6093   -3.0659   -5.9583 O   0  0  0  0  0  0  0  0  0  0  0  0
  1  2  1  0
  2  3  1  0
  3  4  2  0
  3  5  1  0
  5  6  2  0
  5 14  1  0
  6  7  1  0
  7  8  2  0
  8  9  1  0
  8 13  1  0
  9 10  2  0
 10 11  1  0
 11 12  2  0
 12 13  1  0
 13 14  2  0
 15 16  1  0
 15 19  1  0
 15 23  1  1
 15 10  1  0
 16 17  1  0
 17 18  1  0
 18 19  1  0
 18 22  1  0
 19 20  2  0
 20 21  1  0
 21 22  2  0
M  END
>  <DRUGBANK_ID>  (1) 
DB12066

>  <COMMON_NAME>  (1) 
Orteronel

>  <CAS_NUMBER>  (1) 
566939-85-3

>  <UNII>  (1) 
UE5K2FNS92

>  <SYNONYMS>  (1) 
Orteronel

$$$$
