
     RDKit          3D

 21 23  0  0  1  0  0  0  0  0999 V2000
   -8.2379   -5.3898    1.5800 C   0  0  0  0  0  0  0  0  0  0  0  0
   -6.5617   -4.8674   -0.2132 C   0  0  0  0  0  0  0  0  0  0  0  0
   -5.6526   -4.0224   -0.8572 C   0  0  0  0  0  0  0  0  0  0  0  0
   -7.0599   -3.1703    1.4676 C   0  0  0  0  0  0  0  0  0  0  0  0
   -4.6758    3.1774    2.6396 C   0  0  0  0  0  0  0  0  0  0  0  0
   -7.2601   -4.4537    0.9315 C   0  0  0  0  0  0  0  0  0  0  0  0
   -5.4417   -2.7462   -0.3292 C   0  0  0  0  0  0  0  0  0  0  0  0
   -6.1431   -2.3530    0.8044 C   0  0  0  0  0  0  0  0  0  0  0  0
   -4.0475    2.5693    1.3809 C   0  0  2  0  0  0  0  0  0  0  0  0
   -4.3158    3.4660    0.1711 C   0  0  2  0  0  0  0  0  0  0  0  0
   -3.8004    2.7984   -1.1104 C   0  0  1  0  0  0  0  0  0  0  0  0
   -4.3457    1.3646   -1.2574 C   0  0  2  0  0  0  0  0  0  0  0  0
   -4.1022    0.5807    0.0517 C   0  0  2  0  0  0  0  0  0  0  0  0
   -4.7905   -0.7457    0.0627 C   0  0  0  0  0  0  0  0  0  0  0  0
   -4.6006   -1.7545   -0.7632 N   0  0  0  0  0  0  0  0  0  0  0  0
   -5.7056   -1.0810    1.0322 N   0  0  0  0  0  0  0  0  0  0  0  0
   -4.4539    2.3237    3.7611 O   0  0  0  0  0  0  0  0  0  0  0  0
   -3.7243    4.7500    0.3677 O   0  0  0  0  0  0  0  0  0  0  0  0
   -4.1476    3.5972   -2.2492 O   0  0  0  0  0  0  0  0  0  0  0  0
   -3.7300    0.7615   -2.4021 O   0  0  0  0  0  0  0  0  0  0  0  0
   -4.6370    1.2811    1.1877 O   0  0  0  0  0  0  0  0  0  0  0  0
  3  2  2  0
  6  1  1  0
  6  2  1  0
  6  4  2  0
  7  3  1  0
  8  4  1  0
  8  7  2  0
  9  5  1  1
 10  9  1  0
 10 18  1  1
 11 10  1  0
 11 19  1  6
 12 11  1  0
 12 20  1  6
 13 12  1  0
 13 14  1  6
 15  7  1  0
 15 14  2  0
 16  8  1  0
 16 14  1  0
 17  5  1  0
 21  9  1  0
 21 13  1  0
M  END
>  <DRUGBANK_ID>  (1) 
DB03133

>  <SECONDARY_ACCESSION_NUMBERS>  (1) 
EXPT01871

>  <COMMON_NAME>  (1) 
2-(Beta-D-Glucopyranosyl)-5-Methyl-1,2,3-Benzimidazole

$$$$
