
     RDKit          3D

 28 31  0  0  0  0  0  0  0  0999 V2000
    1.0835    0.1181   -0.0073 C   0  0  0  0  0  0  0  0  0  0  0  0
    0.6784   -1.0243    0.7835 N   0  0  0  0  0  0  0  0  0  0  0  0
   -0.2671   -0.9835    1.7930 C   0  0  0  0  0  0  0  0  0  0  0  0
   -0.5780   -2.0181    2.5178 N   0  0  0  0  0  0  0  0  0  0  0  0
   -0.0278   -3.2616    2.1836 C   0  0  0  0  0  0  0  0  0  0  0  0
   -0.4897   -4.4095    2.8251 C   0  0  0  0  0  0  0  0  0  0  0  0
   -0.1228   -5.6729    2.3514 C   0  0  0  0  0  0  0  0  0  0  0  0
    0.8860   -5.7967    1.3974 C   0  0  0  0  0  0  0  0  0  0  0  0
    1.4164   -4.6575    0.8093 C   0  0  0  0  0  0  0  0  0  0  0  0
    0.8858   -3.4126    1.1476 C   0  0  0  0  0  0  0  0  0  0  0  0
    1.2522   -2.2263    0.3771 C   0  0  0  0  0  0  0  0  0  0  0  0
    1.9956   -2.3492   -0.5929 O   0  0  0  0  0  0  0  0  0  0  0  0
   -1.0994    0.2967    1.9978 C   0  0  0  0  0  0  0  0  0  0  0  0
   -2.5227    0.1505    1.8630 O   0  0  0  0  0  0  0  0  0  0  0  0
   -2.9476   -0.1812    0.6035 C   0  0  0  0  0  0  0  0  0  0  0  0
   -2.4476   -1.2641   -0.1060 C   0  0  0  0  0  0  0  0  0  0  0  0
   -2.8075   -1.4924   -1.4211 C   0  0  0  0  0  0  0  0  0  0  0  0
   -3.7670   -0.6995   -2.0353 C   0  0  0  0  0  0  0  0  0  0  0  0
   -4.4475    0.2410   -1.2509 C   0  0  0  0  0  0  0  0  0  0  0  0
   -4.0045    0.5332    0.0487 C   0  0  0  0  0  0  0  0  0  0  0  0
   -3.9982   -0.8280   -3.5227 C   0  0  0  0  0  0  0  0  0  0  0  0
   -2.8055   -0.3827   -4.3949 C   0  0  0  0  0  0  0  0  0  0  0  0
   -2.3486    1.0079   -4.0039 C   0  0  0  0  0  0  0  0  0  0  0  0
   -3.0227    2.0229   -4.1285 O   0  0  0  0  0  0  0  0  0  0  0  0
   -1.0945    1.0059   -3.4756 N   0  0  0  0  0  0  0  0  0  0  0  0
   -0.3703   -0.1410   -3.5312 C   0  0  0  0  0  0  0  0  0  0  0  0
    0.7691   -0.2714   -3.1484 O   0  0  0  0  0  0  0  0  0  0  0  0
   -1.2908   -1.4077   -4.3041 S   0  0  0  0  0  0  0  0  0  0  0  0
  1  2  1  0
  2  3  1  0
  2 11  1  0
  3  4  2  0
  3 13  1  0
  4  5  1  0
  5  6  1  0
  5 10  2  0
  6  7  2  0
  7  8  1  0
  8  9  2  0
  9 10  1  0
 10 11  1  0
 11 12  2  0
 13 14  1  0
 14 15  1  0
 15 16  2  0
 15 20  1  0
 16 17  1  0
 17 18  2  0
 18 19  1  0
 18 21  1  0
 19 20  2  0
 21 22  1  0
 22 23  1  0
 22 28  1  0
 23 24  2  0
 23 25  1  0
 25 26  1  0
 26 27  2  0
 26 28  1  0
M  END
>  <DRUGBANK_ID>  (1) 
DB12781

>  <COMMON_NAME>  (1) 
Balaglitazone

>  <CAS_NUMBER>  (1) 
199113-98-9

>  <UNII>  (1) 
4M1609828O

>  <SYNONYMS>  (1) 
Balaglitazone

$$$$
