
     RDKit          3D

 31 34  0  0  0  0  0  0  0  0999 V2000
    5.4603    0.5597    2.5901 F   0  0  0  0  0  0  0  0  0  0  0  0
    4.8899    1.4084    3.4888 C   0  0  0  0  0  0  0  0  0  0  0  0
    3.5629    1.4421    3.1766 F   0  0  0  0  0  0  0  0  0  0  0  0
    4.9750    0.7950    4.6996 F   0  0  0  0  0  0  0  0  0  0  0  0
    5.5151    2.7757    3.4533 C   0  0  0  0  0  0  0  0  0  0  0  0
    5.4695    3.5053    2.2544 C   0  0  0  0  0  0  0  0  0  0  0  0
    5.9945    4.8016    2.1693 C   0  0  0  0  0  0  0  0  0  0  0  0
    5.8655    5.6874    0.9426 C   0  0  0  0  0  0  0  0  0  0  0  0
    4.9635    6.9006    1.1535 C   0  0  0  0  0  0  0  0  0  0  0  0
    3.7751    7.0925    0.5445 C   0  0  0  0  0  0  0  0  0  0  0  0
    3.0743    8.2596    0.7621 N   0  0  0  0  0  0  0  0  0  0  0  0
    3.4052    9.2292    1.6458 C   0  0  0  0  0  0  0  0  0  0  0  0
    2.7194   10.2324    1.7816 O   0  0  0  0  0  0  0  0  0  0  0  0
    4.5454    9.0079    2.3355 N   0  0  0  0  0  0  0  0  0  0  0  0
    5.4265    8.0185    2.0364 C   0  0  0  0  0  0  0  0  0  0  0  0
    6.5752    8.1005    2.4738 O   0  0  0  0  0  0  0  0  0  0  0  0
    3.1619    6.0694   -0.3982 C   0  0  1  0  0  0  0  0  0  0  0  0
    2.9245    4.6963    0.2542 C   0  0  0  0  0  0  0  0  0  0  0  0
    1.8936    4.7478    1.3662 C   0  0  0  0  0  0  0  0  0  0  0  0
    0.5430    5.1488    0.7575 C   0  0  1  0  0  0  0  0  0  0  0  0
    0.6843    6.5043    0.0500 C   0  0  0  0  0  0  0  0  0  0  0  0
    1.8354    6.5389   -0.9907 C   0  0  0  0  0  0  0  0  0  0  0  0
    0.0326    4.0554   -0.1636 C   0  0  0  0  0  0  0  0  0  0  0  0
   -0.1213    2.7696    0.3612 C   0  0  0  0  0  0  0  0  0  0  0  0
   -0.4918    1.7152   -0.4631 C   0  0  0  0  0  0  0  0  0  0  0  0
   -0.7206    1.9314   -1.8204 C   0  0  0  0  0  0  0  0  0  0  0  0
   -0.6102    3.2063   -2.3523 C   0  0  0  0  0  0  0  0  0  0  0  0
   -0.2422    4.2563   -1.5269 C   0  0  0  0  0  0  0  0  0  0  0  0
    6.6368    5.3033    3.2990 C   0  0  0  0  0  0  0  0  0  0  0  0
    6.6412    4.6267    4.5081 C   0  0  0  0  0  0  0  0  0  0  0  0
    6.1197    3.3448    4.5779 C   0  0  0  0  0  0  0  0  0  0  0  0
  1  2  1  0
  2  3  1  0
  2  4  1  0
  2  5  1  0
  5  6  2  0
  5 31  1  0
  6  7  1  0
  7  8  1  0
  7 29  2  0
  8  9  1  0
  9 10  2  0
  9 15  1  0
 10 11  1  0
 11 12  1  0
 12 13  2  0
 12 14  1  0
 14 15  1  0
 15 16  2  0
 17 18  1  0
 17 22  1  0
 17 10  1  1
 18 19  1  0
 20 19  1  0
 20 21  1  0
 20 23  1  6
 21 22  1  0
 23 24  2  0
 23 28  1  0
 24 25  1  0
 25 26  2  0
 26 27  1  0
 27 28  2  0
 29 30  1  0
 30 31  2  0
M  END
>  <DRUGBANK_ID>  (1) 
DB16234

>  <COMMON_NAME>  (1) 
Miricorilant

>  <CAS_NUMBER>  (1) 
1400902-13-7

>  <UNII>  (1) 
311Y5GV21M

>  <SYNONYMS>  (1) 
Miricorilant

$$$$
