F77
     RDKit          3D

 23 24  0  0  0  0  0  0  0  0999 V2000
    1.0704   -0.1675    0.0103 C   0  0  0  0  0  0  0  0  0  0  0  0
    0.6011    0.4156   -1.3007 C   0  0  0  0  0  0  0  0  0  0  0  0
    0.7086    1.9274   -1.3999 C   0  0  0  0  0  0  0  0  0  0  0  0
    1.2789    2.7192   -0.3971 C   0  0  0  0  0  0  0  0  0  0  0  0
    1.4362    4.1041   -0.5620 C   0  0  0  0  0  0  0  0  0  0  0  0
    0.9515    4.7579   -1.7097 C   0  0  0  0  0  0  0  0  0  0  0  0
    0.1081    4.0008   -2.5478 C   0  0  0  0  0  0  0  0  0  0  0  0
    0.1303    2.5732   -2.5052 C   0  0  0  0  0  0  0  0  0  0  0  0
   -0.2750    1.6990   -3.6740 C   0  0  0  0  0  0  0  0  0  0  0  0
   -0.9078    4.6706   -3.4181 C   0  0  0  0  0  0  0  0  0  0  0  0
   -1.5513    4.1945   -4.3122 O   0  0  0  0  0  0  0  0  0  0  0  0
   -0.9979    5.9712   -3.1006 O   0  0  0  0  0  0  0  0  0  0  0  0
    1.6258    6.0187   -2.0436 N   0  0  0  0  0  0  0  0  0  0  0  0
    1.5621    6.9587   -3.4985 S   0  0  0  0  0  0  0  0  0  0  0  0
    0.4565    7.8918   -3.3690 O   0  0  0  0  0  0  0  0  0  0  0  0
    2.8903    7.5077   -3.6870 O   0  0  0  0  0  0  0  0  0  0  0  0
    1.1841    5.8713   -5.0041 C   0  0  0  0  0  0  0  0  0  0  0  0
    1.6088    4.5362   -5.0047 C   0  0  0  0  0  0  0  0  0  0  0  0
    1.0310    3.6040   -5.9009 C   0  0  0  0  0  0  0  0  0  0  0  0
    0.0429    3.9699   -6.8042 C   0  0  0  0  0  0  0  0  0  0  0  0
   -0.3643    5.2913   -6.8696 C   0  0  0  0  0  0  0  0  0  0  0  0
    0.1962    6.2458   -5.9724 C   0  0  0  0  0  0  0  0  0  0  0  0
   -0.5893    3.0178   -7.5100 F   0  0  0  0  0  0  0  0  0  0  0  0
  1  2  1  0
  2  3  1  0
  3  4  2  0
  3  8  1  0
  4  5  1  0
  5  6  2  0
  6  7  1  0
  6 13  1  0
  7  8  2  0
  7 10  1  0
  8  9  1  0
 10 11  2  0
 10 12  1  0
 13 14  1  0
 14 15  2  0
 14 16  2  0
 14 17  1  0
 17 18  2  0
 17 22  1  0
 18 19  1  0
 19 20  2  0
 20 21  1  0
 20 23  1  0
 21 22  2  0
M  END
>  <DRUGBANK_ID>  (1) 
DB07746

>  <COMMON_NAME>  (1) 
3-ETHYL-6-{[(4-FLUOROPHENYL)SULFONYL]AMINO}-2-METHYLBENZOIC ACID

$$$$
