
     RDKit          3D

 29 32  0  0  0  0  0  0  0  0999 V2000
    0.9579    0.0289   -0.1190 C   0  0  0  0  0  0  0  0  0  0  0  0
    0.4072    0.1652   -1.4292 O   0  0  0  0  0  0  0  0  0  0  0  0
   -0.9676    0.1234   -1.3943 C   0  0  0  0  0  0  0  0  0  0  0  0
   -1.6068    1.2644   -1.7135 N   0  0  0  0  0  0  0  0  0  0  0  0
   -2.9572    1.1694   -1.7009 C   0  0  0  0  0  0  0  0  0  0  0  0
   -3.7062    0.0492   -1.4337 C   0  0  0  0  0  0  0  0  0  0  0  0
   -3.0258   -1.1043   -1.0926 C   0  0  0  0  0  0  0  0  0  0  0  0
   -1.6263   -1.0670   -1.0785 C   0  0  0  0  0  0  0  0  0  0  0  0
   -5.1678    0.3650   -1.4926 C   0  0  2  0  0  0  0  0  0  0  0  0
   -5.8982    0.4893   -0.0959 C   0  0  0  0  0  0  0  0  0  0  0  0
   -7.4074    0.6796   -0.3597 C   0  0  0  0  0  0  0  0  0  0  0  0
   -7.9783   -0.3544   -1.3198 C   0  0  1  0  0  0  0  0  0  0  0  0
   -7.3910    0.0069   -2.7266 C   0  0  0  0  0  0  0  0  0  0  0  0
   -5.9001   -0.3804   -2.7070 C   0  0  0  0  0  0  0  0  0  0  0  0
   -7.5282   -1.7621   -0.8044 C   0  0  0  0  0  0  0  0  0  0  0  0
   -6.3295   -2.0716   -0.8299 O   0  0  0  0  0  0  0  0  0  0  0  0
   -8.3865   -2.6823   -0.2533 N   0  0  0  0  0  0  0  0  0  0  0  0
   -9.6206   -2.3863    0.4361 C   0  0  0  0  0  0  0  0  0  0  0  0
   -7.8374   -4.0439   -0.1032 C   0  0  0  0  0  0  0  0  0  0  0  0
   -7.7612   -4.8056   -1.4453 C   0  0  0  0  0  0  0  0  0  0  0  0
   -6.9515   -4.1187   -2.4677 N   0  0  0  0  0  0  0  0  0  0  0  0
   -7.7556   -3.4983   -3.5242 C   0  0  0  0  0  0  0  0  0  0  0  0
   -8.3773   -4.5346   -4.4451 C   0  0  0  0  0  0  0  0  0  0  0  0
   -7.2813   -5.4311   -5.0128 C   0  0  0  0  0  0  0  0  0  0  0  0
   -6.4391   -6.0359   -3.8895 C   0  0  0  0  0  0  0  0  0  0  0  0
   -5.8668   -4.9311   -3.0102 C   0  0  0  0  0  0  0  0  0  0  0  0
   -5.1179    1.7752   -1.9140 O   0  0  0  0  0  0  0  0  0  0  0  0
   -3.8678    2.3010   -1.7839 C   0  0  0  0  0  0  0  0  0  0  0  0
   -3.6122    3.5002   -1.6800 O   0  0  0  0  0  0  0  0  0  0  0  0
  1  2  1  0
  2  3  1  0
  3  4  2  0
  3  8  1  0
  4  5  1  0
  5  6  2  0
  5 28  1  0
  6  7  1  0
  7  8  2  0
  9  6  1  0
  9 10  1  1
  9 14  1  0
  9 27  1  0
 10 11  1  0
 12 11  1  0
 12 13  1  0
 12 15  1  1
 13 14  1  0
 15 16  2  0
 15 17  1  0
 17 18  1  0
 17 19  1  0
 19 20  1  0
 20 21  1  0
 21 22  1  0
 21 26  1  0
 22 23  1  0
 23 24  1  0
 24 25  1  0
 25 26  1  0
 27 28  1  0
 28 29  2  0
M  END
>  <DRUGBANK_ID>  (1) 
DB17094

>  <COMMON_NAME>  (1) 
MK-7288

>  <CAS_NUMBER>  (1) 
936626-07-2

>  <UNII>  (1) 
19EF2T21ST

>  <SYNONYMS>  (1) 
MK-7288 free base; Spiro(cyclohexane-1,5'(7'h)-furo(3,4-b)pyridine)-4-carboxamide, 2'-methoxy-n-methyl-7'-oxo-n-(2-(1-piperidinyl)ethyl)-, trans-

$$$$
