
     RDKit          3D

 11 11  0  0  0  0  0  0  0  0999 V2000
    0.7345    1.1504   -0.2352 O   0  0  0  0  0  0  0  0  0  0  0  0
    1.4439   -0.0216    0.1992 C   0  0  1  0  0  0  0  0  0  0  0  0
   -0.6011    1.2265    0.2782 C   0  0  1  0  0  0  0  0  0  0  0  0
   -1.4317    0.0089   -0.1794 C   0  0  1  0  0  0  0  0  0  0  0  0
   -0.7203   -1.2836    0.2343 C   0  0  2  0  0  0  0  0  0  0  0  0
    0.7185   -1.2909   -0.2856 C   0  0  1  0  0  0  0  0  0  0  0  0
   -0.5716    1.4206    1.6860 O   0  0  0  0  0  0  0  0  0  0  0  0
   -2.7580    0.0321    0.3525 O   0  0  0  0  0  0  0  0  0  0  0  0
   -1.4634   -2.4036   -0.2608 O   0  0  0  0  0  0  0  0  0  0  0  0
    0.6751   -1.3606   -1.7212 O   0  0  0  0  0  0  0  0  0  0  0  0
    2.8667    0.0468   -0.3393 C   0  0  0  0  0  0  0  0  0  0  0  0
  2  1  1  0
  2 11  1  6
  3  1  1  0
  3  7  1  1
  3  4  1  0
  4  5  1  0
  4  8  1  1
  5  9  1  6
  5  6  1  0
  6  2  1  0
  6 10  1  6
M  END
>  <DRUGBANK_ID>  (1) 
DB03485

>  <SECONDARY_ACCESSION_NUMBERS>  (1) 
EXPT01400

>  <COMMON_NAME>  (1) 
alpha-D-Fucopyranose

>  <CAS_NUMBER>  (1) 
6189-71-5

>  <UNII>  (1) 
K15K52FOK4

>  <SYNONYMS>  (1) 
6-deoxy-alpha-D-galactopyranose; 6-deoxy-α-D-galactopyranose; alpha-D-fucose; α-D-fucopyranose

$$$$
