1534
     RDKit          3D

 14 13  0  0  1  0  0  0  0  0999 V2000
    0.2611   -0.5970   -0.2305 Cl  0  0  0  0  0  0  0  0  0  0  0  0
    2.7913   -2.0537    0.2289 Cl  0  0  0  0  0  0  0  0  0  0  0  0
    2.5737   -0.3284   -1.9419 Cl  0  0  0  0  0  0  0  0  0  0  0  0
    2.2290    2.0328    1.0831 O   0  0  0  0  0  0  0  0  0  0  0  0
    5.1977    0.5042   -0.9006 O   0  0  0  0  0  0  0  0  0  0  0  0
    2.2802    0.1043    2.3144 O   0  0  0  0  0  0  0  0  0  0  0  0
    5.5089    1.2108    0.3117 C   0  0  0  0  0  0  0  0  0  0  0  0
    4.7245    2.6101    0.3954 C   0  0  0  0  0  0  0  0  0  0  0  0
    3.1370    2.8583    0.3173 C   0  0  0  0  0  0  0  0  0  0  0  0
    7.0184    1.4417    0.1750 C   0  0  0  0  0  0  0  0  0  0  0  0
    5.4537    0.2201    1.5214 C   0  0  0  0  0  0  0  0  0  0  0  0
    2.5582    2.7533   -1.0675 C   0  0  0  0  0  0  0  0  0  0  0  0
    2.4500    0.6248    0.9848 C   0  0  0  0  0  0  0  0  0  0  0  0
    2.0278   -0.4387   -0.1823 C   0  0  0  0  0  0  0  0  0  0  0  0
  1 14  1  0
  2 14  1  0
  3 14  1  0
  4  9  1  0
  4 13  1  0
  5  7  1  0
  6 13  1  0
  7  8  1  0
  7 10  1  0
  7 11  1  0
  8  9  1  0
  9 12  1  0
 13 14  1  0
M  END
>  <DRUGBANK_ID>  (1) 
DB01534

>  <COMMON_NAME>  (1) 
Chlorhexadol

>  <CAS_NUMBER>  (1) 
3563-58-4

>  <UNII>  (1) 
W8RD4N93R2

>  <SYNONYMS>  (1) 
Chloralodol; Chloralodolum; Cloralodol

$$$$
