
     RDKit          3D

 23 25  0  0  0  0  0  0  0  0999 V2000
    0.9786   -0.1511    0.0448 C   0  0  0  0  0  0  0  0  0  0  0  0
    0.5344   -0.5222    1.4236 C   0  0  0  0  0  0  0  0  0  0  0  0
    0.0017    0.3640    2.3580 C   0  0  0  0  0  0  0  0  0  0  0  0
   -0.3523   -0.3120    3.4892 N   0  0  0  0  0  0  0  0  0  0  0  0
   -0.0771   -1.6000    3.3040 C   0  0  0  0  0  0  0  0  0  0  0  0
    0.4863   -1.8262    2.0201 N   0  0  0  0  0  0  0  0  0  0  0  0
    0.8685   -3.1094    1.4039 C   0  0  0  0  0  0  0  0  0  0  0  0
    2.1506   -3.3116    0.8477 C   0  0  0  0  0  0  0  0  0  0  0  0
    2.4439   -4.4454    0.0445 C   0  0  0  0  0  0  0  0  0  0  0  0
    1.4918   -5.4360   -0.1405 C   0  0  0  0  0  0  0  0  0  0  0  0
    0.2749   -5.3426    0.5203 C   0  0  0  0  0  0  0  0  0  0  0  0
   -0.0500   -4.1749    1.2662 C   0  0  0  0  0  0  0  0  0  0  0  0
    1.7440   -6.4728   -0.9567 F   0  0  0  0  0  0  0  0  0  0  0  0
   -0.2764   -2.5862    4.4283 C   0  0  0  0  0  0  0  0  0  0  0  0
   -0.2119    1.8137    2.2606 C   0  0  0  0  0  0  0  0  0  0  0  0
   -0.3829    3.0262    2.1845 C   0  0  0  0  0  0  0  0  0  0  0  0
   -0.5524    4.4839    2.0860 C   0  0  0  0  0  0  0  0  0  0  0  0
   -1.0141    5.0964    0.9111 C   0  0  0  0  0  0  0  0  0  0  0  0
   -1.1384    6.4895    0.8563 C   0  0  0  0  0  0  0  0  0  0  0  0
   -0.7388    7.3184    1.8382 N   0  0  0  0  0  0  0  0  0  0  0  0
   -0.2849    6.7177    2.9534 C   0  0  0  0  0  0  0  0  0  0  0  0
   -0.2382    5.3368    3.1525 C   0  0  0  0  0  0  0  0  0  0  0  0
    0.3202    7.8113    4.1355 Cl  0  0  0  0  0  0  0  0  0  0  0  0
  1  2  1  0
  2  3  2  0
  2  6  1  0
  3  4  1  0
  3 15  1  0
  4  5  2  0
  5  6  1  0
  5 14  1  0
  6  7  1  0
  7  8  2  0
  7 12  1  0
  8  9  1  0
  9 10  2  0
 10 11  1  0
 10 13  1  0
 11 12  2  0
 15 16  3  0
 16 17  1  0
 17 18  2  0
 17 22  1  0
 18 19  1  0
 19 20  2  0
 20 21  1  0
 21 22  2  0
 21 23  1  0
M  END
>  <DRUGBANK_ID>  (1) 
DB11833

>  <COMMON_NAME>  (1) 
Basimglurant

>  <CAS_NUMBER>  (1) 
802906-73-6

>  <UNII>  (1) 
3110E3AO8S

>  <SYNONYMS>  (1) 
Basimglurant

$$$$
