
     RDKit          3D

 18 19  0  0  1  0  0  0  0  0999 V2000
   11.3277   -1.5350    4.5454 N   0  0  0  0  0  0  0  0  0  0  0  0
   10.1707   -0.9437    4.1925 C   0  0  0  0  0  0  0  0  0  0  0  0
    9.1432   -1.6664    3.8845 N   0  0  0  0  0  0  0  0  0  0  0  0
    7.9561   -1.0039    3.5563 C   0  0  0  0  0  0  0  0  0  0  0  0
    6.9119   -1.8030    3.2286 N   0  0  0  0  0  0  0  0  0  0  0  0
    5.7528   -1.1715    2.9138 C   0  0  0  0  0  0  0  0  0  0  0  0
    5.6061    0.2102    2.9595 C   0  0  0  0  0  0  0  0  0  0  0  0
    6.6396    1.0054    3.3450 N   0  0  0  0  0  0  0  0  0  0  0  0
    7.8146    0.3724    3.5875 C   0  0  0  0  0  0  0  0  0  0  0  0
    9.0298    1.1644    3.8720 C   0  0  0  0  0  0  0  0  0  0  0  0
    9.0704    2.3843    3.8345 O   0  0  0  0  0  0  0  0  0  0  0  0
   10.1472    0.4197    4.1837 N   0  0  0  0  0  0  0  0  0  0  0  0
    4.3253    0.8799    2.4965 C   0  0  1  0  0  0  0  0  0  0  0  0
    3.7641    1.6923    3.5310 O   0  0  0  0  0  0  0  0  0  0  0  0
    4.5043    1.7163    1.2000 C   0  0  2  0  0  0  0  0  0  0  0  0
    4.3288    0.8670    0.0437 O   0  0  0  0  0  0  0  0  0  0  0  0
    5.8807    2.3915    1.0779 C   0  0  0  0  0  0  0  0  0  0  0  0
    5.9655    3.1743   -0.1108 O   0  0  0  0  0  0  0  0  0  0  0  0
  1  2  1  0
  2  3  2  0
  2 12  1  0
  3  4  1  0
  4  5  2  0
  4  9  1  0
  5  6  1  0
  6  7  2  0
  7  8  1  0
  7 13  1  0
  8  9  2  0
  9 10  1  0
 10 11  2  0
 10 12  1  0
 13 14  1  1
 15 17  1  0
 15 16  1  6
 15 13  1  0
 17 18  1  0
M  END
>  <DRUGBANK_ID>  (1) 
DB02385

>  <SECONDARY_ACCESSION_NUMBERS>  (1) 
EXPT02326

>  <COMMON_NAME>  (1) 
D-threo-neopterin

>  <CAS_NUMBER>  (1) 
10162-32-0

>  <UNII>  (1) 
26C7CRZ5LJ

>  <SYNONYMS>  (1) 
D-monapterin; D-threo-monapterin; Monapterin; Neopterin D-threo-form

$$$$
