
     RDKit          3D

 12 12  0  0  0  0  0  0  0  0999 V2000
   -0.6778   -1.1966    0.0074 C   0  0  0  0  0  0  0  0  0  0  0  0
    0.7201   -1.1877    0.0024 C   0  0  0  0  0  0  0  0  0  0  0  0
   -0.6846    1.2228    0.0065 C   0  0  0  0  0  0  0  0  0  0  0  0
   -1.3689    0.0105   -0.0007 C   0  0  0  0  0  0  0  0  0  0  0  0
    1.4186    0.0236   -0.0022 C   0  0  0  0  0  0  0  0  0  0  0  0
    0.7194    1.2292    0.0127 C   0  0  0  0  0  0  0  0  0  0  0  0
   -2.7315    0.0507   -0.0162 O   0  0  0  0  0  0  0  0  0  0  0  0
    2.7781   -0.0012   -0.0287 O   0  0  0  0  0  0  0  0  0  0  0  0
    0.9784    3.5363   -1.2809 O   0  0  0  0  0  0  0  0  0  0  0  0
    1.0242    3.5286    1.1980 O   0  0  0  0  0  0  0  0  0  0  0  0
    2.9563    2.6586   -0.1739 O   0  0  0  0  0  0  0  0  0  0  0  0
    1.5374    2.8063    0.0511 S   0  0  0  0  0  0  0  0  0  0  0  0
  2  1  2  0
  4  1  1  0
  4  3  2  0
  5  2  1  0
  6  3  1  0
  6  5  2  0
  7  4  1  0
  8  5  1  0
 12  6  1  0
 12  9  1  0
 12 10  2  0
 12 11  2  0
M  END
>  <DRUGBANK_ID>  (1) 
DB13529

>  <COMMON_NAME>  (1) 
Dobesilic acid

>  <CAS_NUMBER>  (1) 
88-46-0

>  <UNII>  (1) 
TO0PAT081I

$$$$
