1156
     RDKit          3D

 16 16  0  0  1  0  0  0  0  0999 V2000
   -2.0912   -0.0745   -0.0260 Cl  0  0  0  0  0  0  0  0  0  0  0  0
    3.6990    2.4311   -0.0688 O   0  0  0  0  0  0  0  0  0  0  0  0
    0.8456    3.9666   -1.1470 N   0  0  0  0  0  0  0  0  0  0  0  0
    0.1078    5.2423   -1.2538 C   0  0  0  0  0  0  0  0  0  0  0  0
    1.7212    3.7954    0.0414 C   0  0  0  0  0  0  0  0  0  0  0  0
    1.0953    6.4158   -1.2869 C   0  0  0  0  0  0  0  0  0  0  0  0
   -0.6990    5.2301   -2.5691 C   0  0  0  0  0  0  0  0  0  0  0  0
   -0.9451    5.4366   -0.1520 C   0  0  0  0  0  0  0  0  0  0  0  0
    1.0596    3.8445    1.4214 C   0  0  0  0  0  0  0  0  0  0  0  0
    2.4736    2.4602   -0.0555 C   0  0  0  0  0  0  0  0  0  0  0  0
    1.7040    1.1749   -0.0598 C   0  0  0  0  0  0  0  0  0  0  0  0
    0.3052    1.1370   -0.0989 C   0  0  0  0  0  0  0  0  0  0  0  0
    2.4178   -0.0263   -0.0031 C   0  0  0  0  0  0  0  0  0  0  0  0
   -0.3712   -0.0734   -0.0495 C   0  0  0  0  0  0  0  0  0  0  0  0
    1.7338   -1.2436    0.0026 C   0  0  0  0  0  0  0  0  0  0  0  0
    0.3377   -1.2664   -0.0151 C   0  0  0  0  0  0  0  0  0  0  0  0
  1 14  1  0
  2 10  2  0
  3  4  1  0
  3  5  1  0
  4  6  1  0
  4  7  1  0
  4  8  1  0
  5  9  1  0
  5 10  1  0
 10 11  1  0
 11 12  2  0
 11 13  1  0
 12 14  1  0
 13 15  2  0
 14 16  2  0
 15 16  1  0
M  END
>  <DRUGBANK_ID>  (1) 
DB01156

>  <SECONDARY_ACCESSION_NUMBERS>  (1) 
APRD00621

>  <COMMON_NAME>  (1) 
Bupropion

>  <CAS_NUMBER>  (1) 
34911-55-2

>  <UNII>  (1) 
01ZG3TPX31

>  <SYNONYMS>  (1) 
Amfebutamone; Bupropion

$$$$
