
     RDKit          3D

 16 19  0  0  1  0  0  0  0  0999 V2000
    0.6592    1.4603   -0.4767 C   0  0  0  0  0  0  0  0  0  0  0  0
    0.7553    0.2716    0.4008 C   0  0  2  0  0  0  0  0  0  0  0  0
    0.6200   -1.1294   -0.1660 C   0  0  0  0  0  0  0  0  0  0  0  0
   -0.7980   -1.3753    0.1206 N   0  0  0  0  0  0  0  0  0  0  0  0
   -1.4724   -0.1395   -0.3220 C   0  0  0  0  0  0  0  0  0  0  0  0
   -0.5987    0.9657    0.2476 C   0  0  2  0  0  0  0  0  0  0  0  0
   -1.4720    2.1193    0.8260 C   0  0  0  0  0  0  0  0  0  0  0  0
   -1.9595    3.1372   -0.0309 C   0  0  0  0  0  0  0  0  0  0  0  0
   -2.9835    4.0503    0.3291 C   0  0  0  0  0  0  0  0  0  0  0  0
   -3.6034    3.9867    1.5885 C   0  0  0  0  0  0  0  0  0  0  0  0
   -4.6441    4.8845    1.9607 C   0  0  0  0  0  0  0  0  0  0  0  0
   -5.2511    4.7964    3.2176 C   0  0  0  0  0  0  0  0  0  0  0  0
   -4.8460    3.8033    4.0942 C   0  0  0  0  0  0  0  0  0  0  0  0
   -3.8295    2.9044    3.7257 C   0  0  0  0  0  0  0  0  0  0  0  0
   -3.1729    2.9876    2.4721 C   0  0  0  0  0  0  0  0  0  0  0  0
   -2.1209    2.0773    2.0832 C   0  0  0  0  0  0  0  0  0  0  0  0
  2  1  1  6
  2  3  1  0
  2  6  1  0
  3  4  1  0
  4  5  1  0
  6  5  1  0
  6  1  1  0
  6  7  1  1
  7  8  2  0
  7 16  1  0
  8  9  1  0
  9 10  2  0
 10 11  1  0
 10 15  1  0
 11 12  2  0
 12 13  1  0
 13 14  2  0
 14 15  1  0
 15 16  2  0
M  END
>  <DRUGBANK_ID>  (1) 
DB14841

>  <COMMON_NAME>  (1) 
Centanafadine

>  <CAS_NUMBER>  (1) 
924012-43-1

>  <UNII>  (1) 
D2A6T4UH9C

>  <SYNONYMS>  (1) 
Centanafadine

$$$$
