TBA
     RDKit          3D

 17 16  0  0  0  0  0  0  0  0999 V2000
    0.9285    0.0614    0.0162 N   0  0  0  0  0  0  0  0  0  0  0  0
    0.0961   -1.1300   -0.5860 C   0  0  0  0  0  0  0  0  0  0  0  0
    0.2522   -2.4005    0.2008 C   0  0  0  0  0  0  0  0  0  0  0  0
    0.4037    0.3555    1.4655 C   0  0  0  0  0  0  0  0  0  0  0  0
    0.7517    1.6312    2.2798 C   0  0  0  0  0  0  0  0  0  0  0  0
    0.6059    1.2055   -1.0142 C   0  0  0  0  0  0  0  0  0  0  0  0
    1.2607    2.5092   -0.6547 C   0  0  0  0  0  0  0  0  0  0  0  0
    2.4772   -0.1909    0.0144 C   0  0  0  0  0  0  0  0  0  0  0  0
    3.1634   -1.4242    0.6621 C   0  0  0  0  0  0  0  0  0  0  0  0
   -0.1064   -2.7010    1.6346 C   0  0  0  0  0  0  0  0  0  0  0  0
   -1.5758   -2.5414    1.7930 C   0  0  0  0  0  0  0  0  0  0  0  0
    0.0013    2.9741    2.0310 C   0  0  0  0  0  0  0  0  0  0  0  0
   -1.4580    2.7841    1.6844 C   0  0  0  0  0  0  0  0  0  0  0  0
    2.7232    2.8549   -0.5279 C   0  0  0  0  0  0  0  0  0  0  0  0
    3.3666    2.6615   -1.8539 C   0  0  0  0  0  0  0  0  0  0  0  0
    3.2157   -2.7957   -0.0759 C   0  0  0  0  0  0  0  0  0  0  0  0
    3.3703   -2.6590   -1.5737 C   0  0  0  0  0  0  0  0  0  0  0  0
  1  2  1  0
  1  4  1  0
  1  6  1  0
  1  8  1  0
  2  3  1  0
  3 10  1  0
  4  5  1  0
  5 12  1  0
  6  7  1  0
  7 14  1  0
  8  9  1  0
  9 16  1  0
 10 11  1  0
 12 13  1  0
 14 15  1  0
 16 17  1  0
M  CHG  1   1   1
M  END
>  <DRUGBANK_ID>  (1) 
DB01851

>  <SECONDARY_ACCESSION_NUMBERS>  (1) 
EXPT03013

>  <COMMON_NAME>  (1) 
Tetrabutylammonium Ion

>  <CAS_NUMBER>  (1) 
2052-49-5

>  <UNII>  (1) 
CBU2X6BBJR

$$$$
