
     RDKit          3D

 18 20  0  0  0  0  0  0  0  0999 V2000
   -1.8091   -1.1929    0.1212 C   0  0  0  0  0  0  0  0  0  0  0  0
   -2.5907   -0.0777    0.2987 C   0  0  0  0  0  0  0  0  0  0  0  0
   -1.8017    1.0191    0.0904 N   0  0  0  0  0  0  0  0  0  0  0  0
   -0.5035   -0.7593   -0.2449 C   0  0  0  0  0  0  0  0  0  0  0  0
   -0.5124    0.6301   -0.2087 C   0  0  0  0  0  0  0  0  0  0  0  0
    0.6035   -1.6118   -0.5937 C   0  0  0  0  0  0  0  0  0  0  0  0
    0.5286    1.5997   -0.4427 C   0  0  0  0  0  0  0  0  0  0  0  0
    2.1065    0.0906    0.7535 C   0  0  0  0  0  0  0  0  0  0  0  0
    1.9771   -1.1676   -0.1059 C   0  0  0  0  0  0  0  0  0  0  0  0
    0.4493   -2.8177   -1.1851 C   0  0  0  0  0  0  0  0  0  0  0  0
   -0.3075   -4.7932   -1.8267 C   0  0  0  0  0  0  0  0  0  0  0  0
    1.5707   -3.8059   -1.4541 C   0  0  0  0  0  0  0  0  0  0  0  0
    2.7668   -3.5536   -1.4920 O   0  0  0  0  0  0  0  0  0  0  0  0
    0.9698   -5.0284   -1.7254 N   0  0  0  0  0  0  0  0  0  0  0  0
   -0.6665   -3.5135   -1.5818 N   0  0  0  0  0  0  0  0  0  0  0  0
   -1.2485   -5.7225   -2.0505 N   0  0  0  0  0  0  0  0  0  0  0  0
    1.7810    1.2802    0.0005 N   0  0  0  0  0  0  0  0  0  0  0  0
    0.3236    2.6907   -0.9723 O   0  0  0  0  0  0  0  0  0  0  0  0
  1  2  2  0
  1  4  1  0
  2  3  1  0
  3  5  1  0
  4  6  1  0
  4  5  2  0
  5  7  1  0
  6  9  1  0
  6 10  2  0
  7 17  1  0
  7 18  2  0
  8 17  1  0
  8  9  1  0
 10 15  1  0
 10 12  1  0
 11 15  1  0
 11 14  2  0
 11 16  1  0
 12 14  1  0
 12 13  2  0
M  END
>  <DRUGBANK_ID>  (1) 
DB04367

>  <SECONDARY_ACCESSION_NUMBERS>  (1) 
EXPT01124

>  <COMMON_NAME>  (1) 
Debromohymenialdisine

>  <CAS_NUMBER>  (1) 
125118-55-0

$$$$
