
     RDKit          3D

 32 36  0  0  0  0  0  0  0  0999 V2000
   -8.8111   -4.3429   47.3511 C   0  0  1  0  0  0  0  0  0  0  0  0
   -9.3599   -5.3797   48.3242 C   0  0  0  0  0  0  0  0  0  0  0  0
   -8.3734   -2.8518   48.4626 C   0  0  0  0  0  0  0  0  0  0  0  0
   -9.3006   -4.9788   49.6118 C   0  0  0  0  0  0  0  0  0  0  0  0
   -8.3670   -2.7803   49.8439 C   0  0  0  0  0  0  0  0  0  0  0  0
   -9.6243   -3.5530   49.7533 C   0  0  0  0  0  0  0  0  0  0  0  0
   -9.4854   -5.2638   45.7534 C   0  0  1  0  0  0  0  0  0  0  0  0
   -9.6812   -6.7607   45.1672 C   0  0  2  0  0  0  0  0  0  0  0  0
   -9.3795   -6.8749   47.9511 C   0  0  2  0  0  0  0  0  0  0  0  0
   -8.8539   -7.4141   46.4833 C   0  0  0  0  0  0  0  0  0  0  0  0
  -10.9340   -4.3455   44.8978 C   0  0  2  0  0  0  0  0  0  0  0  0
  -10.4257   -4.6056   43.5182 C   0  0  0  0  0  0  0  0  0  0  0  0
   -9.4399   -7.0463   43.1713 C   0  0  1  0  0  0  0  0  0  0  0  0
  -10.4753   -6.0548   43.2012 C   0  0  2  0  0  0  0  0  0  0  0  0
   -9.6133   -6.7758   41.0870 C   0  0  0  0  0  0  0  0  0  0  0  0
  -10.4261   -5.5925   41.0311 C   0  0  1  0  0  0  0  0  0  0  0  0
   -9.7982   -6.5205   42.0044 C   0  0  1  0  0  0  0  0  0  0  0  0
   -9.7406   -4.3939   40.8990 O   0  0  0  0  0  0  0  0  0  0  0  0
   -8.3958   -4.4700   41.4047 C   0  0  0  0  0  0  0  0  0  0  0  0
   -8.1181   -5.8264   41.7209 O   0  0  0  0  0  0  0  0  0  0  0  0
  -10.6984   -3.0483   49.4449 O   0  0  0  0  0  0  0  0  0  0  0  0
  -10.6238   -7.3819   48.1863 F   0  0  0  0  0  0  0  0  0  0  0  0
   -9.3108   -3.4208   46.3495 C   0  0  0  0  0  0  0  0  0  0  0  0
   -8.1727   -5.3434   45.1781 F   0  0  0  0  0  0  0  0  0  0  0  0
  -11.7821   -3.3703   45.6835 O   0  0  0  0  0  0  0  0  0  0  0  0
  -11.8735   -6.6083   43.3313 C   0  0  0  0  0  0  0  0  0  0  0  0
   -9.9349   -8.5381   41.7673 C   0  0  0  0  0  0  0  0  0  0  0  0
  -10.6213   -9.0474   40.4495 C   0  0  0  0  0  0  0  0  0  0  0  0
   -9.2563   -9.3512   42.4308 O   0  0  0  0  0  0  0  0  0  0  0  0
   -9.7127   -9.7006   39.5700 O   0  0  0  0  0  0  0  0  0  0  0  0
   -7.7233   -3.4683   40.5052 C   0  0  0  0  0  0  0  0  0  0  0  0
   -7.8226   -3.9475   42.7173 C   0  0  0  0  0  0  0  0  0  0  0  0
  1 23  1  1
  2  1  1  0
  3  1  1  0
  4  2  2  0
  5  3  2  0
  6  4  1  0
  6  5  1  0
  7  1  1  0
  7 24  1  6
  8  7  1  0
  9  2  1  0
  9 22  1  6
  8 10  1  1
 10  9  1  0
 11  7  1  0
 11 25  1  6
 12 11  1  0
 13  8  1  0
 14 12  1  0
 14 13  1  0
 14 26  1  6
 13 15  1  1
 16 15  1  6
 17 14  1  0
 17 16  1  0
 17 27  1  6
 18 16  1  0
 19 18  1  0
 20 17  1  0
 20 19  1  0
 21  6  2  0
 28 27  1  0
 29 27  2  0
 30 28  1  0
 31 19  1  0
 32 19  1  0
M  END
>  <DRUGBANK_ID>  (1) 
DB00591

>  <SECONDARY_ACCESSION_NUMBERS>  (1) 
APRD00977

>  <COMMON_NAME>  (1) 
Fluocinolone acetonide

>  <CAS_NUMBER>  (1) 
67-73-2

>  <UNII>  (1) 
0CD5FD6S2M

>  <SYNONYMS>  (1) 
6alpha-fluorotriamcinolone acetonide; 6alpha,9alpha-difluoro-16alpha-hydroxyprednisolone 16,17-acetonide; 6α-fluorotriamcinolone acetonide; 6α,9α-difluoro-16α-hydroxyprednisolone 16,17-acetonide; acétonide de fluocinolone; acetónido de fluocinolona; fluocinolon acetonid; fluocinolone 16,17-acetonide; Fluocinolone acetonide; fluocinoloni acetonidum

$$$$
