IDZ
     RDKit          3D

 18 21  0  0  0  0  0  0  0  0999 V2000
    0.9967    1.4067    0.0165 C   0  0  0  0  0  0  0  0  0  0  0  0
    2.2044    0.7006    0.0141 C   0  0  0  0  0  0  0  0  0  0  0  0
    2.2269   -0.6943    0.0223 C   0  0  0  0  0  0  0  0  0  0  0  0
    1.0362   -1.4301    0.0387 C   0  0  0  0  0  0  0  0  0  0  0  0
   -0.1908   -0.7388    0.0418 C   0  0  0  0  0  0  0  0  0  0  0  0
   -1.5683   -1.0879   -0.0121 C   0  0  0  0  0  0  0  0  0  0  0  0
   -2.0965   -2.4836   -0.0235 C   0  0  0  0  0  0  0  0  0  0  0  0
   -1.7642   -3.4249    0.9168 N   0  0  0  0  0  0  0  0  0  0  0  0
   -2.3963   -4.5983    0.6011 C   0  0  0  0  0  0  0  0  0  0  0  0
   -2.4373   -5.8482    1.2219 C   0  0  0  0  0  0  0  0  0  0  0  0
   -3.1978   -6.8380    0.5880 C   0  0  0  0  0  0  0  0  0  0  0  0
   -3.8695   -6.5828   -0.6107 C   0  0  0  0  0  0  0  0  0  0  0  0
   -3.8133   -5.3177   -1.2093 C   0  0  0  0  0  0  0  0  0  0  0  0
   -3.0789   -4.3057   -0.5752 C   0  0  0  0  0  0  0  0  0  0  0  0
   -1.4988    1.0203   -0.0143 N   0  0  0  0  0  0  0  0  0  0  0  0
   -0.1803    0.6518    0.0204 C   0  0  0  0  0  0  0  0  0  0  0  0
   -2.9155   -2.9891   -0.9260 N   0  0  0  0  0  0  0  0  0  0  0  0
   -2.3594   -0.0091   -0.0684 N   0  0  0  0  0  0  0  0  0  0  0  0
  1  2  2  0
  1 16  1  0
  2  3  1  0
  3  4  2  0
  4  5  1  0
  5  6  1  0
  5 16  2  0
  6  7  1  0
  6 18  2  0
  7  8  1  0
  7 17  2  0
  8  9  1  0
  9 10  2  0
  9 14  1  0
 10 11  1  0
 11 12  2  0
 12 13  1  0
 13 14  2  0
 14 17  1  0
 15 16  1  0
 15 18  1  0
M  END
>  <DRUGBANK_ID>  (1) 
DB07959

>  <COMMON_NAME>  (1) 
3-(1H-BENZIMIDAZOL-2-YL)-1H-INDAZOLE

$$$$
