
     RDKit          3D

 31 35  0  0  0  0  0  0  0  0999 V2000
    9.4583    0.8008  -51.3237 C   0  0  1  0  0  0  0  0  0  0  0  0
   10.3179    1.6795  -52.2637 C   0  0  0  0  0  0  0  0  0  0  0  0
   10.2199   -0.9424  -51.7216 C   0  0  0  0  0  0  0  0  0  0  0  0
   10.9788    0.9981  -53.2220 C   0  0  0  0  0  0  0  0  0  0  0  0
   11.0812   -1.3047  -52.7640 C   0  0  0  0  0  0  0  0  0  0  0  0
   10.3391   -0.2888  -53.5092 C   0  0  0  0  0  0  0  0  0  0  0  0
    9.5104    1.7940  -49.7293 C   0  0  1  0  0  0  0  0  0  0  0  0
    9.7450    3.5676  -49.4483 C   0  0  2  0  0  0  0  0  0  0  0  0
   10.5844    3.1670  -52.0814 C   0  0  2  0  0  0  0  0  0  0  0  0
   10.9432    3.7796  -50.6282 C   0  0  0  0  0  0  0  0  0  0  0  0
    8.2386    1.4814  -48.8996 C   0  0  2  0  0  0  0  0  0  0  0  0
    8.4188    2.1910  -47.5988 C   0  0  0  0  0  0  0  0  0  0  0  0
    9.6020    4.4742  -47.6208 C   0  0  2  0  0  0  0  0  0  0  0  0
    8.3870    3.6959  -47.6705 C   0  0  2  0  0  0  0  0  0  0  0  0
    8.8501    5.1604  -45.7734 C   0  0  0  0  0  0  0  0  0  0  0  0
    7.8814    4.1232  -45.4711 C   0  0  1  0  0  0  0  0  0  0  0  0
    8.8096    4.5214  -46.5534 C   0  0  1  0  0  0  0  0  0  0  0  0
    8.3097    2.9825  -44.7981 O   0  0  0  0  0  0  0  0  0  0  0  0
    9.7313    2.8614  -44.8054 C   0  0  0  0  0  0  0  0  0  0  0  0
   10.2594    3.9534  -45.5570 O   0  0  0  0  0  0  0  0  0  0  0  0
    9.1880   -0.4643  -53.8934 O   0  0  0  0  0  0  0  0  0  0  0  0
    9.6455    3.9457  -52.6977 F   0  0  0  0  0  0  0  0  0  0  0  0
    7.8574    1.2614  -51.6159 C   0  0  0  0  0  0  0  0  0  0  0  0
    8.2909    0.0747  -48.8694 O   0  0  0  0  0  0  0  0  0  0  0  0
    7.1991    4.4072  -48.3558 C   0  0  0  0  0  0  0  0  0  0  0  0
    8.8339    6.4402  -47.2212 C   0  0  0  0  0  0  0  0  0  0  0  0
    9.6601    6.7439  -48.4756 C   0  0  0  0  0  0  0  0  0  0  0  0
    8.2622    7.3877  -46.6358 O   0  0  0  0  0  0  0  0  0  0  0  0
    8.7761    7.2593  -49.4455 O   0  0  0  0  0  0  0  0  0  0  0  0
   10.0675    2.4160  -43.3774 C   0  0  0  0  0  0  0  0  0  0  0  0
   10.4454    1.8250  -45.6435 C   0  0  0  0  0  0  0  0  0  0  0  0
  1 23  1  6
  2  1  1  0
  3  1  1  0
  4  2  2  0
  5  3  2  0
  6  4  1  0
  6  5  1  0
  7  1  1  0
  8  7  1  0
  9  2  1  0
  9 22  1  1
  8 10  1  1
 10  9  1  0
  7 11  1  6
 11 24  1  1
 12 11  1  0
 13  8  1  0
 14 12  1  0
 14 13  1  0
 14 25  1  6
 13 15  1  6
 16 15  1  1
 17 14  1  0
 17 16  1  0
 17 26  1  6
 18 16  1  0
 19 18  1  0
 20 17  1  0
 20 19  1  0
 21  6  2  0
 27 26  1  0
 28 26  2  0
 29 27  1  0
 30 19  1  0
 31 19  1  0
M  END
>  <DRUGBANK_ID>  (1) 
DB00180

>  <SECONDARY_ACCESSION_NUMBERS>  (1) 
APRD00976

>  <COMMON_NAME>  (1) 
Flunisolide

>  <CAS_NUMBER>  (1) 
3385-03-3

>  <UNII>  (1) 
78M02AA8KF

>  <SYNONYMS>  (1) 
Flunisolida; Flunisolide; Flunisolide anhydrous; Flunisolidum

$$$$
