
     RDKit          3D

 42 41  0  0  0  0  0  0  0  0999 V2000
   -4.0672    2.1491   -2.3907 C   0  0  0  0  0  0  0  0  0  0  0  0
   -5.0800    1.8396   -1.2883 C   0  0  0  0  0  0  0  0  0  0  0  0
   -6.4656    1.6899   -1.8993 C   0  0  0  0  0  0  0  0  0  0  0  0
   -2.8073    1.1432   -4.4646 C   0  0  0  0  0  0  0  0  0  0  0  0
   -3.7620    0.9617   -3.3249 C   0  0  0  0  0  0  0  0  0  0  0  0
   -0.9653   -0.1209   -3.1959 C   0  0  2  0  0  0  0  0  0  0  0  0
   -1.4069    1.1560   -3.9971 C   0  0  0  0  0  0  0  0  0  0  0  0
    0.5314    0.0152   -2.9432 C   0  0  2  0  0  0  0  0  0  0  0  0
    1.0152    1.4896   -2.6703 C   0  0  2  0  0  0  0  0  0  0  0  0
    2.5677    1.4691   -2.6683 C   0  0  0  0  0  0  0  0  0  0  0  0
    1.1348   -0.5176   -4.1621 O   0  0  0  0  0  0  0  0  0  0  0  0
    0.4745    2.2498   -1.4541 N   0  0  0  0  0  2  0  0  0  0  0  0
    3.1239    1.0015   -3.9069 O   0  0  0  0  0  0  0  0  0  0  0  0
   -6.5932    0.4788   -2.8177 C   0  0  0  0  0  0  0  0  0  0  0  0
   -6.1111   -0.7986   -2.1129 C   0  0  0  0  0  0  0  0  0  0  0  0
   -7.1266   -1.1047   -1.0238 C   0  0  0  0  0  0  0  0  0  0  0  0
   -8.5027   -1.2571   -1.6759 C   0  0  0  0  0  0  0  0  0  0  0  0
   -8.4632   -2.3922   -2.7077 C   0  0  0  0  0  0  0  0  0  0  0  0
   -8.1380   -3.7133   -2.0075 C   0  0  0  0  0  0  0  0  0  0  0  0
   -9.1660   -4.0081   -0.9150 C   0  0  0  0  0  0  0  0  0  0  0  0
  -10.5568   -4.1070   -1.5205 C   0  0  0  0  0  0  0  0  0  0  0  0
   -0.8036    2.0559   -1.0452 C   0  0  0  0  0  0  0  0  0  0  0  0
   -1.6449    1.3112   -1.4783 O   0  0  0  0  0  0  0  0  0  0  0  0
   -1.3157    2.6339    0.2546 C   0  0  1  0  0  0  0  0  0  0  0  0
   -0.8630    1.6252    1.3096 C   0  0  0  0  0  0  0  0  0  0  0  0
    0.6640    1.5677    1.3586 C   0  0  0  0  0  0  0  0  0  0  0  0
    1.2365    2.9695    1.5787 C   0  0  0  0  0  0  0  0  0  0  0  0
    0.6420    3.5267    2.8736 C   0  0  0  0  0  0  0  0  0  0  0  0
    1.1164    2.6181    4.0026 C   0  0  0  0  0  0  0  0  0  0  0  0
    2.6482    2.6081    3.9953 C   0  0  0  0  0  0  0  0  0  0  0  0
    3.1493    4.0426    4.1891 C   0  0  0  0  0  0  0  0  0  0  0  0
    2.6276    4.5609    5.5302 C   0  0  0  0  0  0  0  0  0  0  0  0
    3.1310    3.6404    6.6452 C   0  0  0  0  0  0  0  0  0  0  0  0
    4.6624    3.6322    6.6378 C   0  0  0  0  0  0  0  0  0  0  0  0
    5.1777    5.0553    6.8683 C   0  0  0  0  0  0  0  0  0  0  0  0
    4.6676    5.5716    8.2165 C   0  0  0  0  0  0  0  0  0  0  0  0
    5.1672    4.6636    9.3457 C   0  0  0  0  0  0  0  0  0  0  0  0
    6.6992    4.6545    9.3899 C   0  0  0  0  0  0  0  0  0  0  0  0
    7.2514    6.0638    9.6071 C   0  0  0  0  0  0  0  0  0  0  0  0
    6.7441    6.6299   10.9232 C   0  0  0  0  0  0  0  0  0  0  0  0
   -1.0996    4.0015    0.4758 O   0  0  0  0  0  0  0  0  0  0  0  0
   -1.2733   -1.3437   -3.8925 O   0  0  0  0  0  0  0  0  0  0  0  0
  1  5  1  0
  2  1  1  0
  3  2  1  0
  3 14  1  0
  4  7  1  0
  5  4  1  0
  6 42  1  6
  6  8  1  0
  6  7  1  0
  8 11  1  6
  8  9  1  0
  9 12  1  0
  9 10  1  1
 10 13  1  0
 12 22  1  0
 14 15  1  0
 15 16  1  0
 16 17  1  0
 17 18  1  0
 18 19  1  0
 19 20  1  0
 20 21  1  0
 22 23  2  0
 22 24  1  0
 24 25  1  0
 24 41  1  1
 25 26  1  0
 26 27  1  0
 27 28  1  0
 28 29  1  0
 29 30  1  0
 30 31  1  0
 31 32  1  0
 32 33  1  0
 33 34  1  0
 34 35  1  0
 35 36  1  0
 36 37  1  0
 37 38  1  0
 38 39  1  0
 39 40  1  0
M  RAD  1  12   2
M  END
>  <DRUGBANK_ID>  (1) 
DB14705

>  <COMMON_NAME>  (1) 
Ceramide AP

>  <CAS_NUMBER>  (1) 
212070-45-6

>  <UNII>  (1) 
F1X8L2B00J

>  <SYNONYMS>  (1) 
Biomide 6; Ceramide 6; Ceramide 6 II; Ceramide VI; Cytomide VI; N-(2-hydroxyoctadecanoyl)-4-hydroxysphinganine; N-(2-hydroxyoctadecanoyl)-4R-hydroxysphinganine; N-(2-hydroxyoctadecanoyl)-hydroxysphinganine; N-(2-hydroxyoctadecanoyl)phytoceramide; N-(2-hydroxyoctadecanoyl)phytosphingosine; N-2-hydroxystearoyl-phytosphingosine; PHC-C 18:0/18:0; phytosphingosine-2-hydroxy-18:0

$$$$
