
     RDKit          3D

 12 12  0  0  1  0  0  0  0  0999 V2000
    3.2292   -0.4886   -1.6779 O   0  0  0  0  0  0  0  0  0  0  0  0
    2.3318   -0.9777   -2.6685 C   0  0  0  0  0  0  0  0  0  0  0  0
    0.9366   -0.4019   -2.4209 C   0  0  1  0  0  0  0  0  0  0  0  0
    1.0278    1.0351   -2.3030 O   0  0  0  0  0  0  0  0  0  0  0  0
   -0.1578    1.6890   -2.1534 C   0  0  0  0  0  0  0  0  0  0  0  0
   -0.3423    2.5151   -1.2673 O   0  0  0  0  0  0  0  0  0  0  0  0
   -1.1786    1.3551   -3.2391 C   0  0  2  0  0  0  0  0  0  0  0  0
   -2.4560    1.9644   -3.0723 O   0  0  0  0  0  0  0  0  0  0  0  0
   -1.3654   -0.1588   -3.2926 C   0  0  1  0  0  0  0  0  0  0  0  0
   -2.2835   -0.5311   -4.3246 O   0  0  0  0  0  0  0  0  0  0  0  0
   -0.0171   -0.8372   -3.5277 C   0  0  2  0  0  0  0  0  0  0  0  0
   -0.1334   -2.2588   -3.5437 O   0  0  0  0  0  0  0  0  0  0  0  0
  1  2  1  0
  3  4  1  0
  3 11  1  0
  3  2  1  6
  4  5  1  0
  5  6  2  0
  5  7  1  0
  7  8  1  1
  7  9  1  0
  9 11  1  0
  9 10  1  6
 11 12  1  1
M  END
>  <DRUGBANK_ID>  (1) 
DB04564

>  <SECONDARY_ACCESSION_NUMBERS>  (1) 
EXPT02023

>  <COMMON_NAME>  (1) 
Gluconolactone

>  <CAS_NUMBER>  (1) 
90-80-2

>  <UNII>  (1) 
WQ29KQ9POT

>  <SYNONYMS>  (1) 
1,5-D-gluconolactone; 1,5-Gluconolactone; D-gluconic acid delta-lactone; D-glucono-1,5-lactone; D-threo-Aldono-1,5-lactone; delta-gluconolactone; GDL; Gluconic acid lactone; Glucono delta-lactone; Glucono-delta-lactone; Gluconolactone

$$$$
