580
     RDKit          3D

 22 24  0  0  0  0  0  0  0  0999 V2000
    1.0197    0.1319    0.0283 S   0  0  0  0  0  0  0  0  0  0  0  0
    9.1489   -0.2272   -0.8287 O   0  0  0  0  0  0  0  0  0  0  0  0
    0.6173    0.6177    1.3208 O   0  0  0  0  0  0  0  0  0  0  0  0
    0.5647    0.7361   -1.2079 O   0  0  0  0  0  0  0  0  0  0  0  0
    9.1765    0.5263    0.3275 N   0  0  0  0  0  0  0  0  0  0  0  0
    0.5214   -1.4783   -0.0260 N   0  0  0  0  0  0  0  0  0  0  0  0
    7.0184    0.1396   -0.2856 C   0  0  0  0  0  0  0  0  0  0  0  0
    5.5724    0.1083   -0.2958 C   0  0  0  0  0  0  0  0  0  0  0  0
    7.8947    0.7302    0.6681 C   0  0  0  0  0  0  0  0  0  0  0  0
    7.8591   -0.4575   -1.1959 C   0  0  0  0  0  0  0  0  0  0  0  0
    2.7900    0.0764   -0.0268 C   0  0  0  0  0  0  0  0  0  0  0  0
    4.8858   -1.1096   -0.2238 C   0  0  0  0  0  0  0  0  0  0  0  0
    4.8573    1.3107   -0.2318 C   0  0  0  0  0  0  0  0  0  0  0  0
    7.5455    1.3976    1.9133 C   0  0  0  0  0  0  0  0  0  0  0  0
    3.4928   -1.1292   -0.0984 C   0  0  0  0  0  0  0  0  0  0  0  0
    3.4740    1.2962   -0.0500 C   0  0  0  0  0  0  0  0  0  0  0  0
    7.6764   -1.2442   -2.4269 C   0  0  0  0  0  0  0  0  0  0  0  0
    6.7419    0.7394    2.8552 C   0  0  0  0  0  0  0  0  0  0  0  0
    8.0651    2.6606    2.2103 C   0  0  0  0  0  0  0  0  0  0  0  0
    6.5109    1.3125    4.1043 C   0  0  0  0  0  0  0  0  0  0  0  0
    7.8728    3.2089    3.4784 C   0  0  0  0  0  0  0  0  0  0  0  0
    7.0888    2.5406    4.4196 C   0  0  0  0  0  0  0  0  0  0  0  0
  1  3  2  0
  1  4  2  0
  1  6  1  0
  1 11  1  0
  2  5  1  0
  2 10  1  0
  5  9  2  0
  7  8  1  0
  7  9  1  0
  7 10  2  0
  8 12  2  0
  8 13  1  0
  9 14  1  0
 10 17  1  0
 11 15  2  0
 11 16  1  0
 12 15  1  0
 13 16  2  0
 14 18  2  0
 14 19  1  0
 18 20  1  0
 19 21  2  0
 20 22  2  0
 21 22  1  0
M  END
>  <DRUGBANK_ID>  (1) 
DB00580

>  <SECONDARY_ACCESSION_NUMBERS>  (1) 
APRD00183; DB07576

>  <COMMON_NAME>  (1) 
Valdecoxib

>  <CAS_NUMBER>  (1) 
181695-72-7

>  <UNII>  (1) 
2919279Q3W

>  <SYNONYMS>  (1) 
Valdecoxib

$$$$
