
     RDKit          3D

 10 10  0  0  0  0  0  0  0  0999 V2000
   -1.8559    0.0460   -0.0567 C   0  0  0  0  0  0  0  0  0  0  0  0
   -1.1870   -1.1838   -0.0026 C   0  0  0  0  0  0  0  0  0  0  0  0
   -1.0941    1.2232   -0.1302 C   0  0  0  0  0  0  0  0  0  0  0  0
   -3.3678    0.1199   -0.0420 C   0  0  0  0  0  0  0  0  0  0  0  0
    0.2124   -1.2310    0.0155 C   0  0  0  0  0  0  0  0  0  0  0  0
    0.2948    1.1810   -0.0537 C   0  0  0  0  0  0  0  0  0  0  0  0
   -3.9332    0.8058    1.2084 C   0  0  0  0  0  0  0  0  0  0  0  0
    0.9390   -0.0425    0.0057 C   0  0  0  0  0  0  0  0  0  0  0  0
   -3.5722    2.1810    1.2891 O   0  0  0  0  0  0  0  0  0  0  0  0
    2.3018   -0.0299    0.0365 O   0  0  0  0  0  0  0  0  0  0  0  0
  1  2  2  0
  1  3  1  0
  1  4  1  0
  2  5  1  0
  3  6  2  0
  4  7  1  0
  5  8  2  0
  6  8  1  0
  7  9  1  0
  8 10  1  0
M  END
>  <DRUGBANK_ID>  (1) 
DB16855

>  <COMMON_NAME>  (1) 
Tyrosol

>  <CAS_NUMBER>  (1) 
501-94-0

>  <UNII>  (1) 
1AK4MU3SNX

>  <SYNONYMS>  (1) 
4-Hydroxyphenethyl alcohol; 4-Hydroxyphenylethanol; p-Tyrosol

$$$$
