Creatinine.mol
     RDKit          3D

  8  8  0  0  0  0  0  0  0  0999 V2000
   -0.4767   -1.0733    0.0342 N   0  0  0  0  0  0  0  0  0  0  0  0
    0.8075   -0.6645    0.0056 C   0  0  0  0  0  0  0  0  0  0  0  0
    1.8049   -1.4650   -0.0129 N   0  0  0  0  0  0  0  0  0  0  0  0
    0.8591    0.6877   -0.0030 N   0  0  0  0  0  0  0  0  0  0  0  0
    2.0561    1.4763   -0.0042 C   0  0  0  0  0  0  0  0  0  0  0  0
   -0.4692    1.2719    0.0171 C   0  0  0  0  0  0  0  0  0  0  0  0
   -1.3314    0.0051    0.0141 C   0  0  0  0  0  0  0  0  0  0  0  0
   -2.5495   -0.0459   -0.0073 O   0  0  0  0  0  0  0  0  0  0  0  0
  1  2  1  0
  1  7  1  0
  2  3  2  0
  2  4  1  0
  4  5  1  0
  4  6  1  0
  6  7  1  0
  7  8  2  0
M  END
>  <DRUGBANK_ID>  (1) 
DB11846

>  <COMMON_NAME>  (1) 
Creatinine

>  <CAS_NUMBER>  (1) 
60-27-5

>  <UNII>  (1) 
AYI8EX34EU

>  <SYNONYMS>  (1) 
creatinina

$$$$
