
     RDKit          3D

 15 14  0  0  0  0  0  0  0  0999 V2000
    1.0156   -0.0927    0.1339 C   0  0  2  0  0  0  0  0  0  0  0  0
    0.5202    0.1791   -1.3259 C   0  0  0  0  0  0  0  0  0  0  0  0
    0.6364   -1.4893    0.6912 C   0  0  0  0  0  0  0  0  0  0  0  0
    0.5999    0.9524    1.0175 O   0  0  0  0  0  0  0  0  0  0  0  0
    1.0555   -0.8573   -2.3476 C   0  0  0  0  0  0  0  0  0  0  0  0
   -1.0190    0.2057   -1.3789 C   0  0  0  0  0  0  0  0  0  0  0  0
    1.0408    1.5620   -1.7926 C   0  0  0  0  0  0  0  0  0  0  0  0
   -0.3498   -1.5258    1.6494 N   0  0  0  0  0  0  0  0  0  0  0  0
    1.1552   -2.5168    0.2521 O   0  0  0  0  0  0  0  0  0  0  0  0
    0.5174   -2.1573   -2.1776 O   0  0  0  0  0  0  0  0  0  0  0  0
   -0.8245   -2.7872    2.2013 C   0  0  0  0  0  0  0  0  0  0  0  0
   -0.3155   -3.0662    3.6111 C   0  0  0  0  0  0  0  0  0  0  0  0
   -0.7941   -1.9852    4.5456 C   0  0  0  0  0  0  0  0  0  0  0  0
   -1.5589   -2.4113    5.5719 O   0  0  0  0  0  0  0  0  0  0  0  0
   -0.5431   -0.8011    4.3785 O   0  0  0  0  0  0  0  0  0  0  0  0
  1  2  1  0
  1  3  1  0
  1  4  1  1
  2  5  1  0
  2  6  1  0
  2  7  1  0
  3  8  1  0
  3  9  2  0
  5 10  1  0
  8 11  1  0
 11 12  1  0
 12 13  1  0
 13 14  1  0
 13 15  2  0
M  END
>  <DRUGBANK_ID>  (1) 
DB01783

>  <SECONDARY_ACCESSION_NUMBERS>  (1) 
EXPT02501

>  <COMMON_NAME>  (1) 
Pantothenic acid

>  <CAS_NUMBER>  (1) 
79-83-4

>  <UNII>  (1) 
19F5HK2737

>  <SYNONYMS>  (1) 
(+)-Pantothenic acid; D-pantothenic acid; Pantothenate; Vitamin B5

$$$$
