
     RDKit          3D

 20 22  0  0  0  0  0  0  0  0999 V2000
   -0.8147    1.1053    1.3011 C   0  0  0  0  0  0  0  0  0  0  0  0
   -1.5754    0.3731    0.1751 C   0  0  0  0  0  0  0  0  0  0  0  0
    0.7114    0.8692    1.2376 C   0  0  0  0  0  0  0  0  0  0  0  0
   -1.0653    0.9207   -1.1737 C   0  0  0  0  0  0  0  0  0  0  0  0
    1.2295    1.4234   -0.1094 C   0  0  0  0  0  0  0  0  0  0  0  0
    0.4531    0.7761   -1.2262 C   0  0  0  0  0  0  0  0  0  0  0  0
    0.9612   -0.6445    1.3849 C   0  0  0  0  0  0  0  0  0  0  0  0
    0.2013   -1.3574    0.2812 C   0  0  0  0  0  0  0  0  0  0  0  0
   -1.3077   -1.1343    0.3212 C   0  0  0  0  0  0  0  0  0  0  0  0
    0.7024   -0.6675   -0.9997 C   0  0  0  0  0  0  0  0  0  0  0  0
    0.4571   -2.7836    0.3925 N   0  0  0  0  0  0  0  0  0  0  0  0
    0.9475   -3.5401   -0.5872 C   0  0  0  0  0  0  0  0  0  0  0  0
    1.2481   -4.7367   -0.3731 O   0  0  0  0  0  0  0  0  0  0  0  0
    1.1377   -2.8745   -1.9308 C   0  0  0  0  0  0  0  0  0  0  0  0
    0.2120   -2.4718   -2.9110 O   0  0  0  0  0  0  0  0  0  0  0  0
   -0.5877   -3.5886   -3.2077 C   0  0  0  0  0  0  0  0  0  0  0  0
    0.2857   -4.5479   -4.0861 C   0  0  0  0  0  0  0  0  0  0  0  0
    1.5826   -5.2080   -3.5730 N   0  0  0  0  0  0  0  0  0  0  0  0
    1.9718   -6.2413   -4.4987 C   0  0  0  0  0  0  0  0  0  0  0  0
    2.8745   -4.4190   -3.4002 C   0  0  0  0  0  0  0  0  0  0  0  0
  1  2  1  0
  1  3  1  0
  2  4  1  0
  2  9  1  0
  3  5  1  0
  3  7  1  0
  4  6  1  0
  5  6  1  0
  6 10  1  0
  7  8  1  0
  8  9  1  0
  8 11  1  0
 10  8  1  0
 11 12  1  0
 12 13  2  0
 12 14  1  0
 14 15  1  0
 15 16  1  0
 16 17  1  0
 17 18  1  0
 18 19  1  0
 18 20  1  0
M  END
>  <DRUGBANK_ID>  (1) 
DB13288

>  <COMMON_NAME>  (1) 
Tromantadine

>  <CAS_NUMBER>  (1) 
53783-83-8

>  <UNII>  (1) 
H191JFG8WA

>  <SYNONYMS>  (1) 
Tromantadina; Tromantadine; Tromantadinum

$$$$
