
     RDKit          3D

 27 30  0  0  0  0  0  0  0  0999 V2000
    2.5182   -3.5410    1.0125 C   0  0  2  0  0  0  0  0  0  0  0  0
    0.3555   -1.7191   -2.7160 C   0  0  2  0  0  0  0  0  0  0  0  0
    3.9590   -3.1560    1.4564 C   0  0  0  0  0  0  0  0  0  0  0  0
    0.6436   -1.4982   -4.4098 C   0  0  1  0  0  0  0  0  0  0  0  0
    1.8571   -3.5334   -0.4556 C   0  0  2  0  0  0  0  0  0  0  0  0
    2.5098   -2.5055   -1.3062 C   0  0  2  0  0  0  0  0  0  0  0  0
    1.8152   -2.3813   -2.6487 C   0  0  1  0  0  0  0  0  0  0  0  0
    1.9367   -2.2544    1.4695 C   0  0  0  0  0  0  0  0  0  0  0  0
   -0.4026   -2.8986   -1.8834 C   0  0  0  0  0  0  0  0  0  0  0  0
    0.2719   -3.2462   -0.4836 C   0  0  2  0  0  0  0  0  0  0  0  0
    4.0193   -2.7057   -1.3354 C   0  0  0  0  0  0  0  0  0  0  0  0
    4.7191   -2.7230    0.1097 C   0  0  2  0  0  0  0  0  0  0  0  0
    4.0684   -2.4797    2.7264 C   0  0  0  0  0  0  0  0  0  0  0  0
    1.3722   -0.0711   -4.4163 C   0  0  0  0  0  0  0  0  0  0  0  0
    0.8734   -2.9896   -4.7121 C   0  0  0  0  0  0  0  0  0  0  0  0
    1.7785   -3.5412   -3.6349 C   0  0  0  0  0  0  0  0  0  0  0  0
    1.5606   -1.9150    2.6950 C   0  0  0  0  0  0  0  0  0  0  0  0
    2.9096   -1.4277    3.0612 C   0  0  0  0  0  0  0  0  0  0  0  0
    0.8362    0.8837   -5.0157 O   0  0  0  0  0  0  0  0  0  0  0  0
    3.0703   -0.2322    3.4261 O   0  0  0  0  0  0  0  0  0  0  0  0
   -0.0141   -1.2258   -5.6799 O   0  0  0  0  0  0  0  0  0  0  0  0
    2.1380   -4.9250    1.5548 C   0  0  0  0  0  0  0  0  0  0  0  0
    0.0572   -0.4035   -1.8566 C   0  0  0  0  0  0  0  0  0  0  0  0
    5.8515   -3.4718   -0.0568 F   0  0  0  0  0  0  0  0  0  0  0  0
   -0.1940   -2.1848    0.3590 O   0  0  0  0  0  0  0  0  0  0  0  0
    2.6458    0.3231   -3.6119 C   0  0  0  0  0  0  0  0  0  0  0  0
    3.0027    0.0104   -2.2985 O   0  0  0  0  0  0  0  0  0  0  0  0
  1 22  1  1
  2  9  1  0
  2 23  1  1
  3  1  1  0
  4  2  1  0
  4 15  1  0
  4 21  1  6
  4 14  1  0
  5  1  1  0
  6  5  1  0
  6 11  1  6
  7  6  1  0
  7  2  1  0
  8  1  1  0
  9 10  1  0
  5 10  1  1
 10 25  1  1
 11 12  1  0
 12  3  1  0
 12 24  1  6
 13  3  2  0
 15 16  1  0
  7 16  1  1
 17  8  2  0
 18 13  1  0
 18 17  1  0
 19 14  2  0
 20 18  2  0
 26 14  1  0
 27 26  1  0
M  END
>  <DRUGBANK_ID>  (1) 
DB09378

>  <COMMON_NAME>  (1) 
Fluprednisolone

>  <CAS_NUMBER>  (1) 
53-34-9

>  <UNII>  (1) 
9H05937G3X

>  <SYNONYMS>  (1) 
6alpha-Fluoroprednisolone; Fluprednisolone; Fluprednisolonum

$$$$
