
     RDKit          3D

 15 16  0  0  0  0  0  0  0  0999 V2000
    1.4180   -0.2735    0.0047 C   0  0  0  0  0  0  0  0  0  0  0  0
    0.5135   -1.3360    0.0091 C   0  0  0  0  0  0  0  0  0  0  0  0
   -0.8671   -1.1016   -0.0262 C   0  0  0  0  0  0  0  0  0  0  0  0
   -1.3582    0.2079   -0.0635 C   0  0  0  0  0  0  0  0  0  0  0  0
   -0.4219    1.2589   -0.0492 C   0  0  0  0  0  0  0  0  0  0  0  0
    0.9483    1.0280   -0.0355 C   0  0  0  0  0  0  0  0  0  0  0  0
   -2.8524    0.4908   -0.1576 C   0  0  0  0  0  0  0  0  0  0  0  0
   -3.3729    1.2832    1.0221 C   0  0  0  0  0  0  0  0  0  0  0  0
   -2.9973    2.5521    1.2392 C   0  0  0  0  0  0  0  0  0  0  0  0
   -3.2881    3.1941    2.5215 C   0  0  0  0  0  0  0  0  0  0  0  0
   -2.7537    4.2602    2.8214 O   0  0  0  0  0  0  0  0  0  0  0  0
   -4.1437    2.5194    3.3369 N   0  0  0  0  0  0  0  0  0  0  0  0
   -4.6516    1.2792    3.0708 C   0  0  0  0  0  0  0  0  0  0  0  0
   -5.7121    0.5334    4.1092 S   0  0  0  0  0  0  0  0  0  0  0  0
   -4.2296    0.6777    1.9149 N   0  0  0  0  0  0  0  0  0  0  0  0
  1  2  2  0
  1  6  1  0
  2  3  1  0
  3  4  2  0
  4  5  1  0
  4  7  1  0
  5  6  2  0
  7  8  1  0
  8  9  2  0
  8 15  1  0
  9 10  1  0
 10 11  2  0
 10 12  1  0
 12 13  1  0
 13 14  2  0
 13 15  1  0
M  END
>  <DRUGBANK_ID>  (1) 
DB13804

>  <COMMON_NAME>  (1) 
Benzylthiouracil

>  <CAS_NUMBER>  (1) 
6336-50-1

>  <UNII>  (1) 
PZ35LUM333

$$$$
