
     RDKit          3D

 11 11  0  0  0  0  0  0  0  0999 V2000
    1.7549   -1.4201    0.1181 N   0  0  0  0  0  0  0  0  0  0  0  0
    0.5276   -0.7518   -0.0282 C   0  0  0  0  0  0  0  0  0  0  0  0
    0.4971    0.6573   -0.0080 C   0  0  0  0  0  0  0  0  0  0  0  0
    1.6433    1.4074    0.0031 O   0  0  0  0  0  0  0  0  0  0  0  0
   -0.6942    1.3753   -0.0051 C   0  0  0  0  0  0  0  0  0  0  0  0
   -1.9037    0.6962   -0.0147 C   0  0  0  0  0  0  0  0  0  0  0  0
   -1.9202   -0.7011   -0.0114 C   0  0  0  0  0  0  0  0  0  0  0  0
   -0.7195   -1.4420    0.0060 C   0  0  0  0  0  0  0  0  0  0  0  0
   -0.7310   -2.9474    0.0315 C   0  0  0  0  0  0  0  0  0  0  0  0
   -1.9291   -3.5686    0.0204 O   0  0  0  0  0  0  0  0  0  0  0  0
    0.3012   -3.6115    0.0445 O   0  0  0  0  0  0  0  0  0  0  0  0
  1  2  1  0
  2  3  2  0
  2  8  1  0
  3  4  1  0
  3  5  1  0
  5  6  2  0
  6  7  1  0
  7  8  2  0
  8  9  1  0
  9 10  1  0
  9 11  2  0
M  END
>  <DRUGBANK_ID>  (1) 
DB03644

>  <SECONDARY_ACCESSION_NUMBERS>  (1) 
EXPT00171

>  <COMMON_NAME>  (1) 
3-hydroxyanthranilic acid

>  <CAS_NUMBER>  (1) 
548-93-6

>  <UNII>  (1) 
1UQB1BT4OT

>  <SYNONYMS>  (1) 
2-Amino-3-hydroxy-benzoic acid; 2-Amino-3-Hydroxybenzoic Acid; 3-Oxyanthranilic acid

$$$$
