806
     RDKit          3D

 20 21  0  0  0  0  0  0  0  0999 V2000
    1.1721    0.3071   -0.5515 O   0  0  0  0  0  0  0  0  0  0  0  0
    5.0087   -2.1885    0.0157 O   0  0  0  0  0  0  0  0  0  0  0  0
   -2.6011   -2.8245    0.0979 O   0  0  0  0  0  0  0  0  0  0  0  0
    3.0470   -1.0011   -0.0281 N   0  0  0  0  0  0  0  0  0  0  0  0
    5.1600    0.1015    0.0024 N   0  0  0  0  0  0  0  0  0  0  0  0
    2.7775    2.6573    0.0023 N   0  0  0  0  0  0  0  0  0  0  0  0
    5.0054    2.5634    0.0501 N   0  0  0  0  0  0  0  0  0  0  0  0
    2.3273   -2.2629    0.0689 C   0  0  0  0  0  0  0  0  0  0  0  0
    1.5372   -2.3487    1.3788 C   0  0  0  0  0  0  0  0  0  0  0  0
    0.2987   -1.4501    1.4126 C   0  0  0  0  0  0  0  0  0  0  0  0
    3.1343    1.3439   -0.0587 C   0  0  0  0  0  0  0  0  0  0  0  0
    2.3507    0.1921   -0.2286 C   0  0  0  0  0  0  0  0  0  0  0  0
    4.4881    1.3041    0.0170 C   0  0  0  0  0  0  0  0  0  0  0  0
    4.4426   -1.0911    0.0016 C   0  0  0  0  0  0  0  0  0  0  0  0
   -0.5856   -1.5612    0.1604 C   0  0  0  0  0  0  0  0  0  0  0  0
    3.9497    3.3629    0.0290 C   0  0  0  0  0  0  0  0  0  0  0  0
    6.6005    0.0333    0.0007 C   0  0  0  0  0  0  0  0  0  0  0  0
    1.4324    3.1866    0.0162 C   0  0  0  0  0  0  0  0  0  0  0  0
   -1.3706   -2.8481    0.0955 C   0  0  0  0  0  0  0  0  0  0  0  0
   -0.6239   -4.1569   -0.0226 C   0  0  0  0  0  0  0  0  0  0  0  0
  1 12  2  0
  2 14  2  0
  3 19  2  0
  4  8  1  0
  4 12  1  0
  4 14  1  0
  5 13  1  0
  5 14  1  0
  5 17  1  0
  6 11  1  0
  6 16  1  0
  6 18  1  0
  7 13  1  0
  7 16  2  0
  8  9  1  0
  9 10  1  0
 10 15  1  0
 11 12  1  0
 11 13  2  0
 15 19  1  0
 19 20  1  0
M  END
>  <DRUGBANK_ID>  (1) 
DB00806

>  <SECONDARY_ACCESSION_NUMBERS>  (1) 
APRD00121

>  <COMMON_NAME>  (1) 
Pentoxifylline

>  <CAS_NUMBER>  (1) 
6493-05-6

>  <UNII>  (1) 
SD6QCT3TSU

>  <SYNONYMS>  (1) 
Oxpentifylline; Pentoxifilina; Pentoxifyllin; Pentoxifylline; Pentoxifyllinum

$$$$
