
     RDKit          3D

 25 27  0  0  0  0  0  0  0  0999 V2000
    0.3852   -2.5530   -0.4278 C   0  0  0  0  0  0  0  0  0  0  0  0
   -0.8788   -2.0925   -0.5703 C   0  0  0  0  0  0  0  0  0  0  0  0
    1.4372   -1.6659   -0.3135 C   0  0  0  0  0  0  0  0  0  0  0  0
    1.1648   -1.4120    2.9878 C   0  0  0  0  0  0  0  0  0  0  0  0
    1.0620   -0.0074    2.9406 C   0  0  0  0  0  0  0  0  0  0  0  0
   -2.9608    1.8955   -0.8334 C   0  0  0  0  0  0  0  0  0  0  0  0
   -2.5766    1.6553    0.4574 C   0  0  0  0  0  0  0  0  0  0  0  0
   -1.2018   -1.5724    2.6882 C   0  0  0  0  0  0  0  0  0  0  0  0
   -1.5632    2.9919    2.2479 C   0  0  0  0  0  0  0  0  0  0  0  0
    0.0836    1.8517   -0.1572 C   0  0  0  0  0  0  0  0  0  0  0  0
   -2.9953    3.7159    0.2177 C   0  0  0  0  0  0  0  0  0  0  0  0
    0.0316   -2.1860    2.7793 C   0  0  0  0  0  0  0  0  0  0  0  0
   -0.1947    0.6379    2.7828 C   0  0  0  0  0  0  0  0  0  0  0  0
   -0.0425    0.2903   -0.3945 C   0  0  0  0  0  0  0  0  0  0  0  0
   -1.1496   -0.7246   -0.5168 C   0  0  0  0  0  0  0  0  0  0  0  0
    1.2544   -0.2825   -0.3479 C   0  0  0  0  0  0  0  0  0  0  0  0
   -1.3154   -0.1972    2.8886 C   0  0  0  0  0  0  0  0  0  0  0  0
   -0.2317    2.1213    2.3272 C   0  0  0  0  0  0  0  0  0  0  0  0
    0.1254   -3.8985    2.6411 Cl  0  0  0  0  0  0  0  0  0  0  0  0
   -2.9746   -0.8877   -0.3521 Cl  0  0  0  0  0  0  0  0  0  0  0  0
    2.7455    0.6149   -0.1570 Cl  0  0  0  0  0  0  0  0  0  0  0  0
   -2.9006    0.3183    3.3465 Cl  0  0  0  0  0  0  0  0  0  0  0  0
   -3.3098    3.1865   -0.9480 N   0  0  0  0  0  0  0  0  0  0  0  0
   -2.4313    2.8486    1.0903 N   0  0  0  0  0  0  0  0  0  0  0  0
    0.5918    2.2822    1.1439 O   0  0  0  0  0  0  0  0  0  0  0  0
  2  1  2  0
  3  1  1  0
  5  4  2  0
  7  6  2  0
 12  4  1  0
 12  8  2  0
 13  5  1  0
 14 10  1  0
 15  2  1  0
 15 14  2  0
 16  3  2  0
 16 14  1  0
 17  8  1  0
 17 13  2  0
 18  9  1  0
 18 13  1  0
 19 12  1  0
 20 15  1  0
 21 16  1  0
 22 17  1  0
 23  6  1  0
 23 11  2  0
 24  7  1  0
 24  9  1  0
 24 11  1  0
 25 10  1  0
 25 18  1  0
M  END
>  <DRUGBANK_ID>  (1) 
DB08943

>  <COMMON_NAME>  (1) 
Isoconazole

>  <CAS_NUMBER>  (1) 
27523-40-6

>  <UNII>  (1) 
GRI7WFR424

>  <SYNONYMS>  (1) 
Isoconazol; Isoconazole; Isoconazolum

$$$$
