ST8
     RDKit          3D

 27 29  0  0  0  0  0  0  0  0999 V2000
   -0.9941   -1.1633    0.0503 C   0  0  0  0  0  0  0  0  0  0  0  0
   -1.4109    3.5332   -0.0278 C   0  0  0  0  0  0  0  0  0  0  0  0
   -0.7081    3.7515    1.3396 C   0  0  0  0  0  0  0  0  0  0  0  0
   -0.9573    2.6068    2.3334 C   0  0  0  0  0  0  0  0  0  0  0  0
   -0.2149    2.7870    3.6350 C   0  0  0  0  0  0  0  0  0  0  0  0
   -0.6061    4.1085    4.2560 C   0  0  0  0  0  0  0  0  0  0  0  0
   -0.3174    5.2703    3.3072 C   0  0  0  0  0  0  0  0  0  0  0  0
   -1.0360    5.1105    1.9626 C   0  0  0  0  0  0  0  0  0  0  0  0
   -0.0644   -5.5911   -0.9281 C   0  0  0  0  0  0  0  0  0  0  0  0
    0.9321   -5.7415    0.0514 C   0  0  0  0  0  0  0  0  0  0  0  0
    0.9567   -4.8516    1.1254 C   0  0  0  0  0  0  0  0  0  0  0  0
    0.0209   -3.8242    1.2022 C   0  0  0  0  0  0  0  0  0  0  0  0
    2.8536   -7.0019    0.9206 N   0  0  0  0  0  0  0  0  0  0  0  0
   -1.7183   -0.0467   -0.1056 N   0  0  0  0  0  0  0  0  0  0  0  0
   -1.0393    1.1309   -0.2719 C   0  0  0  0  0  0  0  0  0  0  0  0
   -1.9062    2.2035   -0.2548 O   0  0  0  0  0  0  0  0  0  0  0  0
    0.3582    1.2086   -0.3181 C   0  0  0  0  0  0  0  0  0  0  0  0
    1.0977    2.3535   -0.5754 N   0  0  0  0  0  0  0  0  0  0  0  0
    2.3962   -0.0933   -0.2077 N   0  0  0  0  0  0  0  0  0  0  0  0
    1.0073   -0.0010   -0.1075 C   0  0  0  0  0  0  0  0  0  0  0  0
    0.3517   -1.1526    0.0700 N   0  0  0  0  0  0  0  0  0  0  0  0
   -1.6423   -2.4066    0.1877 N   0  0  0  0  0  0  0  0  0  0  0  0
   -0.9499   -3.6328    0.2107 C   0  0  0  0  0  0  0  0  0  0  0  0
   -1.0214   -4.5620   -0.8327 C   0  0  0  0  0  0  0  0  0  0  0  0
    1.9167   -6.8547   -0.0632 C   0  0  0  0  0  0  0  0  0  0  0  0
    2.0392    2.5254    0.2167 O   0  0  0  0  0  0  0  0  0  0  0  0
    1.8877   -7.6458   -1.0098 O   0  0  0  0  0  0  0  0  0  0  0  0
  1 14  2  0
  1 21  1  0
  1 22  1  0
  2  3  1  0
  2 16  1  0
  3  4  1  0
  3  8  1  0
  4  5  1  0
  5  6  1  0
  6  7  1  0
  7  8  1  0
  9 10  2  0
  9 24  1  0
 10 11  1  0
 10 25  1  0
 11 12  2  0
 12 23  1  0
 13 25  1  0
 14 15  1  0
 15 16  1  0
 15 17  2  0
 17 18  1  0
 17 20  1  0
 18 26  2  0
 19 20  1  0
 20 21  2  0
 22 23  1  0
 23 24  2  0
 25 27  2  0
M  END
>  <DRUGBANK_ID>  (1) 
DB08572

>  <COMMON_NAME>  (1) 
4-{[4-AMINO-6-(CYCLOHEXYLMETHOXY)-5-NITROSOPYRIMIDIN-2-YL]AMINO}BENZAMIDE

$$$$
