
     RDKit          3D

 20 18  0  0  1  0  0  0  0  0999 V2000
    1.0604   -0.2135    0.0609 C   0  0  0  0  0  0  0  0  0  0  0  0
    0.7029    1.0893   -0.5314 C   0  0  0  0  0  0  0  0  0  0  0  0
    0.2277    1.0947   -1.6669 O   0  0  0  0  0  0  0  0  0  0  0  0
    0.9357    2.2178    0.2143 N   0  0  0  0  0  0  0  0  0  0  0  0
    1.6608    2.3875    1.4775 C   0  0  1  0  0  0  0  0  0  0  0  0
    2.9171    3.2455    1.2468 C   0  0  0  0  0  0  0  0  0  0  0  0
    2.6825    5.0188    0.8689 S   0  0  0  0  0  0  0  0  0  0  0  0
    0.8093    2.9429    2.6417 C   0  0  0  0  0  0  0  0  0  0  0  0
    0.6333    2.0921    3.6805 O   0  0  0  0  0  0  0  0  0  0  0  0
    0.2582    4.0387    2.6509 O   0  0  0  0  0  0  0  0  0  0  0  0
   -0.8607    8.2855    1.1906 N   0  0  0  0  0  0  0  0  0  0  0  0
   -1.5780    7.0946    1.6170 C   0  0  0  0  0  0  0  0  0  0  0  0
   -2.6404    6.7270    0.5836 C   0  0  0  0  0  0  0  0  0  0  0  0
   -2.0527    6.3860   -0.7866 C   0  0  0  0  0  0  0  0  0  0  0  0
   -1.0806    5.2368   -0.6897 C   0  0  0  0  0  0  0  0  0  0  0  0
   -1.7315    3.9480   -0.1868 C   0  0  2  0  0  0  0  0  0  0  0  0
   -1.2176    2.9421   -1.0667 N   0  0  0  0  0  0  0  0  0  0  0  0
   -3.2572    3.8109   -0.1718 C   0  0  0  0  0  0  0  0  0  0  0  0
   -3.7763    3.5406    1.0499 O   0  0  0  0  0  0  0  0  0  0  0  0
   -3.9637    3.8849   -1.1778 O   0  0  0  0  0  0  0  0  0  0  0  0
  1  2  1  0
  2  3  2  0
  2  4  1  0
  5  4  1  0
  5  6  1  6
  5  8  1  0
  6  7  1  0
  8  9  1  0
  8 10  2  0
 11 12  1  0
 12 13  1  0
 13 14  1  0
 14 15  1  0
 16 18  1  0
 16 17  1  6
 16 15  1  0
 18 19  1  0
 18 20  2  0
M  END
>  <DRUGBANK_ID>  (1) 
DB17839

>  <COMMON_NAME>  (1) 
Nacystelyn

>  <CAS_NUMBER>  (1) 
89344-48-9

>  <UNII>  (1) 
8G1KV0RT1P

>  <SYNONYMS>  (1) 
Acetylcysteine lysine; L-lysine, compd. with n-acetyl-l-cysteine; Lysine acetylcysteinate; Lysine acetylcysteinate salt; N-acetylcysteinate lysine

$$$$
