
     RDKit          3D

 31 32  0  0  0  0  0  0  0  0999 V2000
    1.8577   -0.0833    1.0268 C   0  0  0  0  0  0  0  0  0  0  0  0
    3.1956   -0.4787    0.9098 N   0  0  0  0  0  0  0  0  0  0  0  0
    0.8732   -0.9530    0.5684 C   0  0  0  0  0  0  0  0  0  0  0  0
    1.4345    1.1465    0.7843 C   0  0  0  0  0  0  0  0  0  0  0  0
    4.0392    0.5894    0.6187 C   0  0  0  0  0  0  0  0  0  0  0  0
   -0.6734   -0.5492   -0.6964 C   0  0  0  0  0  0  0  0  0  0  0  0
    0.1162    0.8131    0.4832 C   0  0  0  0  0  0  0  0  0  0  0  0
    5.3382    0.3440    0.4734 N   0  0  0  0  0  0  0  0  0  0  0  0
    3.6882    1.7488    0.4017 O   0  0  0  0  0  0  0  0  0  0  0  0
   -1.2153    0.3994   -0.9606 C   0  0  0  0  0  0  0  0  0  0  0  0
    6.1930    1.4628    0.4620 C   0  0  0  0  0  0  0  0  0  0  0  0
   -3.0783    0.5006   -0.8868 N   0  0  0  0  0  0  0  0  0  0  0  0
    5.8852    2.6046    1.2443 C   0  0  0  0  0  0  0  0  0  0  0  0
    7.3687    1.4182   -0.2439 C   0  0  0  0  0  0  0  0  0  0  0  0
   -3.7427   -0.5515   -0.8118 O   0  0  0  0  0  0  0  0  0  0  0  0
   -3.6818    1.5787   -0.7067 O   0  0  0  0  0  0  0  0  0  0  0  0
    6.7729    3.6507    1.3929 C   0  0  0  0  0  0  0  0  0  0  0  0
    8.3087    2.4221   -0.0168 C   0  0  0  0  0  0  0  0  0  0  0  0
    7.9895    3.5622    0.7418 C   0  0  0  0  0  0  0  0  0  0  0  0
    8.9171    4.6947    0.7925 N   0  0  0  0  0  0  0  0  0  0  0  0
    9.9796    4.5885    0.1649 O   0  0  0  0  0  0  0  0  0  0  0  0
    8.5775    5.6989    1.4357 O   0  0  0  0  0  0  0  0  0  0  0  0
   -1.3538    1.7073    0.2045 C   0  0  0  0  0  0  0  0  0  0  0  0
   -1.6751   -0.1221    0.9983 C   0  0  0  0  0  0  0  0  0  0  0  0
    0.0907    1.6293   -1.1440 N   0  0  0  0  0  0  0  0  0  0  0  0
   -1.7210    3.0837    0.1337 C   0  0  0  0  0  0  0  0  0  0  0  0
   -0.8661   -1.8687    0.4721 C   0  0  0  0  0  0  0  0  0  0  0  0
    0.9605   -0.0385   -1.5490 C   0  0  0  0  0  0  0  0  0  0  0  0
    0.4694   -1.8234   -1.0056 N   0  0  0  0  0  0  0  0  0  0  0  0
   -1.6391   -3.0851    0.1424 C   0  0  0  0  0  0  0  0  0  0  0  0
    2.4446    0.0602   -1.6045 O   0  0  0  0  0  0  0  0  0  0  0  0
  1  2  1  0
  1  3  2  0
  1  4  1  0
  2  5  1  0
  3  6  1  0
  4  7  2  0
  5  8  1  0
  5  9  2  0
  6 10  2  0
  7 10  1  0
  8 11  1  0
 10 12  1  0
 11 13  2  0
 11 14  1  0
 12 16  1  0
 12 15  2  0
 13 17  1  0
 14 18  2  0
 17 19  2  0
 18 19  1  0
 19 20  1  0
 20 21  2  0
 20 22  1  0
 23 24  2  0
 23 25  1  0
 23 26  1  0
 24 27  1  0
 25 28  2  0
 27 29  2  0
 27 30  1  0
 28 31  1  0
 28 29  1  0
M  CHG  4  12   1  16  -1  20   1  22  -1
M  END
>  <DRUGBANK_ID>  (1) 
DB11434

>  <COMMON_NAME>  (1) 
Nicarbazin

>  <CAS_NUMBER>  (1) 
330-95-0

>  <UNII>  (1) 
11P9NUA12U

>  <SYNONYMS>  (1) 
Nicarbazin

$$$$
