DD3
     RDKit          3D

 22 24  0  0  0  0  0  0  0  0999 V2000
    2.1866   -3.2954    1.3427 C   0  0  0  0  0  0  0  0  0  0  0  0
    1.7686   -1.1015    0.0426 C   0  0  0  0  0  0  0  0  0  0  0  0
    2.4213   -2.4860    0.0694 C   0  0  2  0  0  0  0  0  0  0  0  0
    1.7384   -4.8203    3.6836 C   0  0  0  0  0  0  0  0  0  0  0  0
    2.1563   -5.4420    2.5214 C   0  0  0  0  0  0  0  0  0  0  0  0
    2.3844   -4.6856    1.3771 C   0  0  0  0  0  0  0  0  0  0  0  0
    1.2794   -7.2351   -2.2794 N   0  0  0  0  0  0  0  0  0  0  0  0
    0.8365   -3.6240   -1.4071 C   0  0  0  0  0  0  0  0  0  0  0  0
   -1.5340   -3.1891   -1.6300 C   0  0  0  0  0  0  0  0  0  0  0  0
   -1.6845   -4.4055   -2.2637 C   0  0  0  0  0  0  0  0  0  0  0  0
    0.6382   -4.9414   -1.8988 C   0  0  0  0  0  0  0  0  0  0  0  0
    1.5872   -5.9776   -1.9497 C   0  0  0  0  0  0  0  0  0  0  0  0
    1.7897   -2.6843    2.5367 C   0  0  0  0  0  0  0  0  0  0  0  0
   -0.2648   -2.7810   -1.2700 C   0  0  0  0  0  0  0  0  0  0  0  0
    2.4046   -7.1439    2.4729 Cl  0  0  0  0  0  0  0  0  0  0  0  0
    1.5543   -3.4393    3.6891 C   0  0  0  0  0  0  0  0  0  0  0  0
    2.1265   -3.2348   -1.1303 O   0  0  0  0  0  0  0  0  0  0  0  0
   -0.6448   -5.3198   -2.3332 C   0  0  0  0  0  0  0  0  0  0  0  0
   -0.9303   -6.5393   -2.7695 N   0  0  0  0  0  0  0  0  0  0  0  0
    2.9464   -5.7404   -1.7480 N   0  0  0  0  0  0  0  0  0  0  0  0
    0.0283   -7.4619   -2.6865 C   0  0  0  0  0  0  0  0  0  0  0  0
   -0.3010   -8.7337   -3.0358 N   0  0  0  0  0  0  0  0  0  0  0  0
  1  6  2  0
  1 13  1  0
  3 17  1  0
  3  2  1  1
  3  1  1  0
  4  5  2  0
  4 16  1  0
  5  6  1  0
  5 15  1  0
  7 12  2  0
  7 21  1  0
  8 11  2  0
  8 14  1  0
  8 17  1  0
  9 10  1  0
  9 14  2  0
 10 18  2  0
 11 12  1  0
 11 18  1  0
 12 20  1  0
 13 16  2  0
 18 19  1  0
 19 21  2  0
 21 22  1  0
M  END
>  <DRUGBANK_ID>  (1) 
DB07644

>  <COMMON_NAME>  (1) 
5-[(1S)-1-(3-chlorophenyl)ethoxy]quinazoline-2,4-diamine

$$$$
