
     RDKit          3D

 17 18  0  0  0  0  0  0  0  0999 V2000
    0.0212    0.5440   -0.0576 C   0  0  0  0  0  0  0  0  0  0  0  0
    0.7887   -0.6860    0.1420 C   0  0  0  0  0  0  0  0  0  0  0  0
   -0.7321   -0.7187    0.0007 C   0  0  0  0  0  0  0  0  0  0  0  0
   -0.1204    1.6933    0.8112 C   0  0  0  0  0  0  0  0  0  0  0  0
   -0.2431    2.6642    0.1116 O   0  0  0  0  0  0  0  0  0  0  0  0
   -0.0606    1.6947    2.1921 O   0  0  0  0  0  0  0  0  0  0  0  0
   -0.3989    5.1355    1.0231 N   0  0  0  0  0  0  0  0  0  0  0  0
   -1.6990    4.3404    1.4348 C   0  0  0  0  0  0  0  0  0  0  0  0
   -1.4878    3.7575    2.8440 C   0  0  0  0  0  0  0  0  0  0  0  0
   -0.1460    2.9908    2.9622 C   0  0  0  0  0  0  0  0  0  0  0  0
    1.0221    3.9898    2.7587 C   0  0  0  0  0  0  0  0  0  0  0  0
    1.0449    4.5730    1.3354 C   0  0  0  0  0  0  0  0  0  0  0  0
    1.8322    3.5421    0.4216 C   0  0  0  0  0  0  0  0  0  0  0  0
    2.1220    5.6842    1.1944 C   0  0  0  0  0  0  0  0  0  0  0  0
   -2.9410    5.2794    1.3643 C   0  0  0  0  0  0  0  0  0  0  0  0
   -2.3817    3.2199    0.5382 C   0  0  0  0  0  0  0  0  0  0  0  0
   -0.4519    6.2964    1.9460 O   0  0  0  0  0  0  0  0  0  0  0  0
  1  2  1  0
  1  3  1  0
  1  4  1  0
  2  3  1  0
  4  5  2  0
  4  6  1  0
  6 10  1  0
  7  8  1  0
  7 12  1  0
  7 17  1  0
  8  9  1  0
  8 15  1  0
  8 16  1  0
  9 10  1  0
 10 11  1  0
 11 12  1  0
 12 13  1  0
 12 14  1  0
M  END
>  <DRUGBANK_ID>  (1) 
DB05650

>  <COMMON_NAME>  (1) 
OT-551

>  <CAS_NUMBER>  (1) 
627085-11-4

>  <UNII>  (1) 
DZ02S3A31N

$$$$
