
     RDKit          3D

 10  9  0  0  1  0  0  0  0  0999 V2000
    1.0582    0.0735   -0.0348 C   0  0  0  0  0  0  0  0  0  0  0  0
    0.5515    1.4535   -0.4211 C   0  0  1  0  0  0  0  0  0  0  0  0
    1.0582    1.8090   -1.8094 C   0  0  0  0  0  0  0  0  0  0  0  0
    1.2015   -0.6227   -3.2738 As  0  0  0  0  0  3  0  0  0  0  0  0
   -0.9185    1.4535   -0.4211 N   0  0  0  0  0  0  0  0  0  0  0  0
    0.2323    2.0485   -2.7452 O   0  0  0  0  0  0  0  0  0  0  0  0
    2.4543    1.8733   -2.0608 O   0  0  0  0  0  0  0  0  0  0  0  0
    3.0515   -0.6227   -3.2738 O   0  0  0  0  0  0  0  0  0  0  0  0
    0.5848   -1.8698   -4.4933 O   0  0  0  0  0  0  0  0  0  0  0  0
    0.4549   -1.1466   -1.2279 S   0  0  0  0  0  0  0  0  0  0  0  0
  2  1  1  0
  2  5  1  6
  3  2  1  0
  6  3  2  0
  7  3  1  0
  8  4  1  0
  9  4  1  0
 10  1  1  0
 10  4  1  0
M  END
>  <DRUGBANK_ID>  (1) 
DB03289

>  <SECONDARY_ACCESSION_NUMBERS>  (1) 
EXPT01083

>  <COMMON_NAME>  (1) 
Thiarsa Dihydroxy Cysteine

$$$$
