
     RDKit          3D

 38 39  0  0  0  0  0  0  0  0999 V2000
    1.0453   -0.1353   -0.0458 C   0  0  0  0  0  0  0  0  0  0  0  0
    0.5977   -1.0790    1.0584 C   0  0  0  0  0  0  0  0  0  0  0  0
    1.0960   -0.5824    2.4163 C   0  0  0  0  0  0  0  0  0  0  0  0
    0.5436    0.8116    2.7347 C   0  0  0  0  0  0  0  0  0  0  0  0
   -0.9890    0.7960    2.7501 C   0  0  0  0  0  0  0  0  0  0  0  0
   -1.4942   -0.1670    3.8293 C   0  0  0  0  0  0  0  0  0  0  0  0
   -0.9858    0.2766    5.2050 C   0  0  0  0  0  0  0  0  0  0  0  0
   -1.4920    1.6838    5.5153 C   0  0  0  0  0  0  0  0  0  0  0  0
   -3.0186    1.6905    5.5193 C   0  0  0  0  0  0  0  0  0  0  0  0
   -3.5699    0.7301    6.5834 C   0  0  0  0  0  0  0  0  0  0  0  0
   -3.0949    1.1096    7.9939 C   0  0  0  0  0  0  0  0  0  0  0  0
   -3.5279    2.5144    8.3679 C   0  0  0  0  0  0  0  0  0  0  0  0
   -4.9875    2.6001    8.3919 N   0  0  0  0  0  0  0  0  0  0  0  0
   -5.4061    3.9838    8.5901 C   0  0  0  0  0  0  0  0  0  0  0  0
   -4.9309    4.9212    7.4559 C   0  0  0  0  0  0  0  0  0  0  0  0
   -5.5164    4.4720    6.1069 C   0  0  0  0  0  0  0  0  0  0  0  0
   -7.0449    4.4505    6.0990 C   0  0  0  0  0  0  0  0  0  0  0  0
   -7.6267    5.8392    6.3321 C   0  0  0  0  0  0  0  0  0  0  0  0
   -7.0478    6.8184    5.3044 C   0  0  0  0  0  0  0  0  0  0  0  0
   -7.5157    6.3842    3.9210 C   0  0  0  0  0  0  0  0  0  0  0  0
   -9.0423    6.3725    3.8996 C   0  0  0  0  0  0  0  0  0  0  0  0
   -9.5955    7.7676    4.1997 C   0  0  0  0  0  0  0  0  0  0  0  0
   -9.1111    8.7579    3.1429 C   0  0  0  0  0  0  0  0  0  0  0  0
   -9.5999    8.3308    1.7492 C   0  0  0  0  0  0  0  0  0  0  0  0
  -11.0570    8.2988    1.7039 N   0  0  0  0  0  0  0  0  0  0  0  0
  -11.7255    7.0635    1.7207 C   0  0  0  0  0  0  0  0  0  0  0  0
  -11.1917    5.9687    1.6766 O   0  0  0  0  0  0  0  0  0  0  0  0
  -13.1385    7.2065    1.7927 C   0  0  0  0  0  0  0  0  0  0  0  0
  -13.7677    8.4123    1.8242 C   0  0  0  0  0  0  0  0  0  0  0  0
  -15.1222    8.2689    1.8572 N   0  0  0  0  0  0  0  0  0  0  0  0
  -15.3179    6.9628    1.8512 C   0  0  0  0  0  0  0  0  0  0  0  0
  -14.1344    6.2724    1.8296 N   0  0  0  0  0  0  0  0  0  0  0  0
  -13.9759    4.8383    1.8300 C   0  0  0  0  0  0  0  0  0  0  0  0
  -13.0605    9.5930    1.8058 N   0  0  0  0  0  0  0  0  0  0  0  0
  -11.6747    9.5568    1.7462 C   0  0  0  0  0  0  0  0  0  0  0  0
  -11.0017   10.5932    1.7375 O   0  0  0  0  0  0  0  0  0  0  0  0
  -13.7180   10.8805    1.8301 C   0  0  0  0  0  0  0  0  0  0  0  0
   -5.1940    6.2865    7.7588 O   0  0  0  0  0  0  0  0  0  0  0  0
  1  2  1  0
  2  3  1  0
  3  4  1  0
  4  5  1  0
  5  6  1  0
  6  7  1  0
  7  8  1  0
  8  9  1  0
  9 10  1  0
 10 11  1  0
 11 12  1  0
 12 13  1  0
 13 14  1  0
 14 15  1  0
 15 16  1  0
 15 38  1  0
 16 17  1  0
 17 18  1  0
 18 19  1  0
 19 20  1  0
 20 21  1  0
 21 22  1  0
 22 23  1  0
 23 24  1  0
 24 25  1  0
 25 26  1  0
 25 35  1  0
 26 27  2  0
 26 28  1  0
 28 29  2  0
 28 32  1  0
 29 30  1  0
 29 34  1  0
 30 31  2  0
 31 32  1  0
 32 33  1  0
 34 35  1  0
 34 37  1  0
 35 36  2  0
M  END
>  <DRUGBANK_ID>  (1) 
DB13098

>  <COMMON_NAME>  (1) 
CT-2584

>  <CAS_NUMBER>  (1) 
166981-13-1

>  <UNII>  (1) 
67E5N3R22H

$$$$
