
     RDKit          3D

 22 22  0  0  0  0  0  0  0  0999 V2000
   -1.1706   -0.2949   -0.0129 C   0  0  0  0  0  0  0  0  0  0  0  0
   -0.9259    1.1487   -0.5457 C   0  0  0  0  0  0  0  0  0  0  0  0
    0.1527   -1.0934    0.1406 C   0  0  0  0  0  0  0  0  0  0  0  0
    1.3598   -0.4660    0.0252 C   0  0  0  0  0  0  0  0  0  0  0  0
    1.5054    1.0423   -0.1347 C   0  0  0  0  0  0  0  0  0  0  0  0
    0.2380    1.8329    0.1370 C   0  0  0  0  0  0  0  0  0  0  0  0
   -4.6730   -9.6945    1.5790 C   0  0  0  0  0  0  0  0  0  0  0  0
   -3.5167   -9.0032    1.4711 C   0  0  0  0  0  0  0  0  0  0  0  0
   -3.5312   -7.5407    1.2168 C   0  0  0  0  0  0  0  0  0  0  0  0
   -2.4045   -6.8173    1.1047 C   0  0  0  0  0  0  0  0  0  0  0  0
   -2.2534   -5.3962    0.8794 C   0  0  0  0  0  0  0  0  0  0  0  0
   -1.0548   -4.7664    0.8030 C   0  0  0  0  0  0  0  0  0  0  0  0
    0.0750   -2.5484    0.3972 C   0  0  0  0  0  0  0  0  0  0  0  0
   -2.1438   -9.6302    1.5972 C   0  0  0  0  0  0  0  0  0  0  0  0
    0.2843   -5.4510    0.9088 C   0  0  0  0  0  0  0  0  0  0  0  0
   -2.1280   -0.9069   -1.0719 C   0  0  0  0  0  0  0  0  0  0  0  0
   -1.8575   -0.1823    1.3679 C   0  0  0  0  0  0  0  0  0  0  0  0
   -1.0112   -3.3164    0.6140 C   0  0  0  0  0  0  0  0  0  0  0  0
    2.7228   -1.1264    0.0181 C   0  0  0  0  0  0  0  0  0  0  0  0
   -4.8749  -11.1427    1.8282 C   0  0  0  0  0  0  0  0  0  0  0  0
   -5.9748  -11.6716    1.9072 O   0  0  0  0  0  0  0  0  0  0  0  0
   -3.7574  -11.8619    1.9655 O   0  0  0  0  0  0  0  0  0  0  0  0
  1 16  1  0
  1 17  1  0
  1  2  1  0
  1  3  1  0
  2  6  1  0
  3 13  1  0
  4  3  2  0
  5  4  1  0
  6  5  1  0
  7 20  1  0
  8  7  2  0
  9  8  1  0
 10  9  2  0
 11 10  1  0
 12 11  2  0
 13 18  2  0
 14  8  1  0
 15 12  1  0
 18 12  1  0
 19  4  1  0
 20 21  2  0
 20 22  1  0
M  END
>  <DRUGBANK_ID>  (1) 
DB00755

>  <SECONDARY_ACCESSION_NUMBERS>  (1) 
NUTR00051; APRD00362

>  <COMMON_NAME>  (1) 
Tretinoin

>  <CAS_NUMBER>  (1) 
302-79-4

>  <UNII>  (1) 
5688UTC01R

>  <SYNONYMS>  (1) 
(all-E)-3,7-Dimethyl-9-(2,6,6-trimethyl-1-cyclohexen-1-yl)-2,4,6,8-nonatetraenoic acid; 3,7-Dimethyl-9-(2,6,6-trimethyl-1-cyclohexene-1-yl)-2,4,6,8-nonatetraenoic acid (ECL); Acide retinoique; all trans Retinoic acid; all trans-Retinoic acid; all-(E)-Retinoic acid; all-trans-beta-Retinoic acid; all-trans-Retinoic acid; all-trans-Tretinoin; all-trans-Vitamin A acid; all-trans-Vitamin A1 acid; ATRA; beta-Retinoic acid; Retinoic acid; Retionic acid; trans-Retinoic acid; Tretin M; Tretinoin; Tretinoina; Trétinoïne; Tretinoinum; Vitamin A acid

$$$$
