
     RDKit          3D

 25 27  0  0  0  0  0  0  0  0999 V2000
    1.1208    0.0037    0.0693 C   0  0  0  0  0  0  0  0  0  0  0  0
    0.3881   -0.6499   -1.0826 C   0  0  0  0  0  0  0  0  0  0  0  0
   -0.5154   -1.7841   -0.5983 C   0  0  0  0  0  0  0  0  0  0  0  0
   -1.5761   -1.2981    0.3951 C   0  0  0  0  0  0  0  0  0  0  0  0
   -2.4704   -0.2179   -0.2260 C   0  0  0  0  0  0  0  0  0  0  0  0
   -3.2639   -0.7835   -1.4137 C   0  0  0  0  0  0  0  0  0  0  0  0
   -4.0607   -2.0351   -1.0325 C   0  0  0  0  0  0  0  0  0  0  0  0
    0.5718    0.5789    1.0045 O   0  0  0  0  0  0  0  0  0  0  0  0
    2.4610   -0.0841   -0.0006 O   0  0  0  0  0  0  0  0  0  0  0  0
   -4.8511   -1.6806    0.1120 N   0  0  0  0  0  0  0  0  0  0  0  0
   -7.7012   -1.2037   -0.8885 C   0  0  0  0  0  0  0  0  0  0  0  0
   -7.0094   -2.4053   -0.6112 C   0  0  0  0  0  0  0  0  0  0  0  0
   -5.9665   -2.5194    0.4796 C   0  0  0  0  0  0  0  0  0  0  0  0
   -6.4816   -2.0818    1.8465 C   0  0  0  0  0  0  0  0  0  0  0  0
   -6.7259   -0.7145    2.1134 C   0  0  0  0  0  0  0  0  0  0  0  0
   -6.5895    0.3179    1.0196 C   0  0  0  0  0  0  0  0  0  0  0  0
   -7.6145    0.0965   -0.0969 C   0  0  0  0  0  0  0  0  0  0  0  0
   -7.1502   -3.5100   -1.4818 C   0  0  0  0  0  0  0  0  0  0  0  0
   -7.9940   -3.4525   -2.5844 C   0  0  0  0  0  0  0  0  0  0  0  0
   -8.7081   -2.2897   -2.8373 C   0  0  0  0  0  0  0  0  0  0  0  0
   -8.5580   -1.1802   -2.0045 C   0  0  0  0  0  0  0  0  0  0  0  0
   -7.1480   -0.3219    3.3872 C   0  0  0  0  0  0  0  0  0  0  0  0
   -7.3740   -1.2736    4.3784 C   0  0  0  0  0  0  0  0  0  0  0  0
   -7.1577   -2.6245    4.1157 C   0  0  0  0  0  0  0  0  0  0  0  0
   -6.6999   -3.0286    2.8611 C   0  0  0  0  0  0  0  0  0  0  0  0
  1  2  1  0
  1  8  2  0
  1  9  1  0
  2  3  1  0
  3  4  1  0
  4  5  1  0
  5  6  1  0
  6  7  1  0
  7 10  1  0
 10 13  1  0
 11 12  2  0
 11 17  1  0
 11 21  1  0
 12 13  1  0
 12 18  1  0
 13 14  1  0
 14 15  2  0
 14 25  1  0
 15 16  1  0
 15 22  1  0
 16 17  1  0
 18 19  2  0
 19 20  1  0
 20 21  2  0
 22 23  2  0
 23 24  1  0
 24 25  2  0
M  END
>  <DRUGBANK_ID>  (1) 
DB04836

>  <COMMON_NAME>  (1) 
Amineptine

>  <CAS_NUMBER>  (1) 
57574-09-1

>  <UNII>  (1) 
27T1I13L6G

>  <SYNONYMS>  (1) 
Amineptine; Amineptino; Amineptinum

$$$$
