
     RDKit          3D

 10  9  0  0  0  0  0  0  0  0999 V2000
    0.9212    0.2333   -0.0214 C   0  0  0  0  0  0  0  0  0  0  0  0
    0.0723   -0.3254   -1.1403 C   0  0  0  0  0  0  0  0  0  0  0  0
   -0.9977   -0.8926   -0.9073 O   0  0  0  0  0  0  0  0  0  0  0  0
    0.7702   -0.4125   -2.3189 O   0  0  0  0  0  0  0  0  0  0  0  0
    0.3621   -1.3492   -3.3678 C   0  0  0  0  0  0  0  0  0  0  0  0
    0.9132   -2.8208   -3.2382 C   0  0  0  0  0  0  0  0  0  0  0  0
    0.4700   -3.5560   -1.9552 N   0  0  0  0  0  0  0  0  0  0  0  0
   -1.0706   -3.5629   -1.9138 C   0  0  0  0  0  0  0  0  0  0  0  0
    0.9178   -5.0069   -1.8882 C   0  0  0  0  0  0  0  0  0  0  0  0
    1.1851   -2.9648   -0.7585 C   0  0  0  0  0  0  0  0  0  0  0  0
  1  2  1  0
  2  3  2  0
  2  4  1  0
  4  5  1  0
  5  6  1  0
  6  7  1  0
  7  8  1  0
  7  9  1  0
  7 10  1  0
M  CHG  1   7   1
M  END
>  <DRUGBANK_ID>  (1) 
DB03128

>  <SECONDARY_ACCESSION_NUMBERS>  (1) 
EXPT00412

>  <COMMON_NAME>  (1) 
Acetylcholine

>  <CAS_NUMBER>  (1) 
51-84-3

>  <UNII>  (1) 
N9YNS0M02X

>  <SYNONYMS>  (1) 
Acetylcholine; ACh; Choline acetate; O-Acetylcholine

$$$$
