
     RDKit          3D

 14 13  0  0  1  0  0  0  0  0999 V2000
    0.7484   -2.4496    2.5831 C   0  0  0  0  0  0  0  0  0  0  0  0
   -0.6139   -1.9914    2.8391 N   0  0  0  0  0  0  0  0  0  0  0  0
   -0.5748   -1.1088    3.9908 C   0  0  0  0  0  0  0  0  0  0  0  0
   -1.3002   -1.3655    1.6863 C   0  0  0  0  0  0  0  0  0  0  0  0
   -0.7484   -0.0146    1.1769 C   0  0  0  0  0  0  0  0  0  0  0  0
    0.5309   -0.1726    0.5727 O   0  0  0  0  0  0  0  0  0  0  0  0
    0.4792   -1.0868   -0.7838 P   0  0  0  0  0  0  0  0  0  0  0  0
    1.0559   -2.4616    0.0938 O   0  0  0  0  0  0  0  0  0  0  0  0
    1.8409   -1.0178   -1.4783 O   0  0  0  0  0  0  0  0  0  0  0  0
   -0.0974    0.2881   -1.6614 O   0  0  0  0  0  0  0  0  0  0  0  0
   -0.6769   -0.2184   -3.2108 P   0  0  0  0  0  0  0  0  0  0  0  0
   -1.0655   -1.6672   -2.5387 O   0  0  0  0  0  0  0  0  0  0  0  0
   -2.0573    0.5379   -2.7643 O   0  0  0  0  0  0  0  0  0  0  0  0
   -1.1955   -0.6716   -4.5975 O   0  0  0  0  0  0  0  0  0  0  0  0
  1  2  1  0
  2  3  1  0
  2  4  1  0
  4  5  1  0
  5  6  1  0
  7  9  2  0
  7 10  1  0
  7  8  1  0
  7  6  1  0
 10 11  1  0
 11 12  1  0
 11 13  1  0
 11 14  2  0
M  END
>  <DRUGBANK_ID>  (1) 
DB03165

>  <SECONDARY_ACCESSION_NUMBERS>  (1) 
EXPT01154

>  <COMMON_NAME>  (1) 
2-Dimethylamino-Ethyl-Diphosphate

$$$$
