
     RDKit          3D

 13 13  0  0  1  0  0  0  0  0999 V2000
   -0.2411   -1.6510    3.5676 C   0  0  0  0  0  0  0  0  0  0  0  0
    0.9147   -1.2901    2.7478 O   0  0  0  0  0  0  0  0  0  0  0  0
    0.8140   -2.0986    1.5911 C   0  0  2  0  0  0  0  0  0  0  0  0
    1.0810   -3.3988    2.0927 O   0  0  0  0  0  0  0  0  0  0  0  0
    0.1954   -4.3262    1.5030 C   0  0  2  0  0  0  0  0  0  0  0  0
    0.2302   -5.5515    2.4028 C   0  0  0  0  0  0  0  0  0  0  0  0
   -0.2006   -5.1927    3.7242 O   0  0  0  0  0  0  0  0  0  0  0  0
    0.6933   -4.5265    0.0797 C   0  0  1  0  0  0  0  0  0  0  0  0
   -0.1670   -5.4190   -0.6148 O   0  0  0  0  0  0  0  0  0  0  0  0
    0.8274   -3.1376   -0.6331 C   0  0  2  0  0  0  0  0  0  0  0  0
    1.4173   -3.2885   -1.9246 O   0  0  0  0  0  0  0  0  0  0  0  0
    1.5747   -2.0387    0.2433 C   0  0  1  0  0  0  0  0  0  0  0  0
    1.5078   -0.7610   -0.3962 O   0  0  0  0  0  0  0  0  0  0  0  0
  1  2  1  0
  3  4  1  0
  3 12  1  0
  3  2  1  1
  4  5  1  0
  5  6  1  1
  5  8  1  0
  6  7  1  0
  8  9  1  6
  8 10  1  0
 10 11  1  6
 10 12  1  0
 12 13  1  6
M  END
>  <DRUGBANK_ID>  (1) 
DB01642

>  <SECONDARY_ACCESSION_NUMBERS>  (1) 
EXPT02166

>  <COMMON_NAME>  (1) 
methyl beta-D-glucopyranoside

>  <CAS_NUMBER>  (1) 
709-50-2

>  <SYNONYMS>  (1) 
1-O-Methyl-beta-D-glucopyranoside; beta-methyl-D-glucoside; beta-Methylglucoside; methyl beta-D-glucoside; Methyl hexopyranoside; O1-methyl-glucose; Î²-d-Methylglucopyranoside

$$$$
