
     RDKit          3D

 23 24  0  0  0  0  0  0  0  0999 V2000
    1.0362   -0.0144    0.2980 C   0  0  0  0  0  0  0  0  0  0  0  0
    1.8278   -7.1534   -0.2198 C   0  0  0  0  0  0  0  0  0  0  0  0
    0.6127   -1.2919   -0.3525 C   0  0  0  0  0  0  0  0  0  0  0  0
    0.5953   -6.3419    0.1382 C   0  0  0  0  0  0  0  0  0  0  0  0
    2.3735   -5.1605    2.3498 C   0  0  0  0  0  0  0  0  0  0  0  0
    3.9002   -5.2225    2.2719 C   0  0  0  0  0  0  0  0  0  0  0  0
   -1.6202   -1.0691   -4.1147 C   0  0  0  0  0  0  0  0  0  0  0  0
    0.1294   -2.3934   -3.1016 C   0  0  0  0  0  0  0  0  0  0  0  0
   -2.1791   -2.8159   -2.5242 C   0  0  0  0  0  0  0  0  0  0  0  0
    0.7319   -0.5311   -4.5801 C   0  0  0  0  0  0  0  0  0  0  0  0
   -3.9724   -1.5900   -3.6865 C   0  0  0  0  0  0  0  0  0  0  0  0
   -0.2627   -1.3438   -3.9386 C   0  0  0  0  0  0  0  0  0  0  0  0
   -2.5799   -1.8253   -3.4301 C   0  0  0  0  0  0  0  0  0  0  0  0
   -0.8205   -3.0791   -2.3423 C   0  0  0  0  0  0  0  0  0  0  0  0
    0.9704   -2.6687    0.1644 C   0  0  0  0  0  0  0  0  0  0  0  0
    0.9004   -4.8991    0.3130 C   0  0  0  0  0  0  0  0  0  0  0  0
    0.4225   -3.8420   -0.4209 C   0  0  0  0  0  0  0  0  0  0  0  0
    1.5378    0.1306   -5.0808 N   0  0  0  0  0  0  0  0  0  0  0  0
   -5.0868   -1.4000   -3.9329 N   0  0  0  0  0  0  0  0  0  0  0  0
    1.7976   -2.9919    1.1950 N   0  0  0  0  0  0  0  0  0  0  0  0
    1.7106   -4.3717    1.2944 N   0  0  0  0  0  0  0  0  0  0  0  0
    4.4703   -3.9603    2.5782 O   0  0  0  0  0  0  0  0  0  0  0  0
   -0.4666   -4.0416   -1.4306 O   0  0  0  0  0  0  0  0  0  0  0  0
  3  1  1  0
  4  2  1  0
  6  5  1  0
 12  7  2  0
 12  8  1  0
 12 10  1  0
 13  7  1  0
 13  9  2  0
 13 11  1  0
 14  8  2  0
 14  9  1  0
 15  3  1  0
 16  4  1  0
 17 15  1  0
 17 16  2  0
 18 10  3  0
 19 11  3  0
 20 15  2  0
 21  5  1  0
 21 16  1  0
 21 20  1  0
 22  6  1  0
 23 14  1  0
 23 17  1  0
M  END
>  <DRUGBANK_ID>  (1) 
DB11649

>  <COMMON_NAME>  (1) 
Lersivirine

>  <CAS_NUMBER>  (1) 
473921-12-9

>  <UNII>  (1) 
R3ZGC15A9A

>  <SYNONYMS>  (1) 
Lersivirine

$$$$
