371
     RDKit          3D

 28 31  0  0  0  0  0  0  0  0999 V2000
    1.2764   -1.3644   -0.0456 O   0  0  0  0  0  0  0  0  0  0  0  0
    2.4584   -0.6396   -0.0194 C   0  0  0  0  0  0  0  0  0  0  0  0
    2.5199    0.7088   -0.0082 C   0  0  0  0  0  0  0  0  0  0  0  0
    1.2446    1.4705   -0.0041 C   0  0  0  0  0  0  0  0  0  0  0  0
   -1.2195    1.3714   -0.0103 C   0  0  0  0  0  0  0  0  0  0  0  0
   -2.4175    0.6620   -0.0132 C   0  0  0  0  0  0  0  0  0  0  0  0
   -2.3657   -0.7423   -0.0086 C   0  0  0  0  0  0  0  0  0  0  0  0
   -1.1360   -1.4406    0.0069 C   0  0  0  0  0  0  0  0  0  0  0  0
    0.0653   -0.7033   -0.0204 C   0  0  0  0  0  0  0  0  0  0  0  0
    0.0037    0.6902   -0.0179 C   0  0  0  0  0  0  0  0  0  0  0  0
    1.2145    2.6960    0.0183 O   0  0  0  0  0  0  0  0  0  0  0  0
    3.6922   -1.4684   -0.0228 C   0  0  0  0  0  0  0  0  0  0  0  0
    4.6167   -1.3488    1.0324 C   0  0  0  0  0  0  0  0  0  0  0  0
    5.8704   -1.9689    0.9727 C   0  0  0  0  0  0  0  0  0  0  0  0
    6.2410   -2.6476   -0.1818 C   0  0  0  0  0  0  0  0  0  0  0  0
    5.3196   -2.8154   -1.2168 C   0  0  0  0  0  0  0  0  0  0  0  0
    4.0259   -2.2870   -1.1149 C   0  0  0  0  0  0  0  0  0  0  0  0
   -3.7248    1.4028   -0.0046 C   0  0  0  0  0  0  0  0  0  0  0  0
    3.6838    1.4566   -0.0023 O   0  0  0  0  0  0  0  0  0  0  0  0
    5.7269   -3.4786   -2.3424 O   0  0  0  0  0  0  0  0  0  0  0  0
    7.5059   -3.1439   -0.3287 O   0  0  0  0  0  0  0  0  0  0  0  0
   -0.5721   -5.0880    0.7458 C   0  0  0  0  0  0  0  0  0  0  0  0
   -0.0460   -3.6609    0.6433 C   0  0  0  0  0  0  0  0  0  0  0  0
   -1.1818   -2.8822    0.1167 N   0  0  0  0  0  0  0  0  0  0  0  0
   -1.9244   -3.7785   -1.1366 S   0  0  0  0  0  0  0  0  0  0  0  0
   -1.3876   -5.3664   -0.5131 C   0  0  0  0  0  0  0  0  0  0  0  0
   -1.2219   -3.5193   -2.3707 O   0  0  0  0  0  0  0  0  0  0  0  0
   -3.3639   -3.6657   -1.0189 O   0  0  0  0  0  0  0  0  0  0  0  0
  1  2  1  0
  1  9  1  0
  2 12  1  0
  2  3  2  0
  3 19  1  0
  3  4  1  0
  4 10  1  0
  4 11  2  0
  5 10  2  0
  5  6  1  0
  6  7  2  0
  6 18  1  0
  7  8  1  0
  8 24  1  0
  8  9  2  0
  9 10  1  0
 12 13  2  0
 12 17  1  0
 13 14  1  0
 14 15  2  0
 15 21  1  0
 15 16  1  0
 16 20  1  0
 16 17  2  0
 22 26  1  0
 22 23  1  0
 23 24  1  0
 24 25  1  0
 25 26  1  0
 25 27  2  0
 25 28  2  0
M  END
>  <DRUGBANK_ID>  (1) 
DB07024

>  <COMMON_NAME>  (1) 
2-(3,4-DIHYDROXYPHENYL)-8-(1,1-DIOXIDOISOTHIAZOLIDIN-2-YL)-3-HYDROXY-6-METHYL-4H-CHROMEN-4-ONE

$$$$
