
     RDKit          3D

 29 32  0  0  1  0  0  0  0  0999 V2000
   10.0982   -1.0172   -0.3076 C   0  0  0  0  0  0  0  0  0  0  0  0
   10.0898    0.4043    0.2321 C   0  0  0  0  0  0  0  0  0  0  0  0
   10.2039    0.4436    1.6555 O   0  0  0  0  0  0  0  0  0  0  0  0
    9.0175    0.0928    2.2554 C   0  0  0  0  0  0  0  0  0  0  0  0
    8.4270    0.9083    3.2004 C   0  0  0  0  0  0  0  0  0  0  0  0
    7.2432    0.4235    3.7225 C   0  0  0  0  0  0  0  0  0  0  0  0
    6.6309   -0.7374    3.4252 N   0  0  0  0  0  0  0  0  0  0  0  0
    7.3602   -1.5019    2.5996 C   0  0  0  0  0  0  0  0  0  0  0  0
    8.5081   -1.1395    2.0234 N   0  0  0  0  0  0  0  0  0  0  0  0
    6.9448   -2.7777    2.3402 N   0  0  0  0  0  0  0  0  0  0  0  0
    6.9455    1.3029    4.7215 N   0  0  0  0  0  0  0  0  0  0  0  0
    7.8661    2.3180    4.6820 C   0  0  0  0  0  0  0  0  0  0  0  0
    8.7823    2.1057    3.7703 N   0  0  0  0  0  0  0  0  0  0  0  0
    6.0094    1.0819    5.7893 C   0  0  1  0  0  0  0  0  0  0  0  0
    6.3382   -0.1242    6.7330 C   0  0  2  0  0  0  0  0  0  0  0  0
    7.0401    0.5735    7.8779 C   0  0  1  0  0  0  0  0  0  0  0  0
    6.1945    1.8191    7.9326 C   0  0  2  0  0  0  0  0  0  0  0  0
    6.0670    2.2954    6.6124 O   0  0  0  0  0  0  0  0  0  0  0  0
    6.8224    2.7228    8.9703 C   0  0  0  0  0  0  0  0  0  0  0  0
    6.8568    2.0851   10.2421 O   0  0  0  0  0  0  0  0  0  0  0  0
    6.5093    0.5083   10.3859 P   0  0  2  0  0  0  0  0  0  0  0  0
    6.7911   -0.1053   11.6959 O   0  0  0  0  0  0  0  0  0  0  0  0
    7.2649   -0.1170    9.0966 O   0  0  0  0  0  0  0  0  0  0  0  0
    5.0343    0.3209    9.7956 O   0  0  0  0  0  0  0  0  0  0  0  0
    3.8811    1.0507   10.0952 C   0  0  0  0  0  0  0  0  0  0  0  0
    3.5124    0.6039   11.4733 C   0  0  0  0  0  0  0  0  0  0  0  0
    3.9447    2.5786    9.9860 C   0  0  0  0  0  0  0  0  0  0  0  0
    7.2528   -1.2204    6.2602 C   0  0  0  0  0  0  0  0  0  0  0  0
    5.1560   -0.6784    7.1290 F   0  0  0  0  0  0  0  0  0  0  0  0
  1  2  1  0
  2  3  1  0
  3  4  1  0
  4  5  2  0
  4  9  1  0
  5  6  1  0
  5 13  1  0
  6  7  2  0
  6 11  1  0
  7  8  1  0
  8  9  2  0
  8 10  1  0
 11 12  1  0
 12 13  2  0
 14 15  1  0
 14 18  1  0
 14 11  1  6
 15 16  1  0
 15 28  1  6
 15 29  1  0
 16 17  1  0
 16 23  1  1
 17 18  1  0
 17 19  1  1
 19 20  1  0
 21 20  1  0
 21 22  2  0
 21 23  1  0
 21 24  1  0
 24 25  1  0
 25 26  1  0
 25 27  1  0
M  END
>  <DRUGBANK_ID>  (1) 
DB12896

>  <COMMON_NAME>  (1) 
PSI-352938

>  <CAS_NUMBER>  (1) 
1199809-32-9

>  <UNII>  (1) 
3Z30JH9QX1

$$$$
