
     RDKit          3D

 13 12  0  0  1  0  0  0  0  0999 V2000
    0.8079   -0.2227   -0.2589 O   0  0  0  0  0  0  0  0  0  0  0  0
    0.5538    0.7193   -1.3380 C   0  0  1  0  0  0  0  0  0  0  0  0
    1.1047    2.1644   -1.0970 C   0  0  0  0  0  0  0  0  0  0  0  0
    2.5403    2.1754   -0.9493 O   0  0  0  0  0  0  0  0  0  0  0  0
    3.1169    1.2101    0.3655 P   0  0  0  0  0  0  0  0  0  0  0  0
    3.7035    2.6282    0.9413 O   0  0  0  0  0  0  0  0  0  0  0  0
    1.7001    1.4297    1.1820 O   0  0  0  0  0  0  0  0  0  0  0  0
    3.6330    0.3461    1.5421 O   0  0  0  0  0  0  0  0  0  0  0  0
    1.1305    0.1383   -2.6320 C   0  0  1  0  0  0  0  0  0  0  0  0
    0.8111   -1.2424   -2.7465 O   0  0  0  0  0  0  0  0  0  0  0  0
    0.5651    1.0131   -3.7548 C   0  0  0  0  0  0  0  0  0  0  0  0
    1.5164    1.6595   -4.4726 O   0  0  0  0  0  0  0  0  0  0  0  0
   -0.6197    1.2116   -3.9270 O   0  0  0  0  0  0  0  0  0  0  0  0
  2  1  1  1
  2  3  1  0
  2  9  1  0
  3  4  1  0
  4  5  1  0
  5  6  1  0
  5  7  1  0
  5  8  2  0
  9 10  1  6
  9 11  1  0
 11 12  1  0
 11 13  2  0
M  END
>  <DRUGBANK_ID>  (1) 
DB01756

>  <SECONDARY_ACCESSION_NUMBERS>  (1) 
EXPT01163

>  <COMMON_NAME>  (1) 
4-phospho-L-threonic acid

>  <SYNONYMS>  (1) 
4-O-phosphono-L-threonic acid

$$$$
