
     RDKit          3D

 17 18  0  0  1  0  0  0  0  0999 V2000
    0.7355    1.2519   -0.2580 C   0  0  0  0  0  0  0  0  0  0  0  0
    1.4520   -0.0025    0.2159 C   0  0  0  0  0  0  0  0  0  0  0  0
    0.6987   -1.1988   -0.1259 N   0  0  0  0  0  0  0  0  0  0  0  0
   -0.6535   -1.2459    0.1321 C   0  0  0  0  0  0  0  0  0  0  0  0
   -1.2826   -2.2775    0.3712 O   0  0  0  0  0  0  0  0  0  0  0  0
   -1.2975   -0.0544   -0.0227 N   0  0  0  0  0  0  0  0  0  0  0  0
   -0.6887    1.2022    0.2512 C   0  0  1  0  0  0  0  0  0  0  0  0
   -0.7182    1.3509    1.6577 O   0  0  0  0  0  0  0  0  0  0  0  0
    1.2701   -2.2030   -1.0186 C   0  0  1  0  0  0  0  0  0  0  0  0
    1.8065   -1.6229   -2.3439 C   0  0  1  0  0  0  0  0  0  0  0  0
    2.9871   -2.5261   -2.6638 C   0  0  1  0  0  0  0  0  0  0  0  0
    3.4881   -2.9501   -1.2778 C   0  0  2  0  0  0  0  0  0  0  0  0
    2.3639   -2.8549   -0.3667 O   0  0  0  0  0  0  0  0  0  0  0  0
    4.6269   -2.0937   -0.6963 C   0  0  0  0  0  0  0  0  0  0  0  0
    4.8594   -0.9025   -1.4417 O   0  0  0  0  0  0  0  0  0  0  0  0
    2.5761   -3.6483   -3.4566 O   0  0  0  0  0  0  0  0  0  0  0  0
    0.8349   -1.5704   -3.3845 O   0  0  0  0  0  0  0  0  0  0  0  0
  1  2  1  0
  1  7  1  0
  2  3  1  0
  3  4  1  0
  4  5  2  0
  4  6  1  0
  6  7  1  0
  7  8  1  1
  9  3  1  1
  9 10  1  0
  9 13  1  0
 10 11  1  0
 10 17  1  6
 11 12  1  0
 11 16  1  6
 12 13  1  0
 12 14  1  1
 14 15  1  0
M  END
>  <DRUGBANK_ID>  (1) 
DB12484

>  <COMMON_NAME>  (1) 
Tetrahydrouridine

>  <CAS_NUMBER>  (1) 
18771-50-1

>  <UNII>  (1) 
0NIZ8H6OL8

$$$$
