
     RDKit          3D

 35 36  0  0  1  0  0  0  0  0999 V2000
   -4.5982    1.8206   -5.2042 C   0  0  0  0  0  0  0  0  0  0  0  0
   -3.4336    1.8501   -4.2360 C   0  0  0  0  0  0  0  0  0  0  0  0
   -3.5501    0.6522   -3.3240 C   0  0  0  0  0  0  0  0  0  0  0  0
   -3.5328   -0.5497   -4.2251 C   0  0  0  0  0  0  0  0  0  0  0  0
   -2.2580   -0.4556   -5.0321 C   0  0  0  0  0  0  0  0  0  0  0  0
   -1.0532   -0.2832   -3.8839 C   0  0  0  0  0  0  0  0  0  0  0  0
   -1.3644   -1.7372   -2.5555 C   0  0  0  0  0  0  0  0  0  0  0  0
   -1.0562   -3.6974   -3.5985 C   0  0  0  0  0  0  0  0  0  0  0  0
    0.4976   -3.3518   -4.8933 C   0  0  0  0  0  0  0  0  0  0  0  0
    2.0861   -3.4514   -3.9709 C   0  0  0  0  0  0  0  0  0  0  0  0
    1.8949   -4.6884   -2.6605 C   0  0  0  0  0  0  0  0  0  0  0  0
    1.8246   -5.9243   -3.3655 C   0  0  0  0  0  0  0  0  0  0  0  0
    3.0512   -5.8409   -4.3035 C   0  0  0  0  0  0  0  0  0  0  0  0
    4.1758   -5.8798   -3.3912 C   0  0  0  0  0  0  0  0  0  0  0  0
    3.8931   -7.1328   -2.5905 C   0  0  0  0  0  0  0  0  0  0  0  0
    3.7300   -8.3961   -3.4766 C   0  0  0  0  0  0  0  0  0  0  0  0
    4.6160   -9.2523   -3.3734 O   0  0  0  0  0  0  0  0  0  0  0  0
    2.5808   -8.6352   -4.3547 N   0  0  0  0  0  0  0  0  0  0  0  0
    1.4802   -7.9188   -4.9264 C   0  0  0  0  0  0  0  0  0  0  0  0
    0.1586   -8.2755   -4.5011 C   0  0  0  0  0  0  0  0  0  0  0  0
   -0.7634   -7.3112   -4.4981 C   0  0  0  0  0  0  0  0  0  0  0  0
   -0.5612   -6.0621   -5.0984 N   0  0  0  0  0  0  0  0  0  0  0  0
    0.7431   -5.9367   -5.7953 C   0  0  0  0  0  0  0  0  0  0  0  0
    1.3923   -4.9833   -6.2057 O   0  0  0  0  0  0  0  0  0  0  0  0
    1.5634   -7.0346   -5.8456 N   0  0  0  0  0  0  0  0  0  0  0  0
   -1.8027   -5.0999   -4.9138 C   0  0  1  0  0  0  0  0  0  0  0  0
   -2.5500   -5.0695   -3.1282 C   0  0  2  0  0  0  0  0  0  0  0  0
   -2.0433   -3.3547   -2.3615 C   0  0  1  0  0  0  0  0  0  0  0  0
   -0.9407   -2.3252   -4.0074 C   0  0  2  0  0  0  0  0  0  0  0  0
   -1.4986   -3.4067   -5.4496 O   0  0  0  0  0  0  0  0  0  0  0  0
    0.4442   -2.6861   -2.8000 C   0  0  0  0  0  0  0  0  0  0  0  0
    0.6878   -2.9773   -1.4547 O   0  0  0  0  0  0  0  0  0  0  0  0
   -3.3401   -2.9939   -1.9567 O   0  0  0  0  0  0  0  0  0  0  0  0
   -2.0453   -6.1193   -2.1751 C   0  0  0  0  0  0  0  0  0  0  0  0
   -1.6076   -6.9656   -1.5062 N   0  0  0  0  0  0  0  0  0  0  0  0
  1  2  1  0
  2  3  1  0
  3  4  1  0
  4  5  1  0
  5  6  1  0
  6  7  1  0
  7  8  1  0
  8  9  1  0
  9 10  1  0
 10 11  1  0
 11 12  1  0
 12 13  1  0
 13 14  1  0
 14 15  1  0
 15 16  1  0
 16 17  2  0
 16 18  1  0
 18 19  1  0
 19 20  1  0
 19 25  2  0
 20 21  2  0
 21 22  1  0
 22 23  1  0
 23 24  2  0
 23 25  1  0
 26 27  1  0
 26 30  1  0
 26 22  1  1
 27 28  1  0
 27 34  1  1
 28 29  1  0
 28 33  1  6
 29 30  1  0
 29 31  1  1
 31 32  1  0
 34 35  3  0
M  END
>  <DRUGBANK_ID>  (1) 
DB06365

>  <COMMON_NAME>  (1) 
Sapacitabine

>  <CAS_NUMBER>  (1) 
151823-14-2

>  <UNII>  (1) 
W335P73C3L

>  <SYNONYMS>  (1) 
1-(2-C-cyano-2-deoxy- ÃŸ-D-arabino-pentafuranosyl)-N4-palmitoylcytosine; Sapacitabine

$$$$
