
     RDKit          3D

 20 21  0  0  1  0  0  0  0  0999 V2000
    0.5854    0.6926    0.3787 C   0  0  1  0  0  0  0  0  0  0  0  0
   -0.6848    0.4749   -0.4136 C   0  0  1  0  0  0  0  0  0  0  0  0
   -0.5449   -0.9695   -0.9177 C   0  0  1  0  0  0  0  0  0  0  0  0
    0.3548   -1.6552   -0.0046 O   0  0  0  0  0  0  0  0  0  0  0  0
    0.8850   -0.7137    0.9558 C   0  0  2  0  0  0  0  0  0  0  0  0
    0.1370   -0.8957    2.3153 C   0  0  0  0  0  0  0  0  0  0  0  0
    0.3017   -2.2124    2.8525 O   0  0  0  0  0  0  0  0  0  0  0  0
    2.3420   -0.8369    1.1767 N   0  0  0  0  0  0  0  0  0  0  0  0
    2.7531   -1.9212    1.6186 N   0  0  0  0  0  0  0  0  0  0  0  0
    3.1454   -2.9212    2.0207 N   0  0  0  0  0  0  0  0  0  0  0  0
    1.6033    1.1876   -0.5039 O   0  0  0  0  0  0  0  0  0  0  0  0
   -1.7464    0.5896    0.4314 F   0  0  0  0  0  0  0  0  0  0  0  0
   -1.8108   -1.7011   -1.0433 N   0  0  0  0  0  0  0  0  0  0  0  0
   -2.8026   -1.1499   -1.8686 C   0  0  0  0  0  0  0  0  0  0  0  0
   -4.0383   -1.7614   -1.9093 N   0  0  0  0  0  0  0  0  0  0  0  0
   -4.3271   -2.6768   -1.0374 C   0  0  0  0  0  0  0  0  0  0  0  0
   -3.3654   -3.1431   -0.0231 C   0  0  0  0  0  0  0  0  0  0  0  0
   -2.1103   -2.7396   -0.1930 C   0  0  0  0  0  0  0  0  0  0  0  0
   -2.5636   -0.1479   -2.5411 O   0  0  0  0  0  0  0  0  0  0  0  0
   -5.5577   -3.2662   -1.0757 N   0  0  0  0  0  0  0  0  0  0  0  0
  1 11  1  6
  1  2  1  0
  2 12  1  1
  2  3  1  0
  3 13  1  1
  3  4  1  0
  4  5  1  0
  5  1  1  0
  5  6  1  1
  5  8  1  0
  6  7  1  0
  8  9  2  0
  9 10  2  0
 13 14  1  0
 13 18  1  0
 14 15  1  0
 14 19  2  0
 15 16  2  0
 16 17  1  0
 16 20  1  0
 17 18  2  0
M  CHG  2   9   1  10  -1
M  END
>  <DRUGBANK_ID>  (1) 
DB16407

>  <COMMON_NAME>  (1) 
Azvudine

>  <CAS_NUMBER>  (1) 
1011529-10-4

>  <UNII>  (1) 
IJ2XP0ID0K

>  <SYNONYMS>  (1) 
Azvudine

$$$$
