1075
     RDKit          3D

 19 20  0  0  0  0  0  0  0  0999 V2000
    0.9552    0.1153   -0.0753 O   0  0  0  0  0  0  0  0  0  0  0  0
    2.3374    0.2661    2.6003 N   0  0  0  0  0  0  0  0  0  0  0  0
    0.5550   -0.7707   -1.1494 C   0  0  0  0  0  0  0  0  0  0  0  0
    0.9080   -0.0778   -2.4461 C   0  0  0  0  0  0  0  0  0  0  0  0
    0.9964   -2.2377   -1.0189 C   0  0  0  0  0  0  0  0  0  0  0  0
    2.3580    0.2323    0.1396 C   0  0  0  0  0  0  0  0  0  0  0  0
    2.7613    0.9988    1.3846 C   0  0  0  0  0  0  0  0  0  0  0  0
    0.5929    1.2867   -2.5918 C   0  0  0  0  0  0  0  0  0  0  0  0
    2.3050   -2.6261   -0.6953 C   0  0  0  0  0  0  0  0  0  0  0  0
    1.6424   -0.7213   -3.4454 C   0  0  0  0  0  0  0  0  0  0  0  0
    0.1175   -3.2854   -1.3384 C   0  0  0  0  0  0  0  0  0  0  0  0
    2.8723    0.9306    3.7754 C   0  0  0  0  0  0  0  0  0  0  0  0
    0.8797    0.1517    2.6894 C   0  0  0  0  0  0  0  0  0  0  0  0
    1.0465    1.9970   -3.6959 C   0  0  0  0  0  0  0  0  0  0  0  0
    2.6675   -3.9174   -0.3739 C   0  0  0  0  0  0  0  0  0  0  0  0
    2.1237   -0.0020   -4.5293 C   0  0  0  0  0  0  0  0  0  0  0  0
    0.5134   -4.6155   -1.1572 C   0  0  0  0  0  0  0  0  0  0  0  0
    1.8139    1.3497   -4.6610 C   0  0  0  0  0  0  0  0  0  0  0  0
    1.7626   -4.9355   -0.6287 C   0  0  0  0  0  0  0  0  0  0  0  0
  1  3  1  0
  1  6  1  0
  2  7  1  0
  2 12  1  0
  2 13  1  0
  3  4  1  0
  3  5  1  0
  4  8  2  0
  4 10  1  0
  5  9  2  0
  5 11  1  0
  6  7  1  0
  8 14  1  0
  9 15  1  0
 10 16  2  0
 11 17  2  0
 14 18  2  0
 15 19  2  0
 16 18  1  0
 17 19  1  0
M  END
>  <DRUGBANK_ID>  (1) 
DB01075

>  <SECONDARY_ACCESSION_NUMBERS>  (1) 
APRD00587; DB06975

>  <COMMON_NAME>  (1) 
Diphenhydramine

>  <CAS_NUMBER>  (1) 
58-73-1

>  <UNII>  (1) 
8GTS82S83M

>  <SYNONYMS>  (1) 
2-(benzhydryloxy)-N,N-dimethylethylamine; 2-diphenylmethoxy-N,N-demthylethanamine; Difenhidramina; Diphenhydramine; Diphenhydraminum; N-(2-(diphenylmethoxy)ethyl)-N,N-dimethylamine; O-benzhydryldimethylaminoethanol; α-(2-dimethylaminoethoxy)diphenylmethane; β-dimethylaminoethanol diphenylmethyl ether; β-dimethylaminoethyl benzhydryl ether

$$$$
