
     RDKit          3D

 11 10  0  0  1  0  0  0  0  0999 V2000
    1.0161   -0.2600    0.0664 N   0  0  0  0  0  0  0  0  0  0  0  0
    0.5091    0.5410    1.1982 C   0  0  1  0  0  0  0  0  0  0  0  0
    1.0615    1.9794    1.2083 C   0  0  0  0  0  0  0  0  0  0  0  0
    0.7006    3.0914   -0.2226 S   0  0  0  0  0  0  0  0  0  0  0  0
    1.3350    2.0793   -1.9050 S   0  0  0  0  0  0  0  0  0  0  0  0
    0.5451    2.9417   -3.3205 C   0  0  0  0  0  0  0  0  0  0  0  0
   -0.9799    2.8933   -3.3526 C   0  0  0  0  0  0  0  0  0  0  0  0
   -1.5646    3.5468   -2.2382 O   0  0  0  0  0  0  0  0  0  0  0  0
   -1.0289    0.5493    1.1836 C   0  0  0  0  0  0  0  0  0  0  0  0
   -1.6152   -0.0696    2.2344 O   0  0  0  0  0  0  0  0  0  0  0  0
   -1.7002    1.0656    0.2948 O   0  0  0  0  0  0  0  0  0  0  0  0
  2  1  1  6
  2  3  1  0
  2  9  1  0
  3  4  1  0
  4  5  1  0
  5  6  1  0
  6  7  1  0
  7  8  1  0
  9 10  1  0
  9 11  2  0
M  END
>  <DRUGBANK_ID>  (1) 
DB04530

>  <SECONDARY_ACCESSION_NUMBERS>  (1) 
EXPT00954

>  <COMMON_NAME>  (1) 
S,S-(2-Hydroxyethyl)Thiocysteine

>  <UNII>  (1) 
7N9D5X3NW4

$$$$
