
     RDKit          3D

  9  8  0  0  1  0  0  0  0  0999 V2000
    0.9504    0.0789   -0.0464 C   0  0  1  0  0  0  0  0  0  0  0  0
    0.2824    1.4429   -0.0888 C   0  0  0  0  0  0  0  0  0  0  0  0
    0.6016   -0.5568    1.3054 C   0  0  0  0  0  0  0  0  0  0  0  0
   -0.7132   -0.4763    1.6009 F   0  0  0  0  0  0  0  0  0  0  0  0
    0.9010   -1.8848    1.2679 F   0  0  0  0  0  0  0  0  0  0  0  0
    1.3143   -0.0261    2.3205 F   0  0  0  0  0  0  0  0  0  0  0  0
    0.5602   -0.7365   -1.2518 N   0  0  0  0  0  0  0  0  0  0  0  0
   -0.2502    2.0391    0.8335 O   0  0  0  0  0  0  0  0  0  0  0  0
    0.3008    2.0146   -1.3136 O   0  0  0  0  0  0  0  0  0  0  0  0
  1  7  1  6
  1  3  1  0
  1  2  1  0
  4  3  1  0
  5  3  1  0
  6  3  1  0
  8  2  2  0
  9  2  1  0
M  END
>  <DRUGBANK_ID>  (1) 
DB03794

>  <SECONDARY_ACCESSION_NUMBERS>  (1) 
EXPT01440

>  <COMMON_NAME>  (1) 
Trifluoroalanine

>  <UNII>  (1) 
NT6AV26MM7

$$$$
