8NH
     RDKit          3D

 21 23  0  0  0  0  0  0  0  0999 V2000
    1.1204    0.0342    0.0669 Cl  0  0  0  0  0  0  0  0  0  0  0  0
    2.8673    0.0681    0.0394 C   0  0  0  0  0  0  0  0  0  0  0  0
    3.5667    1.3281    0.1001 C   0  0  0  0  0  0  0  0  0  0  0  0
    4.9558    1.4173   -0.1646 C   0  0  0  0  0  0  0  0  0  0  0  0
    5.5922    0.1853   -0.4188 C   0  0  0  0  0  0  0  0  0  0  0  0
    4.9420   -1.0640   -0.1976 C   0  0  0  0  0  0  0  0  0  0  0  0
    3.5560   -1.1403   -0.0621 C   0  0  0  0  0  0  0  0  0  0  0  0
    2.8794   -2.4121   -0.0928 C   0  0  0  0  0  0  0  0  0  0  0  0
    2.3169   -3.4369   -0.1550 N   0  0  0  0  0  0  0  0  0  0  0  0
    5.7030    2.6749   -0.1863 N   0  0  0  0  0  0  0  0  0  0  0  0
    5.9762    3.5279    0.9003 C   0  0  0  0  0  0  0  0  0  0  0  0
    6.8510    4.5295    0.4376 N   0  0  0  0  0  0  0  0  0  0  0  0
    6.7366    4.6492   -0.9726 C   0  0  1  0  0  0  0  0  0  0  0  0
    8.0392    5.2160   -1.5083 C   0  0  1  0  0  0  0  0  0  0  0  0
    8.9287    5.4648   -0.2884 C   0  0  0  0  0  0  0  0  0  0  0  0
    8.1264    5.0332    0.9510 C   0  0  0  0  0  0  0  0  0  0  0  0
    8.7425    4.3503   -2.3834 O   0  0  0  0  0  0  0  0  0  0  0  0
    6.2552    3.2407   -1.3280 C   0  0  0  0  0  0  0  0  0  0  0  0
    6.2304    2.8091   -2.4734 O   0  0  0  0  0  0  0  0  0  0  0  0
    5.5225    3.4991    2.0338 O   0  0  0  0  0  0  0  0  0  0  0  0
    2.7667    2.5487    0.4326 C   0  0  0  0  0  0  0  0  0  0  0  0
  1  2  1  0
  2  7  2  0
  2  3  1  0
  3  4  2  0
  3 21  1  0
  4  5  1  0
  4 10  1  0
  5  6  2  0
  6  7  1  0
  7  8  1  0
  8  9  3  0
 10 11  1  0
 10 18  1  0
 11 20  2  0
 11 12  1  0
 12 16  1  0
 12 13  1  0
 13 14  1  0
 13 18  1  6
 14 15  1  0
 14 17  1  6
 15 16  1  0
 18 19  2  0
M  END
>  <DRUGBANK_ID>  (1) 
DB07286

>  <COMMON_NAME>  (1) 
BMS-564929

>  <CAS_NUMBER>  (1) 
627530-84-1

>  <UNII>  (1) 
9BLW27W4X7

$$$$
