
     RDKit          3D

  5  4  0  0  0  0  0  0  0  0999 V2000
    0.9286    0.0915   -0.0524 N   0  0  0  0  0  0  0  0  0  0  0  0
    0.3622    1.2023   -0.3894 C   0  0  0  0  0  0  0  0  0  0  0  0
    1.0606    2.3167   -0.7273 N   0  0  0  0  0  0  0  0  0  0  0  0
   -0.9813    1.2174   -0.3939 N   0  0  0  0  0  0  0  0  0  0  0  0
    0.4363    3.5028   -1.0871 O   0  0  0  0  0  0  0  0  0  0  0  0
  2  1  2  0
  2  4  1  0
  3  2  1  0
  5  3  1  0
M  END
>  <DRUGBANK_ID>  (1) 
DB03770

>  <SECONDARY_ACCESSION_NUMBERS>  (1) 
EXPT01741

>  <COMMON_NAME>  (1) 
N-hydroxyguanidine

>  <CAS_NUMBER>  (1) 
13115-21-4

>  <UNII>  (1) 
8767F421T7

>  <SYNONYMS>  (1) 
Hydroxyguanidine

$$$$
