Urocanic acid.mol
     RDKit          3D

 29 30  0  0  0  0  0  0  0  0999 V2000
    0.7844    0.0730    0.1992 C   0  0  0  0  0  0  0  0  0  0  0  0
    0.3557    1.1085   -0.8823 C   0  0  2  0  0  0  0  0  0  0  0  0
    1.2278    2.3572   -0.9816 C   0  0  1  0  0  0  0  0  0  0  0  0
    1.1856    2.9328   -2.3103 O   0  0  0  0  0  0  0  0  0  0  0  0
    0.5291    3.3227   -0.0649 C   0  0  1  0  0  0  0  0  0  0  0  0
    0.8106    4.6635   -0.4646 O   0  0  0  0  0  0  0  0  0  0  0  0
   -0.9524    2.8998   -0.2136 C   0  0  1  0  0  0  0  0  0  0  0  0
   -0.9829    1.5309   -0.6109 O   0  0  0  0  0  0  0  0  0  0  0  0
   -1.7099    3.0631    1.0121 N   0  0  0  0  0  0  0  0  0  0  0  0
   -1.9082    4.3669    1.4324 C   0  0  0  0  0  0  0  0  0  0  0  0
   -1.5416    5.3606    0.8102 O   0  0  0  0  0  0  0  0  0  0  0  0
   -2.5501    4.5129    2.6256 N   0  0  0  0  0  0  0  0  0  0  0  0
   -2.8429    3.5032    3.4948 C   0  0  0  0  0  0  0  0  0  0  0  0
   -3.2033    3.6972    4.6444 O   0  0  0  0  0  0  0  0  0  0  0  0
   -2.6963    2.1399    2.9610 C   0  0  0  0  0  0  0  0  0  0  0  0
   -2.1641    1.9838    1.7492 C   0  0  0  0  0  0  0  0  0  0  0  0
    1.0860   -1.7671   -1.7690 P   0  0  1  0  0  0  0  0  0  0  0  0
   -0.2497   -1.3889   -2.4062 O   0  0  0  0  0  0  0  0  0  0  0  0
    0.5093   -1.2956   -0.2075 O   0  0  0  0  0  0  0  0  0  0  0  0
    3.2287    1.7902   -3.5633 O   0  0  0  0  0  0  0  0  0  0  0  0
    2.0657   -0.4947   -1.7535 O   0  0  0  0  0  0  0  0  0  0  0  0
    1.6626   -2.2385   -3.3304 O   0  0  0  0  0  0  0  0  0  0  0  0
    2.9838   -1.2202   -3.7888 P   0  0  2  0  0  0  0  0  0  0  0  0
    3.9187   -2.4325   -3.6917 O   0  0  0  0  0  0  0  0  0  0  0  0
    2.3950   -1.1868   -5.3187 O   0  0  0  0  0  0  0  0  0  0  0  0
    4.3051   -0.2018   -4.2473 O   0  0  0  0  0  0  0  0  0  0  0  0
    4.5387    1.0172   -3.0422 P   0  0  0  0  0  0  0  0  0  0  0  0
    4.2578    0.0532   -1.8894 O   0  0  0  0  0  0  0  0  0  0  0  0
    4.7723    2.2363   -1.8371 O   0  0  0  0  0  0  0  0  0  0  0  0
  1 19  1  0
  2  1  1  1
  2  3  1  0
  2  8  1  0
  3  4  1  6
  3  5  1  0
  5  6  1  6
  5  7  1  0
  7  8  1  0
  7  9  1  1
  9 10  1  0
  9 16  1  0
 10 11  2  0
 10 12  1  0
 12 13  1  0
 13 14  2  0
 13 15  1  0
 15 16  2  0
 17 18  2  0
 17 19  1  0
 17 21  1  6
 17 22  1  0
 20 27  1  0
 22 23  1  0
 23 24  2  0
 23 25  1  6
 23 26  1  0
 26 27  1  0
 27 28  2  0
 27 29  1  0
M  END
>  <DRUGBANK_ID>  (1) 
DB04005

>  <SECONDARY_ACCESSION_NUMBERS>  (1) 
EXPT03210

>  <COMMON_NAME>  (1) 
Uridine 5'-triphosphate

>  <CAS_NUMBER>  (1) 
63-39-8

>  <UNII>  (1) 
UT0S826Z60

>  <SYNONYMS>  (1) 
Uridine triphosphate

$$$$
