Ellagic acid
     RDKit          3D

 22 25  0  0  0  0  0  0  0  0999 V2000
    0.8631    0.0003   -0.0296 O   0  0  0  0  0  0  0  0  0  0  0  0
    0.2644   -0.8586   -0.9064 C   0  0  0  0  0  0  0  0  0  0  0  0
    0.6845   -2.1830   -1.0253 C   0  0  0  0  0  0  0  0  0  0  0  0
    1.6913   -2.6722   -0.2435 O   0  0  0  0  0  0  0  0  0  0  0  0
    0.0589   -3.0077   -1.9628 C   0  0  0  0  0  0  0  0  0  0  0  0
   -0.9666   -2.5268   -2.7759 C   0  0  0  0  0  0  0  0  0  0  0  0
   -1.3860   -1.2028   -2.6380 C   0  0  0  0  0  0  0  0  0  0  0  0
   -0.7766   -0.3670   -1.6919 C   0  0  0  0  0  0  0  0  0  0  0  0
   -2.4660   -0.6737   -3.5093 C   0  0  0  0  0  0  0  0  0  0  0  0
   -2.8484    0.4875   -3.4169 O   0  0  0  0  0  0  0  0  0  0  0  0
   -3.0098   -1.5585   -4.4363 O   0  0  0  0  0  0  0  0  0  0  0  0
   -2.5848   -2.8988   -4.5709 C   0  0  0  0  0  0  0  0  0  0  0  0
   -1.5734   -3.3903   -3.7513 C   0  0  0  0  0  0  0  0  0  0  0  0
   -1.1626   -4.7152   -3.8976 C   0  0  0  0  0  0  0  0  0  0  0  0
   -1.7661   -5.5437   -4.8624 C   0  0  0  0  0  0  0  0  0  0  0  0
   -2.7780   -5.0279   -5.6730 C   0  0  0  0  0  0  0  0  0  0  0  0
   -3.3929   -5.7922   -6.6262 O   0  0  0  0  0  0  0  0  0  0  0  0
   -3.1912   -3.7041   -5.5292 C   0  0  0  0  0  0  0  0  0  0  0  0
   -4.1829   -3.1954   -6.3183 O   0  0  0  0  0  0  0  0  0  0  0  0
   -0.0808   -5.2421   -3.0270 C   0  0  0  0  0  0  0  0  0  0  0  0
    0.3004   -6.4033   -3.1325 O   0  0  0  0  0  0  0  0  0  0  0  0
    0.4727   -4.3560   -2.0990 O   0  0  0  0  0  0  0  0  0  0  0  0
  1  2  1  0
  2  3  2  0
  2  8  1  0
  3  4  1  0
  3  5  1  0
  5  6  2  0
  5 22  1  0
  6  7  1  0
  6 13  1  0
  7  8  2  0
  7  9  1  0
  9 10  2  0
  9 11  1  0
 11 12  1  0
 12 13  2  0
 12 18  1  0
 13 14  1  0
 14 15  2  0
 14 20  1  0
 15 16  1  0
 16 17  1  0
 16 18  2  0
 18 19  1  0
 20 21  2  0
 20 22  1  0
M  END
>  <DRUGBANK_ID>  (1) 
DB08846

>  <SECONDARY_ACCESSION_NUMBERS>  (1) 
DB08468

>  <COMMON_NAME>  (1) 
Ellagic acid

>  <CAS_NUMBER>  (1) 
476-66-4

>  <UNII>  (1) 
19YRN3ZS9P

>  <SYNONYMS>  (1) 
2,3,7,8-tetrahydroxychromeno[5,4,3-cde]chromene-5,10-dione; ácido elágico; Ellagic acid

$$$$
