
     RDKit          3D

 29 31  0  0  1  0  0  0  0  0999 V2000
   -2.2273   -0.0881   -0.6695 C   0  0  0  0  0  0  0  0  0  0  0  0
   -1.1882   -0.0350    0.4500 C   0  0  1  0  0  0  0  0  0  0  0  0
   -0.1450   -1.1694    0.5853 C   0  0  0  0  0  0  0  0  0  0  0  0
    0.9274   -1.1022   -0.4326 N   0  0  0  0  0  0  0  0  0  0  0  0
    1.6856    0.1811   -0.1990 C   0  0  0  0  0  0  0  0  0  0  0  0
    0.7380    1.3996   -0.3147 C   0  0  0  0  0  0  0  0  0  0  0  0
   -0.4778    1.2627    0.5290 N   0  0  0  0  0  0  0  0  0  0  0  0
   -0.8785    2.3388    1.3249 C   0  0  0  0  0  0  0  0  0  0  0  0
   -0.2978    3.4204    1.3364 O   0  0  0  0  0  0  0  0  0  0  0  0
   -2.0526    2.1813    2.2209 C   0  0  0  0  0  0  0  0  0  0  0  0
   -3.1530    3.0251    2.0401 C   0  0  0  0  0  0  0  0  0  0  0  0
   -4.2865    2.8522    2.8324 C   0  0  0  0  0  0  0  0  0  0  0  0
   -4.2790    1.8416    3.7782 C   0  0  0  0  0  0  0  0  0  0  0  0
   -3.2199    1.0340    4.0019 N   0  0  0  0  0  0  0  0  0  0  0  0
   -2.1030    1.2345    3.2515 C   0  0  0  0  0  0  0  0  0  0  0  0
   -0.9604    0.3172    3.5762 C   0  0  0  0  0  0  0  0  0  0  0  0
    0.6294   -1.4195   -2.0840 S   0  0  0  0  0  0  0  0  0  0  0  0
   -0.1071   -0.3253   -2.6918 O   0  0  0  0  0  0  0  0  0  0  0  0
    1.9088   -1.7466   -2.6616 O   0  0  0  0  0  0  0  0  0  0  0  0
   -0.4066   -2.8836   -2.1679 C   0  0  0  0  0  0  0  0  0  0  0  0
   -1.5153   -3.1555   -1.3533 C   0  0  0  0  0  0  0  0  0  0  0  0
   -2.3094   -4.2867   -1.5220 C   0  0  0  0  0  0  0  0  0  0  0  0
   -1.9981   -5.1895   -2.5267 C   0  0  0  0  0  0  0  0  0  0  0  0
   -0.9132   -4.9105   -3.3724 C   0  0  0  0  0  0  0  0  0  0  0  0
   -0.0984   -3.7944   -3.1681 C   0  0  0  0  0  0  0  0  0  0  0  0
   -2.7525   -6.4839   -2.6496 C   0  0  0  0  0  0  0  0  0  0  0  0
   -3.3484   -6.6337   -3.8604 F   0  0  0  0  0  0  0  0  0  0  0  0
   -1.9303   -7.5561   -2.4881 F   0  0  0  0  0  0  0  0  0  0  0  0
   -3.7377   -6.6293   -1.7191 F   0  0  0  0  0  0  0  0  0  0  0  0
  2  1  1  6
  2  3  1  0
  2  7  1  0
  3  4  1  0
  4  5  1  0
  4 17  1  0
  5  6  1  0
  6  7  1  0
  7  8  1  0
  8  9  2  0
  8 10  1  0
 10 11  2  0
 10 15  1  0
 11 12  1  0
 12 13  2  0
 13 14  1  0
 14 15  2  0
 15 16  1  0
 17 18  2  0
 17 19  2  0
 17 20  1  0
 20 21  2  0
 20 25  1  0
 21 22  1  0
 22 23  2  0
 23 24  1  0
 23 26  1  0
 24 25  2  0
 26 27  1  0
 26 28  1  0
 26 29  1  0
M  END
>  <DRUGBANK_ID>  (1) 
DB15229

>  <COMMON_NAME>  (1) 
CNV-2197944

>  <CAS_NUMBER>  (1) 
1204535-44-3

>  <UNII>  (1) 
SSB9S6N20R

>  <SYNONYMS>  (1) 
CNV2197944

$$$$
