
     RDKit          3D

 28 31  0  0  0  0  0  0  0  0999 V2000
    1.2654   -0.0200   -0.2130 C   0  0  0  0  0  0  0  0  0  0  0  0
    0.8140    0.5576    1.1131 C   0  0  0  0  0  0  0  0  0  0  0  0
    1.2462    2.0531    1.2577 C   0  0  0  0  0  0  0  0  0  0  0  0
   -0.6990    0.6208    1.0104 C   0  0  0  0  0  0  0  0  0  0  0  0
   -1.7496   -0.4063    1.1409 N   0  0  0  0  0  0  0  0  0  0  0  0
   -2.7451    0.3852    1.9140 C   0  0  0  0  0  0  0  0  0  0  0  0
   -2.1257    0.5872    3.3316 C   0  0  0  0  0  0  0  0  0  0  0  0
   -2.2457   -0.6611    4.0158 N   0  0  0  0  0  0  0  0  0  0  0  0
   -1.4223   -1.7239    3.4295 C   0  0  0  0  0  0  0  0  0  0  0  0
   -1.6386   -1.7166    1.8742 C   0  0  0  0  0  0  0  0  0  0  0  0
   -3.0049   -0.7745    5.1468 C   0  0  0  0  0  0  0  0  0  0  0  0
   -2.4393   -1.2526    6.2194 N   0  0  0  0  0  0  0  0  0  0  0  0
   -3.1591   -1.4528    7.4018 C   0  0  0  0  0  0  0  0  0  0  0  0
   -2.5534   -1.1463    8.6239 C   0  0  0  0  0  0  0  0  0  0  0  0
   -3.1895   -1.4605    9.8293 C   0  0  0  0  0  0  0  0  0  0  0  0
   -4.4373   -2.0852    9.8211 C   0  0  0  0  0  0  0  0  0  0  0  0
   -5.0588   -2.3789    8.6119 C   0  0  0  0  0  0  0  0  0  0  0  0
   -4.4244   -2.0518    7.4173 C   0  0  0  0  0  0  0  0  0  0  0  0
   -5.1004   -2.3415    6.2534 O   0  0  0  0  0  0  0  0  0  0  0  0
   -5.4237   -1.2054    5.5547 C   0  0  0  0  0  0  0  0  0  0  0  0
   -6.7798   -0.9132    5.3841 C   0  0  0  0  0  0  0  0  0  0  0  0
   -7.1804    0.2359    4.7006 C   0  0  0  0  0  0  0  0  0  0  0  0
   -6.2295    1.0926    4.1826 C   0  0  0  0  0  0  0  0  0  0  0  0
   -4.8862    0.7966    4.3653 C   0  0  0  0  0  0  0  0  0  0  0  0
   -4.4526   -0.3602    5.0388 C   0  0  0  0  0  0  0  0  0  0  0  0
    1.3181   -0.1430    2.3753 C   0  0  0  0  0  0  0  0  0  0  0  0
    1.9441   -1.3244    2.1854 O   0  0  0  0  0  0  0  0  0  0  0  0
    1.1885    0.3093    3.4957 O   0  0  0  0  0  0  0  0  0  0  0  0
  1  2  1  0
  2  3  1  0
  2  4  1  0
  2 26  1  0
  4  5  1  0
  5  6  1  0
  5 10  1  0
  6  7  1  0
  7  8  1  0
  8  9  1  0
  8 11  1  0
  9 10  1  0
 11 12  2  0
 11 25  1  0
 12 13  1  0
 13 14  1  0
 13 18  2  0
 14 15  2  0
 15 16  1  0
 16 17  2  0
 17 18  1  0
 18 19  1  0
 19 20  1  0
 20 21  1  0
 20 25  2  0
 21 22  2  0
 22 23  1  0
 23 24  2  0
 24 25  1  0
 26 27  1  0
 26 28  2  0
M  END
>  <DRUGBANK_ID>  (1) 
DB15092

>  <COMMON_NAME>  (1) 
LY-2624803

>  <CAS_NUMBER>  (1) 
879409-35-5

>  <UNII>  (1) 
63J9EQ81YC

$$$$
