
     RDKit          3D

 18 19  0  0  0  0  0  0  0  0999 V2000
    1.0751    0.1399   -0.1978 C   0  0  0  0  0  0  0  0  0  0  0  0
    1.4159   -0.2861    2.2234 C   0  0  0  0  0  0  0  0  0  0  0  0
   -6.4724    1.9654    1.9024 C   0  0  0  0  0  0  0  0  0  0  0  0
   -4.4240   -1.9719    0.7396 C   0  0  0  0  0  0  0  0  0  0  0  0
   -6.7017    1.0162    0.7585 C   0  0  0  0  0  0  0  0  0  0  0  0
   -5.3010   -1.0649    0.1918 C   0  0  0  0  0  0  0  0  0  0  0  0
   -5.4052    1.6150    2.6738 C   0  0  0  0  0  0  0  0  0  0  0  0
   -3.9722   -1.7709    2.0561 C   0  0  0  0  0  0  0  0  0  0  0  0
   -1.0335   -1.8093    2.1251 C   0  0  0  0  0  0  0  0  0  0  0  0
   -1.8190   -0.0811    3.7813 C   0  0  0  0  0  0  0  0  0  0  0  0
    0.8008   -0.8152    0.9431 C   0  0  0  0  0  0  0  0  0  0  0  0
   -5.5874    0.0463    0.9582 C   0  0  0  0  0  0  0  0  0  0  0  0
   -1.0870   -1.4269    3.6200 C   0  0  0  0  0  0  0  0  0  0  0  0
   -4.8840    0.3737    2.1380 C   0  0  0  0  0  0  0  0  0  0  0  0
   -3.9638   -0.5044    2.6661 C   0  0  0  0  0  0  0  0  0  0  0  0
   -0.6185   -0.9215    1.0609 N   0  0  0  0  0  0  0  0  0  0  0  0
   -1.7433   -2.4481    4.3870 O   0  0  0  0  0  0  0  0  0  0  0  0
   -3.2746   -0.2079    3.8145 O   0  0  0  0  0  0  0  0  0  0  0  0
  5  3  1  0
  6  4  1  0
  7  3  2  0
  8  4  2  0
 11  1  1  0
 11  2  1  0
 12  5  1  0
 12  6  2  0
 13  9  1  0
 13 10  1  0
 14  7  1  0
 14 12  1  0
 15  8  1  0
 15 14  2  0
 16  9  1  0
 16 11  1  0
 17 13  1  0
 18 10  1  0
 18 15  1  0
M  END
>  <DRUGBANK_ID>  (1) 
DB08952

>  <COMMON_NAME>  (1) 
Indenolol

>  <CAS_NUMBER>  (1) 
60607-68-3

>  <UNII>  (1) 
8GU15N96I8

$$$$
