
     RDKit          3D

 23 26  0  0  0  0  0  0  0  0999 V2000
    1.4449   -1.2178   -0.3170 N   0  0  0  0  0  0  0  0  0  0  0  0
    0.1445   -0.7108   -0.3261 C   0  0  0  0  0  0  0  0  0  0  0  0
    2.2809   -0.0802   -0.1381 C   0  0  0  0  0  0  0  0  0  0  0  0
    1.7700   -2.7060   -0.3538 C   0  0  0  0  0  0  0  0  0  0  0  0
    0.2448    0.6529   -0.1108 C   0  0  0  0  0  0  0  0  0  0  0  0
   -1.1125   -1.3126   -0.4718 C   0  0  0  0  0  0  0  0  0  0  0  0
    1.5542    1.0277   -0.0619 N   0  0  0  0  0  0  0  0  0  0  0  0
    3.7939   -0.0004    0.0279 C   0  0  0  0  0  0  0  0  0  0  0  0
    1.3581   -3.6186    0.8805 C   0  0  0  0  0  0  0  0  0  0  0  0
   -0.9234    1.4366    0.0014 C   0  0  0  0  0  0  0  0  0  0  0  0
   -2.2522   -0.5744   -0.1630 C   0  0  0  0  0  0  0  0  0  0  0  0
    4.4084   -0.4440    1.3078 N   0  0  0  0  0  0  0  0  0  0  0  0
    0.0275   -3.6071    1.3339 C   0  0  0  0  0  0  0  0  0  0  0  0
    2.2254   -4.3752    1.7112 C   0  0  0  0  0  0  0  0  0  0  0  0
   -2.1706    0.7948    0.0188 C   0  0  0  0  0  0  0  0  0  0  0  0
    4.0875   -1.8238    1.6041 C   0  0  0  0  0  0  0  0  0  0  0  0
    3.9922    0.2996    2.5188 C   0  0  0  0  0  0  0  0  0  0  0  0
   -0.3768   -4.0290    2.6071 C   0  0  0  0  0  0  0  0  0  0  0  0
    1.8126   -4.8654    2.9967 C   0  0  0  0  0  0  0  0  0  0  0  0
    2.7902   -1.6837    2.3876 C   0  0  0  0  0  0  0  0  0  0  0  0
    2.9963   -0.5388    3.2960 C   0  0  0  0  0  0  0  0  0  0  0  0
    0.5078   -4.6407    3.4480 C   0  0  0  0  0  0  0  0  0  0  0  0
   -0.0026   -5.1057    5.0229 Cl  0  0  0  0  0  0  0  0  0  0  0  0
  1  2  1  0
  1  3  1  0
  1  4  1  0
  2  5  1  0
  2  6  2  0
  3  7  2  0
  3  8  1  0
  4  9  1  0
  5 10  2  0
  5  7  1  0
  6 11  1  0
  8 12  1  0
  9 13  2  0
  9 14  1  0
 10 15  1  0
 11 15  2  0
 12 16  1  0
 12 17  1  0
 13 18  1  0
 14 19  2  0
 16 20  1  0
 17 21  1  0
 18 22  2  0
 19 22  1  0
 20 21  1  0
 22 23  1  0
M  END
>  <DRUGBANK_ID>  (1) 
DB15932

>  <COMMON_NAME>  (1) 
Clemizole

>  <CAS_NUMBER>  (1) 
442-52-4

>  <UNII>  (1) 
T97CB3796L

>  <SYNONYMS>  (1) 
Clemizol; Clemizole; Clemizolo; Clemizolum

$$$$
