
     RDKit          3D

 22 21  0  0  0  0  0  0  0  0999 V2000
    1.3870    0.5798    0.1720 C   0  0  0  0  0  0  0  0  0  0  0  0
    1.3194   -0.1699    2.3654 C   0  0  0  0  0  0  0  0  0  0  0  0
    1.1946   -1.6969    2.0459 C   0  0  0  0  0  0  0  0  0  0  0  0
   -1.8695   -3.6019   -0.3371 C   0  0  0  0  0  0  0  0  0  0  0  0
   -1.1140   -1.1326    0.3015 C   0  0  0  0  0  0  0  0  0  0  0  0
    0.3006   -1.9421   -0.1400 C   0  0  0  0  0  0  0  0  0  0  0  0
   -1.2185   -3.2219    2.3865 C   0  0  0  0  0  0  0  0  0  0  0  0
   -1.5035   -1.5389    2.6695 C   0  0  0  0  0  0  0  0  0  0  0  0
    0.7605    0.7568    1.4088 O   0  0  0  0  0  0  0  0  0  0  0  0
    1.3947   -2.2831    0.7716 O   0  0  0  0  0  0  0  0  0  0  0  0
   -1.5018   -0.5868    1.5614 O   0  0  0  0  0  0  0  0  0  0  0  0
   -1.1134   -3.8448    0.9782 O   0  0  0  0  0  0  0  0  0  0  0  0
    0.5120    0.9253   -1.1128 C   0  0  0  0  0  0  0  0  0  0  0  0
   -3.4033   -3.0425   -0.4583 C   0  0  0  0  0  0  0  0  0  0  0  0
    2.9832    1.6296   -2.3226 C   0  0  0  0  0  0  0  0  0  0  0  0
   -3.9596   -4.6622    2.0174 C   0  0  0  0  0  0  0  0  0  0  0  0
    0.9686    0.2767   -2.3211 O   0  0  0  0  0  0  0  0  0  0  0  0
    2.3929    0.2149   -2.3951 C   0  0  0  0  0  0  0  0  0  0  0  0
   -4.1652   -2.4864    0.6412 O   0  0  0  0  0  0  0  0  0  0  0  0
   -3.8942   -3.1444    1.8552 C   0  0  0  0  0  0  0  0  0  0  0  0
    2.8022    2.3506   -1.1013 O   0  0  0  0  0  0  0  0  0  0  0  0
   -3.2917   -5.4574    1.0296 O   0  0  0  0  0  0  0  0  0  0  0  0
  1  9  1  0
  1 13  1  0
  2  3  1  0
  2  9  1  0
  4 12  1  0
  5  6  1  0
  7  8  1  0
  8 11  1  0
 10  6  1  0
 10  3  1  0
 11  5  1  0
 12  7  1  0
 14  4  1  0
 15 21  1  0
 15 18  1  0
 16 20  1  0
 17 13  1  0
 17 18  1  0
 19 14  1  0
 20 19  1  0
 22 16  1  0
M  END
>  <DRUGBANK_ID>  (1) 
DB03394

>  <SECONDARY_ACCESSION_NUMBERS>  (1) 
EXPT02477

>  <COMMON_NAME>  (1) 
Heptaethylene glycol

>  <CAS_NUMBER>  (1) 
5617-32-3

>  <SYNONYMS>  (1) 
3,6,9,12,15,18-hexaoxaeicosane-1,20-diol; Heptaethylene glycol, Peg330

$$$$
