YE7
     RDKit          3D

 17 19  0  0  0  0  0  0  0  0999 V2000
   -2.9649   -0.3454   -0.0172 C   0  0  0  0  0  0  0  0  0  0  0  0
   -1.6369   -0.6422   -0.0026 N   0  0  0  0  0  0  0  0  0  0  0  0
   -1.0641   -1.9035   -0.0003 C   0  0  0  0  0  0  0  0  0  0  0  0
    0.2657   -2.0509   -0.0002 C   0  0  0  0  0  0  0  0  0  0  0  0
    1.1125   -0.8423   -0.0004 C   0  0  0  0  0  0  0  0  0  0  0  0
    2.4987   -0.9935    0.0004 C   0  0  0  0  0  0  0  0  0  0  0  0
    3.3112    0.1358    0.0018 C   0  0  0  0  0  0  0  0  0  0  0  0
    2.7429    1.4138   -0.0006 C   0  0  0  0  0  0  0  0  0  0  0  0
    1.3531    1.5807   -0.0013 C   0  0  0  0  0  0  0  0  0  0  0  0
    0.5269    0.4588   -0.0002 C   0  0  0  0  0  0  0  0  0  0  0  0
   -0.9409    0.5453   -0.0000 C   0  0  0  0  0  0  0  0  0  0  0  0
   -1.7789    1.5703    0.0002 N   0  0  0  0  0  0  0  0  0  0  0  0
   -3.0830    1.0283   -0.0079 C   0  0  0  0  0  0  0  0  0  0  0  0
   -4.3049    1.8715   -0.0129 C   0  0  0  0  0  0  0  0  0  0  0  0
   -4.2445    3.1013    0.0081 O   0  0  0  0  0  0  0  0  0  0  0  0
   -5.5961    1.3189   -0.0531 N   0  0  0  0  0  0  0  0  0  0  0  0
   -6.0182   -0.0173   -0.0083 N   0  0  0  0  0  0  0  0  0  0  0  0
  1 13  2  0
  1  2  1  0
  2 11  1  0
  2  3  1  0
  3  4  2  0
  4  5  1  0
  5 10  2  0
  5  6  1  0
  6  7  2  0
  7  8  1  0
  8  9  2  0
  9 10  1  0
 10 11  1  0
 11 12  2  0
 12 13  1  0
 13 14  1  0
 14 15  2  0
 14 16  1  0
 16 17  1  0
M  END
>  <DRUGBANK_ID>  (1) 
DB08758

>  <COMMON_NAME>  (1) 
IMIDAZO[2,1-A]ISOQUINOLINE-2-CARBOHYDRAZIDE

$$$$
