
     RDKit          3D

 12 13  0  0  1  0  0  0  0  0999 V2000
    2.4275   -0.6537   -0.0281 C   0  0  0  0  0  0  0  0  0  0  0  0
    2.3758    0.7312    0.0426 C   0  0  0  0  0  0  0  0  0  0  0  0
    1.2420   -1.3850   -0.0852 C   0  0  0  0  0  0  0  0  0  0  0  0
    1.1416    1.3912    0.0666 C   0  0  0  0  0  0  0  0  0  0  0  0
   -0.0083   -0.7348   -0.0747 C   0  0  0  0  0  0  0  0  0  0  0  0
   -0.0551    0.6625   -0.0004 C   0  0  0  0  0  0  0  0  0  0  0  0
   -1.2380   -1.5840   -0.2101 C   0  0  2  0  0  0  0  0  0  0  0  0
   -2.4067    0.7251   -0.3420 C   0  0  1  0  0  0  0  0  0  0  0  0
   -3.5749    1.5513   -0.0899 N   0  0  0  0  0  0  0  0  0  0  0  0
   -1.4271   -1.7975   -1.6048 O   0  0  0  0  0  0  0  0  0  0  0  0
   -1.2132    1.4037    0.0580 O   0  0  0  0  0  0  0  0  0  0  0  0
   -2.6845   -0.8313    0.5021 S   0  0  0  0  0  0  0  0  0  0  0  0
  2  1  2  0
  3  1  1  0
  4  2  1  0
  5  3  2  0
  6  4  2  0
  6  5  1  0
  7  5  1  0
  7 10  1  6
  8  9  1  1
 11  6  1  0
 11  8  1  0
 12  7  1  0
 12  8  1  0
M  END
>  <DRUGBANK_ID>  (1) 
DB03972

>  <SECONDARY_ACCESSION_NUMBERS>  (1) 
EXPT02966

>  <COMMON_NAME>  (1) 
2-Amino-4h-1,3-Benzoxathiin-4-Ol

$$$$
