
     RDKit          3D

 22 22  0  0  0  0  0  0  0  0999 V2000
    1.0093    0.0501    0.0006 C   0  0  0  0  0  0  0  0  0  0  0  0
    0.3623    1.0653   -0.8177 N   0  0  0  0  0  0  0  0  0  0  0  0
   -0.3183    0.6799   -2.0430 C   0  0  0  0  0  0  0  0  0  0  0  0
    0.7779    2.3823   -0.7347 C   0  0  0  0  0  0  0  0  0  0  0  0
    2.1045    2.6798   -0.5152 C   0  0  0  0  0  0  0  0  0  0  0  0
    2.5420    3.9828   -0.6298 C   0  0  0  0  0  0  0  0  0  0  0  0
    1.6817    5.0770   -0.6897 C   0  0  0  0  0  0  0  0  0  0  0  0
    0.3463    4.7975   -0.9341 C   0  0  0  0  0  0  0  0  0  0  0  0
   -0.0917    3.4631   -0.9613 C   0  0  0  0  0  0  0  0  0  0  0  0
    2.0731    6.5100   -0.4778 C   0  0  0  0  0  0  0  0  0  0  0  0
    1.2891    7.4193   -0.6685 O   0  0  0  0  0  0  0  0  0  0  0  0
    3.3123    6.8217    0.0181 N   0  0  0  0  0  0  0  0  0  0  0  0
    4.4038    5.9541    0.3531 C   0  0  0  0  0  0  0  0  0  0  0  0
    5.4732    6.0618   -0.7045 C   0  0  0  0  0  0  0  0  0  0  0  0
    6.1547    7.3789   -0.4486 C   0  0  0  0  0  0  0  0  0  0  0  0
    6.7165    7.4449    1.0027 C   0  0  0  0  0  0  0  0  0  0  0  0
    7.8501    6.4555    1.1992 C   0  0  0  0  0  0  0  0  0  0  0  0
    8.9985    6.7522    0.2392 C   0  0  0  0  0  0  0  0  0  0  0  0
    9.7152    8.0795    0.5042 C   0  0  0  0  0  0  0  0  0  0  0  0
   10.8845    8.0475    0.9008 O   0  0  0  0  0  0  0  0  0  0  0  0
    9.1468    9.3023    0.3521 N   0  0  0  0  0  0  0  0  0  0  0  0
    7.9758    9.6683   -0.3059 O   0  0  0  0  0  0  0  0  0  0  0  0
  1  2  1  0
  2  3  1  0
  2  4  1  0
  4  5  2  0
  5  6  1  0
  6  7  2  0
  7  8  1  0
  7 10  1  0
  8  9  2  0
  9  4  1  0
 10 11  2  0
 10 12  1  0
 12 13  1  0
 13 14  1  0
 14 15  1  0
 15 16  1  0
 16 17  1  0
 17 18  1  0
 18 19  1  0
 19 20  2  0
 19 21  1  0
 21 22  1  0
M  END
>  <DRUGBANK_ID>  (1) 
DB02565

>  <SECONDARY_ACCESSION_NUMBERS>  (1) 
EXPT00611

>  <COMMON_NAME>  (1) 
4-(dimethylamino)-N-[7-(hydroxyamino)-7-oxoheptyl]benzamide

>  <CAS_NUMBER>  (1) 
251456-60-7

>  <UNII>  (1) 
J8W4VF5ZEJ

>  <SYNONYMS>  (1) 
4-dimethylamino-N-(6-hydroxycarbamoylhexyl)benzamide; histone deacetylase inhibitor III; N-hydroxy-7-(4-dimethylaminobenzoyl)aminoheptanamide

$$$$
