
     RDKit          3D

 13 14  0  0  1  0  0  0  0  0999 V2000
   -0.8737    0.3243   -0.0099 C   0  0  0  0  0  0  0  0  0  0  0  0
   -0.6057   -0.3952   -1.3382 C   0  0  1  0  0  0  0  0  0  0  0  0
   -0.4831   -1.9340   -1.0932 C   0  0  1  0  0  0  0  0  0  0  0  0
   -0.0411   -2.6250   -2.3765 C   0  0  0  0  0  0  0  0  0  0  0  0
    0.2194   -1.5229   -3.4152 C   0  0  1  0  0  0  0  0  0  0  0  0
   -1.1045   -0.7396   -3.6867 C   0  0  0  0  0  0  0  0  0  0  0  0
   -1.7042   -0.1865   -2.3930 C   0  0  2  0  0  0  0  0  0  0  0  0
   -2.1221    1.1485   -2.6679 O   0  0  0  0  0  0  0  0  0  0  0  0
    1.4792   -0.7571   -2.7587 C   0  0  0  0  0  0  0  0  0  0  0  0
    0.5760    0.1448   -1.9738 O   0  0  0  0  0  0  0  0  0  0  0  0
    2.2969   -0.8124   -4.1718 C   0  0  0  0  0  0  0  0  0  0  0  0
    2.4358    0.4950   -2.4717 C   0  0  0  0  0  0  0  0  0  0  0  0
    0.4465   -2.2461   -0.0575 O   0  0  0  0  0  0  0  0  0  0  0  0
  2  3  1  0
  2  7  1  0
  2 10  1  0
  2  1  1  1
  3  4  1  0
  3 13  1  1
  5  4  1  1
  5  6  1  0
  5  9  1  0
  6  7  1  0
  7  8  1  6
  9 10  1  0
  9 11  1  0
  9 12  1  0
M  END
>  <DRUGBANK_ID>  (1) 
DB13802

>  <COMMON_NAME>  (1) 
Epomediol

>  <CAS_NUMBER>  (1) 
1310101-21-3

>  <UNII>  (1) 
KFU4XSK3BK

$$$$
