
     RDKit          3D

 31 34  0  0  0  0  0  0  0  0999 V2000
  -15.7520   24.4129   10.8203 C   0  0  2  0  0  0  0  0  0  0  0  0
  -14.7446   21.5660   11.7178 C   0  0  1  0  0  0  0  0  0  0  0  0
  -14.2347   19.7504   12.0907 C   0  0  2  0  0  0  0  0  0  0  0  0
  -16.4098   23.7024   11.9623 C   0  0  2  0  0  0  0  0  0  0  0  0
  -14.6899   22.9370   12.3492 C   0  0  1  0  0  0  0  0  0  0  0  0
  -16.5184   25.9647   11.1383 C   0  0  2  0  0  0  0  0  0  0  0  0
  -13.4042   20.0767   13.2864 C   0  0  0  0  0  0  0  0  0  0  0  0
  -15.0519   21.9739    9.9179 C   0  0  2  0  0  0  0  0  0  0  0  0
  -16.3065   22.8336   10.0778 C   0  0  0  0  0  0  0  0  0  0  0  0
  -17.0385   25.3187    9.6114 C   0  0  1  0  0  0  0  0  0  0  0  0
  -13.6031   18.0507   11.5709 C   0  0  0  0  0  0  0  0  0  0  0  0
  -17.8066   24.4909   10.6154 C   0  0  0  0  0  0  0  0  0  0  0  0
  -13.1657   18.9587   14.0053 C   0  0  0  0  0  0  0  0  0  0  0  0
  -18.0263   26.7681   11.8942 C   0  0  0  0  0  0  0  0  0  0  0  0
  -14.2526   22.4853   13.8997 C   0  0  0  0  0  0  0  0  0  0  0  0
  -13.1364   17.2330   12.5732 C   0  0  0  0  0  0  0  0  0  0  0  0
  -13.9834   17.8115   13.5793 C   0  0  0  0  0  0  0  0  0  0  0  0
  -13.0265   21.4417   13.8726 C   0  0  0  0  0  0  0  0  0  0  0  0
  -16.0086   21.4825   12.5601 F   0  0  0  0  0  0  0  0  0  0  0  0
  -18.3488   27.8961   11.4880 O   0  0  0  0  0  0  0  0  0  0  0  0
  -15.2098   17.7407   13.5311 O   0  0  0  0  0  0  0  0  0  0  0  0
  -17.1305   25.5657   12.5688 O   0  0  0  0  0  0  0  0  0  0  0  0
  -14.4536   24.8453   10.2822 C   0  0  0  0  0  0  0  0  0  0  0  0
  -14.3119   21.1190    8.9141 O   0  0  0  0  0  0  0  0  0  0  0  0
  -15.1588   19.8600   11.0039 C   0  0  0  0  0  0  0  0  0  0  0  0
  -17.5337   25.8759    8.2362 C   0  0  0  0  0  0  0  0  0  0  0  0
  -19.1120   26.1032   13.1619 C   0  0  0  0  0  0  0  0  0  0  0  0
  -19.7098   24.7912   13.2196 O   0  0  0  0  0  0  0  0  0  0  0  0
  -20.6237   24.4930   12.2567 C   0  0  0  0  0  0  0  0  0  0  0  0
  -20.9720   25.2613   11.3693 O   0  0  0  0  0  0  0  0  0  0  0  0
  -21.1582   23.0867   12.3656 C   0  0  0  0  0  0  0  0  0  0  0  0
  1 23  1  1
  2  8  1  0
  2  5  1  0
  2 19  1  1
  3  2  1  0
  3 25  1  1
  4  1  1  0
  5  4  1  0
  6  1  1  0
  6 14  1  0
  7  3  1  0
  8  9  1  0
  8 24  1  1
  9  1  1  0
 10  6  1  0
 10 12  1  0
 10 26  1  6
 11  3  1  0
  4 12  1  6
 13  7  2  0
  5 15  1  1
 16 11  2  0
 17 16  1  0
 17 13  1  0
 18 15  1  0
 18  7  1  0
 20 14  2  0
 21 17  2  0
  6 22  1  6
 27 14  1  0
 28 27  1  0
 28 29  1  0
 29 30  2  0
 29 31  1  0
M  END
>  <DRUGBANK_ID>  (1) 
DB14649

>  <SECONDARY_ACCESSION_NUMBERS>  (1) 
DBSALT000383

>  <COMMON_NAME>  (1) 
Dexamethasone acetate

>  <CAS_NUMBER>  (1) 
1177-87-3

>  <UNII>  (1) 
K7V8P532WP

>  <SYNONYMS>  (1) 
16alpha-Methyl-9alpha-fluoroprednisolone 21-acetate; 9alpha-Fluoro-16alpha-methylprednisolone acetate; Dexamethasone 21-acetate; Dexamethasone acetate anhydrous; Dexamethasone acetate, anhydrous; Dexamethasoni acetas

$$$$
