
     RDKit          3D

 24 24  0  0  1  0  0  0  0  0999 V2000
    3.3068   -3.5933   -4.8874 C   0  0  0  0  0  0  0  0  0  0  0  0
   -0.0787   -1.5218   -2.5425 C   0  0  0  0  0  0  0  0  0  0  0  0
    2.2325   -7.7909   -6.2754 C   0  0  0  0  0  0  0  0  0  0  0  0
    1.9362   -3.7378   -3.8186 C   0  0  0  0  0  0  0  0  0  0  0  0
    0.6511   -4.6795   -5.7304 C   0  0  0  0  0  0  0  0  0  0  0  0
    0.2628   -6.0374   -1.7970 C   0  0  0  0  0  0  0  0  0  0  0  0
    0.2784   -2.9844   -3.9912 C   0  0  0  0  0  0  0  0  0  0  0  0
    0.6080   -3.3938   -2.2656 C   0  0  1  0  0  0  0  0  0  0  0  0
    1.5980   -6.7416   -5.4456 C   0  0  0  0  0  0  0  0  0  0  0  0
    0.1309   -4.7504   -4.4229 C   0  0  0  0  0  0  0  0  0  0  0  0
    0.4415   -5.9399   -3.4573 C   0  0  0  0  0  0  0  0  0  0  0  0
    0.2930   -3.6202   -0.7863 C   0  0  2  0  0  0  0  0  0  0  0  0
    1.1373   -6.9675   -4.1156 C   0  0  0  0  0  0  0  0  0  0  0  0
    0.7306   -2.3020    0.0817 C   0  0  0  0  0  0  0  0  0  0  0  0
    1.4345   -5.6226   -6.2056 N   0  0  0  0  0  0  0  0  0  0  0  0
    0.7559   -5.0687   -0.6737 N   0  0  0  0  0  0  0  0  0  0  0  0
    1.4227   -8.1774   -3.5545 O   0  0  0  0  0  0  0  0  0  0  0  0
    0.2316   -1.9225    1.1281 O   0  0  0  0  0  0  0  0  0  0  0  0
    1.7340   -1.5123   -0.4625 O   0  0  0  0  0  0  0  0  0  0  0  0
    2.5301   -3.5646   -0.5871 O   0  0  0  0  0  0  0  0  0  0  0  0
    3.5636   -4.5837   -2.8251 O   0  0  0  0  0  0  0  0  0  0  0  0
    4.2483   -3.9092   -1.3843 O   0  0  0  0  0  0  0  0  0  0  0  0
    1.7437   -2.3068   -2.7653 O   0  0  0  0  0  0  0  0  0  0  0  0
    3.0654   -3.1524   -2.0366 P   0  0  0  0  0  0  0  0  0  0  0  0
  4  1  1  0
  8  4  1  0
  8  2  1  1
  9  3  1  0
 10  5  2  0
 10  7  1  0
 11  6  1  0
 11 10  1  0
 12 16  1  1
 12 14  1  0
 12  8  1  0
 13  9  1  0
 13 11  2  0
 15  5  1  0
 15  9  2  0
 16  6  1  0
 17 13  1  0
 18 14  2  0
 19 14  1  0
 23  7  1  0
 24 20  1  0
 24 21  1  0
 24 22  2  0
 24 23  1  0
M  END
>  <DRUGBANK_ID>  (1) 
DB02635

>  <SECONDARY_ACCESSION_NUMBERS>  (1) 
EXPT01863

>  <COMMON_NAME>  (1) 
N-[O-Phosphono-Pyridoxyl]-Isoleucine

$$$$
