
     RDKit          3D

 32 35  0  0  1  0  0  0  0  0999 V2000
   -9.1087   11.6791   -0.4809 C   0  0  0  0  0  0  0  0  0  0  0  0
   -9.4331   10.9605   -1.7531 C   0  0  0  0  0  0  0  0  0  0  0  0
   -8.6112   10.5948   -2.8063 C   0  0  0  0  0  0  0  0  0  0  0  0
   -9.4377   10.3570   -3.9460 C   0  0  0  0  0  0  0  0  0  0  0  0
  -10.7537   10.3390   -3.4817 C   0  0  0  0  0  0  0  0  0  0  0  0
  -10.7051   10.5667   -2.1171 N   0  0  0  0  0  0  0  0  0  0  0  0
  -11.8420   10.1265   -4.3400 C   0  0  0  0  0  0  0  0  0  0  0  0
  -11.5903    9.9854   -5.7094 C   0  0  0  0  0  0  0  0  0  0  0  0
  -10.2945   10.0401   -6.2119 C   0  0  0  0  0  0  0  0  0  0  0  0
   -9.2060   10.1890   -5.3331 C   0  0  0  0  0  0  0  0  0  0  0  0
   -7.9482   10.2076   -5.8042 F   0  0  0  0  0  0  0  0  0  0  0  0
  -10.0300    9.8703   -7.5979 O   0  0  0  0  0  0  0  0  0  0  0  0
  -11.0875    9.7177   -8.4902 C   0  0  0  0  0  0  0  0  0  0  0  0
  -11.1335    8.4632   -9.1477 C   0  0  0  0  0  0  0  0  0  0  0  0
  -10.4644    7.2703   -8.9988 C   0  0  0  0  0  0  0  0  0  0  0  0
  -10.8056    6.4900  -10.1439 C   0  0  0  0  0  0  0  0  0  0  0  0
  -11.9061    7.0933  -10.7228 C   0  0  0  0  0  0  0  0  0  0  0  0
  -12.0854    8.3072  -10.1042 N   0  0  0  0  0  0  0  0  0  0  0  0
  -13.0457    9.2220  -10.3471 N   0  0  0  0  0  0  0  0  0  0  0  0
  -12.9479   10.3068   -9.6351 C   0  0  0  0  0  0  0  0  0  0  0  0
  -11.9644   10.6303   -8.7296 N   0  0  0  0  0  0  0  0  0  0  0  0
  -10.2289    5.3859  -10.6859 O   0  0  0  0  0  0  0  0  0  0  0  0
   -8.9878    4.9620  -10.1003 C   0  0  0  0  0  0  0  0  0  0  0  0
   -7.6928    5.8380  -10.3794 C   0  0  1  0  0  0  0  0  0  0  0  0
   -7.6773    7.3896  -10.2309 C   0  0  0  0  0  0  0  0  0  0  0  0
   -6.5137    5.3017   -9.6665 O   0  0  0  0  0  0  0  0  0  0  0  0
   -6.5253    5.0612   -8.3106 C   0  0  0  0  0  0  0  0  0  0  0  0
   -7.4694    5.1475   -7.5566 O   0  0  0  0  0  0  0  0  0  0  0  0
   -5.1711    4.6490   -7.7463 C   0  0  2  0  0  0  0  0  0  0  0  0
   -4.4866    5.8515   -7.1128 C   0  0  0  0  0  0  0  0  0  0  0  0
   -4.3206    4.0030   -8.7549 N   0  0  0  0  0  0  0  0  0  0  0  0
   -9.4951    6.9847   -7.9355 C   0  0  0  0  0  0  0  0  0  0  0  0
  1  2  1  0
  2  3  2  0
  2  6  1  0
  3  4  1  0
  4  5  2  0
  4 10  1  0
  5  6  1  0
  5  7  1  0
  7  8  2  0
  8  9  1  0
  9 10  2  0
  9 12  1  0
 10 11  1  0
 12 13  1  0
 13 14  1  0
 13 21  2  0
 14 15  2  0
 14 18  1  0
 15 16  1  0
 15 32  1  0
 16 17  2  0
 16 22  1  0
 17 18  1  0
 18 19  1  0
 19 20  2  0
 20 21  1  0
 22 23  1  0
 23 24  1  0
 24 25  1  1
 24 26  1  0
 26 27  1  0
 27 28  2  0
 29 31  1  0
 29 30  1  6
 29 27  1  0
M  END
>  <DRUGBANK_ID>  (1) 
DB11865

>  <COMMON_NAME>  (1) 
Brivanib alaninate

>  <CAS_NUMBER>  (1) 
649735-63-7

>  <UNII>  (1) 
U2Y5OFN795

>  <SYNONYMS>  (1) 
Brivanib alaninate

$$$$
