
     RDKit          3D

 25 27  0  0  0  0  0  0  0  0999 V2000
    1.0617    0.1231   -0.1364 O   0  0  0  0  0  0  0  0  0  0  0  0
    2.3009    0.0605   -0.2215 C   0  0  0  0  0  0  0  0  0  0  0  0
    3.0869    0.9661    0.6535 C   0  0  0  0  0  0  0  0  0  0  0  0
    4.2446    1.6475    0.2950 C   0  0  0  0  0  0  0  0  0  0  0  0
    4.8981    1.6169   -0.9123 O   0  0  0  0  0  0  0  0  0  0  0  0
    6.0435    2.5053   -0.7693 C   0  0  0  0  0  0  0  0  0  0  0  0
    6.0533    3.1370    0.6104 C   0  0  0  0  0  0  0  0  0  0  0  0
    4.8591    2.5062    1.2045 C   0  0  0  0  0  0  0  0  0  0  0  0
    4.3812    2.7340    2.4880 C   0  0  0  0  0  0  0  0  0  0  0  0
    5.0953    3.5401    3.3597 N   0  0  0  0  0  0  0  0  0  0  0  0
    3.2126    2.0582    2.8520 C   0  0  0  0  0  0  0  0  0  0  0  0
    2.5465    2.2748    4.4345 Cl  0  0  0  0  0  0  0  0  0  0  0  0
    2.5659    1.2004    1.9479 C   0  0  0  0  0  0  0  0  0  0  0  0
    2.9412   -0.8769   -1.0164 N   0  0  0  0  0  0  0  0  0  0  0  0
    2.1492   -1.8582   -1.7939 C   0  0  0  0  0  0  0  0  0  0  0  0
    1.3623   -2.8036   -0.8916 C   0  0  0  0  0  0  0  0  0  0  0  0
    2.2797   -3.8793   -0.3646 C   0  0  0  0  0  0  0  0  0  0  0  0
    3.0823   -4.6516   -1.3093 N   0  0  0  0  0  0  0  0  0  0  0  0
    4.0098   -5.6338   -0.7055 C   0  0  0  0  0  0  0  0  0  0  0  0
    5.0650   -5.1179    0.3033 C   0  0  0  0  0  0  0  0  0  0  0  0
    4.6228   -4.3878    1.5804 C   0  0  0  0  0  0  0  0  0  0  0  0
    3.8829   -5.1496    2.5323 O   0  0  0  0  0  0  0  0  0  0  0  0
    2.6714   -5.7653    2.1343 C   0  0  0  0  0  0  0  0  0  0  0  0
    3.8405   -3.7592   -2.1757 C   0  0  0  0  0  0  0  0  0  0  0  0
    2.9398   -2.7085   -2.8060 C   0  0  0  0  0  0  0  0  0  0  0  0
  1  2  2  0
  2  3  1  0
  2 14  1  0
  3  4  2  0
  3 13  1  0
  4  5  1  0
  4  8  1  0
  5  6  1  0
  6  7  1  0
  7  8  1  0
  8  9  2  0
  9 10  1  0
  9 11  1  0
 11 12  1  0
 11 13  2  0
 14 15  1  0
 15 16  1  0
 15 25  1  0
 16 17  1  0
 17 18  1  0
 18 19  1  0
 18 24  1  0
 19 20  1  0
 20 21  1  0
 21 22  1  0
 22 23  1  0
 24 25  1  0
M  END
>  <DRUGBANK_ID>  (1) 
DB06480

>  <COMMON_NAME>  (1) 
Prucalopride

>  <CAS_NUMBER>  (1) 
179474-81-8

>  <UNII>  (1) 
0A09IUW5TP

>  <SYNONYMS>  (1) 
Prucaloprida; Prucalopride

$$$$
