SN2
     RDKit          3D

 22 22  0  0  0  0  0  0  0  0999 V2000
    1.4097   -0.1425   -0.1114 C   0  0  0  0  0  0  0  0  0  0  0  0
    0.4414   -1.1834   -0.2756 C   0  0  0  0  0  0  0  0  0  0  0  0
   -0.9687   -1.0593   -0.1504 C   0  0  0  0  0  0  0  0  0  0  0  0
   -1.4564    0.2444   -0.0469 C   0  0  0  0  0  0  0  0  0  0  0  0
   -0.5415    1.3273   -0.0149 C   0  0  0  0  0  0  0  0  0  0  0  0
    0.8537    1.1528   -0.1456 C   0  0  0  0  0  0  0  0  0  0  0  0
    3.8138    0.4899    0.4090 C   0  0  0  0  0  0  0  0  0  0  0  0
    3.1289   -1.9390    0.3139 C   0  0  0  0  0  0  0  0  0  0  0  0
    4.5981    0.5106    1.7166 C   0  0  0  0  0  0  0  0  0  0  0  0
    2.7741   -2.6104    1.6650 C   0  0  0  0  0  0  0  0  0  0  0  0
   -1.8045   -2.3252   -0.0142 C   0  0  0  0  0  0  0  0  0  0  0  0
   -3.1323    1.8427   -0.0877 O   0  0  0  0  0  0  0  0  0  0  0  0
    1.0982    3.4763   -0.1685 O   0  0  0  0  0  0  0  0  0  0  0  0
   -3.7208   -0.1951   -0.5242 O   0  0  0  0  0  0  0  0  0  0  0  0
   -2.9842   -2.3484    0.2601 O   0  0  0  0  0  0  0  0  0  0  0  0
    2.5895    2.3043   -1.2484 O   0  0  0  0  0  0  0  0  0  0  0  0
   -2.8767    0.6329   -0.1930 N   0  0  0  0  0  0  0  0  0  0  0  0
    1.5820    2.3941   -0.5316 N   0  0  0  0  0  0  0  0  0  0  0  0
    2.7311   -0.5085    0.2111 N   0  0  0  0  0  0  0  0  0  0  0  0
   -1.1978   -3.5602   -0.0981 N   0  0  0  0  0  0  0  0  0  0  0  0
    1.0745   -2.9475    2.0722 Cl  0  0  0  0  0  0  0  0  0  0  0  0
    5.7210   -0.8209    2.0015 Cl  0  0  0  0  0  0  0  0  0  0  0  0
  1  2  2  0
  1  6  1  0
  1 19  1  0
  2  3  1  0
  3  4  2  0
  3 11  1  0
  4  5  1  0
  4 17  1  0
  5  6  2  0
  6 18  1  0
  7  9  1  0
  7 19  1  0
  8 10  1  0
  8 19  1  0
  9 22  1  0
 10 21  1  0
 11 15  2  0
 11 20  1  0
 12 17  1  0
 13 18  2  0
 14 17  2  0
 16 18  1  0
M  CHG  4  12  -1  16  -1  17   1  18   1
M  END
>  <DRUGBANK_ID>  (1) 
DB03228

>  <SECONDARY_ACCESSION_NUMBERS>  (1) 
EXPT02926

>  <COMMON_NAME>  (1) 
5-[Bis-2(Chloro-Ethyl)-Amino]-2,4-Dintro-Benzamide

>  <UNII>  (1) 
EB8R4ME372

$$$$
