ZZ5
     RDKit          3D

 25 27  0  0  0  0  0  0  0  0999 V2000
    1.2389   -0.0632    0.0379 N   0  0  0  0  0  0  0  0  0  0  0  0
    2.4076   -0.1229    0.0515 C   0  0  0  0  0  0  0  0  0  0  0  0
    3.8434   -0.1289    0.0352 C   0  0  0  0  0  0  0  0  0  0  0  0
    4.4940    1.0922    0.0310 C   0  0  0  0  0  0  0  0  0  0  0  0
    3.8306    2.3030    0.0199 N   0  0  0  0  0  0  0  0  0  0  0  0
    5.8188    1.1714    0.0273 N   0  0  0  0  0  0  0  0  0  0  0  0
    6.5223    0.0210    0.0292 C   0  0  0  0  0  0  0  0  0  0  0  0
    8.1895    0.1495    0.0332 S   0  0  0  0  0  0  0  0  0  0  0  0
    8.4662   -1.5524    0.0269 C   0  0  0  0  0  0  0  0  0  0  0  0
    9.9117   -1.8403    0.0224 C   0  0  0  0  0  0  0  0  0  0  0  0
   10.3773   -3.1211    0.0175 N   0  0  0  0  0  0  0  0  0  0  0  0
   10.7946   -0.9750    0.0221 O   0  0  0  0  0  0  0  0  0  0  0  0
    7.2393   -2.2419    0.0273 C   0  0  0  0  0  0  0  0  0  0  0  0
    7.1297   -3.6059    0.0289 N   0  0  0  0  0  0  0  0  0  0  0  0
    6.0559   -1.2886    0.0300 C   0  0  0  0  0  0  0  0  0  0  0  0
    4.6094   -1.3449    0.0294 C   0  0  0  0  0  0  0  0  0  0  0  0
    3.9081   -2.6217    0.0235 C   0  0  0  0  0  0  0  0  0  0  0  0
    3.0443   -2.9451   -1.0288 C   0  0  0  0  0  0  0  0  0  0  0  0
    2.3777   -4.1598   -1.0368 C   0  0  0  0  0  0  0  0  0  0  0  0
    4.0259   -3.5082    1.0981 C   0  0  0  0  0  0  0  0  0  0  0  0
    3.3263   -4.7131    1.1022 C   0  0  0  0  0  0  0  0  0  0  0  0
    2.4875   -5.0394    0.0384 C   0  0  0  0  0  0  0  0  0  0  0  0
    1.8057   -6.2166    0.1658 O   0  0  0  0  0  0  0  0  0  0  0  0
    0.8942   -6.5583   -0.8813 C   0  0  0  0  0  0  0  0  0  0  0  0
   -0.3186   -5.6330   -0.9381 C   0  0  0  0  0  0  0  0  0  0  0  0
  1  2  3  0
  2  3  1  0
  3  4  2  0
  3 16  1  0
  4  5  1  0
  4  6  1  0
  6  7  2  0
  7  8  1  0
  7 15  1  0
  8  9  1  0
  9 10  1  0
  9 13  2  0
 10 11  1  0
 10 12  2  0
 13 14  1  0
 13 15  1  0
 15 16  2  0
 16 17  1  0
 17 18  2  0
 17 20  1  0
 18 19  1  0
 19 22  2  0
 20 21  2  0
 21 22  1  0
 22 23  1  0
 23 24  1  0
 24 25  1  0
M  END
>  <DRUGBANK_ID>  (1) 
DB08788

>  <COMMON_NAME>  (1) 
3,6-DIAMINO-5-CYANO-4-(4-ETHOXYPHENYL)THIENO[2,3-B]PYRIDINE-2-CARBOXAMIDE

$$$$
