
     RDKit          3D

 18 19  0  0  0  0  0  0  0  0999 V2000
    0.6964   -1.2849    0.3200 O   0  0  0  0  0  0  0  0  0  0  0  0
   -0.5721    2.2177    0.6910 O   0  0  0  0  0  0  0  0  0  0  0  0
    2.2211    2.6571    0.3335 O   0  0  0  0  0  0  0  0  0  0  0  0
    3.7387    0.5637   -0.8174 O   0  0  0  0  0  0  0  0  0  0  0  0
   -0.3008    0.0759   -2.2500 O   0  0  0  0  0  0  0  0  0  0  0  0
    4.2062   -1.9232   -0.7894 O   0  0  0  0  0  0  0  0  0  0  0  0
   -3.6226    0.2445    0.9075 O   0  0  0  0  0  0  0  0  0  0  0  0
   -1.4352   -0.5330    0.9688 N   0  0  0  0  0  0  0  0  0  0  0  0
   -2.2335    0.2037   -0.9786 N   0  0  0  0  0  0  0  0  0  0  0  0
   -3.1411    0.3910   -2.0293 N   0  0  0  0  0  0  0  0  0  0  0  0
   -0.2425   -0.2210    0.2123 C   0  0  1  0  0  0  0  0  0  0  0  0
    0.3593    1.1274    0.7029 C   0  0  1  0  0  0  0  0  0  0  0  0
    1.6117    1.4434   -0.1123 C   0  0  2  0  0  0  0  0  0  0  0  0
    2.5913    0.2750   -0.0101 C   0  0  1  0  0  0  0  0  0  0  0  0
    1.9147   -1.0515   -0.4257 C   0  0  1  0  0  0  0  0  0  0  0  0
   -0.8937   -0.0063   -1.1799 C   0  0  0  0  0  0  0  0  0  0  0  0
    2.9107   -2.2287   -0.2818 C   0  0  0  0  0  0  0  0  0  0  0  0
   -2.5610    0.0006    0.3434 C   0  0  0  0  0  0  0  0  0  0  0  0
  1 15  1  0
  5 16  2  0
  6 17  1  0
  7 18  2  0
 11  8  1  1
  8 18  1  0
  9 10  1  0
  9 16  1  0
  9 18  1  0
 11  1  1  0
 11 12  1  0
 11 16  1  0
 12 13  1  0
 12  2  1  6
 13  3  1  1
 13 14  1  0
 14  4  1  6
 14 15  1  0
 15 17  1  1
M  END
>  <DRUGBANK_ID>  (1) 
DB01843

>  <SECONDARY_ACCESSION_NUMBERS>  (1) 
EXPT01596

>  <COMMON_NAME>  (1) 
(5S,7R,8S,9S,10R)-3-Amino-8,9,10-trihydroxy-7-(hydroxymethyl)-6-oxa-1,3-diazaspiro[4.5]decane-2,4-dione

$$$$
