
     RDKit          3D

 11 10  0  0  0  0  0  0  0  0999 V2000
    1.0562    0.0732   -0.0384 O   0  0  0  0  0  0  0  0  0  0  0  0
    4.2262    1.6348    0.6270 O   0  0  0  0  0  0  0  0  0  0  0  0
   10.3958   -0.9800   -0.4872 O   0  0  0  0  0  0  0  0  0  0  0  0
   11.0162   -4.0505   -1.7957 O   0  0  0  0  0  0  0  0  0  0  0  0
    7.0234    0.4541   -1.8198 O   0  0  0  0  0  0  0  0  0  0  0  0
    6.9679   -0.9852    1.2502 O   0  0  0  0  0  0  0  0  0  0  0  0
    4.3412   -1.6715   -0.7819 O   0  0  0  0  0  0  0  0  0  0  0  0
    7.5893   -3.0482   -1.3686 O   0  0  0  0  0  0  0  0  0  0  0  0
    3.2462    0.0732   -0.0384 V   0  0  0  0  0  4  0  0  0  0  0  0
    9.7425   -2.6800   -1.2117 V   0  0  0  0  0  5  0  0  0  0  0  0
    6.4943   -1.3034   -0.6250 V   0  0  0  0  0  5  0  0  0  0  0  0
  9  1  1  0
  9  2  2  0
  9  7  1  0
 10  3  2  0
 10  4  2  0
 10  8  1  0
 11  5  1  0
 11  6  2  0
 11  7  1  0
 11  8  1  0
M  CHG  1   1  -1
M  END
>  <DRUGBANK_ID>  (1) 
DB04219

>  <SECONDARY_ACCESSION_NUMBERS>  (1) 
EXPT03215

>  <COMMON_NAME>  (1) 
Trivanadate

$$$$
