
     RDKit          3D

 39 44  0  0  0  0  0  0  0  0999 V2000
   -3.1504   -9.8795    6.6826 C   0  0  0  0  0  0  0  0  0  0  0  0
   -3.8595  -10.9204    6.1173 C   0  0  0  0  0  0  0  0  0  0  0  0
   -5.3071  -10.2922    6.1045 C   0  0  0  0  0  0  0  0  0  0  0  0
   -5.6219   -9.2987    4.9910 C   0  0  0  0  0  0  0  0  0  0  0  0
   -4.9477   -8.1283    5.4352 C   0  0  0  0  0  0  0  0  0  0  0  0
   -3.5845   -8.8981    5.7374 C   0  0  0  0  0  0  0  0  0  0  0  0
   -3.3928   -4.3170    7.4685 C   0  0  0  0  0  0  0  0  0  0  0  0
   -3.2447   -5.6142    6.7238 C   0  0  0  0  0  0  0  0  0  0  0  0
   -1.2039   -6.1629    6.7075 C   0  0  0  0  0  0  0  0  0  0  0  0
   -2.6853   -5.0035    6.7422 C   0  0  0  0  0  0  0  0  0  0  0  0
   -1.0448   -5.5540    5.4058 C   0  0  1  0  0  0  0  0  0  0  0  0
   -0.6072   -6.8703    5.8718 C   0  0  0  0  0  0  0  0  0  0  0  0
   -0.6451   -8.4102    5.8180 C   0  0  0  0  0  0  0  0  0  0  0  0
    0.4812   -9.2443    6.0596 C   0  0  0  0  0  0  0  0  0  0  0  0
    0.4707   -6.7131    4.8265 C   0  0  2  0  0  0  0  0  0  0  0  0
    0.8581   -8.7743    4.7829 C   0  0  2  0  0  0  0  0  0  0  0  0
    2.1297   -7.4406    4.4658 C   0  0  0  0  0  0  0  0  0  0  0  0
    1.6638   -6.3092    5.5466 C   0  0  2  0  0  0  0  0  0  0  0  0
    0.3605   -8.2778    3.4676 C   0  0  1  0  0  0  0  0  0  0  0  0
    1.0227   -9.5140    3.4434 C   0  0  2  0  0  0  0  0  0  0  0  0
    0.4780  -10.8873    3.6394 C   0  0  0  0  0  0  0  0  0  0  0  0
   -1.3235   -9.4356    3.3192 C   0  0  1  0  0  0  0  0  0  0  0  0
   -1.0029  -10.9256    3.5399 C   0  0  2  0  0  0  0  0  0  0  0  0
   -1.6479  -11.5483    4.7626 O   0  0  0  0  0  0  0  0  0  0  0  0
   -3.0083  -11.1568    4.7082 C   0  0  2  0  0  0  0  0  0  0  0  0
   -2.8574  -10.1236    3.6801 O   0  0  0  0  0  0  0  0  0  0  0  0
   -4.2644   -6.4527    7.0105 O   0  0  0  0  0  0  0  0  0  0  0  0
   -0.3374   -4.5836    4.3912 C   0  0  0  0  0  0  0  0  0  0  0  0
    1.5872   -6.5950    6.9563 O   0  0  0  0  0  0  0  0  0  0  0  0
   -0.2140   -8.0394    1.8029 C   0  0  0  0  0  0  0  0  0  0  0  0
   -2.5700   -8.2860    2.8769 C   0  0  0  0  0  0  0  0  0  0  0  0
   -3.6671   -8.4452    2.3373 O   0  0  0  0  0  0  0  0  0  0  0  0
   -2.1847   -6.8728    3.2184 C   0  0  0  0  0  0  0  0  0  0  0  0
   -2.0970   -7.3771    4.5153 O   0  0  0  0  0  0  0  0  0  0  0  0
   -2.8977   -7.0293    5.5222 C   0  0  0  0  0  0  0  0  0  0  0  0
   -3.7179   -6.2663    4.9223 O   0  0  0  0  0  0  0  0  0  0  0  0
   -2.5083   -7.5103    7.6047 C   0  0  0  0  0  0  0  0  0  0  0  0
   -1.5287   -8.7166    8.3711 C   0  0  0  0  0  0  0  0  0  0  0  0
   -1.5433   -6.3373    8.8839 C   0  0  0  0  0  0  0  0  0  0  0  0
  1  2  1  0
  1  6  1  0
  2  3  1  0
  3  4  1  0
  4  5  1  0
  5  6  1  0
  7  8  1  0
  7 10  2  0
  8 27  2  0
  8  9  1  0
  9 12  2  0
 11 10  1  0
 11 12  1  0
 11 15  1  0
 11 28  1  6
 12 13  1  0
 13 14  1  0
 16 14  1  6
 15 16  1  0
 15 18  1  1
 16 20  1  0
 17 18  1  0
 18 29  1  1
 19 30  1  6
 19 17  1  0
 19 20  1  0
 20 21  1  1
 23 21  1  1
 22 19  1  0
 22 23  1  0
 22 31  1  6
 23 24  1  0
 24 25  1  0
 25 26  1  0
 25  2  1  1
 26 22  1  0
 31 32  2  0
 31 33  1  0
 33 34  1  0
 34 35  1  0
 35 36  2  0
 35 37  1  0
 37 38  1  0
 37 39  1  0
M  END
>  <DRUGBANK_ID>  (1) 
DB01410

>  <COMMON_NAME>  (1) 
Ciclesonide

>  <CAS_NUMBER>  (1) 
126544-47-6

>  <UNII>  (1) 
S59502J185

>  <SYNONYMS>  (1) 
Ciclesonida; Ciclesonide

$$$$
