
     RDKit          3D

 12 11  0  0  1  0  0  0  0  0999 V2000
    0.9396    0.2545    0.0057 C   0  0  0  0  0  0  0  0  0  0  0  0
    0.2206    0.0932    1.6728 S   0  0  0  0  0  0  0  0  0  0  0  0
    0.9197   -1.4698    2.3554 C   0  0  0  0  0  0  0  0  0  0  0  0
    0.4611   -2.7590    1.6697 C   0  0  0  0  0  0  0  0  0  0  0  0
    0.9936   -2.9482    0.2437 C   0  0  1  0  0  0  0  0  0  0  0  0
    2.4611   -2.9125    0.2262 N   0  0  0  0  0  0  0  0  0  0  0  0
    3.2046   -3.7913   -0.4838 C   0  0  0  0  0  0  0  0  0  0  0  0
    4.5347   -3.6695   -0.3374 N   0  0  0  0  0  0  0  0  0  0  0  0
    2.7636   -4.6822   -1.2003 O   0  0  0  0  0  0  0  0  0  0  0  0
    0.2750   -4.1452   -0.4101 C   0  0  0  0  0  0  0  0  0  0  0  0
   -0.4595   -3.8097   -1.5081 O   0  0  0  0  0  0  0  0  0  0  0  0
    0.3111   -5.2896    0.0174 O   0  0  0  0  0  0  0  0  0  0  0  0
  1  2  1  0
  2  3  1  0
  3  4  1  0
  5  4  1  1
  5  6  1  0
  5 10  1  0
  6  7  1  0
  7  8  1  0
  7  9  2  0
 10 11  1  0
 10 12  2  0
M  END
>  <DRUGBANK_ID>  (1) 
DB03364

>  <SECONDARY_ACCESSION_NUMBERS>  (1) 
EXPT00877

>  <COMMON_NAME>  (1) 
N-Carbamyl-D-Methionine

$$$$
