579
     RDKit          3D

 20 23  0  0  1  0  0  0  0  0999 V2000
    6.4110    4.7675    1.0428 Cl  0  0  0  0  0  0  0  0  0  0  0  0
   -0.3022    4.8323    2.8310 O   0  0  0  0  0  0  0  0  0  0  0  0
   -0.0256    3.0990    1.2007 N   0  0  0  0  0  0  0  0  0  0  0  0
    1.0063    1.3361    0.0634 N   0  0  0  0  0  0  0  0  0  0  0  0
    0.5010    3.7696    2.3749 C   0  0  0  0  0  0  0  0  0  0  0  0
    0.3292    2.4577    3.2440 C   0  0  0  0  0  0  0  0  0  0  0  0
    0.6662    1.8662    1.1848 C   0  0  0  0  0  0  0  0  0  0  0  0
   -0.0906    3.5721   -0.1564 C   0  0  0  0  0  0  0  0  0  0  0  0
    0.9967    1.4306    2.5619 C   0  0  0  0  0  0  0  0  0  0  0  0
    1.9898    4.2234    2.0698 C   0  0  0  0  0  0  0  0  0  0  0  0
    0.1615    2.1938   -0.8448 C   0  0  0  0  0  0  0  0  0  0  0  0
   -0.8638    2.0159    3.8636 C   0  0  0  0  0  0  0  0  0  0  0  0
    0.8895    0.0723    2.8404 C   0  0  0  0  0  0  0  0  0  0  0  0
    2.6587    3.7547    0.9005 C   0  0  0  0  0  0  0  0  0  0  0  0
    2.7768    5.0401    2.8683 C   0  0  0  0  0  0  0  0  0  0  0  0
   -1.1043    0.6337    4.0581 C   0  0  0  0  0  0  0  0  0  0  0  0
   -0.1854   -0.3282    3.6201 C   0  0  0  0  0  0  0  0  0  0  0  0
    4.0023    3.8137    0.6240 C   0  0  0  0  0  0  0  0  0  0  0  0
    4.1444    5.2475    2.5246 C   0  0  0  0  0  0  0  0  0  0  0  0
    4.7561    4.5846    1.4447 C   0  0  0  0  0  0  0  0  0  0  0  0
  1 20  1  0
  2  5  1  0
  3  5  1  0
  3  7  1  0
  3  8  1  0
  4  7  2  0
  4 11  1  0
  5  6  1  0
  5 10  1  0
  6  9  2  0
  6 12  1  0
  7  9  1  0
  8 11  1  0
  9 13  1  0
 10 14  2  0
 10 15  1  0
 12 16  2  0
 13 17  2  0
 14 18  1  0
 15 19  2  0
 16 17  1  0
 18 20  2  0
 19 20  1  0
M  END
>  <DRUGBANK_ID>  (1) 
DB00579

>  <SECONDARY_ACCESSION_NUMBERS>  (1) 
APRD01085

>  <COMMON_NAME>  (1) 
Mazindol

>  <CAS_NUMBER>  (1) 
22232-71-9

>  <UNII>  (1) 
C56709M5NH

>  <SYNONYMS>  (1) 
Mazindol; Mazindolo; Mazindolum

$$$$
