
     RDKit          3D

 12 11  0  0  0  0  0  0  0  0999 V2000
    0.8060   -0.0583   -0.1275 O   0  0  0  0  0  0  0  0  0  0  0  0
    0.3157   -0.8486    0.8355 C   0  0  0  0  0  0  0  0  0  0  0  0
    1.1180   -1.4297    1.5539 O   0  0  0  0  0  0  0  0  0  0  0  0
   -1.1756   -0.8530    0.9147 C   0  0  0  0  0  0  0  0  0  0  0  0
   -1.9373    0.0071   -0.1370 C   0  0  0  0  0  0  0  0  0  0  0  0
   -2.9894   -1.0845   -1.1619 P   0  0  0  0  0  0  0  0  0  0  0  0
   -4.1701   -0.8033   -0.0720 O   0  0  0  0  0  0  0  0  0  0  0  0
   -3.2920    0.2207   -2.1246 O   0  0  0  0  0  0  0  0  0  0  0  0
   -3.8796   -2.0081   -2.0291 O   0  0  0  0  0  0  0  0  0  0  0  0
   -1.7251   -1.5540    1.9410 C   0  0  0  0  0  0  0  0  0  0  0  0
   -0.8742   -2.6183    3.0330 Cl  0  0  0  0  0  0  0  0  0  0  0  0
   -3.4055   -1.5235    2.3805 Cl  0  0  0  0  0  0  0  0  0  0  0  0
  1  2  1  0
  2  3  2  0
  2  4  1  0
  4  5  1  0
  4 10  2  3
  5  6  1  0
  6  7  1  0
  6  8  1  0
  6  9  2  0
 10 11  1  0
 10 12  1  0
M  END
>  <DRUGBANK_ID>  (1) 
DB04317

>  <SECONDARY_ACCESSION_NUMBERS>  (1) 
EXPT01136

>  <COMMON_NAME>  (1) 
3,3-Dichloro-2-Phosphonomethyl-Acrylic Acid

$$$$
