
     RDKit          3D

  3  2  0  0  0  0  0  0  0  0999 V2000
    1.0216    0.0496   -0.0377 C   0  0  0  0  0  0  0  0  0  0  0  0
    0.8789    0.1903    2.2043 N   0  0  0  0  0  0  0  0  0  0  0  0
    0.5105    0.7403    1.1484 N   0  0  0  0  0  0  0  0  0  0  0  0
  3  1  1  0
  3  2  2  0
M  END
>  <DRUGBANK_ID>  (1) 
DB04361

>  <SECONDARY_ACCESSION_NUMBERS>  (1) 
EXPT01715

>  <COMMON_NAME>  (1) 
Methyldiazene

>  <CAS_NUMBER>  (1) 
26981-93-1

>  <SYNONYMS>  (1) 
Diazene, methyl- (9CI); Methyldiimide

$$$$
