
     RDKit          3D

 42 48  0  0  0  0  0  0  0  0999 V2000
    1.0712   -0.0726   -0.1054 C   0  0  0  0  0  0  0  0  0  0  0  0
    0.5375   -0.9724    0.8547 O   0  0  0  0  0  0  0  0  0  0  0  0
    0.8707   -2.3041    0.6392 C   0  0  0  0  0  0  0  0  0  0  0  0
    2.2212   -2.6314    0.5309 C   0  0  0  0  0  0  0  0  0  0  0  0
    2.6190   -3.9556    0.6717 C   0  0  0  0  0  0  0  0  0  0  0  0
    1.6846   -4.9562    0.9756 C   0  0  0  0  0  0  0  0  0  0  0  0
    0.3270   -4.6466    1.1622 C   0  0  0  0  0  0  0  0  0  0  0  0
   -0.1133   -3.3070    0.9518 C   0  0  0  0  0  0  0  0  0  0  0  0
   -1.4792   -2.8329    1.3172 C   0  0  0  0  0  0  0  0  0  0  0  0
   -2.1512   -1.7665    0.7384 C   0  0  0  0  0  0  0  0  0  0  0  0
   -3.5246   -2.0130    0.9467 C   0  0  0  0  0  0  0  0  0  0  0  0
   -3.6103   -2.7283    2.0925 N   0  0  0  0  0  0  0  0  0  0  0  0
   -2.2869   -3.0284    2.4297 N   0  0  0  0  0  0  0  0  0  0  0  0
   -1.9275   -3.3465    3.7845 C   0  0  0  0  0  0  0  0  0  0  0  0
   -2.8333   -3.0590    4.7679 C   0  0  0  0  0  0  0  0  0  0  0  0
   -2.5935   -3.5256    6.0453 C   0  0  0  0  0  0  0  0  0  0  0  0
   -1.4568   -4.1709    6.4247 N   0  0  0  0  0  0  0  0  0  0  0  0
   -0.4345   -4.1820    5.5499 C   0  0  0  0  0  0  0  0  0  0  0  0
   -0.6507   -3.6590    4.2716 C   0  0  0  0  0  0  0  0  0  0  0  0
    0.4737   -3.1992    3.6348 C   0  0  0  0  0  0  0  0  0  0  0  0
    1.7417   -3.6692    3.8735 C   0  0  0  0  0  0  0  0  0  0  0  0
    1.9571   -4.3700    5.0188 C   0  0  0  0  0  0  0  0  0  0  0  0
    0.8846   -4.5693    5.8901 C   0  0  0  0  0  0  0  0  0  0  0  0
    3.5842   -4.7776    5.3710 Cl  0  0  0  0  0  0  0  0  0  0  0  0
   -4.6819   -1.6900    0.0305 C   0  0  0  0  0  0  0  0  0  0  0  0
   -5.8526   -1.6469    0.4221 O   0  0  0  0  0  0  0  0  0  0  0  0
   -4.4846   -1.5008   -1.3502 N   0  0  0  0  0  0  0  0  0  0  0  0
   -3.2220   -1.5994   -2.1299 C   0  0  0  0  0  0  0  0  0  0  0  0
   -3.4190   -1.6623   -3.6876 C   0  0  0  0  0  0  0  0  0  0  0  0
   -4.2488   -2.9067   -4.0876 C   0  0  0  0  0  0  0  0  0  0  0  0
   -3.5479   -4.2069   -3.6534 C   0  0  0  0  0  0  0  0  0  0  0  0
   -2.1299   -4.3071   -4.2512 C   0  0  0  0  0  0  0  0  0  0  0  0
   -1.2926   -3.0695   -3.8910 C   0  0  0  0  0  0  0  0  0  0  0  0
   -2.0360   -1.8161   -4.3951 C   0  0  0  0  0  0  0  0  0  0  0  0
   -1.1478   -3.0501   -2.3775 C   0  0  0  0  0  0  0  0  0  0  0  0
   -2.5428   -2.9645   -1.7845 C   0  0  0  0  0  0  0  0  0  0  0  0
   -3.4119   -4.1691   -2.1530 C   0  0  0  0  0  0  0  0  0  0  0  0
   -2.5000   -0.2242   -1.8249 C   0  0  0  0  0  0  0  0  0  0  0  0
   -2.9544    0.7166   -1.1434 O   0  0  0  0  0  0  0  0  0  0  0  0
   -1.2510   -0.0927   -2.2839 O   0  0  0  0  0  0  0  0  0  0  0  0
   -0.5461   -5.5182    1.7860 O   0  0  0  0  0  0  0  0  0  0  0  0
    0.0078   -6.6069    2.5435 C   0  0  0  0  0  0  0  0  0  0  0  0
  1  2  1  0
  2  3  1  0
  3  4  2  0
  3  8  1  0
  4  5  1  0
  5  6  2  0
  6  7  1  0
  7  8  2  0
  7 41  1  0
  8  9  1  0
  9 10  2  0
  9 13  1  0
 10 11  1  0
 11 12  2  0
 11 25  1  0
 12 13  1  0
 13 14  1  0
 14 15  2  0
 14 19  1  0
 15 16  1  0
 16 17  2  0
 17 18  1  0
 18 19  2  0
 18 23  1  0
 19 20  1  0
 20 21  2  0
 21 22  1  0
 22 23  2  0
 22 24  1  0
 25 26  2  0
 25 27  1  0
 27 28  1  0
 28 29  1  0
 28 36  1  0
 28 38  1  0
 29 34  1  0
 29 30  1  0
 30 31  1  0
 31 37  1  0
 31 32  1  0
 32 33  1  0
 33 34  1  0
 33 35  1  0
 35 36  1  0
 36 37  1  0
 38 39  2  0
 38 40  1  0
 41 42  1  0
M  END
>  <DRUGBANK_ID>  (1) 
DB06455

>  <COMMON_NAME>  (1) 
Meclinertant

>  <CAS_NUMBER>  (1) 
146362-70-1

>  <UNII>  (1) 
5JBP4SI96H

>  <SYNONYMS>  (1) 
Meclinertant; Reminertant

$$$$
