
     RDKit          3D

 27 29  0  0  1  0  0  0  0  0999 V2000
    2.4920    1.1583   -1.1246 C   0  0  0  0  0  0  0  0  0  0  0  0
    1.5839    0.6798   -0.0107 C   0  0  0  0  0  0  0  0  0  0  0  0
    0.2856    1.5526    0.1211 C   0  0  1  0  0  0  0  0  0  0  0  0
   -0.8192    0.6827    0.5196 N   0  0  0  0  0  0  0  0  0  0  0  0
   -0.4720   -0.7029    0.5381 C   0  0  2  0  0  0  0  0  0  0  0  0
    0.9352   -0.9009   -0.6211 S   0  0  0  0  0  0  0  0  0  0  0  0
   -1.8992   -1.1001    0.0412 C   0  0  1  0  0  0  0  0  0  0  0  0
   -2.0120    0.4730   -0.1116 C   0  0  0  0  0  0  0  0  0  0  0  0
   -2.8079    1.2693   -0.5953 O   0  0  0  0  0  0  0  0  0  0  0  0
   -1.9595   -1.9633   -1.2079 N   0  0  0  0  0  0  0  0  0  0  0  0
   -2.2431   -3.3287   -1.2693 C   0  0  0  0  0  0  0  0  0  0  0  0
   -2.2025   -3.8556   -2.3917 O   0  0  0  0  0  0  0  0  0  0  0  0
   -2.5743   -4.2284   -0.0163 C   0  0  1  0  0  0  0  0  0  0  0  0
   -1.3903   -4.3699    1.0304 C   0  0  0  0  0  0  0  0  0  0  0  0
   -0.3728   -3.4134    1.1212 C   0  0  0  0  0  0  0  0  0  0  0  0
    0.4394   -3.3554    2.2202 C   0  0  0  0  0  0  0  0  0  0  0  0
    0.4401   -4.9232    2.8527 S   0  0  0  0  0  0  0  0  0  0  0  0
   -0.8627   -5.4073    1.7800 C   0  0  0  0  0  0  0  0  0  0  0  0
   -3.9962   -3.9926    0.5557 C   0  0  0  0  0  0  0  0  0  0  0  0
   -4.6114   -4.8054    1.2353 O   0  0  0  0  0  0  0  0  0  0  0  0
   -4.5881   -2.7968    0.3104 O   0  0  0  0  0  0  0  0  0  0  0  0
   -2.7564   -1.6963    1.0199 O   0  0  0  0  0  0  0  0  0  0  0  0
   -2.7633   -1.4781    2.3972 C   0  0  0  0  0  0  0  0  0  0  0  0
    0.3685    2.7170    1.0997 C   0  0  0  0  0  0  0  0  0  0  0  0
   -0.3491    3.7032    1.0912 O   0  0  0  0  0  0  0  0  0  0  0  0
    1.2563    2.5488    2.0970 O   0  0  0  0  0  0  0  0  0  0  0  0
    2.3881    0.3707    1.2717 C   0  0  0  0  0  0  0  0  0  0  0  0
  1  2  1  0
  2  3  1  0
  2  6  1  0
  2 27  1  0
  3  4  1  0
  3 24  1  1
  4  8  1  0
  5  4  1  0
  5  6  1  6
  5  7  1  0
  7  8  1  0
  7 22  1  0
  7 10  1  6
  8  9  2  0
 10 11  1  0
 11 12  2  0
 13 11  1  6
 13 14  1  0
 13 19  1  0
 14 15  1  0
 14 18  2  0
 15 16  2  0
 16 17  1  0
 17 18  1  0
 19 20  2  0
 19 21  1  0
 22 23  1  0
 24 25  2  0
 24 26  1  0
M  END
>  <DRUGBANK_ID>  (1) 
DB12343

>  <COMMON_NAME>  (1) 
Temocillin

>  <CAS_NUMBER>  (1) 
66148-78-5

>  <UNII>  (1) 
03QB156W6I

>  <SYNONYMS>  (1) 
Temocillin; temocillina

$$$$
