
     RDKit          3D

 17 19  0  0  0  0  0  0  0  0999 V2000
   -0.9395   -0.0600    0.3720 S   0  0  0  0  0  0  0  0  0  0  0  0
   -1.8070    2.7382   -0.3477 N   0  0  0  0  0  0  0  0  0  0  0  0
   -0.3265    2.7518   -0.0473 C   0  0  0  0  0  0  0  0  0  0  0  0
    0.4432    3.6366   -1.0982 C   0  0  0  0  0  0  0  0  0  0  0  0
    0.1257    3.3223    1.3500 C   0  0  0  0  0  0  0  0  0  0  0  0
    0.2095    5.1608   -0.9733 C   0  0  0  0  0  0  0  0  0  0  0  0
   -0.0553    4.8156    1.5971 C   0  0  0  0  0  0  0  0  0  0  0  0
   -2.4944    4.0197   -0.2504 C   0  0  0  0  0  0  0  0  0  0  0  0
   -2.0947    2.1852   -1.7010 C   0  0  0  0  0  0  0  0  0  0  0  0
    0.4174    5.6963    0.4402 C   0  0  0  0  0  0  0  0  0  0  0  0
    0.1692    1.2424   -0.0012 C   0  0  0  0  0  0  0  0  0  0  0  0
   -3.9936    3.9929   -0.4287 C   0  0  0  0  0  0  0  0  0  0  0  0
   -3.5989    2.0583   -1.9397 C   0  0  0  0  0  0  0  0  0  0  0  0
   -4.2853    3.4111   -1.7989 C   0  0  0  0  0  0  0  0  0  0  0  0
    1.4599    0.7180   -0.0429 C   0  0  0  0  0  0  0  0  0  0  0  0
    1.4797   -0.7161   -0.0139 C   0  0  0  0  0  0  0  0  0  0  0  0
    0.2324   -1.2567    0.0683 C   0  0  0  0  0  0  0  0  0  0  0  0
  1 11  1  0
  1 17  1  0
  2  3  1  0
  2  8  1  0
  2  9  1  0
  3  4  1  0
  3  5  1  0
  3 11  1  0
  4  6  1  0
  5  7  1  0
  6 10  1  0
  7 10  1  0
  8 12  1  0
  9 13  1  0
 11 15  2  0
 12 14  1  0
 13 14  1  0
 15 16  1  0
 16 17  2  0
M  END
>  <DRUGBANK_ID>  (1) 
DB01520

>  <COMMON_NAME>  (1) 
Tenocyclidine

>  <CAS_NUMBER>  (1) 
21500-98-1

>  <UNII>  (1) 
8BQ45Q6VCL

>  <SYNONYMS>  (1) 
1-[1-(thiophen-2-yl)cyclohexyl]piperidine; TCP; Tenociclidina; Tenocyclidine; Tenocyclidinum; Thienyl cyclohexylpiperidine

$$$$
