
     RDKit          3D

 24 25  0  0  1  0  0  0  0  0999 V2000
    0.9125   -0.1630    0.0104 C   0  0  0  0  0  0  0  0  0  0  0  0
    0.3394    0.1701   -1.3681 C   0  0  0  0  0  0  0  0  0  0  0  0
    1.0023   -0.4921   -2.4985 N   0  0  0  0  0  0  0  0  0  0  0  0
    0.4607   -0.0807   -3.8054 C   0  0  0  0  0  0  0  0  0  0  0  0
    0.7332    1.3482   -4.2794 C   0  0  0  0  0  0  0  0  0  0  0  0
    2.4708   -0.4949   -2.4488 C   0  0  0  0  0  0  0  0  0  0  0  0
    3.2062    0.8603   -2.5607 C   0  0  1  0  0  0  0  0  0  0  0  0
    2.7912    2.0143   -1.6460 C   0  0  0  0  0  0  0  0  0  0  0  0
    4.6156    0.6786   -2.5338 O   0  0  0  0  0  0  0  0  0  0  0  0
    5.2037    0.3533   -1.3661 C   0  0  0  0  0  0  0  0  0  0  0  0
    4.6384    0.0508   -0.3397 O   0  0  0  0  0  0  0  0  0  0  0  0
    6.6948    0.4132   -1.5285 C   0  0  1  0  0  0  0  0  0  0  0  0
    7.1629   -0.9100   -2.1280 C   0  0  0  0  0  0  0  0  0  0  0  0
    8.6796   -0.9215   -2.2655 C   0  0  0  0  0  0  0  0  0  0  0  0
    9.1935    0.2675   -3.0584 C   0  0  0  0  0  0  0  0  0  0  0  0
    8.7110    1.5718   -2.4486 C   0  0  0  0  0  0  0  0  0  0  0  0
    7.1689    1.6177   -2.3726 C   0  0  2  0  0  0  0  0  0  0  0  0
    6.6628    2.9871   -1.8249 C   0  0  0  0  0  0  0  0  0  0  0  0
    7.1674    4.0745   -2.7818 C   0  0  0  0  0  0  0  0  0  0  0  0
    6.8319    5.4723   -2.3595 C   0  0  0  0  0  0  0  0  0  0  0  0
    7.3814    5.7196   -0.9687 C   0  0  0  0  0  0  0  0  0  0  0  0
    6.7873    4.7374    0.0350 C   0  0  0  0  0  0  0  0  0  0  0  0
    7.0660    3.2851   -0.3601 C   0  0  0  0  0  0  0  0  0  0  0  0
    6.7556    1.4270   -3.7456 O   0  0  0  0  0  0  0  0  0  0  0  0
  1  2  1  0
  2  3  1  0
  3  4  1  0
  3  6  1  0
  4  5  1  0
  6  7  1  0
  7  8  1  1
  7  9  1  0
  9 10  1  0
 10 11  2  0
 12 10  1  6
 12 13  1  0
 12 17  1  0
 13 14  1  0
 14 15  1  0
 15 16  1  0
 16 17  1  0
 17 24  1  6
 17 18  1  0
 18 19  1  0
 18 23  1  0
 19 20  1  0
 20 21  1  0
 21 22  1  0
 22 23  1  0
M  END
>  <DRUGBANK_ID>  (1) 
DB13581

>  <COMMON_NAME>  (1) 
Rociverine

>  <CAS_NUMBER>  (1) 
53716-44-2

>  <UNII>  (1) 
VI08KS44V0

>  <SYNONYMS>  (1) 
Rociverine

$$$$
