
     RDKit          3D

 10  9  0  0  0  0  0  0  0  0999 V2000
    1.0100    0.1937   -0.0335 O   0  0  0  0  0  0  0  0  0  0  0  0
    0.4266    1.2230   -0.6985 C   0  0  0  0  0  0  0  0  0  0  0  0
    1.1106    2.0677   -1.2560 O   0  0  0  0  0  0  0  0  0  0  0  0
   -1.1039    1.1297   -0.7479 C   0  0  0  0  0  0  0  0  0  0  0  0
   -1.6020   -0.1748   -1.3660 N   0  0  0  0  0  0  0  0  0  0  0  0
   -1.2068   -1.4153   -0.5373 C   0  0  0  0  0  0  0  0  0  0  0  0
   -1.8168   -1.3974    1.1879 P   0  0  0  0  0  0  0  0  0  0  0  0
   -1.0092   -2.8152    1.3226 O   0  0  0  0  0  0  0  0  0  0  0  0
   -0.6655   -0.3218    1.6123 O   0  0  0  0  0  0  0  0  0  0  0  0
   -2.3329   -1.3823    2.6477 O   0  0  0  0  0  0  0  0  0  0  0  0
  1  2  1  0
  2  3  2  0
  2  4  1  0
  4  5  1  0
  5  6  1  0
  6  7  1  0
  7  8  1  0
  7  9  1  0
  7 10  2  0
M  CHG  1   5   1
M  END
>  <DRUGBANK_ID>  (1) 
DB04539

>  <SECONDARY_ACCESSION_NUMBERS>  (1) 
EXPT01639

>  <COMMON_NAME>  (1) 
Glyphosate

>  <CAS_NUMBER>  (1) 
1071-83-6

>  <UNII>  (1) 
4632WW1X5A

$$$$
