
     RDKit          3D

 18 19  0  0  1  0  0  0  0  0999 V2000
   -4.8073    6.2637   -2.1406 N   0  0  0  0  0  0  0  0  0  0  0  0
   -4.2128    5.2308   -2.8123 C   0  0  0  0  0  0  0  0  0  0  0  0
   -4.3124    4.0213   -2.3604 N   0  0  0  0  0  0  0  0  0  0  0  0
   -3.6191    3.0043   -2.9815 C   0  0  0  0  0  0  0  0  0  0  0  0
   -3.8549    1.8306   -2.6856 O   0  0  0  0  0  0  0  0  0  0  0  0
   -2.6111    3.3376   -3.9067 N   0  0  0  0  0  0  0  0  0  0  0  0
   -2.4831    4.6547   -4.3049 C   0  0  0  0  0  0  0  0  0  0  0  0
   -3.3716    5.5810   -3.9615 C   0  0  0  0  0  0  0  0  0  0  0  0
   -1.7268    2.2575   -4.4201 C   0  0  1  0  0  0  0  0  0  0  0  0
   -2.4587    1.0876   -5.1703 C   0  0  2  0  0  0  0  0  0  0  0  0
   -2.8212   -0.0224   -4.3493 O   0  0  0  0  0  0  0  0  0  0  0  0
   -1.4780    0.6257   -6.2864 C   0  0  2  0  0  0  0  0  0  0  0  0
   -0.6612   -0.4628   -5.8587 O   0  0  0  0  0  0  0  0  0  0  0  0
   -0.6234    1.8261   -6.5074 C   0  0  0  0  0  0  0  0  0  0  0  0
    0.2247    2.0319   -7.7110 C   0  0  0  0  0  0  0  0  0  0  0  0
    1.2279    1.0383   -7.7891 O   0  0  0  0  0  0  0  0  0  0  0  0
   -0.7533    2.6868   -5.4941 C   0  0  0  0  0  0  0  0  0  0  0  0
   -0.0178    3.8137   -5.4638 F   0  0  0  0  0  0  0  0  0  0  0  0
  1  2  1  0
  2  3  2  0
  2  8  1  0
  3  4  1  0
  4  5  2  0
  4  6  1  0
  6  7  1  0
  7  8  2  0
  9 17  1  0
  9  6  1  6
 10  9  1  0
 10 11  1  1
 10 12  1  0
 12 13  1  1
 12 14  1  0
 14 15  1  0
 14 17  2  0
 15 16  1  0
 17 18  1  0
M  END
>  <DRUGBANK_ID>  (1) 
DB16168

>  <COMMON_NAME>  (1) 
Fluorocyclopentenylcytosine

>  <CAS_NUMBER>  (1) 
865838-26-2

>  <UNII>  (1) 
0Z4A82I0JO

>  <SYNONYMS>  (1) 
4-amino-1-[(1S,4R,5S)-2-fluoro-4,5-dihydroxy-3-(hydroxymethyl) cyclopent-2-en-1-yl] pyrimidin-2-one; Fluorocyclopentenylcytosine; Roducitabine

$$$$
