
     RDKit          3D

 30 35  0  0  1  0  0  0  0  0999 V2000
   -1.9621    0.2267    0.6611 C   0  0  2  0  0  0  0  0  0  0  0  0
   -2.1492   -0.8923   -0.2537 C   0  0  0  0  0  0  0  0  0  0  0  0
   -3.6706   -1.0360   -0.2720 C   0  0  2  0  0  0  0  0  0  0  0  0
   -4.8523   -0.4298   -1.0536 C   0  0  1  0  0  0  0  0  0  0  0  0
   -4.7079    1.0418   -1.1036 C   0  0  0  0  0  0  0  0  0  0  0  0
   -3.6054    1.6539   -2.0095 C   0  0  0  0  0  0  0  0  0  0  0  0
   -3.8701    1.3571   -3.4644 C   0  0  1  0  0  0  0  0  0  0  0  0
   -2.5949    1.8078   -4.3332 C   0  0  0  0  0  0  0  0  0  0  0  0
   -2.7577    1.2890   -5.7462 C   0  0  1  0  0  0  0  0  0  0  0  0
   -1.5374    1.5540   -6.4571 O   0  0  0  0  0  0  0  0  0  0  0  0
   -3.0119   -0.2413   -5.7939 C   0  0  0  0  0  0  0  0  0  0  0  0
   -4.0079   -0.9207   -4.8223 C   0  0  0  0  0  0  0  0  0  0  0  0
   -4.0712   -0.2658   -3.4814 C   0  0  1  0  0  0  0  0  0  0  0  0
   -2.6775   -0.5712   -3.0285 C   0  0  0  0  0  0  0  0  0  0  0  0
   -5.1535   -1.0725   -2.3079 C   0  0  1  0  0  0  0  0  0  0  0  0
   -5.1601   -2.6091   -1.3872 C   0  0  0  0  0  0  0  0  0  0  0  0
   -4.7349   -2.6192    0.4774 C   0  0  0  0  0  0  0  0  0  0  0  0
   -4.2337   -1.1301    1.1211 C   0  0  2  0  0  0  0  0  0  0  0  0
   -5.5352   -0.5301    1.7177 C   0  0  0  0  0  0  0  0  0  0  0  0
   -2.9546   -0.1773    1.7758 C   0  0  2  0  0  0  0  0  0  0  0  0
   -3.0864    1.3740    2.2792 C   0  0  2  0  0  0  0  0  0  0  0  0
   -3.9445    1.8031    3.4477 C   0  0  0  0  0  0  0  0  0  0  0  0
   -3.1426    2.3582    1.0379 C   0  0  2  0  0  0  0  0  0  0  0  0
   -2.5187    3.7529    1.1358 C   0  0  0  0  0  0  0  0  0  0  0  0
   -2.7269    4.5767   -0.1767 C   0  0  0  0  0  0  0  0  0  0  0  0
   -4.1477    4.7178   -0.7952 C   0  0  2  0  0  0  0  0  0  0  0  0
   -5.2904    5.7272   -0.7208 C   0  0  0  0  0  0  0  0  0  0  0  0
   -4.9360    3.4870   -0.4863 C   0  0  0  0  0  0  0  0  0  0  0  0
   -4.5393    2.7376    0.6892 O   0  0  0  0  0  0  0  0  0  0  0  0
   -2.2763    1.5596    0.1721 O   0  0  0  0  0  0  0  0  0  0  0  0
  1  2  1  6
  1 30  1  0
  3  2  1  1
  3  4  1  0
  4  5  1  6
  4 15  1  0
  5  6  1  0
  7  6  1  1
  7  8  1  0
  9  8  1  0
  9 11  1  0
  9 10  1  6
 11 12  1  0
 13 12  1  0
 13  7  1  0
 13 14  1  1
 15 13  1  0
 15 16  1  1
 16 17  1  0
 18 17  1  0
 18  3  1  0
 18 19  1  6
 20 18  1  0
 20  1  1  6
 20 21  1  0
 21 23  1  0
 21 22  1  6
 23 24  1  1
 23 29  1  0
 23 30  1  0
 24 25  1  0
 26 25  1  0
 26 28  1  0
 26 27  1  1
 28 29  1  0
M  END
>  <DRUGBANK_ID>  (1) 
DB16928

>  <COMMON_NAME>  (1) 
Sarsagenin

>  <CAS_NUMBER>  (1) 
126-19-2

>  <UNII>  (1) 
CFS802C28F

>  <SYNONYMS>  (1) 
(3.beta.,5.beta.,25s)-spirostan-3-ol; Myogane; NSC 1615; NSC-1615; Parigenin; Pure sarsasapogenin; Sarsasapogenin; Spirostan-3-ol, (3.beta.,5.beta.,25s)-

$$$$
