27A
     RDKit          3D

 19 20  0  0  0  0  0  0  0  0999 V2000
   -8.1756    2.6375    1.9520 C   0  0  0  0  0  0  0  0  0  0  0  0
   -7.2690    3.5032    2.5714 C   0  0  0  0  0  0  0  0  0  0  0  0
   -5.9074    3.5752    2.2030 C   0  0  0  0  0  0  0  0  0  0  0  0
   -5.4712    2.6792    1.1655 C   0  0  0  0  0  0  0  0  0  0  0  0
   -6.4015    1.7707    0.5980 C   0  0  0  0  0  0  0  0  0  0  0  0
   -7.7448    1.7816    0.9520 C   0  0  0  0  0  0  0  0  0  0  0  0
   -5.0134    4.2087    4.4961 C   0  0  0  0  0  0  0  0  0  0  0  0
   -4.8105    5.4843    5.2768 C   0  0  0  0  0  0  0  0  0  0  0  0
   -3.8454    6.5055    3.3247 C   0  0  0  0  0  0  0  0  0  0  0  0
   -4.0067    5.2397    2.4534 C   0  0  0  0  0  0  0  0  0  0  0  0
   -3.3820    7.3644    5.5499 C   0  0  0  0  0  0  0  0  0  0  0  0
   -4.0397    2.4760    0.6583 C   0  0  0  0  0  0  0  0  0  0  0  0
   -3.4596    0.9168    3.1822 C   0  0  0  0  0  0  0  0  0  0  0  0
   -3.7651    2.1649    3.4106 N   0  0  0  0  0  0  0  0  0  0  0  0
   -3.5571    0.0220    4.5955 S   0  0  0  0  0  0  0  0  0  0  0  0
   -3.1326    0.5195    1.9129 N   0  0  0  0  0  0  0  0  0  0  0  0
   -3.4386    1.1266    0.8533 N   0  0  0  0  0  0  0  0  0  0  0  0
   -5.1003    4.4099    2.9920 N   0  0  0  0  0  0  0  0  0  0  0  0
   -3.6186    6.1784    4.7510 N   0  0  0  0  0  0  0  0  0  0  0  0
  1  2  2  0
  1  6  1  0
  2  3  1  0
  3  4  2  0
  3 18  1  0
  4  5  1  0
  4 12  1  0
  5  6  2  0
  7  8  1  0
  7 18  1  0
  8 19  1  0
  9 10  1  0
  9 19  1  0
 10 18  1  0
 11 19  1  0
 12 17  1  0
 13 14  1  0
 13 15  2  0
 13 16  1  0
 16 17  2  0
M  END
>  <DRUGBANK_ID>  (1) 
DB06941

>  <COMMON_NAME>  (1) 
(Z)-2-[2-(4-methylpiperazin-1-yl)benzyl]diazenecarbothioamide

$$$$
