
     RDKit          3D

 36 38  0  0  0  0  0  0  0  0999 V2000
    2.3467   -0.6875    0.8074 C   0  0  0  0  0  0  0  0  0  0  0  0
    1.4780    0.8979    1.4385 N   0  0  0  0  0  0  0  0  0  0  0  0
    2.0434    2.6275    0.7617 C   0  0  0  0  0  0  0  0  0  0  0  0
    1.0030    3.9298    0.7360 C   0  0  0  0  0  0  0  0  0  0  0  0
   -0.4876    4.0774    1.4157 C   0  0  0  0  0  0  0  0  0  0  0  0
   -0.8938    5.1521    1.8610 O   0  0  0  0  0  0  0  0  0  0  0  0
   -1.1175    2.7066    1.9292 N   0  0  0  0  0  0  0  0  0  0  0  0
   -0.4991    0.9599    2.1752 C   0  0  0  0  0  0  0  0  0  0  0  0
   -1.2037    0.3093    2.9418 O   0  0  0  0  0  0  0  0  0  0  0  0
   -2.1501    2.8420    2.9154 C   0  0  0  0  0  0  0  0  0  0  0  0
    1.6057    4.7495   -0.1843 N   0  0  0  0  0  0  0  0  0  0  0  0
    2.6322    4.1011   -0.8248 C   0  0  0  0  0  0  0  0  0  0  0  0
    2.9890    2.9529   -0.2352 N   0  0  0  0  0  0  0  0  0  0  0  0
    1.4586    6.1721   -0.1051 C   0  0  0  0  0  0  0  0  0  0  0  0
    0.0782    6.6208   -0.4793 C   0  0  0  0  0  0  0  0  0  0  0  0
   -0.6571    7.2484    0.2652 O   0  0  0  0  0  0  0  0  0  0  0  0
   -0.2964    6.2874   -1.7379 O   0  0  0  0  0  0  0  0  0  0  0  0
   -0.1635   -0.6913   -0.5631 C   0  0  0  0  0  0  0  0  0  0  0  0
   -0.2506    1.0862    0.4326 N   0  0  0  0  0  0  0  0  0  0  0  0
   -1.3272    1.5983   -0.4250 C   0  0  0  0  0  0  0  0  0  0  0  0
    0.6825    2.2058    2.0926 C   0  0  0  0  0  0  0  0  0  0  0  0
    0.8361    0.9216    3.5387 C   0  0  0  0  0  0  0  0  0  0  0  0
    1.0567   -0.4609    2.9318 O   0  0  0  0  0  0  0  0  0  0  0  0
    0.4778   -0.6170    1.1983 C   0  0  0  0  0  0  0  0  0  0  0  0
   -1.3642   -1.1564    1.4001 C   0  0  0  0  0  0  0  0  0  0  0  0
   -2.5300   -0.0745    1.3406 C   0  0  0  0  0  0  0  0  0  0  0  0
   -3.8133    0.0837    1.1326 C   0  0  0  0  0  0  0  0  0  0  0  0
   -4.1671   -1.1785    1.1347 C   0  0  0  0  0  0  0  0  0  0  0  0
   -3.2524   -2.3596    1.1541 C   0  0  0  0  0  0  0  0  0  0  0  0
   -1.8396   -2.3924    1.2197 C   0  0  0  0  0  0  0  0  0  0  0  0
    1.4224    0.5276   -0.4560 C   0  0  0  0  0  0  0  0  0  0  0  0
    2.1193   -0.1795   -1.6884 C   0  0  0  0  0  0  0  0  0  0  0  0
    2.0039    0.4927   -2.8544 C   0  0  0  0  0  0  0  0  0  0  0  0
    1.4470    1.7865   -2.8459 C   0  0  0  0  0  0  0  0  0  0  0  0
    0.5620    2.2968   -2.0256 C   0  0  0  0  0  0  0  0  0  0  0  0
    0.9806    1.8078   -0.9197 C   0  0  0  0  0  0  0  0  0  0  0  0
  1  2  1  0
  2  3  1  0
  2  8  1  0
  3  4  2  0
  3 13  1  0
  4  5  1  0
  4 11  1  0
  5  6  2  0
  5  7  1  0
  7  8  1  0
  7 10  1  0
  8  9  2  0
 11 12  1  0
 11 14  1  0
 12 13  2  0
 14 15  1  0
 15 16  2  0
 15 17  1  0
 18 19  1  0
 19 20  1  0
 19 21  1  0
 21 22  1  0
 22 23  1  0
 23 24  1  0
 24 25  1  0
 24 31  1  0
 25 26  2  0
 25 30  1  0
 26 27  1  0
 27 28  2  0
 28 29  1  0
 29 30  2  0
 31 32  2  0
 31 36  1  0
 32 33  1  0
 33 34  2  0
 34 35  1  0
 35 36  2  0
M  END
>  <DRUGBANK_ID>  (1) 
DB13636

>  <COMMON_NAME>  (1) 
Etanautine

>  <CAS_NUMBER>  (1) 
857401-00-4

>  <UNII>  (1) 
97H5S09M4T

$$$$
