
     RDKit          3D

 27 29  0  0  0  0  0  0  0  0999 V2000
   -1.2341    0.4691   -0.1673 O   0  0  0  0  0  0  0  0  0  0  0  0
    0.0493    0.9795   -0.0882 N   0  0  0  0  0  0  0  0  0  0  0  0
    0.8461   -0.0932   -0.0298 C   0  0  0  0  0  0  0  0  0  0  0  0
    2.3082    0.0475    0.0043 C   0  0  0  0  0  0  0  0  0  0  0  0
    0.1160   -1.2922   -0.0226 C   0  0  0  0  0  0  0  0  0  0  0  0
   -1.1835   -0.8871   -0.0704 C   0  0  0  0  0  0  0  0  0  0  0  0
   -2.4441   -1.6372    0.0349 C   0  0  0  0  0  0  0  0  0  0  0  0
   -3.1436   -1.2939    1.3576 C   0  0  0  0  0  0  0  0  0  0  0  0
   -3.6083    0.1741    1.4137 C   0  0  0  0  0  0  0  0  0  0  0  0
   -4.4394    0.4736    0.1931 C   0  0  0  0  0  0  0  0  0  0  0  0
   -5.5957   -0.5034    0.2295 C   0  0  0  0  0  0  0  0  0  0  0  0
   -6.7157   -0.0901    1.1768 C   0  0  0  0  0  0  0  0  0  0  0  0
   -7.1788    1.3641    1.0297 C   0  0  0  0  0  0  0  0  0  0  0  0
   -8.0269    1.6812   -0.1035 O   0  0  0  0  0  0  0  0  0  0  0  0
   -7.5672    1.4639   -1.3734 C   0  0  0  0  0  0  0  0  0  0  0  0
   -7.3374    0.1910   -1.8706 C   0  0  0  0  0  0  0  0  0  0  0  0
   -6.5420   -0.0055   -3.0131 C   0  0  0  0  0  0  0  0  0  0  0  0
   -6.4073    1.0322   -3.9052 C   0  0  0  0  0  0  0  0  0  0  0  0
   -7.0152    2.2508   -3.5968 C   0  0  0  0  0  0  0  0  0  0  0  0
   -7.5027    2.4957   -2.2944 C   0  0  0  0  0  0  0  0  0  0  0  0
   -5.6604    0.8664   -5.1683 C   0  0  0  0  0  0  0  0  0  0  0  0
   -4.8234    1.7019   -5.6570 N   0  0  0  0  0  0  0  0  0  0  0  0
   -4.5292    1.1464   -6.9931 C   0  0  1  0  0  0  0  0  0  0  0  0
   -3.0424    1.2331   -7.3218 C   0  0  0  0  0  0  0  0  0  0  0  0
   -2.7629    0.7345   -8.7332 C   0  0  0  0  0  0  0  0  0  0  0  0
   -5.0625   -0.2743   -6.9463 C   0  0  0  0  0  0  0  0  0  0  0  0
   -5.9570   -0.2817   -5.8390 O   0  0  0  0  0  0  0  0  0  0  0  0
  2  1  1  0
  3  2  2  0
  3  4  1  0
  3  5  1  0
  5  6  2  0
  6  1  1  0
  7  6  1  0
  7  8  1  0
  8  9  1  0
  9 10  1  0
 10 11  1  0
 11 12  1  0
 12 13  1  0
 13 14  1  0
 15 14  1  0
 15 16  2  0
 15 20  1  0
 16 17  1  0
 17 18  2  0
 18 19  1  0
 19 20  2  0
 21 18  1  0
 21 22  2  0
 21 27  1  0
 23 22  1  0
 23 24  1  1
 23 26  1  0
 24 25  1  0
 26 27  1  0
M  END
>  <DRUGBANK_ID>  (1) 
DB08725

>  <COMMON_NAME>  (1) 
(S)-5-(7-(4-(4-Ethyl-4,5-dihydro-2-oxazolyl)phenoxy)heptyl)-3-methylisoxazole

>  <CAS_NUMBER>  (1) 
112270-39-0

$$$$
