
     RDKit          3D

  9  8  0  0  1  0  0  0  0  0999 V2000
   -0.3816    2.0404    9.6154 S   0  0  0  0  0  0  0  0  0  0  0  0
    0.4554    2.9070    8.3688 C   0  0  0  0  0  0  0  0  0  0  0  0
    0.0458    2.8634    7.0949 C   0  0  0  0  0  0  0  0  0  0  0  0
    0.6932    3.5169    5.9170 C   0  0  0  0  0  0  0  0  0  0  0  0
    1.3741    2.4276    4.6245 S   0  0  0  0  0  0  0  0  0  0  0  0
    0.8433    2.8798    3.2950 O   0  0  0  0  0  0  0  0  0  0  0  0
    0.6780    0.7956    5.0056 C   0  0  0  0  0  0  0  0  0  0  0  0
   -0.8121    0.6860    4.8681 C   0  0  0  0  0  0  0  0  0  0  0  0
   -1.4677   -0.1398    4.0423 C   0  0  0  0  0  0  0  0  0  0  0  0
  1  2  1  0
  2  3  2  0
  3  4  1  0
  5  7  1  0
  5  6  2  0
  5  4  1  0
  7  8  1  0
  8  9  2  0
M  END
>  <DRUGBANK_ID>  (1) 
DB02895

>  <SECONDARY_ACCESSION_NUMBERS>  (1) 
EXPT00480

>  <COMMON_NAME>  (1) 
3-(Prop-2-Ene-1-Sulfinyl)-Propene-1-Thiol

$$$$
