
     RDKit          3D

 36 39  0  0  1  0  0  0  0  0999 V2000
    2.4360   -0.6925   -0.0207 C   0  0  0  0  0  0  0  0  0  0  0  0
    2.4404    0.7005   -0.0093 C   0  0  0  0  0  0  0  0  0  0  0  0
   -6.9995    8.2659    2.4875 C   0  0  0  0  0  0  0  0  0  0  0  0
   -5.8788    7.9084    3.4615 C   0  0  0  0  0  0  0  0  0  0  0  0
   -6.0963   -0.7146    3.7180 C   0  0  0  0  0  0  0  0  0  0  0  0
   -6.0939    0.0647    2.5771 C   0  0  0  0  0  0  0  0  0  0  0  0
    1.2291   -1.3912    0.0096 C   0  0  0  0  0  0  0  0  0  0  0  0
    1.2394    1.4043    0.0243 C   0  0  0  0  0  0  0  0  0  0  0  0
   -6.5088   -0.1666    4.9322 C   0  0  0  0  0  0  0  0  0  0  0  0
   -7.6945    7.0190    2.0052 C   0  0  0  0  0  0  0  0  0  0  0  0
   -1.2079   -1.3870    0.0265 C   0  0  0  0  0  0  0  0  0  0  0  0
   -2.3993   -0.6758    0.0047 C   0  0  0  0  0  0  0  0  0  0  0  0
   -4.9474    6.8258    2.8977 C   0  0  0  0  0  0  0  0  0  0  0  0
   -6.9188    1.9346    3.8528 C   0  0  0  0  0  0  0  0  0  0  0  0
   -6.4129    2.2707    1.4350 C   0  0  0  0  0  0  0  0  0  0  0  0
   -1.1749    1.4294    0.0018 C   0  0  0  0  0  0  0  0  0  0  0  0
   -6.4592    1.4035    2.6476 C   0  0  0  0  0  0  0  0  0  0  0  0
    0.0123   -0.7001    0.0245 C   0  0  0  0  0  0  0  0  0  0  0  0
    0.0230    0.7200    0.0230 C   0  0  0  0  0  0  0  0  0  0  0  0
   -6.9963    1.1454    4.9935 C   0  0  0  0  0  0  0  0  0  0  0  0
   -2.3662    0.7253   -0.0133 C   0  0  0  0  0  0  0  0  0  0  0  0
   -5.2562    3.2976    1.4058 C   0  0  1  0  0  0  0  0  0  0  0  0
   -6.7239    5.9966    1.4014 C   0  0  2  0  0  0  0  0  0  0  0  0
   -7.6947    1.6951    6.1975 C   0  0  0  0  0  0  0  0  0  0  0  0
   -5.2035    4.3480    2.5922 C   0  0  0  0  0  0  0  0  0  0  0  0
   -7.6673    4.8802    1.0208 C   0  0  0  0  0  0  0  0  0  0  0  0
   -7.9022    0.9939    7.2675 N   0  0  0  0  0  0  0  0  0  0  0  0
   -8.2184    2.9502    6.2096 N   0  0  0  0  0  0  0  0  0  0  0  0
   -3.9812    2.4918    1.3059 N   0  0  0  0  0  0  0  0  0  0  0  0
   -5.6864    5.6523    2.3802 N   0  0  0  0  0  0  0  0  0  0  0  0
   -4.7524    4.0434    3.7015 O   0  0  0  0  0  0  0  0  0  0  0  0
   -7.7400    4.3774   -0.0893 O   0  0  0  0  0  0  0  0  0  0  0  0
   -8.3370    4.3936    2.0999 O   0  0  0  0  0  0  0  0  0  0  0  0
   -3.7598    2.5723   -1.2379 O   0  0  0  0  0  0  0  0  0  0  0  0
   -4.8739    0.5774   -0.2092 O   0  0  0  0  0  0  0  0  0  0  0  0
   -3.8688    1.6056   -0.1608 S   0  0  0  0  0  0  0  0  0  0  0  0
  2  1  2  0
  4  3  1  0
  6  5  2  0
  7  1  1  0
  8  2  1  0
  9  5  1  0
 10  3  1  0
 12 11  2  0
 13  4  1  0
 17  6  1  0
 17 14  2  0
 17 15  1  0
 18  7  2  0
 18 11  1  0
 19  8  2  0
 19 16  1  0
 19 18  1  0
 20  9  2  0
 20 14  1  0
 21 12  1  0
 21 16  2  0
 22 15  1  1
 22 29  1  0
 23 10  1  0
 23 26  1  1
 24 20  1  0
 25 22  1  0
 27 24  2  0
 28 24  1  0
 30 13  1  0
 30 23  1  0
 30 25  1  0
 31 25  2  0
 32 26  2  0
 33 26  1  0
 36 21  1  0
 36 29  1  0
 36 34  2  0
 36 35  2  0
M  END
>  <DRUGBANK_ID>  (1) 
DB04238

>  <SECONDARY_ACCESSION_NUMBERS>  (1) 
EXPT01409

>  <COMMON_NAME>  (1) 
N-Alpha-(2-Naphthylsulfonyl)-N-(3-Amidino-L-Phenylalaninyl)-D-Pipecolinic Acid

$$$$
