885
     RDKit          3D

 17 19  0  0  0  0  0  0  0  0999 V2000
    0.9347   -0.0445    0.1028 O   0  0  0  0  0  0  0  0  0  0  0  0
    2.9633   -1.1488    0.2323 N   0  0  0  0  0  0  0  0  0  0  0  0
    4.9867    0.0854    0.0918 N   0  0  0  0  0  0  0  0  0  0  0  0
    1.2845    2.9249    0.9418 N   0  0  0  0  0  0  0  0  0  0  0  0
    2.2701    3.3348   -1.0531 N   0  0  0  0  0  0  0  0  0  0  0  0
    0.8640    4.0478    0.3484 N   0  0  0  0  0  0  0  0  0  0  0  0
    1.4357    4.3414   -0.8263 N   0  0  0  0  0  0  0  0  0  0  0  0
    4.3525   -1.0453    0.1779 C   0  0  0  0  0  0  0  0  0  0  0  0
    5.1203   -2.3338    0.2228 C   0  0  0  0  0  0  0  0  0  0  0  0
    2.1699   -0.0087    0.1647 C   0  0  0  0  0  0  0  0  0  0  0  0
    2.8952    1.2794    0.0658 C   0  0  0  0  0  0  0  0  0  0  0  0
    2.3350   -2.3867    0.1446 C   0  0  0  0  0  0  0  0  0  0  0  0
    4.4579   -3.4841    0.0289 C   0  0  0  0  0  0  0  0  0  0  0  0
    4.2330    1.2237    0.0253 C   0  0  0  0  0  0  0  0  0  0  0  0
    3.0279   -3.5025   -0.0975 C   0  0  0  0  0  0  0  0  0  0  0  0
    6.5815   -2.2736    0.5187 C   0  0  0  0  0  0  0  0  0  0  0  0
    2.1403    2.4758    0.0110 C   0  0  0  0  0  0  0  0  0  0  0  0
  1 10  2  0
  2  8  1  0
  2 10  1  0
  2 12  1  0
  3  8  2  0
  3 14  1  0
  4  6  1  0
  4 17  2  0
  5  7  2  0
  5 17  1  0
  6  7  1  0
  8  9  1  0
  9 13  2  0
  9 16  1  0
 10 11  1  0
 11 14  2  0
 11 17  1  0
 12 15  2  0
 13 15  1  0
M  END
>  <DRUGBANK_ID>  (1) 
DB00885

>  <SECONDARY_ACCESSION_NUMBERS>  (1) 
APRD00394

>  <COMMON_NAME>  (1) 
Pemirolast

>  <CAS_NUMBER>  (1) 
69372-19-6

>  <UNII>  (1) 
2C09NV773M

>  <SYNONYMS>  (1) 
Pemirolast; Pemirolastum

$$$$
