
     RDKit          3D

  9  9  0  0  0  0  0  0  0  0999 V2000
    0.9293    0.1600    0.0131 C   0  0  0  0  0  0  0  0  0  0  0  0
    0.4911   -0.7254   -1.1167 C   0  0  0  0  0  0  0  0  0  0  0  0
    0.8868   -2.0705   -1.1741 C   0  0  0  0  0  0  0  0  0  0  0  0
    1.8779   -2.5730   -0.3141 N   0  0  0  0  0  0  0  0  0  0  0  0
    0.4428   -2.8639   -2.2414 C   0  0  0  0  0  0  0  0  0  0  0  0
   -0.5138   -2.3834   -3.1405 C   0  0  0  0  0  0  0  0  0  0  0  0
   -0.8935   -1.0505   -3.0938 C   0  0  0  0  0  0  0  0  0  0  0  0
   -0.3635   -0.2213   -2.1084 C   0  0  0  0  0  0  0  0  0  0  0  0
   -0.6863    1.0772   -2.1232 F   0  0  0  0  0  0  0  0  0  0  0  0
  1  2  1  0
  2  3  2  0
  2  8  1  0
  3  4  1  0
  3  5  1  0
  5  6  2  0
  6  7  1  0
  7  8  2  0
  8  9  1  0
M  END
>  <DRUGBANK_ID>  (1) 
DB01986

>  <SECONDARY_ACCESSION_NUMBERS>  (1) 
EXPT01445

>  <COMMON_NAME>  (1) 
3-Fluoro-2-Methyl-Aniline

>  <UNII>  (1) 
W95WMY5PM6

$$$$
