
     RDKit          3D

 30 31  0  0  0  0  0  0  0  0999 V2000
    2.4958    0.3943   -0.0668 Cl  0  0  0  0  0  0  0  0  0  0  0  0
   -5.4888   -2.6840    1.2211 F   0  0  0  0  0  0  0  0  0  0  0  0
   -4.5720   -4.6501    1.2004 F   0  0  0  0  0  0  0  0  0  0  0  0
   -2.5723    1.1711   -0.1155 F   0  0  0  0  0  0  0  0  0  0  0  0
    1.9048    3.2641    1.2536 O   0  0  0  0  0  0  0  0  0  0  0  0
   -0.4084    0.6648    4.8358 O   0  0  0  0  0  0  0  0  0  0  0  0
   -3.1253   -1.5328   -0.1721 N   0  0  0  0  0  0  0  0  0  0  0  0
    0.1975    2.5851    2.5251 N   0  0  0  0  0  0  0  0  0  0  0  0
    0.8819    1.2116    4.9024 N   0  0  0  0  0  0  0  0  0  0  0  0
    0.5823    1.1043    7.2404 N   0  0  0  0  0  0  0  0  0  0  0  0
    2.4607    1.9703    6.3493 N   0  0  0  0  0  0  0  0  0  0  0  0
   -3.5029   -2.9513   -0.0137 C   0  0  0  0  0  0  0  0  0  0  0  0
   -4.2728   -3.3143    1.2730 C   0  0  0  0  0  0  0  0  0  0  0  0
   -1.8183   -1.0688   -0.0779 C   0  0  0  0  0  0  0  0  0  0  0  0
   -0.2186    0.8340   -0.0561 C   0  0  0  0  0  0  0  0  0  0  0  0
   -1.5335    0.3137   -0.1126 C   0  0  0  0  0  0  0  0  0  0  0  0
   -3.5426   -2.9782    2.5523 C   0  0  0  0  0  0  0  0  0  0  0  0
    0.0174    2.3289    0.0560 C   0  0  0  0  0  0  0  0  0  0  0  0
   -0.7210   -1.9274   -0.0323 C   0  0  0  0  0  0  0  0  0  0  0  0
    0.8394   -0.0803   -0.0506 C   0  0  0  0  0  0  0  0  0  0  0  0
    0.5856   -1.4464   -0.0286 C   0  0  0  0  0  0  0  0  0  0  0  0
    0.7824    2.7447    1.3099 C   0  0  0  0  0  0  0  0  0  0  0  0
   -3.5821   -1.6637    3.0216 C   0  0  0  0  0  0  0  0  0  0  0  0
   -2.9287   -3.9589    3.3456 C   0  0  0  0  0  0  0  0  0  0  0  0
   -1.0279    1.8952    2.8230 C   0  0  0  0  0  0  0  0  0  0  0  0
   -3.0979   -1.3563    4.2891 C   0  0  0  0  0  0  0  0  0  0  0  0
   -2.3805   -3.6233    4.5872 C   0  0  0  0  0  0  0  0  0  0  0  0
   -2.4228   -2.3096    5.0361 C   0  0  0  0  0  0  0  0  0  0  0  0
   -0.7511    0.5492    3.4556 C   0  0  0  0  0  0  0  0  0  0  0  0
    1.2693    1.3957    6.1217 C   0  0  0  0  0  0  0  0  0  0  0  0
  1 20  1  0
  2 13  1  0
  3 13  1  0
  4 16  1  0
  5 22  2  0
  6  9  1  0
  6 29  1  0
  7 12  1  0
  7 14  1  0
  8 22  1  0
  8 25  1  0
  9 30  2  3
 10 30  1  0
 11 30  1  0
 12 13  1  0
 13 17  1  0
 14 16  1  0
 14 19  2  0
 15 16  2  0
 15 18  1  0
 15 20  1  0
 17 23  2  0
 17 24  1  0
 18 22  1  0
 19 21  1  0
 20 21  2  0
 23 26  1  0
 24 27  2  0
 25 29  1  0
 26 28  2  0
 27 28  1  0
M  END
>  <DRUGBANK_ID>  (1) 
DB07946

>  <COMMON_NAME>  (1) 
N-[2-({[amino(imino)methyl]amino}oxy)ethyl]-2-{6-chloro-3-[(2,2-difluoro-2-phenylethyl)amino]-2-fluorophenyl}acetamide

$$$$
