
     RDKit          3D

 10  4  0  0  0  0  0  0  0  0999 V2000
    0.9955    0.0690   -0.0723 C   0  0  0  0  0  0  0  0  0  0  0  0
    0.4888    0.8206    1.1479 C   0  0  0  0  0  0  0  0  0  0  0  0
    0.5055    0.7275   -1.2917 N   0  0  0  0  0  0  0  0  0  0  0  0
   -0.2419    1.8501    1.0019 O   0  0  0  0  0  0  0  0  0  0  0  0
    0.8318    0.3724    2.4509 O   0  0  0  0  0  0  0  0  0  0  0  0
    1.0485    0.0874    0.0032 Al  0  0  0  0  0 15  0  0  0  0  0  0
    1.0113   -0.0700   -0.0705 Cl  0  0  0  0  0  0  0  0  0  0  0  0
    0.9349   -0.0645   -0.0400 O   0  0  0  0  0  0  0  0  0  0  0  0
    1.0723    0.0186    0.0665 O   0  0  0  0  0  0  0  0  0  0  0  0
    1.0861    0.0298   -0.0412 Zr  0  0  0  0  0 15  0  0  0  0  0  0
  2  1  1  0
  3  1  1  0
  4  2  2  0
  5  2  1  0
M  CHG  4   5  -1   6   3   7  -1  10   4
M  END
>  <DRUGBANK_ID>  (1) 
DB11200

>  <COMMON_NAME>  (1) 
Aluminum zirconium octachlorohydrex gly

>  <CAS_NUMBER>  (1) 
174514-58-0

>  <UNII>  (1) 
P9D3YP29MY

>  <SYNONYMS>  (1) 
Aluminium zirconium octachlorohydrex gly; Aluminium zirconium octachlorohydrex glycine complex; Aluminum zirconium octachlorohydrex gly; Aluminum zirconium octachlorohydrex glycine complex

$$$$
