W29
     RDKit          3D

 15 16  0  0  0  0  0  0  0  0999 V2000
    1.6931   -1.3259    0.0079 O   0  0  0  0  0  0  0  0  0  0  0  0
    0.4869   -0.6827   -0.0207 C   0  0  0  0  0  0  0  0  0  0  0  0
    0.4906    0.7119   -0.0192 C   0  0  0  0  0  0  0  0  0  0  0  0
    1.6727    1.3958    0.0048 O   0  0  0  0  0  0  0  0  0  0  0  0
   -0.6987    1.4307   -0.0294 C   0  0  0  0  0  0  0  0  0  0  0  0
   -0.7143   -1.3773   -0.0435 C   0  0  0  0  0  0  0  0  0  0  0  0
   -1.9152   -0.6594   -0.0722 C   0  0  0  0  0  0  0  0  0  0  0  0
   -1.9207    0.7496   -0.0565 C   0  0  0  0  0  0  0  0  0  0  0  0
   -3.1951    1.4769    0.0270 C   0  0  0  0  0  0  0  0  0  0  0  0
   -3.6203    2.6044   -1.1950 S   0  0  0  0  0  0  0  0  0  0  0  0
   -5.1035    2.9784   -0.4361 C   0  0  0  0  0  0  0  0  0  0  0  0
   -5.2797    2.2590    0.7220 C   0  0  0  0  0  0  0  0  0  0  0  0
   -4.1723    1.3913    1.0109 C   0  0  0  0  0  0  0  0  0  0  0  0
   -4.0963    0.5323    2.2420 C   0  0  0  0  0  0  0  0  0  0  0  0
   -4.1155    1.3585    3.5169 C   0  0  0  0  0  0  0  0  0  0  0  0
  2  1  1  0
  2  6  2  0
  3  2  1  0
  4  3  1  0
  5  3  2  0
  5  8  1  0
  7  6  1  0
  8  7  2  0
  9  8  1  0
  9 13  2  0
 10  9  1  0
 10 11  1  0
 11 12  2  0
 12 13  1  0
 13 14  1  0
 14 15  1  0
M  END
>  <DRUGBANK_ID>  (1) 
DB08718

>  <COMMON_NAME>  (1) 
4-(3-ethylthiophen-2-yl)benzene-1,2-diol

>  <UNII>  (1) 
W1GH0R824Z

$$$$
