[NO NAME]
     RDKit          3D

 22 25  0  0  1  0  0  0  0  0999 V2000
   -1.3991   10.5656   -2.9702 C   0  0  0  0  0  0  0  0  0  0  0  0
    0.2621    7.3380    0.2557 C   0  0  0  0  0  0  0  0  0  0  0  0
   -2.0426   10.5840   -0.5454 C   0  0  0  0  0  0  0  0  0  0  0  0
   -1.4985   12.0711   -2.8711 C   0  0  0  0  0  0  0  0  0  0  0  0
   -2.3747    9.1418   -1.4086 C   0  0  0  0  0  0  0  0  0  0  0  0
   -3.2562    6.2722   -1.1853 C   0  0  0  0  0  0  0  0  0  0  0  0
   -2.3451    5.3977   -2.8417 C   0  0  0  0  0  0  0  0  0  0  0  0
   -0.2274    8.4254   -0.7704 C   0  0  1  0  0  0  0  0  0  0  0  0
   -1.6558    8.0986   -0.6781 C   0  0  2  0  0  0  0  0  0  0  0  0
   -0.3579   11.3236   -0.9754 C   0  0  2  0  0  0  0  0  0  0  0  0
    1.1341   11.3012   -0.3507 C   0  0  0  0  0  0  0  0  0  0  0  0
   -0.2401    9.9415   -1.5159 C   0  0  2  0  0  0  0  0  0  0  0  0
   -1.8348    6.9217   -1.6187 C   0  0  2  0  0  0  0  0  0  0  0  0
   -0.6767    7.0558   -2.8976 C   0  0  0  0  0  0  0  0  0  0  0  0
   -3.2578    4.4864   -1.6044 C   0  0  0  0  0  0  0  0  0  0  0  0
   -1.9368    4.0872   -2.7591 C   0  0  0  0  0  0  0  0  0  0  0  0
   -1.2663    4.1866   -3.8121 O   0  0  0  0  0  0  0  0  0  0  0  0
   -1.2377    5.7878   -1.8407 C   0  0  0  0  0  0  0  0  0  0  0  0
   -0.0457    5.7202   -0.5261 C   0  0  0  0  0  0  0  0  0  0  0  0
   -0.1507   12.1292   -2.3002 C   0  0  2  0  0  0  0  0  0  0  0  0
    0.4298   13.4679   -2.6073 C   0  0  0  0  0  0  0  0  0  0  0  0
    0.8165   11.3494   -3.1199 O   0  0  0  0  0  0  0  0  0  0  0  0
  2 19  1  0
  3  5  1  0
  4  1  1  0
  6 15  1  0
  7 16  1  0
  8  9  1  0
  8  2  1  1
  9 13  1  0
  9  5  1  6
 10 20  1  0
 10  3  1  0
 10 11  1  6
 12  8  1  0
 12 10  1  0
 12  1  1  6
 13 18  1  0
 13  6  1  0
 13 14  1  6
 15 16  1  0
 16 17  2  0
 18  7  2  0
 19 18  1  0
 20  4  1  0
 20 21  1  1
 20 22  1  0
M  END
>  <DRUGBANK_ID>  (1) 
DB06710

>  <COMMON_NAME>  (1) 
Methyltestosterone

>  <CAS_NUMBER>  (1) 
58-18-4

>  <UNII>  (1) 
V9EFU16ZIF

>  <SYNONYMS>  (1) 
17-beta-Hydroxy-17-methylandrost-4-en-3-one; 17-methyltestosterone; 17alpha-Methyl-3-oxo-4-androsten-17beta-ol; 17alpha-Methyltestosterone; 17beta-Hydroxy-17-methylandrost-4-en-3-one; 17α-methyl-Δ4-androsten-17β-ol-3-one; 17α-methyltestosterone; 4-Androstene-17alpha-methyl-17beta-ol-3-one; Methyltestosterone; Methyltestosteronum; Metiltestosterona

$$$$
