
     RDKit          3D

 20 23  0  0  0  0  0  0  0  0999 V2000
    0.8079    0.4932   -0.6386 C   0  0  2  0  0  0  0  0  0  0  0  0
   -0.6955    0.2904   -0.3464 C   0  0  0  0  0  0  0  0  0  0  0  0
    1.5967   -0.7744   -0.0682 C   0  0  2  0  0  0  0  0  0  0  0  0
    1.5265    1.7474    0.1448 C   0  0  0  0  0  0  0  0  0  0  0  0
   -1.2412   -0.9444   -0.0439 C   0  0  0  0  0  0  0  0  0  0  0  0
   -1.7106    1.2116   -0.2029 C   0  0  0  0  0  0  0  0  0  0  0  0
    1.0885   -2.3440    0.5870 C   0  0  0  0  0  0  0  0  0  0  0  0
    2.9997   -0.1086    0.1482 C   0  0  0  0  0  0  0  0  0  0  0  0
    1.9326   -1.8077   -1.0244 C   0  0  0  0  0  0  0  0  0  0  0  0
    2.9773    1.3486    0.4571 C   0  0  0  0  0  0  0  0  0  0  0  0
   -2.7112   -1.3404    0.4386 C   0  0  0  0  0  0  0  0  0  0  0  0
   -0.3871   -2.1002    0.4339 C   0  0  0  0  0  0  0  0  0  0  0  0
   -3.1377    0.7387    0.4162 C   0  0  0  0  0  0  0  0  0  0  0  0
    4.0796   -0.6751   -0.0356 O   0  0  0  0  0  0  0  0  0  0  0  0
   -3.7232   -0.6675    1.0282 C   0  0  0  0  0  0  0  0  0  0  0  0
   -3.1025   -2.5554    0.1968 C   0  0  0  0  0  0  0  0  0  0  0  0
   -4.7496   -2.1328    1.7842 C   0  0  0  0  0  0  0  0  0  0  0  0
   -4.5161   -2.8088    0.1915 C   0  0  0  0  0  0  0  0  0  0  0  0
   -4.7313   -3.4232    1.3052 C   0  0  0  0  0  0  0  0  0  0  0  0
   -3.9419   -4.5919    1.2249 O   0  0  0  0  0  0  0  0  0  0  0  0
  1  2  1  0
  1  3  1  0
  1  4  1  1
  2  5  2  0
  2  6  1  0
  3  7  1  0
  3  8  1  0
  3  9  1  6
  4 10  1  0
  5 11  1  0
  5 12  1  0
  6 13  2  0
  7 12  1  0
  8 10  1  0
  8 14  2  0
 11 15  2  0
 11 16  1  0
 13 15  1  0
 15 17  1  0
 16 18  2  0
 17 19  2  0
 18 19  1  0
 19 20  1  0
M  END
>  <DRUGBANK_ID>  (1) 
DB03515

>  <SECONDARY_ACCESSION_NUMBERS>  (1) 
EXPT01356

>  <COMMON_NAME>  (1) 
Equilenin

>  <CAS_NUMBER>  (1) 
517-09-9

>  <UNII>  (1) 
W8FTJ17C4J

>  <SYNONYMS>  (1) 
3-Hydroxyestra-1,3,5(10),6,8-pentaen-17-one; Equilenina

$$$$
