
     RDKit          3D

 23 25  0  0  1  0  0  0  0  0999 V2000
    2.0235    0.4446    0.4684 C   0  0  0  0  0  0  0  0  0  0  0  0
    0.9541    0.2027   -0.6069 C   0  0  2  0  0  0  0  0  0  0  0  0
    0.0023    1.3860   -0.7230 C   0  0  0  0  0  0  0  0  0  0  0  0
   -1.1416    1.0425    0.2055 C   0  0  0  0  0  0  0  0  0  0  0  0
   -1.3030   -0.4374   -0.0691 C   0  0  0  0  0  0  0  0  0  0  0  0
    0.0635   -0.9116   -0.3074 N   0  0  0  0  0  0  0  0  0  0  0  0
    0.6503   -1.8510    0.6244 C   0  0  0  0  0  0  0  0  0  0  0  0
    0.5744   -1.5939    2.1677 C   0  0  0  0  0  0  0  0  0  0  0  0
   -0.7599   -1.1709    2.8060 C   0  0  0  0  0  0  0  0  0  0  0  0
   -1.8043   -2.1656    2.9866 O   0  0  0  0  0  0  0  0  0  0  0  0
   -2.1240   -2.9921    1.9397 C   0  0  0  0  0  0  0  0  0  0  0  0
   -1.1881   -3.8281    1.3568 C   0  0  0  0  0  0  0  0  0  0  0  0
   -1.3771   -4.3450    0.0608 C   0  0  0  0  0  0  0  0  0  0  0  0
   -2.6461   -4.3831   -0.4745 C   0  0  0  0  0  0  0  0  0  0  0  0
   -3.6849   -3.8417    0.2861 C   0  0  0  0  0  0  0  0  0  0  0  0
   -3.4174   -3.0655    1.4368 C   0  0  0  0  0  0  0  0  0  0  0  0
   -2.9180   -5.0246   -1.7898 C   0  0  0  0  0  0  0  0  0  0  0  0
   -2.2200   -6.3090   -2.0617 C   0  0  0  0  0  0  0  0  0  0  0  0
   -2.5643   -6.9690   -3.1684 C   0  0  0  0  0  0  0  0  0  0  0  0
   -3.5539   -6.3968   -4.1077 C   0  0  0  0  0  0  0  0  0  0  0  0
   -3.8818   -6.9940   -5.1097 O   0  0  0  0  0  0  0  0  0  0  0  0
   -4.0531   -5.1634   -3.7535 N   0  0  0  0  0  0  0  0  0  0  0  0
   -3.7785   -4.4833   -2.6002 N   0  0  0  0  0  0  0  0  0  0  0  0
  2  1  1  1
  2  3  1  0
  2  6  1  0
  3  4  1  0
  4  5  1  0
  5  6  1  0
  6  7  1  0
  7  8  1  0
  8  9  1  0
  9 10  1  0
 10 11  1  0
 11 12  2  0
 11 16  1  0
 12 13  1  0
 13 14  2  0
 14 15  1  0
 14 17  1  0
 15 16  2  0
 17 18  1  0
 17 23  2  0
 18 19  2  0
 19 20  1  0
 20 21  2  0
 20 22  1  0
 22 23  1  0
M  END
>  <DRUGBANK_ID>  (1) 
DB12900

>  <COMMON_NAME>  (1) 
Irdabisant

>  <CAS_NUMBER>  (1) 
1005402-19-6

>  <UNII>  (1) 
WH7ISP34KA

>  <SYNONYMS>  (1) 
CEP-26401; Irdabisant

$$$$
