365
     RDKit          3D

 26 29  0  0  1  0  0  0  0  0999 V2000
    0.9612    0.0310   -0.1247 F   0  0  0  0  0  0  0  0  0  0  0  0
    4.6543    3.6605   -0.0326 O   0  0  0  0  0  0  0  0  0  0  0  0
    6.7405    4.9087   -0.0718 O   0  0  0  0  0  0  0  0  0  0  0  0
    8.6739    3.7648   -0.0740 O   0  0  0  0  0  0  0  0  0  0  0  0
    6.5611    0.0670   -0.0570 N   0  0  0  0  0  0  0  0  0  0  0  0
    2.3725   -2.4482   -0.0311 N   0  0  0  0  0  0  0  0  0  0  0  0
    0.6421   -4.6277    0.8411 N   0  0  0  0  0  0  0  0  0  0  0  0
    7.2493   -1.2555   -0.1069 C   0  0  0  0  0  0  0  0  0  0  0  0
    8.1850   -1.6714    1.0105 C   0  0  0  0  0  0  0  0  0  0  0  0
    8.6130   -1.7728   -0.4185 C   0  0  0  0  0  0  0  0  0  0  0  0
    5.1170    0.0742   -0.0395 C   0  0  0  0  0  0  0  0  0  0  0  0
    7.2351    1.2826   -0.0521 C   0  0  0  0  0  0  0  0  0  0  0  0
    4.3945    1.2839   -0.0538 C   0  0  0  0  0  0  0  0  0  0  0  0
    2.9768   -1.2053   -0.0916 C   0  0  0  0  0  0  0  0  0  0  0  0
    1.3279   -2.9432   -0.9451 C   0  0  0  0  0  0  0  0  0  0  0  0
    4.3738   -1.1285   -0.0299 C   0  0  0  0  0  0  0  0  0  0  0  0
    0.1692   -3.6061   -0.1363 C   0  0  0  0  0  0  0  0  0  0  0  0
    2.8531   -3.4376    0.9453 C   0  0  0  0  0  0  0  0  0  0  0  0
    1.6635   -4.0286    1.7245 C   0  0  0  0  0  0  0  0  0  0  0  0
    2.9781    1.2707   -0.0905 C   0  0  0  0  0  0  0  0  0  0  0  0
    6.6540    2.4991   -0.0480 C   0  0  0  0  0  0  0  0  0  0  0  0
    5.1790    2.5474   -0.0415 C   0  0  0  0  0  0  0  0  0  0  0  0
    2.3052    0.0218   -0.1312 C   0  0  0  0  0  0  0  0  0  0  0  0
   -0.6564   -2.5268    0.5669 C   0  0  0  0  0  0  0  0  0  0  0  0
    2.1059    2.5005   -0.0696 C   0  0  0  0  0  0  0  0  0  0  0  0
    7.4571    3.7543   -0.0637 C   0  0  0  0  0  0  0  0  0  0  0  0
  1 23  1  0
  2 22  2  0
  3 26  1  0
  4 26  2  0
  5  8  1  0
  5 11  1  0
  5 12  1  0
  6 14  1  0
  6 15  1  0
  6 18  1  0
  7 17  1  0
  7 19  1  0
  8  9  1  0
  8 10  1  0
  9 10  1  0
 11 13  2  0
 11 16  1  0
 12 21  2  0
 13 20  1  0
 13 22  1  0
 14 16  2  0
 14 23  1  0
 15 17  1  0
 17 24  1  0
 18 19  1  0
 20 23  2  0
 20 25  1  0
 21 22  1  0
 21 26  1  0
M  END
>  <DRUGBANK_ID>  (1) 
DB00365

>  <SECONDARY_ACCESSION_NUMBERS>  (1) 
APRD01003

>  <COMMON_NAME>  (1) 
Grepafloxacin

>  <CAS_NUMBER>  (1) 
119914-60-2

>  <UNII>  (1) 
L1M1U2HC31

>  <SYNONYMS>  (1) 
Grepafloxacin

$$$$
