
     RDKit          3D

 27 29  0  0  0  0  0  0  0  0999 V2000
    1.3347   -0.1690   -0.0378 C   0  0  0  0  0  0  0  0  0  0  0  0
    0.4724   -1.2863   -0.0364 C   0  0  0  0  0  0  0  0  0  0  0  0
   -0.9101   -1.0954   -0.0517 C   0  0  0  0  0  0  0  0  0  0  0  0
   -1.4064    0.1967   -0.0387 C   0  0  0  0  0  0  0  0  0  0  0  0
   -0.5370    1.2904    0.0213 C   0  0  0  0  0  0  0  0  0  0  0  0
    0.8393    1.1221   -0.0467 C   0  0  0  0  0  0  0  0  0  0  0  0
    1.1000   -2.6543   -0.0481 C   0  0  0  0  0  0  0  0  0  0  0  0
    0.2680   -3.7538   -0.0758 N   0  0  0  0  0  0  0  0  0  0  0  0
    2.4030   -2.5661   -0.0373 N   0  0  0  0  0  0  0  0  0  0  0  0
    0.6067   -5.1114   -0.1513 O   0  0  0  0  0  0  0  0  0  0  0  0
    1.9975   -5.3345   -0.1589 C   0  0  0  0  0  0  0  0  0  0  0  0
   -1.1118    2.5410    0.4072 C   0  0  0  0  0  0  0  0  0  0  0  0
   -1.8235    2.8777    1.5371 C   0  0  0  0  0  0  0  0  0  0  0  0
   -2.1827    4.2159    1.3733 C   0  0  0  0  0  0  0  0  0  0  0  0
   -1.7498    4.5658    0.1124 C   0  0  0  0  0  0  0  0  0  0  0  0
   -1.0295    3.5712   -0.4630 O   0  0  0  0  0  0  0  0  0  0  0  0
   -1.6961    5.8389   -0.5270 C   0  0  0  0  0  0  0  0  0  0  0  0
   -1.0462    6.7841    0.2039 C   0  0  0  0  0  0  0  0  0  0  0  0
   -0.7624    7.9852   -0.3965 C   0  0  0  0  0  0  0  0  0  0  0  0
   -1.3587    8.4890   -1.5630 C   0  0  0  0  0  0  0  0  0  0  0  0
   -1.9930    7.4793   -2.3082 C   0  0  0  0  0  0  0  0  0  0  0  0
   -2.1439    6.1605   -1.8036 C   0  0  0  0  0  0  0  0  0  0  0  0
   -1.3845   10.0042   -2.0437 C   0  0  0  0  0  0  0  0  0  0  0  0
   -1.9153   10.2910   -3.2115 N   0  0  0  0  0  0  0  0  0  0  0  0
   -0.8983   11.1995   -1.4809 N   0  0  0  0  0  0  0  0  0  0  0  0
   -0.7426   11.5727   -0.1283 O   0  0  0  0  0  0  0  0  0  0  0  0
   -0.3968   10.4376    0.5827 C   0  0  0  0  0  0  0  0  0  0  0  0
  1  2  2  0
  1  6  1  0
  2  3  1  0
  2  7  1  0
  3  4  2  0
  4  5  1  0
  5  6  2  0
  5 12  1  0
  7  8  1  0
  7  9  2  0
  8 10  1  0
 10 11  1  0
 12 13  2  0
 12 16  1  0
 13 14  1  0
 14 15  2  0
 15 16  1  0
 15 17  1  0
 17 18  2  0
 17 22  1  0
 18 19  1  0
 19 20  2  0
 20 21  1  0
 20 23  1  0
 21 22  2  0
 23 24  2  0
 23 25  1  0
 25 26  1  0
 26 27  1  0
M  END
>  <DRUGBANK_ID>  (1) 
DB06532

>  <COMMON_NAME>  (1) 
Pafuramidine

>  <CAS_NUMBER>  (1) 
186953-56-0

>  <UNII>  (1) 
H1VG379J2X

>  <SYNONYMS>  (1) 
Pafuramidine

$$$$
