
     RDKit          3D

 21 22  0  0  0  0  0  0  0  0999 V2000
    1.0302    0.0845   -0.1474 C   0  0  0  0  0  0  0  0  0  0  0  0
    0.5616   -0.1147    1.2769 C   0  0  0  0  0  0  0  0  0  0  0  0
    1.0631    0.9849    2.2095 C   0  0  0  0  0  0  0  0  0  0  0  0
    0.5532    2.3107    1.8874 N   0  0  0  0  0  0  0  0  0  0  0  0
   -0.2754    3.1126    2.6311 C   0  0  0  0  0  0  0  0  0  0  0  0
   -0.7426    4.1371    2.1352 O   0  0  0  0  0  0  0  0  0  0  0  0
   -0.5997    2.7539    4.0241 C   0  0  0  0  0  0  0  0  0  0  0  0
    0.3645    2.2628    4.9086 C   0  0  0  0  0  0  0  0  0  0  0  0
    0.0023    1.9092    6.2008 C   0  0  0  0  0  0  0  0  0  0  0  0
   -1.3051    2.1359    6.5912 C   0  0  0  0  0  0  0  0  0  0  0  0
   -2.2575    2.6420    5.7750 N   0  0  0  0  0  0  0  0  0  0  0  0
   -1.8866    2.9387    4.5031 C   0  0  0  0  0  0  0  0  0  0  0  0
   -0.8885   -0.2486    1.3833 N   0  0  0  0  0  0  0  0  0  0  0  0
   -1.6213   -1.3150    1.8447 C   0  0  0  0  0  0  0  0  0  0  0  0
   -2.8494   -1.2863    1.7977 O   0  0  0  0  0  0  0  0  0  0  0  0
   -0.9447   -2.5213    2.3644 C   0  0  0  0  0  0  0  0  0  0  0  0
    0.1217   -2.4834    3.2673 C   0  0  0  0  0  0  0  0  0  0  0  0
    0.7361   -3.6673    3.6623 C   0  0  0  0  0  0  0  0  0  0  0  0
    0.2155   -4.8596    3.1907 C   0  0  0  0  0  0  0  0  0  0  0  0
   -0.8360   -4.9370    2.3450 N   0  0  0  0  0  0  0  0  0  0  0  0
   -1.3969   -3.7648    1.9516 C   0  0  0  0  0  0  0  0  0  0  0  0
  1  2  1  0
  2  3  1  0
  2 13  1  0
  3  4  1  0
  4  5  1  0
  5  6  2  0
  5  7  1  0
  7  8  2  0
  7 12  1  0
  8  9  1  0
  9 10  2  0
 10 11  1  0
 11 12  2  0
 13 14  1  0
 14 15  2  0
 14 16  1  0
 16 17  2  0
 16 21  1  0
 17 18  1  0
 18 19  2  0
 19 20  1  0
 20 21  2  0
M  END
>  <DRUGBANK_ID>  (1) 
DB06397

>  <COMMON_NAME>  (1) 
Nicaraven

>  <CAS_NUMBER>  (1) 
79455-30-4

>  <UNII>  (1) 
UD8PEV6JBD

$$$$
