
     RDKit          3D

 41 42  0  0  1  0  0  0  0  0999 V2000
    4.3570   -0.6032    0.1794 C   0  0  0  0  0  0  0  0  0  0  0  0
    3.2759   -1.3990   -0.2318 C   0  0  0  0  0  0  0  0  0  0  0  0
    2.0250   -0.8267   -0.4763 C   0  0  0  0  0  0  0  0  0  0  0  0
    1.8996    0.6087   -0.4178 C   0  0  0  0  0  0  0  0  0  0  0  0
    2.9332    1.3623    0.1780 C   0  0  0  0  0  0  0  0  0  0  0  0
    4.1708    0.7614    0.4332 C   0  0  0  0  0  0  0  0  0  0  0  0
    5.3060    1.5875    0.8858 N   0  0  0  0  0  0  0  0  0  0  0  0
    5.0875    2.7826    1.1329 O   0  0  0  0  0  0  0  0  0  0  0  0
    6.4151    1.0433    0.9700 O   0  0  0  0  0  0  0  0  0  0  0  0
    0.6391    1.2954   -0.8932 C   0  0  0  0  0  0  0  0  0  0  0  0
   -0.2125    0.5985   -1.4238 O   0  0  0  0  0  0  0  0  0  0  0  0
    0.4252    2.6558   -0.6488 N   0  0  0  0  0  0  0  0  0  0  0  0
   -0.9216    3.2256   -0.2812 C   0  0  2  0  0  0  0  0  0  0  0  0
   -2.1045    2.3300   -0.8122 C   0  0  0  0  0  0  0  0  0  0  0  0
   -2.1338    2.2432   -2.0452 O   0  0  0  0  0  0  0  0  0  0  0  0
   -3.0661    1.7005    0.0334 N   0  0  0  0  0  0  0  0  0  0  0  0
   -4.0043    0.6567   -0.3783 C   0  0  2  0  0  0  0  0  0  0  0  0
   -3.8222   -0.6791    0.3977 C   0  0  0  0  0  0  0  0  0  0  0  0
   -4.4048   -0.8882    1.4585 O   0  0  0  0  0  0  0  0  0  0  0  0
   -2.8161   -1.4880   -0.1060 N   0  0  0  0  0  0  0  0  0  0  0  0
   -2.2161   -2.6000    0.6238 C   0  0  1  0  0  0  0  0  0  0  0  0
   -0.9550   -3.1672   -0.1465 C   0  0  0  0  0  0  0  0  0  0  0  0
    0.4818   -2.6350    0.1820 C   0  0  0  0  0  0  0  0  0  0  0  0
    0.9617   -1.6664   -0.8075 O   0  0  0  0  0  0  0  0  0  0  0  0
   -1.9529   -2.1281    2.0795 C   0  0  0  0  0  0  0  0  0  0  0  0
   -2.4179   -2.7066    3.0604 O   0  0  0  0  0  0  0  0  0  0  0  0
   -1.1512   -1.0614    2.3145 N   0  0  0  0  0  0  0  0  0  0  0  0
   -0.4861   -0.2433    1.3621 C   0  0  0  0  0  0  0  0  0  0  0  0
   -0.6107    1.1213    1.8541 C   0  0  0  0  0  0  0  0  0  0  0  0
    0.3308    1.9384    1.9697 O   0  0  0  0  0  0  0  0  0  0  0  0
   -1.8748    1.4701    2.0539 O   0  0  0  0  0  0  0  0  0  0  0  0
   -3.8264    0.4519   -1.8431 C   0  0  0  0  0  0  0  0  0  0  0  0
   -4.8338   -0.4466   -2.4511 C   0  0  0  0  0  0  0  0  0  0  0  0
   -6.2024    0.2103   -2.2805 C   0  0  0  0  0  0  0  0  0  0  0  0
   -6.2765    1.6400   -2.8524 C   0  0  0  0  0  0  0  0  0  0  0  0
   -5.9188    1.6231   -4.2650 N   0  0  0  0  0  0  0  0  0  0  0  0
   -0.9824    4.6917   -0.7536 C   0  0  0  0  0  0  0  0  0  0  0  0
   -2.1584    5.0249   -1.6567 C   0  0  0  0  0  0  0  0  0  0  0  0
   -3.5037    5.0708   -0.9481 C   0  0  0  0  0  0  0  0  0  0  0  0
   -4.3905    5.8836   -1.1663 O   0  0  0  0  0  0  0  0  0  0  0  0
   -3.7048    4.0907   -0.0522 O   0  0  0  0  0  0  0  0  0  0  0  0
  1  2  2  0
  1  6  1  0
  2  3  1  0
  3  4  2  0
  3 24  1  0
  4  5  1  0
  4 10  1  0
  5  6  2  0
  6  7  1  0
  7  8  2  0
  7  9  1  0
 10 11  2  0
 10 12  1  0
 12 13  1  0
 13 14  1  0
 13 37  1  6
 14 15  2  0
 14 16  1  0
 16 17  1  0
 17 18  1  0
 17 32  1  6
 18 19  2  0
 18 20  1  0
 20 21  1  0
 21 22  1  0
 21 25  1  1
 22 23  1  0
 23 24  1  0
 25 26  2  0
 25 27  1  0
 27 28  1  0
 28 29  1  0
 29 30  2  0
 29 31  1  0
 32 33  1  0
 33 34  1  0
 34 35  1  0
 35 36  1  0
 37 38  1  0
 38 39  1  0
 39 40  2  0
 39 41  1  0
M  CHG  2   7   1   9  -1
M  END
>  <DRUGBANK_ID>  (1) 
DB12441

>  <COMMON_NAME>  (1) 
Tavilermide

>  <CAS_NUMBER>  (1) 
263251-78-1

>  <UNII>  (1) 
NMG938VJ6T

>  <SYNONYMS>  (1) 
Tavilermide

$$$$
