393
     RDKit          3D

 25 26  0  0  0  0  0  0  0  0999 V2000
    1.3986   -0.2694    0.0027 C   0  0  0  0  0  0  0  0  0  0  0  0
    2.8423   -0.4729    0.1511 N   0  0  0  0  0  0  0  0  0  0  0  0
    3.5672    0.5329    0.1978 O   0  0  0  0  0  0  0  0  0  0  0  0
    3.2483   -1.6384    0.2521 O   0  0  0  0  0  0  0  0  0  0  0  0
    0.8924    1.0238   -0.0154 C   0  0  0  0  0  0  0  0  0  0  0  0
   -0.4921    1.2035    0.0904 C   0  0  0  0  0  0  0  0  0  0  0  0
   -1.0393    2.5588    0.3404 C   0  0  0  0  0  0  0  0  0  0  0  0
   -0.4400    3.1588    1.5177 N   0  0  0  0  0  0  0  0  0  0  0  0
   -0.0279    4.4666    1.5807 C   0  0  0  0  0  0  0  0  0  0  0  0
    0.4366    5.0997    0.3517 C   0  0  0  0  0  0  0  0  0  0  0  0
   -0.6444    5.4448   -0.4738 C   0  0  0  0  0  0  0  0  0  0  0  0
   -0.4437    6.1036   -1.6633 C   0  0  0  0  0  0  0  0  0  0  0  0
    0.8398    6.5260   -1.9706 C   0  0  0  0  0  0  0  0  0  0  0  0
    1.0813    7.3563   -3.4559 Cl  0  0  0  0  0  0  0  0  0  0  0  0
    1.9157    6.2717   -1.1001 C   0  0  0  0  0  0  0  0  0  0  0  0
    1.7463    5.4908    0.0604 C   0  0  0  0  0  0  0  0  0  0  0  0
    2.9028    5.2458    0.7541 O   0  0  0  0  0  0  0  0  0  0  0  0
    2.9360    4.3185    1.8404 C   0  0  0  0  0  0  0  0  0  0  0  0
    2.4065    4.7904    3.1897 C   0  0  0  0  0  0  0  0  0  0  0  0
    2.5767    6.1143    3.3902 O   0  0  0  0  0  0  0  0  0  0  0  0
    1.8624    4.0799    4.0243 O   0  0  0  0  0  0  0  0  0  0  0  0
   -0.1232    5.1558    2.5778 O   0  0  0  0  0  0  0  0  0  0  0  0
   -1.3658    0.1219   -0.0047 C   0  0  0  0  0  0  0  0  0  0  0  0
   -0.8549   -1.1652   -0.0416 C   0  0  0  0  0  0  0  0  0  0  0  0
    0.5273   -1.3666   -0.0084 C   0  0  0  0  0  0  0  0  0  0  0  0
  1  2  1  0
  1 25  2  0
  1  5  1  0
  2  3  1  0
  2  4  2  0
  5  6  2  0
  6 23  1  0
  6  7  1  0
  7  8  1  0
  8  9  1  0
  9 22  2  0
  9 10  1  0
 10 11  2  0
 10 16  1  0
 11 12  1  0
 12 13  2  0
 13 15  1  0
 13 14  1  0
 15 16  2  0
 16 17  1  0
 17 18  1  0
 18 19  1  0
 19 21  2  0
 19 20  1  0
 23 24  2  0
 24 25  1  0
M  CHG  2   2   1   3  -1
M  END
>  <DRUGBANK_ID>  (1) 
DB07030

>  <COMMON_NAME>  (1) 
(5-CHLORO-2-{[(3-NITROBENZYL)AMINO]CARBONYL}PHENOXY)ACETIC ACID

$$$$
