
     RDKit          3D

 23 16  0  0  0  0  0  0  0  0999 V2000
    1.2006    0.3939   -0.3088 O   0  0  0  0  0  0  0  0  0  0  0  0
    2.1216   -0.4052   -0.5760 C   0  0  0  0  0  0  0  0  0  0  0  0
    2.7951   -1.6339    0.6032 C   0  0  0  0  0  0  0  0  0  0  0  0
    3.9635   -2.4510   -0.0143 C   0  0  1  0  0  0  0  0  0  0  0  0
    5.1672   -1.7057   -1.0081 C   0  0  0  0  0  0  0  0  0  0  0  0
    6.3479   -1.8119   -0.5966 O   0  0  0  0  0  0  0  0  0  0  0  0
    4.6909   -0.9334   -1.9098 O   0  0  0  0  0  0  0  0  0  0  0  0
    2.7560    0.2255   -1.6262 O   0  0  0  0  0  0  0  0  0  0  0  0
    4.6663   -3.0766    1.1496 N   0  0  0  0  0  0  0  0  0  0  0  0
    2.2801    0.4336    1.7484 O   0  0  0  0  0  0  0  0  0  0  0  0
    3.1586    0.7625    1.0545 C   0  0  0  0  0  0  0  0  0  0  0  0
    3.4072    2.0811    0.5357 C   0  0  0  0  0  0  0  0  0  0  0  0
    4.3514    2.0375    1.6996 C   0  0  1  0  0  0  0  0  0  0  0  0
    5.6440    0.8395    1.7857 C   0  0  0  0  0  0  0  0  0  0  0  0
    6.7011    1.2937    1.2876 O   0  0  0  0  0  0  0  0  0  0  0  0
    5.2730   -0.3612    2.0151 O   0  0  0  0  0  0  0  0  0  0  0  0
    4.0743    0.1293    0.2134 O   0  0  0  0  0  0  0  0  0  0  0  0
    4.9640    3.2567    1.2645 N   0  0  0  0  0  0  0  0  0  0  0  0
    0.1665    0.5927   -2.2168 O   0  0  0  0  0  0  0  0  0  0  0  0
    0.2530    1.6713    1.6692 O   0  0  0  0  0  0  0  0  0  0  0  0
    1.5377    1.8878   -1.8184 Mg  0  0  0  0  0 15  0  0  0  0  0  0
    0.8678   -2.2842   -1.2010 O   0  0  0  0  0  0  0  0  0  0  0  0
   -0.6200   -0.8684    0.3430 O   0  0  0  0  0  0  0  0  0  0  0  0
  1  2  2  0
  2  3  1  0
  2  8  1  0
  3  4  1  0
  4  5  1  0
  4  9  1  1
  5  6  1  0
  5  7  2  0
 10 11  2  0
 11 12  1  0
 11 17  1  0
 12 13  1  0
 13 14  1  0
 13 18  1  6
 14 15  1  0
 14 16  2  0
M  CHG  3   6  -1  15  -1  21   2
M  END
>  <DRUGBANK_ID>  (1) 
DB13359

>  <COMMON_NAME>  (1) 
Magnesium aspartate

>  <CAS_NUMBER>  (1) 
7018-07-7

>  <UNII>  (1) 
R17X820ROL

>  <SYNONYMS>  (1) 
(+)-magnesium aspartate tetrahydrate; Aspartic acid, magnesium salt; Magnesium aspartate; Magnesium aspartate tetrahydrate

$$$$
