
     RDKit          3D

 27 29  0  0  0  0  0  0  0  0999 V2000
    1.1075    0.0842    0.0234 C   0  0  0  0  0  0  0  0  0  0  0  0
    0.5830    1.5007    0.2755 C   0  0  0  0  0  0  0  0  0  0  0  0
    1.0716    2.4509   -0.8024 C   0  0  0  0  0  0  0  0  0  0  0  0
   -0.9453    1.5435    0.3197 C   0  0  0  0  0  0  0  0  0  0  0  0
   -1.4889    0.6467    1.4047 C   0  0  0  0  0  0  0  0  0  0  0  0
   -1.0212    1.0366    2.7297 N   0  0  0  0  0  0  0  0  0  0  0  0
   -1.9322    1.3684    3.7049 C   0  0  0  0  0  0  0  0  0  0  0  0
   -1.7018    2.4986    4.4164 N   0  0  0  0  0  0  0  0  0  0  0  0
   -2.6221    2.8848    5.3433 C   0  0  0  0  0  0  0  0  0  0  0  0
   -3.7595    2.1812    5.6494 C   0  0  0  0  0  0  0  0  0  0  0  0
   -3.9376    1.0035    4.9739 C   0  0  0  0  0  0  0  0  0  0  0  0
   -3.0430    0.5901    3.9701 C   0  0  0  0  0  0  0  0  0  0  0  0
   -3.2063   -0.7637    3.3900 C   0  0  0  0  0  0  0  0  0  0  0  0
   -2.3781   -1.4010    2.7288 O   0  0  0  0  0  0  0  0  0  0  0  0
   -4.3138   -1.3822    3.8648 N   0  0  0  0  0  0  0  0  0  0  0  0
   -5.6456   -0.9799    3.3974 C   0  0  0  0  0  0  0  0  0  0  0  0
   -6.6466   -1.4531    4.4528 C   0  0  0  0  0  0  0  0  0  0  0  0
   -6.5795   -2.9090    4.7139 N   0  0  0  0  0  0  0  0  0  0  0  0
   -7.1942   -3.7485    3.6491 C   0  0  0  0  0  0  0  0  0  0  0  0
   -6.5575   -3.8277    2.2598 C   0  0  0  0  0  0  0  0  0  0  0  0
   -5.3430   -4.5054    2.0559 C   0  0  0  0  0  0  0  0  0  0  0  0
   -4.4955   -4.1109    1.0060 C   0  0  0  0  0  0  0  0  0  0  0  0
   -4.9953   -3.3472   -0.0353 C   0  0  0  0  0  0  0  0  0  0  0  0
   -6.3280   -2.9481    0.0010 C   0  0  0  0  0  0  0  0  0  0  0  0
   -7.0764   -3.1029    1.1769 C   0  0  0  0  0  0  0  0  0  0  0  0
   -5.1958   -3.2949    5.0833 C   0  0  0  0  0  0  0  0  0  0  0  0
   -4.1547   -2.7790    4.1041 C   0  0  0  0  0  0  0  0  0  0  0  0
  1  2  1  0
  2  3  1  0
  2  4  1  0
  4  5  1  0
  5  6  1  0
  6  7  1  0
  7  8  2  0
  7 12  1  0
  8  9  1  0
  9 10  2  0
 10 11  1  0
 11 12  2  0
 12 13  1  0
 13 14  2  0
 13 15  1  0
 15 16  1  0
 15 27  1  0
 16 17  1  0
 17 18  1  0
 18 19  1  0
 18 26  1  0
 19 20  1  0
 20 21  2  0
 20 25  1  0
 21 22  1  0
 22 23  2  0
 23 24  1  0
 24 25  2  0
 26 27  1  0
M  END
>  <DRUGBANK_ID>  (1) 
DB16230

>  <COMMON_NAME>  (1) 
NSI-189

>  <CAS_NUMBER>  (1) 
1270138-40-3

>  <UNII>  (1) 
YVE9U408ZL

$$$$
