183
     RDKit          3D

 28 30  0  0  0  0  0  0  0  0999 V2000
    0.5872    0.1179   -0.0408 O   0  0  0  0  0  0  0  0  0  0  0  0
    0.3452   -0.9586    0.8632 C   0  0  0  0  0  0  0  0  0  0  0  0
    0.9399   -2.2747    0.3805 C   0  0  0  0  0  0  0  0  0  0  0  0
    2.3681   -2.2441    0.3948 O   0  0  0  0  0  0  0  0  0  0  0  0
    2.9809   -1.4405   -0.6116 C   0  0  0  0  0  0  0  0  0  0  0  0
    2.4146   -1.6638   -1.9264 N   0  0  0  0  0  0  0  0  0  0  0  0
    2.4241   -2.9678   -2.3950 C   0  0  0  0  0  0  0  0  0  0  0  0
    2.8225   -3.9475   -1.7649 O   0  0  0  0  0  0  0  0  0  0  0  0
    1.9204   -3.1490   -3.6404 N   0  0  0  0  0  0  0  0  0  0  0  0
    1.6326   -2.1663   -4.5300 C   0  0  0  0  0  0  0  0  0  0  0  0
    1.2568   -2.4506   -5.6508 O   0  0  0  0  0  0  0  0  0  0  0  0
    2.0504   -0.5994   -2.7371 C   0  0  0  0  0  0  0  0  0  0  0  0
    1.7825   -0.7733   -4.0384 C   0  0  0  0  0  0  0  0  0  0  0  0
    1.7066    0.3236   -5.0583 C   0  0  0  0  0  0  0  0  0  0  0  0
    2.9279    0.2744   -5.9632 C   0  0  0  0  0  0  0  0  0  0  0  0
    3.0599   -0.6372   -7.0171 C   0  0  0  0  0  0  0  0  0  0  0  0
    4.2078   -0.6788   -7.8082 C   0  0  0  0  0  0  0  0  0  0  0  0
    5.2316    0.2346   -7.5951 C   0  0  0  0  0  0  0  0  0  0  0  0
    3.9911    1.1451   -5.7260 C   0  0  0  0  0  0  0  0  0  0  0  0
    5.1047    1.1806   -6.5820 C   0  0  0  0  0  0  0  0  0  0  0  0
    6.0351    2.1864   -6.6025 O   0  0  0  0  0  0  0  0  0  0  0  0
    5.7493    3.3522   -5.8166 C   0  0  0  0  0  0  0  0  0  0  0  0
    4.6402    4.2446   -6.3706 C   0  0  0  0  0  0  0  0  0  0  0  0
    3.4856    3.7491   -7.0095 C   0  0  0  0  0  0  0  0  0  0  0  0
    2.4976    4.5506   -7.5521 C   0  0  0  0  0  0  0  0  0  0  0  0
    2.6233    5.9145   -7.4403 C   0  0  0  0  0  0  0  0  0  0  0  0
    3.7068    6.4506   -6.7397 C   0  0  0  0  0  0  0  0  0  0  0  0
    4.7225    5.6294   -6.2281 C   0  0  0  0  0  0  0  0  0  0  0  0
  1  2  1  0
  2  3  1  0
  3  4  1  0
  4  5  1  0
  5  6  1  0
  6  7  1  0
  6 12  1  0
  7  8  2  0
  7  9  1  0
  9 10  1  0
 10 11  2  0
 10 13  1  0
 12 13  2  0
 13 14  1  0
 14 15  1  0
 15 16  2  0
 15 19  1  0
 16 17  1  0
 17 18  2  0
 18 20  1  0
 19 20  2  0
 20 21  1  0
 21 22  1  0
 22 23  1  0
 23 24  2  0
 23 28  1  0
 24 25  1  0
 25 26  2  0
 26 27  1  0
 27 28  2  0
M  END
>  <DRUGBANK_ID>  (1) 
DB06873

>  <COMMON_NAME>  (1) 
1-((2-HYDROXYETHOXY)METHYL)-5-(3-(BENZYLOXY)BENZYL)PYRIMIDINE-2,4(1H,3H)-DIONE

>  <UNII>  (1) 
TA375L4WSV

$$$$
