
     RDKit          3D

 24 26  0  0  1  0  0  0  0  0999 V2000
   -2.7868   10.0732   -5.2161 C   0  0  0  0  0  0  0  0  0  0  0  0
   -0.7744    8.0463   -4.8940 C   0  0  0  0  0  0  0  0  0  0  0  0
    0.2657    7.3212   -4.3013 C   0  0  0  0  0  0  0  0  0  0  0  0
    0.6825    9.9322   -5.3525 C   0  0  0  0  0  0  0  0  0  0  0  0
    5.9644    4.2420   -2.9769 C   0  0  0  0  0  0  0  0  0  0  0  0
    3.6578    8.4808   -4.2564 C   0  0  0  0  0  0  0  0  0  0  0  0
   -0.5813    9.3409   -5.3830 C   0  0  0  0  0  0  0  0  0  0  0  0
    1.7410    9.2085   -4.7919 C   0  0  0  0  0  0  0  0  0  0  0  0
    1.5252    7.9305   -4.2766 C   0  0  0  0  0  0  0  0  0  0  0  0
    5.3392    5.6266   -3.2561 C   0  0  2  0  0  0  0  0  0  0  0  0
    5.1847    6.4624   -1.9689 C   0  0  2  0  0  0  0  0  0  0  0  0
    3.6779    6.4504   -1.7331 C   0  0  2  0  0  0  0  0  0  0  0  0
    3.0773    6.2963   -3.1334 C   0  0  1  0  0  0  0  0  0  0  0  0
    3.0607    9.5573   -4.6901 N   0  0  0  0  0  0  0  0  0  0  0  0
    2.7721    7.5203   -3.8526 N   0  0  0  0  0  0  0  0  0  0  0  0
    5.7438    7.7584   -2.1649 O   0  0  0  0  0  0  0  0  0  0  0  0
    3.1953    7.5060   -0.9258 O   0  0  0  0  0  0  0  0  0  0  0  0
    3.4594    1.8445   -4.0450 O   0  0  0  0  0  0  0  0  0  0  0  0
    4.4370    1.9011   -1.7856 O   0  0  0  0  0  0  0  0  0  0  0  0
    2.2936    2.7186   -2.2037 O   0  0  0  0  0  0  0  0  0  0  0  0
   -1.5809   10.0656   -5.9778 O   0  0  0  0  0  0  0  0  0  0  0  0
    5.2600    3.1304   -3.5373 O   0  0  0  0  0  0  0  0  0  0  0  0
    4.0349    5.5110   -3.8765 O   0  0  0  0  0  0  0  0  0  0  0  0
    3.6946    2.9131   -2.8336 P   0  0  0  0  0  0  0  0  0  0  0  0
  3  2  2  0
  7  2  1  0
  7  4  2  0
  8  4  1  0
  9  3  1  0
  9  8  2  0
 10  5  1  1
 11 10  1  0
 11 16  1  6
 12 11  1  0
 12 17  1  6
 13 12  1  0
 13 15  1  6
 14  6  2  0
 14  8  1  0
 15  6  1  0
 15  9  1  0
 21  1  1  0
 21  7  1  0
 22  5  1  0
 23 10  1  0
 23 13  1  0
 24 18  1  0
 24 19  1  0
 24 20  2  0
 24 22  1  0
M  END
>  <DRUGBANK_ID>  (1) 
DB04176

>  <SECONDARY_ACCESSION_NUMBERS>  (1) 
EXPT02620

>  <COMMON_NAME>  (1) 
Phosporic Acid Mono-[3,4-Dihydroxy-5-(5-Methoxy-Benzoimidazol-1-Yl)-Tetrahydro-Furan-2-Ylmethyl] Ester

$$$$
