
     RDKit          3D

 28 29  0  0  1  0  0  0  0  0999 V2000
    0.9344   -0.1288   -0.0211 C   0  0  0  0  0  0  0  0  0  0  0  0
    0.3834    0.3447   -1.3236 C   0  0  0  0  0  0  0  0  0  0  0  0
   -0.2450   -0.3703   -2.0928 O   0  0  0  0  0  0  0  0  0  0  0  0
    0.5870    1.6559   -1.6082 N   0  0  0  0  0  0  0  0  0  0  0  0
    1.5260    2.5665   -0.9758 C   0  0  0  0  0  0  0  0  0  0  0  0
    2.6502    2.8967   -1.9223 C   0  0  0  0  0  0  0  0  0  0  0  0
    2.0400    3.5865   -3.0420 O   0  0  0  0  0  0  0  0  0  0  0  0
    1.6888    2.8312   -4.1340 C   0  0  0  0  0  0  0  0  0  0  0  0
    1.6019    1.6193   -4.1237 O   0  0  0  0  0  0  0  0  0  0  0  0
    1.4811    3.6959   -5.3884 C   0  0  1  0  0  0  0  0  0  0  0  0
    0.6324    4.9440   -5.1175 C   0  0  0  0  0  0  0  0  0  0  0  0
    1.1371    6.2165   -5.4059 C   0  0  0  0  0  0  0  0  0  0  0  0
    0.4753    7.3818   -5.0674 C   0  0  0  0  0  0  0  0  0  0  0  0
   -0.7719    7.2953   -4.4843 C   0  0  0  0  0  0  0  0  0  0  0  0
   -1.3506    6.0473   -4.2458 C   0  0  0  0  0  0  0  0  0  0  0  0
   -0.6517    4.8692   -4.5529 C   0  0  0  0  0  0  0  0  0  0  0  0
   -1.5916    8.7468   -4.0787 Cl  0  0  0  0  0  0  0  0  0  0  0  0
    2.6726    3.9394   -6.1863 O   0  0  0  0  0  0  0  0  0  0  0  0
    3.7108    4.6337   -5.6212 C   0  0  0  0  0  0  0  0  0  0  0  0
    4.2124    4.3820   -4.3570 C   0  0  0  0  0  0  0  0  0  0  0  0
    5.0903    5.2249   -3.6949 C   0  0  0  0  0  0  0  0  0  0  0  0
    5.7148    6.2041   -4.4261 C   0  0  0  0  0  0  0  0  0  0  0  0
    5.4070    6.3421   -5.7875 C   0  0  0  0  0  0  0  0  0  0  0  0
    4.3341    5.6290   -6.3580 C   0  0  0  0  0  0  0  0  0  0  0  0
    6.3295    7.1266   -6.6686 C   0  0  0  0  0  0  0  0  0  0  0  0
    6.8124    6.3570   -7.6828 F   0  0  0  0  0  0  0  0  0  0  0  0
    5.7370    8.2016   -7.2437 F   0  0  0  0  0  0  0  0  0  0  0  0
    7.4244    7.5925   -6.0062 F   0  0  0  0  0  0  0  0  0  0  0  0
  1  2  1  0
  2  3  2  0
  2  4  1  0
  4  5  1  0
  5  6  1  0
  6  7  1  0
  7  8  1  0
  8  9  2  0
  8 10  1  0
 10 11  1  0
 10 18  1  1
 11 12  2  0
 11 16  1  0
 12 13  1  0
 13 14  2  0
 14 15  1  0
 14 17  1  0
 15 16  2  0
 18 19  1  0
 19 20  2  0
 19 24  1  0
 20 21  1  0
 21 22  2  0
 22 23  1  0
 23 24  2  0
 23 25  1  0
 25 26  1  0
 25 27  1  0
 25 28  1  0
M  END
>  <DRUGBANK_ID>  (1) 
DB11811

>  <SECONDARY_ACCESSION_NUMBERS>  (1) 
DB06158

>  <COMMON_NAME>  (1) 
Arhalofenate

>  <CAS_NUMBER>  (1) 
24136-23-0

>  <UNII>  (1) 
1P01UJR9X1

>  <SYNONYMS>  (1) 
Arhalofenate

$$$$
