
     RDKit          3D

 23 26  0  0  0  0  0  0  0  0999 V2000
    1.0319    0.0850    0.0593 C   0  0  0  0  0  0  0  0  0  0  0  0
    0.4681    0.4718   -1.3133 C   0  0  0  0  0  0  0  0  0  0  0  0
    1.0146   -0.4802   -2.3787 C   0  0  0  0  0  0  0  0  0  0  0  0
   -0.9950    0.4959   -1.3247 N   0  0  0  0  0  0  0  0  0  0  0  0
   -1.8054    1.4391   -1.9120 C   0  0  0  0  0  0  0  0  0  0  0  0
   -3.1035    1.0223   -1.6690 C   0  0  0  0  0  0  0  0  0  0  0  0
   -2.9789   -0.1909   -0.9401 C   0  0  0  0  0  0  0  0  0  0  0  0
   -1.6919   -0.5013   -0.7166 N   0  0  0  0  0  0  0  0  0  0  0  0
   -4.0766   -1.0174   -0.4387 C   0  0  0  0  0  0  0  0  0  0  0  0
   -4.2426   -1.1922    0.9454 C   0  0  0  0  0  0  0  0  0  0  0  0
   -5.3477   -1.8816    1.4756 C   0  0  0  0  0  0  0  0  0  0  0  0
   -6.2638   -2.3712    0.5496 C   0  0  0  0  0  0  0  0  0  0  0  0
   -6.1407   -2.2204   -0.8220 C   0  0  0  0  0  0  0  0  0  0  0  0
   -5.0256   -1.5451   -1.3381 C   0  0  0  0  0  0  0  0  0  0  0  0
   -7.2178   -2.7828   -1.4536 N   0  0  0  0  0  0  0  0  0  0  0  0
   -7.9330   -3.2785   -0.4674 C   0  0  0  0  0  0  0  0  0  0  0  0
   -7.4229   -3.0631    0.7826 O   0  0  0  0  0  0  0  0  0  0  0  0
   -9.0760   -3.9461   -0.5572 N   0  0  0  0  0  0  0  0  0  0  0  0
   -4.1442    1.8270   -2.1473 C   0  0  0  0  0  0  0  0  0  0  0  0
   -3.8281    2.9409   -2.8350 N   0  0  0  0  0  0  0  0  0  0  0  0
   -2.5227    3.2325   -3.0151 C   0  0  0  0  0  0  0  0  0  0  0  0
   -1.4422    2.5463   -2.5877 N   0  0  0  0  0  0  0  0  0  0  0  0
   -5.4754    1.5440   -1.9561 N   0  0  0  0  0  0  0  0  0  0  0  0
  1  2  1  0
  2  3  1  0
  2  4  1  0
  4  5  1  0
  4  8  1  0
  5  6  2  0
  5 22  1  0
  6  7  1  0
  6 19  1  0
  7  8  2  0
  7  9  1  0
  9 10  2  0
  9 14  1  0
 10 11  1  0
 11 12  2  0
 12 13  1  0
 12 17  1  0
 13 14  2  0
 13 15  1  0
 15 16  2  0
 16 17  1  0
 16 18  1  0
 19 20  2  0
 19 23  1  0
 20 21  1  0
 21 22  2  0
M  END
>  <DRUGBANK_ID>  (1) 
DB11836

>  <COMMON_NAME>  (1) 
Sapanisertib

>  <CAS_NUMBER>  (1) 
1224844-38-5

>  <UNII>  (1) 
JGH0DF1U03

>  <SYNONYMS>  (1) 
Sapanisertib

$$$$
