
     RDKit          3D

 38 40  0  0  0  0  0  0  0  0999 V2000
  -10.0444    2.9012   12.6307 C   0  0  0  0  0  0  0  0  0  0  0  0
  -10.2628    4.0963   13.3436 C   0  0  0  0  0  0  0  0  0  0  0  0
  -10.0882    5.3559   12.7637 C   0  0  0  0  0  0  0  0  0  0  0  0
   -9.6985    5.4726   11.4429 C   0  0  0  0  0  0  0  0  0  0  0  0
   -9.4714    4.2731   10.7760 C   0  0  0  0  0  0  0  0  0  0  0  0
   -9.6165    3.0100   11.3055 C   0  0  0  0  0  0  0  0  0  0  0  0
  -10.1976    1.6373   13.1154 O   0  0  0  0  0  0  0  0  0  0  0  0
  -10.6193    1.5495   14.4625 C   0  0  0  0  0  0  0  0  0  0  0  0
   -9.0865    4.0966    9.4899 N   0  0  0  0  0  0  0  0  0  0  0  0
   -9.2497    2.0840   10.2897 C   0  0  0  0  0  0  0  0  0  0  0  0
   -8.8481    2.7827    9.1634 C   0  0  0  0  0  0  0  0  0  0  0  0
   -8.3153    2.1724    7.9615 C   0  0  0  0  0  0  0  0  0  0  0  0
   -8.2575    0.9521    7.7878 O   0  0  0  0  0  0  0  0  0  0  0  0
   -7.7973    2.9275    6.9548 N   0  0  0  0  0  0  0  0  0  0  0  0
   -7.8886    4.3476    6.7892 C   0  0  1  0  0  0  0  0  0  0  0  0
   -6.5487    5.0915    6.8223 C   0  0  0  0  0  0  0  0  0  0  0  0
   -5.9024    5.1635    5.4713 C   0  0  0  0  0  0  0  0  0  0  0  0
   -6.8308    6.2220    4.7641 C   0  0  0  0  0  0  0  0  0  0  0  0
   -4.4374    5.5471    5.4027 C   0  0  0  0  0  0  0  0  0  0  0  0
   -8.9622    4.6022    5.7616 C   0  0  0  0  0  0  0  0  0  0  0  0
   -9.9457    5.3158    5.9805 O   0  0  0  0  0  0  0  0  0  0  0  0
   -8.7648    4.2040    4.4982 N   0  0  0  0  0  0  0  0  0  0  0  0
   -7.6353    3.6724    3.7163 C   0  0  1  0  0  0  0  0  0  0  0  0
   -8.2759    2.4733    3.0370 C   0  0  0  0  0  0  0  0  0  0  0  0
   -6.5135    4.7107    2.7518 C   0  0  0  0  0  0  0  0  0  0  0  0
   -5.2959    4.7393    2.9660 O   0  0  0  0  0  0  0  0  0  0  0  0
   -6.9556    5.4709    1.5274 C   0  0  0  0  0  0  0  0  0  0  0  0
   -9.1669    2.9163    1.8602 C   0  0  2  0  0  0  0  0  0  0  0  0
   -9.4213    4.4343    1.6130 C   0  0  0  0  0  0  0  0  0  0  0  0
  -10.6225    5.0084    2.1939 C   0  0  0  0  0  0  0  0  0  0  0  0
  -11.2498    3.7711    2.5088 N   0  0  0  0  0  0  0  0  0  0  0  0
  -10.5686    2.6317    2.1094 C   0  0  0  0  0  0  0  0  0  0  0  0
  -11.0450    1.4645    2.0002 O   0  0  0  0  0  0  0  0  0  0  0  0
   -7.4070    4.2551    0.8906 O   0  0  0  0  0  0  0  0  0  0  0  0
   -5.9904    3.3010    0.6151 P   0  0  0  0  0  0  0  0  0  0  0  0
   -5.1399    4.4507    0.1277 O   0  0  0  0  0  0  0  0  0  0  0  0
   -5.8995    2.4977    1.9845 O   0  0  0  0  0  0  0  0  0  0  0  0
   -4.5738    2.3469    0.3396 O   0  0  0  0  0  0  0  0  0  0  0  0
  1  2  2  0
  1  7  1  0
  2  3  1  0
  3  4  2  0
  4  5  1  0
  5  6  2  0
  6  1  1  0
  6 10  1  0
  7  8  1  0
  9 11  1  0
  9  5  1  0
 10 11  2  0
 11 12  1  0
 12 13  2  0
 12 14  1  0
 14 15  1  0
 15 16  1  6
 15 20  1  0
 16 17  1  0
 17 18  1  0
 17 19  1  0
 20 21  2  0
 20 22  1  0
 22 23  1  0
 23 24  1  6
 23 25  1  0
 25 26  2  0
 25 27  1  0
 27 34  1  0
 28 29  1  0
 28 32  1  0
 28 24  1  1
 29 30  1  0
 30 31  1  0
 31 32  1  0
 32 33  2  0
 34 35  1  0
 35 36  2  0
 35 37  1  0
 35 38  1  0
M  END
>  <DRUGBANK_ID>  (1) 
DB16514

>  <COMMON_NAME>  (1) 
PF-07304814

>  <UNII>  (1) 
XJ51YOB1SC

$$$$
