
     RDKit          3D

 21 21  0  0  0  0  0  0  0  0999 V2000
    0.5994    1.2686   -0.1881 O   0  0  0  0  0  0  0  0  0  0  0  0
    0.5703    0.2249    2.5449 O   0  0  0  0  0  0  0  0  0  0  0  0
   -1.4005    3.6722    0.0781 O   0  0  0  0  0  0  0  0  0  0  0  0
   -2.5941    2.2328   -1.1420 O   0  0  0  0  0  0  0  0  0  0  0  0
    1.2980   -2.3808   -3.6241 O   0  0  0  0  0  0  0  0  0  0  0  0
    0.8295   -1.3713   -1.6685 N   0  0  0  0  0  0  0  0  0  0  0  0
   -1.0642   -1.5244    1.5967 N   0  0  0  0  0  0  0  0  0  0  0  0
    2.8068    0.0015    2.3974 N   0  0  0  0  0  0  0  0  0  0  0  0
    0.7026   -1.2324   -0.1922 C   0  0  2  0  0  0  0  0  0  0  0  0
   -0.7940   -1.3034    0.2007 C   0  0  2  0  0  0  0  0  0  0  0  0
    1.3470    0.1060    0.2681 C   0  0  2  0  0  0  0  0  0  0  0  0
   -1.4681   -0.0154   -0.2483 C   0  0  0  0  0  0  0  0  0  0  0  0
   -0.7759    1.2808    0.2027 C   0  0  2  0  0  0  0  0  0  0  0  0
    1.5556    0.0996    1.8090 C   0  0  0  0  0  0  0  0  0  0  0  0
   -1.6583    2.4243   -0.3723 C   0  0  0  0  0  0  0  0  0  0  0  0
    1.3342   -2.4098   -2.3912 C   0  0  0  0  0  0  0  0  0  0  0  0
    4.0930    0.0015    1.6980 C   0  0  0  0  0  0  0  0  0  0  0  0
    2.8386    0.0074    3.8745 C   0  0  0  0  0  0  0  0  0  0  0  0
    1.9490   -3.5514   -1.6404 C   0  0  0  0  0  0  0  0  0  0  0  0
    4.8905    1.2612    1.9947 C   0  0  0  0  0  0  0  0  0  0  0  0
    2.2228    1.2649    4.4973 C   0  0  0  0  0  0  0  0  0  0  0  0
  1 11  1  0
  1 13  1  0
  2 14  2  0
  3 15  1  0
  4 15  2  0
  5 16  2  0
  6 16  1  0
  8 14  1  0
  8 17  1  0
  8 18  1  0
  9  6  1  6
  9 10  1  0
  9 11  1  0
 10 12  1  0
 10  7  1  1
 11 14  1  1
 12 13  1  0
 13 15  1  6
 16 19  1  0
 17 20  1  0
 18 21  1  0
M  END
>  <DRUGBANK_ID>  (1) 
DB02529

>  <SECONDARY_ACCESSION_NUMBERS>  (1) 
EXPT01524

>  <COMMON_NAME>  (1) 
(2R,4S,5R,6R)-5-Acetamido-4-amino-6-(diethylcarbamoyl)oxane-2-carboxylic acid

$$$$
