
     RDKit          3D

 23 25  0  0  0  0  0  0  0  0999 V2000
    0.8758   -0.1938   -0.0395 C   0  0  0  0  0  0  0  0  0  0  0  0
    0.3774   -1.5405    0.2590 N   0  0  0  0  0  0  0  0  0  0  0  0
   -0.4356   -1.6686    1.4656 C   0  0  0  0  0  0  0  0  0  0  0  0
    0.8668   -2.6284   -0.5033 C   0  0  0  0  0  0  0  0  0  0  0  0
    1.6623   -2.5193   -1.4391 O   0  0  0  0  0  0  0  0  0  0  0  0
    0.4464   -3.9339   -0.1381 N   0  0  0  0  0  0  0  0  0  0  0  0
   -0.8510   -4.1745    0.2035 N   0  0  0  0  0  0  0  0  0  0  0  0
   -0.9780   -5.4844    0.3231 N   0  0  0  0  0  0  0  0  0  0  0  0
    0.1994   -6.1154    0.0697 N   0  0  0  0  0  0  0  0  0  0  0  0
    1.0899   -5.1774   -0.2067 C   0  0  0  0  0  0  0  0  0  0  0  0
    2.5352   -5.4514   -0.4901 C   0  0  0  0  0  0  0  0  0  0  0  0
    3.3062   -6.1152    0.6525 C   0  0  0  0  0  0  0  0  0  0  0  0
    2.9205   -7.3637    1.1770 C   0  0  0  0  0  0  0  0  0  0  0  0
    3.6838   -8.0144    2.1606 C   0  0  0  0  0  0  0  0  0  0  0  0
    4.8673   -7.4441    2.6363 C   0  0  0  0  0  0  0  0  0  0  0  0
    5.2887   -6.2349    2.0574 C   0  0  0  0  0  0  0  0  0  0  0  0
    4.5024   -5.5560    1.1182 C   0  0  0  0  0  0  0  0  0  0  0  0
    5.6641   -8.0484    3.7150 C   0  0  0  0  0  0  0  0  0  0  0  0
    6.1619   -9.3554    3.6264 C   0  0  0  0  0  0  0  0  0  0  0  0
    7.0428   -9.8490    4.5937 C   0  0  0  0  0  0  0  0  0  0  0  0
    7.4402   -9.0414    5.6585 C   0  0  0  0  0  0  0  0  0  0  0  0
    6.9391   -7.7489    5.7737 C   0  0  0  0  0  0  0  0  0  0  0  0
    6.0195   -7.2775    4.8373 C   0  0  0  0  0  0  0  0  0  0  0  0
  1  2  1  0
  2  3  1  0
  2  4  1  0
  4  5  2  0
  4  6  1  0
  6  7  1  0
  6 10  1  0
  7  8  2  0
  8  9  1  0
  9 10  2  0
 10 11  1  0
 11 12  1  0
 12 13  2  0
 12 17  1  0
 13 14  1  0
 14 15  2  0
 15 16  1  0
 15 18  1  0
 16 17  2  0
 18 19  2  0
 18 23  1  0
 19 20  1  0
 20 21  2  0
 21 22  1  0
 22 23  2  0
M  END
>  <DRUGBANK_ID>  (1) 
DB17035

>  <COMMON_NAME>  (1) 
LY-2183240

>  <CAS_NUMBER>  (1) 
874902-19-9

>  <UNII>  (1) 
2WBU91OKM7

>  <SYNONYMS>  (1) 
1h-tetrazole-1-carboxamide, 5-((1,1'-biphenyl)-4-ylmethyl)-n,n-dimethyl-; 5-(biphenyl-4-ylmethyl)-n,n-dimethyl-1h-tetrazole-1-carboxamide

$$$$
