
     RDKit          3D

  9  8  0  0  0  0  0  0  0  0999 V2000
    0.9263    0.0589    0.0153 O   0  0  0  0  0  0  0  0  0  0  0  0
    0.4786   -1.2169    0.4142 N   0  0  0  0  0  0  0  0  0  0  0  0
    1.4627   -2.2938    0.5695 C   0  0  0  0  0  0  0  0  0  0  0  0
    1.3401   -2.8597    1.9804 C   0  0  0  0  0  0  0  0  0  0  0  0
    1.0888   -4.1872    2.0541 O   0  0  0  0  0  0  0  0  0  0  0  0
    1.4741   -2.1749    2.9867 O   0  0  0  0  0  0  0  0  0  0  0  0
   -0.8594   -1.5054    0.3678 C   0  0  0  0  0  0  0  0  0  0  0  0
   -1.6487   -0.4400    0.1266 O   0  0  0  0  0  0  0  0  0  0  0  0
   -1.3069   -2.6363    0.5390 O   0  0  0  0  0  0  0  0  0  0  0  0
  1  2  1  0
  2  3  1  0
  2  7  1  0
  3  4  1  0
  4  5  1  0
  4  6  2  0
  7  8  1  0
  7  9  2  0
M  END
>  <DRUGBANK_ID>  (1) 
DB02954

>  <SECONDARY_ACCESSION_NUMBERS>  (1) 
EXPT01687

>  <COMMON_NAME>  (1) 
(Carboxyhydroxyamino)Ethanoic Acid

$$$$
