
     RDKit          3D

 11 11  0  0  0  0  0  0  0  0999 V2000
   -0.8646   -0.1689   -1.9482 O   0  0  0  0  0  0  0  0  0  0  0  0
    0.3440   -1.7668    0.9015 O   0  0  0  0  0  0  0  0  0  0  0  0
    2.5825    0.0704   -1.5937 O   0  0  0  0  0  0  0  0  0  0  0  0
    3.3897   -0.8963   -4.1553 O   0  0  0  0  0  0  0  0  0  0  0  0
    1.5985   -3.1267   -2.0193 N   0  0  0  0  0  0  0  0  0  0  0  0
    3.0523   -2.0556   -3.4530 N   0  0  0  0  0  0  0  0  0  0  0  0
    0.2849   -0.6159   -1.2104 C   0  0  1  0  0  0  0  0  0  0  0  0
   -0.0466   -1.9094   -0.4756 C   0  0  1  0  0  0  0  0  0  0  0  0
    1.4760   -0.6599   -2.1445 C   0  0  2  0  0  0  0  0  0  0  0  0
    0.5402   -3.2088   -1.0233 C   0  0  0  0  0  0  0  0  0  0  0  0
    2.0198   -2.0217   -2.5387 C   0  0  0  0  0  0  0  0  0  0  0  0
  4  6  1  0
  5 10  1  0
  5 11  2  0
  6 11  1  0
  7  8  1  0
  7  9  1  0
  7  1  1  6
  8  2  1  1
  8 10  1  0
  9 11  1  0
  9  3  1  1
M  END
>  <DRUGBANK_ID>  (1) 
DB01921

>  <SECONDARY_ACCESSION_NUMBERS>  (1) 
EXPT02054

>  <COMMON_NAME>  (1) 
Xylose-derived lactam oxime

$$$$
