
     RDKit          3D

 22 22  0  0  0  0  0  0  0  0999 V2000
   -2.1690    1.0160    0.2839 C   0  0  0  0  0  0  0  0  0  0  0  0
   -3.9162    0.4941    1.0856 C   0  0  0  0  0  0  0  0  0  0  0  0
   -1.0997    2.4837    0.1242 C   0  0  0  0  0  0  0  0  0  0  0  0
   -1.0399   -0.4203    0.5149 C   0  0  0  0  0  0  0  0  0  0  0  0
   -4.3466   -1.3099    1.1154 O   0  0  0  0  0  0  0  0  0  0  0  0
   -4.8802    1.2499    0.9998 O   0  0  0  0  0  0  0  0  0  0  0  0
    0.7388    2.1773    0.4904 C   0  0  0  0  0  0  0  0  0  0  0  0
    0.7115   -0.8473    1.0030 C   0  0  0  0  0  0  0  0  0  0  0  0
   -3.5673   -2.7952    0.2236 C   0  0  0  0  0  0  0  0  0  0  0  0
    1.5983    0.5662    0.8787 C   0  0  0  0  0  0  0  0  0  0  0  0
   -2.6038   -2.8784   -1.3650 C   0  0  0  0  0  0  0  0  0  0  0  0
    2.7704    0.1920   -0.0725 N   0  0  0  0  0  0  0  0  0  0  0  0
   -1.3770   -2.0608   -1.6627 C   0  0  0  0  0  0  0  0  0  0  0  0
   -0.4128   -2.2487   -0.5030 N   0  0  0  0  0  0  0  0  0  0  0  0
    0.2269   -0.5790   -1.1388 C   0  0  0  0  0  0  0  0  0  0  0  0
   -1.2002   -2.3235    1.2689 C   0  0  0  0  0  0  0  0  0  0  0  0
   -0.3394    0.9098   -0.6052 C   0  0  0  0  0  0  0  0  0  0  0  0
   -2.5907   -1.0686    1.4132 C   0  0  0  0  0  0  0  0  0  0  0  0
   -0.7155    1.2438    1.4638 C   0  0  0  0  0  0  0  0  0  0  0  0
   -3.3972   -0.4970   -0.5007 C   0  0  0  0  0  0  0  0  0  0  0  0
   -0.0710    1.0166    2.8424 C   0  0  0  0  0  0  0  0  0  0  0  0
   -4.8769   -0.8819   -0.8660 C   0  0  0  0  0  0  0  0  0  0  0  0
  1  2  1  0
  1  3  2  0
  1  4  1  0
  2  5  1  0
  2  6  2  0
  3  7  1  0
  4  8  2  0
  5  9  1  0
  7 10  2  0
  8 10  1  0
  9 11  1  0
 10 12  1  0
 11 13  1  0
 13 14  1  0
 14 15  1  0
 14 16  1  0
 15 17  1  0
 16 18  1  0
 17 19  1  0
 18 20  1  0
 19 21  1  0
 20 22  1  0
M  END
>  <DRUGBANK_ID>  (1) 
DB11502

>  <COMMON_NAME>  (1) 
Butacaine

>  <CAS_NUMBER>  (1) 
149-16-6

>  <UNII>  (1) 
Z84S23CGJJ

>  <SYNONYMS>  (1) 
Butacaina; Butacaine; Butacainum

$$$$
