
     RDKit          3D

 40 43  0  0  0  0  0  0  0  0999 V2000
    0.9726    0.0797   -0.0539 P   0  0  0  0  0  0  0  0  0  0  0  0
    0.9414   -1.0214    1.1459 O   0  0  0  0  0  0  0  0  0  0  0  0
    0.8888   -2.3843    0.7212 C   0  0  0  0  0  0  0  0  0  0  0  0
   -0.3464   -2.7291    0.0482 N   0  0  0  0  0  0  0  0  0  0  0  0
   -1.0937   -1.9389   -0.8021 C   0  0  0  0  0  0  0  0  0  0  0  0
   -2.5507   -1.9217   -0.2539 C   0  0  0  0  0  0  0  0  0  0  0  0
   -3.0396   -3.1991   -0.7374 O   0  0  0  0  0  0  0  0  0  0  0  0
   -2.1221   -4.2258   -0.5304 C   0  0  0  0  0  0  0  0  0  0  0  0
   -0.7965   -4.0462   -0.0633 C   0  0  0  0  0  0  0  0  0  0  0  0
   -2.5443   -5.5045   -0.7892 C   0  0  0  0  0  0  0  0  0  0  0  0
   -1.6569   -6.5514   -0.5326 C   0  0  0  0  0  0  0  0  0  0  0  0
   -0.3658   -6.2951   -0.0381 C   0  0  0  0  0  0  0  0  0  0  0  0
    0.0603   -5.0413    0.1952 N   0  0  0  0  0  0  0  0  0  0  0  0
   -0.6722   -1.4962   -1.8606 O   0  0  0  0  0  0  0  0  0  0  0  0
   -2.6855   -1.8991    1.2998 C   0  0  0  0  0  0  0  0  0  0  0  0
   -3.3896   -0.7294   -0.7513 C   0  0  0  0  0  0  0  0  0  0  0  0
    0.4828   -7.3657    0.2830 N   0  0  0  0  0  0  0  0  0  0  0  0
    1.8361   -7.2231    0.6777 C   0  0  0  0  0  0  0  0  0  0  0  0
    2.1330   -6.5861    1.8426 N   0  0  0  0  0  0  0  0  0  0  0  0
    3.4284   -6.4297    2.1702 C   0  0  0  0  0  0  0  0  0  0  0  0
    4.4384   -6.8644    1.3947 N   0  0  0  0  0  0  0  0  0  0  0  0
    4.1271   -7.4935    0.2512 C   0  0  0  0  0  0  0  0  0  0  0  0
    2.8377   -7.6985   -0.1568 C   0  0  0  0  0  0  0  0  0  0  0  0
    2.5776   -8.3211   -1.3150 F   0  0  0  0  0  0  0  0  0  0  0  0
    3.7448   -5.8221    3.3898 N   0  0  0  0  0  0  0  0  0  0  0  0
    5.0347   -5.5453    3.8732 C   0  0  0  0  0  0  0  0  0  0  0  0
    5.9247   -4.8105    3.0809 C   0  0  0  0  0  0  0  0  0  0  0  0
    7.2531   -4.6001    3.4603 C   0  0  0  0  0  0  0  0  0  0  0  0
    7.7316   -5.1454    4.6662 C   0  0  0  0  0  0  0  0  0  0  0  0
    6.8472   -5.8846    5.4854 C   0  0  0  0  0  0  0  0  0  0  0  0
    5.5044   -6.0661    5.0841 C   0  0  0  0  0  0  0  0  0  0  0  0
    7.1507   -6.4992    6.6850 O   0  0  0  0  0  0  0  0  0  0  0  0
    8.4831   -6.3780    7.1837 C   0  0  0  0  0  0  0  0  0  0  0  0
    9.0188   -5.0209    5.1177 O   0  0  0  0  0  0  0  0  0  0  0  0
    9.9948   -4.2995    4.3912 C   0  0  0  0  0  0  0  0  0  0  0  0
    8.1357   -3.8872    2.7008 O   0  0  0  0  0  0  0  0  0  0  0  0
    7.7162   -3.3151    1.4793 C   0  0  0  0  0  0  0  0  0  0  0  0
    0.9211    1.4706    0.5680 O   0  0  0  0  0  0  0  0  0  0  0  0
   -0.7574    0.0797   -0.0539 O   0  0  0  0  0  0  0  0  0  0  0  0
    2.7026    0.0797   -0.0539 O   0  0  0  0  0  0  0  0  0  0  0  0
  1  2  1  0
  1 38  2  0
  1 39  1  0
  1 40  1  0
  2  3  1  0
  3  4  1  0
  4  5  1  0
  5 14  2  0
  5  6  1  0
  6 15  1  0
  6 16  1  0
  6  7  1  0
  7  8  1  0
  8  9  2  0
  8 10  1  0
  9  4  1  0
 10 11  2  0
 11 12  1  0
 12 13  2  0
 12 17  1  0
 13  9  1  0
 17 18  1  0
 18 19  2  0
 19 20  1  0
 20 21  2  0
 20 25  1  0
 21 22  1  0
 22 23  2  0
 23 18  1  0
 23 24  1  0
 25 26  1  0
 26 27  2  0
 27 28  1  0
 28 29  2  0
 28 36  1  0
 29 30  1  0
 29 34  1  0
 30 31  2  0
 30 32  1  0
 31 26  1  0
 32 33  1  0
 34 35  1  0
 36 37  1  0
M  END
>  <DRUGBANK_ID>  (1) 
DB12010

>  <COMMON_NAME>  (1) 
Fostamatinib

>  <CAS_NUMBER>  (1) 
901119-35-5

>  <UNII>  (1) 
SQ8A3S5101

>  <SYNONYMS>  (1) 
Fostamatinib

$$$$
