K7I
     RDKit          3D

 22 22  0  0  0  0  0  0  0  0999 V2000
    1.7418   -1.6393    0.7179 C   0  0  0  0  0  0  0  0  0  0  0  0
    1.7862   -2.1240   -0.5854 C   0  0  0  0  0  0  0  0  0  0  0  0
    2.0858   -1.2577   -1.6352 C   0  0  0  0  0  0  0  0  0  0  0  0
    2.2349    0.1083   -1.3967 C   0  0  0  0  0  0  0  0  0  0  0  0
    2.0916    0.6165   -0.1079 C   0  0  0  0  0  0  0  0  0  0  0  0
    1.9930   -0.2799    0.9596 C   0  0  0  0  0  0  0  0  0  0  0  0
    2.4150    0.1719    2.3235 C   0  0  0  0  0  0  0  0  0  0  0  0
    3.9019    0.5718    2.5985 C   0  0  2  0  0  0  0  0  0  0  0  0
    4.6434    0.2750    0.2101 O   0  0  0  0  0  0  0  0  0  0  0  0
    3.9688    1.8364    3.3579 N   0  0  0  0  0  0  0  0  0  0  0  0
    3.9099    2.0901    4.6974 C   0  0  0  0  0  0  0  0  0  0  0  0
    3.7624    3.2692    5.0377 O   0  0  0  0  0  0  0  0  0  0  0  0
    3.9458    0.9804    5.7887 C   0  0  2  0  0  0  0  0  0  0  0  0
    4.9234    1.3345    6.9029 C   0  0  0  0  0  0  0  0  0  0  0  0
    4.1936   -0.4074    5.4132 N   0  0  0  0  0  0  0  0  0  0  0  0
    3.2924   -1.4314    5.2577 C   0  0  0  0  0  0  0  0  0  0  0  0
    3.6305   -2.4145    4.6127 O   0  0  0  0  0  0  0  0  0  0  0  0
    1.8927   -1.3112    5.8999 C   0  0  2  0  0  0  0  0  0  0  0  0
    1.0321   -0.2274    5.2540 C   0  0  0  0  0  0  0  0  0  0  0  0
    2.0454   -1.1208    7.3554 N   0  0  0  0  0  0  0  0  0  0  0  0
    5.0421    0.4924    1.5394 C   0  0  2  0  0  0  0  0  0  0  0  0
    5.9863   -0.6741    1.8155 C   0  0  0  0  0  0  0  0  0  0  0  0
  1  2  2  0
  1  6  1  0
  2  3  1  0
  3  4  2  0
  4  5  1  0
  5  6  2  0
  6  7  1  0
  8 10  1  0
  8  7  1  6
 10 11  1  0
 11 12  2  0
 13 15  1  0
 13 14  1  1
 13 11  1  0
 15 16  1  0
 16 17  2  0
 18 20  1  0
 18 19  1  6
 18 16  1  0
 21 22  1  1
 21  9  1  0
 21  8  1  0
M  END
>  <DRUGBANK_ID>  (1) 
DB08038

>  <COMMON_NAME>  (1) 
L-alanyl-N-[(1S,2R)-1-benzyl-2-hydroxypropyl]-L-alaninamide

$$$$
