
     RDKit          3D

 32 35  0  0  0  0  0  0  0  0999 V2000
   -1.6516    0.8122    0.0441 Br  0  0  0  0  0  0  0  0  0  0  0  0
   -0.4474   -4.0619    1.7321 O   0  0  0  0  0  0  0  0  0  0  0  0
    2.4543   -2.9099   -3.8100 O   0  0  0  0  0  0  0  0  0  0  0  0
    4.4262    0.0258    0.1261 O   0  0  0  0  0  0  0  0  0  0  0  0
    3.1378    2.6488   -0.0563 O   0  0  0  0  0  0  0  0  0  0  0  0
    0.4125   -2.8113   -1.4422 N   0  0  0  0  0  0  0  0  0  0  0  0
    1.4445   -5.6638   -0.8357 C   0  0  0  0  0  0  0  0  0  0  0  0
    1.3650   -6.2025   -2.4138 C   0  0  0  0  0  0  0  0  0  0  0  0
    1.7985   -7.4573   -1.5544 C   0  0  0  0  0  0  0  0  0  0  0  0
    0.5563   -7.1272   -0.6713 C   0  0  0  0  0  0  0  0  0  0  0  0
    2.5275   -5.3085    0.2845 C   0  0  0  0  0  0  0  0  0  0  0  0
    3.0663   -7.4759   -0.6129 C   0  0  0  0  0  0  0  0  0  0  0  0
    2.9214   -6.6715    0.7098 C   0  0  0  0  0  0  0  0  0  0  0  0
   -0.0536   -6.1270   -3.1626 C   0  0  0  0  0  0  0  0  0  0  0  0
    2.3801   -6.0603   -3.5489 C   0  0  0  0  0  0  0  0  0  0  0  0
    2.1919   -4.3971    1.5994 C   0  0  0  0  0  0  0  0  0  0  0  0
    0.8923   -3.5973    1.8048 C   0  0  0  0  0  0  0  0  0  0  0  0
   -0.7293   -4.7590    0.5434 C   0  0  0  0  0  0  0  0  0  0  0  0
   -0.7731   -4.0177   -0.9357 C   0  0  0  0  0  0  0  0  0  0  0  0
    0.1903   -2.2295   -2.8822 C   0  0  0  0  0  0  0  0  0  0  0  0
    2.0355   -2.7999   -1.4575 C   0  0  0  0  0  0  0  0  0  0  0  0
   -0.1116   -1.7985   -0.4317 C   0  0  0  0  0  0  0  0  0  0  0  0
    1.0391   -2.8748   -4.0139 C   0  0  0  0  0  0  0  0  0  0  0  0
    2.8499   -3.4027   -2.5546 C   0  0  0  0  0  0  0  0  0  0  0  0
    0.7983   -0.6949    0.0068 C   0  0  0  0  0  0  0  0  0  0  0  0
    2.1857   -0.8499    0.3372 C   0  0  0  0  0  0  0  0  0  0  0  0
    0.2288    0.5311    0.0263 C   0  0  0  0  0  0  0  0  0  0  0  0
    3.0774    0.2056    0.1834 C   0  0  0  0  0  0  0  0  0  0  0  0
    1.0847    1.6240    0.0414 C   0  0  0  0  0  0  0  0  0  0  0  0
    2.4858    1.4449    0.0514 C   0  0  0  0  0  0  0  0  0  0  0  0
    5.1094   -1.2287    0.1164 C   0  0  0  0  0  0  0  0  0  0  0  0
    4.5519    2.5915   -0.0278 C   0  0  0  0  0  0  0  0  0  0  0  0
  1 27  1  0
  2 17  1  0
  2 18  1  0
  3 23  1  0
  3 24  1  0
  4 28  1  0
  4 31  1  0
  5 30  1  0
  5 32  1  0
  6 19  1  0
  6 20  1  0
  6 21  1  0
  6 22  1  0
  7  8  1  0
  7 10  1  0
  7 11  1  0
  8  9  1  0
  8 14  1  0
  8 15  1  0
  9 10  1  0
  9 12  1  0
 11 13  1  0
 11 16  1  0
 12 13  1  0
 16 17  1  0
 18 19  1  0
 20 23  1  0
 21 24  1  0
 22 25  1  0
 25 26  2  0
 25 27  1  0
 26 28  1  0
 27 29  2  0
 28 30  2  0
 29 30  1  0
M  CHG  1   6   1
M  END
>  <DRUGBANK_ID>  (1) 
DB09090

>  <COMMON_NAME>  (1) 
Pinaverium

>  <CAS_NUMBER>  (1) 
59995-65-2

>  <UNII>  (1) 
U2368VVE7O

$$$$
