I38
     RDKit          3D

 11 10  0  0  0  0  0  0  0  0999 V2000
    5.3222   -2.2986    0.5979 S   0  0  0  0  0  0  0  0  0  0  0  0
    5.5526   -2.0797   -1.1667 C   0  0  0  0  0  0  0  0  0  0  0  0
    4.5027   -1.5257   -2.1631 C   0  0  0  0  0  0  0  0  0  0  0  0
    3.7558   -0.2651   -1.7869 C   0  0  0  0  0  0  0  0  0  0  0  0
    4.0099    0.7911   -2.3718 O   0  0  0  0  0  0  0  0  0  0  0  0
    2.7158   -0.2818   -0.8970 N   0  0  0  0  0  0  0  0  0  0  0  0
    2.1646   -1.3182    0.0305 C   0  0  2  0  0  0  0  0  0  0  0  0
    2.6115   -1.0495    1.5120 C   0  0  0  0  0  0  0  0  0  0  0  0
    2.0621   -2.8104   -0.5750 C   0  0  0  0  0  0  0  0  0  0  0  0
    1.0558   -3.3880   -0.8757 O   0  0  0  0  0  0  0  0  0  0  0  0
    3.2585   -3.3749   -0.8634 O   0  0  0  0  0  0  0  0  0  0  0  0
  1  2  1  0
  2  3  1  0
  3  4  1  0
  4  5  2  0
  4  6  1  0
  7  9  1  0
  7  8  1  1
  7  6  1  0
  9 10  2  0
  9 11  1  0
M  END
>  <DRUGBANK_ID>  (1) 
DB07939

>  <COMMON_NAME>  (1) 
N-(3-MERCAPTOPROPANOYL)-D-ALANINE

$$$$
