4MB
     RDKit          3D

 14 14  0  0  0  0  0  0  0  0999 V2000
    1.3206   -0.2655   -0.0191 C   0  0  0  0  0  0  0  0  0  0  0  0
   -0.5141    1.3434    0.0710 C   0  0  0  0  0  0  0  0  0  0  0  0
    0.8892   -2.6858   -0.2125 N   0  0  0  0  0  0  0  0  0  0  0  0
    0.4111   -1.3382   -0.0289 C   0  0  0  0  0  0  0  0  0  0  0  0
    0.8586    1.0709    0.0070 C   0  0  0  0  0  0  0  0  0  0  0  0
   -1.0198    2.7120    0.3230 C   0  0  0  0  0  0  0  0  0  0  0  0
   -1.4085    0.2878   -0.0013 C   0  0  0  0  0  0  0  0  0  0  0  0
    0.2637   -4.9092   -1.5824 C   0  0  0  0  0  0  0  0  0  0  0  0
   -0.9429   -1.0203   -0.0321 C   0  0  0  0  0  0  0  0  0  0  0  0
   -0.3337    3.7115    0.4736 O   0  0  0  0  0  0  0  0  0  0  0  0
   -2.3589    2.7412    0.4649 O   0  0  0  0  0  0  0  0  0  0  0  0
   -0.0895   -4.0719   -0.0591 S   0  0  0  0  0  0  0  0  0  0  0  0
    0.4540   -4.8645    1.0195 O   0  0  0  0  0  0  0  0  0  0  0  0
   -1.5054   -3.7834   -0.1231 O   0  0  0  0  0  0  0  0  0  0  0  0
  1  4  2  0
  1  5  1  0
  2  5  2  0
  2  6  1  0
  2  7  1  0
  3  4  1  0
  3 12  1  0
  4  9  1  0
  6 10  2  0
  6 11  1  0
  7  9  2  0
  8 12  1  0
 12 13  2  0
 12 14  2  0
M  END
>  <DRUGBANK_ID>  (1) 
DB07114

>  <COMMON_NAME>  (1) 
4-[(METHYLSULFONYL)AMINO]BENZOIC ACID

>  <UNII>  (1) 
UHN43WS7FF

$$$$
