WR1
     RDKit          3D

 29 30  0  0  0  0  0  0  0  0999 V2000
    4.9668    3.0699   -0.6606 O   0  0  0  0  0  0  0  0  0  0  0  0
    4.0173    3.8023   -0.3753 C   0  0  0  0  0  0  0  0  0  0  0  0
    4.2077    4.9033    0.4057 O   0  0  0  0  0  0  0  0  0  0  0  0
    3.2205    5.9221    0.6576 C   0  0  0  0  0  0  0  0  0  0  0  0
    2.8161    6.5076   -0.6563 C   0  0  0  0  0  0  0  0  0  0  0  0
    1.6711    6.0408   -1.3177 C   0  0  0  0  0  0  0  0  0  0  0  0
    1.4413    6.3576   -2.6436 C   0  0  0  0  0  0  0  0  0  0  0  0
    2.2431    7.3092   -3.2544 C   0  0  0  0  0  0  0  0  0  0  0  0
    3.3142    7.8790   -2.5631 C   0  0  0  0  0  0  0  0  0  0  0  0
    3.6581    7.4142   -1.2995 C   0  0  0  0  0  0  0  0  0  0  0  0
    2.7179    3.4452   -0.6114 N   0  0  0  0  0  0  0  0  0  0  0  0
    2.3464    2.1590   -1.1880 C   0  0  1  0  0  0  0  0  0  0  0  0
    2.6205    2.2336   -2.7119 C   0  0  0  0  0  0  0  0  0  0  0  0
    2.2950    0.9897   -3.4839 C   0  0  0  0  0  0  0  0  0  0  0  0
    1.1919    0.8553   -4.3288 C   0  0  0  0  0  0  0  0  0  0  0  0
    0.8615   -0.4099   -4.8276 C   0  0  0  0  0  0  0  0  0  0  0  0
    1.6267   -1.5287   -4.4877 C   0  0  0  0  0  0  0  0  0  0  0  0
    2.7491   -1.3807   -3.6895 C   0  0  0  0  0  0  0  0  0  0  0  0
    3.1233   -0.1136   -3.2795 C   0  0  0  0  0  0  0  0  0  0  0  0
    2.9564    0.9980   -0.3097 C   0  0  0  0  0  0  0  0  0  0  0  0
    3.1004   -0.1702   -0.6693 O   0  0  0  0  0  0  0  0  0  0  0  0
    3.2528    1.1685    1.0087 N   0  0  0  0  0  0  0  0  0  0  0  0
    2.9504    2.2421    1.9251 C   0  0  2  0  0  0  0  0  0  0  0  0
    4.2219    2.8675    2.4780 C   0  0  0  0  0  0  0  0  0  0  0  0
    1.9905    1.7458    2.9808 C   0  0  0  0  0  0  0  0  0  0  0  0
    0.9069    1.2410    2.6646 O   0  0  0  0  0  0  0  0  0  0  0  0
    2.3246    2.0061    4.4238 C   0  0  0  0  0  0  0  0  0  0  0  0
    1.2993    2.9526    4.9998 C   0  0  0  0  0  0  0  0  0  0  0  0
    0.0069    2.3736    5.0034 O   0  0  0  0  0  0  0  0  0  0  0  0
  1  2  2  0
  2  3  1  0
  2 11  1  0
  3  4  1  0
  4  5  1  0
  5  6  2  0
  5 10  1  0
  6  7  1  0
  7  8  2  0
  8  9  1  0
  9 10  2  0
 12 13  1  6
 12 20  1  0
 12 11  1  0
 13 14  1  0
 14 19  1  0
 14 15  2  0
 15 16  1  0
 16 17  2  0
 17 18  1  0
 18 19  2  0
 20 21  2  0
 20 22  1  0
 22 23  1  0
 23 25  1  0
 23 24  1  1
 25 27  1  0
 25 26  2  0
 27 28  1  0
 28 29  1  0
M  END
>  <DRUGBANK_ID>  (1) 
DB08732

>  <COMMON_NAME>  (1) 
NALPHA-[(BENZYLOXY)CARBONYL]-N-[(1R)-4-HYDROXY-1-METHYL-2-OXOBUTYL]-L-PHENYLALANINAMIDE

$$$$
