
     RDKit          3D

 16 16  0  0  1  0  0  0  0  0999 V2000
    0.9287    0.1328    0.1145 N   0  0  0  0  0  0  0  0  0  0  0  0
    0.2517    1.0044    0.8849 C   0  0  0  0  0  0  0  0  0  0  0  0
   -1.0824    0.8717    0.7666 N   0  0  0  0  0  0  0  0  0  0  0  0
    0.8793    1.8319    1.6515 N   0  0  0  0  0  0  0  0  0  0  0  0
    0.1880    2.6698    2.5454 C   0  0  0  0  0  0  0  0  0  0  0  0
   -0.8112    2.2203    3.4119 C   0  0  0  0  0  0  0  0  0  0  0  0
   -1.3612    3.0617    4.3786 C   0  0  0  0  0  0  0  0  0  0  0  0
   -0.8026    4.3165    4.6014 C   0  0  0  0  0  0  0  0  0  0  0  0
    0.2659    4.7473    3.8079 C   0  0  0  0  0  0  0  0  0  0  0  0
    0.6308    3.9763    2.6930 C   0  0  0  0  0  0  0  0  0  0  0  0
    1.1350    5.9207    4.2338 C   0  0  1  0  0  0  0  0  0  0  0  0
    2.5575    5.4611    4.6696 C   0  0  0  0  0  0  0  0  0  0  0  0
    3.7300    4.7500    3.4491 S   0  0  0  0  0  0  0  0  0  0  0  0
    1.1800    7.0249    3.1916 C   0  0  0  0  0  0  0  0  0  0  0  0
    0.6441    8.2054    3.5801 O   0  0  0  0  0  0  0  0  0  0  0  0
    1.6385    6.8947    2.0603 O   0  0  0  0  0  0  0  0  0  0  0  0
  1  2  1  0
  2  3  1  0
  2  4  2  3
  4  5  1  0
  5  6  2  0
  5 10  1  0
  6  7  1  0
  7  8  2  0
  8  9  1  0
  9 10  2  0
  9 11  1  0
 11 12  1  6
 11 14  1  0
 12 13  1  0
 14 15  1  0
 14 16  2  0
M  END
>  <DRUGBANK_ID>  (1) 
DB04723

>  <COMMON_NAME>  (1) 
2-(3-GUANIDINOPHENYL)-3-MERCAPTOPROPANOIC ACID

$$$$
