
     RDKit          3D

 34 38  0  0  1  0  0  0  0  0999 V2000
    1.0674    0.1522   -0.1276 C   0  0  0  0  0  0  0  0  0  0  0  0
    0.5744    0.3279    1.2753 C   0  0  0  0  0  0  0  0  0  0  0  0
    0.5951    1.4829    2.0100 C   0  0  0  0  0  0  0  0  0  0  0  0
    0.0623    1.2441    3.2423 N   0  0  0  0  0  0  0  0  0  0  0  0
   -0.2949   -0.0705    3.3439 C   0  0  0  0  0  0  0  0  0  0  0  0
    0.0830   -0.6651    2.1549 C   0  0  0  0  0  0  0  0  0  0  0  0
    0.0045   -2.0348    1.7846 C   0  0  0  0  0  0  0  0  0  0  0  0
    0.0564   -2.3204    0.5897 O   0  0  0  0  0  0  0  0  0  0  0  0
   -0.1108   -2.9835    2.7626 N   0  0  0  0  0  0  0  0  0  0  0  0
    0.3455   -2.7663    4.1110 C   0  0  0  0  0  0  0  0  0  0  0  0
   -0.7062   -2.0427    4.9192 C   0  0  0  0  0  0  0  0  0  0  0  0
   -0.9548   -0.5803    4.5710 C   0  0  0  0  0  0  0  0  0  0  0  0
   -0.4968   -4.3051    2.3532 C   0  0  0  0  0  0  0  0  0  0  0  0
   -1.9820   -4.3687    1.9573 C   0  0  1  0  0  0  0  0  0  0  0  0
   -2.3284   -3.5978    0.6472 C   0  0  0  0  0  0  0  0  0  0  0  0
   -1.4815   -3.9145   -0.5355 N   0  0  0  0  0  0  0  0  0  0  0  0
   -2.0573   -3.4297   -1.7971 C   0  0  0  0  0  0  0  0  0  0  0  0
   -3.3218   -4.2378   -2.1248 C   0  0  0  0  0  0  0  0  0  0  0  0
   -3.0402   -5.6554   -2.1804 O   0  0  0  0  0  0  0  0  0  0  0  0
   -2.4553   -6.0801   -0.9438 C   0  0  0  0  0  0  0  0  0  0  0  0
   -1.1491   -5.3236   -0.7068 C   0  0  0  0  0  0  0  0  0  0  0  0
   -2.4245   -5.7350    1.9529 O   0  0  0  0  0  0  0  0  0  0  0  0
    1.0871    2.7195    1.6130 C   0  0  0  0  0  0  0  0  0  0  0  0
    1.1596    3.8350    2.3273 C   0  0  0  0  0  0  0  0  0  0  0  0
    1.7178    5.0165    1.7038 C   0  0  0  0  0  0  0  0  0  0  0  0
    2.2070    5.2069    0.4234 C   0  0  0  0  0  0  0  0  0  0  0  0
    2.6826    6.4584    0.1123 C   0  0  0  0  0  0  0  0  0  0  0  0
    2.6652    7.4875    1.0611 C   0  0  0  0  0  0  0  0  0  0  0  0
    2.1578    7.2785    2.3601 C   0  0  0  0  0  0  0  0  0  0  0  0
    1.6834    6.0217    2.6656 C   0  0  0  0  0  0  0  0  0  0  0  0
    1.1301    5.5272    3.8538 N   0  0  0  0  0  0  0  0  0  0  0  0
    0.7804    4.1897    3.7285 C   0  0  0  0  0  0  0  0  0  0  0  0
    0.2797    3.4748    4.5761 O   0  0  0  0  0  0  0  0  0  0  0  0
    3.1634    6.6734   -1.1181 F   0  0  0  0  0  0  0  0  0  0  0  0
  1  2  1  0
  2  3  2  0
  2  6  1  0
  3  4  1  0
  3 23  1  0
  4  5  1  0
  5  6  2  0
  5 12  1  0
  6  7  1  0
  7  8  2  0
  7  9  1  0
  9 10  1  0
  9 13  1  0
 10 11  1  0
 11 12  1  0
 13 14  1  0
 14 15  1  0
 14 22  1  6
 15 16  1  0
 16 17  1  0
 16 21  1  0
 17 18  1  0
 18 19  1  0
 19 20  1  0
 20 21  1  0
 23 24  2  0
 24 25  1  0
 24 32  1  0
 25 26  2  0
 25 30  1  0
 26 27  1  0
 27 28  2  0
 27 34  1  0
 28 29  1  0
 29 30  2  0
 30 31  1  0
 31 32  1  0
 32 33  2  0
M  END
>  <DRUGBANK_ID>  (1) 
DB13019

>  <COMMON_NAME>  (1) 
Henatinib

>  <CAS_NUMBER>  (1) 
1239269-51-2

>  <UNII>  (1) 
TE20GB753F

$$$$
