
     RDKit          3D

 27 30  0  0  0  0  0  0  0  0999 V2000
   -1.1876    1.4569   -1.0390 C   0  0  0  0  0  0  0  0  0  0  0  0
   -1.1598    0.1966   -1.5748 C   0  0  0  0  0  0  0  0  0  0  0  0
    0.0064    2.2947   -0.8106 C   0  0  0  0  0  0  0  0  0  0  0  0
    0.1359   -0.3202   -1.7516 C   0  0  0  0  0  0  0  0  0  0  0  0
    1.3452    1.7488   -0.9011 C   0  0  0  0  0  0  0  0  0  0  0  0
    1.4564    0.4355   -1.3851 C   0  0  0  0  0  0  0  0  0  0  0  0
   -2.4522    1.7496   -0.3827 C   0  0  0  0  0  0  0  0  0  0  0  0
   -3.0938    0.9498    0.6112 N   0  0  0  0  0  0  0  0  0  0  0  0
   -3.0636    2.7786   -0.8215 N   0  0  0  0  0  0  0  0  0  0  0  0
   -4.1975    1.8044    0.8541 C   0  0  0  0  0  0  0  0  0  0  0  0
   -4.2089    2.8245   -0.1254 N   0  0  0  0  0  0  0  0  0  0  0  0
   -2.5958   -0.3397    1.4899 C   0  0  0  0  0  0  0  0  0  0  0  0
   -2.0307   -1.6716    1.1048 C   0  0  0  0  0  0  0  0  0  0  0  0
   -2.1298   -0.0755    2.7758 C   0  0  0  0  0  0  0  0  0  0  0  0
   -1.1091   -2.4465    1.9293 C   0  0  0  0  0  0  0  0  0  0  0  0
   -0.6957   -0.1848    2.6269 C   0  0  0  0  0  0  0  0  0  0  0  0
   -0.1422   -1.4829    2.0606 C   0  0  0  0  0  0  0  0  0  0  0  0
    0.0564    0.8739    2.1052 C   0  0  0  0  0  0  0  0  0  0  0  0
    0.6480    0.1410    1.1222 C   0  0  0  0  0  0  0  0  0  0  0  0
    0.8908   -1.2320    1.1316 N   0  0  0  0  0  0  0  0  0  0  0  0
    2.6389    2.3506   -0.2760 C   0  0  0  0  0  0  0  0  0  0  0  0
    2.9131    3.2000   -1.4770 C   0  0  0  0  0  0  0  0  0  0  0  0
    2.6576    2.9729    1.1340 C   0  0  0  0  0  0  0  0  0  0  0  0
    2.4608   -0.1820   -0.5460 O   0  0  0  0  0  0  0  0  0  0  0  0
   -2.2487   -0.6708   -1.5452 O   0  0  0  0  0  0  0  0  0  0  0  0
   -5.1238    1.7901    1.7543 O   0  0  0  0  0  0  0  0  0  0  0  0
    1.4912   -2.1694    0.0158 C   0  0  0  0  0  0  0  0  0  0  0  0
  1  7  1  0
  2  1  2  0
  2 25  1  0
  3  1  1  0
  4  2  1  0
  5  3  2  0
  5 21  1  0
  6  4  2  0
  6  5  1  0
  6 24  1  0
  8  7  1  0
  8 12  1  0
  9  7  2  0
 10  8  1  0
 10 26  2  0
 11  9  1  0
 11 10  1  0
 13 12  2  0
 14 12  1  0
 15 13  1  0
 16 14  2  0
 17 15  2  0
 17 16  1  0
 18 16  1  0
 19 18  2  0
 20 17  1  0
 20 19  1  0
 20 27  1  0
 21 22  1  0
 21 23  1  0
M  END
>  <DRUGBANK_ID>  (1) 
DB12047

>  <COMMON_NAME>  (1) 
Ganetespib

>  <CAS_NUMBER>  (1) 
888216-25-9

>  <UNII>  (1) 
2E8412Y946

>  <SYNONYMS>  (1) 
Ganetespib

$$$$
