
     RDKit          3D

 12 11  0  0  0  0  0  0  0  0999 V2000
    8.8002   -4.0325   -6.1654 S   0  0  0  0  0  0  0  0  0  0  0  0
    3.8441   -5.4568   -2.5255 O   0  0  0  0  0  0  0  0  0  0  0  0
    4.7905   -6.4625   -0.7542 O   0  0  0  0  0  0  0  0  0  0  0  0
    7.5878   -4.8978   -4.0203 N   0  0  0  0  0  0  0  0  0  0  0  0
    4.8679   -3.6240    0.1916 N   0  0  0  0  0  0  0  0  0  0  0  0
    8.6494   -6.5004   -5.2900 N   0  0  0  0  0  0  0  0  0  0  0  0
    6.8571   -4.0864   -1.1681 C   0  0  0  0  0  0  0  0  0  0  0  0
    7.4969   -5.3960   -1.6212 C   0  0  0  0  0  0  0  0  0  0  0  0
    5.3109   -4.0783   -1.1326 C   0  0  1  0  0  0  0  0  0  0  0  0
    7.0830   -5.8122   -3.0240 C   0  0  0  0  0  0  0  0  0  0  0  0
    4.6253   -5.4426   -1.4160 C   0  0  0  0  0  0  0  0  0  0  0  0
    8.3202   -5.2108   -5.1050 C   0  0  0  0  0  0  0  0  0  0  0  0
  1 12  2  0
  2 11  1  0
  3 11  2  0
  4 10  1  0
  4 12  1  0
  6 12  1  0
  7  8  1  0
  8 10  1  0
  9 11  1  0
  9  7  1  0
  9  5  1  1
M  END
>  <DRUGBANK_ID>  (1) 
DB03953

>  <SECONDARY_ACCESSION_NUMBERS>  (1) 
EXPT02866

>  <COMMON_NAME>  (1) 
Thiocitrulline

>  <CAS_NUMBER>  (1) 
156719-37-8

>  <SYNONYMS>  (1) 
L-thiocitrulline; Thiocitrulline

$$$$
