
     RDKit          3D

 16 16  0  0  1  0  0  0  0  0999 V2000
   -1.2974    1.3333   -0.1068 C   0  0  1  0  0  0  0  0  0  0  0  0
   -0.1065    2.0034    0.3423 O   0  0  0  0  0  0  0  0  0  0  0  0
    1.0816    1.3772   -0.1615 C   0  0  1  0  0  0  0  0  0  0  0  0
    1.1727   -0.0638    0.4666 C   0  0  1  0  0  0  0  0  0  0  0  0
   -0.0891   -0.9114    0.1280 C   0  0  2  0  0  0  0  0  0  0  0  0
   -1.3728   -0.1192    0.4137 C   0  0  2  0  0  0  0  0  0  0  0  0
    2.4046   -0.7509    0.2342 O   0  0  0  0  0  0  0  0  0  0  0  0
   -0.0601   -2.1963    0.7352 O   0  0  0  0  0  0  0  0  0  0  0  0
   -2.4999   -0.7778   -0.1710 O   0  0  0  0  0  0  0  0  0  0  0  0
   -2.5205    2.1160    0.3844 C   0  0  0  0  0  0  0  0  0  0  0  0
   -2.4602    3.4714   -0.0499 O   0  0  0  0  0  0  0  0  0  0  0  0
    1.1089    1.4870   -1.5956 O   0  0  0  0  0  0  0  0  0  0  0  0
    0.7258    0.4770   -3.6571 O   0  0  0  0  0  0  0  0  0  0  0  0
    2.7114   -0.1008   -2.2050 O   0  0  0  0  0  0  0  0  0  0  0  0
    1.0883   -0.0945   -2.2966 P   0  0  0  0  0  0  0  0  0  0  0  0
    1.0678   -1.6760   -2.9976 O   0  0  0  0  0  0  0  0  0  0  0  0
  1 10  1  1
  1  6  1  0
  2  1  1  0
  3  2  1  0
  3  4  1  0
  3 12  1  6
  4  7  1  6
  4  5  1  0
  5  8  1  1
  5  6  1  0
  6  9  1  6
 10 11  1  0
 13 15  2  0
 15 12  1  0
 15 14  1  0
 15 16  1  0
M  END
>  <DRUGBANK_ID>  (1) 
DB02843

>  <SECONDARY_ACCESSION_NUMBERS>  (1) 
EXPT01520

>  <COMMON_NAME>  (1) 
alpha-D-glucose-1-phosphate

>  <CAS_NUMBER>  (1) 
59-56-3

>  <UNII>  (1) 
CIX3U01VAU

>  <SYNONYMS>  (1) 
glucose-1-phosphate

$$$$
