
     RDKit          3D

 26 27  0  0  0  0  0  0  0  0999 V2000
   -1.3925   -2.4400   -2.3500 C   0  0  1  0  0  0  0  0  0  0  0  0
   -0.5183   -1.3175   -2.3682 O   0  0  0  0  0  0  0  0  0  0  0  0
    0.2675   -1.3016   -3.6022 C   0  0  1  0  0  0  0  0  0  0  0  0
    1.1129   -2.5889   -3.6552 C   0  0  1  0  0  0  0  0  0  0  0  0
    0.2158   -3.8297   -3.6174 C   0  0  2  0  0  0  0  0  0  0  0  0
   -0.6501   -3.8010   -2.3517 C   0  0  1  0  0  0  0  0  0  0  0  0
   -5.3316   -2.1969   -3.5985 C   0  0  2  0  0  0  0  0  0  0  0  0
   -6.2056   -2.8586   -4.6178 C   0  0  0  0  0  0  0  0  0  0  0  0
   -5.9265   -4.3653   -4.5620 C   0  0  0  0  0  0  0  0  0  0  0  0
   -4.5222   -4.7000   -4.8401 N   0  0  0  0  0  0  0  0  0  0  0  0
   -3.5871   -3.9930   -3.9345 C   0  0  1  0  0  0  0  0  0  0  0  0
   -3.9261   -2.5233   -4.0725 C   0  0  0  0  0  0  0  0  0  0  0  0
   -3.6192   -4.4968   -2.4604 C   0  0  0  0  0  0  0  0  0  0  0  0
   -3.3112   -3.6378   -1.4039 N   0  0  0  0  0  0  0  0  0  0  0  0
   -2.6197   -2.2859   -1.3728 C   0  0  2  0  0  0  0  0  0  0  0  0
   -0.7866   -0.8028   -5.0995 S   0  0  0  0  0  0  0  0  0  0  0  0
   -5.7188   -2.7107   -2.1649 C   0  0  0  0  0  0  0  0  0  0  0  0
   -7.1375   -2.5305   -1.7287 C   0  0  0  0  0  0  0  0  0  0  0  0
    0.1143   -3.9912   -1.1764 O   0  0  0  0  0  0  0  0  0  0  0  0
    0.9327   -5.0462   -3.7477 O   0  0  0  0  0  0  0  0  0  0  0  0
    2.0376   -2.5722   -4.7283 O   0  0  0  0  0  0  0  0  0  0  0  0
   -3.9435   -5.6819   -2.1923 O   0  0  0  0  0  0  0  0  0  0  0  0
   -3.3747   -0.6983   -1.5504 C   0  0  2  0  0  0  0  0  0  0  0  0
   -2.8464    0.1945   -0.4592 C   0  0  0  0  0  0  0  0  0  0  0  0
   -5.1258   -0.1067   -1.3553 Cl  0  0  0  0  0  0  0  0  0  0  0  0
   -0.6123   -2.1001   -6.3902 C   0  0  0  0  0  0  0  0  0  0  0  0
  1  2  1  1
  1  6  1  0
  2  3  1  0
  3  4  1  0
  3 16  1  6
  4  5  1  0
  4 21  1  6
  5 20  1  1
  5  6  1  0
  6 19  1  1
  7 12  1  0
  7  8  1  0
  7 17  1  1
  8  9  1  0
  9 10  1  0
 10 11  1  0
 11 12  1  0
 11 13  1  1
 13 14  1  0
 13 22  2  0
 15  1  1  0
 15 14  1  6
 16 26  1  0
 17 18  1  0
 23 25  1  0
 23 24  1  1
 23 15  1  0
M  END
>  <DRUGBANK_ID>  (1) 
DB11537

>  <COMMON_NAME>  (1) 
Pirlimycin

>  <CAS_NUMBER>  (1) 
79548-73-5

>  <UNII>  (1) 
LM19JT6G5K

>  <SYNONYMS>  (1) 
Pirlimycin; Pirlimycina; Pirlimycine; Pirlimycinum

$$$$
