
     RDKit          3D

 25 23  0  0  0  0  0  0  0  0999 V2000
    1.0612   -0.0076   -0.0787 C   0  0  0  0  0  0  0  0  0  0  0  0
    0.5545   -1.1641    0.7675 C   0  0  0  0  0  0  0  0  0  0  0  0
    1.0445   -1.0146    2.1454 N   0  0  0  0  0  0  0  0  0  0  0  0
    0.5545   -2.1330    2.9638 C   0  0  0  0  0  0  0  0  0  0  0  0
    1.1645   -3.7116    2.2674 P   0  0  0  0  0  0  0  0  0  0  0  0
   -0.2168   -4.3606    2.5285 O   0  0  0  0  0  0  0  0  0  0  0  0
    1.4793   -2.9246    0.7593 O   0  0  0  0  0  0  0  0  0  0  0  0
    1.7412   -5.2039    1.6091 O   0  0  0  0  0  0  0  0  0  0  0  0
    2.5145   -1.0146    2.1454 C   0  0  0  0  0  0  0  0  0  0  0  0
    3.1245   -2.5931    1.4490 P   0  0  0  0  0  0  0  0  0  0  0  0
    4.4580   -1.9075    1.0629 O   0  0  0  0  0  0  0  0  0  0  0  0
    2.9543   -3.3427    2.9988 O   0  0  0  0  0  0  0  0  0  0  0  0
    3.7012   -4.0854    0.7906 O   0  0  0  0  0  0  0  0  0  0  0  0
    0.5712    1.2604    0.4807 N   0  0  0  0  0  0  0  0  0  0  0  0
   -0.8988    1.2604    0.4807 C   0  0  0  0  0  0  0  0  0  0  0  0
   -1.5088   -0.1320    1.4995 P   0  0  0  0  0  0  0  0  0  0  0  0
   -0.0881   -0.3272    2.0833 O   0  0  0  0  0  0  0  0  0  0  0  0
   -2.6271    0.9308    2.2824 O   0  0  0  0  0  0  0  0  0  0  0  0
   -2.0855   -1.4483    2.4627 O   0  0  0  0  0  0  0  0  0  0  0  0
    1.0612    1.4099    1.8585 C   0  0  0  0  0  0  0  0  0  0  0  0
    0.4512    0.0176    2.8774 P   0  0  0  0  0  0  0  0  0  0  0  0
    1.9057   -0.4754    3.0745 O   0  0  0  0  0  0  0  0  0  0  0  0
   -0.2409    1.1401    3.9971 O   0  0  0  0  0  0  0  0  0  0  0  0
   -0.1255   -1.2987    3.8406 O   0  0  0  0  0  0  0  0  0  0  0  0
    1.0051   -0.0393    0.0918 Sm  0  0  0  0  0 15  0  0  0  0  0  0
  1  2  1  0
  1 14  1  0
  2  3  1  0
  3  4  1  0
  3  9  1  0
  4  5  1  0
  5  6  2  0
  5  7  1  0
  5  8  1  0
  9 10  1  0
 10 11  2  0
 10 12  1  0
 10 13  1  0
 14 15  1  0
 14 20  1  0
 15 16  1  0
 16 17  2  0
 16 18  1  0
 16 19  1  0
 20 21  1  0
 21 22  2  0
 21 23  1  0
 21 24  1  0
M  CHG  4   8  -1  13  -1  24  -1  25   3
M  ISO  1  25 153
M  END
>  <DRUGBANK_ID>  (1) 
DB05273

>  <COMMON_NAME>  (1) 
Samarium (153Sm) lexidronam

>  <CAS_NUMBER>  (1) 
122575-21-7

>  <UNII>  (1) 
745X144DZY

>  <SYNONYMS>  (1) 
153SM-EDTMP; Samarium (153 Sm) lexidronam; Samarium (153Sm) lexidronam; Samarium Sm-153 lexidronam; Samarium-153 lexidronam; Samarium-153-EDTMP

$$$$
