L15
     RDKit          3D

 15 16  0  0  0  0  0  0  0  0999 V2000
    2.2309   -0.0184    0.0002 C   0  0  0  0  0  0  0  0  0  0  0  0
    0.7490    0.0419   -0.0090 C   0  0  0  0  0  0  0  0  0  0  0  0
    0.0190   -1.0816   -0.0035 N   0  0  0  0  0  0  0  0  0  0  0  0
   -1.2530   -0.6445    0.0029 N   0  0  0  0  0  0  0  0  0  0  0  0
   -1.3618    0.7136    0.0074 C   0  0  0  0  0  0  0  0  0  0  0  0
   -0.0744    1.1933   -0.0098 C   0  0  0  0  0  0  0  0  0  0  0  0
    0.2654    2.5937   -0.0228 C   0  0  0  0  0  0  0  0  0  0  0  0
    1.0140    3.1327   -1.0745 C   0  0  0  0  0  0  0  0  0  0  0  0
    1.3158    4.4968   -1.0979 C   0  0  0  0  0  0  0  0  0  0  0  0
    0.8916    5.3278   -0.0542 C   0  0  0  0  0  0  0  0  0  0  0  0
    1.2157    6.8048   -0.0501 C   0  0  0  0  0  0  0  0  0  0  0  0
   -0.0074    7.7371   -0.1475 C   0  0  0  0  0  0  0  0  0  0  0  0
   -0.9498    7.6123    0.9673 N   0  0  0  0  0  0  0  0  0  0  0  0
    0.1946    4.7578    1.0218 C   0  0  0  0  0  0  0  0  0  0  0  0
   -0.1342    3.4077    1.0332 C   0  0  0  0  0  0  0  0  0  0  0  0
  1  2  1  0
  2  3  2  0
  2  6  1  0
  3  4  1  0
  4  5  1  0
  5  6  2  0
  6  7  1  0
  7  8  2  0
  7 15  1  0
  8  9  1  0
  9 10  2  0
 10 11  1  0
 10 14  1  0
 11 12  1  0
 12 13  1  0
 14 15  2  0
M  END
>  <DRUGBANK_ID>  (1) 
DB08070

>  <COMMON_NAME>  (1) 
2-[4-(3-METHYL-1H-PYRAZOL-4-YL)PHENYL]ETHANAMINE

$$$$
