
     RDKit          3D

 16 16  0  0  0  0  0  0  0  0999 V2000
    0.9128   -0.0083   -0.0645 C   0  0  0  0  0  0  0  0  0  0  0  0
    9.5278    1.6273    3.2881 C   0  0  0  0  0  0  0  0  0  0  0  0
    0.5658    1.4696    0.0164 C   0  0  0  0  0  0  0  0  0  0  0  0
    5.4432   -0.0512    0.8199 C   0  0  0  0  0  0  0  0  0  0  0  0
    4.7279    1.9200   -0.5377 C   0  0  0  0  0  0  0  0  0  0  0  0
    6.2940   -0.6620    1.7443 C   0  0  0  0  0  0  0  0  0  0  0  0
    3.3993    1.8976   -0.3357 C   0  0  0  0  0  0  0  0  0  0  0  0
    6.7571    1.9664    0.9337 C   0  0  0  0  0  0  0  0  0  0  0  0
    5.6514    1.2758    0.4153 C   0  0  0  0  0  0  0  0  0  0  0  0
    7.3774    0.0406    2.2670 C   0  0  0  0  0  0  0  0  0  0  0  0
    7.6217    1.3635    1.8722 C   0  0  0  0  0  0  0  0  0  0  0  0
    2.4348    2.4305   -1.3212 C   0  0  0  0  0  0  0  0  0  0  0  0
    8.1874   -0.5942    3.1679 O   0  0  0  0  0  0  0  0  0  0  0  0
    2.8070    3.0328   -2.3265 O   0  0  0  0  0  0  0  0  0  0  0  0
    8.6373    2.1763    2.3177 O   0  0  0  0  0  0  0  0  0  0  0  0
    1.1149    2.2036   -1.0991 O   0  0  0  0  0  0  0  0  0  0  0  0
  3  1  1  0
  6  4  2  0
  7  5  2  0
  9  4  1  0
  9  5  1  0
  9  8  2  0
 10  6  1  0
 11  8  1  0
 11 10  2  0
 12  7  1  0
 13 10  1  0
 14 12  2  0
 15  2  1  0
 15 11  1  0
 16  3  1  0
 16 12  1  0
M  END
>  <DRUGBANK_ID>  (1) 
DB11285

>  <COMMON_NAME>  (1) 
Ethyl ferulate

>  <CAS_NUMBER>  (1) 
4046-02-0

>  <UNII>  (1) 
5B8915UELW

>  <SYNONYMS>  (1) 
Ethyl 4'-hydroxy-3'-methoxycinnamate

$$$$
