
     RDKit          3D

  6  5  0  0  0  0  0  0  0  0999 V2000
    1.0032   -0.1297    0.0789 C   0  0  0  0  0  0  0  0  0  0  0  0
    0.5106    1.2876    0.3285 C   0  0  0  0  0  0  0  0  0  0  0  0
    0.9724    2.2530   -0.7667 C   0  0  0  0  0  0  0  0  0  0  0  0
    0.4552    1.8627   -2.1503 C   0  0  0  0  0  0  0  0  0  0  0  0
   -0.9760    1.8464   -2.1698 N   0  0  0  0  0  0  0  0  0  0  0  0
   -2.1504    1.8248   -2.1783 C   0  0  0  0  0  0  0  0  0  0  0  0
  1  2  1  0
  2  3  1  0
  3  4  1  0
  4  5  1  0
  5  6  3  0
M  CHG  2   5   1   6  -1
M  END
>  <DRUGBANK_ID>  (1) 
DB01826

>  <SECONDARY_ACCESSION_NUMBERS>  (1) 
EXPT02302

>  <COMMON_NAME>  (1) 
N-Butyl Isocyanide

>  <CAS_NUMBER>  (1) 
2769-64-4

>  <UNII>  (1) 
2T7Q0CK9IF

$$$$
