53S
     RDKit          3D

 28 30  0  0  0  0  0  0  0  0999 V2000
   -0.7049    1.2704    0.0022 C   0  0  0  0  0  0  0  0  0  0  0  0
   -1.3561    0.0483   -0.0020 C   0  0  0  0  0  0  0  0  0  0  0  0
   -1.5512    3.5981    4.7809 C   0  0  0  0  0  0  0  0  0  0  0  0
   -3.9560    9.8104    2.3115 C   0  0  0  0  0  0  0  0  0  0  0  0
   -4.1263   11.1926    2.3785 C   0  0  0  0  0  0  0  0  0  0  0  0
   -3.0824   12.0057    2.8296 C   0  0  0  0  0  0  0  0  0  0  0  0
   -3.2438   13.4911    2.9216 C   0  0  0  0  0  0  0  0  0  0  0  0
   -1.8673   11.4223    3.2040 C   0  0  0  0  0  0  0  0  0  0  0  0
   -1.7003   10.0422    3.1393 C   0  0  0  0  0  0  0  0  0  0  0  0
   -2.7445    9.2195    2.7031 C   0  0  0  0  0  0  0  0  0  0  0  0
   -2.5591    7.7723    2.6384 C   0  0  0  0  0  0  0  0  0  0  0  0
   -2.7089    7.1114    1.4152 C   0  0  0  0  0  0  0  0  0  0  0  0
   -2.2273    7.0262    3.7796 C   0  0  0  0  0  0  0  0  0  0  0  0
   -2.0523    5.6482    3.7068 C   0  0  0  0  0  0  0  0  0  0  0  0
   -1.7342    5.0101    4.8742 O   0  0  0  0  0  0  0  0  0  0  0  0
   -2.2215    5.0162    2.4816 C   0  0  0  0  0  0  0  0  0  0  0  0
   -2.5420    5.7294    1.3157 C   0  0  0  0  0  0  0  0  0  0  0  0
   -2.7731    4.9988    0.0103 C   0  0  1  0  0  0  0  0  0  0  0  0
   -2.3096    5.7906   -1.2215 C   0  0  0  0  0  0  0  0  0  0  0  0
   -2.0403    3.6670    0.0070 C   0  0  0  0  0  0  0  0  0  0  0  0
   -1.4118    2.5247    0.0042 C   0  0  0  0  0  0  0  0  0  0  0  0
   -2.8558   -0.0513   -0.0078 C   0  0  0  0  0  0  0  0  0  0  0  0
   -0.6837   -1.1342   -0.0004 N   0  0  0  0  0  0  0  0  0  0  0  0
    0.6519   -1.0796    0.0015 C   0  0  0  0  0  0  0  0  0  0  0  0
    1.3442   -2.2617    0.0070 N   0  0  0  0  0  0  0  0  0  0  0  0
    1.3645    0.0483    0.0020 N   0  0  0  0  0  0  0  0  0  0  0  0
    0.6834    1.2115    0.0023 C   0  0  0  0  0  0  0  0  0  0  0  0
    1.4571    2.3546    0.0224 N   0  0  0  0  0  0  0  0  0  0  0  0
  1  2  2  0
  1 21  1  0
  1 27  1  0
  2 22  1  0
  2 23  1  0
  3 15  1  0
  4  5  2  0
  4 10  1  0
  5  6  1  0
  6  7  1  0
  6  8  2  0
  8  9  1  0
  9 10  2  0
 10 11  1  0
 11 12  2  0
 11 13  1  0
 12 17  1  0
 13 14  2  0
 14 15  1  0
 14 16  1  0
 16 17  2  0
 17 18  1  0
 18 19  1  6
 18 20  1  0
 20 21  3  0
 23 24  2  0
 24 25  1  0
 24 26  1  0
 26 27  2  0
 27 28  1  0
M  END
>  <DRUGBANK_ID>  (1) 
DB07141

>  <COMMON_NAME>  (1) 
5-[(3R)-3-(5-methoxy-4'-methylbiphenyl-3-yl)but-1-yn-1-yl]-6-methylpyrimidine-2,4-diamine

$$$$
