WBT
     RDKit          3D

 33 37  0  0  0  0  0  0  0  0999 V2000
    2.2014   -0.0615   -0.0665 F   0  0  0  0  0  0  0  0  0  0  0  0
    0.8634   -0.0207   -0.0233 C   0  0  0  0  0  0  0  0  0  0  0  0
    0.2306    1.2210   -0.0148 C   0  0  0  0  0  0  0  0  0  0  0  0
   -1.1451    1.3145    0.1551 C   0  0  0  0  0  0  0  0  0  0  0  0
   -1.8080    0.1166    0.4025 C   0  0  0  0  0  0  0  0  0  0  0  0
   -1.2515   -1.1452    0.1382 C   0  0  0  0  0  0  0  0  0  0  0  0
    0.1352   -1.2082   -0.0050 C   0  0  0  0  0  0  0  0  0  0  0  0
   -2.0777   -2.4096    0.0103 C   0  0  0  0  0  0  0  0  0  0  0  0
   -1.5014   -3.4904   -0.0027 O   0  0  0  0  0  0  0  0  0  0  0  0
   -3.4756   -2.4057   -0.0427 N   0  0  0  0  0  0  0  0  0  0  0  0
   -4.3601   -1.3276   -0.2157 C   0  0  0  0  0  0  0  0  0  0  0  0
   -4.0862   -0.3653   -1.1892 C   0  0  0  0  0  0  0  0  0  0  0  0
   -4.7123    0.8722   -1.1438 C   0  0  0  0  0  0  0  0  0  0  0  0
   -5.7151    1.1024   -0.1963 C   0  0  0  0  0  0  0  0  0  0  0  0
   -6.4782    2.2501    0.0795 C   0  0  0  0  0  0  0  0  0  0  0  0
   -7.3918    1.8824    1.0190 C   0  0  0  0  0  0  0  0  0  0  0  0
   -7.1096    0.6180    1.4732 N   0  0  0  0  0  0  0  0  0  0  0  0
   -7.8751   -0.0586    2.5193 C   0  0  0  0  0  0  0  0  0  0  0  0
   -7.9104    0.6772    3.8794 C   0  0  0  0  0  0  0  0  0  0  0  0
   -8.5715    2.0390    3.8209 C   0  0  0  0  0  0  0  0  0  0  0  0
   -9.8173    2.2123    3.1994 C   0  0  0  0  0  0  0  0  0  0  0  0
  -10.2044    3.4978    2.8491 C   0  0  0  0  0  0  0  0  0  0  0  0
   -9.5316    4.6071    3.2163 N   0  0  0  0  0  0  0  0  0  0  0  0
   -8.4056    4.4225    3.9386 C   0  0  0  0  0  0  0  0  0  0  0  0
   -7.8668    3.1774    4.2236 C   0  0  0  0  0  0  0  0  0  0  0  0
   -6.0837    0.0892    0.7029 C   0  0  0  0  0  0  0  0  0  0  0  0
   -5.4131   -1.1550    0.7069 C   0  0  0  0  0  0  0  0  0  0  0  0
   -1.7996    2.5183    0.0553 N   0  0  0  0  0  0  0  0  0  0  0  0
   -1.5984    3.3549   -1.1401 C   0  0  0  0  0  0  0  0  0  0  0  0
   -1.3754    4.7903   -0.6543 C   0  0  0  0  0  0  0  0  0  0  0  0
   -2.4955    5.2612    0.1213 O   0  0  0  0  0  0  0  0  0  0  0  0
   -2.7093    4.4144    1.2724 C   0  0  0  0  0  0  0  0  0  0  0  0
   -2.9573    2.9555    0.8513 C   0  0  0  0  0  0  0  0  0  0  0  0
  1  2  1  0
  2  3  2  0
  2  7  1  0
  3  4  1  0
  4  5  2  0
  4 28  1  0
  5  6  1  0
  6  7  2  0
  6  8  1  0
  8  9  2  0
  8 10  1  0
 10 11  1  0
 11 12  2  0
 11 27  1  0
 12 13  1  0
 13 14  2  0
 14 15  1  0
 14 26  1  0
 15 16  2  0
 16 17  1  0
 17 18  1  0
 17 26  1  0
 18 19  1  0
 19 20  1  0
 20 21  2  0
 20 25  1  0
 21 22  1  0
 22 23  2  0
 23 24  1  0
 24 25  2  0
 26 27  2  0
 28 29  1  0
 28 33  1  0
 29 30  1  0
 30 31  1  0
 31 32  1  0
 32 33  1  0
M  END
>  <DRUGBANK_ID>  (1) 
DB08730

>  <COMMON_NAME>  (1) 
3-FLUORO-5-MORPHOLIN-4-YL-N-[1-(2-PYRIDIN-4-YLETHYL)-1H-INDOL-6-YL]BENZAMIDE

$$$$
