
     RDKit          3D

 26 25  0  0  0  0  0  0  0  0999 V2000
    1.5420    0.3219    0.1086 N   0  0  0  0  0  0  0  0  0  0  0  0
    1.0559    1.3575   -0.8503 C   0  0  1  0  0  0  0  0  0  0  0  0
    1.2534    0.8938   -2.2752 C   0  0  0  0  0  0  0  0  0  0  0  0
    0.7445   -0.5216   -2.6845 C   0  0  0  0  0  0  0  0  0  0  0  0
   -0.7173   -1.0622   -2.6061 C   0  0  0  0  0  0  0  0  0  0  0  0
   -1.2302   -1.4440   -3.6716 O   0  0  0  0  0  0  0  0  0  0  0  0
   -1.5022   -1.1463   -1.4427 N   0  0  0  0  0  0  0  0  0  0  0  0
   -1.1863   -0.8276    0.0481 C   0  0  1  0  0  0  0  0  0  0  0  0
   -1.4993    0.5660    1.0802 C   0  0  0  0  0  0  0  0  0  0  0  0
   -1.5012   -1.9590    0.9389 C   0  0  0  0  0  0  0  0  0  0  0  0
   -0.6020   -2.6807    1.3951 O   0  0  0  0  0  0  0  0  0  0  0  0
   -2.8170   -2.0965    1.2610 N   0  0  0  0  0  0  0  0  0  0  0  0
   -3.9010   -1.2484    0.8034 C   0  0  0  0  0  0  0  0  0  0  0  0
   -4.9546   -1.7268   -0.1609 C   0  0  0  0  0  0  0  0  0  0  0  0
   -6.1484   -1.5187   -0.0677 O   0  0  0  0  0  0  0  0  0  0  0  0
   -4.4055   -2.1889   -1.3084 O   0  0  0  0  0  0  0  0  0  0  0  0
   -0.3192    1.9845   -0.7658 C   0  0  0  0  0  0  0  0  0  0  0  0
   -0.6711    3.0069   -0.2764 O   0  0  0  0  0  0  0  0  0  0  0  0
   -1.1757    1.0759   -1.2209 O   0  0  0  0  0  0  0  0  0  0  0  0
   -3.1916    1.7090    0.9703 S   0  0  0  0  0  0  0  0  0  0  0  0
   -4.0908    1.5047   -0.7621 C   0  0  0  0  0  0  0  0  0  0  0  0
   -3.8389    2.6104   -1.8053 C   0  0  0  0  0  0  0  0  0  0  0  0
   -2.5503    2.6942   -2.6177 C   0  0  0  0  0  0  0  0  0  0  0  0
   -2.2064    1.3541   -3.2861 C   0  0  0  0  0  0  0  0  0  0  0  0
   -2.8558    1.0646   -4.5752 C   0  0  0  0  0  0  0  0  0  0  0  0
   -2.2901    2.1239   -5.4604 C   0  0  0  0  0  0  0  0  0  0  0  0
  2  1  1  1
  2  3  1  0
  2 17  1  0
  3  4  1  0
  4  5  1  0
  5  6  2  0
  5  7  1  0
  7  8  1  0
  8  9  1  1
  8 10  1  0
  9 20  1  0
 10 11  2  0
 10 12  1  0
 12 13  1  0
 13 14  1  0
 14 15  2  0
 14 16  1  0
 17 18  2  0
 17 19  1  0
 20 21  1  0
 21 22  1  0
 22 23  1  0
 23 24  1  0
 24 25  1  0
 25 26  1  0
M  END
>  <DRUGBANK_ID>  (1) 
DB04132

>  <SECONDARY_ACCESSION_NUMBERS>  (1) 
EXPT01664

>  <COMMON_NAME>  (1) 
S-Hexylglutathione

>  <CAS_NUMBER>  (1) 
24425-56-7

>  <UNII>  (1) 
M73SNN908F

>  <SYNONYMS>  (1) 
Hexylglutathione; S-Hexyl-glutathione; S-Hexyl-L-glutathione

$$$$
