
     RDKit          3D

 23 23  0  0  0  0  0  0  0  0999 V2000
   -3.2442    1.4394   -0.4196 O   0  0  0  0  0  0  0  0  0  0  0  0
   -5.0932   -0.7140    0.1231 O   0  0  0  0  0  0  0  0  0  0  0  0
   -2.3573   -2.1158   -1.4645 O   0  0  0  0  0  0  0  0  0  0  0  0
   -3.2863    3.8703    2.0104 O   0  0  0  0  0  0  0  0  0  0  0  0
   -3.6749   -4.7249    0.0726 O   0  0  0  0  0  0  0  0  0  0  0  0
   -2.2046    1.9508    2.4154 O   0  0  0  0  0  0  0  0  0  0  0  0
    0.6836   -3.0413    1.2787 O   0  0  0  0  0  0  0  0  0  0  0  0
   -0.4352   -1.2894    0.4679 N   0  0  0  0  0  0  0  0  0  0  0  0
    0.9374    1.1984   -0.4039 N   0  0  0  0  0  0  0  0  0  0  0  0
    1.8970    1.2579    1.7606 N   0  0  0  0  0  0  0  0  0  0  0  0
    3.1758    1.0998   -0.0634 N   0  0  0  0  0  0  0  0  0  0  0  0
   -1.1928   -0.0590   -0.2330 C   0  0  1  0  0  0  0  0  0  0  0  0
   -2.7616    0.1665    0.0715 C   0  0  2  0  0  0  0  0  0  0  0  0
   -0.4298    1.2592    0.1292 C   0  0  2  0  0  0  0  0  0  0  0  0
   -1.1141    2.5119   -0.4284 C   0  0  0  0  0  0  0  0  0  0  0  0
   -3.8254   -0.8447   -0.5039 C   0  0  1  0  0  0  0  0  0  0  0  0
   -2.5565    2.5798    0.0594 C   0  0  2  0  0  0  0  0  0  0  0  0
   -3.2593   -2.2177   -0.3347 C   0  0  1  0  0  0  0  0  0  0  0  0
   -2.6565    2.7663    1.5867 C   0  0  0  0  0  0  0  0  0  0  0  0
   -4.0933   -3.5013   -0.5830 C   0  0  0  0  0  0  0  0  0  0  0  0
   -0.2073   -2.6522    0.5099 C   0  0  0  0  0  0  0  0  0  0  0  0
    1.9258    1.2020    0.4150 C   0  0  0  0  0  0  0  0  0  0  0  0
   -0.9974   -3.7769   -0.1283 C   0  0  0  0  0  0  0  0  0  0  0  0
 13  1  1  6
  1 17  1  0
  4 19  1  0
  5 20  1  0
  6 19  2  0
  7 21  2  0
  8 21  1  0
  9 22  2  3
 10 22  1  0
 11 22  1  0
 12 13  1  0
 12 14  1  0
 12  8  1  1
 14 15  1  0
 14  9  1  6
 15 17  1  0
 16 13  1  0
 16  2  1  1
 17 19  1  1
 18 20  1  0
 18 16  1  0
 18  3  1  6
 21 23  1  0
M  END
>  <DRUGBANK_ID>  (1) 
DB03420

>  <SECONDARY_ACCESSION_NUMBERS>  (1) 
EXPT01624

>  <COMMON_NAME>  (1) 
2,4-deoxy-4-guanidino-5-N-acetyl-neuraminic acid

>  <SYNONYMS>  (1) 
(2R,4S,5R,6R)-5-Acetamido-4-(diaminomethylideneamino)-6-[(1R,2R)-1,2,3-trihydroxypropyl]oxane-2-carboxylic acid

$$$$
