
     RDKit          3D

  5  4  0  0  0  0  0  0  0  0999 V2000
    1.0544    0.0121   -0.0493 C   0  0  0  0  0  0  0  0  0  0  0  0
    0.5551   -0.4732    1.2977 C   0  0  0  0  0  0  0  0  0  0  0  0
    0.5365    1.3859   -0.3686 C   0  0  0  0  0  0  0  0  0  0  0  0
   -0.1533    1.6874   -1.3291 O   0  0  0  0  0  0  0  0  0  0  0  0
    0.9368    2.3193    0.5159 O   0  0  0  0  0  0  0  0  0  0  0  0
  1  3  1  0
  2  1  1  0
  3  4  2  0
  3  5  1  0
M  END
>  <DRUGBANK_ID>  (1) 
DB03766

>  <SECONDARY_ACCESSION_NUMBERS>  (1) 
EXPT02641

>  <COMMON_NAME>  (1) 
Propanoic acid

>  <CAS_NUMBER>  (1) 
79-09-4

>  <UNII>  (1) 
JHU490RVYR

>  <SYNONYMS>  (1) 
Propionic acid

$$$$
