4UN
     RDKit          3D

 32 35  0  0  0  0  0  0  0  0999 V2000
    0.9771    0.0204   -0.1608 O   0  0  0  0  0  0  0  0  0  0  0  0
    2.4028    0.0160    0.0201 S   0  0  0  0  0  0  0  0  0  0  0  0
    3.0750   -1.0562    0.7247 O   0  0  0  0  0  0  0  0  0  0  0  0
    3.0307    0.0213   -1.4583 O   0  0  0  0  0  0  0  0  0  0  0  0
    2.9472    1.4503    0.6468 N   0  0  0  0  0  0  0  0  0  0  0  0
    2.0674    2.3895    1.2357 C   0  0  0  0  0  0  0  0  0  0  0  0
    0.9957    2.0276    2.0543 C   0  0  0  0  0  0  0  0  0  0  0  0
    0.1774    3.0062    2.6341 C   0  0  0  0  0  0  0  0  0  0  0  0
    0.4291    4.3614    2.4057 C   0  0  0  0  0  0  0  0  0  0  0  0
    1.4798    4.6905    1.5462 C   0  0  0  0  0  0  0  0  0  0  0  0
    2.3310    3.7306    1.0127 C   0  0  0  0  0  0  0  0  0  0  0  0
   -0.4020    5.4682    3.0346 C   0  0  0  0  0  0  0  0  0  0  0  0
    0.3111    6.3974    4.0947 C   0  0  0  0  0  0  0  0  0  0  0  0
    1.5474    7.1137    3.4920 C   0  0  0  0  0  0  0  0  0  0  0  0
    1.5174    8.3702    3.0093 N   0  0  0  0  0  0  0  0  0  0  0  0
    2.7464    8.5552    2.4170 O   0  0  0  0  0  0  0  0  0  0  0  0
    3.4018    7.3739    2.5285 C   0  0  0  0  0  0  0  0  0  0  0  0
    4.5978    7.2368    1.6846 C   0  0  0  0  0  0  0  0  0  0  0  0
    2.7663    6.4920    3.2706 N   0  0  0  0  0  0  0  0  0  0  0  0
   -0.6734    7.4755    4.5636 C   0  0  0  0  0  0  0  0  0  0  0  0
   -1.9831    7.2721    4.8015 N   0  0  0  0  0  0  0  0  0  0  0  0
   -2.4154    8.4890    5.3450 O   0  0  0  0  0  0  0  0  0  0  0  0
   -1.3677    9.3469    5.2220 C   0  0  0  0  0  0  0  0  0  0  0  0
   -1.5936   10.7716    5.4784 C   0  0  0  0  0  0  0  0  0  0  0  0
   -0.2738    8.7644    4.8227 N   0  0  0  0  0  0  0  0  0  0  0  0
    0.7888    5.5047    5.2955 C   0  0  0  0  0  0  0  0  0  0  0  0
   -0.2719    4.7314    6.0622 C   0  0  0  0  0  0  0  0  0  0  0  0
   -0.3096    3.3331    6.0373 C   0  0  0  0  0  0  0  0  0  0  0  0
   -1.2983    2.6368    6.7389 C   0  0  0  0  0  0  0  0  0  0  0  0
   -2.2758    3.3280    7.4527 C   0  0  0  0  0  0  0  0  0  0  0  0
   -2.2350    4.7128    7.5085 C   0  0  0  0  0  0  0  0  0  0  0  0
   -1.2213    5.3973    6.8468 C   0  0  0  0  0  0  0  0  0  0  0  0
  1  2  2  0
  2  3  2  0
  2  4  1  0
  2  5  1  0
  5  6  1  0
  6  7  2  0
  6 11  1  0
  7  8  1  0
  8  9  2  0
  9 10  1  0
  9 12  1  0
 10 11  2  0
 12 13  1  0
 13 14  1  0
 13 20  1  0
 13 26  1  0
 14 15  2  0
 14 19  1  0
 15 16  1  0
 16 17  1  0
 17 18  1  0
 17 19  2  0
 20 21  2  0
 20 25  1  0
 21 22  1  0
 22 23  1  0
 23 24  1  0
 23 25  2  0
 26 27  1  0
 27 28  2  0
 27 32  1  0
 28 29  1  0
 29 30  2  0
 30 31  1  0
 31 32  2  0
M  END
>  <DRUGBANK_ID>  (1) 
DB07127

>  <COMMON_NAME>  (1) 
{4-[2,2-BIS(5-METHYL-1,2,4-OXADIAZOL-3-YL)-3-PHENYLPROPYL]PHENYL}SULFAMIC ACID

$$$$
