
     RDKit          3D

 14 14  0  0  1  0  0  0  0  0999 V2000
    2.3679    0.1166    0.3391 C   0  0  0  0  0  0  0  0  0  0  0  0
    1.6756    1.2917    0.0920 C   0  0  0  0  0  0  0  0  0  0  0  0
    0.2845    1.2644    0.0173 C   0  0  0  0  0  0  0  0  0  0  0  0
   -0.4071    0.0458    0.0629 C   0  0  0  0  0  0  0  0  0  0  0  0
    0.2864   -1.1620    0.2342 C   0  0  0  0  0  0  0  0  0  0  0  0
    1.6675   -1.0786    0.4992 C   0  0  0  0  0  0  0  0  0  0  0  0
   -0.3499   -2.5244    0.0072 C   0  0  1  0  0  0  0  0  0  0  0  0
    0.0859   -3.2350   -1.3118 C   0  0  0  0  0  0  0  0  0  0  0  0
    1.4946   -3.5793   -1.3251 O   0  0  0  0  0  0  0  0  0  0  0  0
    2.3190   -2.6313   -1.8455 C   0  0  0  0  0  0  0  0  0  0  0  0
    1.9863   -1.6184   -2.4157 O   0  0  0  0  0  0  0  0  0  0  0  0
    3.6066   -2.8993   -1.4988 N   0  0  0  0  0  0  0  0  0  0  0  0
   -0.0864   -3.3710    1.1315 O   0  0  0  0  0  0  0  0  0  0  0  0
   -2.1253    0.1129   -0.1063 Cl  0  0  0  0  0  0  0  0  0  0  0  0
  1  2  2  0
  1  6  1  0
  2  3  1  0
  3  4  2  0
  4  5  1  0
  4 14  1  0
  5  6  2  0
  5  7  1  0
  7  8  1  0
  7 13  1  1
  8  9  1  0
  9 10  1  0
 10 11  2  0
 10 12  1  0
M  END
>  <DRUGBANK_ID>  (1) 
DB12338

>  <COMMON_NAME>  (1) 
Carisbamate

>  <CAS_NUMBER>  (1) 
194085-75-1

>  <UNII>  (1) 
P7725I9V3Z

>  <SYNONYMS>  (1) 
Carisbamate

$$$$
