
     RDKit          3D

 19 21  0  0  0  0  0  0  0  0999 V2000
    1.0533    0.1214    0.1349 C   0  0  0  0  0  0  0  0  0  0  0  0
   -5.8514    4.9206   -3.4963 C   0  0  0  0  0  0  0  0  0  0  0  0
   -5.9625    3.5936   -3.1787 C   0  0  0  0  0  0  0  0  0  0  0  0
   -4.5952    5.5329   -3.5325 C   0  0  0  0  0  0  0  0  0  0  0  0
   -2.9010   -1.5356   -1.5620 C   0  0  0  0  0  0  0  0  0  0  0  0
   -3.9058   -0.8754   -2.2344 C   0  0  0  0  0  0  0  0  0  0  0  0
   -4.8345    2.9502   -2.6981 C   0  0  0  0  0  0  0  0  0  0  0  0
   -3.4354    4.7613   -3.3590 C   0  0  0  0  0  0  0  0  0  0  0  0
   -1.6206   -0.9778   -1.5253 C   0  0  0  0  0  0  0  0  0  0  0  0
   -3.6206    0.3407   -2.8448 C   0  0  0  0  0  0  0  0  0  0  0  0
   -0.4997    2.0599    0.3718 C   0  0  0  0  0  0  0  0  0  0  0  0
   -1.8928    2.4739   -0.1791 C   0  0  0  0  0  0  0  0  0  0  0  0
   -0.0110    1.0076   -1.8544 C   0  0  0  0  0  0  0  0  0  0  0  0
   -3.5470    3.4374   -2.9313 C   0  0  0  0  0  0  0  0  0  0  0  0
   -1.3619    0.3214   -2.0137 C   0  0  0  0  0  0  0  0  0  0  0  0
   -2.4354    1.0495   -2.5617 C   0  0  0  0  0  0  0  0  0  0  0  0
   -2.3196    2.5966   -2.6121 C   0  0  0  0  0  0  0  0  0  0  0  0
    0.3949    1.2563   -0.4806 N   0  0  0  0  0  0  0  0  0  0  0  0
   -1.7685    3.1980   -1.4085 O   0  0  0  0  0  0  0  0  0  0  0  0
  3  2  2  0
  4  2  1  0
  6  5  2  0
  7  3  1  0
  8  4  2  0
  9  5  1  0
 10  6  1  0
 12 11  1  0
 14  7  2  0
 14  8  1  0
 15  9  2  0
 15 13  1  0
 16 10  2  0
 16 15  1  0
 17 14  1  0
 17 16  1  0
 18  1  1  0
 18 11  1  0
 18 13  1  0
 19 12  1  0
 19 17  1  0
M  END
>  <DRUGBANK_ID>  (1) 
DB12293

>  <COMMON_NAME>  (1) 
Nefopam

>  <CAS_NUMBER>  (1) 
13669-70-0

>  <UNII>  (1) 
4UP8060B7J

>  <SYNONYMS>  (1) 
Nefopam

$$$$
