OA5
     RDKit          3D

 18 19  0  0  0  0  0  0  0  0999 V2000
   -2.3161   -0.9722    0.5638 N   0  0  0  0  0  0  0  0  0  0  0  0
   -1.1431   -0.3067    0.9291 C   0  0  0  0  0  0  0  0  0  0  0  0
   -0.0245   -1.0161    0.9553 N   0  0  0  0  0  0  0  0  0  0  0  0
    1.0987   -0.3129    1.1155 C   0  0  0  0  0  0  0  0  0  0  0  0
    2.2829   -1.0161    0.8743 N   0  0  0  0  0  0  0  0  0  0  0  0
    1.1274    1.0168    1.2335 N   0  0  0  0  0  0  0  0  0  0  0  0
   -1.2379    1.0060    1.0673 N   0  0  0  0  0  0  0  0  0  0  0  0
   -0.0674    1.6295    1.1673 C   0  0  0  0  0  0  0  0  0  0  0  0
   -0.0322    2.9738    0.7842 O   0  0  0  0  0  0  0  0  0  0  0  0
   -1.2546    3.5884    0.2803 C   0  0  0  0  0  0  0  0  0  0  0  0
   -1.8981    3.3062   -1.1582 C   0  0  0  0  0  0  0  0  0  0  0  0
   -2.2706    1.9696   -1.5780 O   0  0  0  0  0  0  0  0  0  0  0  0
   -1.2449    1.1676   -2.0266 C   0  0  0  0  0  0  0  0  0  0  0  0
    0.0764    1.4966   -1.7480 C   0  0  0  0  0  0  0  0  0  0  0  0
    1.0961    0.5595   -1.7573 C   0  0  0  0  0  0  0  0  0  0  0  0
    0.8067   -0.7492   -2.0641 C   0  0  0  0  0  0  0  0  0  0  0  0
   -0.4870   -1.0797   -2.4803 C   0  0  0  0  0  0  0  0  0  0  0  0
   -1.5013   -0.1023   -2.5287 C   0  0  0  0  0  0  0  0  0  0  0  0
  1  2  1  0
  2  3  2  0
  2  7  1  0
  3  4  1  0
  4  5  1  0
  4  6  2  0
  6  8  1  0
  7  8  2  0
  8  9  1  0
  9 10  1  0
 10 11  1  0
 11 12  1  0
 12 13  1  0
 13 14  2  0
 13 18  1  0
 14 15  1  0
 15 16  2  0
 16 17  1  0
 17 18  2  0
M  END
>  <DRUGBANK_ID>  (1) 
DB08318

>  <COMMON_NAME>  (1) 
6-(2-phenoxyethoxy)-1,3,5-triazine-2,4-diamine

$$$$
