T2D
     RDKit          3D

 14 15  0  0  0  0  0  0  0  0999 V2000
    1.4016   -0.1858    0.0237 C   0  0  0  0  0  0  0  0  0  0  0  0
    0.5210   -1.2718    0.0270 C   0  0  0  0  0  0  0  0  0  0  0  0
   -0.8543   -1.0552    0.0041 C   0  0  0  0  0  0  0  0  0  0  0  0
   -1.3466    0.2494    0.0229 C   0  0  0  0  0  0  0  0  0  0  0  0
   -0.4643    1.3393    0.0571 C   0  0  0  0  0  0  0  0  0  0  0  0
    0.9155    1.1246   -0.0064 C   0  0  0  0  0  0  0  0  0  0  0  0
    1.8162    2.1984   -0.2477 N   0  0  0  0  0  0  0  0  0  0  0  0
    2.7483    2.2475   -1.6466 S   0  0  0  0  0  0  0  0  0  0  0  0
    2.9899    3.8832   -1.5499 N   0  0  0  0  0  0  0  0  0  0  0  0
    2.3619    4.4579   -0.4430 C   0  0  0  0  0  0  0  0  0  0  0  0
    2.0326    3.3790    0.5989 C   0  0  0  0  0  0  0  0  0  0  0  0
    2.1951    5.6601   -0.3251 O   0  0  0  0  0  0  0  0  0  0  0  0
    4.0070    1.6011   -1.3931 O   0  0  0  0  0  0  0  0  0  0  0  0
    1.9409    1.9839   -2.8142 O   0  0  0  0  0  0  0  0  0  0  0  0
  1  2  2  0
  1  6  1  0
  2  3  1  0
  3  4  2  0
  4  5  1  0
  5  6  2  0
  6  7  1  0
  7  8  1  0
  7 11  1  0
  8  9  1  0
  8 13  2  0
  8 14  2  0
  9 10  1  0
 10 11  1  0
 10 12  2  0
M  END
>  <DRUGBANK_ID>  (1) 
DB08593

>  <COMMON_NAME>  (1) 
1,2,5-THIADIAZOLIDIN-3-ONE-1,1-DIOXIDE

>  <UNII>  (1) 
L4SBH33TJR

$$$$
