
     RDKit          3D

 29 29  0  0  1  0  0  0  0  0999 V2000
    0.0180   -1.3780    0.0460 C   0  0  0  0  0  0  0  0  0  0  0  0
   -1.1670   -0.6830   -0.1700 C   0  0  0  0  0  0  0  0  0  0  0  0
   -1.1660    0.6880    0.1710 C   0  0  0  0  0  0  0  0  0  0  0  0
    1.1470    0.6910   -0.0880 N   0  0  0  0  0  0  0  0  0  0  0  0
    2.4537   -1.4267    0.3338 C   0  0  0  0  0  0  0  0  0  0  0  0
    5.1388    3.5797    2.4378 N   0  0  0  0  0  0  0  0  0  0  0  0
    4.0555    2.6486    2.7850 C   0  0  1  0  0  0  0  0  0  0  0  0
    2.7133    3.2227    2.3197 C   0  0  2  0  0  0  0  0  0  0  0  0
    1.6046    2.2104    2.6242 C   0  0  0  0  0  0  0  0  0  0  0  0
    1.9362    0.8819    1.9405 C   0  0  0  0  0  0  0  0  0  0  0  0
    3.2096    0.4187    2.3935 C   0  0  0  0  0  0  0  0  0  0  0  0
    4.2919    1.3031    2.0950 C   0  0  0  0  0  0  0  0  0  0  0  0
    2.7614    3.4797    0.8732 N   0  0  0  0  0  0  0  0  0  0  0  0
    2.8156    4.9292    0.6345 C   0  0  0  0  0  0  0  0  0  0  0  0
    2.8654    5.1948   -0.8613 C   0  0  0  0  0  0  0  0  0  0  0  0
    1.6633    4.6380   -1.4982 N   0  0  0  0  0  0  0  0  0  0  0  0
    0.4671    5.2737   -0.9271 C   0  0  1  0  0  0  0  0  0  0  0  0
   -0.7890    4.6949   -1.5865 C   0  0  2  0  0  0  0  0  0  0  0  0
   -2.0275    5.3145   -0.9317 C   0  0  0  0  0  0  0  0  0  0  0  0
   -1.9862    5.0464    0.5746 C   0  0  0  0  0  0  0  0  0  0  0  0
   -0.7795    5.5825    1.1203 C   0  0  0  0  0  0  0  0  0  0  0  0
    0.4114    5.0071    0.5789 C   0  0  0  0  0  0  0  0  0  0  0  0
   -0.7920    3.2362   -1.4047 N   0  0  0  0  0  0  0  0  0  0  0  0
    0.0281    2.8863   -0.2360 C   0  0  0  0  0  0  0  0  0  0  0  0
    0.0250    1.3780   -0.0480 C   0  0  0  0  0  0  0  0  0  0  0  0
    1.1430   -0.6970    0.0890 C   0  0  0  0  0  0  0  0  0  0  0  0
    0.9391    0.0691    0.0389 Cl  0  0  0  0  0  0  0  0  0  0  0  0
    1.0492    0.0534   -0.0688 Mn  0  0  0  0  0 15  0  0  0  0  0  0
    1.0222    0.0813    0.0538 Cl  0  0  0  0  0  0  0  0  0  0  0  0
  1 26  2  0
  2  1  1  0
  3  2  2  0
  3 25  1  0
  4 25  2  0
  5  6  1  0
  5 26  1  0
  7  6  1  0
  7 12  1  6
  8  7  1  0
  8 13  1  0
  8  9  1  6
 10  9  1  0
 11 10  1  0
 12 11  1  0
 13 14  1  0
 14 15  1  0
 15 16  1  0
 17 16  1  0
 17 22  1  1
 18 17  1  0
 18 23  1  0
 18 19  1  1
 20 19  1  0
 21 20  1  0
 22 21  1  0
 23 24  1  0
 24 25  1  0
 26  4  1  0
M  CHG  3  27  -1  28   2  29  -1
M  END
>  <DRUGBANK_ID>  (1) 
DB16354

>  <COMMON_NAME>  (1) 
Avasopasem manganese

>  <CAS_NUMBER>  (1) 
435327-40-5

>  <UNII>  (1) 
EY1WA413UL

>  <SYNONYMS>  (1) 
Avasopasem manganese

$$$$
