532
     RDKit          3D

 16 17  0  0  1  0  0  0  0  0999 V2000
    1.0298   -0.1032   -0.0427 O   0  0  0  0  0  0  0  0  0  0  0  0
    5.2494   -1.4292    0.7779 O   0  0  0  0  0  0  0  0  0  0  0  0
    4.4239    0.6237    0.1222 N   0  0  0  0  0  0  0  0  0  0  0  0
    3.0949   -1.1318   -0.0153 N   0  0  0  0  0  0  0  0  0  0  0  0
    3.1092    1.2449    0.1733 C   0  0  0  0  0  0  0  0  0  0  0  0
    2.9313    1.9103    1.5584 C   0  0  0  0  0  0  0  0  0  0  0  0
    2.2510   -0.0530    0.0261 C   0  0  0  0  0  0  0  0  0  0  0  0
    2.8314    2.2130   -0.9764 C   0  0  0  0  0  0  0  0  0  0  0  0
    4.3420   -0.7347    0.3355 C   0  0  0  0  0  0  0  0  0  0  0  0
    3.9420    3.0525    1.8096 C   0  0  0  0  0  0  0  0  0  0  0  0
    3.0030    1.8334   -2.3114 C   0  0  0  0  0  0  0  0  0  0  0  0
    2.3330    3.5139   -0.7371 C   0  0  0  0  0  0  0  0  0  0  0  0
    2.7832   -2.4371   -0.5558 C   0  0  0  0  0  0  0  0  0  0  0  0
    2.7503    2.7482   -3.3396 C   0  0  0  0  0  0  0  0  0  0  0  0
    2.1390    4.4411   -1.7477 C   0  0  0  0  0  0  0  0  0  0  0  0
    2.3634    4.0594   -3.0553 C   0  0  0  0  0  0  0  0  0  0  0  0
  1  7  2  0
  2  9  2  0
  3  5  1  0
  3  9  1  0
  4  7  1  0
  4  9  1  0
  4 13  1  0
  5  6  1  0
  5  7  1  0
  5  8  1  0
  6 10  1  0
  8 11  2  0
  8 12  1  0
 11 14  1  0
 12 15  2  0
 14 16  2  0
 15 16  1  0
M  END
>  <DRUGBANK_ID>  (1) 
DB00532

>  <SECONDARY_ACCESSION_NUMBERS>  (1) 
APRD00512

>  <COMMON_NAME>  (1) 
Mephenytoin

>  <CAS_NUMBER>  (1) 
50-12-4

>  <UNII>  (1) 
R420KW629U

>  <SYNONYMS>  (1) 
mefenito√≠na; Mephenytoin

$$$$
