1454
     RDKit          3D

 14 15  0  0  1  0  0  0  0  0999 V2000
   -1.4772   -1.1501   -0.0737 O   0  0  0  0  0  0  0  0  0  0  0  0
   -1.4649    1.2597    0.0308 O   0  0  0  0  0  0  0  0  0  0  0  0
    2.5420   -3.4101    1.2969 N   0  0  0  0  0  0  0  0  0  0  0  0
    3.6224   -2.4078    1.2151 C   0  0  0  0  0  0  0  0  0  0  0  0
    3.4562   -1.4853   -0.0344 C   0  0  0  0  0  0  0  0  0  0  0  0
    2.1644   -0.6903   -0.0780 C   0  0  0  0  0  0  0  0  0  0  0  0
    4.9908   -3.0919    1.1430 C   0  0  0  0  0  0  0  0  0  0  0  0
    0.9343   -1.3557   -0.2052 C   0  0  0  0  0  0  0  0  0  0  0  0
   -0.2262   -0.6262   -0.1031 C   0  0  0  0  0  0  0  0  0  0  0  0
    2.1748    0.7180    0.0043 C   0  0  0  0  0  0  0  0  0  0  0  0
   -0.2084    0.7388   -0.0140 C   0  0  0  0  0  0  0  0  0  0  0  0
    0.9750    1.4455    0.0116 C   0  0  0  0  0  0  0  0  0  0  0  0
    2.5939   -4.2734    2.4633 C   0  0  0  0  0  0  0  0  0  0  0  0
   -2.2565    0.0515    0.0743 C   0  0  0  0  0  0  0  0  0  0  0  0
  1  9  1  0
  1 14  1  0
  2 11  1  0
  2 14  1  0
  3  4  1  0
  3 13  1  0
  4  5  1  0
  4  7  1  0
  5  6  1  0
  6  8  1  0
  6 10  2  0
  8  9  2  0
  9 11  1  0
 10 12  1  0
 11 12  2  0
M  END
>  <DRUGBANK_ID>  (1) 
DB01454

>  <COMMON_NAME>  (1) 
Midomafetamine

>  <CAS_NUMBER>  (1) 
42542-10-9

>  <UNII>  (1) 
KE1SEN21RM

>  <SYNONYMS>  (1) 
3,4-Methylenedioxymethamphetamine; Ecstasy; MDMA; Methylenedioxymethamphetamine; Midomafetamine

$$$$
