
     RDKit          3D

 21 22  0  0  0  0  0  0  0  0999 V2000
    0.4785   -0.2942   -0.0982 C   0  0  0  0  0  0  0  0  0  0  0  0
    0.1129   -0.4616    1.3672 O   0  0  0  0  0  0  0  0  0  0  0  0
    0.4487   -1.0687    2.6601 C   0  0  0  0  0  0  0  0  0  0  0  0
    1.7832   -1.5670    3.1404 C   0  0  0  0  0  0  0  0  0  0  0  0
    2.4932   -1.5464    4.3304 C   0  0  0  0  0  0  0  0  0  0  0  0
    4.0839   -1.6229    4.2514 C   0  0  0  0  0  0  0  0  0  0  0  0
    4.7346   -1.8715    5.3514 O   0  0  0  0  0  0  0  0  0  0  0  0
    4.9222   -1.4293    3.1224 N   0  0  0  0  0  0  0  0  0  0  0  0
    4.8228   -0.8873    1.6904 C   0  0  0  0  0  0  0  0  0  0  0  0
    4.6492    0.6547    1.6399 C   0  0  0  0  0  0  0  0  0  0  0  0
    3.4623    1.0387    2.4294 C   0  0  0  0  0  0  0  0  0  0  0  0
    2.4277    0.3783    1.5985 C   0  0  0  0  0  0  0  0  0  0  0  0
    2.5889   -1.0203    0.8667 N   0  0  0  0  0  0  0  0  0  0  0  0
    3.8603   -1.6625    0.8026 C   0  0  0  0  0  0  0  0  0  0  0  0
    1.6406   -1.2822    5.3308 C   0  0  0  0  0  0  0  0  0  0  0  0
    0.2375   -0.8489    5.0422 C   0  0  0  0  0  0  0  0  0  0  0  0
   -0.5568   -0.4603    6.1111 O   0  0  0  0  0  0  0  0  0  0  0  0
    0.0785   -0.7072    7.3631 C   0  0  0  0  0  0  0  0  0  0  0  0
   -0.3669   -0.7054    3.7049 C   0  0  0  0  0  0  0  0  0  0  0  0
   -1.6344   -0.1655    3.5330 O   0  0  0  0  0  0  0  0  0  0  0  0
   -2.1173    0.0604    2.1820 C   0  0  0  0  0  0  0  0  0  0  0  0
  1  2  1  0
  2  3  1  0
  3  4  2  0
  3 19  1  0
  4  5  1  0
  5  6  1  0
  5 15  2  0
  6  7  2  0
  6  8  1  0
  8  9  1  0
  9 10  1  0
  9 14  1  0
 10 11  1  0
 11 12  1  0
 12 13  1  0
 13 14  1  0
 15 16  1  0
 16 17  1  0
 16 19  2  0
 17 18  1  0
 19 20  1  0
 20 21  1  0
M  END
>  <DRUGBANK_ID>  (1) 
DB13419

>  <COMMON_NAME>  (1) 
Troxipide

>  <CAS_NUMBER>  (1) 
30751-05-4

>  <UNII>  (1) 
W6QJX1Q00Z

>  <SYNONYMS>  (1) 
Troxipide

$$$$
