AYM
     RDKit          3D

 24 26  0  0  0  0  0  0  0  0999 V2000
    2.3911   -0.1235    0.1192 N   0  0  0  0  0  0  0  0  0  0  0  0
    1.0247   -0.0719    0.0236 C   0  0  0  0  0  0  0  0  0  0  0  0
    0.4950    1.1656    0.0245 N   0  0  0  0  0  0  0  0  0  0  0  0
   -0.8428    1.2605    0.0294 C   0  0  0  0  0  0  0  0  0  0  0  0
   -1.6626    0.1519    0.0016 C   0  0  0  0  0  0  0  0  0  0  0  0
   -1.0937   -1.1220    0.0109 C   0  0  0  0  0  0  0  0  0  0  0  0
    0.2750   -1.2360    0.0480 C   0  0  0  0  0  0  0  0  0  0  0  0
   -3.0982    0.1969   -0.0863 C   0  0  0  0  0  0  0  0  0  0  0  0
   -3.8843    1.2555   -0.1425 C   0  0  0  0  0  0  0  0  0  0  0  0
   -5.3437    1.3544   -0.3547 C   0  0  0  0  0  0  0  0  0  0  0  0
   -5.6540    2.5068   -0.5908 O   0  0  0  0  0  0  0  0  0  0  0  0
   -6.2390    0.2935   -0.3047 N   0  0  0  0  0  0  0  0  0  0  0  0
   -5.9505   -1.1218   -0.2999 C   0  0  0  0  0  0  0  0  0  0  0  0
   -7.6796    0.5481   -0.4314 C   0  0  0  0  0  0  0  0  0  0  0  0
   -8.2043    1.2255    0.7851 C   0  0  0  0  0  0  0  0  0  0  0  0
   -8.7969    0.6858    1.9164 C   0  0  0  0  0  0  0  0  0  0  0  0
   -8.9965    1.7367    2.8520 C   0  0  0  0  0  0  0  0  0  0  0  0
   -8.5532    2.9091    2.2457 C   0  0  0  0  0  0  0  0  0  0  0  0
   -8.1925    2.5916    0.9555 N   0  0  0  0  0  0  0  0  0  0  0  0
   -7.8333    3.6039   -0.0153 C   0  0  0  0  0  0  0  0  0  0  0  0
   -9.4973    1.8062    4.1654 C   0  0  0  0  0  0  0  0  0  0  0  0
   -9.5179    3.0433    4.8233 C   0  0  0  0  0  0  0  0  0  0  0  0
   -9.0346    4.1921    4.2022 C   0  0  0  0  0  0  0  0  0  0  0  0
   -8.5381    4.1447    2.9028 C   0  0  0  0  0  0  0  0  0  0  0  0
  1  2  1  0
  2  3  2  0
  2  7  1  0
  3  4  1  0
  4  5  2  0
  5  6  1  0
  5  8  1  0
  6  7  2  0
  8  9  2  0
  9 10  1  0
 10 11  2  0
 10 12  1  0
 12 13  1  0
 12 14  1  0
 14 15  1  0
 15 16  2  0
 15 19  1  0
 16 17  1  0
 17 18  2  0
 17 21  1  0
 18 19  1  0
 18 24  1  0
 19 20  1  0
 21 22  2  0
 22 23  1  0
 23 24  2  0
M  END
>  <DRUGBANK_ID>  (1) 
DB01865

>  <SECONDARY_ACCESSION_NUMBERS>  (1) 
EXPT00597

>  <COMMON_NAME>  (1) 
3-(6-Aminopyridin-3-Yl)-N-Methyl-N-[(1-Methyl-1h-Indol-2-Yl)Methyl]Acrylamide

$$$$
