
     RDKit          3D

 33 37  0  0  0  0  0  0  0  0999 V2000
   -2.2249   -0.0282   -0.0024 C   0  0  0  0  0  0  0  0  0  0  0  0
   -0.7505    0.1171   -0.0058 C   0  0  0  0  0  0  0  0  0  0  0  0
    0.1008    1.2061   -0.0054 C   0  0  0  0  0  0  0  0  0  0  0  0
    1.4183    0.6671   -0.0156 C   0  0  0  0  0  0  0  0  0  0  0  0
    1.3688   -0.6686   -0.0398 N   0  0  0  0  0  0  0  0  0  0  0  0
    0.0694   -0.9728   -0.0109 N   0  0  0  0  0  0  0  0  0  0  0  0
    2.5540    1.4213   -0.0094 N   0  0  0  0  0  0  0  0  0  0  0  0
    3.7677    0.7652    0.1478 C   0  0  0  0  0  0  0  0  0  0  0  0
    4.1974   -0.1704   -0.9385 C   0  0  0  0  0  0  0  0  0  0  0  0
    5.3642   -0.8013   -0.8737 C   0  0  0  0  0  0  0  0  0  0  0  0
    6.1018   -0.7022    0.3667 C   0  0  0  0  0  0  0  0  0  0  0  0
    7.2730   -1.2061    0.7089 N   0  0  0  0  0  0  0  0  0  0  0  0
    7.7865   -0.3649    1.6741 C   0  0  0  0  0  0  0  0  0  0  0  0
    6.8176    0.5410    2.0862 C   0  0  0  0  0  0  0  0  0  0  0  0
    5.7295    0.3323    1.2258 N   0  0  0  0  0  0  0  0  0  0  0  0
    4.5701    1.0587    1.1418 N   0  0  0  0  0  0  0  0  0  0  0  0
    6.9180    1.4932    3.2498 C   0  0  0  0  0  0  0  0  0  0  0  0
    6.8311    2.9669    2.9478 C   0  0  0  0  0  0  0  0  0  0  0  0
    7.9207    3.8403    3.0965 C   0  0  0  0  0  0  0  0  0  0  0  0
    7.8281    5.1620    2.6383 C   0  0  0  0  0  0  0  0  0  0  0  0
    6.6142    5.6475    2.1517 C   0  0  0  0  0  0  0  0  0  0  0  0
    5.5012    4.8274    2.1107 C   0  0  0  0  0  0  0  0  0  0  0  0
    5.6178    3.5186    2.5407 C   0  0  0  0  0  0  0  0  0  0  0  0
    4.4861    2.8222    2.6723 F   0  0  0  0  0  0  0  0  0  0  0  0
    6.4470    7.3012    1.7157 Cl  0  0  0  0  0  0  0  0  0  0  0  0
    9.2182   -0.4357    2.0964 C   0  0  0  0  0  0  0  0  0  0  0  0
    5.8918   -1.4252   -2.1641 C   0  0  0  0  0  0  0  0  0  0  0  0
    7.0118   -0.7827   -2.8893 N   0  0  0  0  0  0  0  0  0  0  0  0
    8.2322   -0.6100   -2.0761 C   0  0  0  0  0  0  0  0  0  0  0  0
    8.2553    0.7110   -1.2708 C   0  0  0  0  0  0  0  0  0  0  0  0
    7.9813    1.8756   -2.0535 O   0  0  0  0  0  0  0  0  0  0  0  0
    6.6764    1.7160   -2.6388 C   0  0  0  0  0  0  0  0  0  0  0  0
    6.7156    0.4968   -3.5678 C   0  0  0  0  0  0  0  0  0  0  0  0
  1  2  1  0
  2  3  2  0
  2  6  1  0
  3  4  1  0
  4  5  2  0
  4  7  1  0
  5  6  1  0
  7  8  1  0
  8  9  1  0
  8 16  2  0
  9 10  2  0
 10 11  1  0
 10 27  1  0
 11 12  2  0
 11 15  1  0
 12 13  1  0
 13 14  2  0
 13 26  1  0
 14 15  1  0
 14 17  1  0
 15 16  1  0
 17 18  1  0
 18 19  2  0
 18 23  1  0
 19 20  1  0
 20 21  2  0
 21 22  1  0
 21 25  1  0
 22 23  2  0
 23 24  1  0
 27 28  1  0
 28 29  1  0
 28 33  1  0
 29 30  1  0
 30 31  1  0
 31 32  1  0
 32 33  1  0
M  END
>  <DRUGBANK_ID>  (1) 
DB13040

>  <COMMON_NAME>  (1) 
Gandotinib

>  <CAS_NUMBER>  (1) 
1229236-86-5

>  <UNII>  (1) 
ANC71R916O

>  <SYNONYMS>  (1) 
3-(4-CHLORO-2-FLUOROBENZYL)-2-METHYL-N-(5-METHYL-1H-PYRAZOL-3-YL)-8- (MORPHOLINOMETHYL)IMIDAZO(1,2-B)PYRIDAZIN-6-AMINE; Adenosine triphosphate type 1 competitive inhibitor of JAK2 V617F tyrosine kinase; Gandotinib; IMIDAZO(1,2-B)PYRIDAZIN-6-AMINE, 3-((4-CHLORO-2-FLUOROPHENYL)METHYL)-2-METHYL-N-(5- METHYL-1H-PYRAZOL-3-YL)-8-(4-MORPHOLINYLMETHYL)-

$$$$
