915
     RDKit          3D

 11 13  0  0  0  0  0  0  0  0999 V2000
    0.9258   -0.0071    0.0723 N   0  0  0  0  0  0  0  0  0  0  0  0
    0.4934   -1.3731    0.3711 C   0  0  0  0  0  0  0  0  0  0  0  0
    1.2262   -3.6733    1.1317 C   0  0  0  0  0  0  0  0  0  0  0  0
   -0.5785   -3.4433   -0.6134 C   0  0  0  0  0  0  0  0  0  0  0  0
   -1.0495   -2.8027    1.7786 C   0  0  0  0  0  0  0  0  0  0  0  0
    1.6896   -2.2355    0.8374 C   0  0  0  0  0  0  0  0  0  0  0  0
   -0.1097   -2.0048   -0.9036 C   0  0  0  0  0  0  0  0  0  0  0  0
   -0.5839   -1.3668    1.4797 C   0  0  0  0  0  0  0  0  0  0  0  0
    0.6226   -4.2821   -0.1455 C   0  0  0  0  0  0  0  0  0  0  0  0
    0.1557   -3.6421    2.2351 C   0  0  0  0  0  0  0  0  0  0  0  0
   -1.6405   -3.4180    0.4993 C   0  0  0  0  0  0  0  0  0  0  0  0
  1  2  1  0
  2  6  1  0
  2  7  1  0
  2  8  1  0
  3  6  1  0
  3  9  1  0
  3 10  1  0
  4  7  1  0
  4  9  1  0
  4 11  1  0
  5  8  1  0
  5 10  1  0
  5 11  1  0
M  END
>  <DRUGBANK_ID>  (1) 
DB00915

>  <SECONDARY_ACCESSION_NUMBERS>  (1) 
APRD00787

>  <COMMON_NAME>  (1) 
Amantadine

>  <CAS_NUMBER>  (1) 
768-94-5

>  <UNII>  (1) 
BF4C9Z1J53

>  <SYNONYMS>  (1) 
1-adamantanamine; 1-adamantylamine; 1-aminoadamantane; Amantadina; Amantadine; Amantadinum; Amantidine; Aminoadamantane

$$$$
