W43
     RDKit          3D

 27 29  0  0  0  0  0  0  0  0999 V2000
   -1.2304    0.4662   -0.1808 O   0  0  0  0  0  0  0  0  0  0  0  0
    0.0521    0.9773   -0.0989 N   0  0  0  0  0  0  0  0  0  0  0  0
    0.8488   -0.0951   -0.0330 C   0  0  0  0  0  0  0  0  0  0  0  0
    2.3107    0.0471    0.0042 C   0  0  0  0  0  0  0  0  0  0  0  0
    0.1182   -1.2945   -0.0238 C   0  0  0  0  0  0  0  0  0  0  0  0
   -1.1816   -0.8897   -0.0740 C   0  0  0  0  0  0  0  0  0  0  0  0
   -2.4463   -1.6354    0.0356 C   0  0  0  0  0  0  0  0  0  0  0  0
   -3.1454   -1.2913    1.3596 C   0  0  0  0  0  0  0  0  0  0  0  0
   -3.5452    0.1929    1.4581 C   0  0  0  0  0  0  0  0  0  0  0  0
   -4.3602    0.5634    0.2574 C   0  0  0  0  0  0  0  0  0  0  0  0
   -5.5636   -0.3386    0.2862 C   0  0  0  0  0  0  0  0  0  0  0  0
   -6.6518   -0.0257    1.2947 C   0  0  0  0  0  0  0  0  0  0  0  0
   -7.2211    1.3688    1.0271 C   0  0  0  0  0  0  0  0  0  0  0  0
   -8.1111    1.4734   -0.1345 O   0  0  0  0  0  0  0  0  0  0  0  0
   -7.6180    1.2924   -1.4089 C   0  0  0  0  0  0  0  0  0  0  0  0
   -7.4630    2.3958   -2.2511 C   0  0  0  0  0  0  0  0  0  0  0  0
   -6.8678    2.2468   -3.5238 C   0  0  0  0  0  0  0  0  0  0  0  0
   -6.2688    1.0320   -3.8701 C   0  0  0  0  0  0  0  0  0  0  0  0
   -6.4648   -0.0632   -3.0497 C   0  0  0  0  0  0  0  0  0  0  0  0
   -7.3701    0.0366   -1.9922 C   0  0  0  0  0  0  0  0  0  0  0  0
   -7.9736   -1.4639   -1.3630 Cl  0  0  0  0  0  0  0  0  0  0  0  0
   -5.7235    0.7504   -5.1932 C   0  0  0  0  0  0  0  0  0  0  0  0
   -6.0461   -0.3213   -5.8770 N   0  0  0  0  0  0  0  0  0  0  0  0
   -5.3642   -0.1473   -7.1556 C   0  0  1  0  0  0  0  0  0  0  0  0
   -6.4147   -0.0234   -8.2516 C   0  0  0  0  0  0  0  0  0  0  0  0
   -4.5226    1.1111   -6.9978 C   0  0  0  0  0  0  0  0  0  0  0  0
   -4.8551    1.6311   -5.7107 O   0  0  0  0  0  0  0  0  0  0  0  0
  1  2  1  0
  1  6  1  0
  2  3  2  0
  3  4  1  0
  3  5  1  0
  5  6  2  0
  6  7  1  0
  7  8  1  0
  8  9  1  0
  9 10  1  0
 10 11  1  0
 11 12  1  0
 12 13  1  0
 13 14  1  0
 14 15  1  0
 15 16  2  0
 15 20  1  0
 16 17  1  0
 17 18  2  0
 18 19  1  0
 18 22  1  0
 19 20  2  0
 20 21  1  0
 22 23  2  0
 22 27  1  0
 23 24  1  0
 24 25  1  6
 24 26  1  0
 26 27  1  0
M  END
>  <DRUGBANK_ID>  (1) 
DB08722

>  <COMMON_NAME>  (1) 
5-(7-(6-chloro-4-(5-hydro-4-methyl-2-oxazolyl)phenoxy)heptyl)-3-methyl isoxazole

$$$$
