PE7
     RDKit          3D

 22 21  0  0  0  0  0  0  0  0999 V2000
    0.6524   -0.7652    0.1353 S   0  0  0  0  0  0  0  0  0  0  0  0
    0.5775   -0.6143   -1.7274 C   0  0  0  0  0  0  0  0  0  0  0  0
    1.4362    0.3041   -2.6214 C   0  0  0  0  0  0  0  0  0  0  0  0
    2.7871    0.6827   -2.5062 O   0  0  0  0  0  0  0  0  0  0  0  0
    3.1063    0.9129   -1.1141 C   0  0  0  0  0  0  0  0  0  0  0  0
    2.1486    1.8690   -0.1292 C   0  0  0  0  0  0  0  0  0  0  0  0
    0.7244    2.1847   -0.3893 O   0  0  0  0  0  0  0  0  0  0  0  0
    0.0840    2.4604   -1.7150 C   0  0  0  0  0  0  0  0  0  0  0  0
    1.0546    3.0159   -2.8500 C   0  0  0  0  0  0  0  0  0  0  0  0
    2.3778    3.6748   -2.9486 O   0  0  0  0  0  0  0  0  0  0  0  0
    3.0060    3.9159   -1.6754 C   0  0  0  0  0  0  0  0  0  0  0  0
    2.1603    4.7238   -0.3647 C   0  0  0  0  0  0  0  0  0  0  0  0
    0.7948    5.1728   -0.5684 O   0  0  0  0  0  0  0  0  0  0  0  0
    0.2999    5.5623   -1.9057 C   0  0  0  0  0  0  0  0  0  0  0  0
    0.9586    6.1244   -3.3072 C   0  0  0  0  0  0  0  0  0  0  0  0
    2.3689    6.6291   -3.2689 O   0  0  0  0  0  0  0  0  0  0  0  0
    3.0332    6.8152   -1.9680 C   0  0  0  0  0  0  0  0  0  0  0  0
    2.5187    7.7596   -0.6718 C   0  0  0  0  0  0  0  0  0  0  0  0
    1.1194    8.0694   -0.4384 O   0  0  0  0  0  0  0  0  0  0  0  0
    0.4458    8.2199   -1.6617 C   0  0  0  0  0  0  0  0  0  0  0  0
    0.9054    9.0992   -2.8319 C   0  0  0  0  0  0  0  0  0  0  0  0
    2.2801    9.0839   -3.2018 O   0  0  0  0  0  0  0  0  0  0  0  0
  1  2  1  0
  2  3  1  0
  3  4  1  0
  4  5  1  0
  5  6  1  0
  6  7  1  0
  7  8  1  0
  8  9  1  0
  9 10  1  0
 10 11  1  0
 11 12  1  0
 12 13  1  0
 13 14  1  0
 14 15  1  0
 15 16  1  0
 16 17  1  0
 17 18  1  0
 18 19  1  0
 19 20  1  0
 20 21  1  0
 21 22  1  0
M  END
>  <DRUGBANK_ID>  (1) 
DB02404

>  <SECONDARY_ACCESSION_NUMBERS>  (1) 
EXPT02540

>  <COMMON_NAME>  (1) 
1-Deoxy-1-Thio-Heptaethylene Glycol

$$$$
