
     RDKit          3D

 11 12  0  0  0  0  0  0  0  0999 V2000
    1.0118   -1.4169    0.0192 C   0  0  0  0  0  0  0  0  0  0  0  0
    2.1923   -0.6701   -0.0129 C   0  0  0  0  0  0  0  0  0  0  0  0
    2.1490    0.7212   -0.0252 C   0  0  0  0  0  0  0  0  0  0  0  0
    0.9292    1.4067   -0.0010 C   0  0  0  0  0  0  0  0  0  0  0  0
   -0.2445    0.6414    0.0095 C   0  0  0  0  0  0  0  0  0  0  0  0
   -0.2318   -0.7533    0.0164 C   0  0  0  0  0  0  0  0  0  0  0  0
   -1.5905   -1.2003    0.0021 C   0  0  0  0  0  0  0  0  0  0  0  0
   -2.3805   -0.0671   -0.0296 C   0  0  0  0  0  0  0  0  0  0  0  0
   -1.5645    1.0326    0.0057 N   0  0  0  0  0  0  0  0  0  0  0  0
   -2.0562   -2.6151   -0.0100 C   0  0  0  0  0  0  0  0  0  0  0  0
   -2.8791   -2.9069    1.1138 O   0  0  0  0  0  0  0  0  0  0  0  0
  2  1  2  0
  3  2  1  0
  4  3  2  0
  5  4  1  0
  6  5  2  0
  6  1  1  0
  7  6  1  0
  8  7  2  0
  9  8  1  0
  9  5  1  0
 10  7  1  0
 11 10  1  0
M  END
>  <DRUGBANK_ID>  (1) 
DB12881

>  <COMMON_NAME>  (1) 
Indole-3-carbinol

>  <CAS_NUMBER>  (1) 
700-06-1

>  <UNII>  (1) 
C11E72455F

$$$$
