
     RDKit          3D

 40 45  0  0  0  0  0  0  0  0999 V2000
    1.0781   -0.0882   -0.0921 C   0  0  0  0  0  0  0  0  0  0  0  0
    0.6364    1.3703   -0.2388 C   0  0  0  0  0  0  0  0  0  0  0  0
    1.1109    1.9165   -1.6002 C   0  0  0  0  0  0  0  0  0  0  0  0
   -0.9044    1.4412   -0.2136 C   0  0  0  0  0  0  0  0  0  0  0  0
    1.3005    2.1294    0.8771 C   0  0  0  0  0  0  0  0  0  0  0  0
    1.7861    1.8205    2.1390 C   0  0  0  0  0  0  0  0  0  0  0  0
    2.1949    3.0728    2.6575 C   0  0  0  0  0  0  0  0  0  0  0  0
    2.3735    3.9158    1.6522 N   0  0  0  0  0  0  0  0  0  0  0  0
    1.6834    3.3957    0.5846 O   0  0  0  0  0  0  0  0  0  0  0  0
    2.3774    3.3818    4.0016 N   0  0  0  0  0  0  0  0  0  0  0  0
    2.3493    4.5930    4.5935 C   0  0  0  0  0  0  0  0  0  0  0  0
    2.8121    4.6586    5.7928 O   0  0  0  0  0  0  0  0  0  0  0  0
    1.8761    5.7374    4.0524 N   0  0  0  0  0  0  0  0  0  0  0  0
    1.0301    5.9148    2.9322 C   0  0  0  0  0  0  0  0  0  0  0  0
   -0.0414    5.0532    2.7059 C   0  0  0  0  0  0  0  0  0  0  0  0
   -0.6297    4.9903    1.4367 C   0  0  0  0  0  0  0  0  0  0  0  0
   -0.1989    5.8257    0.3946 C   0  0  0  0  0  0  0  0  0  0  0  0
    0.7771    6.7943    0.6749 C   0  0  0  0  0  0  0  0  0  0  0  0
    1.3975    6.8387    1.9419 C   0  0  0  0  0  0  0  0  0  0  0  0
   -0.6435    5.5467   -0.9691 C   0  0  0  0  0  0  0  0  0  0  0  0
   -1.9461    5.2292   -1.3485 C   0  0  0  0  0  0  0  0  0  0  0  0
   -1.8465    4.8327   -2.6835 N   0  0  0  0  0  0  0  0  0  0  0  0
   -2.8103    4.8383   -3.7244 C   0  0  0  0  0  0  0  0  0  0  0  0
   -2.5896    5.9164   -4.5293 C   0  0  0  0  0  0  0  0  0  0  0  0
   -3.5580    6.2196   -5.5101 C   0  0  0  0  0  0  0  0  0  0  0  0
   -4.4085    5.1968   -6.1843 C   0  0  0  0  0  0  0  0  0  0  0  0
   -3.9986    3.9142   -5.7590 C   0  0  0  0  0  0  0  0  0  0  0  0
   -3.2336    3.7459   -4.5018 C   0  0  0  0  0  0  0  0  0  0  0  0
   -5.9225    5.1888   -6.6943 O   0  0  0  0  0  0  0  0  0  0  0  0
   -7.4390    6.0172   -6.3241 C   0  0  0  0  0  0  0  0  0  0  0  0
   -8.1834    6.4222   -4.6719 C   0  0  0  0  0  0  0  0  0  0  0  0
   -7.4529    6.9975   -3.3811 N   0  0  0  0  0  0  0  0  0  0  0  0
   -6.6487    8.2217   -3.7354 C   0  0  0  0  0  0  0  0  0  0  0  0
   -6.0323    8.0921   -5.0691 C   0  0  0  0  0  0  0  0  0  0  0  0
   -5.7756    6.7113   -5.1416 O   0  0  0  0  0  0  0  0  0  0  0  0
   -6.0224    5.5485   -4.2467 C   0  0  0  0  0  0  0  0  0  0  0  0
   -6.5218    5.9460   -2.9543 C   0  0  0  0  0  0  0  0  0  0  0  0
   -0.7931    6.1792   -4.6295 S   0  0  0  0  0  0  0  0  0  0  0  0
   -0.6474    5.3799   -3.0726 C   0  0  0  0  0  0  0  0  0  0  0  0
    0.1672    5.6353   -2.0812 N   0  0  0  0  0  0  0  0  0  0  0  0
  1  2  1  0
  2  3  1  0
  2  4  1  0
  2  5  1  0
  5  6  2  0
  5  9  1  0
  6  7  1  0
  7  8  2  0
  7 10  1  0
  8  9  1  0
 10 11  1  0
 11 12  2  0
 11 13  1  0
 13 14  1  0
 14 15  2  0
 14 19  1  0
 15 16  1  0
 16 17  2  0
 17 18  1  0
 17 20  1  0
 18 19  2  0
 20 21  2  0
 20 40  1  0
 21 22  1  0
 22 23  1  0
 22 39  1  0
 23 24  2  0
 23 28  1  0
 24 25  1  0
 24 38  1  0
 25 26  2  0
 26 27  1  0
 26 29  1  0
 27 28  2  0
 29 30  1  0
 30 31  1  0
 31 32  1  0
 32 33  1  0
 32 37  1  0
 33 34  1  0
 34 35  1  0
 35 36  1  0
 36 37  1  0
 38 39  1  0
 39 40  2  0
M  END
>  <DRUGBANK_ID>  (1) 
DB12874

>  <SECONDARY_ACCESSION_NUMBERS>  (1) 
DB05213

>  <COMMON_NAME>  (1) 
Quizartinib

>  <CAS_NUMBER>  (1) 
950769-58-1

>  <UNII>  (1) 
7LA4O6Q0D3

>  <SYNONYMS>  (1) 
N-(5-(1,1-Dimethylethyl)isoxazol-3-yl)-N'-(4-(7-(2-(morpholin-4-yl)ethoxy)imidazo(2,1-b)benzothiazol-2-yl)phenyl)urea; Quizartinib; Quizartinibum

$$$$
