
     RDKit          3D

 29 32  0  0  0  0  0  0  0  0999 V2000
    0.0764   -1.3298    0.6425 N   0  0  0  0  0  0  0  0  0  0  0  0
    0.0332    1.7221    0.3673 S   0  0  0  0  0  0  0  0  0  0  0  0
   -1.1201   -0.8161    0.0961 C   0  0  0  0  0  0  0  0  0  0  0  0
    1.3101   -0.7445    0.3295 C   0  0  0  0  0  0  0  0  0  0  0  0
    1.4134    0.6333    0.0802 C   0  0  0  0  0  0  0  0  0  0  0  0
   -1.2709    0.5837   -0.0869 C   0  0  0  0  0  0  0  0  0  0  0  0
   -2.2151   -1.6404   -0.2165 C   0  0  0  0  0  0  0  0  0  0  0  0
    2.3931   -1.5893    0.0750 C   0  0  0  0  0  0  0  0  0  0  0  0
    2.5848    1.1469   -0.4556 C   0  0  0  0  0  0  0  0  0  0  0  0
   -2.4815    1.1262   -0.5168 C   0  0  0  0  0  0  0  0  0  0  0  0
    3.6450    0.2880   -0.7432 C   0  0  0  0  0  0  0  0  0  0  0  0
   -3.5618    0.2910   -0.7825 C   0  0  0  0  0  0  0  0  0  0  0  0
    0.1223   -2.2083    1.8314 C   0  0  0  0  0  0  0  0  0  0  0  0
   -0.4060   -1.5538    3.0945 C   0  0  0  0  0  0  0  0  0  0  0  0
   -1.8018   -1.0974    2.9033 C   0  0  0  0  0  0  0  0  0  0  0  0
   -2.7530   -2.1273    2.5346 N   0  0  0  0  0  0  0  0  0  0  0  0
   -4.0908   -2.7899    5.0471 N   0  0  0  0  0  0  0  0  0  0  0  0
   -2.8556   -3.4894    4.6327 C   0  0  0  0  0  0  0  0  0  0  0  0
   -4.0287   -1.5027    2.8824 C   0  0  0  0  0  0  0  0  0  0  0  0
   -4.1833   -1.4688    4.4186 C   0  0  0  0  0  0  0  0  0  0  0  0
   -2.5544   -3.4641    3.1115 C   0  0  0  0  0  0  0  0  0  0  0  0
   -5.3678   -3.5017    4.9111 C   0  0  0  0  0  0  0  0  0  0  0  0
   -5.8265   -4.0341    3.5399 C   0  0  0  0  0  0  0  0  0  0  0  0
   -5.0148   -5.1220    3.1474 O   0  0  0  0  0  0  0  0  0  0  0  0
    3.5539   -1.0757   -0.4713 C   0  0  0  0  0  0  0  0  0  0  0  0
   -3.4458   -1.0934   -0.6293 C   0  0  0  0  0  0  0  0  0  0  0  0
   -5.9296   -1.4825   -1.3385 C   0  0  0  0  0  0  0  0  0  0  0  0
   -4.6083   -2.0257   -0.8286 C   0  0  0  0  0  0  0  0  0  0  0  0
   -4.4919   -3.2088   -0.5936 O   0  0  0  0  0  0  0  0  0  0  0  0
  3  1  1  0
  4  1  1  0
  5  2  1  0
  5  4  2  0
  6  2  1  0
  6  3  2  0
  7  3  1  0
  8  4  1  0
  9  5  1  0
 10  6  1  0
 11  9  2  0
 12 10  2  0
 12 26  1  0
 13  1  1  0
 14 13  1  0
 15 14  1  0
 16 15  1  0
 18 17  1  0
 19 16  1  0
 20 17  1  0
 20 19  1  0
 21 16  1  0
 21 18  1  0
 22 17  1  0
 23 22  1  0
 24 23  1  0
 25  8  2  0
 25 11  1  0
 26  7  2  0
 26 28  1  0
 28 27  1  0
 28 29  2  0
M  END
>  <DRUGBANK_ID>  (1) 
DB01063

>  <SECONDARY_ACCESSION_NUMBERS>  (1) 
APRD00462

>  <COMMON_NAME>  (1) 
Acetophenazine

>  <CAS_NUMBER>  (1) 
2751-68-0

>  <UNII>  (1) 
8620H6K4QH

>  <SYNONYMS>  (1) 
Acetophenazina; Acetophenazine; Acetophenazinum

$$$$
