870
     RDKit          3D

 30 33  0  0  0  0  0  0  0  0999 V2000
   -0.5574   -1.2384   -0.0535 C   0  0  0  0  0  0  0  0  0  0  0  0
    0.8113   -1.1855    0.1249 C   0  0  0  0  0  0  0  0  0  0  0  0
    1.4379    0.0568    0.1094 C   0  0  0  0  0  0  0  0  0  0  0  0
    0.6814    1.2405    0.1011 C   0  0  0  0  0  0  0  0  0  0  0  0
   -0.7156    1.1687   -0.0438 C   0  0  0  0  0  0  0  0  0  0  0  0
   -1.2454   -0.0661   -0.3524 C   0  0  0  0  0  0  0  0  0  0  0  0
   -1.7108    2.6325    0.1076 S   0  0  0  0  0  0  0  0  0  0  0  0
   -1.3020    3.2636    1.3584 O   0  0  0  0  0  0  0  0  0  0  0  0
   -1.5064    3.3460   -1.1304 O   0  0  0  0  0  0  0  0  0  0  0  0
   -3.3819    2.4068    0.2609 N   0  0  0  0  0  0  0  0  0  0  0  0
   -3.9712    1.1257    0.3350 C   0  0  0  0  0  0  0  0  0  0  0  0
   -4.9860    0.7640   -0.4372 N   0  0  0  0  0  0  0  0  0  0  0  0
   -5.0982   -0.6147   -0.2434 C   0  0  0  0  0  0  0  0  0  0  0  0
   -5.8529   -1.6256   -0.8860 C   0  0  0  0  0  0  0  0  0  0  0  0
   -5.7038   -2.9705   -0.4717 C   0  0  0  0  0  0  0  0  0  0  0  0
   -4.7611   -3.2990    0.5050 C   0  0  0  0  0  0  0  0  0  0  0  0
   -3.9554   -2.3298    1.1264 C   0  0  0  0  0  0  0  0  0  0  0  0
   -4.2015   -1.0025    0.7406 C   0  0  0  0  0  0  0  0  0  0  0  0
   -3.5337    0.1246    1.1572 O   0  0  0  0  0  0  0  0  0  0  0  0
    3.1549    0.1033    0.0322 Cl  0  0  0  0  0  0  0  0  0  0  0  0
   -2.2480   -0.2239   -1.7699 Cl  0  0  0  0  0  0  0  0  0  0  0  0
   -6.5181   -3.8968   -1.0817 O   0  0  0  0  0  0  0  0  0  0  0  0
   -6.4524   -5.2414   -0.5897 C   0  0  0  0  0  0  0  0  0  0  0  0
   -0.9700   -3.9925    2.7722 C   0  0  0  0  0  0  0  0  0  0  0  0
   -0.9663   -3.3415    4.0046 C   0  0  0  0  0  0  0  0  0  0  0  0
   -1.9125   -2.3579    4.2907 C   0  0  0  0  0  0  0  0  0  0  0  0
   -2.8808   -2.0516    3.3356 C   0  0  0  0  0  0  0  0  0  0  0  0
   -2.9204   -2.6944    2.0944 C   0  0  0  0  0  0  0  0  0  0  0  0
   -1.9542   -3.6850    1.8307 C   0  0  0  0  0  0  0  0  0  0  0  0
   -1.9811   -1.7772    5.5438 N   0  0  0  0  0  0  0  0  0  0  0  0
  1  2  2  0
  1  6  1  0
  2  3  1  0
  3  4  2  0
  3 20  1  0
  4  5  1  0
  5  6  2  0
  5  7  1  0
  6 21  1  0
  7  8  2  0
  7  9  2  0
  7 10  1  0
 10 11  1  0
 11 12  2  0
 11 19  1  0
 12 13  1  0
 13 14  2  0
 13 18  1  0
 14 15  1  0
 15 16  2  0
 15 22  1  0
 16 17  1  0
 17 18  2  0
 17 28  1  0
 18 19  1  0
 22 23  1  0
 24 25  2  0
 24 29  1  0
 25 26  1  0
 26 27  2  0
 26 30  1  0
 27 28  1  0
 28 29  2  0
M  END
>  <DRUGBANK_ID>  (1) 
DB07270

>  <COMMON_NAME>  (1) 
N-[7-(3-AMINOPHENYL)-5-METHOXY-1,3-BENZOXAZOL-2-YL]-2,5-DICHLOROBENZENESULFONAMIDE

$$$$
