
     RDKit          3D

 10 10  0  0  0  0  0  0  0  0999 V2000
   -1.1388    1.1988    0.0060 C   0  0  0  0  0  0  0  0  0  0  0  0
    0.2585    1.2025   -0.0029 C   0  0  0  0  0  0  0  0  0  0  0  0
   -1.8440   -0.0114    0.0079 C   0  0  0  0  0  0  0  0  0  0  0  0
    0.9844    0.0080    0.0194 C   0  0  0  0  0  0  0  0  0  0  0  0
   -1.1135   -1.2078    0.0027 C   0  0  0  0  0  0  0  0  0  0  0  0
    0.2790   -1.1974    0.0001 C   0  0  0  0  0  0  0  0  0  0  0  0
    2.3625    0.0110   -0.1218 N   0  0  0  0  0  0  0  0  0  0  0  0
   -3.3589   -0.0246    0.0110 C   0  0  0  0  0  0  0  0  0  0  0  0
   -3.8993   -0.7030   -1.2506 C   0  0  0  0  0  0  0  0  0  0  0  0
   -3.8893   -0.7156    1.2697 C   0  0  0  0  0  0  0  0  0  0  0  0
  2  1  2  0
  3  1  1  0
  3  8  1  0
  4  2  1  0
  4  7  1  0
  5  3  2  0
  6  4  2  0
  6  5  1  0
  8  9  1  0
  8 10  1  0
M  END
>  <DRUGBANK_ID>  (1) 
DB02114

>  <SECONDARY_ACCESSION_NUMBERS>  (1) 
EXPT01936

>  <COMMON_NAME>  (1) 
Cumidine

>  <CAS_NUMBER>  (1) 
99-88-7

>  <UNII>  (1) 
0D54T7V7XL

>  <SYNONYMS>  (1) 
4-(1-methylethyl)aniline; 4-Amino-1-isopropylbenzene; 4-Aminocumene; 4-Isopropylaniline; p-Cumidine; p-Isopropylaniline; para-isopropylaniline

$$$$
