
     RDKit          3D

  9  8  0  0  1  0  0  0  0  0999 V2000
    1.1051   -0.0530   -0.1471 N   0  0  0  0  0  0  0  0  0  0  0  0
    0.5407   -1.2628    0.4800 C   0  0  1  0  0  0  0  0  0  0  0  0
    0.9762   -1.3457    1.9598 C   0  0  0  0  0  0  0  0  0  0  0  0
    0.5849   -0.1776    2.8741 C   0  0  0  0  0  0  0  0  0  0  0  0
   -0.8896   -0.0580    3.1674 C   0  0  0  0  0  0  0  0  0  0  0  0
   -1.4012   -0.4441    4.2118 O   0  0  0  0  0  0  0  0  0  0  0  0
   -0.9880   -1.2831    0.2392 C   0  0  0  0  0  0  0  0  0  0  0  0
   -1.5077   -2.4501   -0.1861 O   0  0  0  0  0  0  0  0  0  0  0  0
   -1.7136   -0.3017    0.3976 O   0  0  0  0  0  0  0  0  0  0  0  0
  2  1  1  1
  2  3  1  0
  2  7  1  0
  3  4  1  0
  4  5  1  0
  5  6  2  0
  7  8  1  0
  7  9  2  0
M  END
>  <DRUGBANK_ID>  (1) 
DB04388

>  <SECONDARY_ACCESSION_NUMBERS>  (1) 
EXPT00821

>  <COMMON_NAME>  (1) 
4-Carboxy-4-Aminobutanal

>  <UNII>  (1) 
B517ZPX7HX

$$$$
