
     RDKit          3D

 24 27  0  0  0  0  0  0  0  0999 V2000
   -0.7380   -1.4985    1.6897 O   0  0  0  0  0  0  0  0  0  0  0  0
   -7.1905   -3.8668    1.1448 O   0  0  0  0  0  0  0  0  0  0  0  0
   -1.5139   -2.0091   -0.4932 O   0  0  0  0  0  0  0  0  0  0  0  0
   -2.2289   -1.4537    4.5479 C   0  0  2  0  0  0  0  0  0  0  0  0
   -0.7763   -1.2098    4.5781 C   0  0  2  0  0  0  0  0  0  0  0  0
   -2.3681   -3.0383    4.4633 C   0  0  2  0  0  0  0  0  0  0  0  0
    0.4867   -1.8968    4.8203 C   0  0  2  0  0  0  0  0  0  0  0  0
   -3.5605   -3.4612    3.4414 C   0  0  1  0  0  0  0  0  0  0  0  0
   -2.9807   -1.0264    3.3120 C   0  0  1  0  0  0  0  0  0  0  0  0
   -1.9173   -3.3442    5.9042 C   0  0  0  0  0  0  0  0  0  0  0  0
   -4.8541   -2.7511    3.4979 C   0  0  0  0  0  0  0  0  0  0  0  0
    0.2911   -0.9676    2.9480 C   0  0  2  0  0  0  0  0  0  0  0  0
   -0.3223   -3.1705    5.7942 C   0  0  0  0  0  0  0  0  0  0  0  0
    0.0759    0.1916    4.6079 C   0  0  0  0  0  0  0  0  0  0  0  0
   -4.4844   -1.2754    3.3949 C   0  0  0  0  0  0  0  0  0  0  0  0
   -0.3726    0.5850    3.3653 C   0  0  0  0  0  0  0  0  0  0  0  0
   -3.7119   -2.9627    1.6066 C   0  0  0  0  0  0  0  0  0  0  0  0
    0.9184   -1.1426    6.4119 C   0  0  0  0  0  0  0  0  0  0  0  0
   -5.7769   -3.6631    3.0379 C   0  0  0  0  0  0  0  0  0  0  0  0
   -2.7708    0.1687    2.4250 C   0  0  0  0  0  0  0  0  0  0  0  0
   -5.2082   -2.5204    0.9714 C   0  0  0  0  0  0  0  0  0  0  0  0
   -6.1690   -3.4202    1.6326 C   0  0  0  0  0  0  0  0  0  0  0  0
   -0.7400   -2.1104    0.4231 C   0  0  0  0  0  0  0  0  0  0  0  0
    0.3348   -3.1058    0.4606 C   0  0  0  0  0  0  0  0  0  0  0  0
  1 23  1  0
  2 22  2  0
  3 23  2  0
  4  5  1  0
  4  6  1  0
  4  9  1  6
  5  7  1  0
  5 14  1  1
  6  8  1  0
  6 10  1  1
  7 12  1  0
  7 13  1  0
  7 18  1  1
  8 11  1  0
  8 17  1  6
  9 15  1  0
  9 20  1  1
 10 13  1  0
 11 15  1  0
 11 19  2  0
 12 16  1  0
 12  1  1  6
 14 16  1  0
 17 21  1  0
 19 22  1  0
 21 22  1  0
 23 24  1  0
M  END
>  <DRUGBANK_ID>  (1) 
DB13958

>  <COMMON_NAME>  (1) 
Trestolone acetate

>  <CAS_NUMBER>  (1) 
6157-87-5

>  <UNII>  (1) 
52XDF4N1XL

>  <SYNONYMS>  (1) 
17beta-Hydroxy-7alpha-methylestr-4-en-3-one acetate; 17β-Hydroxy-7α-methylestr-4-en-3-one acetate; 7α-methyl-19-nortestosterone 17β-acetate; 7α-Methyl-19-nortestosterone acetate; Orgasteron acetate; Trestolone acetate

$$$$
