
     RDKit          3D

 33 36  0  0  0  0  0  0  0  0999 V2000
    0.9852    0.0781   -0.1126 C   0  0  1  0  0  0  0  0  0  0  0  0
    1.0099    1.5884   -0.2314 C   0  0  1  0  0  0  0  0  0  0  0  0
   -0.1882    2.1252    0.3208 O   0  0  0  0  0  0  0  0  0  0  0  0
   -1.3564    1.4724   -0.2303 C   0  0  2  0  0  0  0  0  0  0  0  0
   -2.5754    2.1691    0.3363 C   0  0  0  0  0  0  0  0  0  0  0  0
   -2.5314    3.5400   -0.0304 O   0  0  0  0  0  0  0  0  0  0  0  0
   -0.2488   -0.7134   -0.4480 C   0  0  2  0  0  0  0  0  0  0  0  0
   -1.4327   -0.0028    0.1539 C   0  0  2  0  0  0  0  0  0  0  0  0
   -2.6211   -0.6343   -0.3089 O   0  0  0  0  0  0  0  0  0  0  0  0
    2.2459    2.0935    0.3496 O   0  0  0  0  0  0  0  0  0  0  0  0
    2.4124    2.0696    1.7295 C   0  0  0  0  0  0  0  0  0  0  0  0
    2.4037    3.4130    2.4037 C   0  0  0  0  0  0  0  0  0  0  0  0
    2.1758    4.4401    1.7442 O   0  0  0  0  0  0  0  0  0  0  0  0
    2.8632    1.0341    3.8699 O   0  0  0  0  0  0  0  0  0  0  0  0
    2.7556    0.9896    2.4937 C   0  0  0  0  0  0  0  0  0  0  0  0
    3.0034   -0.4106    2.0128 C   0  0  0  0  0  0  0  0  0  0  0  0
    2.1095   -1.4557    2.3757 C   0  0  0  0  0  0  0  0  0  0  0  0
    2.0705   -2.6644    1.6470 C   0  0  0  0  0  0  0  0  0  0  0  0
    2.9238   -2.8371    0.5600 C   0  0  0  0  0  0  0  0  0  0  0  0
    2.7239   -3.8389   -0.3589 O   0  0  0  0  0  0  0  0  0  0  0  0
    3.1533    4.6093    5.9536 C   0  0  0  0  0  0  0  0  0  0  0  0
    2.8300    4.6486    4.5917 C   0  0  0  0  0  0  0  0  0  0  0  0
    2.7121    3.4615    3.8477 C   0  0  0  0  0  0  0  0  0  0  0  0
    2.9130    2.2456    4.4974 C   0  0  0  0  0  0  0  0  0  0  0  0
    3.2119    2.1982    5.8593 C   0  0  0  0  0  0  0  0  0  0  0  0
    3.3411    3.3788    6.5741 C   0  0  0  0  0  0  0  0  0  0  0  0
    3.6656    3.2843    7.8938 O   0  0  0  0  0  0  0  0  0  0  0  0
    2.6408    5.8662    4.0009 O   0  0  0  0  0  0  0  0  0  0  0  0
    3.9454   -0.6638    1.0020 C   0  0  0  0  0  0  0  0  0  0  0  0
    3.8869   -1.8644    0.2728 C   0  0  0  0  0  0  0  0  0  0  0  0
    4.5767   -1.9264   -0.9173 O   0  0  0  0  0  0  0  0  0  0  0  0
    2.0675   -0.4578   -0.8227 O   0  0  0  0  0  0  0  0  0  0  0  0
   -0.2239   -2.0489    0.0939 O   0  0  0  0  0  0  0  0  0  0  0  0
  1  2  1  0
  1  7  1  0
  1 32  1  6
  2  3  1  0
  2 10  1  1
  3  4  1  0
  4  5  1  1
  4  8  1  0
  5  6  1  0
  7  8  1  0
  7 33  1  1
  8  9  1  6
 10 11  1  0
 11 12  1  0
 11 15  2  0
 12 13  2  0
 12 23  1  0
 14 15  1  0
 14 24  1  0
 15 16  1  0
 16 17  2  0
 16 29  1  0
 17 18  1  0
 18 19  2  0
 19 20  1  0
 19 30  1  0
 21 22  1  0
 21 26  2  0
 22 23  2  0
 22 28  1  0
 23 24  1  0
 24 25  2  0
 25 26  1  0
 26 27  1  0
 29 30  2  0
 30 31  1  0
M  END
>  <DRUGBANK_ID>  (1) 
DB12665

>  <COMMON_NAME>  (1) 
Isoquercetin

>  <CAS_NUMBER>  (1) 
482-35-9

>  <UNII>  (1) 
6HN2PC637T

>  <SYNONYMS>  (1) 
Quercetin 3-O-glucopyranoside; Quercetin-3-O-glucoside

$$$$
