FIH
     RDKit          3D

 26 28  0  0  0  0  0  0  0  0999 V2000
    0.1244    1.1949    0.0137 C   0  0  0  0  0  0  0  0  0  0  0  0
    0.8079   -0.0126    0.0109 C   0  0  0  0  0  0  0  0  0  0  0  0
    0.1186   -1.2200    0.0245 C   0  0  0  0  0  0  0  0  0  0  0  0
   -1.2810   -1.2248    0.0625 C   0  0  0  0  0  0  0  0  0  0  0  0
   -1.9942   -0.0198    0.1094 C   0  0  0  0  0  0  0  0  0  0  0  0
   -1.2740    1.1912    0.0548 C   0  0  0  0  0  0  0  0  0  0  0  0
   -5.9213   -0.2230    0.3704 C   0  0  0  0  0  0  0  0  0  0  0  0
   -5.6086    0.4424   -0.8181 C   0  0  0  0  0  0  0  0  0  0  0  0
   -4.2005    0.5758   -0.9502 C   0  0  0  0  0  0  0  0  0  0  0  0
   -3.4624   -0.0016    0.0537 C   0  0  0  0  0  0  0  0  0  0  0  0
   -4.4934   -0.7030    1.2210 S   0  0  0  0  0  0  0  0  0  0  0  0
    2.1473   -0.0150   -0.0122 F   0  0  0  0  0  0  0  0  0  0  0  0
   -7.2629   -0.5204    0.8571 C   0  0  0  0  0  0  0  0  0  0  0  0
   -7.3348   -1.2066    2.0283 O   0  0  0  0  0  0  0  0  0  0  0  0
   -8.2888   -0.1874    0.2665 O   0  0  0  0  0  0  0  0  0  0  0  0
   -6.5390    0.8992   -1.7895 N   0  0  0  0  0  0  0  0  0  0  0  0
   -6.1773    1.8828   -3.1334 S   0  0  0  0  0  0  0  0  0  0  0  0
   -7.3651    1.6609   -5.6039 C   0  0  0  0  0  0  0  0  0  0  0  0
   -6.8137    0.9677   -4.5212 C   0  0  0  0  0  0  0  0  0  0  0  0
   -6.6206   -0.4134   -4.5881 C   0  0  0  0  0  0  0  0  0  0  0  0
   -6.9575   -1.0992   -5.7583 C   0  0  0  0  0  0  0  0  0  0  0  0
   -7.4857   -0.4162   -6.8625 C   0  0  0  0  0  0  0  0  0  0  0  0
   -7.6955    0.9672   -6.7728 C   0  0  0  0  0  0  0  0  0  0  0  0
   -7.8021   -1.1503   -8.1349 C   0  0  0  0  0  0  0  0  0  0  0  0
   -6.9673    3.0899   -2.9979 O   0  0  0  0  0  0  0  0  0  0  0  0
   -4.7562    1.9540   -3.3824 O   0  0  0  0  0  0  0  0  0  0  0  0
  1  2  2  0
  1  6  1  0
  2  3  1  0
  2 12  1  0
  3  4  2  0
  4  5  1  0
  5  6  2  0
  5 10  1  0
  7  8  2  0
  7 11  1  0
  7 13  1  0
  8  9  1  0
  8 16  1  0
  9 10  2  0
 10 11  1  0
 13 14  1  0
 13 15  2  0
 16 17  1  0
 17 19  1  0
 17 25  2  0
 17 26  2  0
 18 19  2  0
 18 23  1  0
 19 20  1  0
 20 21  2  0
 21 22  1  0
 22 23  2  0
 22 24  1  0
M  END
>  <DRUGBANK_ID>  (1) 
DB07770

>  <COMMON_NAME>  (1) 
5-(4-FLUOROPHENYL)-3-{[(4-METHYLPHENYL)SULFONYL]AMINO}THIOPHENE-2-CARBOXYLIC ACID

$$$$
