MDC
     RDKit          3D

 28 30  0  0  0  0  0  0  0  0999 V2000
    0.6532   -1.4814   -0.0374 C   0  0  0  0  0  0  0  0  0  0  0  0
   -0.8426   -1.3721    0.0206 C   0  0  0  0  0  0  0  0  0  0  0  0
   -1.1233    0.1041   -0.0175 C   0  0  0  0  0  0  0  0  0  0  0  0
   -2.2548    0.5704   -0.0052 O   0  0  0  0  0  0  0  0  0  0  0  0
    0.0700    0.7900   -0.0601 N   0  0  0  0  0  0  0  0  0  0  0  0
    1.1200   -0.0835    0.0310 C   0  0  0  0  0  0  0  0  0  0  0  0
    2.3233    0.1316    0.1455 O   0  0  0  0  0  0  0  0  0  0  0  0
    0.1226    2.1727   -0.1657 C   0  0  0  0  0  0  0  0  0  0  0  0
    1.2029    2.9639   -0.2626 C   0  0  0  0  0  0  0  0  0  0  0  0
    2.4987    2.5196   -0.2214 N   0  0  0  0  0  0  0  0  0  0  0  0
    3.7118    3.1302   -0.1965 C   0  0  0  0  0  0  0  0  0  0  0  0
    4.7480    2.4667   -0.2070 O   0  0  0  0  0  0  0  0  0  0  0  0
    2.7711    6.7221    0.3285 O   0  0  0  0  0  0  0  0  0  0  0  0
    2.9051    5.3936    0.6615 C   0  0  0  0  0  0  0  0  0  0  0  0
    2.2933    4.9268    1.6152 O   0  0  0  0  0  0  0  0  0  0  0  0
    3.7507    4.5871   -0.2331 C   0  0  0  0  0  0  0  0  0  0  0  0
    4.5809    5.1166   -1.1417 C   0  0  0  0  0  0  0  0  0  0  0  0
    4.5687    6.5481   -1.3133 C   0  0  0  0  0  0  0  0  0  0  0  0
    3.6554    7.2910   -0.5911 C   0  0  0  0  0  0  0  0  0  0  0  0
    5.4156    7.2106   -2.1832 C   0  0  0  0  0  0  0  0  0  0  0  0
    5.3073    8.6011   -2.3279 C   0  0  0  0  0  0  0  0  0  0  0  0
    4.3656    9.3722   -1.6208 C   0  0  0  0  0  0  0  0  0  0  0  0
    4.1918   10.7371   -1.8090 N   0  0  0  0  0  0  0  0  0  0  0  0
    3.5739    8.6648   -0.7128 C   0  0  0  0  0  0  0  0  0  0  0  0
    5.0742   11.5254   -2.6768 C   0  0  0  0  0  0  0  0  0  0  0  0
    4.2860   12.1888   -3.7942 C   0  0  0  0  0  0  0  0  0  0  0  0
    3.1571   11.4759   -1.0572 C   0  0  0  0  0  0  0  0  0  0  0  0
    1.7407   11.0715   -1.4747 C   0  0  0  0  0  0  0  0  0  0  0  0
  1  2  1  0
  1  6  1  0
  2  3  1  0
  3  4  2  0
  3  5  1  0
  5  6  1  0
  5  8  1  0
  6  7  2  0
  8  9  2  0
  9 10  1  0
 10 11  1  0
 11 12  2  0
 11 16  1  0
 13 14  1  0
 13 19  1  0
 14 15  2  0
 14 16  1  0
 16 17  2  0
 17 18  1  0
 18 19  2  0
 18 20  1  0
 19 24  1  0
 20 21  2  0
 21 22  1  0
 22 23  1  0
 22 24  2  0
 23 25  1  0
 23 27  1  0
 25 26  1  0
 27 28  1  0
M  END
>  <DRUGBANK_ID>  (1) 
DB02799

>  <SECONDARY_ACCESSION_NUMBERS>  (1) 
EXPT02140

>  <COMMON_NAME>  (1) 
N-[2-(1-maleimidyl)ethyl]-7-diethylaminocoumarin-3-carboxamide

$$$$
