
     RDKit          3D

 28 30  0  0  1  0  0  0  0  0999 V2000
    0.9540    0.0747   -0.0534 C   0  0  0  0  0  0  0  0  0  0  0  0
    0.5066    0.7828   -1.2593 C   0  0  0  0  0  0  0  0  0  0  0  0
   -0.0676    0.1397   -2.3459 C   0  0  0  0  0  0  0  0  0  0  0  0
   -0.2212    1.1332   -3.2436 C   0  0  0  0  0  0  0  0  0  0  0  0
   -0.7144    1.0116   -4.4653 N   0  0  0  0  0  0  0  0  0  0  0  0
   -0.7546    2.1273   -5.1027 C   0  0  0  0  0  0  0  0  0  0  0  0
   -0.2862    3.5105   -4.7142 C   0  0  0  0  0  0  0  0  0  0  0  0
    0.1671    3.5195   -3.4428 C   0  0  0  0  0  0  0  0  0  0  0  0
    0.2095    2.3363   -2.6943 N   0  0  0  0  0  0  0  0  0  0  0  0
    0.6574    2.1090   -1.4315 N   0  0  0  0  0  0  0  0  0  0  0  0
   -0.2655    4.8194   -5.4702 C   0  0  0  0  0  0  0  0  0  0  0  0
    0.1478    5.8687   -4.9702 O   0  0  0  0  0  0  0  0  0  0  0  0
   -0.7965    4.8866   -6.7306 N   0  0  0  0  0  0  0  0  0  0  0  0
   -1.3681    3.7872   -7.4738 C   0  0  0  0  0  0  0  0  0  0  0  0
   -3.0538    3.4522   -7.6659 C   0  0  0  0  0  0  0  0  0  0  0  0
   -3.8602    4.1550   -8.7245 C   0  0  0  0  0  0  0  0  0  0  0  0
   -3.4267    2.0767   -8.2871 C   0  0  0  0  0  0  0  0  0  0  0  0
   -3.7886    4.0182   -6.5231 N   0  0  0  0  0  0  0  0  0  0  0  0
   -3.3547    5.4319   -6.2056 C   0  0  0  0  0  0  0  0  0  0  0  0
   -3.1822    6.6150   -7.4003 C   0  0  0  0  0  0  0  0  0  0  0  0
   -3.8261    7.6596   -7.2104 O   0  0  0  0  0  0  0  0  0  0  0  0
   -2.1747    6.5072   -8.5689 N   0  0  0  0  0  0  0  0  0  0  0  0
   -1.7288    7.7556   -9.1442 C   0  0  0  0  0  0  0  0  0  0  0  0
   -0.8046    7.2563  -10.2794 C   0  0  0  0  0  0  0  0  0  0  0  0
   -1.5837    6.2366  -11.0515 C   0  0  0  0  0  0  0  0  0  0  0  0
   -2.1464    5.5115   -9.8945 C   0  0  1  0  0  0  0  0  0  0  0  0
   -1.4019    4.2143   -9.9772 C   0  0  0  0  0  0  0  0  0  0  0  0
   -0.8904    3.1444  -10.1087 N   0  0  0  0  0  0  0  0  0  0  0  0
  1  2  1  0
  2  3  1  0
  2 10  2  0
  3  4  2  0
  4  5  1  0
  4  9  1  0
  5  6  2  0
  6  7  1  0
  7  8  2  0
  7 11  1  0
  8  9  1  0
  9 10  1  0
 11 12  2  0
 11 13  1  0
 13 14  1  0
 14 15  1  0
 15 16  1  0
 15 17  1  0
 15 18  1  0
 18 19  1  0
 19 20  1  0
 20 21  2  0
 20 22  1  0
 22 23  1  0
 22 26  1  0
 23 24  1  0
 24 25  1  0
 25 26  1  0
 26 27  1  1
 27 28  3  0
M  END
>  <DRUGBANK_ID>  (1) 
DB12417

>  <COMMON_NAME>  (1) 
Anagliptin

>  <CAS_NUMBER>  (1) 
739366-20-2

>  <UNII>  (1) 
K726J96838

>  <SYNONYMS>  (1) 
Anagliptin

$$$$
