
     RDKit          3D

 31 34  0  0  1  0  0  0  0  0999 V2000
    1.2353   -0.2630    0.1497 O   0  0  0  0  0  0  0  0  0  0  0  0
    0.7520   -0.4351    1.5217 C   0  0  2  0  0  0  0  0  0  0  0  0
   -0.2357   -1.6532    1.5440 C   0  0  0  0  0  0  0  0  0  0  0  0
   -1.4637   -1.4455    0.7441 N   0  0  0  0  0  0  0  0  0  0  0  0
   -2.2106   -0.3044    1.0631 C   0  0  0  0  0  0  0  0  0  0  0  0
   -1.1578    0.7278    0.9937 C   0  0  0  0  0  0  0  0  0  0  0  0
    0.0220    0.8475    1.9188 C   0  0  2  0  0  0  0  0  0  0  0  0
    0.9918    1.9143    1.6960 O   0  0  0  0  0  0  0  0  0  0  0  0
   -0.5475    1.1873    3.3235 C   0  0  0  0  0  0  0  0  0  0  0  0
   -1.9218    1.7247    3.3767 O   0  0  0  0  0  0  0  0  0  0  0  0
   -2.3586    2.9472    2.8644 C   0  0  0  0  0  0  0  0  0  0  0  0
   -3.3408    3.5042    3.6691 C   0  0  0  0  0  0  0  0  0  0  0  0
   -3.9218    4.7184    3.2830 C   0  0  0  0  0  0  0  0  0  0  0  0
   -3.5674    5.3672    2.0780 C   0  0  0  0  0  0  0  0  0  0  0  0
   -4.1213    6.5454    1.7803 F   0  0  0  0  0  0  0  0  0  0  0  0
   -2.6727    4.8090    1.1938 C   0  0  0  0  0  0  0  0  0  0  0  0
   -2.2443    5.3798   -0.0592 N   0  0  0  0  0  0  0  0  0  0  0  0
   -1.1464    4.8801   -0.7912 C   0  0  0  0  0  0  0  0  0  0  0  0
   -0.2110    5.5048   -1.2134 O   0  0  0  0  0  0  0  0  0  0  0  0
   -1.2682    3.4300   -1.0131 C   0  0  0  0  0  0  0  0  0  0  0  0
   -1.5150    3.0035    0.3741 C   0  0  0  0  0  0  0  0  0  0  0  0
   -2.1378    3.5971    1.5768 C   0  0  0  0  0  0  0  0  0  0  0  0
   -1.9019   -2.1151   -0.3724 C   0  0  0  0  0  0  0  0  0  0  0  0
   -2.2949   -3.4382   -0.2170 C   0  0  0  0  0  0  0  0  0  0  0  0
   -2.1646   -4.0152    0.9882 F   0  0  0  0  0  0  0  0  0  0  0  0
   -2.9068   -4.1451   -1.2386 C   0  0  0  0  0  0  0  0  0  0  0  0
   -3.1259   -3.5301   -2.4673 C   0  0  0  0  0  0  0  0  0  0  0  0
   -3.8627   -4.4212   -3.7377 Cl  0  0  0  0  0  0  0  0  0  0  0  0
   -2.7607   -2.2067   -2.6742 C   0  0  0  0  0  0  0  0  0  0  0  0
   -2.1679   -1.5071   -1.6269 C   0  0  0  0  0  0  0  0  0  0  0  0
   -1.8808   -0.2105   -1.8467 F   0  0  0  0  0  0  0  0  0  0  0  0
  2  1  1  6
  2  3  1  0
  2  7  1  0
  3  4  1  0
  4  5  1  0
  4 23  1  0
  5  6  1  0
  7  6  1  0
  7  9  1  0
  7  8  1  6
  9 10  1  0
 10 11  1  0
 11 12  2  0
 11 22  1  0
 12 13  1  0
 13 14  2  0
 14 15  1  0
 14 16  1  0
 16 17  1  0
 16 22  2  0
 17 18  1  0
 18 19  2  0
 18 20  1  0
 20 21  1  0
 21 22  1  0
 23 24  2  0
 23 30  1  0
 24 25  1  0
 24 26  1  0
 26 27  2  0
 27 28  1  0
 27 29  1  0
 29 30  2  0
 30 31  1  0
M  END
>  <DRUGBANK_ID>  (1) 
DB17770

>  <COMMON_NAME>  (1) 
Quabodepistat

>  <CAS_NUMBER>  (1) 
1883747-71-4

>  <UNII>  (1) 
1PQN78P4S3

>  <SYNONYMS>  (1) 
2(1H)-QUINOLINONE, 5-(((3R,4R)-1-(4-CHLORO-2,6-DIFLUOROPHENYL)-3,4-DIHYDROXY-4-PIPERIDINYL)METHOXY)-8-FLUORO-3,4-DIHYDRO-; 5-(((3r,4r)-1-(4-chloro-2,6-difluorophenyl)-3,4-dihydroxypiperidin-4-yl)methoxy)-8-fluoro-3,4-dihydroquinolin-2(1h)-one; 5-{[(3R,4R)-1-(4-chloro-2,6-difluorophenyl)-3,4-dihydroxypiperidin-4-yl]methoxy}-8-fluoro-3,4-dihydroquinolin-2(1H)-one

$$$$
