
     RDKit          3D

 28 31  0  0  0  0  0  0  0  0999 V2000
    0.8899    0.0518    0.1966 O   0  0  0  0  0  0  0  0  0  0  0  0
    7.4085    1.8079   -2.0454 N   0  0  0  0  0  0  0  0  0  0  0  0
    5.7401    2.6328    2.4343 N   0  0  0  0  0  0  0  0  0  0  0  0
    5.0229    1.0604   -0.7187 C   0  0  0  0  0  0  0  0  0  0  0  0
    5.4625    2.5255   -0.7341 C   0  0  0  0  0  0  0  0  0  0  0  0
    6.1836    0.1039   -0.7916 C   0  0  0  0  0  0  0  0  0  0  0  0
    6.2853    2.7434   -1.9487 C   0  0  0  0  0  0  0  0  0  0  0  0
    6.9917    0.3940   -2.0128 C   0  0  0  0  0  0  0  0  0  0  0  0
    3.8365    0.8257   -1.6582 C   0  0  0  0  0  0  0  0  0  0  0  0
    2.9231   -0.2368   -1.0644 C   0  0  0  0  0  0  0  0  0  0  0  0
    8.1713    2.0666   -3.2777 C   0  0  0  0  0  0  0  0  0  0  0  0
    2.0978    0.1930    0.2000 C   0  0  0  0  0  0  0  0  0  0  0  0
    7.3683    1.8321   -4.5483 C   0  0  0  0  0  0  0  0  0  0  0  0
    2.7580    0.6494    1.5090 C   0  0  0  0  0  0  0  0  0  0  0  0
    4.3902    1.1692    3.7689 C   0  0  0  0  0  0  0  0  0  0  0  0
    5.2878    1.5109    4.9426 C   0  0  0  0  0  0  0  0  0  0  0  0
    4.5634    1.9070    2.6087 C   0  0  0  0  0  0  0  0  0  0  0  0
    6.7308    1.0079    4.7753 C   0  0  0  0  0  0  0  0  0  0  0  0
    7.5882    1.8974    3.8647 C   0  0  0  0  0  0  0  0  0  0  0  0
    3.5782    1.7865    1.6088 C   0  0  0  0  0  0  0  0  0  0  0  0
    7.0370    1.9345    2.4504 C   0  0  0  0  0  0  0  0  0  0  0  0
    2.5797   -0.0823    2.6744 C   0  0  0  0  0  0  0  0  0  0  0  0
    6.2283    2.5993   -4.8526 C   0  0  0  0  0  0  0  0  0  0  0  0
    7.6503    0.7286   -5.3510 C   0  0  0  0  0  0  0  0  0  0  0  0
    3.3353    0.2397    3.8246 C   0  0  0  0  0  0  0  0  0  0  0  0
    5.2496    2.1138   -5.7091 C   0  0  0  0  0  0  0  0  0  0  0  0
    6.7754    0.3786   -6.3777 C   0  0  0  0  0  0  0  0  0  0  0  0
    5.5386    1.0132   -6.4975 C   0  0  0  0  0  0  0  0  0  0  0  0
  1 12  2  0
  2  7  1  0
  2  8  1  0
  2 11  1  0
  3 17  1  0
  3 21  1  0
  4  5  1  0
  4  6  1  0
  4  9  1  0
  5  7  1  0
  6  8  1  0
  9 10  1  0
 10 12  1  0
 11 13  1  0
 12 14  1  0
 13 23  2  0
 13 24  1  0
 14 20  2  0
 14 22  1  0
 15 16  1  0
 15 17  2  0
 15 25  1  0
 16 18  1  0
 17 20  1  0
 18 19  1  0
 19 21  1  0
 22 25  2  0
 23 26  1  0
 24 27  2  0
 26 28  2  0
 27 28  1  0
M  END
>  <DRUGBANK_ID>  (1) 
DB04859

>  <COMMON_NAME>  (1) 
Zanapezil

>  <CAS_NUMBER>  (1) 
142852-50-4

>  <UNII>  (1) 
0A0800O89N

>  <SYNONYMS>  (1) 
Zanapezil; Zanepezil

$$$$
