
     RDKit          3D

 31 34  0  0  0  0  0  0  0  0999 V2000
    1.3919   -0.2055    0.0174 C   0  0  0  0  0  0  0  0  0  0  0  0
    0.5473   -1.3100    0.0040 C   0  0  0  0  0  0  0  0  0  0  0  0
   -0.8327   -1.1303   -0.0617 C   0  0  0  0  0  0  0  0  0  0  0  0
   -1.3862    0.1529   -0.0699 C   0  0  0  0  0  0  0  0  0  0  0  0
   -0.5337    1.2598    0.0094 C   0  0  0  0  0  0  0  0  0  0  0  0
    0.8534    1.0804    0.0037 C   0  0  0  0  0  0  0  0  0  0  0  0
   -2.7297    0.4345   -0.2242 O   0  0  0  0  0  0  0  0  0  0  0  0
   -3.6333   -0.6018   -0.2853 C   0  0  0  0  0  0  0  0  0  0  0  0
   -3.7934   -1.4898    0.7798 C   0  0  0  0  0  0  0  0  0  0  0  0
   -4.7340   -2.5158    0.7035 C   0  0  0  0  0  0  0  0  0  0  0  0
   -5.5816   -2.6166   -0.4058 C   0  0  0  0  0  0  0  0  0  0  0  0
   -5.4644   -1.6735   -1.4406 C   0  0  0  0  0  0  0  0  0  0  0  0
   -4.4663   -0.6946   -1.4002 C   0  0  0  0  0  0  0  0  0  0  0  0
   -6.5045   -3.7985   -0.5436 C   0  0  0  0  0  0  0  0  0  0  0  0
   -7.8863   -3.4106   -0.7357 N   0  0  0  0  0  0  0  0  0  0  0  0
   -8.6730   -3.6653   -1.8421 C   0  0  0  0  0  0  0  0  0  0  0  0
   -9.7821   -3.1167   -1.8971 O   0  0  0  0  0  0  0  0  0  0  0  0
   -8.1680   -4.5565   -2.8671 C   0  0  0  0  0  0  0  0  0  0  0  0
   -7.4558   -5.6518   -2.6785 N   0  0  0  0  0  0  0  0  0  0  0  0
   -7.2037   -6.0701   -3.9581 C   0  0  0  0  0  0  0  0  0  0  0  0
   -7.7336   -5.2879   -4.9119 N   0  0  0  0  0  0  0  0  0  0  0  0
   -8.4051   -4.2933   -4.1846 O   0  0  0  0  0  0  0  0  0  0  0  0
   -6.4839   -7.3053   -4.2209 C   0  0  0  0  0  0  0  0  0  0  0  0
   -6.9321   -8.5018   -3.6421 C   0  0  0  0  0  0  0  0  0  0  0  0
   -6.2998   -9.7117   -3.9463 C   0  0  0  0  0  0  0  0  0  0  0  0
   -5.2168   -9.7414   -4.8279 C   0  0  0  0  0  0  0  0  0  0  0  0
   -4.7903   -8.5520   -5.4251 C   0  0  0  0  0  0  0  0  0  0  0  0
   -5.3834   -7.3307   -5.0845 C   0  0  0  0  0  0  0  0  0  0  0  0
   -3.4888   -8.5624   -6.8066 Br  0  0  0  0  0  0  0  0  0  0  0  0
   -4.5629  -10.9096   -5.1205 O   0  0  0  0  0  0  0  0  0  0  0  0
   -6.9953  -11.3146   -3.2098 Br  0  0  0  0  0  0  0  0  0  0  0  0
  1  2  2  0
  1  6  1  0
  2  3  1  0
  3  4  2  0
  4  5  1  0
  4  7  1  0
  5  6  2  0
  7  8  1  0
  8  9  2  0
  8 13  1  0
  9 10  1  0
 10 11  2  0
 11 12  1  0
 11 14  1  0
 12 13  2  0
 14 15  1  0
 15 16  1  0
 16 17  2  0
 16 18  1  0
 18 19  2  0
 18 22  1  0
 19 20  1  0
 20 21  2  0
 20 23  1  0
 21 22  1  0
 23 24  2  0
 23 28  1  0
 24 25  1  0
 25 26  2  0
 25 31  1  0
 26 27  1  0
 26 30  1  0
 27 28  2  0
 27 29  1  0
M  END
>  <DRUGBANK_ID>  (1) 
DB12959

>  <COMMON_NAME>  (1) 
IOWH-032

>  <CAS_NUMBER>  (1) 
1191252-49-9

>  <UNII>  (1) 
8Y3GDT6YWV

$$$$
