
     RDKit          3D

 19 22  0  0  0  0  0  0  0  0999 V2000
    1.0992   -0.2792   -0.1441 C   0  0  0  0  0  0  0  0  0  0  0  0
   -2.9021   -1.4204    3.2169 C   0  0  0  0  0  0  0  0  0  0  0  0
   -5.0039    3.9179   -0.1594 C   0  0  0  0  0  0  0  0  0  0  0  0
   -2.3688   -1.9628    2.0468 C   0  0  0  0  0  0  0  0  0  0  0  0
   -4.4754    3.3927   -1.3425 C   0  0  0  0  0  0  0  0  0  0  0  0
   -2.9917   -0.0368    3.3831 C   0  0  0  0  0  0  0  0  0  0  0  0
   -4.4409    3.6017    1.0757 C   0  0  0  0  0  0  0  0  0  0  0  0
   -1.9113   -1.1290    1.0252 C   0  0  0  0  0  0  0  0  0  0  0  0
   -3.3697    2.5389   -1.3144 C   0  0  0  0  0  0  0  0  0  0  0  0
   -1.1754    2.8426    2.2388 C   0  0  0  0  0  0  0  0  0  0  0  0
   -0.5587    2.3268    0.9134 C   0  0  0  0  0  0  0  0  0  0  0  0
   -0.8904    0.7509   -1.1464 C   0  0  0  0  0  0  0  0  0  0  0  0
   -2.6180    2.3212    2.3812 C   0  0  0  0  0  0  0  0  0  0  0  0
   -2.5289    0.7977    2.3682 C   0  0  0  0  0  0  0  0  0  0  0  0
   -3.3385    2.7544    1.1087 C   0  0  0  0  0  0  0  0  0  0  0  0
   -1.9671    0.2572    1.1836 C   0  0  0  0  0  0  0  0  0  0  0  0
   -2.7872    2.2206   -0.0910 C   0  0  0  0  0  0  0  0  0  0  0  0
   -1.5344    1.3345    0.1541 C   0  0  0  0  0  0  0  0  0  0  0  0
    0.5751    0.6098   -1.1693 N   0  0  0  0  0  0  0  0  0  0  0  0
  4  2  2  0
  5  3  2  0
  6  2  1  0
  7  3  1  0
  8  4  1  0
  9  5  1  0
 11 10  1  0
 13 10  1  0
 14  6  2  0
 14 13  1  0
 15  7  2  0
 15 13  1  0
 16  8  2  0
 16 14  1  0
 17  9  2  0
 17 15  1  0
 18 11  1  0
 18 12  1  0
 18 16  1  0
 18 17  1  0
 19  1  1  0
 19 12  1  0
M  END
>  <DRUGBANK_ID>  (1) 
DB09021

>  <COMMON_NAME>  (1) 
Benzoctamine

>  <CAS_NUMBER>  (1) 
17243-39-9

>  <UNII>  (1) 
734MM7Y191

>  <SYNONYMS>  (1) 
Benzoctamine; N-Methyl-9,10-ethanoanthracene-9(10H)-methanamine

$$$$
