
     RDKit          3D

 34 37  0  0  0  0  0  0  0  0999 V2000
    2.3201   -0.0331   -0.2542 C   0  0  0  0  0  0  0  0  0  0  0  0
    1.5510    0.9997   -0.5613 N   0  0  0  0  0  0  0  0  0  0  0  0
    1.5230   -1.1704   -0.3610 N   0  0  0  0  0  0  0  0  0  0  0  0
    0.2053   -0.7312   -0.6906 C   0  0  0  0  0  0  0  0  0  0  0  0
    0.2521    0.6325   -0.4840 C   0  0  0  0  0  0  0  0  0  0  0  0
    0.3544    2.0677    4.8222 C   0  0  0  0  0  0  0  0  0  0  0  0
    0.7216    2.6991    6.1251 C   0  0  0  0  0  0  0  0  0  0  0  0
    4.7765    2.9386   -0.1015 N   0  0  0  0  0  0  0  0  0  0  0  0
    3.8656    0.0482   -0.0885 C   0  0  0  0  0  0  0  0  0  0  0  0
    0.9698    2.8142    3.6509 C   0  0  0  0  0  0  0  0  0  0  0  0
   -0.0617    3.2211    6.9367 O   0  0  0  0  0  0  0  0  0  0  0  0
    4.5124    0.6960    1.1702 C   0  0  0  0  0  0  0  0  0  0  0  0
    4.4267    0.7632   -1.3156 C   0  0  0  0  0  0  0  0  0  0  0  0
    1.5999    2.1162    2.6638 C   0  0  0  0  0  0  0  0  0  0  0  0
    0.8044    4.1974    3.4375 C   0  0  0  0  0  0  0  0  0  0  0  0
    4.6725    2.2269    1.1736 C   0  0  0  0  0  0  0  0  0  0  0  0
    4.1633    2.2658   -1.2545 C   0  0  0  0  0  0  0  0  0  0  0  0
    1.9633   -2.5426   -0.1133 C   0  0  0  0  0  0  0  0  0  0  0  0
    4.2329    4.3320    0.0234 C   0  0  0  0  0  0  0  0  0  0  0  0
    2.0408    2.6444    6.3862 O   0  0  0  0  0  0  0  0  0  0  0  0
    1.9184    4.1256    1.3087 C   0  0  0  0  0  0  0  0  0  0  0  0
    1.8267    2.7670    1.4756 C   0  0  0  0  0  0  0  0  0  0  0  0
    1.3739    4.8636    2.3293 C   0  0  0  0  0  0  0  0  0  0  0  0
    2.6731    4.6157    0.0889 C   0  0  0  0  0  0  0  0  0  0  0  0
   -1.0523   -1.3780   -0.8177 C   0  0  0  0  0  0  0  0  0  0  0  0
   -1.1597    2.0525    4.5279 C   0  0  0  0  0  0  0  0  0  0  0  0
    0.8260    0.6186    4.9684 C   0  0  0  0  0  0  0  0  0  0  0  0
   -0.9189    1.3839   -0.2272 C   0  0  0  0  0  0  0  0  0  0  0  0
    0.3119   -3.5458    1.6232 O   0  0  0  0  0  0  0  0  0  0  0  0
    1.6685   -3.2809    1.2380 C   0  0  0  0  0  0  0  0  0  0  0  0
   -0.4179   -2.3669    1.8356 C   0  0  0  0  0  0  0  0  0  0  0  0
   -2.1976   -0.6472   -0.4131 C   0  0  0  0  0  0  0  0  0  0  0  0
   -2.1446    0.7176   -0.1463 C   0  0  0  0  0  0  0  0  0  0  0  0
    0.0815   -1.3482    2.7758 C   0  0  0  0  0  0  0  0  0  0  0  0
  2  1  2  0
  3  1  1  0
  4  3  1  0
  4  5  2  0
  5  2  1  0
  6 10  1  0
  7  6  1  0
  8 17  1  0
  8 16  1  0
  9  1  1  0
 10 15  2  0
 11  7  2  0
 12  9  1  0
 13  9  1  0
 14 22  2  0
 14 10  1  0
 15 23  1  0
 16 12  1  0
 17 13  1  0
 18  3  1  0
 19  8  1  0
 20  7  1  0
 21 24  1  0
 22 21  1  0
 23 21  2  0
 24 19  1  0
 25  4  1  0
 26  6  1  0
 27  6  1  0
 28  5  1  0
 29 30  1  0
 30 18  1  0
 31 29  1  0
 32 25  2  0
 32 33  1  0
 33 28  2  0
 34 31  1  0
M  END
>  <DRUGBANK_ID>  (1) 
DB11591

>  <COMMON_NAME>  (1) 
Bilastine

>  <CAS_NUMBER>  (1) 
202189-78-4

>  <UNII>  (1) 
PA1123N395

>  <SYNONYMS>  (1) 
Bilastina; Bilastine

$$$$
