
     RDKit          3D

 37 40  0  0  0  0  0  0  0  0999 V2000
    1.3038   -0.4844    0.7523 C   0  0  0  0  0  0  0  0  0  0  0  0
    0.4016   -1.5162    0.6334 C   0  0  0  0  0  0  0  0  0  0  0  0
   -0.9694   -1.2347    0.5305 C   0  0  0  0  0  0  0  0  0  0  0  0
   -1.4346    0.0926    0.4670 C   0  0  0  0  0  0  0  0  0  0  0  0
   -0.5342    1.1653    0.5421 C   0  0  0  0  0  0  0  0  0  0  0  0
    0.8226    0.8153    0.7421 C   0  0  0  0  0  0  0  0  0  0  0  0
    0.8453    3.5018    2.0294 C   0  0  0  0  0  0  0  0  0  0  0  0
   -0.5263    3.2687    1.7896 C   0  0  0  0  0  0  0  0  0  0  0  0
   -0.9908    2.6446    0.4586 C   0  0  0  0  0  0  0  0  0  0  0  0
    1.3564    3.8268    3.2673 C   0  0  0  0  0  0  0  0  0  0  0  0
    0.4823    3.9351    4.3254 C   0  0  0  0  0  0  0  0  0  0  0  0
   -0.8887    3.7596    4.1249 C   0  0  0  0  0  0  0  0  0  0  0  0
   -1.3925    3.4045    2.8747 C   0  0  0  0  0  0  0  0  0  0  0  0
   -0.6440    3.6102   -0.7875 C   0  0  0  0  0  0  0  0  0  0  0  0
   -1.3202    3.2283   -2.1274 C   0  0  0  0  0  0  0  0  0  0  0  0
   -0.5876    2.0580   -2.7502 C   0  0  0  0  0  0  0  0  0  0  0  0
    0.8580    2.2064   -2.9893 N   0  0  0  0  0  0  0  0  0  0  0  0
    1.5109    2.6907   -1.7779 C   0  0  0  0  0  0  0  0  0  0  0  0
    0.8298    3.8853   -1.1381 C   0  0  0  0  0  0  0  0  0  0  0  0
   -2.4447    2.6123    0.4545 O   0  0  0  0  0  0  0  0  0  0  0  0
    1.5121    0.9282   -3.3877 C   0  0  0  0  0  0  0  0  0  0  0  0
    1.4128   -0.2866   -2.4466 C   0  0  0  0  0  0  0  0  0  0  0  0
    0.0099   -0.8720   -2.2852 C   0  0  0  0  0  0  0  0  0  0  0  0
   -0.8320   -1.1186   -3.5195 C   0  0  0  0  0  0  0  0  0  0  0  0
   -0.2520   -2.3910   -4.0412 C   0  0  0  0  0  0  0  0  0  0  0  0
   -2.2020   -1.2556   -3.1332 O   0  0  0  0  0  0  0  0  0  0  0  0
    1.0397   -2.3439   -4.5765 C   0  0  0  0  0  0  0  0  0  0  0  0
    1.7606   -3.4947   -4.7481 C   0  0  0  0  0  0  0  0  0  0  0  0
    1.1572   -4.7267   -4.4962 C   0  0  0  0  0  0  0  0  0  0  0  0
   -0.1115   -4.7697   -3.8967 C   0  0  0  0  0  0  0  0  0  0  0  0
   -0.8276   -3.6111   -3.7015 C   0  0  0  0  0  0  0  0  0  0  0  0
    1.7836   -6.0225   -4.9870 C   0  0  0  0  0  0  0  0  0  0  0  0
    2.0314   -6.9592   -3.8007 C   0  0  0  0  0  0  0  0  0  0  0  0
    1.3946   -8.1438   -3.8048 O   0  0  0  0  0  0  0  0  0  0  0  0
    2.7753   -6.6604   -2.8471 O   0  0  0  0  0  0  0  0  0  0  0  0
    0.8159   -6.5851   -6.0510 C   0  0  0  0  0  0  0  0  0  0  0  0
    3.1310   -5.7577   -5.6878 C   0  0  0  0  0  0  0  0  0  0  0  0
  1  2  2  0
  1  6  1  0
  2  3  1  0
  3  4  2  0
  4  5  1  0
  5  6  2  0
  5  9  1  0
  7  8  2  0
  7 10  1  0
  8  9  1  0
  8 13  1  0
  9 14  1  0
  9 20  1  0
 10 11  2  0
 11 12  1  0
 12 13  2  0
 14 15  1  0
 14 19  1  0
 15 16  1  0
 16 17  1  0
 17 18  1  0
 17 21  1  0
 18 19  1  0
 21 22  1  0
 22 23  1  0
 23 24  1  0
 24 25  1  0
 24 26  1  0
 25 27  2  0
 25 31  1  0
 27 28  1  0
 28 29  2  0
 29 30  1  0
 29 32  1  0
 30 31  2  0
 32 33  1  0
 32 36  1  0
 32 37  1  0
 33 34  1  0
 33 35  2  0
M  END
>  <DRUGBANK_ID>  (1) 
DB00950

>  <SECONDARY_ACCESSION_NUMBERS>  (1) 
APRD00349

>  <COMMON_NAME>  (1) 
Fexofenadine

>  <CAS_NUMBER>  (1) 
83799-24-0

>  <UNII>  (1) 
E6582LOH6V

>  <SYNONYMS>  (1) 
4-(1-Hydroxy-4-(4-(hydroxydiphenylmethyl)-1-piperidinyl)butyl)-alpha,alpha-dimethylbenzeneacetic acid; Carboxyterfenadine; Fexofenadina; Fexofenadine; Terfenadine acid metabolite; Terfenadine carboxylate; Terfenadine-COOH

$$$$
