
     RDKit          3D

 10 10  0  0  0  0  0  0  0  0999 V2000
    1.4172   -0.1738    0.0607 C   0  0  0  0  0  0  0  0  0  0  0  0
    0.5761   -1.2661    0.2214 C   0  0  0  0  0  0  0  0  0  0  0  0
    0.8806    1.1138    0.0215 C   0  0  0  0  0  0  0  0  0  0  0  0
   -0.8006   -1.0781    0.3327 C   0  0  0  0  0  0  0  0  0  0  0  0
   -0.5050    1.2916    0.0589 C   0  0  0  0  0  0  0  0  0  0  0  0
   -3.3931   -1.4246   -1.6571 C   0  0  0  0  0  0  0  0  0  0  0  0
   -3.5548   -0.6773   -0.3162 C   0  0  0  0  0  0  0  0  0  0  0  0
   -1.3528    0.1881    0.1331 C   0  0  0  0  0  0  0  0  0  0  0  0
   -2.1477   -2.0830   -1.8532 O   0  0  0  0  0  0  0  0  0  0  0  0
   -2.6750    0.4379   -0.1125 O   0  0  0  0  0  0  0  0  0  0  0  0
  2  1  2  0
  3  1  1  0
  4  2  1  0
  5  3  2  0
  7  6  1  0
  8  4  2  0
  8  5  1  0
  9  6  1  0
 10  7  1  0
 10  8  1  0
M  END
>  <DRUGBANK_ID>  (1) 
DB11304

>  <COMMON_NAME>  (1) 
Phenoxyethanol

>  <CAS_NUMBER>  (1) 
122-99-6

>  <UNII>  (1) 
HIE492ZZ3T

>  <SYNONYMS>  (1) 
1-Hydroxy-2-phenoxyethane; 2-Hydroxyethyl phenyl ether; 2-phenoxyethanol; 2-Phenoxyethyl alcohol; beta-Hydroxyethyl phenyl ether; Ethylene glycol monophenyl ether; Phenoxytol; Phenyl cellosolve; Phenylmonoglycol ether

$$$$
