
     RDKit          3D

 17 17  0  0  1  0  0  0  0  0999 V2000
    1.0649    0.1893    0.9816 C   0  0  0  0  0  0  0  0  0  0  0  0
    0.7277    1.7697    0.3126 C   0  0  0  0  0  0  0  0  0  0  0  0
    0.5017    1.8949   -1.4118 C   0  0  0  0  0  0  0  0  0  0  0  0
   -0.2117    0.4557   -2.7486 C   0  0  0  0  0  0  0  0  0  0  0  0
   -1.6204    0.3218   -3.2928 C   0  0  0  0  0  0  0  0  0  0  0  0
   -1.4163    0.5320    0.8563 C   0  0  0  0  0  0  0  0  0  0  0  0
   -0.6933    0.4011   -0.7630 C   0  0  2  0  0  0  0  0  0  0  0  0
    1.2492    0.1608   -1.4776 C   0  0  2  0  0  0  0  0  0  0  0  0
    1.6685    1.3082   -3.1012 C   0  0  1  0  0  0  0  0  0  0  0  0
    0.5426    2.8068   -3.3534 C   0  0  1  0  0  0  0  0  0  0  0  0
   -1.2303    2.4751   -2.8576 C   0  0  1  0  0  0  0  0  0  0  0  0
   -2.8027    0.8827    0.8650 O   0  0  0  0  0  0  0  0  0  0  0  0
    1.7750   -1.1805   -1.5127 O   0  0  0  0  0  0  0  0  0  0  0  0
    3.0493    1.4977   -3.3011 O   0  0  0  0  0  0  0  0  0  0  0  0
    1.1375    4.0375   -2.7604 O   0  0  0  0  0  0  0  0  0  0  0  0
   -1.8744    1.6024   -3.7771 O   0  0  0  0  0  0  0  0  0  0  0  0
   -1.5896    1.8172   -1.3904 O   0  0  0  0  0  0  0  0  0  0  0  0
  2  1  1  0
  3  2  1  0
  4  3  1  0
  5  4  1  0
  7  6  1  1
  8  7  1  0
  8 13  1  6
  9  8  1  0
  9 14  1  1
 10  9  1  0
 10 15  1  1
 11 10  1  0
 11 16  1  6
 12  6  1  0
 16  5  1  0
 17  7  1  0
 17 11  1  0
M  END
>  <DRUGBANK_ID>  (1) 
DB02695

>  <SECONDARY_ACCESSION_NUMBERS>  (1) 
EXPT02444

>  <COMMON_NAME>  (1) 
O1-Pentyl-Mannose

$$$$
