
     RDKit          3D

 10 10  0  0  0  0  0  0  0  0999 V2000
    1.3680   -0.2287    0.0246 C   0  0  0  0  0  0  0  0  0  0  0  0
    0.4771   -1.3094    0.0109 C   0  0  0  0  0  0  0  0  0  0  0  0
    0.8621    1.0782   -0.0015 C   0  0  0  0  0  0  0  0  0  0  0  0
    2.8563   -0.4772    0.0909 C   0  0  0  0  0  0  0  0  0  0  0  0
   -0.8982   -1.0874   -0.0151 C   0  0  0  0  0  0  0  0  0  0  0  0
   -0.5147    1.2969    0.0297 C   0  0  0  0  0  0  0  0  0  0  0  0
    3.6188    0.0618   -1.0453 N   0  0  0  0  0  0  0  0  0  0  0  0
   -1.3932    0.2151   -0.0052 C   0  0  0  0  0  0  0  0  0  0  0  0
    3.3356   -0.3736   -2.1018 C   0  0  0  0  0  0  0  0  0  0  0  0
    2.9711   -0.9267   -3.5469 S   0  0  0  0  0  0  0  0  0  0  0  0
  1  2  2  0
  1  3  1  0
  1  4  1  0
  2  5  1  0
  3  6  2  0
  4  7  1  0
  5  8  2  0
  6  8  1  0
  7  9  2  0
  9 10  2  0
M  END
>  <DRUGBANK_ID>  (1) 
DB16860

>  <COMMON_NAME>  (1) 
Benzyl isothiocyanate

>  <CAS_NUMBER>  (1) 
622-78-6

>  <UNII>  (1) 
871J6YOR8Q

>  <SYNONYMS>  (1) 
Benzyl mustard oil

$$$$
