
     RDKit          3D

 29 32  0  0  1  0  0  0  0  0999 V2000
    0.9693    0.0108   -0.0613 C   0  0  0  0  0  0  0  0  0  0  0  0
    0.4315   -1.1878   -0.8560 C   0  0  0  0  0  0  0  0  0  0  0  0
    1.0034   -2.4707   -0.2562 C   0  0  0  0  0  0  0  0  0  0  0  0
   -1.0643   -1.1868   -0.8877 C   0  0  0  0  0  0  0  0  0  0  0  0
   -1.9512   -2.2482   -0.9046 C   0  0  0  0  0  0  0  0  0  0  0  0
   -1.7450   -3.5948   -0.8909 N   0  0  0  0  0  0  0  0  0  0  0  0
   -2.7757   -4.3929   -0.8877 C   0  0  0  0  0  0  0  0  0  0  0  0
   -2.5488   -5.7571   -0.8399 N   0  0  0  0  0  0  0  0  0  0  0  0
   -1.2115   -6.3399   -0.7082 C   0  0  0  0  0  0  0  0  0  0  0  0
   -1.0998   -7.1423    0.5916 C   0  0  1  0  0  0  0  0  0  0  0  0
   -1.6182   -8.5726    0.4097 C   0  0  0  0  0  0  0  0  0  0  0  0
   -1.7391   -9.2536    1.7750 C   0  0  0  0  0  0  0  0  0  0  0  0
   -0.7246   -8.8094    2.7371 N   0  0  0  0  0  0  0  0  0  0  0  0
    0.5352   -8.4306    2.0849 C   0  0  0  0  0  0  0  0  0  0  0  0
    0.3554   -7.2385    1.1078 C   0  0  2  0  0  0  0  0  0  0  0  0
    0.7275   -6.0168    1.7449 O   0  0  0  0  0  0  0  0  0  0  0  0
   -4.1915   -3.8735   -0.9292 C   0  0  0  0  0  0  0  0  0  0  0  0
   -4.3867   -2.5326   -0.9166 C   0  0  0  0  0  0  0  0  0  0  0  0
   -5.6611   -1.9636   -0.9019 N   0  0  0  0  0  0  0  0  0  0  0  0
   -6.0268   -0.5507   -0.9217 C   0  0  0  0  0  0  0  0  0  0  0  0
   -6.7245   -0.1480   -2.1973 C   0  0  0  0  0  0  0  0  0  0  0  0
   -7.4570   -1.0631   -2.9611 C   0  0  0  0  0  0  0  0  0  0  0  0
   -8.1792   -0.6417   -4.0729 C   0  0  0  0  0  0  0  0  0  0  0  0
   -8.1975    0.7057   -4.4227 C   0  0  0  0  0  0  0  0  0  0  0  0
   -7.4786    1.6327   -3.6718 C   0  0  0  0  0  0  0  0  0  0  0  0
   -6.7178    1.2040   -2.5849 C   0  0  0  0  0  0  0  0  0  0  0  0
   -3.2331   -1.7068   -0.9107 N   0  0  0  0  0  0  0  0  0  0  0  0
   -3.1711   -0.3476   -0.9038 N   0  0  0  0  0  0  0  0  0  0  0  0
   -1.8867   -0.0506   -0.9080 C   0  0  0  0  0  0  0  0  0  0  0  0
  1  2  1  0
  2  3  1  0
  2  4  1  0
  4  5  2  0
  4 29  1  0
  5  6  1  0
  5 27  1  0
  6  7  2  0
  7  8  1  0
  7 17  1  0
  8  9  1  0
 10  9  1  6
 10 11  1  0
 10 15  1  0
 11 12  1  0
 12 13  1  0
 13 14  1  0
 15 14  1  0
 15 16  1  1
 17 18  2  0
 18 19  1  0
 18 27  1  0
 19 20  1  0
 20 21  1  0
 21 22  2  0
 21 26  1  0
 22 23  1  0
 23 24  2  0
 24 25  1  0
 25 26  2  0
 27 28  1  0
 28 29  2  0
M  END
>  <DRUGBANK_ID>  (1) 
DB16061

>  <COMMON_NAME>  (1) 
Samuraciclib

>  <CAS_NUMBER>  (1) 
1805833-75-3

>  <UNII>  (1) 
46D4HS9ODA

>  <SYNONYMS>  (1) 
Samuraciclib

$$$$
