
     RDKit          3D

  6  4  0  0  0  0  0  0  0  0999 V2000
    0.9891    0.0600    0.0793 Al  0  0  0  0  0 15  0  0  0  0  0  0
    1.0696    0.0696    0.0177 O   0  0  0  0  0  0  0  0  0  0  0  0
    2.7996    0.0696    0.0177 P   0  0  0  0  0  0  0  0  0  0  0  0
    2.7996    1.0339   -1.4187 O   0  0  0  0  0  0  0  0  0  0  0  0
    2.7996    0.8314    1.5709 O   0  0  0  0  0  0  0  0  0  0  0  0
    4.3479    0.0696    0.0177 O   0  0  0  0  0  0  0  0  0  0  0  0
  2  3  1  0
  3  4  1  0
  3  5  1  0
  3  6  2  0
M  CHG  4   1   3   2  -1   4  -1   5  -1
M  END
>  <DRUGBANK_ID>  (1) 
DB14517

>  <SECONDARY_ACCESSION_NUMBERS>  (1) 
DBSALT002422

>  <COMMON_NAME>  (1) 
Aluminium phosphate

>  <CAS_NUMBER>  (1) 
7784-30-7

>  <UNII>  (1) 
F92V3S521O

>  <SYNONYMS>  (1) 
Aluminum phosphate

$$$$
