
     RDKit          3D

 16 17  0  0  1  0  0  0  0  0999 V2000
    2.0690    0.4785    1.4226 C   0  0  0  0  0  0  0  0  0  0  0  0
    2.8382   -0.1347    2.3130 C   0  0  0  0  0  0  0  0  0  0  0  0
    4.1334    0.4901    2.6400 C   0  0  0  0  0  0  0  0  0  0  0  0
    4.5325    1.5786    2.0528 N   0  0  0  0  0  0  0  0  0  0  0  0
    3.7432    2.1877    1.0933 C   0  0  0  0  0  0  0  0  0  0  0  0
    4.1669    3.1875    0.5099 O   0  0  0  0  0  0  0  0  0  0  0  0
    2.4877    1.6397    0.7873 N   0  0  0  0  0  0  0  0  0  0  0  0
    1.4769    2.4494    0.1138 C   0  0  2  0  0  0  0  0  0  0  0  0
    1.6353    2.8651   -1.3061 C   0  0  0  0  0  0  0  0  0  0  0  0
    1.5196    4.1936   -1.3891 C   0  0  0  0  0  0  0  0  0  0  0  0
    1.4539    4.7893   -0.0240 C   0  0  1  0  0  0  0  0  0  0  0  0
    1.3017    3.6642    0.8693 O   0  0  0  0  0  0  0  0  0  0  0  0
    2.6846    5.6946    0.2420 C   0  0  0  0  0  0  0  0  0  0  0  0
    3.1990    5.6831    1.5671 O   0  0  0  0  0  0  0  0  0  0  0  0
    4.9492   -0.0735    3.5807 N   0  0  0  0  0  0  0  0  0  0  0  0
    2.4859   -1.2539    2.9700 F   0  0  0  0  0  0  0  0  0  0  0  0
  1  2  2  0
  1  7  1  0
  2  3  1  0
  2 16  1  0
  3  4  2  0
  3 15  1  0
  4  5  1  0
  5  6  2  0
  5  7  1  0
  8  9  1  0
  8 12  1  0
  8  7  1  1
  9 10  2  0
 10 11  1  0
 11 12  1  0
 11 13  1  1
 13 14  1  0
M  END
>  <DRUGBANK_ID>  (1) 
DB06236

>  <COMMON_NAME>  (1) 
Elvucitabine

>  <CAS_NUMBER>  (1) 
181785-84-2

>  <UNII>  (1) 
M09BUF90C0

>  <SYNONYMS>  (1) 
B-L-Fd4C; Elvucitabine

$$$$
