
     RDKit          3D

 13 14  0  0  0  0  0  0  0  0999 V2000
    0.7925    1.4201    0.8627 C   0  0  0  0  0  0  0  0  0  0  0  0
   -0.3701    0.5374    0.4803 C   0  0  0  0  0  0  0  0  0  0  0  0
   -0.1789   -0.8415    0.2501 C   0  0  0  0  0  0  0  0  0  0  0  0
    1.2271   -1.4330    0.4043 C   0  0  2  0  0  0  0  0  0  0  0  0
    2.1941   -0.8490   -0.6699 C   0  0  0  0  0  0  0  0  0  0  0  0
    2.7501    0.4859   -0.3702 N   0  0  0  0  0  0  0  0  0  0  0  0
    1.7462    1.5546   -0.3252 C   0  0  0  0  0  0  0  0  0  0  0  0
   -1.6241    1.1351    0.2637 C   0  0  0  0  0  0  0  0  0  0  0  0
   -2.7035    0.3702   -0.1645 C   0  0  0  0  0  0  0  0  0  0  0  0
   -2.5349   -0.9917   -0.3675 C   0  0  0  0  0  0  0  0  0  0  0  0
   -1.2895   -1.5996   -0.1649 C   0  0  0  0  0  0  0  0  0  0  0  0
    1.2697   -2.9705    0.4099 C   0  0  0  0  0  0  0  0  0  0  0  0
   -3.8733   -1.9382   -0.8963 Cl  0  0  0  0  0  0  0  0  0  0  0  0
  1  2  1  0
  2  8  2  0
  3  4  1  0
  3  2  1  0
  4  5  1  0
  4 12  1  6
  5  6  1  0
  6  7  1  0
  7  1  1  0
  8  9  1  0
  9 10  2  0
 10 11  1  0
 10 13  1  0
 11  3  2  0
M  END
>  <DRUGBANK_ID>  (1) 
DB04871

>  <COMMON_NAME>  (1) 
Lorcaserin

>  <CAS_NUMBER>  (1) 
616202-92-7

>  <UNII>  (1) 
637E494O0Z

>  <SYNONYMS>  (1) 
Lorcaserin; Lorqess

$$$$
