
     RDKit          3D

 33 36  0  0  0  0  0  0  0  0999 V2000
   -0.9532   -0.1161    0.0399 C   0  0  0  0  0  0  0  0  0  0  0  0
   -0.0823   -1.2301    0.0564 C   0  0  0  0  0  0  0  0  0  0  0  0
   -0.4724    1.1419    0.0429 N   0  0  0  0  0  0  0  0  0  0  0  0
    1.2752   -1.1107    0.0827 N   0  0  0  0  0  0  0  0  0  0  0  0
    1.7407    0.1660    0.0988 C   0  0  0  0  0  0  0  0  0  0  0  0
    0.8747    1.2569    0.0608 C   0  0  0  0  0  0  0  0  0  0  0  0
   -2.3241   -0.2161   -0.1677 N   0  0  0  0  0  0  0  0  0  0  0  0
   -0.3997   -3.4819    0.8948 O   0  0  0  0  0  0  0  0  0  0  0  0
   -1.1241   -4.6459    0.6134 N   0  0  0  0  0  0  0  0  0  0  0  0
   -1.7372   -4.4199   -0.5589 C   0  0  0  0  0  0  0  0  0  0  0  0
   -1.4557   -3.1198   -1.0275 C   0  0  0  0  0  0  0  0  0  0  0  0
   -0.6195   -2.5693   -0.0919 C   0  0  0  0  0  0  0  0  0  0  0  0
   -2.5113   -5.4145   -1.2837 C   0  0  0  0  0  0  0  0  0  0  0  0
   -2.0942   -5.7472   -2.5804 C   0  0  0  0  0  0  0  0  0  0  0  0
   -2.8108   -6.6616   -3.3487 C   0  0  0  0  0  0  0  0  0  0  0  0
   -3.9605   -7.2648   -2.8304 C   0  0  0  0  0  0  0  0  0  0  0  0
   -4.3594   -6.9569   -1.5189 C   0  0  0  0  0  0  0  0  0  0  0  0
   -3.6633   -6.0070   -0.7606 C   0  0  0  0  0  0  0  0  0  0  0  0
   -4.7962   -8.1769   -3.6947 C   0  0  0  0  0  0  0  0  0  0  0  0
   -4.9012   -9.5146   -3.1210 N   0  0  0  0  0  0  0  0  0  0  0  0
   -5.7160  -10.3674   -3.9730 C   0  0  0  0  0  0  0  0  0  0  0  0
    3.1856    0.3802    0.0596 C   0  0  0  0  0  0  0  0  0  0  0  0
    3.9276   -0.1025   -1.0148 C   0  0  0  0  0  0  0  0  0  0  0  0
    5.2800    0.1986   -1.1269 C   0  0  0  0  0  0  0  0  0  0  0  0
    5.9317    0.9800   -0.1723 C   0  0  0  0  0  0  0  0  0  0  0  0
    5.1987    1.5038    0.8915 C   0  0  0  0  0  0  0  0  0  0  0  0
    3.8444    1.1703    1.0219 C   0  0  0  0  0  0  0  0  0  0  0  0
    7.6970    1.2507   -0.1827 S   0  0  0  0  0  0  0  0  0  0  0  0
    7.8905    2.6807   -0.3880 O   0  0  0  0  0  0  0  0  0  0  0  0
    8.2066    0.6197    1.0156 O   0  0  0  0  0  0  0  0  0  0  0  0
    8.4040    0.3938   -1.5922 C   0  0  0  0  0  0  0  0  0  0  0  0
    8.2284   -1.1238   -1.4984 C   0  0  0  0  0  0  0  0  0  0  0  0
    7.9356    0.9853   -2.9221 C   0  0  0  0  0  0  0  0  0  0  0  0
  1  2  2  0
  1  3  1  0
  1  7  1  0
  2  4  1  0
  2 12  1  0
  3  6  2  0
  4  5  2  0
  5  6  1  0
  5 22  1  0
  8  9  1  0
  8 12  1  0
  9 10  2  0
 10 11  1  0
 10 13  1  0
 11 12  2  0
 13 14  2  0
 13 18  1  0
 14 15  1  0
 15 16  2  0
 16 17  1  0
 16 19  1  0
 17 18  2  0
 19 20  1  0
 20 21  1  0
 22 23  2  0
 22 27  1  0
 23 24  1  0
 24 25  2  0
 25 26  1  0
 25 28  1  0
 26 27  2  0
 28 29  2  0
 28 30  2  0
 28 31  1  0
 31 32  1  0
 31 33  1  0
M  END
>  <DRUGBANK_ID>  (1) 
DB11794

>  <SECONDARY_ACCESSION_NUMBERS>  (1) 
DB13922

>  <COMMON_NAME>  (1) 
Berzosertib

>  <CAS_NUMBER>  (1) 
1232416-25-9

>  <UNII>  (1) 
L423PRV3V3

>  <SYNONYMS>  (1) 
Berzosertib

$$$$
