712
     RDKit          3D

 18 19  0  0  1  0  0  0  0  0999 V2000
    2.1813   -0.0542    0.0011 F   0  0  0  0  0  0  0  0  0  0  0  0
   -2.6828   -3.6630    2.0723 O   0  0  0  0  0  0  0  0  0  0  0  0
   -0.5173   -3.7779    1.4981 O   0  0  0  0  0  0  0  0  0  0  0  0
   -2.0111   -2.5328    0.0259 C   0  0  0  0  0  0  0  0  0  0  0  0
   -1.2641   -1.2119    0.0261 C   0  0  0  0  0  0  0  0  0  0  0  0
    0.1732    1.2189    0.0254 C   0  0  0  0  0  0  0  0  0  0  0  0
    0.1402   -1.2001    0.0149 C   0  0  0  0  0  0  0  0  0  0  0  0
   -1.9486    0.0088    0.0232 C   0  0  0  0  0  0  0  0  0  0  0  0
    0.8407   -0.0053    0.0159 C   0  0  0  0  0  0  0  0  0  0  0  0
   -1.2339    1.2103    0.0280 C   0  0  0  0  0  0  0  0  0  0  0  0
   -1.6796   -3.3118   -1.2506 C   0  0  0  0  0  0  0  0  0  0  0  0
    0.9101    2.4799   -0.0188 C   0  0  0  0  0  0  0  0  0  0  0  0
   -1.6497   -3.3723    1.2515 C   0  0  0  0  0  0  0  0  0  0  0  0
    1.7776    2.7554   -1.0873 C   0  0  0  0  0  0  0  0  0  0  0  0
    0.7280    3.4547    0.9714 C   0  0  0  0  0  0  0  0  0  0  0  0
    2.4190    3.9878   -1.1834 C   0  0  0  0  0  0  0  0  0  0  0  0
    1.3302    4.7055    0.8493 C   0  0  0  0  0  0  0  0  0  0  0  0
    2.1885    4.9645   -0.2179 C   0  0  0  0  0  0  0  0  0  0  0  0
  1  9  1  0
  2 13  1  0
  3 13  2  0
  4  5  1  0
  4 11  1  0
  4 13  1  0
  5  7  2  0
  5  8  1  0
  6  9  2  0
  6 10  1  0
  6 12  1  0
  7  9  1  0
  8 10  2  0
 12 14  2  0
 12 15  1  0
 14 16  1  0
 15 17  2  0
 16 18  2  0
 17 18  1  0
M  END
>  <DRUGBANK_ID>  (1) 
DB00712

>  <SECONDARY_ACCESSION_NUMBERS>  (1) 
APRD00753

>  <COMMON_NAME>  (1) 
Flurbiprofen

>  <CAS_NUMBER>  (1) 
5104-49-4

>  <UNII>  (1) 
5GRO578KLP

>  <SYNONYMS>  (1) 
(±)-2-fluoro-α-methyl-4-biphenylacetic acid; 2-(2-fluorobiphenyl-4-yl)propanoic acid; 2-fluoro-α-methyl-(1,1'-biphenyl)-4-acetic acid; 3-fluoro-4-phenylhydratropic acid; Flurbiprofen; Flurbiprofene; Flurbiprofeno; Flurbiprofenum

$$$$
