
     RDKit          3D

 28 29  0  0  0  0  0  0  0  0999 V2000
   -8.5950   12.9818   -2.7172 N   0  0  0  0  0  0  0  0  0  0  0  0
   -7.5451   12.8668   -1.7047 C   0  0  1  0  0  0  0  0  0  0  0  0
   -9.2524   14.1436   -3.0537 C   0  0  0  0  0  0  0  0  0  0  0  0
   -8.1275   11.9680   -3.4853 C   0  0  0  0  0  0  0  0  0  0  0  0
   -7.1952   11.5077   -2.3480 C   0  0  1  0  0  0  0  0  0  0  0  0
   -6.3775   14.2292   -1.8977 S   0  0  0  0  0  0  0  0  0  0  0  0
   -8.8605   15.3237   -2.4956 C   0  0  0  0  0  0  0  0  0  0  0  0
  -10.4602   14.0945   -3.9913 C   0  0  0  0  0  0  0  0  0  0  0  0
   -8.4439   11.6252   -4.6071 O   0  0  0  0  0  0  0  0  0  0  0  0
   -5.7700   11.1815   -2.6296 N   0  0  0  0  0  0  0  0  0  0  0  0
   -7.6870   15.4415   -1.5212 C   0  0  0  0  0  0  0  0  0  0  0  0
   -9.5269   16.6569   -2.8107 C   0  0  0  0  0  0  0  0  0  0  0  0
  -10.8334   12.8778   -4.4307 O   0  0  0  0  0  0  0  0  0  0  0  0
  -11.1688   15.0564   -4.2447 O   0  0  0  0  0  0  0  0  0  0  0  0
   -9.4874   17.0045   -4.2172 O   0  0  0  0  0  0  0  0  0  0  0  0
   -3.8069    9.7231   -2.4198 C   0  0  0  0  0  0  0  0  0  0  0  0
   -8.3924   17.1175   -4.9953 C   0  0  0  0  0  0  0  0  0  0  0  0
   -3.1394    9.2723   -1.1162 C   0  0  0  0  0  0  0  0  0  0  0  0
   -7.0588   17.1070   -4.3295 C   0  0  0  0  0  0  0  0  0  0  0  0
   -8.4778   17.2479   -6.2127 O   0  0  0  0  0  0  0  0  0  0  0  0
   -3.7614    8.0542   -0.4066 C   0  0  0  0  0  0  0  0  0  0  0  0
   -3.6922    6.7376   -1.2042 C   0  0  2  0  0  0  0  0  0  0  0  0
   -2.2110    6.3841   -1.4175 C   0  0  0  0  0  0  0  0  0  0  0  0
   -4.4990    6.7022   -2.4425 N   0  0  0  0  0  0  0  0  0  0  0  0
   -1.7044    6.6444   -2.6460 O   0  0  0  0  0  0  0  0  0  0  0  0
   -1.4839    6.0135   -0.5042 O   0  0  0  0  0  0  0  0  0  0  0  0
   -5.2898    9.9604   -2.2345 C   0  0  0  0  0  0  0  0  0  0  0  0
   -6.0380    9.1021   -1.7707 O   0  0  0  0  0  0  0  0  0  0  0  0
  1  2  1  0
  1  3  1  0
  1  4  1  0
  2  5  1  0
  2  6  1  6
  3  7  2  0
  3  8  1  0
  4  9  2  0
  4  5  1  0
  5 10  1  6
  6 11  1  0
  7 12  1  0
  7 11  1  0
  8 13  1  0
  8 14  2  0
 12 15  1  0
 15 17  1  0
 16 18  1  0
 16 27  1  0
 17 19  1  0
 17 20  2  0
 18 21  1  0
 22 24  1  6
 22 23  1  0
 22 21  1  0
 23 25  1  0
 23 26  2  0
 27 10  1  0
 27 28  2  0
M  END
>  <DRUGBANK_ID>  (1) 
DB03313

>  <SECONDARY_ACCESSION_NUMBERS>  (1) 
EXPT01031

>  <COMMON_NAME>  (1) 
Cephalosporin C

>  <CAS_NUMBER>  (1) 
61-24-5

>  <UNII>  (1) 
3XIY7HJT5L

>  <SYNONYMS>  (1) 
7-(5-Amino-5-carboxyvaleramido)cephalosporanic acid; Cephalosporin C

$$$$
