
     RDKit          3D

  8  7  0  0  1  0  0  0  0  0999 V2000
   -0.7278   -1.0983    1.4239 C   0  0  0  0  0  0  0  0  0  0  0  0
    0.1314   -1.1480    0.1448 C   0  0  2  0  0  0  0  0  0  0  0  0
    1.1159    0.0089   -0.0445 C   0  0  0  0  0  0  0  0  0  0  0  0
   -0.9972    0.1082    1.9552 O   0  0  0  0  0  0  0  0  0  0  0  0
   -1.2239   -2.1149    1.9045 O   0  0  0  0  0  0  0  0  0  0  0  0
   -0.7166   -1.4731   -1.0244 N   0  0  0  0  0  0  0  0  0  0  0  0
    0.7890    1.0804   -1.4796 S   0  0  0  0  0  0  0  0  0  0  0  0
    2.0514    1.8520   -1.7295 O   0  0  0  0  0  0  0  0  0  0  0  0
  2  6  1  6
  2  3  1  0
  2  1  1  0
  4  1  1  0
  5  1  2  0
  7  3  1  0
  7  8  2  0
M  END
>  <DRUGBANK_ID>  (1) 
DB03382

>  <SECONDARY_ACCESSION_NUMBERS>  (1) 
EXPT01041

>  <COMMON_NAME>  (1) 
S-oxy-L-cysteine

>  <SYNONYMS>  (1) 
3-(oxidosulfanyl)-L-alanine; cysteine S-oxide; cysteine sulfoxide; cysteine sulphoxide; L-cysteine S-oxide; L-cysteine sulfoxide; L-cysteine sulphoxide; S-oxo-L-cysteine; S-oxocysteine

$$$$
