
     RDKit          3D

 16 18  0  0  0  0  0  0  0  0999 V2000
    2.9119   -1.4762   -0.0003 C   0  0  0  0  0  0  0  0  0  0  0  0
   -2.8625   -1.5853    0.0010 C   0  0  0  0  0  0  0  0  0  0  0  0
    1.5220   -1.5414   -0.0028 C   0  0  0  0  0  0  0  0  0  0  0  0
   -1.4707   -1.5987    0.0008 C   0  0  0  0  0  0  0  0  0  0  0  0
    3.5038   -0.2319    0.0008 C   0  0  0  0  0  0  0  0  0  0  0  0
   -3.5026   -0.3652    0.0002 C   0  0  0  0  0  0  0  0  0  0  0  0
    0.7369   -0.3747   -0.0012 C   0  0  0  0  0  0  0  0  0  0  0  0
   -0.7308   -0.4037   -0.0005 C   0  0  0  0  0  0  0  0  0  0  0  0
    1.4428    0.8298    0.0000 C   0  0  0  0  0  0  0  0  0  0  0  0
   -1.4841    0.7709   -0.0006 C   0  0  0  0  0  0  0  0  0  0  0  0
    0.7089    2.1207    0.0001 C   0  0  0  0  0  0  0  0  0  0  0  0
   -0.8061    2.0888   -0.0012 C   0  0  0  0  0  0  0  0  0  0  0  0
    2.8026    0.9179    0.0007 N   0  0  0  0  0  0  0  0  0  0  0  0
   -2.8457    0.8084   -0.0004 N   0  0  0  0  0  0  0  0  0  0  0  0
    1.2864    3.2019    0.0008 O   0  0  0  0  0  0  0  0  0  0  0  0
   -1.4332    3.1421   -0.0028 O   0  0  0  0  0  0  0  0  0  0  0  0
  3  1  2  0
  4  2  1  0
  5  1  1  0
  6  2  2  0
  7  3  1  0
  8  4  2  0
  8  7  1  0
  9  7  2  0
 10  8  1  0
 11  9  1  0
 12 10  1  0
 12 11  1  0
 13  5  2  0
 13  9  1  0
 14  6  1  0
 14 10  2  0
 15 11  2  0
 16 12  2  0
M  END
>  <DRUGBANK_ID>  (1) 
DB13469

>  <COMMON_NAME>  (1) 
Phanquinone

>  <CAS_NUMBER>  (1) 
84-12-8

>  <UNII>  (1) 
ID94IS6N8J

>  <SYNONYMS>  (1) 
fanquinona; Phanquinone; Phanquone

$$$$
