
     RDKit          3D

 35 38  0  0  0  0  0  0  0  0999 V2000
    1.7294   -0.4761    0.3167 O   0  0  0  0  0  0  0  0  0  0  0  0
    0.9004   -0.5795   -0.7317 C   0  0  0  0  0  0  0  0  0  0  0  0
    1.1909   -1.7602   -1.6631 C   0  0  0  0  0  0  0  0  0  0  0  0
    0.6505   -3.1920   -1.3886 C   0  0  0  0  0  0  0  0  0  0  0  0
   -0.7921   -3.4969   -1.6466 N   0  0  0  0  0  0  0  0  0  0  0  0
   -1.1849   -4.4790   -2.5704 C   0  0  0  0  0  0  0  0  0  0  0  0
   -2.6448   -4.6617   -2.8510 C   0  0  0  0  0  0  0  0  0  0  0  0
   -0.3890   -5.1528   -3.2251 O   0  0  0  0  0  0  0  0  0  0  0  0
   -3.1664   -5.9585   -2.9117 C   0  0  0  0  0  0  0  0  0  0  0  0
   -4.5535   -6.1008   -3.0699 C   0  0  0  0  0  0  0  0  0  0  0  0
   -5.3673   -4.9777   -3.1672 C   0  0  0  0  0  0  0  0  0  0  0  0
   -4.8707   -3.6780   -3.1402 C   0  0  0  0  0  0  0  0  0  0  0  0
   -3.4872   -3.5510   -3.0329 C   0  0  0  0  0  0  0  0  0  0  0  0
    0.1064    0.3341   -0.9631 O   0  0  0  0  0  0  0  0  0  0  0  0
   -5.3053   -7.2392   -3.1460 N   0  0  0  0  0  0  0  0  0  0  0  0
   -6.5602   -6.8507   -3.3019 C   0  0  0  0  0  0  0  0  0  0  0  0
   -6.6433   -5.4768   -3.3044 N   0  0  0  0  0  0  0  0  0  0  0  0
   -7.8071   -4.6398   -3.4775 C   0  0  0  0  0  0  0  0  0  0  0  0
   -7.7177   -7.7902   -3.4639 C   0  0  0  0  0  0  0  0  0  0  0  0
   -7.6277   -8.6358   -4.6473 N   0  0  0  0  0  0  0  0  0  0  0  0
   -7.5674  -10.0134   -4.5395 C   0  0  0  0  0  0  0  0  0  0  0  0
   -8.4527  -10.7101   -3.7153 C   0  0  0  0  0  0  0  0  0  0  0  0
   -8.4594  -12.1073   -3.6746 C   0  0  0  0  0  0  0  0  0  0  0  0
   -7.5525  -12.8433   -4.4431 C   0  0  0  0  0  0  0  0  0  0  0  0
   -6.6546  -12.1537   -5.2633 C   0  0  0  0  0  0  0  0  0  0  0  0
   -6.6271  -10.7517   -5.2642 C   0  0  0  0  0  0  0  0  0  0  0  0
   -7.5196  -14.3383   -4.3189 C   0  0  0  0  0  0  0  0  0  0  0  0
   -6.6370  -15.0881   -5.0352 N   0  0  0  0  0  0  0  0  0  0  0  0
   -8.3342  -14.9184   -3.4964 N   0  0  0  0  0  0  0  0  0  0  0  0
   -1.7379   -2.8410   -0.8215 C   0  0  0  0  0  0  0  0  0  0  0  0
   -2.6465   -3.4699   -0.0575 N   0  0  0  0  0  0  0  0  0  0  0  0
   -3.4763   -2.6752    0.6783 C   0  0  0  0  0  0  0  0  0  0  0  0
   -3.3580   -1.2979    0.7778 C   0  0  0  0  0  0  0  0  0  0  0  0
   -2.4838   -0.6869   -0.0848 C   0  0  0  0  0  0  0  0  0  0  0  0
   -1.8074   -1.4802   -0.9902 C   0  0  0  0  0  0  0  0  0  0  0  0
  1  2  1  0
  2  3  1  0
  2 14  2  0
  3  4  1  0
  4  5  1  0
  5  6  1  0
  5 30  1  0
  6  7  1  0
  6  8  2  0
  7  9  2  0
  7 13  1  0
  9 10  1  0
 10 11  2  0
 10 15  1  0
 11 12  1  0
 11 17  1  0
 12 13  2  0
 15 16  2  0
 16 17  1  0
 16 19  1  0
 17 18  1  0
 19 20  1  0
 20 21  1  0
 21 22  2  0
 21 26  1  0
 22 23  1  0
 23 24  2  0
 24 25  1  0
 24 27  1  0
 25 26  2  0
 27 28  1  0
 27 29  2  0
 30 31  2  0
 30 35  1  0
 31 32  1  0
 32 33  2  0
 33 34  1  0
 34 35  2  0
M  END
>  <DRUGBANK_ID>  (1) 
DB14726

>  <COMMON_NAME>  (1) 
Dabigatran

>  <CAS_NUMBER>  (1) 
211914-51-1

>  <UNII>  (1) 
I0VM4M70GC

>  <SYNONYMS>  (1) 
Dabigatran

$$$$
