
     RDKit          3D

  7  7  0  0  1  0  0  0  0  0999 V2000
   -1.0802    1.0227    0.0159 C   0  0  0  0  0  0  0  0  0  0  0  0
    0.3603    1.4561    0.0261 C   0  0  0  0  0  0  0  0  0  0  0  0
   -1.3391   -0.4409   -0.0051 C   0  0  0  0  0  0  0  0  0  0  0  0
    0.9608   -1.0997   -0.0217 C   0  0  0  0  0  0  0  0  0  0  0  0
    1.4229    0.3650    0.0355 C   0  0  2  0  0  0  0  0  0  0  0  0
    2.2800    0.5871    1.2139 N   0  0  0  0  0  0  0  0  0  0  0  0
   -0.4672   -1.3779   -0.0291 N   0  0  0  0  0  0  0  0  0  0  0  0
  2  1  1  0
  3  1  1  0
  5  2  1  0
  5  4  1  0
  5  6  1  1
  7  3  2  0
  7  4  1  0
M  END
>  <DRUGBANK_ID>  (1) 
DB04504

>  <SECONDARY_ACCESSION_NUMBERS>  (1) 
EXPT03253

>  <COMMON_NAME>  (1) 
(3s)-2,3,4,5-Tetrahydropyridin-3-Amine

$$$$
