
     RDKit          3D

 14 15  0  0  0  0  0  0  0  0999 V2000
    2.3785    1.1337   -0.0196 C   0  0  0  0  0  0  0  0  0  0  0  0
    2.7745   -0.2045   -0.0003 C   0  0  0  0  0  0  0  0  0  0  0  0
    1.0234    1.4582   -0.0169 C   0  0  0  0  0  0  0  0  0  0  0  0
    1.8190   -1.2252    0.0185 C   0  0  0  0  0  0  0  0  0  0  0  0
    0.0712    0.4340    0.0001 C   0  0  0  0  0  0  0  0  0  0  0  0
    0.4565   -0.9155    0.0169 C   0  0  0  0  0  0  0  0  0  0  0  0
   -2.3287   -0.3790   -0.0330 C   0  0  0  0  0  0  0  0  0  0  0  0
   -1.3738    0.7536   -0.0041 C   0  0  0  0  0  0  0  0  0  0  0  0
   -1.8640   -1.6419   -0.0179 C   0  0  0  0  0  0  0  0  0  0  0  0
   -0.5122   -1.9335    0.0169 N   0  0  0  0  0  0  0  0  0  0  0  0
   -1.7763    1.9107    0.0144 O   0  0  0  0  0  0  0  0  0  0  0  0
   -2.9284   -2.7042   -0.0439 C   0  0  0  0  0  0  0  0  0  0  0  0
   -2.4800   -3.9767   -0.0285 O   0  0  0  0  0  0  0  0  0  0  0  0
   -4.1266   -2.4595   -0.0771 O   0  0  0  0  0  0  0  0  0  0  0  0
  1  3  2  0
  2  1  1  0
  2  4  2  0
  3  5  1  0
  5  6  2  0
  5  8  1  0
  6  4  1  0
  6 10  1  0
  7  9  2  0
  8  7  1  0
  8 11  2  0
  9 12  1  0
  9 10  1  0
 12 13  1  0
 12 14  2  0
M  END
>  <DRUGBANK_ID>  (1) 
DB11937

>  <COMMON_NAME>  (1) 
Kynurenic Acid

>  <CAS_NUMBER>  (1) 
492-27-3

>  <UNII>  (1) 
H030S2S85J

$$$$
