
     RDKit          3D

 31 32  0  0  0  0  0  0  0  0999 V2000
    1.0003   -0.0870    0.0130 C   0  0  0  0  0  0  0  0  0  0  0  0
    0.9159   -1.0018   -2.3179 C   0  0  0  0  0  0  0  0  0  0  0  0
   -3.2349    2.9704   -2.5002 C   0  0  0  0  0  0  0  0  0  0  0  0
    1.0621    4.7393   -5.8725 C   0  0  0  0  0  0  0  0  0  0  0  0
   -1.6273    5.5843  -11.4979 C   0  0  0  0  0  0  0  0  0  0  0  0
   -1.2368    5.0885   -8.6196 C   0  0  0  0  0  0  0  0  0  0  0  0
   -2.1721    0.6130  -12.2509 C   0  0  0  0  0  0  0  0  0  0  0  0
   -3.2364    1.0073   -7.0738 C   0  0  0  0  0  0  0  0  0  0  0  0
   -1.6820    1.2734   -0.4844 C   0  0  0  0  0  0  0  0  0  0  0  0
    0.4130    4.3222   -2.9294 C   0  0  0  0  0  0  0  0  0  0  0  0
    0.4344    0.9052   -5.7287 C   0  0  0  0  0  0  0  0  0  0  0  0
   -1.1170    0.1386   -1.3536 C   0  0  0  0  0  0  0  0  0  0  0  0
   -1.2483    2.6596   -0.9608 C   0  0  0  0  0  0  0  0  0  0  0  0
   -1.1247    4.3140   -2.8785 C   0  0  0  0  0  0  0  0  0  0  0  0
    0.9905    3.2527   -3.8554 C   0  0  0  0  0  0  0  0  0  0  0  0
    1.0665    2.2308   -6.1601 C   0  0  0  0  0  0  0  0  0  0  0  0
   -1.7003    0.1011   -9.4684 C   0  0  0  0  0  0  0  0  0  0  0  0
   -1.1033    0.8858   -5.7886 C   0  0  0  0  0  0  0  0  0  0  0  0
   -1.0961    0.0184   -8.0990 C   0  0  0  0  0  0  0  0  0  0  0  0
    0.4225    0.1003   -1.3864 C   0  0  0  0  0  0  0  0  0  0  0  0
   -1.7108    2.9784   -2.3915 C   0  0  0  0  0  0  0  0  0  0  0  0
    0.5612    3.4132   -5.3198 C   0  0  0  0  0  0  0  0  0  0  0  0
   -1.6448    4.1805  -10.9395 C   0  0  0  0  0  0  0  0  0  0  0  0
   -1.4664    3.9314   -9.5571 C   0  0  0  0  0  0  0  0  0  0  0  0
   -1.8960    1.7696  -11.3288 C   0  0  0  0  0  0  0  0  0  0  0  0
   -1.6821    1.5248   -9.9626 C   0  0  0  0  0  0  0  0  0  0  0  0
   -1.8735    3.0920  -11.8018 C   0  0  0  0  0  0  0  0  0  0  0  0
   -1.5122    2.5999   -9.0721 C   0  0  0  0  0  0  0  0  0  0  0  0
   -1.7051    1.0918   -7.2014 C   0  0  0  0  0  0  0  0  0  0  0  0
   -2.0956    3.2616  -13.1387 O   0  0  0  0  0  0  0  0  0  0  0  0
   -1.3982    2.4093   -7.7095 O   0  0  0  0  0  0  0  0  0  0  0  0
 12  9  1  0
 13  9  1  0
 14 10  1  0
 15 10  1  0
 16 11  1  0
 18 11  1  0
 19 17  1  0
 20  1  1  0
 20  2  1  0
 20 12  1  0
 21  3  1  0
 21 13  1  0
 21 14  1  0
 22  4  1  0
 22 15  1  0
 22 16  1  0
 23  5  1  0
 24  6  1  0
 24 23  1  0
 25  7  1  0
 26 17  1  0
 26 25  2  0
 27 23  2  0
 27 25  1  0
 28 24  2  0
 28 26  1  0
 29  8  1  0
 29 18  1  0
 29 19  1  0
 30 27  1  0
 31 28  1  0
 31 29  1  0
M  END
>  <DRUGBANK_ID>  (1) 
DB14476

>  <COMMON_NAME>  (1) 
DL-alpha-Tocopherol

>  <CAS_NUMBER>  (1) 
10191-41-0

>  <UNII>  (1) 
7QWA1RIO01

>  <SYNONYMS>  (1) 
(+)-alpha-tocopherol; (±)-α-tocopherol; all-rac-alpha-tocopherol; DL-5,7,8-trimethyltocol; DL-alpha tocopherol; DL-α-tocopherol; Vitamin E DL-alpha

$$$$
