1656
     RDKit          3D

 26 28  0  0  0  0  0  0  0  0999 V2000
   -2.6978   -0.9156    0.0586 Cl  0  0  0  0  0  0  0  0  0  0  0  0
    2.0003   -0.0493   -1.8620 Cl  0  0  0  0  0  0  0  0  0  0  0  0
    7.8479   -1.0324   -0.5636 F   0  0  0  0  0  0  0  0  0  0  0  0
    7.6748    0.5153   -2.0998 F   0  0  0  0  0  0  0  0  0  0  0  0
    5.2769   -1.9864   -2.4851 O   0  0  0  0  0  0  0  0  0  0  0  0
    5.9649    0.2982   -0.4563 O   0  0  0  0  0  0  0  0  0  0  0  0
    1.1782   -4.1566   -0.1830 O   0  0  0  0  0  0  0  0  0  0  0  0
    0.1886   -2.1046   -0.1057 N   0  0  0  0  0  0  0  0  0  0  0  0
   -0.1576    2.1405    0.2368 N   0  0  0  0  0  0  0  0  0  0  0  0
    5.3202    0.4147   -3.1441 C   0  0  0  0  0  0  0  0  0  0  0  0
    5.6580    1.6464   -3.9698 C   0  0  0  0  0  0  0  0  0  0  0  0
    5.6210    1.8273   -2.4952 C   0  0  0  0  0  0  0  0  0  0  0  0
    6.0745   -0.9490   -3.1075 C   0  0  0  0  0  0  0  0  0  0  0  0
    4.7852   -1.7920   -1.2116 C   0  0  0  0  0  0  0  0  0  0  0  0
    5.0631   -0.7332   -0.3310 C   0  0  0  0  0  0  0  0  0  0  0  0
    3.6770   -2.6681   -0.9559 C   0  0  0  0  0  0  0  0  0  0  0  0
    2.7305   -2.3889    0.0495 C   0  0  0  0  0  0  0  0  0  0  0  0
    4.1333   -0.5360    0.7282 C   0  0  0  0  0  0  0  0  0  0  0  0
    3.0246   -1.3847    0.9657 C   0  0  0  0  0  0  0  0  0  0  0  0
    1.3289   -2.9225   -0.0793 C   0  0  0  0  0  0  0  0  0  0  0  0
    0.0300   -0.6747   -0.1409 C   0  0  0  0  0  0  0  0  0  0  0  0
    7.3690    0.1993   -0.8036 C   0  0  0  0  0  0  0  0  0  0  0  0
   -1.2096   -0.0502    0.0468 C   0  0  0  0  0  0  0  0  0  0  0  0
    1.0682    0.2063   -0.4257 C   0  0  0  0  0  0  0  0  0  0  0  0
   -1.2522    1.3467    0.1589 C   0  0  0  0  0  0  0  0  0  0  0  0
    1.0044    1.5367   -0.0412 C   0  0  0  0  0  0  0  0  0  0  0  0
  1 23  1  0
  2 24  1  0
  3 22  1  0
  4 22  1  0
  5 13  1  0
  5 14  1  0
  6 15  1  0
  6 22  1  0
  7 20  2  0
  8 20  1  0
  8 21  1  0
  9 25  2  0
  9 26  1  0
 10 11  1  0
 10 12  1  0
 10 13  1  0
 11 12  1  0
 14 15  2  0
 14 16  1  0
 15 18  1  0
 16 17  2  0
 17 19  1  0
 17 20  1  0
 18 19  2  0
 21 23  2  0
 21 24  1  0
 23 25  1  0
 24 26  2  0
M  END
>  <DRUGBANK_ID>  (1) 
DB01656

>  <SECONDARY_ACCESSION_NUMBERS>  (1) 
EXPT02802

>  <COMMON_NAME>  (1) 
Roflumilast

>  <CAS_NUMBER>  (1) 
162401-32-3

>  <UNII>  (1) 
0P6C6ZOP5U

>  <SYNONYMS>  (1) 
Roflumilast; Roflumilastum

$$$$
