
     RDKit          3D

 28 31  0  0  0  0  0  0  0  0999 V2000
   -1.5585   -1.3167   -0.2490 C   0  0  2  0  0  0  0  0  0  0  0  0
   -2.1627   -0.0764    0.4043 C   0  0  0  0  0  0  0  0  0  0  0  0
   -1.4892    1.1770   -0.0699 C   0  0  0  0  0  0  0  0  0  0  0  0
   -0.0922    1.0141   -0.0701 O   0  0  0  0  0  0  0  0  0  0  0  0
    0.8066   -0.3410    0.0157 P   0  0  1  0  0  0  0  0  0  0  0  0
   -0.2296   -1.5395    0.1479 O   0  0  0  0  0  0  0  0  0  0  0  0
    4.9419    3.8139   -0.5318 N   0  0  0  0  0  0  0  0  0  0  0  0
    4.7515    5.1719   -0.5875 C   0  0  0  0  0  0  0  0  0  0  0  0
    3.6268    5.9203   -0.8226 N   0  0  0  0  0  0  0  0  0  0  0  0
    2.4962    5.2512   -1.0476 C   0  0  0  0  0  0  0  0  0  0  0  0
    3.7769    3.2017   -0.7438 C   0  0  0  0  0  0  0  0  0  0  0  0
    2.5762    3.8713   -1.0096 C   0  0  0  0  0  0  0  0  0  0  0  0
    1.5585    3.0841   -1.2491 N   0  0  0  0  0  0  0  0  0  0  0  0
    2.1473    1.9311   -1.1240 C   0  0  0  0  0  0  0  0  0  0  0  0
    3.4459    1.8565   -0.7840 N   0  0  0  0  0  0  0  0  0  0  0  0
    1.2652    5.8133   -1.3357 N   0  0  0  0  0  0  0  0  0  0  0  0
    4.3104    0.6640   -0.6800 C   0  0  0  0  0  0  0  0  0  0  0  0
    3.8140   -0.8422   -0.5171 C   0  0  0  0  0  0  0  0  0  0  0  0
    2.9653   -1.4688   -1.4860 O   0  0  0  0  0  0  0  0  0  0  0  0
    1.8045   -0.7097   -1.7770 C   0  0  0  0  0  0  0  0  0  0  0  0
    1.7117   -0.1907    1.2049 O   0  0  0  0  0  0  0  0  0  0  0  0
   -1.6773   -1.3411   -1.7581 C   0  0  0  0  0  0  0  0  0  0  0  0
   -1.1625   -0.3425   -2.6121 C   0  0  0  0  0  0  0  0  0  0  0  0
   -1.3308   -0.3700   -3.9861 C   0  0  0  0  0  0  0  0  0  0  0  0
   -2.0157   -1.4300   -4.5462 C   0  0  0  0  0  0  0  0  0  0  0  0
   -2.5132   -2.4456   -3.7286 C   0  0  0  0  0  0  0  0  0  0  0  0
   -2.3459   -2.4093   -2.3465 C   0  0  0  0  0  0  0  0  0  0  0  0
   -3.3599   -3.7621   -4.4314 Cl  0  0  0  0  0  0  0  0  0  0  0  0
  1  2  1  0
  1  6  1  0
  1 22  1  6
  2  3  1  0
  3  4  1  0
  4  5  1  0
  5 20  1  0
  5 21  2  0
  5  6  1  0
  7  8  2  0
  8  9  1  0
  9 10  2  0
 10 16  1  0
 10 12  1  0
 11 12  2  0
 11  7  1  0
 12 13  1  0
 13 14  2  0
 14 15  1  0
 15 11  1  0
 15 17  1  0
 17 18  1  0
 18 19  1  0
 19 20  1  0
 22 23  2  0
 23 24  1  0
 24 25  2  0
 25 26  1  0
 26 27  2  0
 26 28  1  0
 27 22  1  0
M  END
>  <DRUGBANK_ID>  (1) 
DB15550

>  <COMMON_NAME>  (1) 
Pradefovir

>  <CAS_NUMBER>  (1) 
625095-60-5

>  <UNII>  (1) 
GZE85Q9Q61

>  <SYNONYMS>  (1) 
Pradefovir

$$$$
