
     RDKit          3D

  9  8  0  0  0  0  0  0  0  0999 V2000
    1.1268    0.1053   -0.0931 S   0  0  0  0  0  0  0  0  0  0  0  0
    0.4914   -1.4001   -0.8382 C   0  0  0  0  0  0  0  0  0  0  0  0
    0.3828    0.0497    1.3384 O   0  0  0  0  0  0  0  0  0  0  0  0
    0.5863    1.2430   -0.8052 O   0  0  0  0  0  0  0  0  0  0  0  0
    2.5343   -0.0466    0.1761 O   0  0  0  0  0  0  0  0  0  0  0  0
    0.9350   -2.6749   -0.1196 C   0  0  0  0  0  0  0  0  0  0  0  0
    0.4074   -2.8342    1.3146 C   0  0  0  0  0  0  0  0  0  0  0  0
    0.4537   -4.1550   -1.1114 S   0  0  0  0  0  0  0  0  0  0  0  0
   -1.4150   -2.7597    1.4986 S   0  0  0  0  0  0  0  0  0  0  0  0
  1  2  1  0
  1  3  1  0
  1  4  2  0
  1  5  2  0
  2  6  1  0
  6  7  1  0
  6  8  1  0
  7  9  1  0
M  END
>  <DRUGBANK_ID>  (1) 
DB15967

>  <COMMON_NAME>  (1) 
2,3-Dimercapto-1-propanesulfonic acid

>  <CAS_NUMBER>  (1) 
74-61-3

>  <UNII>  (1) 
086L82361J

>  <SYNONYMS>  (1) 
2,3-Dimercapto-1-propane sulfonate; 2,3-Dimercaptopropan-1-sulfonsaeure; 2,3-Dimercaptopropanesulfonic acid; DMPS

$$$$
