
     RDKit          3D

  9  9  0  0  0  0  0  0  0  0999 V2000
   -1.4250    0.3298   -0.2297 C   0  0  0  0  0  0  0  0  0  0  0  0
   -0.9913   -1.0581    0.2351 C   0  0  0  0  0  0  0  0  0  0  0  0
   -0.4284    1.4033    0.2193 C   0  0  0  0  0  0  0  0  0  0  0  0
    0.4238   -1.3843   -0.2329 C   0  0  0  0  0  0  0  0  0  0  0  0
    0.9963    1.0685   -0.2341 C   0  0  0  0  0  0  0  0  0  0  0  0
    1.4177   -0.3233    0.2293 C   0  0  0  0  0  0  0  0  0  0  0  0
   -0.8249    2.7066   -0.2884 N   0  0  0  0  0  0  0  0  0  0  0  0
   -1.1304    3.7503    0.5456 C   0  0  0  0  0  0  0  0  0  0  0  0
   -1.1159    3.7205    1.7677 O   0  0  0  0  0  0  0  0  0  0  0  0
  2  1  1  0
  3  1  1  0
  4  2  1  0
  5  3  1  0
  6  4  1  0
  6  5  1  0
  7  3  1  0
  8  7  1  0
  8  9  2  0
M  END
>  <DRUGBANK_ID>  (1) 
DB03559

>  <SECONDARY_ACCESSION_NUMBERS>  (1) 
EXPT01065

>  <COMMON_NAME>  (1) 
Cyclohexylformamide

>  <CAS_NUMBER>  (1) 
766-93-8

>  <UNII>  (1) 
X2CFE4SDT6

>  <SYNONYMS>  (1) 
Formamidocyclohexane; N-cyclohexylformamide; N-formylcyclohexylamine

$$$$
