NS3
     RDKit          3D

 28 31  0  0  0  0  0  0  0  0999 V2000
    1.2553   -0.0441    0.2482 C   0  0  0  0  0  0  0  0  0  0  0  0
    0.5099    1.2142   -0.1514 C   0  0  0  0  0  0  0  0  0  0  0  0
   -0.9500    0.8788    0.1370 C   0  0  0  0  0  0  0  0  0  0  0  0
   -1.0845   -0.6412    0.0310 C   0  0  0  0  0  0  0  0  0  0  0  0
    0.3291   -1.1725   -0.2139 C   0  0  0  0  0  0  0  0  0  0  0  0
    0.5495   -1.6127   -1.6752 C   0  0  1  0  0  0  0  0  0  0  0  0
    0.3933   -0.5508   -2.6607 N   0  0  0  0  0  0  0  0  0  0  0  0
    1.9084   -2.1084   -1.7677 N   0  0  0  0  0  0  0  0  0  0  0  0
    2.1357   -2.9369   -3.1845 S   0  0  0  0  0  0  0  0  0  0  0  0
    1.3264   -4.1251   -3.1285 O   0  0  0  0  0  0  0  0  0  0  0  0
    3.5700   -3.0022   -3.3895 O   0  0  0  0  0  0  0  0  0  0  0  0
    1.4438   -1.8780   -4.3837 C   0  0  0  0  0  0  0  0  0  0  0  0
    1.7021   -2.1770   -5.7116 C   0  0  0  0  0  0  0  0  0  0  0  0
    0.6544   -0.8123   -3.9989 C   0  0  0  0  0  0  0  0  0  0  0  0
    0.1797    0.0041   -5.0398 C   0  0  0  0  0  0  0  0  0  0  0  0
    0.4602   -0.2735   -6.4148 C   0  0  0  0  0  0  0  0  0  0  0  0
   -0.1230    0.6274   -7.4639 C   0  0  0  0  0  0  0  0  0  0  0  0
    1.2290   -1.3980   -6.7426 C   0  0  0  0  0  0  0  0  0  0  0  0
    1.6389   -1.8627   -8.4283 S   0  0  0  0  0  0  0  0  0  0  0  0
    0.4847   -2.5475   -8.9636 O   0  0  0  0  0  0  0  0  0  0  0  0
    2.1424   -0.6503   -9.0480 O   0  0  0  0  0  0  0  0  0  0  0  0
    2.9629   -2.9069   -8.3481 N   0  0  0  0  0  0  0  0  0  0  0  0
    3.0175   -4.3890   -8.1008 C   0  0  0  0  0  0  0  0  0  0  0  0
    3.8328   -4.7681   -6.8152 C   0  0  0  0  0  0  0  0  0  0  0  0
    5.1127   -4.0311   -6.7228 N   0  0  0  0  0  0  0  0  0  0  0  0
    5.8216   -4.2997   -5.4785 C   0  0  0  0  0  0  0  0  0  0  0  0
    4.8802   -2.5875   -6.8288 C   0  0  0  0  0  0  0  0  0  0  0  0
    4.2639   -2.2345   -8.1689 C   0  0  0  0  0  0  0  0  0  0  0  0
  1  5  1  0
  1  2  1  0
  3  2  1  0
  3  4  1  0
  5  4  1  0
  6  5  1  1
  6  8  1  0
  7  6  1  0
  9  8  1  0
  9 11  2  0
 10  9  2  0
 12  9  1  0
 12 14  2  0
 13 12  1  0
 14  7  1  0
 15 14  1  0
 16 15  2  0
 17 16  1  0
 18 13  2  0
 18 16  1  0
 19 18  1  0
 19 20  2  0
 21 19  2  0
 22 19  1  0
 23 22  1  0
 24 23  1  0
 25 24  1  0
 25 27  1  0
 26 25  1  0
 27 28  1  0
 28 22  1  0
M  END
>  <DRUGBANK_ID>  (1) 
DB08303

>  <COMMON_NAME>  (1) 
(3S)-3-cyclopentyl-6-methyl-7-[(4-methylpiperazin-1-yl)sulfonyl]-3,4-dihydro-2H-1,2,4-benzothiadiazine 1,1-dioxide

$$$$
