
     RDKit          3D

 19 18  0  0  0  0  0  0  0  0999 V2000
    1.4236   -0.3823    0.3767 C   0  0  0  0  0  0  0  0  0  0  0  0
   -1.0003   -1.4890   -0.1735 C   0  0  0  0  0  0  0  0  0  0  0  0
    1.1417   -2.0876   -1.0260 C   0  0  0  0  0  0  0  0  0  0  0  0
    1.4957    0.7101   -0.6369 C   0  0  0  0  0  0  0  0  0  0  0  0
   -1.8235   -0.8143   -1.6457 C   0  0  0  0  0  0  0  0  0  0  0  0
    0.8155   -1.0600   -2.1184 C   0  0  0  0  0  0  0  0  0  0  0  0
    0.5480   -1.5774    0.1454 N   0  0  0  0  0  0  0  0  0  0  0  0
    3.2737    0.4436   -2.4450 N   0  0  0  0  0  0  0  0  0  0  0  0
   -0.1806   -1.2741   -4.3790 N   0  0  0  0  0  0  0  0  0  0  0  0
   -0.1212    2.0400   -1.8272 N   0  0  0  0  0  0  0  0  0  0  0  0
    4.1041    0.2913   -1.5172 O   0  0  0  0  0  0  0  0  0  0  0  0
    3.3900    0.2793   -3.6445 O   0  0  0  0  0  0  0  0  0  0  0  0
    0.8196   -0.5129   -4.3068 O   0  0  0  0  0  0  0  0  0  0  0  0
   -0.2009   -2.2319   -5.1375 O   0  0  0  0  0  0  0  0  0  0  0  0
   -0.9306    2.0921   -0.8854 O   0  0  0  0  0  0  0  0  0  0  0  0
    0.7507    2.8884   -2.0891 O   0  0  0  0  0  0  0  0  0  0  0  0
    2.0527    0.8865   -1.9894 O   0  0  0  0  0  0  0  0  0  0  0  0
   -1.5349   -1.3187   -3.2619 O   0  0  0  0  0  0  0  0  0  0  0  0
    0.0079    0.4911   -2.5948 O   0  0  0  0  0  0  0  0  0  0  0  0
  4  1  1  0
  5  2  1  0
  6  3  1  0
  7  1  1  0
  7  2  1  0
  7  3  1  0
 11  8  1  0
 12  8  2  0
 13  9  1  0
 14  9  2  0
 15 10  1  0
 16 10  2  0
 17  4  1  0
 17  8  1  0
 18  5  1  0
 18  9  1  0
 19  6  1  0
 19 10  1  0
M  CHG  6   8   1   9   1  10   1  11  -1  13  -1  15  -1
M  END
>  <DRUGBANK_ID>  (1) 
DB13719

>  <COMMON_NAME>  (1) 
Trolnitrate

>  <CAS_NUMBER>  (1) 
7077-34-1

>  <UNII>  (1) 
B9M85U075P

>  <SYNONYMS>  (1) 
Trolnitrate

$$$$
