
     RDKit          3D

 35 38  0  0  0  0  0  0  0  0999 V2000
   -1.1393   -0.5045    2.0593 Cl  0  0  0  0  0  0  0  0  0  0  0  0
   -2.2545   -0.3857    0.6038 C   0  0  1  0  0  0  0  0  0  0  0  0
   -3.2567   -1.5491    1.1466 C   0  0  2  0  0  0  0  0  0  0  0  0
   -2.9785    0.9871    0.4472 C   0  0  2  0  0  0  0  0  0  0  0  0
   -1.3318   -0.5011   -0.9117 C   0  0  1  0  0  0  0  0  0  0  0  0
   -3.9102   -2.4684    0.1586 C   0  0  0  0  0  0  0  0  0  0  0  0
   -4.3274   -0.8438    2.1681 C   0  0  0  0  0  0  0  0  0  0  0  0
   -2.4976   -2.9173    1.7073 C   0  0  0  0  0  0  0  0  0  0  0  0
   -4.4914    0.8990    0.4850 O   0  0  0  0  0  0  0  0  0  0  0  0
   -2.1019    2.2850   -0.2937 C   0  0  0  0  0  0  0  0  0  0  0  0
   -0.2069    0.6974   -0.9581 C   0  0  2  0  0  0  0  0  0  0  0  0
   -1.1120   -1.9801   -0.8915 C   0  0  0  0  0  0  0  0  0  0  0  0
   -4.9130   -3.1793    0.8503 C   0  0  0  0  0  0  0  0  0  0  0  0
   -2.5802   -2.8622   -0.8837 C   0  0  2  0  0  0  0  0  0  0  0  0
   -5.5408   -1.3085    2.4706 C   0  0  0  0  0  0  0  0  0  0  0  0
   -0.8997    2.0450   -1.1476 C   0  0  2  0  0  0  0  0  0  0  0  0
    1.2521    1.0994   -1.4865 C   0  0  0  0  0  0  0  0  0  0  0  0
   -5.4357   -2.7417    2.2805 C   0  0  0  0  0  0  0  0  0  0  0  0
   -2.9508   -3.4302   -2.0586 F   0  0  0  0  0  0  0  0  0  0  0  0
    0.1841    3.0405   -0.6725 C   0  0  2  0  0  0  0  0  0  0  0  0
   -1.2930    2.3801   -2.6230 C   0  0  0  0  0  0  0  0  0  0  0  0
    1.4862    2.6630   -1.5404 C   0  0  2  0  0  0  0  0  0  0  0  0
   -5.4870   -3.4442    3.2605 O   0  0  0  0  0  0  0  0  0  0  0  0
    0.3523    3.2333    0.9676 C   0  0  0  0  0  0  0  0  0  0  0  0
    1.7432    2.7888   -3.1536 C   0  0  0  0  0  0  0  0  0  0  0  0
    1.0267    4.1688    1.4175 O   0  0  0  0  0  0  0  0  0  0  0  0
   -0.4315    2.3205    2.0081 C   0  0  0  0  0  0  0  0  0  0  0  0
   -1.9450    2.2489    2.1779 O   0  0  0  0  0  0  0  0  0  0  0  0
   -2.8134    3.3328    1.9664 C   0  0  0  0  0  0  0  0  0  0  0  0
   -2.5498    4.4202    2.5772 O   0  0  0  0  0  0  0  0  0  0  0  0
   -4.2391    3.1579    0.8924 C   0  0  0  0  0  0  0  0  0  0  0  0
   -4.5976    2.6874   -0.9387 C   0  0  0  0  0  0  0  0  0  0  0  0
   -4.2921    1.2239   -2.0167 C   0  0  0  0  0  0  0  0  0  0  0  0
   -4.7050   -0.2607   -1.7047 C   0  0  0  0  0  0  0  0  0  0  0  0
   -6.1420   -0.6266   -1.6807 C   0  0  0  0  0  0  0  0  0  0  0  0
  2  3  1  0
  2  4  1  0
  2  5  1  0
  2  1  1  1
  3  6  1  0
  3  7  1  0
  3  8  1  1
  4 10  1  0
  4  9  1  6
  5 11  1  0
  5 12  1  1
  6 13  2  0
  6 14  1  0
  7 15  2  0
 10 16  1  0
 11 17  1  6
 11 16  1  0
 12 14  1  0
 13 18  1  0
 14 19  1  6
 15 18  1  0
 16 20  1  0
 16 21  1  6
 17 22  1  0
 18 23  2  0
 20 22  1  0
 20 24  1  1
 22 25  1  1
 24 26  2  0
 24 27  1  0
 27 28  1  0
 28 29  1  0
 29 30  2  0
 29 31  1  0
 31 32  1  0
 32 33  1  0
 33 34  1  0
 34 35  1  0
M  END
>  <DRUGBANK_ID>  (1) 
DB14653

>  <SECONDARY_ACCESSION_NUMBERS>  (1) 
DBSALT001838

>  <COMMON_NAME>  (1) 
Clocortolone caproate

>  <CAS_NUMBER>  (1) 
4891-71-8

>  <UNII>  (1) 
871M9PSU7T

>  <SYNONYMS>  (1) 
Clocortolone hexanoate

$$$$
