
     RDKit          3D

 28 31  0  0  1  0  0  0  0  0999 V2000
    0.9319   -0.0723   -0.0119 N   0  0  0  0  0  0  0  0  0  0  0  0
    0.1969   -0.9055    0.9506 C   0  0  0  0  0  0  0  0  0  0  0  0
    0.5249   -0.9868    2.2963 N   0  0  0  0  0  0  0  0  0  0  0  0
   -0.1423   -1.9117    3.0862 C   0  0  0  0  0  0  0  0  0  0  0  0
   -1.1100   -2.7133    2.5122 C   0  0  0  0  0  0  0  0  0  0  0  0
   -1.8230   -3.6969    3.3398 N   0  0  0  0  0  0  0  0  0  0  0  0
   -2.8543   -4.5543    2.7378 C   0  0  2  0  0  0  0  0  0  0  0  0
   -2.3231   -5.3018    1.7502 C   0  0  2  0  0  0  0  0  0  0  0  0
    0.1765   -2.0372    4.5157 N   0  0  0  0  0  0  0  0  0  0  0  0
   -2.9124   -5.3597    0.5423 O   0  0  0  0  0  0  0  0  0  0  0  0
   -4.0378   -4.6692    0.2823 C   0  0  1  0  0  0  0  0  0  0  0  0
   -5.0863   -5.6856   -0.1397 C   0  0  0  0  0  0  0  0  0  0  0  0
   -5.8818   -4.9988   -1.0947 O   0  0  0  0  0  0  0  0  0  0  0  0
   -6.4041   -3.4889   -0.4311 P   0  0  0  0  0  0  0  0  0  0  0  0
   -7.7870   -4.2692    0.2557 O   0  0  0  0  0  0  0  0  0  0  0  0
   -4.9344   -3.3785    0.4747 O   0  0  0  0  0  0  0  0  0  0  0  0
   -6.8717   -2.1376    0.1627 O   0  0  0  0  0  0  0  0  0  0  0  0
   -4.6152   -3.8867    1.2597 C   0  0  0  0  0  0  0  0  0  0  0  0
   -4.0316   -3.8210    2.4941 C   0  0  0  0  0  0  0  0  0  0  0  0
   -4.8065   -2.9666    3.2957 S   0  0  0  0  0  0  0  0  0  0  0  0
   -5.8638   -2.5228    2.5201 Mo  0  0  0  0  0  7  0  0  0  0  0  0
   -4.2001   -1.3235    0.9384 S   0  0  0  0  0  0  0  0  0  0  0  0
   -6.3876   -4.3878    2.1671 O   0  0  0  0  0  0  0  0  0  0  0  0
   -6.6048   -1.5696    4.0755 O   0  0  0  0  0  0  0  0  0  0  0  0
   -5.7360   -3.0969    1.2651 S   0  0  0  0  0  0  0  0  0  0  0  0
   -1.4024   -2.6061    1.2269 C   0  0  0  0  0  0  0  0  0  0  0  0
   -2.3021   -3.3545    0.7312 O   0  0  0  0  0  0  0  0  0  0  0  0
   -0.7808   -1.7382    0.4441 N   0  0  0  0  0  0  0  0  0  0  0  0
  1  2  1  0
  2  3  2  0
  2 28  1  0
  3  4  1  0
  4  5  2  0
  4  9  1  0
  5  6  1  0
  5 26  1  0
  7  6  1  6
  7  8  1  0
  7 19  1  0
  8  9  1  6
  8 10  1  0
 10 11  1  0
 11 18  1  0
 11 12  1  1
 12 13  1  0
 13 14  1  0
 14 15  1  0
 14 16  1  0
 14 17  2  0
 18 19  2  0
 18 25  1  0
 19 20  1  0
 20 21  1  0
 21 22  1  0
 21 23  2  0
 21 24  2  0
 21 25  1  0
 26 27  2  0
 26 28  1  0
M  END
>  <DRUGBANK_ID>  (1) 
DB03983

>  <SECONDARY_ACCESSION_NUMBERS>  (1) 
EXPT02249

>  <COMMON_NAME>  (1) 
{[2-Amino-4-oxo-6,7-di(sulfanyl-ÎºS)-3,5,5a,8,9a,10-hexahydro-4H-pyrano[3,2-g]pteridin-8-yl]methyl dihydrogenato(2-) phosphate}(dioxo)sulfanylmolybdenum

>  <SYNONYMS>  (1) 
(Molybdopterin-S,S)-dioxo-thio-molybdenum(V)

$$$$
