5I5
     RDKit          3D

 19 21  0  0  0  0  0  0  0  0999 V2000
    3.9914    0.2454    4.2886 N   0  0  0  0  0  0  0  0  0  0  0  0
    4.9749    0.3619    3.3763 C   0  0  0  0  0  0  0  0  0  0  0  0
    4.6831    0.8975    2.1171 C   0  0  0  0  0  0  0  0  0  0  0  0
    3.3642    1.2862    1.8979 C   0  0  0  0  0  0  0  0  0  0  0  0
    2.3586    1.1970    2.7819 N   0  0  0  0  0  0  0  0  0  0  0  0
    2.7558    0.6614    3.9481 C   0  0  0  0  0  0  0  0  0  0  0  0
    5.3786    1.1941    0.9209 C   0  0  0  0  0  0  0  0  0  0  0  0
    4.5010    1.7281    0.0124 C   0  0  0  0  0  0  0  0  0  0  0  0
    3.2800    1.8371    0.6332 N   0  0  0  0  0  0  0  0  0  0  0  0
    7.3544    0.9137    0.5460 I   0  0  0  0  0  0  0  0  0  0  0  0
    6.2428   -0.0415    3.7316 N   0  0  0  0  0  0  0  0  0  0  0  0
    1.7031    4.9383    0.2171 C   0  0  1  0  0  0  0  0  0  0  0  0
    1.6882    3.6798    1.0748 C   0  0  2  0  0  0  0  0  0  0  0  0
    2.0868    2.5356    0.1331 C   0  0  1  0  0  0  0  0  0  0  0  0
    2.3434    3.1199   -1.1676 O   0  0  0  0  0  0  0  0  0  0  0  0
    2.5119    4.5435   -1.0126 C   0  0  2  0  0  0  0  0  0  0  0  0
    0.3777    5.3411   -0.1399 O   0  0  0  0  0  0  0  0  0  0  0  0
    0.4095    3.4476    1.6666 O   0  0  0  0  0  0  0  0  0  0  0  0
    4.0024    4.8244   -0.8700 C   0  0  0  0  0  0  0  0  0  0  0  0
  1  6  2  0
  1  2  1  0
  2 11  1  0
  2  3  2  0
  3  4  1  0
  3  7  1  0
  4  5  2  0
  4  9  1  0
  5  6  1  0
  7  8  2  0
  7 10  1  0
  8  9  1  0
 12 17  1  6
 12 13  1  0
 12 16  1  0
 13 14  1  0
 13 18  1  6
 14 15  1  0
 14  9  1  1
 15 16  1  0
 16 19  1  1
M  END
>  <DRUGBANK_ID>  (1) 
DB07173

>  <COMMON_NAME>  (1) 
7-(5-DEOXY-BETA-D-RIBOFURANOSYL)-5-IODO-7H-PYRROLO[2,3-D]PYRIMIDIN-4-AMINE

$$$$
