
     RDKit          3D

 24 27  0  0  1  0  0  0  0  0999 V2000
   -1.6651    0.6972   -0.0145 C   0  0  1  0  0  0  0  0  0  0  0  0
   -0.4847    2.1557   -0.1176 C   0  0  0  0  0  0  0  0  0  0  0  0
   -1.0949    3.3598   -0.9190 C   0  0  0  0  0  0  0  0  0  0  0  0
   -2.4381    2.9624   -0.5367 C   0  0  0  0  0  0  0  0  0  0  0  0
   -3.2478    3.7199    0.1310 N   0  0  0  0  0  0  0  0  0  0  0  0
   -4.1706    4.1713   -0.8206 O   0  0  0  0  0  0  0  0  0  0  0  0
   -2.6632    1.5398   -0.8340 C   0  0  1  0  0  0  0  0  0  0  0  0
   -2.2378    1.3192   -2.3703 C   0  0  0  0  0  0  0  0  0  0  0  0
   -4.0679    1.3167   -0.3591 C   0  0  0  0  0  0  0  0  0  0  0  0
   -4.5890    0.1882   -1.0631 C   0  0  0  0  0  0  0  0  0  0  0  0
   -3.9984   -1.1150   -0.6864 C   0  0  2  0  0  0  0  0  0  0  0  0
   -2.3834   -0.9442   -0.6524 C   0  0  2  0  0  0  0  0  0  0  0  0
   -2.1721   -2.4261   -0.1981 C   0  0  0  0  0  0  0  0  0  0  0  0
   -2.9606   -3.6199   -1.2823 C   0  0  0  0  0  0  0  0  0  0  0  0
   -4.6559   -3.5899   -1.9478 C   0  0  2  0  0  0  0  0  0  0  0  0
   -5.8351   -3.1789   -3.4464 C   0  0  0  0  0  0  0  0  0  0  0  0
   -6.0437   -1.4484   -3.9510 C   0  0  1  0  0  0  0  0  0  0  0  0
   -6.0710   -0.3064   -3.1169 O   0  0  0  0  0  0  0  0  0  0  0  0
   -4.5764   -1.1392   -4.2335 C   0  0  0  0  0  0  0  0  0  0  0  0
   -3.8701   -2.0835   -3.2699 C   0  0  0  0  0  0  0  0  0  0  0  0
   -4.7094   -2.1561   -1.6812 C   0  0  2  0  0  0  0  0  0  0  0  0
   -6.3337   -2.2419   -1.2002 C   0  0  0  0  0  0  0  0  0  0  0  0
   -7.4495   -1.0756   -4.2745 C   0  0  0  0  0  0  0  0  0  0  0  0
   -8.5645   -0.5380   -4.0156 C   0  0  0  0  0  0  0  0  0  0  0  0
  1  2  1  6
  1  7  1  0
  1 12  1  0
  2  3  1  0
  3  4  1  0
  4  5  2  0
  5  6  1  0
  7  4  1  0
  7  9  1  0
  7  8  1  6
  9 10  1  0
 11 10  1  6
 11 21  1  0
 12 11  1  0
 12 13  1  1
 13 14  1  0
 15 14  1  6
 15 16  1  0
 17 16  1  0
 17 19  1  0
 17 23  1  0
 17 18  1  1
 19 20  1  0
 21 20  1  0
 21 15  1  0
 21 22  1  6
 23 24  3  0
M  END
>  <DRUGBANK_ID>  (1) 
DB18200

>  <COMMON_NAME>  (1) 
Golexanolone

>  <CAS_NUMBER>  (1) 
2089238-18-4

>  <UNII>  (1) 
9C48F08TP2

>  <SYNONYMS>  (1) 
Androstan-17-one, 3-ethynyl-3-hydroxy-, oxime, (3.beta.,5.alpha.,17e)-

$$$$
