
     RDKit          3D

  7  6  0  0  1  0  0  0  0  0999 V2000
   -1.9057   -1.9974   -2.2688 C   0  0  0  0  0  0  0  0  0  0  0  0
   -1.5987   -0.9138   -1.2300 C   0  0  0  0  0  0  0  0  0  0  0  0
   -2.8316   -0.0252   -1.0402 C   0  0  0  0  0  0  0  0  0  0  0  0
   -1.0962   -1.4862    0.1253 C   0  0  2  0  0  0  0  0  0  0  0  0
    0.3840   -1.5251    0.1519 N   0  0  0  0  0  0  0  0  0  0  0  0
   -1.6191   -2.9088    0.4324 C   0  0  0  0  0  0  0  0  0  0  0  0
   -1.1084   -3.3786    1.6753 O   0  0  0  0  0  0  0  0  0  0  0  0
  1  2  1  0
  2  3  1  0
  4  6  1  0
  4  5  1  6
  4  2  1  0
  6  7  1  0
M  END
>  <DRUGBANK_ID>  (1) 
DB04383

>  <SECONDARY_ACCESSION_NUMBERS>  (1) 
EXPT03230

>  <COMMON_NAME>  (1) 
L-valinol

>  <CAS_NUMBER>  (1) 
2026-48-4

>  <UNII>  (1) 
R54N4NJ3ZZ

>  <SYNONYMS>  (1) 
(2S)-2-amino-3-methylbutan-1-ol; (S)-(+)-2-Amino-3-methyl-1-butanol

$$$$
