NNI
     RDKit          3D

 24 26  0  0  0  0  0  0  0  0999 V2000
    2.9186    1.1731   -0.0093 C   0  0  0  0  0  0  0  0  0  0  0  0
    1.5128    1.2142   -0.0094 C   0  0  0  0  0  0  0  0  0  0  0  0
    0.7755    0.0294    0.0002 C   0  0  0  0  0  0  0  0  0  0  0  0
   -1.2959    0.0472    0.0101 I   0  0  0  0  0  0  0  0  0  0  0  0
    1.4274   -1.1909    0.0049 C   0  0  0  0  0  0  0  0  0  0  0  0
    2.8146   -1.2234    0.0190 C   0  0  0  0  0  0  0  0  0  0  0  0
    3.5840   -0.0590    0.0348 C   0  0  0  0  0  0  0  0  0  0  0  0
    4.9863   -0.0871    0.2130 N   0  0  0  0  0  0  0  0  0  0  0  0
    5.7538   -1.1862    0.5411 C   0  0  0  0  0  0  0  0  0  0  0  0
    7.1645   -1.0405    1.4183 S   0  0  0  0  0  0  0  0  0  0  0  0
    5.2977   -2.3671    0.0577 O   0  0  0  0  0  0  0  0  0  0  0  0
    6.0248   -3.6069   -0.0927 C   0  0  0  0  0  0  0  0  0  0  0  0
    6.7541   -3.6754   -1.4474 C   0  0  0  0  0  0  0  0  0  0  0  0
    7.6969   -2.5858   -1.6661 N   0  0  0  0  0  0  0  0  0  0  0  0
    9.0560   -2.7194   -1.6530 C   0  0  0  0  0  0  0  0  0  0  0  0
    9.7205   -3.7349   -1.5464 O   0  0  0  0  0  0  0  0  0  0  0  0
    9.6129   -1.3665   -1.7685 C   0  0  0  0  0  0  0  0  0  0  0  0
   10.9107   -0.9076   -1.8270 C   0  0  0  0  0  0  0  0  0  0  0  0
   11.1024    0.4816   -1.8193 C   0  0  0  0  0  0  0  0  0  0  0  0
   10.0149    1.3671   -1.6730 C   0  0  0  0  0  0  0  0  0  0  0  0
    8.7095    0.8794   -1.6415 C   0  0  0  0  0  0  0  0  0  0  0  0
    8.5511   -0.4874   -1.7791 C   0  0  0  0  0  0  0  0  0  0  0  0
    7.3403   -1.2868   -1.9291 C   0  0  0  0  0  0  0  0  0  0  0  0
    6.2800   -0.8157   -2.2623 O   0  0  0  0  0  0  0  0  0  0  0  0
  1  2  2  0
  1  7  1  0
  2  3  1  0
  3  4  1  0
  3  5  2  0
  5  6  1  0
  6  7  2  0
  7  8  1  0
  8  9  1  0
  9 10  2  0
  9 11  1  0
 11 12  1  0
 12 13  1  0
 13 14  1  0
 14 23  1  0
 14 15  1  0
 15 16  2  0
 17 15  1  0
 18 17  2  0
 19 18  1  0
 20 19  2  0
 21 20  1  0
 22 21  2  0
 22 17  1  0
 23 24  2  0
 23 22  1  0
M  END
>  <DRUGBANK_ID>  (1) 
DB08284

>  <COMMON_NAME>  (1) 
O-[2-(1,3-dioxo-1,3-dihydro-2H-isoindol-2-yl)ethyl] (4-iodophenyl)thiocarbamate

$$$$
