
     RDKit          3D

 22 22  0  0  0  0  0  0  0  0999 V2000
   -1.1701   -0.2916   -0.0137 C   0  0  0  0  0  0  0  0  0  0  0  0
   -0.9260    1.1512   -0.5461 C   0  0  0  0  0  0  0  0  0  0  0  0
    0.1561   -1.0841    0.1381 C   0  0  0  0  0  0  0  0  0  0  0  0
    1.3633   -0.4596    0.0235 C   0  0  0  0  0  0  0  0  0  0  0  0
    1.5073    1.0465   -0.1356 C   0  0  0  0  0  0  0  0  0  0  0  0
    0.2385    1.8350    0.1366 C   0  0  0  0  0  0  0  0  0  0  0  0
   -4.8075   -9.4675    1.5384 C   0  0  0  0  0  0  0  0  0  0  0  0
   -3.5939   -8.8838    1.4494 C   0  0  0  0  0  0  0  0  0  0  0  0
   -3.4271   -7.4597    1.2033 C   0  0  0  0  0  0  0  0  0  0  0  0
   -2.2675   -6.8156    1.1046 C   0  0  0  0  0  0  0  0  0  0  0  0
   -2.1748   -5.3952    0.8798 C   0  0  0  0  0  0  0  0  0  0  0  0
   -0.9995   -4.7448    0.8017 C   0  0  0  0  0  0  0  0  0  0  0  0
    0.0863   -2.5329    0.3945 C   0  0  0  0  0  0  0  0  0  0  0  0
   -2.3300   -9.7127    1.6093 C   0  0  0  0  0  0  0  0  0  0  0  0
    0.3324   -5.4295    0.9062 C   0  0  0  0  0  0  0  0  0  0  0  0
   -2.1278   -0.9052   -1.0724 C   0  0  0  0  0  0  0  0  0  0  0  0
   -1.8575   -0.1808    1.3675 C   0  0  0  0  0  0  0  0  0  0  0  0
   -0.9934   -3.3026    0.6145 C   0  0  0  0  0  0  0  0  0  0  0  0
    2.7252   -1.1231    0.0175 C   0  0  0  0  0  0  0  0  0  0  0  0
   -6.1546   -8.8654    1.4190 C   0  0  0  0  0  0  0  0  0  0  0  0
   -7.1930   -9.5043    1.5178 O   0  0  0  0  0  0  0  0  0  0  0  0
   -6.1773   -7.5483    1.1913 O   0  0  0  0  0  0  0  0  0  0  0  0
  1 16  1  0
  1 17  1  0
  1  2  1  0
  1  3  1  0
  2  6  1  0
  3 13  1  0
  4  3  2  0
  5  4  1  0
  6  5  1  0
  7 20  1  0
  8  7  2  0
  9  8  1  0
 10  9  2  0
 11 10  1  0
 12 11  2  0
 13 18  2  0
 14  8  1  0
 15 12  1  0
 18 12  1  0
 19  4  1  0
 20 21  2  0
 20 22  1  0
M  END
>  <DRUGBANK_ID>  (1) 
DB00982

>  <SECONDARY_ACCESSION_NUMBERS>  (1) 
APRD00140

>  <COMMON_NAME>  (1) 
Isotretinoin

>  <CAS_NUMBER>  (1) 
4759-48-2

>  <UNII>  (1) 
EH28UP18IF

>  <SYNONYMS>  (1) 
(7E,9E,11E,13Z)-retinoic acid; 13-cis-retinoic acid; 13-cis-Vitamin A acid; 13-RA; cis-RA; Isotretinoin; Isotretinoína; Isotrétinoine; Isotretinoino; Isotretinoinum; Neovitamin A acid

$$$$
