640
     RDKit          3D

 19 21  0  0  1  0  0  0  0  0999 V2000
    1.6724    0.4315    0.2758 O   0  0  0  0  0  0  0  0  0  0  0  0
   -1.8926    0.8751    0.0521 O   0  0  0  0  0  0  0  0  0  0  0  0
   -0.7717   -1.4664    0.6639 O   0  0  0  0  0  0  0  0  0  0  0  0
    1.4521   -1.7993   -2.6414 O   0  0  0  0  0  0  0  0  0  0  0  0
    0.8927    2.6229   -0.0335 N   0  0  0  0  0  0  0  0  0  0  0  0
    1.6869    4.6788    0.2930 N   0  0  0  0  0  0  0  0  0  0  0  0
    1.0704    2.4841   -2.4612 N   0  0  0  0  0  0  0  0  0  0  0  0
    2.1334    4.4633   -3.3821 N   0  0  0  0  0  0  0  0  0  0  0  0
    2.8634    6.2642   -2.0629 N   0  0  0  0  0  0  0  0  0  0  0  0
   -0.6002    0.6404   -0.5126 C   0  0  1  0  0  0  0  0  0  0  0  0
    0.5035    1.2790    0.3270 C   0  0  1  0  0  0  0  0  0  0  0  0
   -0.2044   -0.8273   -0.4959 C   0  0  1  0  0  0  0  0  0  0  0  0
    1.3244   -0.7917   -0.4049 C   0  0  1  0  0  0  0  0  0  0  0  0
    2.0540   -0.8668   -1.7532 C   0  0  0  0  0  0  0  0  0  0  0  0
    1.2046    3.0960   -1.2784 C   0  0  0  0  0  0  0  0  0  0  0  0
    1.1492    3.6233    0.8690 C   0  0  0  0  0  0  0  0  0  0  0  0
    1.7438    4.3549   -1.0458 C   0  0  0  0  0  0  0  0  0  0  0  0
    2.2472    5.0366   -2.1641 C   0  0  0  0  0  0  0  0  0  0  0  0
    1.5474    3.2489   -3.4650 C   0  0  0  0  0  0  0  0  0  0  0  0
  1 11  1  0
  1 13  1  0
  4 14  1  0
  5 15  1  0
  5 16  1  0
  6 16  2  0
  6 17  1  0
  7 15  1  0
  7 19  2  0
  8 18  2  0
  8 19  1  0
  9 18  1  0
 10  2  1  1
 10 11  1  0
 10 12  1  0
 11  5  1  6
 12  3  1  1
 12 13  1  0
 13 14  1  6
 15 17  2  0
 17 18  1  0
M  END
>  <DRUGBANK_ID>  (1) 
DB00640

>  <SECONDARY_ACCESSION_NUMBERS>  (1) 
APRD00132; DB06639

>  <COMMON_NAME>  (1) 
Adenosine

>  <CAS_NUMBER>  (1) 
58-61-7

>  <UNII>  (1) 
K72T3FS567

>  <SYNONYMS>  (1) 
(2R,3R,4S,5R)-2-(6-aminopurin-9-yl)-5-(hydroxymethyl)oxolane-3,4-diol; 6-Amino-9-beta-D-ribofuranosyl-9H-purine; 9-beta-D-Ribofuranosidoadenine; 9-beta-D-Ribofuranosyl-9H-purin-6-amine; 9-β-D-ribofuranosyl-9H-purin-6-amine; Ade-Rib; Adenin riboside; Adenine Deoxyribonucleoside; Adenogesic; Adenosin; Adenosina; Adénosine; Adenosine; Adenosinum; Ado; beta-D-Adenosine

$$$$
