
     RDKit          3D

 30 33  0  0  1  0  0  0  0  0999 V2000
    2.8121   -0.0480   -0.1842 F   0  0  0  0  0  0  0  0  0  0  0  0
    1.5253   -0.0921    0.1554 C   0  0  0  0  0  0  0  0  0  0  0  0
    0.8620    1.1414    0.3245 C   0  0  0  0  0  0  0  0  0  0  0  0
   -0.4244    1.1260    0.7805 C   0  0  0  0  0  0  0  0  0  0  0  0
   -1.0432   -0.0762    0.8450 C   0  0  0  0  0  0  0  0  0  0  0  0
   -0.4739   -1.0655    0.1190 C   0  0  0  0  0  0  0  0  0  0  0  0
    0.8193   -1.2932    0.1800 C   0  0  0  0  0  0  0  0  0  0  0  0
    1.1065   -2.6205   -0.2628 N   0  0  0  0  0  0  0  0  0  0  0  0
   -0.0361   -4.0144    0.0155 S   0  0  0  0  0  0  0  0  0  0  0  0
    0.2279   -4.8169   -1.1505 O   0  0  0  0  0  0  0  0  0  0  0  0
    0.2761   -4.5202    1.3525 O   0  0  0  0  0  0  0  0  0  0  0  0
   -1.9233   -3.7627   -0.0172 C   0  0  0  0  0  0  0  0  0  0  0  0
   -2.7597   -4.8487   -0.1144 C   0  0  0  0  0  0  0  0  0  0  0  0
   -2.2920   -6.1019   -0.0460 F   0  0  0  0  0  0  0  0  0  0  0  0
   -4.1648   -4.6327   -0.1490 C   0  0  0  0  0  0  0  0  0  0  0  0
   -4.7597   -3.3206   -0.2246 C   0  0  0  0  0  0  0  0  0  0  0  0
   -6.4854   -3.2554   -0.1965 Cl  0  0  0  0  0  0  0  0  0  0  0  0
   -3.9641   -2.1778   -0.1844 C   0  0  0  0  0  0  0  0  0  0  0  0
   -2.6420   -2.5443    0.1493 C   0  0  0  0  0  0  0  0  0  0  0  0
   -4.4692   -0.6619   -0.1139 C   0  0  0  0  0  0  0  0  0  0  0  0
   -5.6438   -0.4351    0.1759 O   0  0  0  0  0  0  0  0  0  0  0  0
   -3.6045    0.4842   -0.2900 N   0  0  0  0  0  0  0  0  0  0  0  0
   -2.7253    0.6628   -1.4934 C   0  0  0  0  0  0  0  0  0  0  0  0
   -2.0541    2.0496   -1.7429 C   0  0  0  0  0  0  0  0  0  0  0  0
   -2.4794    3.1710   -0.9362 N   0  0  0  0  0  0  0  0  0  0  0  0
   -1.5844    4.3150   -0.8310 C   0  0  0  0  0  0  0  0  0  0  0  0
   -2.1490    5.0980    0.3433 C   0  0  0  0  0  0  0  0  0  0  0  0
   -2.7456    4.0249    1.2517 C   0  0  0  0  0  0  0  0  0  0  0  0
   -3.3291    3.0046    0.2436 C   0  0  2  0  0  0  0  0  0  0  0  0
   -3.5828    1.5824    0.7855 C   0  0  0  0  0  0  0  0  0  0  0  0
  1  2  1  0
  2  3  2  0
  2  7  1  0
  3  4  1  0
  4  5  2  0
  5  6  1  0
  6  7  2  0
  7  8  1  0
  8  9  1  0
  9 10  2  0
  9 11  2  0
  9 12  1  0
 12 13  2  0
 12 19  1  0
 13 14  1  0
 13 15  1  0
 15 16  2  0
 16 17  1  0
 16 18  1  0
 18 19  2  0
 18 20  1  0
 20 21  2  0
 20 22  1  0
 22 23  1  0
 22 30  1  0
 23 24  1  0
 24 25  1  0
 25 26  1  0
 26 27  1  0
 27 28  1  0
 29 28  1  1
 29 25  1  0
 29 30  1  0
M  END
>  <DRUGBANK_ID>  (1) 
DB15055

>  <COMMON_NAME>  (1) 
ABT-639

>  <CAS_NUMBER>  (1) 
1235560-28-7

>  <UNII>  (1) 
0G7D0CQ88I

$$$$
