
     RDKit          3D

 15 16  0  0  0  0  0  0  0  0999 V2000
    1.4479   -0.0315   -0.0023 C   0  0  0  0  0  0  0  0  0  0  0  0
    2.8248   -0.0524    0.0121 N   0  0  0  0  0  0  0  0  0  0  0  0
    0.7740    1.1862    0.0422 C   0  0  0  0  0  0  0  0  0  0  0  0
    0.7545   -1.1943   -0.0635 N   0  0  0  0  0  0  0  0  0  0  0  0
    3.5899   -0.7113   -1.0394 C   0  0  0  0  0  0  0  0  0  0  0  0
    3.6101    0.5623    1.0774 C   0  0  0  0  0  0  0  0  0  0  0  0
   -0.6143    1.2259    0.0146 C   0  0  0  0  0  0  0  0  0  0  0  0
   -0.6118   -1.1858   -0.0403 C   0  0  0  0  0  0  0  0  0  0  0  0
    4.4850   -1.7961   -0.4400 C   0  0  0  0  0  0  0  0  0  0  0  0
    4.4931   -0.5070    1.7347 C   0  0  0  0  0  0  0  0  0  0  0  0
   -1.3299    0.0234   -0.0089 N   0  0  0  0  0  0  0  0  0  0  0  0
   -1.3110    2.4387    0.1108 N   0  0  0  0  0  0  0  0  0  0  0  0
   -1.3191   -2.3797   -0.0531 N   0  0  0  0  0  0  0  0  0  0  0  0
    5.3442   -1.2581    0.7075 C   0  0  0  0  0  0  0  0  0  0  0  0
   -2.6263    0.0355    0.0025 O   0  0  0  0  0  0  0  0  0  0  0  0
  1  2  1  0
  1  3  2  0
  1  4  1  0
  2  5  1  0
  2  6  1  0
  3  7  1  0
  4  8  2  0
  5  9  1  0
  6 10  1  0
  7 11  2  0
  7 12  1  0
  8 13  1  0
  8 11  1  0
  9 14  1  0
 10 14  1  0
 11 15  1  0
M  CHG  2  11   1  15  -1
M  END
>  <DRUGBANK_ID>  (1) 
DB00350

>  <SECONDARY_ACCESSION_NUMBERS>  (1) 
APRD00086; DB08225

>  <COMMON_NAME>  (1) 
Minoxidil

>  <CAS_NUMBER>  (1) 
38304-91-5

>  <UNII>  (1) 
5965120SH1

>  <SYNONYMS>  (1) 
2,4-Diamino-6-piperidinopyrimidine 3-oxide; 6-Piperidin-1-ylpyrimidine-2,4-diamine 3-oxide; Minossidile; Minoxidil; Minoxidilum

$$$$
