
     RDKit          3D

  5  4  0  0  0  0  0  0  0  0999 V2000
    1.3733   -0.2349   -0.0762 C   0  0  0  0  0  0  0  0  0  0  0  0
    0.4172   -1.1633   -0.1368 C   0  0  0  0  0  0  0  0  0  0  0  0
   -0.9507   -1.0700   -0.1307 O   0  0  0  0  0  0  0  0  0  0  0  0
   -1.7156    0.0655   -0.0566 C   0  0  0  0  0  0  0  0  0  0  0  0
   -1.3880    1.3560    0.0276 C   0  0  0  0  0  0  0  0  0  0  0  0
  1  2  2  0
  2  3  1  0
  3  4  1  0
  4  5  2  0
M  END
>  <DRUGBANK_ID>  (1) 
DB13690

>  <COMMON_NAME>  (1) 
Vinyl ether

>  <CAS_NUMBER>  (1) 
109-93-3

>  <UNII>  (1) 
2H2T044E11

$$$$
