
     RDKit          3D

 22 25  0  0  0  0  0  0  0  0999 V2000
    2.1111   12.0736   -6.5515 C   0  0  0  0  0  0  0  0  0  0  0  0
    1.4284    7.6782   -4.3727 C   0  0  1  0  0  0  0  0  0  0  0  0
    0.7792   11.9041   -3.3276 C   0  0  0  0  0  0  0  0  0  0  0  0
    1.1174   11.7539   -7.5262 C   0  0  0  0  0  0  0  0  0  0  0  0
   -0.3518   10.9580   -3.2572 C   0  0  0  0  0  0  0  0  0  0  0  0
   -1.5563    8.7696   -1.6146 C   0  0  0  0  0  0  0  0  0  0  0  0
   -2.8119    6.9962   -3.7355 C   0  0  0  0  0  0  0  0  0  0  0  0
    1.0907    9.2317   -4.5189 C   0  0  1  0  0  0  0  0  0  0  0  0
    0.2407    9.5271   -3.2651 C   0  0  2  0  0  0  0  0  0  0  0  0
    1.3815   11.8436   -4.7292 C   0  0  1  0  0  0  0  0  0  0  0  0
    2.9369   12.7173   -4.5110 C   0  0  0  0  0  0  0  0  0  0  0  0
    2.1043   10.6469   -5.2509 C   0  0  2  0  0  0  0  0  0  0  0  0
   -0.9918    8.6192   -3.0776 C   0  0  1  0  0  0  0  0  0  0  0  0
   -2.8791    8.0635   -1.5074 C   0  0  0  0  0  0  0  0  0  0  0  0
   -3.3584    8.2528   -2.9230 C   0  0  0  0  0  0  0  0  0  0  0  0
   -3.7561    9.2632   -3.4315 O   0  0  0  0  0  0  0  0  0  0  0  0
   -1.4524    7.3507   -3.7734 C   0  0  0  0  0  0  0  0  0  0  0  0
   -0.1245    6.7379   -4.4841 C   0  0  0  0  0  0  0  0  0  0  0  0
    0.2561   11.6984   -6.2631 C   0  0  1  0  0  0  0  0  0  0  0  0
   -0.8301   12.5929   -6.2826 O   0  0  0  0  0  0  0  0  0  0  0  0
    2.7460    7.5789   -5.1719 C   0  0  0  0  0  0  0  0  0  0  0  0
   -0.3128   10.3168   -6.4479 C   0  0  0  0  0  0  0  0  0  0  0  0
  2 18  1  0
  2 21  1  6
  3  5  1  0
  4  1  1  0
  6 14  1  0
  7 15  1  0
  8  9  1  0
  8  2  1  1
  9 13  1  0
  9  5  1  6
 10 19  1  0
 10  3  1  0
 10 11  1  6
 12  8  1  0
 12 10  1  0
 12  1  1  6
 13 17  1  0
 13  6  1  1
 14 15  1  0
 15 16  2  0
 17  7  2  0
 18 17  1  0
 19  4  1  0
 19 20  1  0
 19 22  1  1
M  END
>  <DRUGBANK_ID>  (1) 
DB11429

>  <COMMON_NAME>  (1) 
Mibolerone

>  <CAS_NUMBER>  (1) 
3704-09-4

>  <UNII>  (1) 
9OGY4BOR8D

>  <SYNONYMS>  (1) 
(7α,17β)-17-hydroxy-7,17-dimethylestr-4-en-3-one; 17-beta-Hydroxy-7-alpha,17-dimethylestr-4-en-3-one; 7α-17α-dimethyl-19-nortestosterone; Mibolerona; Mibolerone; Miboleronum

$$$$
