B77
     RDKit          3D

 17 18  0  0  0  0  0  0  0  0999 V2000
    2.4859   -0.0609   -0.0835 C   0  0  0  0  0  0  0  0  0  0  0  0
    0.9894   -0.0613   -0.2038 C   0  0  0  0  0  0  0  0  0  0  0  0
    0.3154    1.1459   -0.4109 C   0  0  0  0  0  0  0  0  0  0  0  0
   -1.0836    1.2308   -0.3045 C   0  0  0  0  0  0  0  0  0  0  0  0
   -1.8364    0.0549   -0.1589 C   0  0  0  0  0  0  0  0  0  0  0  0
   -1.1583   -1.1713   -0.0665 C   0  0  0  0  0  0  0  0  0  0  0  0
    0.2418   -1.2294   -0.0635 C   0  0  0  0  0  0  0  0  0  0  0  0
   -3.2010   -0.0551   -0.0369 O   0  0  0  0  0  0  0  0  0  0  0  0
   -3.9724    1.1431   -0.0615 C   0  0  0  0  0  0  0  0  0  0  0  0
   -1.7331    2.4295   -0.1673 O   0  0  0  0  0  0  0  0  0  0  0  0
   -1.0063    3.6347    0.0924 C   0  0  0  0  0  0  0  0  0  0  0  0
   -0.2678    3.7322    1.4248 C   0  0  0  0  0  0  0  0  0  0  0  0
    0.1387    4.9628    1.8122 N   0  0  0  0  0  0  0  0  0  0  0  0
    0.9082    5.0425    2.9286 C   0  0  0  0  0  0  0  0  0  0  0  0
    1.3755    3.9437    3.6335 C   0  0  0  0  0  0  0  0  0  0  0  0
    0.9772    2.6949    3.2223 C   0  0  0  0  0  0  0  0  0  0  0  0
    0.0848    2.6000    2.1658 C   0  0  0  0  0  0  0  0  0  0  0  0
  1  2  1  0
  2  3  2  0
  2  7  1  0
  3  4  1  0
  4  5  2  0
  4 10  1  0
  5  6  1  0
  5  8  1  0
  6  7  2  0
  8  9  1  0
 10 11  1  0
 11 12  1  0
 12 13  2  0
 12 17  1  0
 13 14  1  0
 14 15  2  0
 15 16  1  0
 16 17  2  0
M  END
>  <DRUGBANK_ID>  (1) 
DB07427

>  <COMMON_NAME>  (1) 
2-[(2-methoxy-5-methylphenoxy)methyl]pyridine

$$$$
