NDH
     RDKit          3D

 12 13  0  0  0  0  0  0  0  0999 V2000
    1.1678   -0.0217    0.0032 O   0  0  0  0  0  0  0  0  0  0  0  0
    0.4124   -1.2388    0.0731 C   0  0  1  0  0  0  0  0  0  0  0  0
    0.7795   -2.2519   -1.0533 C   0  0  1  0  0  0  0  0  0  0  0  0
    2.0865   -1.9836   -1.5742 O   0  0  0  0  0  0  0  0  0  0  0  0
    0.7009   -3.7031   -0.6644 C   0  0  0  0  0  0  0  0  0  0  0  0
    0.5206   -4.1293    0.5875 C   0  0  0  0  0  0  0  0  0  0  0  0
    0.4123   -3.1857    1.7042 C   0  0  0  0  0  0  0  0  0  0  0  0
    0.4389   -1.7972    1.4801 C   0  0  0  0  0  0  0  0  0  0  0  0
    0.3310   -0.9227    2.5741 C   0  0  0  0  0  0  0  0  0  0  0  0
    0.2530   -3.6726    3.0079 C   0  0  0  0  0  0  0  0  0  0  0  0
    0.1321   -2.7907    4.0835 C   0  0  0  0  0  0  0  0  0  0  0  0
    0.1795   -1.4167    3.8670 C   0  0  0  0  0  0  0  0  0  0  0  0
  2  1  1  1
  2  3  1  0
  2  8  1  0
  3  5  1  0
  3  4  1  1
  5  6  2  0
  6  7  1  0
  7  8  2  0
  7 10  1  0
  8  9  1  0
  9 12  2  0
 10 11  2  0
 11 12  1  0
M  END
>  <DRUGBANK_ID>  (1) 
DB08264

>  <COMMON_NAME>  (1) 
(1R, 2S)-cis 1,2 dihydroxy-1,2-dihydronaphthalene

>  <UNII>  (1) 
E8MH7SV5YM

$$$$
