
     RDKit          3D

 19 18  0  0  0  0  0  0  0  0999 V2000
    1.1228   -0.1753   -0.0287 C   0  0  0  0  0  0  0  0  0  0  0  0
   -0.5561   -1.0695   -6.0492 C   0  0  0  0  0  0  0  0  0  0  0  0
    0.3174    0.0681    0.9458 N   0  0  0  0  0  0  0  0  0  0  0  0
   -1.0345   -1.2561   -7.1522 O   0  0  0  0  0  0  0  0  0  0  0  0
    0.5979   -0.6598   -1.1654 N   0  0  0  0  0  0  0  0  0  0  0  0
   -1.2755   -0.9625   -4.7018 C   0  0  1  0  0  0  0  0  0  0  0  0
    2.4417   -0.0593    0.0368 N   0  0  0  0  0  0  0  0  0  0  0  0
   -2.7507   -0.7524   -4.7408 N   0  0  0  0  0  0  0  0  0  0  0  0
    1.1686   -0.7776   -2.5144 C   0  0  0  0  0  0  0  0  0  0  0  0
   -0.8106   -2.1716   -3.7645 C   0  0  0  0  0  0  0  0  0  0  0  0
    0.6744   -2.0725   -3.2146 C   0  0  0  0  0  0  0  0  0  0  0  0
    0.7802   -0.9030   -5.8769 O   0  0  0  0  0  0  0  0  0  0  0  0
   -3.5584    0.3265   -4.4343 C   0  0  0  0  0  0  0  0  0  0  0  0
   -4.7707    0.2029   -4.6460 O   0  0  0  0  0  0  0  0  0  0  0  0
   -3.0586    1.6720   -3.8656 C   0  0  0  0  0  0  0  0  0  0  0  0
   -0.4127    1.5067   -2.5619 O   0  0  0  0  0  0  0  0  0  0  0  0
   -2.7488    1.7211   -2.3804 C   0  0  0  0  0  0  0  0  0  0  0  0
   -1.4838    1.0433   -2.2640 C   0  0  0  0  0  0  0  0  0  0  0  0
   -1.7542   -0.2520   -2.0432 O   0  0  0  0  0  0  0  0  0  0  0  0
  1  3  2  0
  1  5  1  0
  1  7  1  0
  2  6  1  0
  2  4  2  0
  5  9  1  0
  6 10  1  1
  6  8  1  0
  8 13  1  0
  9 11  1  0
 10 11  1  0
 12  2  1  0
 14 13  2  0
 15 13  1  0
 17 15  1  0
 18 16  2  0
 18 17  1  0
 19 18  1  0
M  END
>  <DRUGBANK_ID>  (1) 
DB02501

>  <SECONDARY_ACCESSION_NUMBERS>  (1) 
EXPT02979

>  <COMMON_NAME>  (1) 
N(2)-succinyl-L-arginine

>  <SYNONYMS>  (1) 
N2-Succinyl-L-arginine; Succinyl-arginine; Succinylarginine

$$$$
