
     RDKit          3D

 20 21  0  0  0  0  0  0  0  0999 V2000
    1.0292    0.0639    0.0881 C   0  0  0  0  0  0  0  0  0  0  0  0
    0.5962    1.2875   -0.7142 C   0  0  0  0  0  0  0  0  0  0  0  0
    1.1068    1.3514   -2.1875 C   0  0  0  0  0  0  0  0  0  0  0  0
    0.5834    0.2116   -2.8918 O   0  0  0  0  0  0  0  0  0  0  0  0
    0.4781    2.6149   -2.8217 C   0  0  0  0  0  0  0  0  0  0  0  0
   -0.5113    2.5509   -3.8115 C   0  0  0  0  0  0  0  0  0  0  0  0
   -0.9611    3.7158   -4.4441 C   0  0  0  0  0  0  0  0  0  0  0  0
   -0.3840    4.9502   -4.1506 C   0  0  0  0  0  0  0  0  0  0  0  0
    0.5352    5.0453   -3.1208 C   0  0  0  0  0  0  0  0  0  0  0  0
    0.8609    3.9032   -2.4005 C   0  0  0  0  0  0  0  0  0  0  0  0
    2.6653    1.3062   -2.2488 C   0  0  0  0  0  0  0  0  0  0  0  0
    3.4663    2.4634   -2.2490 C   0  0  0  0  0  0  0  0  0  0  0  0
    4.8353    2.4737   -2.0352 C   0  0  0  0  0  0  0  0  0  0  0  0
    5.4933    1.2720   -1.8710 C   0  0  0  0  0  0  0  0  0  0  0  0
    4.7640    0.0816   -1.9048 C   0  0  0  0  0  0  0  0  0  0  0  0
    3.3738    0.0925   -2.1506 C   0  0  0  0  0  0  0  0  0  0  0  0
    5.4526   -1.2037   -1.5328 C   0  0  0  0  0  0  0  0  0  0  0  0
    4.8993   -1.7580   -0.4177 F   0  0  0  0  0  0  0  0  0  0  0  0
    5.3832   -2.1497   -2.5036 F   0  0  0  0  0  0  0  0  0  0  0  0
    6.7741   -1.0407   -1.2471 F   0  0  0  0  0  0  0  0  0  0  0  0
  1  2  1  0
  2  3  1  0
  3  4  1  0
  3  5  1  0
  3 11  1  0
  5  6  2  0
  5 10  1  0
  6  7  1  0
  7  8  2  0
  8  9  1  0
  9 10  2  0
 11 12  2  0
 11 16  1  0
 12 13  1  0
 13 14  2  0
 14 15  1  0
 15 16  2  0
 15 17  1  0
 17 18  1  0
 17 19  1  0
 17 20  1  0
M  END
>  <DRUGBANK_ID>  (1) 
DB18178

>  <COMMON_NAME>  (1) 
Flumecinol

>  <CAS_NUMBER>  (1) 
56430-99-0

>  <UNII>  (1) 
JB0YA8LDOW

>  <SYNONYMS>  (1) 
.alpha.-ethyl-3-(trifluoromethyl)benzhydrol; (+/-)-flumecinol; 1-(3-trifluoromethylphenyl)-1-phenylpropan-1-ol; 3-(trifluoromethyl)-.alpha.-ethylbenzhydrol; Benzenemethanol, .alpha.-ethyl-.alpha.-phenyl-3-(trifluoromethyl)-; Zyxorin

$$$$
