
     RDKit          3D

 16 16  0  0  1  0  0  0  0  0999 V2000
    1.1270   -0.0391    0.0307 F   0  0  0  0  0  0  0  0  0  0  0  0
    3.1844   -0.8606    0.7625 F   0  0  0  0  0  0  0  0  0  0  0  0
    4.5451    3.8863   -3.5328 O   0  0  0  0  0  0  0  0  0  0  0  0
    5.6210    5.5431    0.4326 O   0  0  0  0  0  0  0  0  0  0  0  0
    3.2478    3.9913   -1.5887 N   0  0  0  0  0  0  0  0  0  0  0  0
    3.7845    4.6559    1.3476 N   0  0  0  0  0  0  0  0  0  0  0  0
    2.3215    1.8232   -1.6603 C   0  0  1  0  0  0  0  0  0  0  0  0
    2.2233    3.1747   -0.9890 C   0  0  0  0  0  0  0  0  0  0  0  0
    2.9019    2.1731   -3.0261 C   0  0  0  0  0  0  0  0  0  0  0  0
    3.6999    5.2979   -1.0671 C   0  0  1  0  0  0  0  0  0  0  0  0
    3.7030    3.4287   -2.7730 C   0  0  0  0  0  0  0  0  0  0  0  0
    2.5851    6.3685   -1.0263 C   0  0  0  0  0  0  0  0  0  0  0  0
    3.1027    0.8566   -0.8092 C   0  0  0  0  0  0  0  0  0  0  0  0
    4.4625    5.1650    0.2756 C   0  0  0  0  0  0  0  0  0  0  0  0
    1.4359    6.1024   -0.0616 C   0  0  0  0  0  0  0  0  0  0  0  0
    2.4766   -0.0230   -0.0189 C   0  0  0  0  0  0  0  0  0  0  0  0
  1 16  1  0
  2 16  1  0
  3 11  2  0
  4 14  2  0
  5  8  1  0
  5 10  1  0
  5 11  1  0
  6 14  1  0
  7  8  1  0
  7  9  1  0
  7 13  1  1
  9 11  1  0
 10 12  1  1
 10 14  1  0
 12 15  1  0
 13 16  2  3
M  END
>  <DRUGBANK_ID>  (1) 
DB05885

>  <SECONDARY_ACCESSION_NUMBERS>  (1) 
DB12175

>  <COMMON_NAME>  (1) 
Seletracetam

>  <CAS_NUMBER>  (1) 
357336-74-4

>  <UNII>  (1) 
RFR2CH3QZK

>  <SYNONYMS>  (1) 
(2S)-2-((4S)-4-(2,2-Difluoroethenyl)-2-oxopyrrolidin-1-yl)butanamide; Seletracetam

$$$$
