1602
     RDKit          3D

 32 34  0  0  1  0  0  0  0  0999 V2000
   -2.2055   -6.2142    4.3677 S   0  0  0  0  0  0  0  0  0  0  0  0
   -1.9829   -1.9144    4.2856 O   0  0  0  0  0  0  0  0  0  0  0  0
   -4.0624   -2.7578    7.9432 O   0  0  0  0  0  0  0  0  0  0  0  0
   -5.1297   -4.5994    7.4640 O   0  0  0  0  0  0  0  0  0  0  0  0
   -0.0188   -4.2203    0.4061 O   0  0  0  0  0  0  0  0  0  0  0  0
   -1.7613   -2.1717    7.9507 O   0  0  0  0  0  0  0  0  0  0  0  0
   -2.3346   -2.6691   10.0924 O   0  0  0  0  0  0  0  0  0  0  0  0
   -0.2306   -3.1277    9.2990 O   0  0  0  0  0  0  0  0  0  0  0  0
   -3.3482   -3.8684    4.8025 N   0  0  0  0  0  0  0  0  0  0  0  0
   -1.2645   -4.0174    2.2175 N   0  0  0  0  0  0  0  0  0  0  0  0
   -2.1170   -3.5068   -1.3670 N   0  0  0  0  0  0  0  0  0  0  0  0
   -3.2067   -4.8955    3.7333 C   0  0  1  0  0  0  0  0  0  0  0  0
   -2.8904   -5.8710    6.0428 C   0  0  0  0  0  0  0  0  0  0  0  0
   -3.0565   -4.3155    6.1710 C   0  0  2  0  0  0  0  0  0  0  0  0
   -2.4957   -3.8667    2.9546 C   0  0  1  0  0  0  0  0  0  0  0  0
   -2.5310   -3.0009    4.1171 C   0  0  0  0  0  0  0  0  0  0  0  0
   -1.8339   -6.4170    6.9776 C   0  0  0  0  0  0  0  0  0  0  0  0
   -4.1981   -6.6722    6.0877 C   0  0  0  0  0  0  0  0  0  0  0  0
   -4.1363   -3.9101    7.2388 C   0  0  0  0  0  0  0  0  0  0  0  0
   -1.1649   -4.1209    0.8587 C   0  0  0  0  0  0  0  0  0  0  0  0
   -2.4486   -4.1509   -0.0861 C   0  0  1  0  0  0  0  0  0  0  0  0
   -3.0994   -1.7031    7.8094 C   0  0  1  0  0  0  0  0  0  0  0  0
   -3.7416   -3.4716    0.3768 C   0  0  0  0  0  0  0  0  0  0  0  0
   -3.3145   -1.0539    6.4696 C   0  0  0  0  0  0  0  0  0  0  0  0
   -3.7061   -2.1635    0.9365 C   0  0  0  0  0  0  0  0  0  0  0  0
   -4.9552   -4.1807    0.3877 C   0  0  0  0  0  0  0  0  0  0  0  0
   -4.7799   -1.7168    1.7152 C   0  0  0  0  0  0  0  0  0  0  0  0
   -6.0868   -3.6086    0.9745 C   0  0  0  0  0  0  0  0  0  0  0  0
   -1.3561   -2.6833    9.1468 C   0  0  0  0  0  0  0  0  0  0  0  0
   -5.9772   -2.4263    1.7097 C   0  0  0  0  0  0  0  0  0  0  0  0
   -1.9703   -3.1590   11.3964 C   0  0  0  0  0  0  0  0  0  0  0  0
   -1.6600   -4.6478   11.3997 C   0  0  0  0  0  0  0  0  0  0  0  0
 12  1  1  1
  1 13  1  0
  2 16  2  0
  3 19  1  0
  3 22  1  0
  4 19  2  0
  5 20  2  0
  6 22  1  0
  6 29  1  0
  7 29  1  0
  7 31  1  0
  8 29  2  0
  9 12  1  0
  9 14  1  0
  9 16  1  0
 10 20  1  0
 12 15  1  0
 13 14  1  0
 13 17  1  0
 13 18  1  0
 14 19  1  1
 15 16  1  0
 15 10  1  1
 21 23  1  0
 21 20  1  0
 21 11  1  6
 22 24  1  6
 23 25  2  0
 23 26  1  0
 25 27  1  0
 26 28  2  0
 27 30  2  0
 28 30  1  0
 31 32  1  0
M  END
>  <DRUGBANK_ID>  (1) 
DB01602

>  <COMMON_NAME>  (1) 
Bacampicillin

>  <CAS_NUMBER>  (1) 
50972-17-3

>  <UNII>  (1) 
8GM2J22278

>  <SYNONYMS>  (1) 
1-[(ethoxycarbonyl)oxy]ethyl (2S,5R,6R)-6-{[(2R)-2-amino-2-phenylacetyl]amino}-3,3-dimethyl-7-oxo-4-thia-1-azabicyclo[3.2.0]heptane-2-carboxylate; 1'-ethoxycarbonyloxyethyl-(6-D-Î±-aminophenylacetamido)penicillanate; Bacampicilina; Bacampicillin; Bacampicilline; Bacampicillinum

$$$$
