
     RDKit          3D

 13 14  0  0  0  0  0  0  0  0999 V2000
    2.1506    0.7200   -0.0251 C   0  0  0  0  0  0  0  0  0  0  0  0
    2.1906   -0.6717   -0.0120 C   0  0  0  0  0  0  0  0  0  0  0  0
    0.9331    1.4103    0.0017 C   0  0  0  0  0  0  0  0  0  0  0  0
   -0.2427    0.6493    0.0118 C   0  0  0  0  0  0  0  0  0  0  0  0
    1.0086   -1.4142    0.0247 C   0  0  0  0  0  0  0  0  0  0  0  0
   -0.2312   -0.7458    0.0221 C   0  0  0  0  0  0  0  0  0  0  0  0
   -1.5624    1.0407    0.0024 N   0  0  0  0  0  0  0  0  0  0  0  0
   -1.5884   -1.1894    0.0147 C   0  0  0  0  0  0  0  0  0  0  0  0
   -2.3785   -0.0575   -0.0407 C   0  0  0  0  0  0  0  0  0  0  0  0
   -2.0577   -2.6080    0.0303 C   0  0  0  0  0  0  0  0  0  0  0  0
   -2.9562   -2.8948    1.2174 C   0  0  0  0  0  0  0  0  0  0  0  0
   -4.1204   -3.2728    1.1034 O   0  0  0  0  0  0  0  0  0  0  0  0
   -2.3891   -2.7602    2.4533 N   0  0  0  0  0  0  0  0  0  0  0  0
  2  1  2  0
  3  1  1  0
  4  3  2  0
  5  2  1  0
  6  4  1  0
  6  5  2  0
  7  4  1  0
  8  6  1  0
  9  7  1  0
  9  8  2  0
 10  8  1  0
 11 10  1  0
 12 11  2  0
 13 11  1  0
M  END
>  <DRUGBANK_ID>  (1) 
DB08652

>  <COMMON_NAME>  (1) 
Indoleacetamide

>  <CAS_NUMBER>  (1) 
879-37-8

>  <UNII>  (1) 
O9SEW65XW3

>  <SYNONYMS>  (1) 
1H-indole-3-acetamide; 3-indoleacetamide; Indole-3-acetamide

$$$$
