
     RDKit          3D

 11 10  0  0  0  0  0  0  0  0999 V2000
    0.9894   -0.1067   -0.0977 C   0  0  0  0  0  0  0  0  0  0  0  0
    0.4689    0.5221   -1.0085 O   0  0  0  0  0  0  0  0  0  0  0  0
    0.2521   -0.8669    1.0106 C   0  0  1  0  0  0  0  0  0  0  0  0
    2.3313   -0.1226    0.0281 O   0  0  0  0  0  0  0  0  0  0  0  0
    0.6202   -2.2961    1.0176 N   0  0  0  0  0  0  0  0  0  0  0  0
   -1.6688    1.5233    2.1867 S   0  0  0  0  0  0  0  0  0  0  0  0
    0.5154   -0.2303    2.3811 C   0  0  0  0  0  0  0  0  0  0  0  0
    0.0876    1.2355    2.4523 C   0  0  0  0  0  0  0  0  0  0  0  0
   -2.4850    0.5898    3.4613 C   0  0  0  0  0  0  0  0  0  0  0  0
   -1.9206    2.9283    2.4481 O   0  0  0  0  0  0  0  0  0  0  0  0
   -2.0677    0.9475    0.9209 O   0  0  0  0  0  0  0  0  0  0  0  0
  2  1  2  0
  3  1  1  0
  3  5  1  1
  4  1  1  0
  6 10  2  0
  6 11  2  0
  7  3  1  0
  8  6  1  0
  8  7  1  0
  9  6  1  0
M  END
>  <DRUGBANK_ID>  (1) 
DB03790

>  <SECONDARY_ACCESSION_NUMBERS>  (1) 
EXPT02437

>  <COMMON_NAME>  (1) 
L-methionine sulfone

>  <CAS_NUMBER>  (1) 
7314-32-1

>  <UNII>  (1) 
V3Z9QH81BX

>  <SYNONYMS>  (1) 
(S)-Amino-4-(methylsulphonyl)butyric acid; L-2-amino-4-(methylsulfonyl)butanoic acid; Methionine sulfone; S-dioxymethionine

$$$$
