
     RDKit          3D

  8  7  0  0  0  0  0  0  0  0999 V2000
    1.0397    0.0216    0.0475 N   0  0  0  0  0  0  0  0  0  0  0  0
    0.5152   -0.4270   -1.2733 C   0  0  0  0  0  0  0  0  0  0  0  0
    1.0826   -1.8086   -1.6174 C   0  0  0  0  0  0  0  0  0  0  0  0
    0.2047   -2.7991   -1.8831 O   0  0  0  0  0  0  0  0  0  0  0  0
    2.2940   -2.0159   -1.6537 O   0  0  0  0  0  0  0  0  0  0  0  0
   -1.0023   -0.4076   -1.2470 C   0  0  0  0  0  0  0  0  0  0  0  0
   -1.6044    0.4352   -2.1108 O   0  0  0  0  0  0  0  0  0  0  0  0
   -1.6539   -1.1933   -0.5627 O   0  0  0  0  0  0  0  0  0  0  0  0
  1  2  1  0
  2  3  1  0
  2  6  1  0
  3  4  1  0
  3  5  2  0
  6  7  1  0
  6  8  2  0
M  END
>  <DRUGBANK_ID>  (1) 
DB02289

>  <SECONDARY_ACCESSION_NUMBERS>  (1) 
EXPT01430

>  <COMMON_NAME>  (1) 
2-Aminopropanedioic Acid

>  <CAS_NUMBER>  (1) 
1068-84-4

$$$$
