45U
     RDKit          3D

 27 29  0  0  0  0  0  0  0  0999 V2000
    1.0810   -0.1703    0.0284 O   0  0  0  0  0  0  0  0  0  0  0  0
    2.3015   -0.0208    0.0463 C   0  0  0  0  0  0  0  0  0  0  0  0
    3.1279   -1.2924    0.0493 C   0  0  0  0  0  0  0  0  0  0  0  0
    3.8502   -1.5128   -1.1439 O   0  0  0  0  0  0  0  0  0  0  0  0
    2.9765   -1.5295   -2.2709 C   0  0  0  0  0  0  0  0  0  0  0  0
    3.2647   -2.7316   -3.1427 C   0  0  0  0  0  0  0  0  0  0  0  0
    2.7969   -2.3102   -4.5331 C   0  0  0  0  0  0  0  0  0  0  0  0
    2.7106   -0.7887   -4.5308 C   0  0  0  0  0  0  0  0  0  0  0  0
    3.2768   -0.3677   -3.2006 C   0  0  0  0  0  0  0  0  0  0  0  0
    2.9297    1.2061    0.0339 N   0  0  0  0  0  0  0  0  0  0  0  0
    2.4140    2.3592    0.7615 C   0  0  1  0  0  0  0  0  0  0  0  0
    2.8490    3.5219   -0.1397 C   0  0  0  0  0  0  0  0  0  0  0  0
    4.2128    3.0944   -0.6637 C   0  0  0  0  0  0  0  0  0  0  0  0
    4.1554    1.5703   -0.6761 C   0  0  0  0  0  0  0  0  0  0  0  0
    0.9345    2.4711    1.2056 C   0  0  0  0  0  0  0  0  0  0  0  0
   -0.0150    1.7757    0.8453 O   0  0  0  0  0  0  0  0  0  0  0  0
    0.5956    3.4148    2.1138 N   0  0  0  0  0  0  0  0  0  0  0  0
    1.3415    4.5581    2.5410 C   0  0  0  0  0  0  0  0  0  0  0  0
    0.8167    5.8389    1.9499 C   0  0  0  0  0  0  0  0  0  0  0  0
    1.5376    7.0096    2.1938 C   0  0  0  0  0  0  0  0  0  0  0  0
    1.0291    8.2503    1.8098 C   0  0  0  0  0  0  0  0  0  0  0  0
   -0.1660    8.3400    1.0851 C   0  0  0  0  0  0  0  0  0  0  0  0
   -0.6532    9.6527    0.5512 C   0  0  0  0  0  0  0  0  0  0  0  0
   -1.8037    9.7448   -0.1641 N   0  0  0  0  0  0  0  0  0  0  0  0
   -0.0189   10.7729    0.7115 N   0  0  0  0  0  0  0  0  0  0  0  0
   -0.8802    7.1660    0.8215 C   0  0  0  0  0  0  0  0  0  0  0  0
   -0.3939    5.9290    1.2476 C   0  0  0  0  0  0  0  0  0  0  0  0
  2  1  2  0
  2  3  1  0
  3  4  1  0
  4  5  1  0
  5  6  1  0
  6  7  1  0
  8  7  1  0
  9  5  1  0
  9  8  1  0
 10  2  1  0
 11 10  1  0
 11 15  1  6
 12 13  1  0
 12 11  1  0
 13 14  1  0
 14 10  1  0
 15 16  2  0
 17 15  1  0
 18 17  1  0
 18 19  1  0
 19 27  1  0
 20 19  2  0
 20 21  1  0
 21 22  2  0
 22 26  1  0
 22 23  1  0
 23 25  2  0
 24 23  1  0
 27 26  2  0
M  END
>  <DRUGBANK_ID>  (1) 
DB07088

>  <COMMON_NAME>  (1) 
(S)-N-(4-carbamimidoylbenzyl)-1-(2-(cyclopentyloxy)ethanoyl)pyrrolidine-2-carboxamide

$$$$
