
     RDKit          3D

  3  0  0  0  0  0  0  0  0  0999 V2000
    0.9128   -0.0447   -0.0200 Cl  0  0  0  0  0  0  0  0  0  0  0  0
    0.9744   -0.0486    0.0836 Cl  0  0  0  0  0  0  0  0  0  0  0  0
    0.9432   -0.0770    0.0292 Sn  0  0  0  0  0 15  0  0  0  0  0  0
M  CHG  3   1  -1   2  -1   3   2
M  END
>  <DRUGBANK_ID>  (1) 
DB11056

>  <COMMON_NAME>  (1) 
Stannous chloride

>  <CAS_NUMBER>  (1) 
7772-99-8

>  <UNII>  (1) 
R30H55TN67

>  <SYNONYMS>  (1) 
Stannous chloride anhydrous; Stannous chloride,anhydrous; Tin dichloride

$$$$
