
     RDKit          3D

 28 29  0  0  0  0  0  0  0  0999 V2000
    0.8893   -0.1465   -0.2122 C   0  0  0  0  0  0  0  0  0  0  0  0
    0.6247   -0.3593    1.2864 C   0  0  0  0  0  0  0  0  0  0  0  0
    1.0170    0.8166    2.2648 C   0  0  0  0  0  0  0  0  0  0  0  0
    0.3208    2.1538    1.7908 C   0  0  0  0  0  0  0  0  0  0  0  0
   -1.1299    2.0960    1.8759 O   0  0  0  0  0  0  0  0  0  0  0  0
   -1.8029    1.3736    0.9490 C   0  0  0  0  0  0  0  0  0  0  0  0
   -1.4157    0.8958   -0.0901 O   0  0  0  0  0  0  0  0  0  0  0  0
   -3.2284    1.3196    1.2002 C   0  0  0  0  0  0  0  0  0  0  0  0
   -3.8443    2.5504    1.0999 C   0  0  0  0  0  0  0  0  0  0  0  0
   -5.2125    2.6147    0.9232 C   0  0  0  0  0  0  0  0  0  0  0  0
   -5.9708    1.4276    0.8562 C   0  0  0  0  0  0  0  0  0  0  0  0
   -5.3186    0.1715    0.8577 C   0  0  0  0  0  0  0  0  0  0  0  0
   -3.9393    0.1207    1.0864 C   0  0  0  0  0  0  0  0  0  0  0  0
   -5.8957   -1.0543    0.5959 O   0  0  0  0  0  0  0  0  0  0  0  0
   -7.2568   -1.0517    0.1594 C   0  0  0  0  0  0  0  0  0  0  0  0
   -7.3372    1.3943    0.8018 O   0  0  0  0  0  0  0  0  0  0  0  0
   -8.0837    2.5906    0.8743 C   0  0  0  0  0  0  0  0  0  0  0  0
   -5.8501    3.8073    0.7461 O   0  0  0  0  0  0  0  0  0  0  0  0
   -5.0721    4.9889    0.7543 C   0  0  0  0  0  0  0  0  0  0  0  0
    0.4818    0.4648    3.7040 C   0  0  0  0  0  0  0  0  0  0  0  0
    0.4749   -0.8624    4.1647 C   0  0  0  0  0  0  0  0  0  0  0  0
    0.1730   -1.1704    5.4906 C   0  0  0  0  0  0  0  0  0  0  0  0
   -0.0931   -0.1550    6.4012 C   0  0  0  0  0  0  0  0  0  0  0  0
   -0.0891    1.1678    5.9806 C   0  0  0  0  0  0  0  0  0  0  0  0
    0.1294    1.4689    4.6365 C   0  0  0  0  0  0  0  0  0  0  0  0
    2.5270    0.9094    2.3335 N   0  0  0  0  0  0  0  0  0  0  0  0
    3.1951    1.2342    1.0748 C   0  0  0  0  0  0  0  0  0  0  0  0
    3.0223    1.8633    3.3266 C   0  0  0  0  0  0  0  0  0  0  0  0
  1  2  1  0
  2  3  1  0
  3  4  1  0
  3 20  1  0
  3 26  1  0
  4  5  1  0
  5  6  1  0
  6  7  2  0
  6  8  1  0
  8  9  2  0
  8 13  1  0
  9 10  1  0
 10 11  2  0
 10 18  1  0
 11 12  1  0
 11 16  1  0
 12 13  2  0
 12 14  1  0
 14 15  1  0
 16 17  1  0
 18 19  1  0
 20 21  2  0
 20 25  1  0
 21 22  1  0
 22 23  2  0
 23 24  1  0
 24 25  2  0
 26 27  1  0
 26 28  1  0
M  END
>  <DRUGBANK_ID>  (1) 
DB09089

>  <COMMON_NAME>  (1) 
Trimebutine

>  <CAS_NUMBER>  (1) 
39133-31-8

>  <UNII>  (1) 
QZ1OJ92E5R

>  <SYNONYMS>  (1) 
2-Dimethylamino-2-phenylbutyl 3,4,5-trimethoxybenzoat; Trim√©butine; Trimebutine; Trimebutino

$$$$
