
     RDKit          3D

 32 35  0  0  0  0  0  0  0  0999 V2000
    1.0317    0.0655    0.1422 N   0  0  0  0  0  0  0  0  0  0  0  0
    0.2422   -0.4920    1.1148 C   0  0  0  0  0  0  0  0  0  0  0  0
   -0.9660   -0.4049    1.0703 O   0  0  0  0  0  0  0  0  0  0  0  0
    0.9331   -1.1768    2.2227 C   0  0  0  0  0  0  0  0  0  0  0  0
    2.0359   -0.5877    2.7760 C   0  0  0  0  0  0  0  0  0  0  0  0
    2.5705   -1.1803    3.8931 C   0  0  0  0  0  0  0  0  0  0  0  0
    2.0670   -2.3614    4.4505 C   0  0  0  0  0  0  0  0  0  0  0  0
    1.0168   -2.9725    3.8814 N   0  0  0  0  0  0  0  0  0  0  0  0
    0.4577   -2.3672    2.7886 C   0  0  0  0  0  0  0  0  0  0  0  0
   -0.5956   -3.1307    2.1462 C   0  0  0  0  0  0  0  0  0  0  0  0
   -0.4064   -3.5266    0.8184 C   0  0  0  0  0  0  0  0  0  0  0  0
   -1.4245   -4.1433    0.1210 C   0  0  0  0  0  0  0  0  0  0  0  0
   -2.6287   -4.4478    0.7544 C   0  0  0  0  0  0  0  0  0  0  0  0
   -3.7170   -5.0028    0.1117 O   0  0  0  0  0  0  0  0  0  0  0  0
   -3.5935   -5.3243   -1.2219 C   0  0  0  0  0  0  0  0  0  0  0  0
   -2.6728   -6.2841   -1.6546 C   0  0  0  0  0  0  0  0  0  0  0  0
   -2.5672   -6.5901   -3.0092 C   0  0  0  0  0  0  0  0  0  0  0  0
   -3.4400   -6.0013   -3.9220 C   0  0  0  0  0  0  0  0  0  0  0  0
   -4.4077   -5.0963   -3.4809 C   0  0  0  0  0  0  0  0  0  0  0  0
   -4.4571   -4.7214   -2.1359 C   0  0  0  0  0  0  0  0  0  0  0  0
   -2.7987   -4.1248    2.1065 C   0  0  0  0  0  0  0  0  0  0  0  0
   -1.8037   -3.4203    2.7873 C   0  0  0  0  0  0  0  0  0  0  0  0
    2.6521   -2.9870    5.7141 C   0  0  0  0  0  0  0  0  0  0  0  0
    2.5524   -2.0355    6.9251 C   0  0  0  0  0  0  0  0  0  0  0  0
    3.5271   -0.8534    6.8442 C   0  0  0  0  0  0  0  0  0  0  0  0
    4.8922   -1.3175    6.5091 N   0  0  0  0  0  0  0  0  0  0  0  0
    4.9851   -2.1997    5.3547 C   0  0  0  0  0  0  0  0  0  0  0  0
    4.1019   -3.4138    5.5078 C   0  0  0  0  0  0  0  0  0  0  0  0
    5.9369   -0.9240    7.3216 C   0  0  0  0  0  0  0  0  0  0  0  0
    5.7573   -0.1691    8.2822 O   0  0  0  0  0  0  0  0  0  0  0  0
    7.3508   -1.3906    7.1065 C   0  0  0  0  0  0  0  0  0  0  0  0
    7.9699   -2.1918    6.2283 C   0  0  0  0  0  0  0  0  0  0  0  0
  1  2  1  0
  2  3  2  0
  2  4  1  0
  4  5  2  0
  4  9  1  0
  5  6  1  0
  6  7  2  0
  7  8  1  0
  7 23  1  0
  8  9  2  0
  9 10  1  0
 10 11  2  0
 10 22  1  0
 11 12  1  0
 12 13  2  0
 13 14  1  0
 13 21  1  0
 14 15  1  0
 15 16  2  0
 15 20  1  0
 16 17  1  0
 17 18  2  0
 18 19  1  0
 19 20  2  0
 21 22  2  0
 23 24  1  0
 23 28  1  0
 24 25  1  0
 25 26  1  0
 26 27  1  0
 26 29  1  0
 27 28  1  0
 29 30  2  0
 29 31  1  0
 31 32  2  0
M  END
>  <DRUGBANK_ID>  (1) 
DB16272

>  <COMMON_NAME>  (1) 
Orelabrutinib

>  <CAS_NUMBER>  (1) 
1655504-04-3

>  <UNII>  (1) 
WJA5UO9E10

>  <SYNONYMS>  (1) 
Orelabrutinib

$$$$
