
     RDKit          3D

 28 30  0  0  0  0  0  0  0  0999 V2000
   -4.1720    1.0232    3.6798 C   0  0  1  0  0  0  0  0  0  0  0  0
   -5.4305    1.4612    3.1610 O   0  0  0  0  0  0  0  0  0  0  0  0
   -2.7941    6.1100    2.1730 C   0  0  0  0  0  0  0  0  0  0  0  0
   -0.5835    5.7105    3.8153 C   0  0  0  0  0  0  0  0  0  0  0  0
   -2.1094    4.9302    2.0636 C   0  0  0  0  0  0  0  0  0  0  0  0
   -0.9730    4.7248    2.8664 C   0  0  0  0  0  0  0  0  0  0  0  0
   -0.1565    3.4614    2.6715 C   0  0  0  0  0  0  0  0  0  0  0  0
   -2.6666    3.9437    1.0853 C   0  0  0  0  0  0  0  0  0  0  0  0
   -1.2732    6.9175    3.9027 C   0  0  0  0  0  0  0  0  0  0  0  0
   -2.2785    7.1060    2.9748 C   0  0  0  0  0  0  0  0  0  0  0  0
   -0.9123    7.8363    4.8541 O   0  0  0  0  0  0  0  0  0  0  0  0
   -1.7169    9.0133    5.0518 C   0  0  0  0  0  0  0  0  0  0  0  0
   -1.9410    9.9235    3.8439 C   0  0  0  0  0  0  0  0  0  0  0  0
   -3.2194   10.0806    3.3877 O   0  0  0  0  0  0  0  0  0  0  0  0
   -4.7414    8.1678    4.1318 C   0  0  0  0  0  0  0  0  0  0  0  0
   -4.4684    9.6652    4.0092 C   0  0  0  0  0  0  0  0  0  0  0  0
   -1.6691    2.8561    0.7264 C   0  0  0  0  0  0  0  0  0  0  0  0
   -0.9598    2.3158    1.9716 C   0  0  2  0  0  0  0  0  0  0  0  0
   -1.8725    1.7871    2.9825 N   0  0  0  0  0  0  0  0  0  0  0  0
   -3.0817    1.0818    2.5583 C   0  0  0  0  0  0  0  0  0  0  0  0
   -3.4693    1.1500    6.0866 C   0  0  0  0  0  0  0  0  0  0  0  0
   -3.8499    1.8378    4.9287 C   0  0  0  0  0  0  0  0  0  0  0  0
   -3.7567    3.2477    4.9236 C   0  0  0  0  0  0  0  0  0  0  0  0
   -3.2311    3.9363    6.0186 C   0  0  0  0  0  0  0  0  0  0  0  0
   -2.8706    3.2347    7.1654 C   0  0  0  0  0  0  0  0  0  0  0  0
   -3.0025    1.8477    7.1979 C   0  0  0  0  0  0  0  0  0  0  0  0
   -1.0028   10.4099    3.2304 O   0  0  0  0  0  0  0  0  0  0  0  0
   -2.5598    0.9765    8.6127 Cl  0  0  0  0  0  0  0  0  0  0  0  0
  1 22  1  0
  1 20  1  0
  1  2  1  6
  3 10  2  0
  4  6  1  0
  5  3  1  0
  5  8  1  0
  5  6  2  0
  6  7  1  0
  7 18  1  0
  9 10  1  0
  9  4  2  0
  9 11  1  0
 12 11  1  0
 12 13  1  0
 13 27  2  0
 14 13  1  0
 14 16  1  0
 15 16  1  0
 17 18  1  0
 17  8  1  0
 18 19  1  1
 19 20  1  0
 21 22  2  0
 22 23  1  0
 23 24  2  0
 24 25  1  0
 25 26  2  0
 26 21  1  0
 26 28  1  0
M  END
>  <DRUGBANK_ID>  (1) 
DB05395

>  <COMMON_NAME>  (1) 
Amibegron

>  <CAS_NUMBER>  (1) 
121524-08-1

>  <UNII>  (1) 
PDQ3ME68U3

>  <SYNONYMS>  (1) 
Amibegron

$$$$
