462
     RDKit          3D

 29 31  0  0  0  0  0  0  0  0999 V2000
    1.2639   -0.5646   -0.1037 C   0  0  0  0  0  0  0  0  0  0  0  0
    0.5354   -0.5980    1.2433 C   0  0  0  0  0  0  0  0  0  0  0  0
    0.9914    0.4449    2.2823 C   0  0  0  0  0  0  0  0  0  0  0  0
    0.4747    1.7984    2.2220 O   0  0  0  0  0  0  0  0  0  0  0  0
    0.6374    2.5131    1.0715 C   0  0  0  0  0  0  0  0  0  0  0  0
    0.0468    2.1143   -0.1148 C   0  0  0  0  0  0  0  0  0  0  0  0
    0.4318    2.6817   -1.3422 C   0  0  0  0  0  0  0  0  0  0  0  0
    1.1589    3.8748   -1.3667 C   0  0  0  0  0  0  0  0  0  0  0  0
    1.4561    4.4542   -0.1294 C   0  0  0  0  0  0  0  0  0  0  0  0
    1.2778    3.7448    1.0760 C   0  0  0  0  0  0  0  0  0  0  0  0
    1.8106    4.4178   -2.5868 C   0  0  0  0  0  0  0  0  0  0  0  0
    1.1814    4.3962   -3.8171 C   0  0  0  0  0  0  0  0  0  0  0  0
    2.1153    5.1321   -5.0461 S   0  0  0  0  0  0  0  0  0  0  0  0
    3.4461    5.3909   -3.9987 C   0  0  0  0  0  0  0  0  0  0  0  0
    3.2289    4.8365   -2.7387 C   0  0  0  0  0  0  0  0  0  0  0  0
    4.3363    4.7157   -1.6794 C   0  0  0  0  0  0  0  0  0  0  0  0
    5.5526    3.8535   -2.0860 C   0  0  0  0  0  0  0  0  0  0  0  0
    6.6996    4.3037   -1.9678 O   0  0  0  0  0  0  0  0  0  0  0  0
    5.4118    2.5587   -2.5898 N   0  0  0  0  0  0  0  0  0  0  0  0
    4.3766    1.6601   -2.5973 C   0  0  0  0  0  0  0  0  0  0  0  0
    4.3890    0.5334   -3.1914 N   0  0  0  0  0  0  0  0  0  0  0  0
    3.2544    1.9094   -1.9247 N   0  0  0  0  0  0  0  0  0  0  0  0
    4.6510    6.0705   -4.5144 C   0  0  0  0  0  0  0  0  0  0  0  0
    5.8463    5.3464   -4.6534 C   0  0  0  0  0  0  0  0  0  0  0  0
    7.0546    5.9625   -4.9766 C   0  0  0  0  0  0  0  0  0  0  0  0
    7.0590    7.3011   -5.3310 C   0  0  0  0  0  0  0  0  0  0  0  0
    5.8661    8.0238   -5.3018 C   0  0  0  0  0  0  0  0  0  0  0  0
    4.6877    7.4381   -4.8188 C   0  0  0  0  0  0  0  0  0  0  0  0
    3.3382    8.4845   -4.5395 Cl  0  0  0  0  0  0  0  0  0  0  0  0
  1  2  1  0
  2  3  1  0
  3  4  1  0
  4  5  1  0
  5  6  2  0
  5 10  1  0
  6  7  1  0
  7  8  2  0
  8 11  1  0
  9  8  1  0
 10  9  2  0
 11 12  2  0
 12 13  1  0
 14 13  1  0
 15 11  1  0
 15 14  2  0
 16 17  1  0
 16 15  1  0
 17 18  2  0
 19 20  1  0
 19 17  1  0
 20 21  2  0
 22 20  1  0
 23 14  1  0
 23 24  2  0
 25 24  1  0
 26 25  2  0
 27 28  2  0
 27 26  1  0
 28 23  1  0
 29 28  1  0
M  END
>  <DRUGBANK_ID>  (1) 
DB07089

>  <COMMON_NAME>  (1) 
N-[amino(imino)methyl]-2-[2-(2-chlorophenyl)-4-(4-propoxyphenyl)-3-thienyl]acetamide

$$$$
