
     RDKit          3D

 27 29  0  0  1  0  0  0  0  0999 V2000
    0.5150    0.2474   -2.4313 C   0  0  0  0  0  0  0  0  0  0  0  0
    0.3901    0.7961   -1.0471 C   0  0  2  0  0  0  0  0  0  0  0  0
    1.1104   -0.0071   -0.0882 N   0  0  0  0  0  0  0  0  0  0  0  0
    2.4728   -0.1520    0.0433 C   0  0  0  0  0  0  0  0  0  0  0  0
    2.8666   -0.8661    0.9490 O   0  0  0  0  0  0  0  0  0  0  0  0
    3.4686    0.6414   -0.8457 C   0  0  0  0  0  0  0  0  0  0  0  0
    3.5745    0.2600   -2.2645 N   0  0  0  0  0  0  0  0  0  0  0  0
    3.2443    1.0657   -3.3500 C   0  0  0  0  0  0  0  0  0  0  0  0
    2.9145    0.3374   -4.4057 N   0  0  0  0  0  0  0  0  0  0  0  0
    3.1271   -0.9715   -4.0390 C   0  0  0  0  0  0  0  0  0  0  0  0
    3.6130   -1.0347   -2.7330 C   0  0  0  0  0  0  0  0  0  0  0  0
    3.9445   -2.2386   -2.1270 C   0  0  0  0  0  0  0  0  0  0  0  0
    4.4026   -2.2710   -0.8721 F   0  0  0  0  0  0  0  0  0  0  0  0
    3.8385   -3.3980   -2.8837 C   0  0  0  0  0  0  0  0  0  0  0  0
    4.2587   -4.5600   -2.3669 F   0  0  0  0  0  0  0  0  0  0  0  0
    3.3226   -3.3738   -4.1762 C   0  0  0  0  0  0  0  0  0  0  0  0
    2.9067   -2.1644   -4.7537 C   0  0  0  0  0  0  0  0  0  0  0  0
   -1.0739    0.8035   -0.8756 C   0  0  0  0  0  0  0  0  0  0  0  0
   -1.7215    2.0307   -0.8704 C   0  0  0  0  0  0  0  0  0  0  0  0
   -3.0922    2.0451   -0.9220 C   0  0  0  0  0  0  0  0  0  0  0  0
   -3.8211    0.8468   -0.8421 C   0  0  0  0  0  0  0  0  0  0  0  0
   -3.1406   -0.3772   -0.7898 C   0  0  0  0  0  0  0  0  0  0  0  0
   -1.7828   -0.3981   -0.9479 C   0  0  0  0  0  0  0  0  0  0  0  0
   -5.3379    0.8396   -0.8599 C   0  0  0  0  0  0  0  0  0  0  0  0
   -5.8196   -0.0227   -2.0419 C   0  0  0  0  0  0  0  0  0  0  0  0
   -5.8386    0.2527    0.4681 C   0  0  0  0  0  0  0  0  0  0  0  0
   -5.9071    2.2581   -1.0300 C   0  0  0  0  0  0  0  0  0  0  0  0
  2 18  1  0
  2  3  1  0
  2  1  1  6
  3  4  1  0
  4  5  2  0
  4  6  1  0
  6  7  1  0
  7  8  1  0
  7 11  1  0
  8  9  2  0
  9 10  1  0
 10 11  2  0
 10 17  1  0
 11 12  1  0
 12 13  1  0
 12 14  2  0
 14 15  1  0
 14 16  1  0
 16 17  2  0
 18 19  2  0
 18 23  1  0
 19 20  1  0
 20 21  2  0
 21 22  1  0
 21 24  1  0
 22 23  2  0
 24 25  1  0
 24 26  1  0
 24 27  1  0
M  END
>  <DRUGBANK_ID>  (1) 
DB15333

>  <COMMON_NAME>  (1) 
AZD-1386

>  <CAS_NUMBER>  (1) 
942937-80-6

>  <UNII>  (1) 
210323T9CP

$$$$
