
     RDKit          3D

 13 14  0  0  0  0  0  0  0  0999 V2000
   -2.6524    1.7903    0.0051 C   0  0  0  0  0  0  0  0  0  0  0  0
   -1.2769    1.5195    0.0319 C   0  0  0  0  0  0  0  0  0  0  0  0
   -3.5891    0.7541   -0.0283 C   0  0  0  0  0  0  0  0  0  0  0  0
   -0.8408    0.1801    0.0223 C   0  0  0  0  0  0  0  0  0  0  0  0
   -3.1741   -0.5888   -0.0277 C   0  0  0  0  0  0  0  0  0  0  0  0
   -1.7920   -0.8366   -0.0008 C   0  0  0  0  0  0  0  0  0  0  0  0
    0.3933   -0.5093    0.0214 C   0  0  0  0  0  0  0  0  0  0  0  0
    2.0743    0.3352    0.0110 Br  0  0  0  0  0  0  0  0  0  0  0  0
   -1.0759   -2.0082    0.0050 N   0  0  0  0  0  0  0  0  0  0  0  0
    0.2552   -1.8356    0.0140 N   0  0  0  0  0  0  0  0  0  0  0  0
   -4.1693   -1.6641   -0.0602 N   0  0  0  0  0  0  0  0  0  0  0  0
   -5.3673   -1.3535   -0.0898 O   0  0  0  0  0  0  0  0  0  0  0  0
   -3.7369   -2.8269   -0.0558 O   0  0  0  0  0  0  0  0  0  0  0  0
  2  1  2  0
  3  1  1  0
  4  2  1  0
  5  3  2  0
  6  4  2  0
  6  5  1  0
  7  4  1  0
  8  7  1  0
  9  6  1  0
 10  7  2  0
 10  9  1  0
 11  5  1  0
 12 11  1  0
 13 11  2  0
M  CHG  2  11   1  12  -1
M  END
>  <DRUGBANK_ID>  (1) 
DB01997

>  <SECONDARY_ACCESSION_NUMBERS>  (1) 
EXPT01883

>  <COMMON_NAME>  (1) 
3-Bromo-7-Nitroindazole

$$$$
