
     RDKit          3D

 13 13  0  0  0  0  0  0  0  0999 V2000
    0.8136   -0.1027   -0.1139 O   0  0  0  0  0  0  0  0  0  0  0  0
    0.3870   -1.2654   -1.1559 S   0  0  0  0  0  0  0  0  0  0  0  0
    0.8467   -0.8321   -2.4585 O   0  0  0  0  0  0  0  0  0  0  0  0
    0.8271   -2.5107   -0.5761 O   0  0  0  0  0  0  0  0  0  0  0  0
   -1.3994   -1.1316   -1.0756 C   0  0  0  0  0  0  0  0  0  0  0  0
   -1.9460   -1.4362    0.3041 C   0  0  0  0  0  0  0  0  0  0  0  0
   -1.5584   -0.4213    1.2823 N   0  0  0  0  0  0  0  0  0  0  0  0
   -1.9839   -0.7301    2.6470 C   0  0  0  0  0  0  0  0  0  0  0  0
   -1.3962    0.3442    3.5775 C   0  0  0  0  0  0  0  0  0  0  0  0
   -1.7343    0.0545    5.0367 C   0  0  0  0  0  0  0  0  0  0  0  0
   -1.2655   -1.3374    5.4489 C   0  0  0  0  0  0  0  0  0  0  0  0
   -1.8526   -2.4066    4.5421 C   0  0  0  0  0  0  0  0  0  0  0  0
   -1.5276   -2.1293    3.0866 C   0  0  0  0  0  0  0  0  0  0  0  0
  1  2  1  0
  2  3  2  0
  2  4  2  0
  2  5  1  0
  5  6  1  0
  6  7  1  0
  7  8  1  0
  8  9  1  0
  8 13  1  0
  9 10  1  0
 10 11  1  0
 11 12  1  0
 12 13  1  0
M  END
>  <DRUGBANK_ID>  (1) 
DB03309

>  <SECONDARY_ACCESSION_NUMBERS>  (1) 
EXPT02344

>  <COMMON_NAME>  (1) 
N-cyclohexyltaurine

>  <CAS_NUMBER>  (1) 
103-47-9

>  <UNII>  (1) 
71X53V3RZ1

>  <SYNONYMS>  (1) 
2-(cyclohexylamino)ethanesulfonic acid; CHES

$$$$
