
     RDKit          3D

 30 30  0  0  0  0  0  0  0  0999 V2000
   -0.9579    1.2440   -0.2357 O   0  0  0  0  0  0  0  0  0  0  0  0
    0.9222   -2.4302   -0.6644 O   0  0  0  0  0  0  0  0  0  0  0  0
    2.4517    0.0004    0.1245 O   0  0  0  0  0  0  0  0  0  0  0  0
    0.3920    3.7160    0.2365 O   0  0  0  0  0  0  0  0  0  0  0  0
   -3.3022   -3.6853   -1.1159 O   0  0  0  0  0  0  0  0  0  0  0  0
    0.3944   -1.5788   -2.7405 O   0  0  0  0  0  0  0  0  0  0  0  0
   -4.3202   -0.7020    0.4072 O   0  0  0  0  0  0  0  0  0  0  0  0
   -4.0109   -1.6046   -0.6264 N   0  0  0  0  0  0  0  0  0  0  0  0
   -1.1175   -1.2326   -0.2134 C   0  0  2  0  0  0  0  0  0  0  0  0
    0.3775   -1.2888    0.0437 C   0  0  2  0  0  0  0  0  0  0  0  0
    1.1000    0.0328   -0.3288 C   0  0  1  0  0  0  0  0  0  0  0  0
    0.3762    1.2675    0.2212 C   0  0  1  0  0  0  0  0  0  0  0  0
   -1.6597    0.1184    0.2260 C   0  0  0  0  0  0  0  0  0  0  0  0
   -1.9047   -2.4276    0.3810 C   0  0  0  0  0  0  0  0  0  0  0  0
    0.9830    2.5506   -0.3443 C   0  0  0  0  0  0  0  0  0  0  0  0
   -3.1411   -2.6444   -0.4804 C   0  0  0  0  0  0  0  0  0  0  0  0
    0.9421   -2.4236   -2.0244 C   0  0  0  0  0  0  0  0  0  0  0  0
    1.7156   -3.5635   -2.6030 C   0  0  0  0  0  0  0  0  0  0  0  0
    3.1895   -3.4648   -2.2259 C   0  0  0  0  0  0  0  0  0  0  0  0
    3.4086   -3.6441   -0.7209 C   0  0  0  0  0  0  0  0  0  0  0  0
    2.8096   -4.9735   -0.2475 C   0  0  0  0  0  0  0  0  0  0  0  0
    3.5356   -6.1324   -0.9339 C   0  0  0  0  0  0  0  0  0  0  0  0
    5.0255   -6.0772   -0.5842 C   0  0  0  0  0  0  0  0  0  0  0  0
    5.2007   -6.1792    0.9347 C   0  0  0  0  0  0  0  0  0  0  0  0
    4.6193   -7.5064    1.4300 C   0  0  0  0  0  0  0  0  0  0  0  0
    5.3446   -8.6716    0.7505 C   0  0  0  0  0  0  0  0  0  0  0  0
    6.8403   -8.6242    1.0827 C   0  0  0  0  0  0  0  0  0  0  0  0
    7.0622   -8.7515    2.5939 C   0  0  0  0  0  0  0  0  0  0  0  0
    6.4802  -10.0602    3.1298 C   0  0  0  0  0  0  0  0  0  0  0  0
    7.1461  -11.2488    2.4560 C   0  0  0  0  0  0  0  0  0  0  0  0
  1 12  1  0
  1 13  1  0
  2 17  1  0
  4 15  1  0
  5 16  2  0
  6 17  2  0
  7  8  1  0
  8 16  1  0
  9 10  1  0
  9 13  1  0
  9 14  1  1
 10  2  1  6
 10 11  1  0
 11  3  1  1
 11 12  1  0
 12 15  1  6
 14 16  1  0
 17 18  1  0
 18 19  1  0
 19 20  1  0
 20 21  1  0
 21 22  1  0
 22 23  1  0
 23 24  1  0
 24 25  1  0
 25 26  1  0
 26 27  1  0
 27 28  1  0
 28 29  1  0
 29 30  1  0
M  END
>  <DRUGBANK_ID>  (1) 
DB01991

>  <SECONDARY_ACCESSION_NUMBERS>  (1) 
EXPT03132

>  <COMMON_NAME>  (1) 
TU-514

$$$$
