
     RDKit          3D

 14 15  0  0  1  0  0  0  0  0999 V2000
   -1.7750    0.9840   -0.0010 C   0  0  0  0  0  0  0  0  0  0  0  0
   -2.2270   -0.7420    0.0010 C   0  0  0  0  0  0  0  0  0  0  0  0
    2.2161   -2.1413   -0.0009 C   0  0  0  0  0  0  0  0  0  0  0  0
    2.1320    0.3580   -0.0020 C   0  0  0  0  0  0  0  0  0  0  0  0
    1.5240   -0.7880   -0.0010 C   0  0  0  0  0  0  0  0  0  0  0  0
    3.0837   -2.2667   -1.2426 C   0  0  1  0  0  0  0  0  0  0  0  0
   -0.0130    0.7870   -0.0010 C   0  0  0  0  0  0  0  0  0  0  0  0
    0.1590   -0.5990   -0.0000 C   0  0  0  0  0  0  0  0  0  0  0  0
    4.1290   -1.1632   -1.2440 C   0  0  0  0  0  0  0  0  0  0  0  0
    3.7530   -3.5755   -1.2426 N   0  0  0  0  0  0  0  0  0  0  0  0
    1.2140    1.3650    0.0030 N   0  0  0  0  0  0  0  0  0  0  0  0
    5.3650   -1.4586   -1.2448 O   0  0  0  0  0  0  0  0  0  0  0  0
    3.7243    0.1980   -1.2443 O   0  0  0  0  0  0  0  0  0  0  0  0
   -1.0150   -1.3660    0.0010 Se  0  0  0  0  0  2  0  0  0  0  0  0
  2  1  2  0
  5  3  1  0
  5  4  2  0
  6  3  1  0
  6 10  1  1
  7  1  1  0
  8  5  1  0
  8  7  2  0
  9  6  1  0
 11  4  1  0
 11  7  1  0
 12  9  2  0
 13  9  1  0
 14  2  1  0
 14  8  1  0
M  END
>  <DRUGBANK_ID>  (1) 
DB03513

>  <SECONDARY_ACCESSION_NUMBERS>  (1) 
EXPT00151

>  <COMMON_NAME>  (1) 
(S)-2-Amino-3-(4h-Selenolo[3,2-B]-Pyrrol-6-Yl)-Propionic Acid

$$$$
