
     RDKit          3D

 35 38  0  0  0  0  0  0  0  0999 V2000
   -2.0574    6.4746   -7.2586 C   0  0  1  0  0  0  0  0  0  0  0  0
   -2.4452    5.2749   -6.2849 C   0  0  0  0  0  0  0  0  0  0  0  0
    1.0049    4.6869   -9.5809 C   0  0  0  0  0  0  0  0  0  0  0  0
   -0.0855    5.2270   -8.8703 C   0  0  0  0  0  0  0  0  0  0  0  0
   -0.8125    5.7442   -4.1694 C   0  0  0  0  0  0  0  0  0  0  0  0
    0.4886    5.7726  -10.2900 C   0  0  1  0  0  0  0  0  0  0  0  0
   -0.1228    9.9714  -10.2505 O   0  0  0  0  0  0  0  0  0  0  0  0
   -0.7479    9.1491   -9.5938 C   0  0  0  0  0  0  0  0  0  0  0  0
   -2.9942    6.2932   -5.4322 O   0  0  0  0  0  0  0  0  0  0  0  0
   -3.3032    5.2629   -3.9961 C   0  0  0  0  0  0  0  0  0  0  0  0
   -0.3653    4.9670   -6.4580 C   0  0  2  0  0  0  0  0  0  0  0  0
   -0.3289    3.5873   -6.0775 O   0  0  0  0  0  0  0  0  0  0  0  0
   -0.4865    1.2472   -2.0225 C   0  0  2  0  0  0  0  0  0  0  0  0
   -0.5564   -0.0592   -2.5841 O   0  0  0  0  0  0  0  0  0  0  0  0
   -3.6579    3.6726   -4.0803 C   0  0  0  0  0  0  0  0  0  0  0  0
   -2.2466    2.3997   -4.0429 S   0  0  0  0  0  0  0  0  0  0  0  0
   -0.0079    2.3057    1.5837 N   0  0  0  0  0  0  0  0  0  0  0  0
   -0.1960    2.4607    0.1562 C   0  0  1  0  0  0  0  0  0  0  0  0
   -0.4225    6.9736   -8.8003 C   0  0  2  0  0  0  0  0  0  0  0  0
    0.2647    5.0791   -3.8223 C   0  0  0  0  0  0  0  0  0  0  0  0
   -1.5447    6.4163   -9.0443 C   0  0  2  0  0  0  0  0  0  0  0  0
   -1.1314    5.8672   -5.5857 C   0  0  1  0  0  0  0  0  0  0  0  0
    2.0319    5.2262  -11.1291 C   0  0  0  0  0  0  0  0  0  0  0  0
   -1.1456    4.7906   -7.9178 C   0  0  1  0  0  0  0  0  0  0  0  0
   -0.2617    1.0999   -0.5058 C   0  0  0  0  0  0  0  0  0  0  0  0
   -1.7275    3.3336   -1.5249 C   0  0  0  0  0  0  0  0  0  0  0  0
   -1.8030    2.0255   -2.2586 C   0  0  2  0  0  0  0  0  0  0  0  0
   -1.2114    7.6053   -9.8901 C   0  0  1  0  0  0  0  0  0  0  0  0
   -1.4851    3.2030   -0.0515 C   0  0  0  0  0  0  0  0  0  0  0  0
   -1.8176    8.1866   -8.1804 C   0  0  0  0  0  0  0  0  0  0  0  0
   -1.0861    9.4644   -8.2578 C   0  0  0  0  0  0  0  0  0  0  0  0
   -1.1086    7.5362   -5.4103 C   0  0  0  0  0  0  0  0  0  0  0  0
   -0.6174    3.2922   -8.5270 C   0  0  0  0  0  0  0  0  0  0  0  0
    0.5976    7.5181  -10.5461 C   0  0  0  0  0  0  0  0  0  0  0  0
   -3.2622    5.6446   -2.7912 O   0  0  0  0  0  0  0  0  0  0  0  0
  1 19  1  0
  1  2  1  0
  1  9  1  1
  2 22  1  0
  3  4  1  0
  3  6  1  0
  5 20  2  0
  6 23  1  1
  7  8  2  0
 28  8  1  1
  8 31  1  0
  9 10  1  0
 10 15  1  0
 10 35  2  0
 11 24  1  0
 11 22  1  0
 11 12  1  1
 13 27  1  0
 13 25  1  0
 13 14  1  6
 15 16  1  0
 18 29  1  0
 18 25  1  0
 18 17  1  1
 19  6  1  0
 19 28  1  0
 19 34  1  1
 21 30  1  1
 21  4  1  0
 21 24  1  0
 21 28  1  0
 22  5  1  0
 22 32  1  6
 24 33  1  6
 26 29  1  0
 26 27  1  0
 27 16  1  6
 30 31  1  0
M  END
>  <DRUGBANK_ID>  (1) 
DB12825

>  <SECONDARY_ACCESSION_NUMBERS>  (1) 
DB12430

>  <COMMON_NAME>  (1) 
Lefamulin

>  <CAS_NUMBER>  (1) 
1061337-51-6

>  <UNII>  (1) 
21904A5386

>  <SYNONYMS>  (1) 
Lefamulin

$$$$
