IHU
     RDKit          3D

 23 24  0  0  0  0  0  0  0  0999 V2000
    0.9905    0.1529    0.1704 C   0  0  0  0  0  0  0  0  0  0  0  0
    0.3677   -0.7698    1.2078 O   0  0  0  0  0  0  0  0  0  0  0  0
    0.5519   -2.5395    1.2377 C   0  0  0  0  0  0  0  0  0  0  0  0
    1.9590   -3.4403    0.0351 C   0  0  0  0  0  0  0  0  0  0  0  0
    2.6613   -4.4156   -0.4521 C   0  0  0  0  0  0  0  0  0  0  0  0
    1.8284   -4.5283    0.5156 C   0  0  0  0  0  0  0  0  0  0  0  0
    2.1097   -6.1687    0.6850 O   0  0  0  0  0  0  0  0  0  0  0  0
    0.4352   -3.5831    1.6547 C   0  0  0  0  0  0  0  0  0  0  0  0
   -0.3540   -2.6641    2.1358 C   0  0  0  0  0  0  0  0  0  0  0  0
   -0.1998   -2.3933    3.5038 N   0  0  0  0  0  0  0  0  0  0  0  0
   -0.3999   -3.3172    4.5492 C   0  0  0  0  0  0  0  0  0  0  0  0
   -0.8672   -2.8825    5.6024 O   0  0  0  0  0  0  0  0  0  0  0  0
   -0.0114   -4.7653    4.4041 N   0  0  0  0  0  0  0  0  0  0  0  0
    0.6860   -5.7174    3.4939 C   0  0  0  0  0  0  0  0  0  0  0  0
    0.6687   -6.9456    3.5081 O   0  0  0  0  0  0  0  0  0  0  0  0
    1.3226   -5.1377    2.2854 C   0  0  0  0  0  0  0  0  0  0  0  0
    2.3594   -3.4700    2.3273 C   0  0  0  0  0  0  0  0  0  0  0  0
    2.2838   -1.9674    1.0465 C   0  0  0  0  0  0  0  0  0  0  0  0
    0.9053   -2.0872   -0.4601 C   0  0  0  0  0  0  0  0  0  0  0  0
    1.0205   -1.5399   -1.6851 F   0  0  0  0  0  0  0  0  0  0  0  0
   -0.0870   -3.7667   -0.4763 C   0  0  0  0  0  0  0  0  0  0  0  0
    0.0186   -5.2325    0.7977 C   0  0  0  0  0  0  0  0  0  0  0  0
   -0.7390   -6.7001    0.2852 Cl  0  0  0  0  0  0  0  0  0  0  0  0
  1  2  1  0
  2  3  1  0
  3  4  2  0
  3  9  1  0
  4  5  1  0
  5  6  2  0
  6  7  1  0
  6  8  1  0
  8  9  2  0
  9 10  1  0
 10 11  1  0
 11 12  2  0
 11 13  1  0
 13 14  1  0
 14 15  2  0
 14 16  1  0
 16 17  2  0
 16 22  1  0
 17 18  1  0
 18 19  2  0
 19 20  1  0
 19 21  1  0
 21 22  2  0
 22 23  1  0
M  END
>  <DRUGBANK_ID>  (1) 
DB07968

>  <COMMON_NAME>  (1) 
N-(2-CHLORO-4-FLUOROBENZOYL)-N'-(5-HYDROXY-2-METHOXYPHENYL)UREA

$$$$
