
     RDKit          3D

 11 11  0  0  1  0  0  0  0  0999 V2000
    0.8178   -0.1011   -0.0663 C   0  0  0  0  0  0  0  0  0  0  0  0
   -1.4573   -2.2561   -2.8632 C   0  0  0  0  0  0  0  0  0  0  0  0
   -1.1311   -1.4851   -4.1410 C   0  0  0  0  0  0  0  0  0  0  0  0
   -1.4824   -1.1716   -1.8042 C   0  0  0  0  0  0  0  0  0  0  0  0
    0.3990    0.4754   -1.3933 C   0  0  0  0  0  0  0  0  0  0  0  0
   -0.3137   -0.2514   -3.6834 C   0  0  1  0  0  0  0  0  0  0  0  0
   -0.8354    1.0245   -4.3652 C   0  0  0  0  0  0  0  0  0  0  0  0
   -0.4123   -0.2800   -2.2115 N   0  0  0  0  0  0  0  0  0  0  0  0
    0.8855    1.5551   -1.7238 O   0  0  0  0  0  0  0  0  0  0  0  0
   -1.6313    1.0781   -5.2966 O   0  0  0  0  0  0  0  0  0  0  0  0
   -0.2470    2.1506   -3.9356 O   0  0  0  0  0  0  0  0  0  0  0  0
  3  2  1  0
  4  2  1  0
  5  1  1  0
  6  3  1  0
  6  7  1  6
  8  4  1  0
  8  5  1  0
  8  6  1  0
  9  5  2  0
 10  7  2  0
 11  7  1  0
M  END
>  <DRUGBANK_ID>  (1) 
DB03360

>  <SECONDARY_ACCESSION_NUMBERS>  (1) 
EXPT02279

>  <COMMON_NAME>  (1) 
N-Acetylproline

>  <CAS_NUMBER>  (1) 
68-95-1

>  <UNII>  (1) 
CC8XZ138VZ

>  <SYNONYMS>  (1) 
(2S)-1-acetylpyrrolidine-2-carboxylic acid; (S)-(-)-N-acetylproline; (S)-1-acetylpyrrolidine-2-carboxylic acid; (S)-N-acetylproline; 1-acetylproline; Acetyl proline; N-acetyl-L-proline

$$$$
