
     RDKit          3D

 29 31  0  0  0  0  0  0  0  0999 V2000
    2.2851   -0.0414   -0.1271 F   0  0  0  0  0  0  0  0  0  0  0  0
   -1.8136    3.5633    1.1789 O   0  0  0  0  0  0  0  0  0  0  0  0
    1.0073    4.6199   -0.1608 O   0  0  0  0  0  0  0  0  0  0  0  0
   -1.3049   -3.8398   -0.0887 O   0  0  0  0  0  0  0  0  0  0  0  0
   -3.1619   -2.5829   -0.0814 O   0  0  0  0  0  0  0  0  0  0  0  0
    0.8174    2.3796    0.0839 N   0  0  0  0  0  0  0  0  0  0  0  0
   -3.0423    4.1193   -4.7730 C   0  0  0  0  0  0  0  0  0  0  0  0
   -3.2150    1.0175   -4.9067 C   0  0  0  0  0  0  0  0  0  0  0  0
   -3.7279    3.3726   -5.9229 C   0  0  0  0  0  0  0  0  0  0  0  0
   -3.4421    1.8978   -6.1341 C   0  0  0  0  0  0  0  0  0  0  0  0
   -2.6520    3.2242   -3.6389 C   0  0  0  0  0  0  0  0  0  0  0  0
   -2.7680    1.8249   -3.7137 C   0  0  0  0  0  0  0  0  0  0  0  0
   -1.7535    4.8158   -5.2412 C   0  0  0  0  0  0  0  0  0  0  0  0
   -4.0836    5.1476   -4.2602 C   0  0  0  0  0  0  0  0  0  0  0  0
   -2.0899    0.0133   -5.2692 C   0  0  0  0  0  0  0  0  0  0  0  0
   -4.4990    0.1932   -4.5960 C   0  0  0  0  0  0  0  0  0  0  0  0
   -2.1514    3.8743   -2.4751 C   0  0  0  0  0  0  0  0  0  0  0  0
   -2.5452    1.1332   -2.5615 C   0  0  0  0  0  0  0  0  0  0  0  0
   -1.9474    3.1854   -1.3174 C   0  0  0  0  0  0  0  0  0  0  0  0
   -2.3735    1.8736   -1.4144 C   0  0  0  0  0  0  0  0  0  0  0  0
   -1.2893    3.8546   -0.1147 C   0  0  2  0  0  0  0  0  0  0  0  0
    0.2525    3.6403   -0.0882 C   0  0  0  0  0  0  0  0  0  0  0  0
    0.2473    1.0814    0.2824 C   0  0  0  0  0  0  0  0  0  0  0  0
    0.9582   -0.0922    0.0566 C   0  0  0  0  0  0  0  0  0  0  0  0
   -1.0502    0.8519    0.6935 C   0  0  0  0  0  0  0  0  0  0  0  0
    0.3180   -1.3637    0.0145 C   0  0  0  0  0  0  0  0  0  0  0  0
   -1.7374   -0.3546    0.5335 C   0  0  0  0  0  0  0  0  0  0  0  0
   -1.0685   -1.4810    0.1543 C   0  0  0  0  0  0  0  0  0  0  0  0
   -1.9621   -2.6659   -0.0261 C   0  0  0  0  0  0  0  0  0  0  0  0
  1 24  1  0
  3 22  2  0
  4 29  1  0
  5 29  2  0
  6 22  1  0
  6 23  1  0
  7  9  1  0
  7 11  1  0
  7 13  1  0
  7 14  1  0
  8 10  1  0
  8 12  1  0
  8 15  1  0
  8 16  1  0
  9 10  1  0
 11 12  2  0
 11 17  1  0
 12 18  1  0
 17 19  2  0
 18 20  2  0
 19 20  1  0
 21 22  1  0
 21 19  1  0
 21  2  1  1
 23 24  2  0
 23 25  1  0
 24 26  1  0
 25 27  2  0
 26 28  2  0
 27 28  1  0
 28 29  1  0
M  END
>  <DRUGBANK_ID>  (1) 
DB07031

>  <COMMON_NAME>  (1) 
3-Fluoro-4-{[(2R)-2-hydroxy-2-(5,5,8,8-tetramethyl-5,6,7,8-tetrahydro-2-naphthalenyl)acetyl]amino}benzoic acid

$$$$
