7CS
     RDKit          3D

 21 24  0  0  0  0  0  0  0  0999 V2000
    1.6483   -1.2201   -0.0124 C   0  0  0  0  0  0  0  0  0  0  0  0
    3.5043   -2.6861    0.0030 O   0  0  0  0  0  0  0  0  0  0  0  0
    0.6123   -8.3158    0.0143 C   0  0  0  0  0  0  0  0  0  0  0  0
    2.2849   -2.5446   -0.0307 C   0  0  0  0  0  0  0  0  0  0  0  0
    2.3751   -0.0332    0.0209 C   0  0  0  0  0  0  0  0  0  0  0  0
    1.4097   -3.5882   -0.0952 O   0  0  0  0  0  0  0  0  0  0  0  0
   -1.0130   -5.1064   -0.6412 C   0  0  0  0  0  0  0  0  0  0  0  0
   -0.8913   -5.0913    0.8958 C   0  0  0  0  0  0  0  0  0  0  0  0
   -0.1613   -7.0935    0.0828 N   0  0  0  0  0  0  0  0  0  0  0  0
    0.1186   -6.1992    1.2093 C   0  0  1  0  0  0  0  0  0  0  0  0
    1.5666   -5.6592    1.2011 C   0  0  0  0  0  0  0  0  0  0  0  0
   -0.0707   -6.2221   -1.0899 C   0  0  2  0  0  0  0  0  0  0  0  0
    1.3620   -5.6953   -1.3260 C   0  0  0  0  0  0  0  0  0  0  0  0
    1.9392   -4.9469   -0.1113 C   0  0  1  0  0  0  0  0  0  0  0  0
   -2.0282    0.6846    0.0026 C   0  0  0  0  0  0  0  0  0  0  0  0
   -0.8623    1.3692   -0.0112 N   0  0  0  0  0  0  0  0  0  0  0  0
    0.2240    0.5713   -0.0086 C   0  0  0  0  0  0  0  0  0  0  0  0
    0.2654   -0.8213   -0.0077 C   0  0  0  0  0  0  0  0  0  0  0  0
   -0.9847   -1.4583    0.0077 C   0  0  0  0  0  0  0  0  0  0  0  0
   -2.1475   -0.6927    0.0190 C   0  0  0  0  0  0  0  0  0  0  0  0
    1.5092    1.0276    0.0070 N   0  0  0  0  0  0  0  0  0  0  0  0
  1 18  1  0
  1  5  2  0
  1  4  1  0
  2  4  2  0
  3  9  1  0
  4  6  1  0
  5 21  1  0
  7  8  1  0
 12  7  1  1
 10  8  1  6
  9 10  1  0
  9 12  1  0
 10 11  1  0
 11 14  1  0
 12 13  1  0
 13 14  1  0
 14  6  1  1
 15 16  2  0
 15 20  1  0
 16 17  1  0
 17 21  1  0
 17 18  2  0
 18 19  1  0
 19 20  2  0
M  END
>  <DRUGBANK_ID>  (1) 
DB07243

>  <COMMON_NAME>  (1) 
(3-ENDO)-8-METHYL-8-AZABICYCLO[3.2.1]OCT-3-YL 1H-PYRROLO[2,3-B]PYRIDINE-3-CARBOXYLATE

$$$$
