TRR
     RDKit          3D

 21 22  0  0  0  0  0  0  0  0999 V2000
   -1.1820    0.9583    0.0157 N   0  0  0  0  0  0  0  0  0  0  0  0
   -1.1168   -0.3688   -0.0234 C   0  0  0  0  0  0  0  0  0  0  0  0
   -2.2960   -1.0479   -0.0332 N   0  0  0  0  0  0  0  0  0  0  0  0
    0.0520   -1.0283   -0.0266 N   0  0  0  0  0  0  0  0  0  0  0  0
    1.1942   -0.3057   -0.0041 C   0  0  0  0  0  0  0  0  0  0  0  0
    2.3544   -1.0307    0.1379 N   0  0  0  0  0  0  0  0  0  0  0  0
    1.1894    1.0849    0.0494 C   0  0  0  0  0  0  0  0  0  0  0  0
   -0.0725    1.6779    0.0889 C   0  0  0  0  0  0  0  0  0  0  0  0
    2.4564    1.9272    0.0683 C   0  0  0  0  0  0  0  0  0  0  0  0
    2.5853    2.8772   -1.1054 C   0  0  0  0  0  0  0  0  0  0  0  0
    1.6559    3.9111   -1.2119 C   0  0  0  0  0  0  0  0  0  0  0  0
    1.6116    4.7923   -2.2803 C   0  0  0  0  0  0  0  0  0  0  0  0
    2.6268    4.7427   -3.2386 C   0  0  0  0  0  0  0  0  0  0  0  0
    3.6881    3.8211   -3.0619 C   0  0  0  0  0  0  0  0  0  0  0  0
    3.6167    2.8403   -2.0464 C   0  0  0  0  0  0  0  0  0  0  0  0
    0.6241    5.7272   -2.3900 O   0  0  0  0  0  0  0  0  0  0  0  0
    2.6705    5.5308   -4.3553 O   0  0  0  0  0  0  0  0  0  0  0  0
    4.8625    3.7846   -3.7854 O   0  0  0  0  0  0  0  0  0  0  0  0
   -0.4146    5.7685   -1.4282 C   0  0  0  0  0  0  0  0  0  0  0  0
    1.6270    6.4470   -4.6312 C   0  0  0  0  0  0  0  0  0  0  0  0
    5.1281    4.9009   -4.6391 C   0  0  0  0  0  0  0  0  0  0  0  0
  1  2  2  0
  1  8  1  0
  2  3  1  0
  2  4  1  0
  4  5  2  0
  5  6  1  0
  5  7  1  0
  7  8  2  0
  7  9  1  0
  9 10  1  0
 10 11  2  0
 10 15  1  0
 11 12  1  0
 12 13  2  0
 12 16  1  0
 13 14  1  0
 13 17  1  0
 14 15  2  0
 14 18  1  0
 16 19  1  0
 17 20  1  0
 18 21  1  0
M  CHG  1   1   1
M  END
>  <DRUGBANK_ID>  (1) 
DB03125

>  <SECONDARY_ACCESSION_NUMBERS>  (1) 
EXPT03114

>  <COMMON_NAME>  (1) 
2,4-Diamino-5-(3,4,5-Trimethoxy-Benzyl)-Pyrimidin-1-Ium

$$$$
