D01
     RDKit          3D

 31 35  0  0  0  0  0  0  0  0999 V2000
    2.8173    0.8036    0.0551 N   0  0  0  0  0  0  0  0  0  0  0  0
    1.4197    0.7769    0.0647 C   0  0  0  0  0  0  0  0  0  0  0  0
    0.4606    1.7964   -0.0271 C   0  0  0  0  0  0  0  0  0  0  0  0
   -0.8996    1.4318   -0.0160 C   0  0  0  0  0  0  0  0  0  0  0  0
   -1.2878    0.0951   -0.0031 C   0  0  0  0  0  0  0  0  0  0  0  0
   -2.9644   -0.3112   -0.0323 Cl  0  0  0  0  0  0  0  0  0  0  0  0
   -0.3330   -0.9167    0.0989 C   0  0  0  0  0  0  0  0  0  0  0  0
    1.0267   -0.5474    0.2319 C   0  0  0  0  0  0  0  0  0  0  0  0
    2.2002   -1.2289    0.6291 C   0  0  0  0  0  0  0  0  0  0  0  0
    3.3232   -0.4476    0.3614 C   0  0  0  0  0  0  0  0  0  0  0  0
    5.1137   -1.0142    0.1959 S   0  0  0  0  0  0  0  0  0  0  0  0
    5.6276   -0.1992   -0.9140 O   0  0  0  0  0  0  0  0  0  0  0  0
    5.6520   -0.9597    1.5013 O   0  0  0  0  0  0  0  0  0  0  0  0
    4.7888   -2.5457   -0.4325 N   0  0  0  0  0  0  0  0  0  0  0  0
    4.1455   -2.3598   -1.7384 C   0  0  0  0  0  0  0  0  0  0  0  0
    2.8537   -3.1166   -1.6660 C   0  0  0  0  0  0  0  0  0  0  0  0
    3.1519   -4.5100   -1.7272 N   0  0  0  0  0  0  0  0  0  0  0  0
    2.5332   -5.3104   -2.6869 C   0  0  0  0  0  0  0  0  0  0  0  0
    2.6205   -6.5330   -2.6463 O   0  0  0  0  0  0  0  0  0  0  0  0
    1.8089   -4.6048   -3.7663 C   0  0  0  0  0  0  0  0  0  0  0  0
    0.5084   -4.7370   -4.2415 C   0  0  0  0  0  0  0  0  0  0  0  0
    0.2383   -3.8340   -5.3393 C   0  0  0  0  0  0  0  0  0  0  0  0
    1.3258   -3.0211   -5.6253 C   0  0  0  0  0  0  0  0  0  0  0  0
    2.6911   -3.4674   -4.7209 S   0  0  0  0  0  0  0  0  0  0  0  0
    1.2596   -2.0347   -6.6155 C   0  0  0  0  0  0  0  0  0  0  0  0
    0.1035   -1.9594   -7.3806 C   0  0  0  0  0  0  0  0  0  0  0  0
   -0.9509   -2.8232   -7.1017 C   0  0  0  0  0  0  0  0  0  0  0  0
   -0.8765   -3.7468   -6.0594 N   0  0  0  0  0  0  0  0  0  0  0  0
   -1.8744   -4.5099   -5.8406 O   0  0  0  0  0  0  0  0  0  0  0  0
    3.9829   -4.9459   -0.5561 C   0  0  0  0  0  0  0  0  0  0  0  0
    5.2601   -3.9761   -0.3233 C   0  0  0  0  0  0  0  0  0  0  0  0
  1  2  1  0
  1 10  1  0
  2  3  2  0
  2  8  1  0
  3  4  1  0
  4  5  2  0
  5  6  1  0
  5  7  1  0
  7  8  2  0
  8  9  1  0
  9 10  2  0
 10 11  1  0
 11 12  2  0
 11 13  2  0
 11 14  1  0
 14 15  1  0
 14 31  1  0
 15 16  1  0
 16 17  1  0
 17 18  1  0
 17 30  1  0
 18 19  2  0
 18 20  1  0
 20 21  2  0
 20 24  1  0
 21 22  1  0
 22 23  2  0
 22 28  1  0
 23 24  1  0
 23 25  1  0
 25 26  2  0
 26 27  1  0
 27 28  2  0
 28 29  1  0
 30 31  1  0
M  CHG  2  28   1  29  -1
M  END
>  <DRUGBANK_ID>  (1) 
DB07605

>  <COMMON_NAME>  (1) 
2-({4-[(5-CHLORO-1H-INDOL-2-YL)SULFONYL]PIPERAZIN-1-YL}CARBONYL)THIENO[3,2-B]PYRIDINE 4-OXIDE

$$$$
