
     RDKit          3D

 18 20  0  0  0  0  0  0  0  0999 V2000
    2.2523   -0.6008   -0.0003 C   0  0  0  0  0  0  0  0  0  0  0  0
    2.1314    0.7929   -0.0154 C   0  0  0  0  0  0  0  0  0  0  0  0
    0.8764    1.4229   -0.0082 C   0  0  0  0  0  0  0  0  0  0  0  0
   -0.2360    0.5858    0.0099 C   0  0  0  0  0  0  0  0  0  0  0  0
   -0.1383   -0.8008    0.0483 C   0  0  0  0  0  0  0  0  0  0  0  0
    1.1195   -1.4129    0.0341 C   0  0  0  0  0  0  0  0  0  0  0  0
   -1.4568   -1.2792    0.0971 C   0  0  0  0  0  0  0  0  0  0  0  0
   -2.2960   -0.1917   -0.0002 C   0  0  0  0  0  0  0  0  0  0  0  0
   -1.5524    0.9630   -0.0202 O   0  0  0  0  0  0  0  0  0  0  0  0
   -3.7857   -0.0876   -0.1020 C   0  0  0  0  0  0  0  0  0  0  0  0
   -4.3543   -0.7930   -1.3297 C   0  0  0  0  0  0  0  0  0  0  0  0
   -4.0688   -2.1423   -1.6216 C   0  0  0  0  0  0  0  0  0  0  0  0
   -4.5809   -2.7707   -2.7557 C   0  0  0  0  0  0  0  0  0  0  0  0
   -5.4270   -2.0679   -3.6009 C   0  0  0  0  0  0  0  0  0  0  0  0
   -5.7495   -0.7408   -3.3255 C   0  0  0  0  0  0  0  0  0  0  0  0
   -5.2098   -0.1030   -2.2016 C   0  0  0  0  0  0  0  0  0  0  0  0
   -6.0876   -2.8526   -4.9802 Cl  0  0  0  0  0  0  0  0  0  0  0  0
   -4.3300   -0.6956    1.0713 O   0  0  0  0  0  0  0  0  0  0  0  0
  1  2  2  0
  1  6  1  0
  2  3  1  0
  3  4  2  0
  4  5  1  0
  4  9  1  0
  5  6  2  0
  5  7  1  0
  7  8  2  0
  8  9  1  0
  8 10  1  0
 10 11  1  0
 10 18  1  0
 11 12  2  0
 11 16  1  0
 12 13  1  0
 13 14  2  0
 14 15  1  0
 14 17  1  0
 15 16  2  0
M  END
>  <DRUGBANK_ID>  (1) 
DB13291

>  <COMMON_NAME>  (1) 
Cloridarol

>  <CAS_NUMBER>  (1) 
3611-72-1

>  <UNII>  (1) 
2L2063955H

>  <SYNONYMS>  (1) 
Cloridarol

$$$$
