
     RDKit          3D

  9  8  0  0  0  0  0  0  0  0999 V2000
    1.0527    0.0545   -0.0652 P   0  0  0  0  0  0  0  0  0  0  0  0
    0.8558   -1.5904   -0.0137 O   0  0  0  0  0  0  0  0  0  0  0  0
    0.9366    0.4054    1.5920 O   0  0  0  0  0  0  0  0  0  0  0  0
   -0.6773    0.0545   -0.0652 O   0  0  0  0  0  0  0  0  0  0  0  0
    2.9501    0.0545   -0.0652 S   0  0  0  0  0  0  0  0  0  0  0  0
    0.9769   -2.2895   -1.2537 C   0  0  0  0  0  0  0  0  0  0  0  0
    2.0026    1.0638    2.3511 C   0  0  0  0  0  0  0  0  0  0  0  0
   -0.1760   -1.9491   -2.1790 C   0  0  0  0  0  0  0  0  0  0  0  0
    2.9698    0.0163    2.9447 C   0  0  0  0  0  0  0  0  0  0  0  0
  1  2  1  0
  1  3  1  0
  1  4  1  0
  1  5  2  0
  2  6  1  0
  3  7  1  0
  6  8  1  0
  7  9  1  0
M  END
>  <DRUGBANK_ID>  (1) 
DB07674

>  <COMMON_NAME>  (1) 
O,O-DIETHYL HYDROGEN THIOPHOSPHATE

>  <UNII>  (1) 
FND2ADQ374

$$$$
