
     RDKit          3D

 35 36  0  0  1  0  0  0  0  0999 V2000
   -0.9853   -0.5085   -0.3470 C   0  0  2  0  0  0  0  0  0  0  0  0
   -0.1040   -1.3925    0.5171 C   0  0  2  0  0  0  0  0  0  0  0  0
    1.3262   -1.2568   -0.0229 C   0  0  0  0  0  0  0  0  0  0  0  0
    1.7909    0.0801    0.0214 O   0  0  0  0  0  0  0  0  0  0  0  0
    0.9884    0.9324   -0.8151 C   0  0  2  0  0  0  0  0  0  0  0  0
   -0.4351    0.9261   -0.2566 C   0  0  2  0  0  0  0  0  0  0  0  0
    0.3420   -3.7155    1.3889 C   0  0  1  0  0  0  0  0  0  0  0  0
   -0.5509   -2.8500    0.5388 C   0  0  0  0  0  0  0  0  0  0  0  0
   -2.3460   -0.5591    0.0315 O   0  0  0  0  0  0  0  0  0  0  0  0
   -0.5488    1.4571    1.0676 O   0  0  0  0  0  0  0  0  0  0  0  0
    1.0239    0.4034   -2.2892 C   0  0  0  0  0  0  0  0  0  0  0  0
    0.2676    1.2317   -3.3470 C   0  0  0  0  0  0  0  0  0  0  0  0
    0.7377    1.6834   -4.5220 C   0  0  0  0  0  0  0  0  0  0  0  0
    0.2823    2.7713   -5.4424 C   0  0  0  0  0  0  0  0  0  0  0  0
    1.2552    3.3538   -6.2147 O   0  0  0  0  0  0  0  0  0  0  0  0
    2.7000    3.1691   -6.2988 C   0  0  0  0  0  0  0  0  0  0  0  0
    3.4708    3.7379   -5.0992 C   0  0  0  0  0  0  0  0  0  0  0  0
    3.1985    2.9428   -3.8477 C   0  0  0  0  0  0  0  0  0  0  0  0
    3.6173    1.4738   -4.1114 C   0  0  0  0  0  0  0  0  0  0  0  0
    5.0757    1.2123   -4.1294 C   0  0  0  0  0  0  0  0  0  0  0  0
    5.6062    1.6605   -2.7844 C   0  0  0  0  0  0  0  0  0  0  0  0
    5.0185    0.8472   -1.6107 C   0  0  0  0  0  0  0  0  0  0  0  0
    5.2326   -0.6582   -1.7740 C   0  0  0  0  0  0  0  0  0  0  0  0
    6.7050   -0.9554   -1.9598 C   0  0  0  0  0  0  0  0  0  0  0  0
    7.2492   -1.7086   -0.9879 O   0  0  0  0  0  0  0  0  0  0  0  0
   -1.1922    1.4128   -3.1488 C   0  0  0  0  0  0  0  0  0  0  0  0
   -0.8448    3.1830   -5.4716 O   0  0  0  0  0  0  0  0  0  0  0  0
    7.3750   -0.5532   -2.8991 O   0  0  0  0  0  0  0  0  0  0  0  0
    1.4508   -3.0506    2.2169 C   0  0  2  0  0  0  0  0  0  0  0  0
    2.8425   -3.6296    2.3369 C   0  0  2  0  0  0  0  0  0  0  0  0
    3.5861   -2.7819    3.4061 C   0  0  2  0  0  0  0  0  0  0  0  0
    5.0444   -3.1607    3.6132 C   0  0  0  0  0  0  0  0  0  0  0  0
    0.2940   -3.6151    2.8217 O   0  0  0  0  0  0  0  0  0  0  0  0
    2.9032   -2.8979    4.6511 O   0  0  0  0  0  0  0  0  0  0  0  0
    3.6202   -3.4920    0.9953 C   0  0  0  0  0  0  0  0  0  0  0  0
  1  9  1  1
  1  2  1  0
  1  6  1  0
  2  8  1  6
  2  3  1  0
  3  4  1  0
  4  5  1  0
  5  6  1  0
  5 11  1  6
  6 10  1  1
  7 33  1  0
  7  8  1  6
  7 29  1  0
 11 12  1  0
 12 13  2  0
 12 26  1  0
 13 14  1  0
 14 15  1  0
 14 27  2  0
 15 16  1  0
 16 17  1  0
 17 18  1  0
 18 19  1  0
 19 20  1  0
 20 21  1  0
 21 22  1  0
 22 23  1  0
 23 24  1  0
 24 25  1  0
 24 28  2  0
 29 33  1  1
 29 30  1  0
 30 35  1  6
 30 31  1  0
 31 34  1  0
 31 32  1  1
M  END
>  <DRUGBANK_ID>  (1) 
DB00410

>  <SECONDARY_ACCESSION_NUMBERS>  (1) 
APRD00162

>  <COMMON_NAME>  (1) 
Mupirocin

>  <CAS_NUMBER>  (1) 
12650-69-0

>  <UNII>  (1) 
D0GX863OA5

>  <SYNONYMS>  (1) 
9-[(E)-4-[(2S,3R,4R,5S)-3,4-dihydroxy-5-[[(2S,3S)-3- [(2S,3S)-3-hydroxybutan-2-yl]oxiran-2-yl]methyl] oxan-2-yl]-3-methylbut-2-enoyl]oxynonanoic acid; Mupirocin; Mupirocina; Mupirocine; Mupirocinum; Pseudomonic acid; Pseudomonic acid A

$$$$
