
     RDKit          3D

 38 38  0  0  0  0  0  0  0  0999 V2000
   -5.3826    2.1875   11.0871 C   0  0  1  0  0  0  0  0  0  0  0  0
   -4.4158    1.3840   10.2327 C   0  0  1  0  0  0  0  0  0  0  0  0
   -6.5265    1.2927   11.5356 C   0  0  1  0  0  0  0  0  0  0  0  0
   -4.7012    2.6915   12.2264 O   0  0  0  0  0  0  0  0  0  0  0  0
   -5.0513    1.1448    8.8728 C   0  0  2  0  0  0  0  0  0  0  0  0
   -3.2162    2.1235   10.0577 O   0  0  0  0  0  0  0  0  0  0  0  0
   -7.1394    1.8137   12.8253 C   0  0  0  0  0  0  0  0  0  0  0  0
   -7.5565    1.0321   10.5935 O   0  0  0  0  0  0  0  0  0  0  0  0
   -5.8913   -0.1211    8.9218 C   0  0  0  0  0  0  0  0  0  0  0  0
   -4.0333    0.9997    7.8935 O   0  0  0  0  0  0  0  0  0  0  0  0
   -7.8525    3.0126   12.5599 O   0  0  0  0  0  0  0  0  0  0  0  0
   -6.6815   -0.2248    9.9118 O   0  0  0  0  0  0  0  0  0  0  0  0
   -5.7691   -1.1907    7.9959 O   0  0  0  0  0  0  0  0  0  0  0  0
   -6.9454   -1.2445    3.6592 C   0  0  2  0  0  0  0  0  0  0  0  0
   -7.5084   -0.2650    2.7989 O   0  0  0  0  0  0  0  0  0  0  0  0
   -5.6151   -0.8892    3.8641 O   0  0  0  0  0  0  0  0  0  0  0  0
   -7.0421   -2.6439    3.0701 C   0  0  1  0  0  0  0  0  0  0  0  0
   -6.7844   -0.2357    1.5777 C   0  0  1  0  0  0  0  0  0  0  0  0
   -4.9881   -1.7289    4.8662 C   0  0  1  0  0  0  0  0  0  0  0  0
   -6.3707   -3.5939    4.0105 C   0  0  2  0  0  0  0  0  0  0  0  0
   -8.4077   -3.0587    2.9727 O   0  0  0  0  0  0  0  0  0  0  0  0
   -5.3178    0.0420    1.8647 C   0  0  1  0  0  0  0  0  0  0  0  0
   -6.9183   -1.5779    0.8770 C   0  0  1  0  0  0  0  0  0  0  0  0
   -4.9364   -3.1359    4.3068 C   0  0  1  0  0  0  0  0  0  0  0  0
   -3.5904   -1.2271    5.1906 C   0  0  0  0  0  0  0  0  0  0  0  0
   -6.3862   -4.9109    3.4478 O   0  0  0  0  0  0  0  0  0  0  0  0
   -4.7494   -1.1162    2.6684 C   0  0  2  0  0  0  0  0  0  0  0  0
   -4.6494    0.1237    0.6145 O   0  0  0  0  0  0  0  0  0  0  0  0
   -8.3849   -1.8556    0.5900 C   0  0  0  0  0  0  0  0  0  0  0  0
   -6.1943   -1.5486   -0.3442 O   0  0  0  0  0  0  0  0  0  0  0  0
   -4.1664   -3.1183    3.0939 O   0  0  0  0  0  0  0  0  0  0  0  0
   -3.6689    0.0960    5.7002 O   0  0  0  0  0  0  0  0  0  0  0  0
   -3.2645   -0.8906    2.9016 C   0  0  0  0  0  0  0  0  0  0  0  0
   -4.9373   -2.3273    1.9512 O   0  0  0  0  0  0  0  0  0  0  0  0
   -8.9059   -0.8318   -0.2447 O   0  0  0  0  0  0  0  0  0  0  0  0
   -2.4743   -0.7869    1.9116 O   0  0  0  0  0  0  0  0  0  0  0  0
   -2.7600   -0.7957    4.2256 O   0  0  0  0  0  0  0  0  0  0  0  0
   -4.2646   -0.9932    6.1107 Ca  0  0  0  0  0  2  0  0  0  0  0  0
  1  4  1  1
  1  3  1  0
  1  2  1  0
  2  6  1  6
  3  7  1  0
  3  8  1  6
  5 10  1  6
  5  9  1  0
  5  2  1  0
  7 11  1  0
  9 13  1  0
  9 12  2  0
 14 16  1  0
 14 17  1  0
 14 15  1  6
 16 19  1  0
 17 20  1  0
 17 21  1  1
 18 23  1  0
 18 22  1  0
 18 15  1  1
 19 24  1  0
 19 25  1  6
 20 26  1  6
 20 24  1  0
 22 27  1  0
 22 28  1  6
 23 29  1  0
 23 30  1  6
 24 31  1  6
 25 32  1  0
 27 33  1  0
 27 34  1  6
 29 35  1  0
 33 36  2  0
 33 37  1  0
 37 38  1  0
 38 13  1  0
M  END
>  <DRUGBANK_ID>  (1) 
DB13142

>  <COMMON_NAME>  (1) 
Calcium glubionate anhydrous

>  <CAS_NUMBER>  (1) 
97635-31-9

>  <UNII>  (1) 
93H20IU3DN

>  <SYNONYMS>  (1) 
(D-gluconato)(lactobionato)calcium; Calcium D-gluconate lactobionate; Calcium glubionate anhydrous; Glubionate calcium

$$$$
