
     RDKit          3D

 26 29  0  0  0  0  0  0  0  0999 V2000
   -3.2721    0.3243   -1.6217 C   0  0  0  0  0  0  0  0  0  0  0  0
   -2.0757   -0.8539   -1.2442 C   0  0  0  0  0  0  0  0  0  0  0  0
   -2.2810   -1.9508   -0.0676 C   0  0  0  0  0  0  0  0  0  0  0  0
   -1.6181   -3.1324    0.4821 C   0  0  0  0  0  0  0  0  0  0  0  0
   -2.6875   -2.3790    2.4597 C   0  0  0  0  0  0  0  0  0  0  0  0
   -3.7624   -1.5385    1.8727 C   0  0  0  0  0  0  0  0  0  0  0  0
   -7.3817   -0.0035   -0.1810 C   0  0  0  0  0  0  0  0  0  0  0  0
   -7.1568    3.0678   -1.2252 C   0  0  0  0  0  0  0  0  0  0  0  0
   -5.8639    2.1590   -1.0082 C   0  0  0  0  0  0  0  0  0  0  0  0
   -4.8892   -0.6611   -0.1388 C   0  0  1  0  0  0  0  0  0  0  0  0
   -5.8639    0.8392   -1.8923 C   0  0  1  0  0  0  0  0  0  0  0  0
   -4.7501   -0.1334   -1.5138 C   0  0  1  0  0  0  0  0  0  0  0  0
   -7.3675    0.5977   -1.8601 C   0  0  2  0  0  0  0  0  0  0  0  0
   -7.5468    2.3681   -2.5196 C   0  0  1  0  0  0  0  0  0  0  0  0
   -2.7619   -3.5019    1.4588 C   0  0  0  0  0  0  0  0  0  0  0  0
   -3.5901   -4.3233    1.2669 O   0  0  0  0  0  0  0  0  0  0  0  0
   -6.3587   -1.2192    0.0236 C   0  0  1  0  0  0  0  0  0  0  0  0
   -7.0984   -2.3674    0.4933 O   0  0  0  0  0  0  0  0  0  0  0  0
   -8.0165    3.6053   -3.6589 C   0  0  0  0  0  0  0  0  0  0  0  0
   -7.3537    4.6796   -3.7282 O   0  0  0  0  0  0  0  0  0  0  0  0
   -9.2314    3.5991   -4.5650 C   0  0  0  0  0  0  0  0  0  0  0  0
  -10.0347    4.7838   -4.4564 O   0  0  0  0  0  0  0  0  0  0  0  0
   -6.1472    2.8197   -3.2949 O   0  0  0  0  0  0  0  0  0  0  0  0
   -8.1204   -0.7355   -2.3779 C   0  0  0  0  0  0  0  0  0  0  0  0
   -3.7812   -1.6954    0.2540 C   0  0  1  0  0  0  0  0  0  0  0  0
   -4.1225   -2.8297   -0.7992 C   0  0  0  0  0  0  0  0  0  0  0  0
  1  2  1  0
  2  3  1  0
  3  4  2  0
  3 25  1  0
  4 15  1  0
  5  6  1  0
  6 25  1  0
  7 13  1  0
  8  9  1  0
 11  9  1  1
 10 17  1  6
 12  1  1  1
 12 10  1  0
 12 11  1  0
 13 14  1  0
 13 11  1  0
 13 24  1  6
 14  8  1  0
 14 19  1  0
 14 23  1  6
 15  5  1  0
 15 16  2  0
 17  7  1  0
 17 18  1  1
 19 21  1  0
 19 20  2  0
 21 22  1  0
 25 10  1  0
 25 26  1  1
M  END
>  <DRUGBANK_ID>  (1) 
DB00741

>  <SECONDARY_ACCESSION_NUMBERS>  (1) 
APRD01019; DB07886

>  <COMMON_NAME>  (1) 
Hydrocortisone

>  <CAS_NUMBER>  (1) 
50-23-7

>  <UNII>  (1) 
WI4X0X7BPJ

>  <SYNONYMS>  (1) 
(11β)-11,17,21-trihydroxypregn-4-ene-3,20-dione; 11beta-hydrocortisone; 11beta,17alpha,21-Trihydroxy-4-pregnene-3,20-dione; 11β-hydrocortisone; 17-Hydroxycorticosterone; 4-pregnen-11β,17α,21-triol-3,20-dione; Cortisol; Hidrocortisona; Hydrocortisone; Hydrocortisonum; Kendall's compound F; Reichstein's substance M

$$$$
