
     RDKit          3D

 39 42  0  0  1  0  0  0  0  0999 V2000
    1.8196   -0.7072    2.2583 C   0  0  0  0  0  0  0  0  0  0  0  0
    0.6350   -0.4334    1.3158 C   0  0  2  0  0  0  0  0  0  0  0  0
   -0.1380    0.7692    1.8958 C   0  0  0  0  0  0  0  0  0  0  0  0
   -0.8189    1.5340    0.8342 N   0  0  0  0  0  0  0  0  0  0  0  0
   -1.4052    2.7783    1.3585 C   0  0  2  0  0  0  0  0  0  0  0  0
   -2.9188    2.8134    0.9239 C   0  0  0  0  0  0  0  0  0  0  0  0
   -3.2832    3.2593   -0.1652 O   0  0  0  0  0  0  0  0  0  0  0  0
   -3.8289    2.3227    1.8350 N   0  0  0  0  0  0  0  0  0  0  0  0
   -5.2877    2.4757    1.5944 C   0  0  1  0  0  0  0  0  0  0  0  0
   -6.1889    1.4409    2.3081 C   0  0  0  0  0  0  0  0  0  0  0  0
   -7.2038    1.7553    2.9449 O   0  0  0  0  0  0  0  0  0  0  0  0
   -5.8039    0.1291    2.2013 N   0  0  0  0  0  0  0  0  0  0  0  0
   -6.2819   -0.8637    3.1779 C   0  0  1  0  0  0  0  0  0  0  0  0
   -6.1603   -2.2367    2.4869 C   0  0  0  0  0  0  0  0  0  0  0  0
   -6.9090   -2.5835    1.5741 O   0  0  0  0  0  0  0  0  0  0  0  0
   -4.9907   -2.9136    2.7507 N   0  0  0  0  0  0  0  0  0  0  0  0
   -4.2285   -3.4710    1.6635 C   0  0  0  0  0  0  0  0  0  0  0  0
   -3.0252   -4.2165    2.2033 C   0  0  0  0  0  0  0  0  0  0  0  0
   -1.9420   -3.2258    2.6420 C   0  0  0  0  0  0  0  0  0  0  0  0
   -0.5931   -3.6479    2.1332 C   0  0  0  0  0  0  0  0  0  0  0  0
   -0.0773   -4.9031    2.4912 C   0  0  0  0  0  0  0  0  0  0  0  0
    1.1926   -5.2869    2.0717 C   0  0  0  0  0  0  0  0  0  0  0  0
    1.9429   -4.4358    1.2650 C   0  0  0  0  0  0  0  0  0  0  0  0
    1.4147   -3.2137    0.8523 C   0  0  0  0  0  0  0  0  0  0  0  0
    0.1754   -2.7915    1.3341 C   0  0  0  0  0  0  0  0  0  0  0  0
   -0.3003   -1.5218    1.1350 O   0  0  0  0  0  0  0  0  0  0  0  0
   -5.4712   -0.7947    4.5196 C   0  0  0  0  0  0  0  0  0  0  0  0
   -5.5653    0.4677    5.3659 C   0  0  0  0  0  0  0  0  0  0  0  0
   -6.7990    1.0609    5.6301 C   0  0  0  0  0  0  0  0  0  0  0  0
   -6.8598    2.4190    5.9572 C   0  0  0  0  0  0  0  0  0  0  0  0
   -5.6911    3.1522    6.1117 C   0  0  0  0  0  0  0  0  0  0  0  0
   -4.4565    2.5272    6.0518 C   0  0  0  0  0  0  0  0  0  0  0  0
   -4.3952    1.1654    5.7330 C   0  0  0  0  0  0  0  0  0  0  0  0
   -5.7520    4.4793    6.2817 F   0  0  0  0  0  0  0  0  0  0  0  0
   -5.7987    3.8847    1.9333 C   0  0  0  0  0  0  0  0  0  0  0  0
   -3.3761    1.7790    3.0725 C   0  0  0  0  0  0  0  0  0  0  0  0
   -0.8771    4.1429    1.0719 C   0  0  0  0  0  0  0  0  0  0  0  0
   -0.3647    4.5976   -0.2665 C   0  0  0  0  0  0  0  0  0  0  0  0
    0.5020    4.7338    0.9656 C   0  0  0  0  0  0  0  0  0  0  0  0
  2  3  1  0
  2 26  1  0
  2  1  1  1
  3  4  1  0
  4  5  1  0
  5  6  1  0
  5 37  1  6
  6  7  2  0
  6  8  1  0
  8  9  1  0
  8 36  1  0
  9 10  1  0
  9 35  1  1
 10 11  2  0
 10 12  1  0
 12 13  1  0
 13 14  1  0
 13 27  1  1
 14 15  2  0
 14 16  1  0
 16 17  1  0
 17 18  1  0
 18 19  1  0
 19 20  1  0
 20 21  1  0
 20 25  2  0
 21 22  2  0
 22 23  1  0
 23 24  2  0
 24 25  1  0
 25 26  1  0
 27 28  1  0
 28 29  2  0
 28 33  1  0
 29 30  1  0
 30 31  2  0
 31 32  1  0
 31 34  1  0
 32 33  2  0
 37 38  1  0
 37 39  1  0
 38 39  1  0
M  END
>  <DRUGBANK_ID>  (1) 
DB12128

>  <SECONDARY_ACCESSION_NUMBERS>  (1) 
DB05657

>  <COMMON_NAME>  (1) 
Ulimorelin

>  <CAS_NUMBER>  (1) 
842131-33-3

>  <UNII>  (1) 
LGI67MCW2S

>  <SYNONYMS>  (1) 
Ulimorelin

$$$$
