
     RDKit          3D

 14 13  0  0  1  0  0  0  0  0999 V2000
   -1.5876    1.5928   -4.7897 C   0  0  0  0  0  0  0  0  0  0  0  0
   -2.4177    0.6735   -3.9238 C   0  0  0  0  0  0  0  0  0  0  0  0
   -1.8281   -0.6932   -4.0424 C   0  0  0  0  0  0  0  0  0  0  0  0
   -0.3325   -0.7169   -3.6541 C   0  0  0  0  0  0  0  0  0  0  0  0
   -0.1136   -0.6729   -2.1274 C   0  0  0  0  0  0  0  0  0  0  0  0
   -0.8123   -1.6566   -1.3793 O   0  0  0  0  0  0  0  0  0  0  0  0
   -0.3085   -3.1456   -1.6403 P   0  0  2  0  0  0  0  0  0  0  0  0
   -1.5327   -4.0001   -1.0598 O   0  0  0  0  0  0  0  0  0  0  0  0
    0.9846   -3.5130   -0.9630 O   0  0  0  0  0  0  0  0  0  0  0  0
   -0.2920   -3.1403   -3.2219 O   0  0  0  0  0  0  0  0  0  0  0  0
   -1.5882   -3.3300   -4.3519 P   0  0  0  0  0  0  0  0  0  0  0  0
   -0.6585   -4.5183   -4.9920 O   0  0  0  0  0  0  0  0  0  0  0  0
   -2.3362   -4.3013   -3.2791 O   0  0  0  0  0  0  0  0  0  0  0  0
   -2.7483   -3.4997   -5.3632 O   0  0  0  0  0  0  0  0  0  0  0  0
  1  2  1  0
  2  3  1  0
  3  4  1  0
  4  5  1  0
  5  6  1  0
  7  9  2  0
  7 10  1  0
  7  8  1  0
  7  6  1  0
 10 11  1  0
 11 12  1  0
 11 13  1  0
 11 14  2  0
M  END
>  <DRUGBANK_ID>  (1) 
DB02707

>  <SECONDARY_ACCESSION_NUMBERS>  (1) 
EXPT02472

>  <COMMON_NAME>  (1) 
Pentyl Trihydrogen Diphosphate

$$$$
