
     RDKit          3D

 23 26  0  0  0  0  0  0  0  0999 V2000
   -0.5567    0.9127   -1.1330 C   0  0  0  0  0  0  0  0  0  0  0  0
    0.3807    1.9979   -0.8753 C   0  0  0  0  0  0  0  0  0  0  0  0
    1.1829    1.6807   -2.2015 C   0  0  2  0  0  0  0  0  0  0  0  0
    0.7059    0.0813   -2.9863 C   0  0  0  0  0  0  0  0  0  0  0  0
   -0.9407   -0.1844   -2.9796 C   0  0  2  0  0  0  0  0  0  0  0  0
   -1.6624   -1.1720   -3.8316 C   0  0  0  0  0  0  0  0  0  0  0  0
   -3.2471   -0.9510   -3.8815 C   0  0  0  0  0  0  0  0  0  0  0  0
   -3.6334    0.4145   -4.5688 C   0  0  2  0  0  0  0  0  0  0  0  0
   -2.9996    1.5228   -3.3800 C   0  0  1  0  0  0  0  0  0  0  0  0
   -1.3197    1.2339   -2.8849 C   0  0  1  0  0  0  0  0  0  0  0  0
   -3.2244    2.9202   -4.0652 C   0  0  0  0  0  0  0  0  0  0  0  0
   -4.6759    3.1314   -4.3960 C   0  0  0  0  0  0  0  0  0  0  0  0
   -5.2354    2.0223   -5.1814 C   0  0  1  0  0  0  0  0  0  0  0  0
   -5.1907    0.6275   -5.6396 C   0  0  1  0  0  0  0  0  0  0  0  0
   -6.3159    1.8827   -6.8023 C   0  0  0  0  0  0  0  0  0  0  0  0
   -7.3661    2.6905   -5.9883 C   0  0  0  0  0  0  0  0  0  0  0  0
   -6.9368    1.7615   -4.9925 C   0  0  2  0  0  0  0  0  0  0  0  0
   -4.0909    1.9841   -6.6978 C   0  0  0  0  0  0  0  0  0  0  0  0
   -0.6303    1.7790   -4.3051 C   0  0  0  0  0  0  0  0  0  0  0  0
   -7.6875    1.6077   -3.7238 C   0  0  0  0  0  0  0  0  0  0  0  0
   -7.0174    1.9577   -2.4758 C   0  0  0  0  0  0  0  0  0  0  0  0
    2.5849    1.6610   -1.9808 O   0  0  0  0  0  0  0  0  0  0  0  0
   -8.8600    1.1623   -3.7301 O   0  0  0  0  0  0  0  0  0  0  0  0
  1 10  1  0
  2  1  1  0
  3  4  1  0
  3  2  1  0
  3 22  1  1
  5  4  1  6
  5 10  1  0
  6  7  1  0
  6  5  1  0
  8  7  1  1
  8 14  1  0
  8  9  1  0
 10  9  1  0
 10 19  1  6
  9 11  1  6
 11 12  1  0
 12 13  1  0
 13 18  1  6
 14 13  1  0
 14 15  1  6
 16 17  1  0
 16 15  1  0
 17 13  1  0
 17 20  1  1
 21 20  1  0
 23 20  2  0
M  END
>  <DRUGBANK_ID>  (1) 
DB11859

>  <COMMON_NAME>  (1) 
Brexanolone

>  <CAS_NUMBER>  (1) 
516-54-1

>  <UNII>  (1) 
S39XZ5QV8Y

>  <SYNONYMS>  (1) 
3alpha-OH DHP; allopregnan-3Î±-ol-20-one; Allopregnanolone; Brexanolone

$$$$
