
     RDKit          3D

 19 21  0  0  0  0  0  0  0  0999 V2000
    1.5591   -0.1026   -0.0058 C   0  0  0  0  0  0  0  0  0  0  0  0
    0.7967   -1.2350   -0.1330 C   0  0  0  0  0  0  0  0  0  0  0  0
    0.9388    1.1554   -0.0474 C   0  0  0  0  0  0  0  0  0  0  0  0
   -0.5462   -1.0774   -0.3848 C   0  0  0  0  0  0  0  0  0  0  0  0
   -0.4692    1.2835   -0.0710 C   0  0  0  0  0  0  0  0  0  0  0  0
   -2.7236   -4.3727    0.0581 C   0  0  0  0  0  0  0  0  0  0  0  0
   -2.4826   -3.2970    0.9472 C   0  0  0  0  0  0  0  0  0  0  0  0
   -3.9762   -2.8974   -1.4333 C   0  0  0  0  0  0  0  0  0  0  0  0
   -1.2425    0.1386   -0.2348 C   0  0  0  0  0  0  0  0  0  0  0  0
   -3.5693   -4.1769   -1.0402 C   0  0  0  0  0  0  0  0  0  0  0  0
   -3.0612   -2.0299    0.6671 C   0  0  0  0  0  0  0  0  0  0  0  0
   -3.6523   -1.8571   -0.5803 C   0  0  0  0  0  0  0  0  0  0  0  0
   -2.6876   -0.0218    0.1550 C   0  0  0  0  0  0  0  0  0  0  0  0
   -2.9140   -0.7792    1.2387 N   0  0  0  0  0  0  0  0  0  0  0  0
   -3.7113   -0.4652   -0.7186 N   0  0  0  0  0  0  0  0  0  0  0  0
   -5.8793   -5.3011   -1.6200 O   0  0  0  0  0  0  0  0  0  0  0  0
   -4.1197   -5.2261   -3.3691 O   0  0  0  0  0  0  0  0  0  0  0  0
   -3.9279   -6.7656   -1.3608 O   0  0  0  0  0  0  0  0  0  0  0  0
   -4.3074   -5.5131   -1.9569 S   0  0  0  0  0  0  0  0  0  0  0  0
  2  1  2  0
  3  1  1  0
  4  2  1  0
  5  3  2  0
  7  6  2  0
  9  4  2  0
  9  5  1  0
 10  6  1  0
 10  8  2  0
 11  7  1  0
 12  8  1  0
 12 11  2  0
 13  9  1  0
 14 11  1  0
 14 13  2  0
 15 12  1  0
 15 13  1  0
 19 10  1  0
 19 16  1  0
 19 17  2  0
 19 18  2  0
M  END
>  <DRUGBANK_ID>  (1) 
DB11115

>  <COMMON_NAME>  (1) 
Ensulizole

>  <CAS_NUMBER>  (1) 
27503-81-7

>  <UNII>  (1) 
9YQ9DI1W42

>  <SYNONYMS>  (1) 
Ensulizole; phenylbenzimidazole sulfonic acid

$$$$
