829
     RDKit          3D

 20 22  0  0  0  0  0  0  0  0999 V2000
    1.0602    0.0122    0.0923 Cl  0  0  0  0  0  0  0  0  0  0  0  0
    9.1020    0.6461   -0.4970 O   0  0  0  0  0  0  0  0  0  0  0  0
    7.0129   -0.0875    0.1194 N   0  0  0  0  0  0  0  0  0  0  0  0
    6.6167    2.9187   -0.2980 N   0  0  0  0  0  0  0  0  0  0  0  0
    4.8851    1.2140    0.1579 C   0  0  0  0  0  0  0  0  0  0  0  0
    5.5939    0.0014    0.0745 C   0  0  0  0  0  0  0  0  0  0  0  0
    5.5563    2.5376    0.3287 C   0  0  0  0  0  0  0  0  0  0  0  0
    7.2520    1.9924   -1.2372 C   0  0  0  0  0  0  0  0  0  0  0  0
    7.8747    0.8230   -0.4894 C   0  0  0  0  0  0  0  0  0  0  0  0
    4.9619    3.4858    1.3179 C   0  0  0  0  0  0  0  0  0  0  0  0
    3.4770    1.2049    0.1669 C   0  0  0  0  0  0  0  0  0  0  0  0
    4.8571   -1.1939   -0.0342 C   0  0  0  0  0  0  0  0  0  0  0  0
    7.6341   -1.2055    0.8192 C   0  0  0  0  0  0  0  0  0  0  0  0
    2.7782    0.0062    0.0732 C   0  0  0  0  0  0  0  0  0  0  0  0
    3.4624   -1.1946   -0.0379 C   0  0  0  0  0  0  0  0  0  0  0  0
    4.6150    4.7896    0.9493 C   0  0  0  0  0  0  0  0  0  0  0  0
    4.7459    3.0430    2.6272 C   0  0  0  0  0  0  0  0  0  0  0  0
    4.1200    5.6688    1.9172 C   0  0  0  0  0  0  0  0  0  0  0  0
    4.1670    3.8974    3.5632 C   0  0  0  0  0  0  0  0  0  0  0  0
    3.8976    5.2220    3.2216 C   0  0  0  0  0  0  0  0  0  0  0  0
  1 14  1  0
  2  9  2  0
  3  6  1  0
  3  9  1  0
  3 13  1  0
  4  7  2  0
  4  8  1  0
  5  6  2  0
  5  7  1  0
  5 11  1  0
  6 12  1  0
  7 10  1  0
  8  9  1  0
 10 16  2  0
 10 17  1  0
 11 14  2  0
 12 15  2  0
 14 15  1  0
 16 18  1  0
 17 19  2  0
 18 20  2  0
 19 20  1  0
M  END
>  <DRUGBANK_ID>  (1) 
DB00829

>  <SECONDARY_ACCESSION_NUMBERS>  (1) 
APRD00642; DB07699

>  <COMMON_NAME>  (1) 
Diazepam

>  <CAS_NUMBER>  (1) 
439-14-5

>  <UNII>  (1) 
Q3JTX2Q7TU

>  <SYNONYMS>  (1) 
7-chloro-1,3-dihydro-1-methyl-5-phenyl-2H-1,4-benzodiazepin-2-one; Diazepam; Methyl diazepinone; NRL-1

$$$$
