163
     RDKit          3D

 31 32  0  0  1  0  0  0  0  0999 V2000
   -1.1401    1.3532    0.3548 O   0  0  0  0  0  0  0  0  0  0  0  0
    3.6927   -1.3227   -0.1215 O   0  0  0  0  0  0  0  0  0  0  0  0
   -2.2249    0.6329   -0.2711 C   0  0  2  0  0  0  0  0  0  0  0  0
   -3.5863    1.4098   -0.1724 C   0  0  0  0  0  0  0  0  0  0  0  0
   -2.3847   -0.6850    0.5044 C   0  0  0  0  0  0  0  0  0  0  0  0
   -4.0809    2.1548   -1.4435 C   0  0  0  0  0  0  0  0  0  0  0  0
   -4.8225   -0.0356   -2.5318 C   0  0  1  0  0  0  0  0  0  0  0  0
   -4.1559    1.3346   -2.7586 C   0  0  0  0  0  0  0  0  0  0  0  0
   -1.2142   -1.5706    0.1652 C   0  0  0  0  0  0  0  0  0  0  0  0
   -6.3225    0.2524   -2.3960 C   0  0  0  0  0  0  0  0  0  0  0  0
   -1.7772    0.4549   -1.7234 C   0  0  0  0  0  0  0  0  0  0  0  0
    0.0770   -0.7874    0.2007 C   0  0  0  0  0  0  0  0  0  0  0  0
   -6.8836    0.9951   -3.6159 C   0  0  0  0  0  0  0  0  0  0  0  0
    0.0597    0.6385    0.2873 C   0  0  0  0  0  0  0  0  0  0  0  0
   -6.6591    0.1885   -4.8944 C   0  0  0  0  0  0  0  0  0  0  0  0
   -7.3004   -1.2013   -4.7330 C   0  0  1  0  0  0  0  0  0  0  0  0
   -4.3339   -1.1248   -3.5191 C   0  0  0  0  0  0  0  0  0  0  0  0
   -8.8157   -0.9675   -4.6216 C   0  0  0  0  0  0  0  0  0  0  0  0
    1.2920   -1.4641    0.0118 C   0  0  0  0  0  0  0  0  0  0  0  0
    1.2437    1.3883    0.1987 C   0  0  0  0  0  0  0  0  0  0  0  0
   -9.3909   -0.1924   -5.8135 C   0  0  0  0  0  0  0  0  0  0  0  0
    2.4724    0.7018    0.0738 C   0  0  0  0  0  0  0  0  0  0  0  0
   -6.7718   -2.2296   -5.7350 C   0  0  0  0  0  0  0  0  0  0  0  0
    2.4735   -0.7114   -0.0141 C   0  0  0  0  0  0  0  0  0  0  0  0
   -9.2793   -0.9771   -7.1177 C   0  0  0  0  0  0  0  0  0  0  0  0
   -9.8935   -2.3752   -6.9600 C   0  0  0  0  0  0  0  0  0  0  0  0
    1.3273   -2.9650   -0.1427 C   0  0  0  0  0  0  0  0  0  0  0  0
    1.1693    2.8971    0.1885 C   0  0  0  0  0  0  0  0  0  0  0  0
    3.7769    1.4527    0.0556 C   0  0  0  0  0  0  0  0  0  0  0  0
  -11.3941   -2.2046   -6.7658 C   0  0  0  0  0  0  0  0  0  0  0  0
   -9.5430   -3.2875   -8.1212 C   0  0  0  0  0  0  0  0  0  0  0  0
  1  3  1  0
  1 14  1  0
  2 24  1  0
  3  5  1  0
  3 11  1  6
  3  4  1  0
  4  6  1  0
  5  9  1  0
  6  8  1  0
  7  8  1  0
  7 10  1  0
  7 17  1  6
  9 12  1  0
 10 13  1  0
 12 14  2  0
 12 19  1  0
 13 15  1  0
 14 20  1  0
 15 16  1  0
 16 18  1  0
 16 23  1  6
 18 21  1  0
 19 24  2  0
 19 27  1  0
 20 22  2  0
 20 28  1  0
 21 25  1  0
 22 24  1  0
 22 29  1  0
 25 26  1  0
 26 30  1  0
 26 31  1  0
M  END
>  <DRUGBANK_ID>  (1) 
DB00163

>  <SECONDARY_ACCESSION_NUMBERS>  (1) 
NUTR00061; EXPT03227

>  <COMMON_NAME>  (1) 
Vitamin E

>  <CAS_NUMBER>  (1) 
59-02-9

>  <UNII>  (1) 
N9PR3490H9

>  <SYNONYMS>  (1) 
(+)-α-tocopherol; (2R,4'R,8'R)-α-tocopherol; (R,R,R)-α-tocopherol; 5,7,8-trimethyltocol; alpha-tocopherol; d-α-tocopherol

$$$$
