
     RDKit          3D

 41 45  0  0  0  0  0  0  0  0999 V2000
    1.0319   -0.0654    0.0232 C   0  0  0  0  0  0  0  0  0  0  0  0
    0.4872   -0.9921   -1.0564 C   0  0  0  0  0  0  0  0  0  0  0  0
    1.0445   -2.4019   -0.8689 C   0  0  0  0  0  0  0  0  0  0  0  0
   -1.3190   -0.9672   -1.1269 S   0  0  0  0  0  0  0  0  0  0  0  0
   -1.7564    0.4189   -1.2739 O   0  0  0  0  0  0  0  0  0  0  0  0
   -1.7514   -1.9484   -2.0968 O   0  0  0  0  0  0  0  0  0  0  0  0
   -1.8606   -1.5347    0.4769 C   0  0  0  0  0  0  0  0  0  0  0  0
   -1.8265   -2.9267    0.7009 C   0  0  0  0  0  0  0  0  0  0  0  0
   -2.0482   -3.4450    1.9749 C   0  0  0  0  0  0  0  0  0  0  0  0
   -2.2953   -2.5799    3.0267 C   0  0  0  0  0  0  0  0  0  0  0  0
   -2.3618   -1.2077    2.7897 C   0  0  0  0  0  0  0  0  0  0  0  0
   -2.2473   -0.6520    1.4973 C   0  0  0  0  0  0  0  0  0  0  0  0
   -2.4571    0.7345    1.3084 N   0  0  0  0  0  0  0  0  0  0  0  0
   -2.8569    1.6277    2.3119 C   0  0  0  0  0  0  0  0  0  0  0  0
   -1.9578    1.8043    3.2767 N   0  0  0  0  0  0  0  0  0  0  0  0
   -2.3576    2.5172    4.3077 C   0  0  0  0  0  0  0  0  0  0  0  0
   -3.5501    3.0512    4.4483 N   0  0  0  0  0  0  0  0  0  0  0  0
   -4.3930    2.8580    3.4387 C   0  0  0  0  0  0  0  0  0  0  0  0
   -4.0880    2.1573    2.3354 N   0  0  0  0  0  0  0  0  0  0  0  0
   -5.6872    3.3527    3.6048 N   0  0  0  0  0  0  0  0  0  0  0  0
   -6.1909    4.1126    4.6795 C   0  0  0  0  0  0  0  0  0  0  0  0
   -5.5507    5.3209    4.9980 C   0  0  0  0  0  0  0  0  0  0  0  0
   -6.0552    6.2042    5.9576 C   0  0  0  0  0  0  0  0  0  0  0  0
   -7.2094    5.9117    6.6738 C   0  0  0  0  0  0  0  0  0  0  0  0
   -7.8413    4.6809    6.3839 C   0  0  0  0  0  0  0  0  0  0  0  0
   -7.3199    3.7544    5.4355 C   0  0  0  0  0  0  0  0  0  0  0  0
   -7.9880    2.5468    5.3846 O   0  0  0  0  0  0  0  0  0  0  0  0
   -7.3546    1.4539    4.7136 C   0  0  0  0  0  0  0  0  0  0  0  0
   -7.6463    6.7803    7.6507 N   0  0  0  0  0  0  0  0  0  0  0  0
   -7.6914    6.3834    9.0397 C   0  0  0  0  0  0  0  0  0  0  0  0
   -9.1059    6.5721    9.5056 C   0  0  0  0  0  0  0  0  0  0  0  0
   -9.8006    7.8971    9.1558 C   0  0  0  0  0  0  0  0  0  0  0  0
   -9.4268    8.4014    7.7428 C   0  0  0  0  0  0  0  0  0  0  0  0
   -7.9480    8.1909    7.4245 C   0  0  0  0  0  0  0  0  0  0  0  0
  -11.2784    7.8958    9.3568 N   0  0  0  0  0  0  0  0  0  0  0  0
  -11.6856    7.5004   10.7255 C   0  0  0  0  0  0  0  0  0  0  0  0
  -11.6915    5.9759   11.0026 C   0  0  0  0  0  0  0  0  0  0  0  0
  -12.4531    5.2037   10.0045 N   0  0  0  0  0  0  0  0  0  0  0  0
  -12.0590    5.5512    8.6267 C   0  0  0  0  0  0  0  0  0  0  0  0
  -12.0470    7.0757    8.3872 C   0  0  0  0  0  0  0  0  0  0  0  0
  -12.2423    3.7780   10.2300 C   0  0  0  0  0  0  0  0  0  0  0  0
  1  2  1  0
  2  3  1  0
  2  4  1  0
  4  5  2  0
  4  6  2  0
  4  7  1  0
  7  8  2  0
  7 12  1  0
  8  9  1  0
  9 10  2  0
 10 11  1  0
 11 12  2  0
 12 13  1  0
 13 14  1  0
 14 15  2  0
 14 19  1  0
 15 16  1  0
 16 17  2  0
 17 18  1  0
 18 19  2  0
 18 20  1  0
 20 21  1  0
 21 22  2  0
 21 26  1  0
 22 23  1  0
 23 24  2  0
 24 25  1  0
 24 29  1  0
 25 26  2  0
 26 27  1  0
 27 28  1  0
 29 30  1  0
 29 34  1  0
 30 31  1  0
 31 32  1  0
 32 33  1  0
 32 35  1  0
 33 34  1  0
 35 36  1  0
 35 40  1  0
 36 37  1  0
 37 38  1  0
 38 39  1  0
 38 41  1  0
 39 40  1  0
M  END
>  <DRUGBANK_ID>  (1) 
DB12729

>  <COMMON_NAME>  (1) 
ASP-3026

>  <CAS_NUMBER>  (1) 
1097917-15-1

>  <UNII>  (1) 
HP4L6MXF10

$$$$
