
     RDKit          3D

  5  4  0  0  0  0  0  0  0  0999 V2000
    0.9239    0.1439   -0.0438 O   0  0  0  0  0  0  0  0  0  0  0  0
    0.9633    1.7963   -1.9727 O   0  0  0  0  0  0  0  0  0  0  0  0
    0.9103   -0.6405   -2.3711 O   0  0  0  0  0  0  0  0  0  0  0  0
   -1.4457    0.4363   -1.5415 S   0  0  0  0  0  0  0  0  0  0  0  0
    0.3710    0.3841   -1.5214 S   0  0  0  0  0  0  0  0  0  0  0  0
  5  1  1  0
  5  2  1  0
  5  3  2  0
  5  4  2  0
M  END
>  <DRUGBANK_ID>  (1) 
DB09499

>  <COMMON_NAME>  (1) 
Thiosulfuric acid

>  <CAS_NUMBER>  (1) 
13686-28-7

>  <UNII>  (1) 
7K79Y2EKKP

>  <SYNONYMS>  (1) 
Monosulfanemonosulfonic acid; Sulfurothioic S-acid

$$$$
