997
     RDKit          3D

 39 43  0  0  1  0  0  0  0  0999 V2000
   -0.8462    0.0046    1.4277 O   0  0  0  0  0  0  0  0  0  0  0  0
   -0.7488    1.0973   -0.7472 O   0  0  0  0  0  0  0  0  0  0  0  0
   -0.6727    0.4565    4.2252 O   0  0  0  0  0  0  0  0  0  0  0  0
    0.4495    3.8187   -1.1354 O   0  0  0  0  0  0  0  0  0  0  0  0
    0.5923   -2.4578    0.2234 O   0  0  0  0  0  0  0  0  0  0  0  0
    2.5226   -2.5418    5.4289 O   0  0  0  0  0  0  0  0  0  0  0  0
   -0.0317    3.1196    4.5984 O   0  0  0  0  0  0  0  0  0  0  0  0
    2.8272    1.9396    5.9679 O   0  0  0  0  0  0  0  0  0  0  0  0
    0.9494   -4.7123    0.2107 O   0  0  0  0  0  0  0  0  0  0  0  0
    2.8156   -5.0400    5.1226 O   0  0  0  0  0  0  0  0  0  0  0  0
    1.2989   -7.6753   -0.1892 O   0  0  0  0  0  0  0  0  0  0  0  0
    1.2003    3.9914    1.8294 N   0  0  0  0  0  0  0  0  0  0  0  0
    0.5266   -0.1749    1.7367 C   0  0  1  0  0  0  0  0  0  0  0  0
    0.7010    0.8370    4.0777 C   0  0  2  0  0  0  0  0  0  0  0  0
    1.0771    0.8443    2.6520 C   0  0  0  0  0  0  0  0  0  0  0  0
    1.6202   -0.2271    4.5452 C   0  0  0  0  0  0  0  0  0  0  0  0
    0.9143   -1.4472    2.3618 C   0  0  0  0  0  0  0  0  0  0  0  0
    1.4621   -1.4666    3.6768 C   0  0  0  0  0  0  0  0  0  0  0  0
   -1.1849    1.1746    0.6245 C   0  0  2  0  0  0  0  0  0  0  0  0
   -0.8298    2.5534    1.2421 C   0  0  0  0  0  0  0  0  0  0  0  0
    0.6879    2.9253    0.9772 C   0  0  1  0  0  0  0  0  0  0  0  0
    1.0810    2.7666   -0.4535 C   0  0  1  0  0  0  0  0  0  0  0  0
    0.6322    1.3902   -0.9791 C   0  0  2  0  0  0  0  0  0  0  0  0
    0.9391   -2.5468    1.5516 C   0  0  0  0  0  0  0  0  0  0  0  0
    0.9025    2.3081    4.5824 C   0  0  0  0  0  0  0  0  0  0  0  0
    1.9872   -2.6219    4.1803 C   0  0  0  0  0  0  0  0  0  0  0  0
    1.4332   -3.7150    2.1185 C   0  0  0  0  0  0  0  0  0  0  0  0
    1.9354   -3.7632    3.4131 C   0  0  0  0  0  0  0  0  0  0  0  0
    1.0720    1.2686   -2.4140 C   0  0  0  0  0  0  0  0  0  0  0  0
    2.2960    2.7794    4.9630 C   0  0  0  0  0  0  0  0  0  0  0  0
    1.3934   -4.9106    1.3443 C   0  0  0  0  0  0  0  0  0  0  0  0
    2.3872   -5.0245    3.9703 C   0  0  0  0  0  0  0  0  0  0  0  0
    1.8022   -6.2191    1.8342 C   0  0  0  0  0  0  0  0  0  0  0  0
    2.2969   -6.2449    3.1560 C   0  0  0  0  0  0  0  0  0  0  0  0
    1.7311   -7.4121    1.0909 C   0  0  0  0  0  0  0  0  0  0  0  0
    2.7218   -7.4283    3.7523 C   0  0  0  0  0  0  0  0  0  0  0  0
    2.1696   -8.5898    1.7183 C   0  0  0  0  0  0  0  0  0  0  0  0
    2.6585   -8.6038    3.0277 C   0  0  0  0  0  0  0  0  0  0  0  0
    0.8082   -6.6255   -1.0061 C   0  0  0  0  0  0  0  0  0  0  0  0
  2 19  1  0
  2 23  1  0
  5 24  1  0
  6 26  1  0
  7 25  2  0
  8 30  1  0
  9 31  2  0
 10 32  2  0
 11 35  1  0
 11 39  1  0
 13 15  1  0
 13 17  1  0
 13  1  1  1
 14 15  1  0
 14 16  1  0
 14 25  1  0
 14  3  1  6
 16 18  1  0
 17 18  2  0
 17 24  1  0
 18 26  1  0
 19  1  1  1
 19 20  1  0
 20 21  1  0
 21 12  1  6
 21 22  1  0
 22  4  1  6
 22 23  1  0
 23 29  1  6
 24 27  2  0
 25 30  1  0
 26 28  2  0
 27 28  1  0
 27 31  1  0
 28 32  1  0
 31 33  1  0
 32 34  1  0
 33 34  2  0
 33 35  1  0
 34 36  1  0
 35 37  2  0
 36 38  2  0
 37 38  1  0
M  END
>  <DRUGBANK_ID>  (1) 
DB00997

>  <SECONDARY_ACCESSION_NUMBERS>  (1) 
APRD00185; DB05331; DB05847

>  <COMMON_NAME>  (1) 
Doxorubicin

>  <CAS_NUMBER>  (1) 
23214-92-8

>  <UNII>  (1) 
80168379AG

>  <SYNONYMS>  (1) 
(1S,3S)-3-glycoloyl-3,5,12-trihydroxy-10-methoxy-6,11-dioxo-1,2,3,4,6,11-hexahydrotetracen-1-yl 3-amino-2,3,6-trideoxy-α-L-lyxo-hexopyranoside; (8S-cis)-10-((3-amino-2,3,6-trideoxy-α-L-lyxo-hexopyranosyl)oxy)-7,8,9,10-tetrahydro-6,8,11-trihydroxy-8-(hydroxyacetyl)-1-methoxy-5,12-naphthacenedione; 14-hydroxydaunomycin; 14-hydroxydaunorubicine; Doxorubicin; Doxorubicin nanoparticles; Doxorubicina; Doxorubicine; Doxorubicinum; Hydroxydaunorubicin; MTC-DOX; MTC-DOX for Injection

$$$$
