
     RDKit          3D

 12 12  0  0  0  0  0  0  0  0999 V2000
    2.9200   -1.2159   -0.0292 C   0  0  0  0  0  0  0  0  0  0  0  0
    3.5997    0.0009   -0.0614 C   0  0  0  0  0  0  0  0  0  0  0  0
    2.8902    1.2092   -0.0700 C   0  0  0  0  0  0  0  0  0  0  0  0
    1.4874    1.1805   -0.0844 C   0  0  0  0  0  0  0  0  0  0  0  0
    0.8135   -0.0390   -0.0415 C   0  0  0  0  0  0  0  0  0  0  0  0
    1.5247   -1.2374   -0.0090 C   0  0  0  0  0  0  0  0  0  0  0  0
   -1.2638   -0.0567    0.0108 I   0  0  0  0  0  0  0  0  0  0  0  0
    3.6356    2.5215    0.0451 C   0  0  0  0  0  0  0  0  0  0  0  0
    4.4828    2.5813    1.2393 N   0  0  0  0  0  0  0  0  0  0  0  0
    3.9250    2.6046    2.3976 C   0  0  0  0  0  0  0  0  0  0  0  0
    2.6107    2.6271    2.7090 N   0  0  0  0  0  0  0  0  0  0  0  0
    4.6933    2.6590    3.4966 N   0  0  0  0  0  0  0  0  0  0  0  0
  1  2  2  0
  1  6  1  0
  2  3  1  0
  3  4  2  0
  3  8  1  0
  4  5  1  0
  5  6  2  0
  5  7  1  0
  8  9  1  0
  9 10  2  3
 10 11  1  0
 10 12  1  0
M  END
>  <DRUGBANK_ID>  (1) 
DB06704

>  <SECONDARY_ACCESSION_NUMBERS>  (1) 
DB09497

>  <COMMON_NAME>  (1) 
Iobenguane

>  <CAS_NUMBER>  (1) 
80663-95-2

>  <UNII>  (1) 
35MRW7B4AD

>  <SYNONYMS>  (1) 
((3-iodophenyl)methyl)guanidine; 3-iodobenzylguanidine; m-iodobenzylguanidine; Metaiodobenzylguanidine; mIBG

$$$$
