IN7
     RDKit          3D

 26 28  0  0  0  0  0  0  0  0999 V2000
    1.4364   -0.2260    0.0739 C   0  0  0  0  0  0  0  0  0  0  0  0
    0.5333   -1.2851   -0.0225 C   0  0  0  0  0  0  0  0  0  0  0  0
   -0.8478   -1.0671   -0.1265 C   0  0  0  0  0  0  0  0  0  0  0  0
    4.6946    0.9111    0.8152 C   0  0  0  0  0  0  0  0  0  0  0  0
    0.9008    1.0713    0.0610 C   0  0  0  0  0  0  0  0  0  0  0  0
   -3.5804    1.4240    0.7530 O   0  0  0  0  0  0  0  0  0  0  0  0
   -1.3678    0.2278   -0.0854 C   0  0  0  0  0  0  0  0  0  0  0  0
   -0.4871    1.3025    0.0381 C   0  0  0  0  0  0  0  0  0  0  0  0
   -5.3716   -1.6800    2.8783 O   0  0  0  0  0  0  0  0  0  0  0  0
   -3.0994    0.5807   -0.3193 S   0  0  0  0  0  0  0  0  0  0  0  0
    5.5396    0.2038   -0.2622 C   0  0  0  0  0  0  0  0  0  0  0  0
    4.6317   -0.4636   -1.3267 C   0  0  0  0  0  0  0  0  0  0  0  0
    3.5150   -1.3100   -0.7404 C   0  0  0  0  0  0  0  0  0  0  0  0
    2.7880   -0.4568    0.1831 N   0  0  0  0  0  0  0  0  0  0  0  0
    3.5609    0.0228    1.3205 C   0  0  0  0  0  0  0  0  0  0  0  0
    8.5661    2.6930   -2.1292 C   0  0  0  0  0  0  0  0  0  0  0  0
    8.5057    2.5986   -0.7393 C   0  0  0  0  0  0  0  0  0  0  0  0
    7.5181    1.8208   -0.1234 C   0  0  0  0  0  0  0  0  0  0  0  0
    6.5586    1.1501   -0.8973 C   0  0  0  0  0  0  0  0  0  0  0  0
    6.6056    1.3249   -2.2909 C   0  0  0  0  0  0  0  0  0  0  0  0
    7.6248    2.0379   -2.9062 C   0  0  0  0  0  0  0  0  0  0  0  0
   -3.2564    1.0207   -1.6849 O   0  0  0  0  0  0  0  0  0  0  0  0
   -3.9273   -0.9044   -0.2343 N   0  0  0  0  0  0  0  0  0  0  0  0
   -3.8664   -1.7143    0.9934 C   0  0  0  0  0  0  0  0  0  0  0  0
   -4.3233   -1.0754    2.2799 C   0  0  0  0  0  0  0  0  0  0  0  0
   -3.7560   -0.1315    2.8096 O   0  0  0  0  0  0  0  0  0  0  0  0
  1  2  2  0
  1  5  1  0
  1 14  1  0
  2  3  1  0
  3  7  2  0
  4 11  1  0
  4 15  1  0
  5  8  2  0
  6 10  2  0
  7  8  1  0
  7 10  1  0
  9 25  1  0
 10 22  2  0
 10 23  1  0
 11 12  1  0
 11 19  1  0
 12 13  1  0
 13 14  1  0
 14 15  1  0
 16 17  2  0
 16 21  1  0
 17 18  1  0
 18 19  2  0
 19 20  1  0
 20 21  2  0
 23 24  1  0
 24 25  1  0
 25 26  2  0
M  END
>  <DRUGBANK_ID>  (1) 
DB07986

>  <COMMON_NAME>  (1) 
[4-(4-PHENYL-PIPERIDIN-1-YL)-BENZENESULFONYLAMINO]-ACETIC ACID

$$$$
