
     RDKit          3D

 10 10  0  0  0  0  0  0  0  0999 V2000
    1.1491    0.1352    0.0637 O   0  0  0  0  0  0  0  0  0  0  0  0
    3.1111    0.4548    1.1429 N   0  0  0  0  0  0  0  0  0  0  0  0
    4.7821   -1.9114   -2.0631 N   0  0  0  0  0  0  0  0  0  0  0  0
    4.5491    0.5765    1.2739 C   0  0  0  0  0  0  0  0  0  0  0  0
    2.3763    0.0510    0.0540 C   0  0  0  0  0  0  0  0  0  0  0  0
    3.0613   -0.4760   -1.1410 C   0  0  0  0  0  0  0  0  0  0  0  0
    4.0638   -1.4289   -1.0228 C   0  0  0  0  0  0  0  0  0  0  0  0
    4.4373   -1.4613   -3.2878 C   0  0  0  0  0  0  0  0  0  0  0  0
    2.7084   -0.0516   -2.4215 C   0  0  0  0  0  0  0  0  0  0  0  0
    3.4102   -0.5559   -3.5168 C   0  0  0  0  0  0  0  0  0  0  0  0
  1  5  2  0
  2  4  1  0
  2  5  1  0
  3  7  2  0
  3  8  1  0
  5  6  1  0
  6  7  1  0
  6  9  2  0
  8 10  2  0
  9 10  1  0
M  END
>  <DRUGBANK_ID>  (1) 
DB08840

>  <COMMON_NAME>  (1) 
N-methylnicotinamide

>  <CAS_NUMBER>  (1) 
114-33-0

>  <UNII>  (1) 
X3I82S5L8I

>  <SYNONYMS>  (1) 
3-(Methylcarbamoyl)pyridine; 3-(N-Methylcarbamoyl)pyridine; N-Methyl nicotineamide; N-Methyl-3-pyridinecarboxamide; N-methylpyridine-3-carboxamide; Nicotinic acid methylamide; Nicotinyl methylamide

$$$$
