204
     RDKit          3D

 29 30  0  0  1  0  0  0  0  0999 V2000
    1.1388   -0.8332    0.1487 S   0  0  0  0  0  0  0  0  0  0  0  0
    0.7430    2.5410   -0.6024 S   0  0  0  0  0  0  0  0  0  0  0  0
    0.0209    6.0205    5.3545 O   0  0  0  0  0  0  0  0  0  0  0  0
    0.6160   -0.3633   -1.1155 O   0  0  0  0  0  0  0  0  0  0  0  0
    0.8664   -2.2049    0.4974 O   0  0  0  0  0  0  0  0  0  0  0  0
    1.9710    2.4711   -1.2883 O   0  0  0  0  0  0  0  0  0  0  0  0
   -0.3978    1.6106   -0.7248 O   0  0  0  0  0  0  0  0  0  0  0  0
    2.1087    4.0474    7.0435 N   0  0  0  0  0  0  0  0  0  0  0  0
    0.8369    0.1553    1.6531 N   0  0  0  0  0  0  0  0  0  0  0  0
    1.0539    2.5744    0.9930 N   0  0  0  0  0  0  0  0  0  0  0  0
    3.3164    4.4509    6.1874 C   0  0  0  0  0  0  0  0  0  0  0  0
    4.1803    3.3525    5.4410 C   0  0  0  0  0  0  0  0  0  0  0  0
    1.4730    5.3028    7.5224 C   0  0  0  0  0  0  0  0  0  0  0  0
    3.6086    2.2109    4.5667 C   0  0  0  0  0  0  0  0  0  0  0  0
    0.9727    6.3359    6.4149 C   0  0  0  0  0  0  0  0  0  0  0  0
    0.8837    3.3024    6.5881 C   0  0  0  0  0  0  0  0  0  0  0  0
    3.8771    2.2887    3.1966 C   0  0  0  0  0  0  0  0  0  0  0  0
    2.6083    1.2392    4.9965 C   0  0  0  0  0  0  0  0  0  0  0  0
    2.0135    0.5024    2.6921 C   0  0  0  0  0  0  0  0  0  0  0  0
    3.1587    1.4197    2.3175 C   0  0  0  0  0  0  0  0  0  0  0  0
    1.7196    0.5086    4.0735 C   0  0  0  0  0  0  0  0  0  0  0  0
    0.3618    5.3765    4.2065 C   0  0  0  0  0  0  0  0  0  0  0  0
    0.5813    3.4119    2.0268 C   0  0  0  0  0  0  0  0  0  0  0  0
    1.2808    4.4227    4.1043 C   0  0  0  0  0  0  0  0  0  0  0  0
   -0.4244    5.3775    3.0893 C   0  0  0  0  0  0  0  0  0  0  0  0
    1.2583    3.4439    3.1583 C   0  0  0  0  0  0  0  0  0  0  0  0
   -0.3688    4.3664    2.0850 C   0  0  0  0  0  0  0  0  0  0  0  0
    2.8509   -0.4776    0.0290 C   0  0  0  0  0  0  0  0  0  0  0  0
   -0.0398    4.0344   -0.7219 C   0  0  0  0  0  0  0  0  0  0  0  0
  1  4  2  0
  1  5  2  0
  1  9  1  0
  1 28  1  0
  2  6  2  0
  2  7  2  0
  2 10  1  0
  2 29  1  0
  3 15  1  0
  3 22  1  0
  8 11  1  0
  8 13  1  0
  8 16  1  0
  9 19  1  0
 10 23  1  0
 11 12  1  0
 12 14  1  0
 13 15  1  0
 14 17  2  0
 14 18  1  0
 17 20  1  0
 18 21  2  0
 19 20  2  0
 19 21  1  0
 22 24  2  0
 22 25  1  0
 23 26  2  0
 23 27  1  0
 24 26  1  0
 25 27  2  0
M  END
>  <DRUGBANK_ID>  (1) 
DB00204

>  <SECONDARY_ACCESSION_NUMBERS>  (1) 
APRD00367

>  <COMMON_NAME>  (1) 
Dofetilide

>  <CAS_NUMBER>  (1) 
115256-11-6

>  <UNII>  (1) 
R4Z9X1N2ND

>  <SYNONYMS>  (1) 
beta-((p-Methanesulfonamidophenethyl)methylamino)methanesulfono-p-phenetidide; Dofetilida; Dofetilide; Dofetilidum

$$$$
