A55
     RDKit          3D

 23 25  0  0  0  0  0  0  0  0999 V2000
   -2.4589    0.6622   -0.0346 C   0  0  0  0  0  0  0  0  0  0  0  0
   -2.4646   -0.7272    0.0018 C   0  0  0  0  0  0  0  0  0  0  0  0
   -1.2566   -1.4231    0.0045 C   0  0  0  0  0  0  0  0  0  0  0  0
   -0.0372   -0.7445   -0.0233 C   0  0  0  0  0  0  0  0  0  0  0  0
   -0.0194    0.6418   -0.1224 C   0  0  0  0  0  0  0  0  0  0  0  0
   -1.2418    1.3261   -0.1116 C   0  0  0  0  0  0  0  0  0  0  0  0
   -1.2391    2.6675   -0.1568 F   0  0  0  0  0  0  0  0  0  0  0  0
    1.1629    1.3498   -0.1178 N   0  0  0  0  0  0  0  0  0  0  0  0
    2.4196    0.6472   -0.0228 C   0  0  2  0  0  0  0  0  0  0  0  0
    2.4023   -0.8141   -0.0005 N   0  0  0  0  0  0  0  0  0  0  0  0
    1.2715   -1.4391   -0.0021 C   0  0  0  0  0  0  0  0  0  0  0  0
    1.3171   -2.8014    0.0123 N   0  0  0  0  0  0  0  0  0  0  0  0
    3.1476    1.1360    1.2449 C   0  0  0  0  0  0  0  0  0  0  0  0
    3.1578    2.6640    1.4098 C   0  0  0  0  0  0  0  0  0  0  0  0
    1.8320    3.2320    1.6549 N   0  0  0  0  0  0  0  0  0  0  0  0
    1.4668    3.9439    2.7640 C   0  0  0  0  0  0  0  0  0  0  0  0
    0.0765    4.3750    2.7712 C   0  0  0  0  0  0  0  0  0  0  0  0
   -1.1343    3.6672    2.5109 C   0  0  0  0  0  0  0  0  0  0  0  0
   -2.1656    4.5681    2.6514 C   0  0  0  0  0  0  0  0  0  0  0  0
   -1.6778    5.7834    3.0040 O   0  0  0  0  0  0  0  0  0  0  0  0
   -0.3292    5.6544    3.0914 C   0  0  0  0  0  0  0  0  0  0  0  0
    2.2486    4.2430    3.6636 O   0  0  0  0  0  0  0  0  0  0  0  0
   -1.3010   -2.7638    0.0209 F   0  0  0  0  0  0  0  0  0  0  0  0
  1  2  2  0
  1  6  1  0
  2  3  1  0
  3  4  2  0
  3 23  1  0
  4  5  1  0
  4 11  1  0
  5  6  2  0
  5  8  1  0
  6  7  1  0
  8  9  1  0
  9 10  1  0
  9 13  1  1
 10 11  2  0
 11 12  1  0
 13 14  1  0
 14 15  1  0
 15 16  1  0
 16 17  1  0
 16 22  2  0
 17 18  1  0
 17 21  2  0
 18 19  2  0
 19 20  1  0
 20 21  1  0
M  END
>  <DRUGBANK_ID>  (1) 
DB07318

>  <COMMON_NAME>  (1) 
N-[2-(4-AMINO-5,8-DIFLUORO-1,2-DIHYDROQUINAZOLIN-2-YL)ETHYL]-3-FURAMIDE

$$$$
