
     RDKit          3D

 28 31  0  0  0  0  0  0  0  0999 V2000
    1.5927   -0.3910    0.5869 C   0  0  0  0  0  0  0  0  0  0  0  0
    0.6713    0.7114    0.7643 N   0  0  0  0  0  0  0  0  0  0  0  0
    0.8344    1.2020    2.3877 C   0  0  0  0  0  0  0  0  0  0  0  0
    0.4463    0.9383    4.1280 C   0  0  0  0  0  0  0  0  0  0  0  0
    0.8382   -0.0584    4.9915 C   0  0  0  0  0  0  0  0  0  0  0  0
    0.5564   -0.5193    6.5042 C   0  0  0  0  0  0  0  0  0  0  0  0
   -0.2100   -1.8701    6.8520 C   0  0  0  0  0  0  0  0  0  0  0  0
    0.1596   -2.9831    6.0309 O   0  0  0  0  0  0  0  0  0  0  0  0
   -0.2590   -2.8993    4.7269 C   0  0  0  0  0  0  0  0  0  0  0  0
   -1.1457   -1.9119    4.2385 C   0  0  0  0  0  0  0  0  0  0  0  0
   -1.3554   -1.6741    2.8740 C   0  0  0  0  0  0  0  0  0  0  0  0
   -0.7231   -2.5851    2.0086 C   0  0  0  0  0  0  0  0  0  0  0  0
    0.1331   -3.6104    2.4826 C   0  0  0  0  0  0  0  0  0  0  0  0
    0.3547   -3.7788    3.8461 C   0  0  0  0  0  0  0  0  0  0  0  0
   -2.2265   -0.5193    2.4307 C   0  0  0  0  0  0  0  0  0  0  0  0
   -3.4716   -0.7582    1.9674 C   0  0  0  0  0  0  0  0  0  0  0  0
   -4.2838    0.3606    1.9393 C   0  0  0  0  0  0  0  0  0  0  0  0
   -3.8850    1.6655    2.0740 N   0  0  0  0  0  0  0  0  0  0  0  0
   -2.5964    1.8668    2.3169 C   0  0  0  0  0  0  0  0  0  0  0  0
   -2.0087    3.1988    2.2321 N   0  0  0  0  0  0  0  0  0  0  0  0
   -1.2235    3.7199    1.1408 C   0  0  0  0  0  0  0  0  0  0  0  0
   -0.4569    4.8994    1.0807 C   0  0  0  0  0  0  0  0  0  0  0  0
    0.5730    5.1197    0.1027 C   0  0  0  0  0  0  0  0  0  0  0  0
    0.9487    4.0721   -0.7409 C   0  0  0  0  0  0  0  0  0  0  0  0
    0.2742    2.8985   -0.5156 C   0  0  0  0  0  0  0  0  0  0  0  0
    0.8950    1.5404   -0.5473 C   0  0  0  0  0  0  0  0  0  0  0  0
   -0.9480    2.8109    0.1297 C   0  0  0  0  0  0  0  0  0  0  0  0
   -1.8306    0.7828    2.6302 N   0  0  0  0  0  0  0  0  0  0  0  0
  1  2  1  0
  2  3  1  0
  2 26  1  0
  3  4  1  0
  4  5  2  0
  5  6  1  0
  6  7  1  0
  7  8  1  0
  8  9  1  0
  9 10  1  0
  9 14  2  0
 10 11  2  0
 11 12  1  0
 11 15  1  0
 12 13  2  0
 13 14  1  0
 15 16  1  0
 15 28  2  0
 16 17  2  0
 17 18  1  0
 18 19  2  0
 19 20  1  0
 19 28  1  0
 20 21  1  0
 21 22  1  0
 21 27  2  0
 22 23  2  0
 23 24  1  0
 24 25  2  0
 25 26  1  0
 25 27  1  0
M  END
>  <DRUGBANK_ID>  (1) 
DB16656

>  <COMMON_NAME>  (1) 
Zotiraciclib

>  <CAS_NUMBER>  (1) 
1204918-72-8

>  <UNII>  (1) 
40D08182TT

$$$$
