
     RDKit          3D

 28 26  0  0  0  0  0  0  0  0999 V2000
    0.9199    0.0274    0.0532 N   0  0  0  0  0  0  0  0  0  0  0  0
    0.4299   -0.2092   -1.3124 C   0  0  0  0  0  0  0  0  0  0  0  0
    0.9366    0.8914   -2.2302 C   0  0  0  0  0  0  0  0  0  0  0  0
    2.4066    0.8914   -2.2302 N   0  0  0  0  0  0  0  0  0  0  0  0
    2.8966    1.9558   -3.1179 C   0  0  0  0  0  0  0  0  0  0  0  0
    2.3899    3.3009   -2.6237 C   0  0  0  0  0  0  0  0  0  0  0  0
    2.8799    3.5375   -1.2581 N   0  0  0  0  0  0  0  0  0  0  0  0
    2.3899    4.8384   -0.7802 C   0  0  0  0  0  0  0  0  0  0  0  0
    0.8699    4.8384   -0.7802 C   0  0  0  0  0  0  0  0  0  0  0  0
    0.1599    5.0483    0.4315 O   0  0  0  0  0  0  0  0  0  0  0  0
    0.2344    4.6505   -1.8647 O   0  0  0  0  0  0  0  0  0  0  0  0
    2.8965    1.1279   -0.8646 C   0  0  0  0  0  0  0  0  0  0  0  0
    2.3899    2.4731   -0.3705 C   0  0  0  0  0  0  0  0  0  0  0  0
    1.5735    2.5418    0.7894 O   0  0  0  0  0  0  0  0  0  0  0  0
    2.6969    3.5364   -0.9953 O   0  0  0  0  0  0  0  0  0  0  0  0
    2.3899    0.0274    0.0532 C   0  0  0  0  0  0  0  0  0  0  0  0
    2.8965    0.2720    1.4652 C   0  0  0  0  0  0  0  0  0  0  0  0
    3.6272   -0.5963    2.0375 O   0  0  0  0  0  0  0  0  0  0  0  0
    2.5535    1.4706    2.1450 O   0  0  0  0  0  0  0  0  0  0  0  0
    0.4299    1.3283    0.5311 C   0  0  0  0  0  0  0  0  0  0  0  0
    0.1107    3.1707   -1.0054 O   0  0  0  0  0  0  0  0  0  0  0  0
    0.9365    2.4289   -0.3867 C   0  0  0  0  0  0  0  0  0  0  0  0
    2.3326    2.6281   -0.5529 O   0  0  0  0  0  0  0  0  0  0  0  0
    2.3899    2.4731   -0.3705 C   0  0  0  0  0  0  0  0  0  0  0  0
    0.1599    1.3188   -0.7945 O   0  0  0  0  0  0  0  0  0  0  0  0
    0.8699    2.4731   -0.3705 C   0  0  0  0  0  0  0  0  0  0  0  0
    0.2344    3.5062    0.0091 O   0  0  0  0  0  0  0  0  0  0  0  0
    0.9372   -0.0364    0.0688 Gd  0  0  0  0  0 15  0  0  0  0  0  0
  1  2  1  0
  1 16  1  0
  2  3  1  0
  3  4  1  0
  4  5  1  0
  4 12  1  0
  5  6  1  0
  6  7  1  0
  7  8  1  0
  7 24  1  0
  8  9  1  0
  9 10  1  0
  9 11  2  0
 12 13  1  0
 13 14  1  0
 13 15  2  0
 16 17  1  0
 17 18  2  0
 17 19  1  0
 20  1  1  0
 20 22  1  0
 22 21  2  0
 22 23  1  0
 24 26  1  0
 26 25  1  0
 26 27  2  0
M  CHG  4  14  -1  23  -1  25  -1  28   3
M  END
>  <DRUGBANK_ID>  (1) 
DB00789

>  <SECONDARY_ACCESSION_NUMBERS>  (1) 
APRD00991

>  <COMMON_NAME>  (1) 
Gadopentetic acid

>  <CAS_NUMBER>  (1) 
80529-93-7

>  <UNII>  (1) 
K2I13DR72L

>  <SYNONYMS>  (1) 
Acide gadopentetique; ácido gadopentético; Acidum gadopenteticum; Gadolinium diethylenetriamine pentaacetic acid; Gadolinium DTPA; Gadopentetate; Gadopentetic acid

$$$$
