AIG
     RDKit          3D

 18 18  0  0  0  0  0  0  0  0999 V2000
    0.7252    1.1894   -0.5350 C   0  0  1  0  0  0  0  0  0  0  0  0
    1.1757    2.4179    0.1119 O   0  0  0  0  0  0  0  0  0  0  0  0
    1.4843   -0.0860   -0.0943 C   0  0  2  0  0  0  0  0  0  0  0  0
    2.8229   -0.1346   -0.6636 O   0  0  0  0  0  0  0  0  0  0  0  0
    0.7432   -1.3893   -0.4458 C   0  0  2  0  0  0  0  0  0  0  0  0
   -0.7901   -1.4192   -0.2222 C   0  0  1  0  0  0  0  0  0  0  0  0
   -1.1662   -2.0052    1.0281 O   0  0  0  0  0  0  0  0  0  0  0  0
   -1.4577   -0.1000   -0.6817 C   0  0  2  0  0  0  0  0  0  0  0  0
   -0.7094    1.1383   -0.6135 O   0  0  0  0  0  0  0  0  0  0  0  0
   -2.8569    0.0595   -0.0078 C   0  0  0  0  0  0  0  0  0  0  0  0
   -3.5156    1.2597   -0.3845 O   0  0  0  0  0  0  0  0  0  0  0  0
    1.4195   -2.5264    0.2030 N   0  0  0  0  0  0  0  0  0  0  0  0
    1.3171    2.5315    1.5351 C   0  0  0  0  0  0  0  0  0  0  0  0
   -0.0035    2.5940    2.3049 C   0  0  0  0  0  0  0  0  0  0  0  0
   -0.7256    1.2797    2.2793 C   0  0  0  0  0  0  0  0  0  0  0  0
    0.0944    0.1162    2.7950 C   0  0  0  0  0  0  0  0  0  0  0  0
   -0.1182   -0.1914    4.2330 C   0  0  0  0  0  0  0  0  0  0  0  0
   -1.5894   -0.3324    4.5371 C   0  0  0  0  0  0  0  0  0  0  0  0
  1  2  1  1
  1  3  1  0
  1  9  1  0
  2 13  1  0
  3  4  1  6
  3  5  1  0
  5  6  1  0
  5 12  1  1
  6  8  1  0
  6  7  1  1
  8  9  1  0
  8 10  1  1
 10 11  1  0
 13 14  1  0
 14 15  1  0
 15 16  1  0
 16 17  1  0
 17 18  1  0
M  END
>  <DRUGBANK_ID>  (1) 
DB07357

>  <COMMON_NAME>  (1) 
4-AMINO-2-HEXYLOXY-6-HYDROXYMETHYL-TETRAHYDRO-PYRAN-3,5-DIOL

$$$$
