
     RDKit          3D

 21 23  0  0  0  0  0  0  0  0999 V2000
    0.9606   -0.1146    0.0637 C   0  0  0  0  0  0  0  0  0  0  0  0
    1.5842    4.2115  -10.1089 C   0  0  0  0  0  0  0  0  0  0  0  0
    2.7353    4.8845   -9.6559 C   0  0  0  0  0  0  0  0  0  0  0  0
    0.8119    3.4287   -9.2404 C   0  0  0  0  0  0  0  0  0  0  0  0
    3.1410    4.7778   -8.3279 C   0  0  0  0  0  0  0  0  0  0  0  0
    1.0083    3.0593   -2.0550 C   0  0  0  0  0  0  0  0  0  0  0  0
    1.2301    0.7504   -2.7217 C   0  0  0  0  0  0  0  0  0  0  0  0
    1.2033    3.4410   -3.3817 C   0  0  0  0  0  0  0  0  0  0  0  0
    1.3363    1.1243   -4.0546 C   0  0  0  0  0  0  0  0  0  0  0  0
    0.6215    2.5587   -6.7858 C   0  0  0  0  0  0  0  0  0  0  0  0
    0.4655    1.2712   -0.3492 C   0  0  0  0  0  0  0  0  0  0  0  0
    0.9607    1.6997   -1.7218 C   0  0  0  0  0  0  0  0  0  0  0  0
    1.2245    3.3174   -7.9256 C   0  0  0  0  0  0  0  0  0  0  0  0
    1.3244    2.4720   -4.3826 C   0  0  0  0  0  0  0  0  0  0  0  0
    2.3756    3.9826   -7.4989 C   0  0  0  0  0  0  0  0  0  0  0  0
    2.5889    3.6783   -6.0863 C   0  0  0  0  0  0  0  0  0  0  0  0
   -1.0603    1.2974   -0.3037 C   0  0  0  0  0  0  0  0  0  0  0  0
    1.5428    2.8581   -5.7049 N   0  0  0  0  0  0  0  0  0  0  0  0
    3.5466    4.0700   -5.4374 O   0  0  0  0  0  0  0  0  0  0  0  0
   -1.7436    1.9882    0.4373 O   0  0  0  0  0  0  0  0  0  0  0  0
   -1.6501    0.4599   -1.1863 O   0  0  0  0  0  0  0  0  0  0  0  0
  3  2  2  0
  4  2  1  0
  5  3  1  0
  8  6  2  0
  9  7  1  0
 11  1  1  0
 12  6  1  0
 12  7  2  0
 12 11  1  0
 13  4  2  0
 13 10  1  0
 14  8  1  0
 14  9  2  0
 15  5  2  0
 15 13  1  0
 16 15  1  0
 17 11  1  0
 18 10  1  0
 18 14  1  0
 18 16  1  0
 19 16  2  0
 20 17  2  0
 21 17  1  0
M  END
>  <DRUGBANK_ID>  (1) 
DB08951

>  <COMMON_NAME>  (1) 
Indoprofen

>  <CAS_NUMBER>  (1) 
31842-01-0

>  <UNII>  (1) 
CPE46ZU14N

>  <SYNONYMS>  (1) 
Indoprofen; indoprofeno

$$$$
