
     RDKit          3D

 16 17  0  0  0  0  0  0  0  0999 V2000
   -2.5381    0.7325    0.0002 C   0  0  0  0  0  0  0  0  0  0  0  0
   -2.5424   -0.6684    0.0020 C   0  0  0  0  0  0  0  0  0  0  0  0
   -1.3513   -1.3549   -0.0010 C   0  0  0  0  0  0  0  0  0  0  0  0
   -1.3458    1.4700   -0.0014 C   0  0  0  0  0  0  0  0  0  0  0  0
   -0.1400    0.7974   -0.0015 C   0  0  0  0  0  0  0  0  0  0  0  0
   -0.1754   -0.6152   -0.0021 C   0  0  0  0  0  0  0  0  0  0  0  0
    1.0070   -1.3857   -0.0017 C   0  0  0  0  0  0  0  0  0  0  0  0
    2.1263   -0.6868    0.0004 C   0  0  0  0  0  0  0  0  0  0  0  0
    2.4472    0.7032    0.0006 C   0  0  0  0  0  0  0  0  0  0  0  0
    1.1735    1.5633   -0.0005 C   0  0  0  0  0  0  0  0  0  0  0  0
    1.2160    2.7808   -0.0002 O   0  0  0  0  0  0  0  0  0  0  0  0
    3.6788    1.1451    0.0020 N   0  0  0  0  0  0  0  0  0  0  0  0
    4.8463    0.2946    0.0031 N   0  0  0  0  0  0  0  0  0  0  0  0
    5.0854   -1.0787    0.0027 C   0  0  0  0  0  0  0  0  0  0  0  0
    6.3546   -1.4865    0.0052 N   0  0  0  0  0  0  0  0  0  0  0  0
    4.4245   -2.1138    0.0010 O   0  0  0  0  0  0  0  0  0  0  0  0
  1  2  2  0
  2  3  1  0
  3  6  2  0
  4  1  1  0
  5  4  2  0
  5  6  1  0
  6  7  1  0
  7  8  2  0
  8  9  1  0
  9 10  1  0
  9 12  2  0
 10  5  1  0
 10 11  2  0
 12 13  1  0
 13 14  1  0
 14 15  1  0
 14 16  2  0
M  END
>  <DRUGBANK_ID>  (1) 
DB13680

>  <COMMON_NAME>  (1) 
Naftazone

>  <CAS_NUMBER>  (1) 
15687-37-3

>  <UNII>  (1) 
15B0523P5L

>  <SYNONYMS>  (1) 
Naftazona; Naftazone; Naftazonum

$$$$
