
     RDKit          3D

 24 24  0  0  0  0  0  0  0  0999 V2000
    1.1263   -0.0683    0.1319 C   0  0  0  0  0  0  0  0  0  0  0  0
    0.7126    1.3513    0.4828 C   0  0  0  0  0  0  0  0  0  0  0  0
    1.2108    2.3338   -0.5773 C   0  0  0  0  0  0  0  0  0  0  0  0
    0.6356    2.0095   -1.9608 C   0  0  0  0  0  0  0  0  0  0  0  0
   -0.8955    2.0642   -1.9415 C   0  0  0  0  0  0  0  0  0  0  0  0
   -1.3597    3.4675   -1.5413 C   0  0  0  0  0  0  0  0  0  0  0  0
   -0.7893    4.5003   -2.5241 C   0  0  0  0  0  0  0  0  0  0  0  0
   -1.2866    4.2026   -3.9342 C   0  0  0  0  0  0  0  0  0  0  0  0
   -2.7994    4.2297   -3.9259 C   0  0  0  0  0  0  0  0  0  0  0  0
   -3.2825    5.6248   -3.4780 C   0  0  0  0  0  0  0  0  0  0  0  0
   -3.0003    6.6773   -4.5511 C   0  0  0  0  0  0  0  0  0  0  0  0
   -3.4684    6.2902   -5.9561 C   0  0  0  0  0  0  0  0  0  0  0  0
   -4.8780    6.1844   -6.1147 O   0  0  0  0  0  0  0  0  0  0  0  0
   -5.5474    5.2854   -5.2345 C   0  0  1  0  0  0  0  0  0  0  0  0
   -6.2468    5.9844   -4.2104 O   0  0  0  0  0  0  0  0  0  0  0  0
   -7.2087    6.8788   -4.7643 C   0  0  2  0  0  0  0  0  0  0  0  0
   -7.8661    7.6537   -3.6144 C   0  0  0  0  0  0  0  0  0  0  0  0
   -6.8874    8.3991   -2.8838 O   0  0  0  0  0  0  0  0  0  0  0  0
   -8.2284    6.0677   -5.5774 C   0  0  1  0  0  0  0  0  0  0  0  0
   -9.1697    6.9411   -6.1857 O   0  0  0  0  0  0  0  0  0  0  0  0
   -7.5457    5.1706   -6.6396 C   0  0  2  0  0  0  0  0  0  0  0  0
   -8.4994    4.3006   -7.2545 O   0  0  0  0  0  0  0  0  0  0  0  0
   -6.4407    4.3432   -6.0097 C   0  0  1  0  0  0  0  0  0  0  0  0
   -5.6639    3.6276   -6.9809 O   0  0  0  0  0  0  0  0  0  0  0  0
  1  2  1  0
  2  3  1  0
  3  4  1  0
  4  5  1  0
  5  6  1  0
  6  7  1  0
  7  8  1  0
  8  9  1  0
  9 10  1  0
 10 11  1  0
 11 12  1  0
 12 13  1  0
 14 13  1  6
 14 15  1  0
 16 15  1  0
 16 17  1  1
 17 18  1  0
 19 16  1  0
 19 20  1  6
 19 21  1  0
 21 22  1  1
 21 23  1  0
 23 14  1  0
 23 24  1  6
M  END
>  <DRUGBANK_ID>  (1) 
DB14746

>  <COMMON_NAME>  (1) 
Lauryl glucoside

>  <CAS_NUMBER>  (1) 
27836-64-2

>  <UNII>  (1) 
76LN7P7UCU

>  <SYNONYMS>  (1) 
Dodecyl D-glucopyranoside; Dodecyl D-glucoside

$$$$
