
     RDKit          3D

 12 12  0  0  0  0  0  0  0  0999 V2000
    1.2974    0.1240    0.2905 C   0  0  0  0  0  0  0  0  0  0  0  0
    0.3868    1.3540    0.4180 C   0  0  2  0  0  0  0  0  0  0  0  0
   -0.1181    2.8748   -2.0416 C   0  0  1  0  0  0  0  0  0  0  0  0
   -0.9251    1.1978   -0.3898 C   0  0  2  0  0  0  0  0  0  0  0  0
   -0.7980    1.5147   -1.9111 C   0  0  2  0  0  0  0  0  0  0  0  0
    1.1909    2.9030   -1.2592 C   0  0  2  0  0  0  0  0  0  0  0  0
    0.1137    3.1781   -3.3482 F   0  0  0  0  0  0  0  0  0  0  0  0
    2.0771    1.9963   -1.7496 F   0  0  0  0  0  0  0  0  0  0  0  0
    1.3683   -0.3167   -1.0571 O   0  0  0  0  0  0  0  0  0  0  0  0
   -1.8822    2.1595    0.1179 O   0  0  0  0  0  0  0  0  0  0  0  0
   -0.1654    0.5655   -2.7892 O   0  0  0  0  0  0  0  0  0  0  0  0
    1.0411    2.6003    0.1266 O   0  0  0  0  0  0  0  0  0  0  0  0
  2  1  1  6
  2 12  1  0
  3  5  1  0
  3  6  1  0
  3  7  1  6
  4  2  1  0
  4 10  1  1
  5  4  1  0
  5 11  1  6
  6  8  1  6
  9  1  1  0
 12  6  1  0
M  END
>  <DRUGBANK_ID>  (1) 
DB02318

>  <SECONDARY_ACCESSION_NUMBERS>  (1) 
EXPT01456

>  <COMMON_NAME>  (1) 
2-deoxy-2-fluoro-alpha-D-mannosyl fluoride

$$$$
