RS7
     RDKit          3D

 19 19  0  0  0  0  0  0  0  0999 V2000
    0.9874   -0.1389    0.1293 C   0  0  0  0  0  0  0  0  0  0  0  0
    0.4009   -1.2084    0.1364 O   0  0  0  0  0  0  0  0  0  0  0  0
    2.3349   -0.0572    0.0835 O   0  0  0  0  0  0  0  0  0  0  0  0
    0.3060    1.1743    0.0938 C   0  0  0  0  0  0  0  0  0  0  0  0
   -1.0379    1.2374    0.0106 C   0  0  0  0  0  0  0  0  0  0  0  0
   -1.7873    2.5073   -0.1289 C   0  0  0  0  0  0  0  0  0  0  0  0
   -2.9015    2.7139    0.7023 C   0  0  0  0  0  0  0  0  0  0  0  0
   -3.6207    3.9144    0.6519 C   0  0  0  0  0  0  0  0  0  0  0  0
   -3.2552    4.9138   -0.2466 C   0  0  0  0  0  0  0  0  0  0  0  0
   -2.1802    4.7098   -1.1085 C   0  0  0  0  0  0  0  0  0  0  0  0
   -1.4550    3.5141   -1.0620 C   0  0  0  0  0  0  0  0  0  0  0  0
   -0.3836    3.3410   -2.0017 C   0  0  0  0  0  0  0  0  0  0  0  0
    0.5129    3.0607   -2.7423 C   0  0  0  0  0  0  0  0  0  0  0  0
    1.5700    2.5154   -3.6061 C   0  0  0  0  0  0  0  0  0  0  0  0
    2.0976    1.1899   -3.0500 C   0  0  0  0  0  0  0  0  0  0  0  0
    0.9954    0.1243   -2.9597 C   0  0  0  0  0  0  0  0  0  0  0  0
    0.3654   -0.2039   -4.3046 C   0  0  0  0  0  0  0  0  0  0  0  0
    1.4037   -0.7431   -5.2773 C   0  0  0  0  0  0  0  0  0  0  0  0
    2.0206   -2.0268   -4.7439 C   0  0  0  0  0  0  0  0  0  0  0  0
  1  4  1  0
  2  1  2  0
  3  1  1  0
  4  5  2  0
  5  6  1  0
  6 11  2  0
  7  6  1  0
  7  8  2  0
  8  9  1  0
  9 10  2  0
 11 12  1  0
 11 10  1  0
 12 13  3  0
 13 14  1  0
 14 15  1  0
 16 15  1  0
 17 16  1  0
 18 17  1  0
 19 18  1  0
M  END
>  <DRUGBANK_ID>  (1) 
DB08492

>  <COMMON_NAME>  (1) 
(2E)-3-(2-OCT-1-YN-1-YLPHENYL)ACRYLIC ACID

$$$$
