
     RDKit          3D

 21 22  0  0  0  0  0  0  0  0999 V2000
   -0.2181    1.0703   -0.0069 N   0  0  0  0  0  0  0  0  0  0  0  0
   -0.5399    2.5034    0.0858 C   0  0  1  0  0  0  0  0  0  0  0  0
    1.0179   -0.6399   -0.0278 C   0  0  0  0  0  0  0  0  0  0  0  0
    1.0756    0.7048   -0.0503 N   0  0  0  0  0  0  0  0  0  0  0  0
   -0.2651   -1.1359    0.0193 N   0  0  0  0  0  0  0  0  0  0  0  0
   -1.2172    3.1351   -1.1332 C   0  0  1  0  0  0  0  0  0  0  0  0
   -1.4076    2.6997    1.2242 O   0  0  0  0  0  0  0  0  0  0  0  0
   -0.9984   -0.0493    0.0897 C   0  0  0  0  0  0  0  0  0  0  0  0
   -2.2501    4.1004   -0.5294 C   0  0  1  0  0  0  0  0  0  0  0  0
   -2.5119    3.5667    0.8993 C   0  0  1  0  0  0  0  0  0  0  0  0
    2.2064   -1.5062   -0.0217 C   0  0  0  0  0  0  0  0  0  0  0  0
    3.3703   -1.0852   -0.0176 O   0  0  0  0  0  0  0  0  0  0  0  0
   -0.4324    3.6525   -2.1881 O   0  0  0  0  0  0  0  0  0  0  0  0
    1.9744   -2.8560   -0.0113 N   0  0  0  0  0  0  0  0  0  0  0  0
   -1.6781    5.4131   -0.4792 O   0  0  0  0  0  0  0  0  0  0  0  0
   -3.8326    2.8008    1.2061 C   0  0  0  0  0  0  0  0  0  0  0  0
   -3.9221    1.4690    0.6555 O   0  0  0  0  0  0  0  0  0  0  0  0
   -3.4793    1.4308   -1.0164 P   0  0  0  0  0  0  0  0  0  0  0  0
   -4.2457    0.1359   -1.2310 O   0  0  0  0  0  0  0  0  0  0  0  0
   -4.5107    2.6465   -1.3392 O   0  0  0  0  0  0  0  0  0  0  0  0
   -3.0365    1.3926   -2.6883 O   0  0  0  0  0  0  0  0  0  0  0  0
  2  1  1  6
  3  4  2  0
  3  5  1  0
  4  1  1  0
  5  8  2  0
  6  2  1  0
  6 13  1  6
  7  2  1  0
  8  1  1  0
  9  6  1  0
  9 15  1  1
 10  7  1  0
 10  9  1  0
 10 16  1  6
 11  3  1  0
 12 11  2  0
 14 11  1  0
 17 16  1  0
 17 18  1  0
 18 19  2  0
 18 20  1  0
 18 21  1  0
M  END
>  <DRUGBANK_ID>  (1) 
DB14663

>  <SECONDARY_ACCESSION_NUMBERS>  (1) 
DBSALT001876

>  <COMMON_NAME>  (1) 
Ribavirin monophosphate

>  <CAS_NUMBER>  (1) 
40925-28-8

>  <UNII>  (1) 
O9FVV27P11

>  <SYNONYMS>  (1) 
Ribavirin 5'-monophosphate; Virazole 5'-phosphate

$$$$
