
     RDKit          3D

 19 19  0  0  0  0  0  0  0  0999 V2000
   -1.8329    0.0587   -0.1246 C   0  0  0  0  0  0  0  0  0  0  0  0
   -1.2017   -1.1834   -0.0290 C   0  0  0  0  0  0  0  0  0  0  0  0
   -3.3451    0.1093   -0.1226 C   0  0  0  0  0  0  0  0  0  0  0  0
   -1.0379    1.2059   -0.1843 C   0  0  0  0  0  0  0  0  0  0  0  0
    0.1917   -1.3194    0.0127 C   0  0  0  0  0  0  0  0  0  0  0  0
   -3.9085    0.7981    1.1402 C   0  0  0  0  0  0  0  0  0  0  0  0
   -3.7932    0.7729   -1.2996 O   0  0  0  0  0  0  0  0  0  0  0  0
    0.3380    1.1179   -0.0548 C   0  0  0  0  0  0  0  0  0  0  0  0
    0.9515   -0.1333    0.0130 C   0  0  0  0  0  0  0  0  0  0  0  0
    0.7879   -2.6137    0.0548 N   0  0  0  0  0  0  0  0  0  0  0  0
   -3.4570    2.2021    1.2719 N   0  0  0  0  0  0  0  0  0  0  0  0
    2.3160   -0.0711    0.0591 O   0  0  0  0  0  0  0  0  0  0  0  0
    0.1033   -3.8056    0.0690 C   0  0  0  0  0  0  0  0  0  0  0  0
   -3.9451    2.9038    2.4628 C   0  0  0  0  0  0  0  0  0  0  0  0
    0.8804   -4.9120    0.0972 N   0  0  0  0  0  0  0  0  0  0  0  0
   -1.1103   -3.9947    0.0667 O   0  0  0  0  0  0  0  0  0  0  0  0
   -3.4375    2.2029    3.7317 C   0  0  0  0  0  0  0  0  0  0  0  0
   -3.3423    4.3217    2.4126 C   0  0  0  0  0  0  0  0  0  0  0  0
   -5.4688    2.9970    2.4271 C   0  0  0  0  0  0  0  0  0  0  0  0
  1  2  2  0
  1  3  1  0
  1  4  1  0
  2  5  1  0
  3  6  1  0
  3  7  1  0
  4  8  2  0
  5  9  2  0
  5 10  1  0
  6 11  1  0
  8  9  1  0
  9 12  1  0
 10 13  1  0
 11 14  1  0
 13 15  1  0
 13 16  2  0
 14 17  1  0
 14 18  1  0
 14 19  1  0
M  END
>  <DRUGBANK_ID>  (1) 
DB13625

>  <COMMON_NAME>  (1) 
Carbuterol

>  <CAS_NUMBER>  (1) 
34866-47-2

>  <UNII>  (1) 
0N12JR32MR

>  <SYNONYMS>  (1) 
Carbuterol; Carbuterolum

$$$$
