
     RDKit          3D

 27 30  0  0  0  0  0  0  0  0999 V2000
    2.1147   -0.5266   -0.7876 C   0  0  0  0  0  0  0  0  0  0  0  0
   -1.5991   -2.3340    1.5777 C   0  0  0  0  0  0  0  0  0  0  0  0
   -3.2682   -1.5092    3.0851 C   0  0  0  0  0  0  0  0  0  0  0  0
   -0.6106   -2.1404    2.5386 C   0  0  0  0  0  0  0  0  0  0  0  0
   -2.3092   -1.4984    4.1032 C   0  0  0  0  0  0  0  0  0  0  0  0
    0.8818   -1.1720   -0.6899 C   0  0  0  0  0  0  0  0  0  0  0  0
    4.6084   -0.4133    1.3440 C   0  0  0  0  0  0  0  0  0  0  0  0
    3.5430    1.4306    2.4709 C   0  0  0  0  0  0  0  0  0  0  0  0
    3.4560   -1.3220    1.7957 C   0  0  0  0  0  0  0  0  0  0  0  0
    2.3265    0.5696    2.8343 C   0  0  0  0  0  0  0  0  0  0  0  0
    1.0867    1.6042   -0.2249 C   0  0  0  0  0  0  0  0  0  0  0  0
    3.5938    1.4166   -0.0328 C   0  0  0  0  0  0  0  0  0  0  0  0
    1.1452   -1.3336    4.8124 C   0  0  0  0  0  0  0  0  0  0  0  0
   -2.1954    0.4383   -0.2217 C   0  0  0  0  0  0  0  0  0  0  0  0
    2.2434    0.8288   -0.3986 C   0  0  0  0  0  0  0  0  0  0  0  0
   -2.9207   -1.9887    1.8335 C   0  0  0  0  0  0  0  0  0  0  0  0
   -0.9702   -1.7970    3.8329 C   0  0  0  0  0  0  0  0  0  0  0  0
   -0.2245   -0.3696   -0.5548 C   0  0  0  0  0  0  0  0  0  0  0  0
   -0.1278    0.9803   -0.3381 C   0  0  0  0  0  0  0  0  0  0  0  0
    2.1327   -1.7918    3.7475 C   0  0  0  0  0  0  0  0  0  0  0  0
   -4.1165   -2.0947    0.5948 Cl  0  0  0  0  0  0  0  0  0  0  0  0
    4.2393    1.0129    1.2393 N   0  0  0  0  0  0  0  0  0  0  0  0
    2.7490   -0.8396    2.9675 N   0  0  0  0  0  0  0  0  0  0  0  0
    2.3580   -3.0137    3.5757 O   0  0  0  0  0  0  0  0  0  0  0  0
   -0.1404   -1.9226    4.9109 O   0  0  0  0  0  0  0  0  0  0  0  0
   -1.5174   -0.7629   -0.6366 O   0  0  0  0  0  0  0  0  0  0  0  0
   -1.3361    1.5861   -0.2086 O   0  0  0  0  0  0  0  0  0  0  0  0
  4  2  2  0
  5  3  1  0
  6  1  2  0
  9  7  1  0
 10  8  1  0
 15  1  1  0
 15 11  2  0
 15 12  1  0
 16  2  1  0
 16  3  2  0
 17  4  1  0
 17  5  2  0
 18  6  1  0
 19 11  1  0
 19 18  2  0
 20 13  1  0
 21 16  1  0
 22  7  1  0
 22  8  1  0
 22 12  1  0
 23  9  1  0
 23 10  1  0
 23 20  1  0
 24 20  2  0
 25 13  1  0
 25 17  1  0
 26 14  1  0
 26 18  1  0
 27 14  1  0
 27 19  1  0
M  END
>  <DRUGBANK_ID>  (1) 
DB13790

>  <COMMON_NAME>  (1) 
Fipexide

>  <CAS_NUMBER>  (1) 
34161-24-5

>  <UNII>  (1) 
TG44VME01D

>  <SYNONYMS>  (1) 
Fipexide

$$$$
