1447
     RDKit          3D

 13 14  0  0  1  0  0  0  0  0999 V2000
   -0.3099    1.1053    0.1559 O   0  0  0  0  0  0  0  0  0  0  0  0
    1.0721   -0.7026   -0.1493 N   0  0  0  0  0  0  0  0  0  0  0  0
    1.9591    1.4353   -0.1703 N   0  0  0  0  0  0  0  0  0  0  0  0
   -1.2120   -0.0049   -0.0478 C   0  0  0  0  0  0  0  0  0  0  0  0
   -0.2758   -1.2229    0.1198 C   0  0  0  0  0  0  0  0  0  0  0  0
   -2.5613    0.0548    0.6936 C   0  0  0  0  0  0  0  0  0  0  0  0
   -0.2101   -1.8903    1.4872 C   0  0  0  0  0  0  0  0  0  0  0  0
    0.9319    0.5837   -0.0598 C   0  0  0  0  0  0  0  0  0  0  0  0
   -3.4434    1.1283    0.5049 C   0  0  0  0  0  0  0  0  0  0  0  0
   -3.0698   -0.9932    1.4846 C   0  0  0  0  0  0  0  0  0  0  0  0
   -4.7268    1.1311    1.0966 C   0  0  0  0  0  0  0  0  0  0  0  0
   -4.3523   -1.0284    2.0274 C   0  0  0  0  0  0  0  0  0  0  0  0
   -5.1794    0.0549    1.8594 C   0  0  0  0  0  0  0  0  0  0  0  0
  1  4  1  0
  1  8  1  0
  2  5  1  0
  2  8  2  0
  3  8  1  0
  4  5  1  0
  4  6  1  0
  5  7  1  0
  6  9  2  0
  6 10  1  0
  9 11  1  0
 10 12  2  0
 11 13  2  0
 12 13  1  0
M  END
>  <DRUGBANK_ID>  (1) 
DB01447

>  <COMMON_NAME>  (1) 
4-Methylaminorex

>  <CAS_NUMBER>  (1) 
3568-94-3

>  <UNII>  (1) 
7PK6VC94OU

$$$$
