1620
     RDKit          3D

 18 19  0  0  1  0  0  0  0  0999 V2000
    1.1412    0.0473   -0.0275 N   0  0  0  0  0  0  0  0  0  0  0  0
    0.7236   -4.6478    2.7262 N   0  0  0  0  0  0  0  0  0  0  0  0
    0.3679   -2.3003    2.0797 C   0  0  0  0  0  0  0  0  0  0  0  0
    0.9094   -2.4467    0.6460 C   0  0  0  0  0  0  0  0  0  0  0  0
    0.5467   -1.2776   -0.2917 C   0  0  0  0  0  0  0  0  0  0  0  0
   -1.1619   -2.2487    2.1451 C   0  0  0  0  0  0  0  0  0  0  0  0
    0.9702   -3.3466    3.0114 C   0  0  0  0  0  0  0  0  0  0  0  0
   -1.9050   -3.4220    2.0322 C   0  0  0  0  0  0  0  0  0  0  0  0
   -1.8822   -1.0486    2.3192 C   0  0  0  0  0  0  0  0  0  0  0  0
    1.6290   -2.9464    4.1719 C   0  0  0  0  0  0  0  0  0  0  0  0
    0.6238    0.7630    1.1246 C   0  0  0  0  0  0  0  0  0  0  0  0
    2.5936    0.0174    0.0047 C   0  0  0  0  0  0  0  0  0  0  0  0
   -3.2899   -3.4297    2.1547 C   0  0  0  0  0  0  0  0  0  0  0  0
   -3.2788   -1.0387    2.3518 C   0  0  0  0  0  0  0  0  0  0  0  0
    1.9679   -3.9118    5.1123 C   0  0  0  0  0  0  0  0  0  0  0  0
   -3.9818   -2.2272    2.2929 C   0  0  0  0  0  0  0  0  0  0  0  0
    1.0038   -5.5518    3.6797 C   0  0  0  0  0  0  0  0  0  0  0  0
    1.6154   -5.2363    4.8736 C   0  0  0  0  0  0  0  0  0  0  0  0
  1  5  1  0
  1 11  1  0
  1 12  1  0
  2  7  2  0
  2 17  1  0
  3  4  1  0
  3  6  1  0
  3  7  1  0
  4  5  1  0
  6  8  2  0
  6  9  1  0
  7 10  1  0
  8 13  1  0
  9 14  2  0
 10 15  2  0
 13 16  2  0
 14 16  1  0
 15 18  1  0
 17 18  2  0
M  END
>  <DRUGBANK_ID>  (1) 
DB01620

>  <COMMON_NAME>  (1) 
Pheniramine

>  <CAS_NUMBER>  (1) 
86-21-5

>  <UNII>  (1) 
134FM9ZZ6M

>  <SYNONYMS>  (1) 
Feniramina; Pheniramine; Pheniraminum

$$$$
