
     RDKit          3D

 32 34  0  0  1  0  0  0  0  0999 V2000
    2.9280    3.2240    3.4376 C   0  0  0  0  0  0  0  0  0  0  0  0
    3.0109    3.2363    1.8802 C   0  0  0  0  0  0  0  0  0  0  0  0
    2.9894    1.9669    4.0300 C   0  0  0  0  0  0  0  0  0  0  0  0
    3.0670    4.4885    1.4139 N   0  0  0  0  0  0  0  0  0  0  0  0
    2.8178    4.3621    4.2971 C   0  0  0  0  0  0  0  0  0  0  0  0
    2.9413    1.8399    5.4235 C   0  0  0  0  0  0  0  0  0  0  0  0
    2.9345    5.1565    0.1460 C   0  0  1  0  0  0  0  0  0  0  0  0
    2.7762    4.2122    5.6944 C   0  0  0  0  0  0  0  0  0  0  0  0
    3.5018    6.4775    0.6866 C   0  0  2  0  0  0  0  0  0  0  0  0
    2.8453    2.9433    6.2732 C   0  0  0  0  0  0  0  0  0  0  0  0
    3.2770    7.4597   -1.5378 N   0  0  0  0  0  0  0  0  0  0  0  0
    2.9460    7.5368   -0.1365 C   0  0  0  0  0  0  0  0  0  0  0  0
    3.3040    4.9896   -1.3854 C   0  0  0  0  0  0  0  0  0  0  0  0
    3.0096    2.3116    1.1184 O   0  0  0  0  0  0  0  0  0  0  0  0
    2.8336    6.2511   -2.1740 C   0  0  0  0  0  0  0  0  0  0  0  0
    2.7624    2.7286    7.6413 N   0  0  0  0  0  0  0  0  0  0  0  0
    2.6541    5.6211    6.7010 Cl  0  0  0  0  0  0  0  0  0  0  0  0
    3.1056    0.9160    3.1760 O   0  0  0  0  0  0  0  0  0  0  0  0
    5.5014   10.6727    0.8856 C   0  0  0  0  0  0  0  0  0  0  0  0
    4.9024    6.5621    0.9510 O   0  0  0  0  0  0  0  0  0  0  0  0
    2.7369   10.7172    0.3008 C   0  0  0  0  0  0  0  0  0  0  0  0
    6.8144   10.6193    1.1471 F   0  0  0  0  0  0  0  0  0  0  0  0
    4.5708   10.7863    1.9101 C   0  0  0  0  0  0  0  0  0  0  0  0
    5.0695   10.6841   -0.4187 C   0  0  0  0  0  0  0  0  0  0  0  0
    3.1876   10.7246    1.6240 C   0  0  0  0  0  0  0  0  0  0  0  0
    3.7136   10.9644   -0.6751 C   0  0  0  0  0  0  0  0  0  0  0  0
    2.8131    8.6381   -2.2127 C   0  0  0  0  0  0  0  0  0  0  0  0
    1.3602    9.0827   -2.1445 C   0  0  0  0  0  0  0  0  0  0  0  0
    1.3974   10.5135    0.0353 O   0  0  0  0  0  0  0  0  0  0  0  0
    0.8221    9.3961   -0.7287 C   0  0  0  0  0  0  0  0  0  0  0  0
    3.1996   -0.3797    3.7110 C   0  0  0  0  0  0  0  0  0  0  0  0
    5.7220    6.2713   -0.1608 C   0  0  0  0  0  0  0  0  0  0  0  0
  2  1  1  0
  3  1  2  0
  4  2  1  0
  5  1  1  0
  6  3  1  0
  7  4  1  1
  8  5  2  0
  9  7  1  0
  9 20  1  6
 10  6  2  0
 10  8  1  0
 12  9  1  0
 12 11  1  0
 13  7  1  0
 14  2  2  0
 15 11  1  0
 15 13  1  0
 16 10  1  0
 17  8  1  0
 18  3  1  0
 22 19  1  0
 23 19  2  0
 24 19  1  0
 25 21  2  0
 25 23  1  0
 26 21  1  0
 26 24  2  0
 27 11  1  0
 28 27  1  0
 29 21  1  0
 30 28  1  0
 30 29  1  0
 31 18  1  0
 32 20  1  0
M  END
>  <DRUGBANK_ID>  (1) 
DB00604

>  <SECONDARY_ACCESSION_NUMBERS>  (1) 
APRD00454

>  <COMMON_NAME>  (1) 
Cisapride

>  <CAS_NUMBER>  (1) 
81098-60-4

>  <UNII>  (1) 
UVL329170W

>  <SYNONYMS>  (1) 
Cisaprid; Cisaprida; Cisapride; Cisapridum

$$$$
