
     RDKit          3D

 25 26  0  0  0  0  0  0  0  0999 V2000
    0.9501   -0.0626    0.0599 C   0  0  0  0  0  0  0  0  0  0  0  0
    0.5073   -0.4589    1.5009 C   0  0  0  0  0  0  0  0  0  0  0  0
    0.6606    1.4634   -0.2226 C   0  0  0  0  0  0  0  0  0  0  0  0
    0.8707   -1.2008   -1.0911 C   0  0  0  0  0  0  0  0  0  0  0  0
    2.4701   -0.0626    0.0599 C   0  0  0  0  0  0  0  0  0  0  0  0
    0.6116   -1.7756    1.9758 C   0  0  0  0  0  0  0  0  0  0  0  0
    0.1097    0.4748    2.4696 C   0  0  0  0  0  0  0  0  0  0  0  0
    0.8668    2.0466   -1.6374 C   0  0  0  0  0  0  0  0  0  0  0  0
    1.7498   -1.0214   -2.4020 C   0  0  0  0  0  0  0  0  0  0  0  0
    1.2216   -2.6776   -0.8236 C   0  0  0  0  0  0  0  0  0  0  0  0
    3.7310   -0.0626    0.0599 N   0  0  0  0  0  0  0  0  0  0  0  0
    0.2291   -2.1930    3.2441 C   0  0  0  0  0  0  0  0  0  0  0  0
   -0.1102    0.0932    3.8043 C   0  0  0  0  0  0  0  0  0  0  0  0
    0.0707    1.3621   -2.7695 C   0  0  0  0  0  0  0  0  0  0  0  0
   -0.1060   -1.2477    4.1762 C   0  0  0  0  0  0  0  0  0  0  0  0
   -1.3730    1.2406   -2.9032 N   0  0  0  0  0  0  0  0  0  0  0  0
   -1.7267   -0.0227   -3.7279 C   0  0  0  0  0  0  0  0  0  0  0  0
   -1.9348    1.1306   -1.5797 C   0  0  0  0  0  0  0  0  0  0  0  0
   -1.4755   -1.5920   -3.4120 C   0  0  0  0  0  0  0  0  0  0  0  0
   -1.9927   -2.2820   -2.1344 C   0  0  0  0  0  0  0  0  0  0  0  0
   -1.6724   -3.5682   -1.7566 C   0  0  0  0  0  0  0  0  0  0  0  0
   -2.6565   -1.5449   -1.1510 C   0  0  0  0  0  0  0  0  0  0  0  0
   -1.8324   -3.9881   -0.4086 C   0  0  0  0  0  0  0  0  0  0  0  0
   -2.4405   -1.7851    0.2105 C   0  0  0  0  0  0  0  0  0  0  0  0
   -2.1386   -3.0455    0.5887 C   0  0  0  0  0  0  0  0  0  0  0  0
  1  2  1  0
  1  3  1  0
  1  4  1  0
  1  5  1  0
  2  6  2  0
  2  7  1  0
  3  8  1  0
  4  9  1  0
  4 10  1  0
  5 11  3  0
  6 12  1  0
  7 13  2  0
  8 14  1  0
 12 15  2  0
 13 15  1  0
 14 16  1  0
 16 17  1  0
 16 18  1  0
 17 19  1  0
 19 20  1  0
 20 21  2  0
 20 22  1  0
 21 23  1  0
 22 24  2  0
 23 25  2  0
 24 25  1  0
M  END
>  <DRUGBANK_ID>  (1) 
DB14064

>  <COMMON_NAME>  (1) 
Emopamil

>  <CAS_NUMBER>  (1) 
78370-13-5

>  <UNII>  (1) 
M514041RF7

>  <SYNONYMS>  (1) 
Emopamil; Emopamilo; Emopamilum

$$$$
