
     RDKit          3D

 13 13  0  0  0  0  0  0  0  0999 V2000
   -1.1893   -1.1433   -0.1085 C   0  0  0  0  0  0  0  0  0  0  0  0
    0.2080   -1.1971   -0.0138 C   0  0  0  0  0  0  0  0  0  0  0  0
   -2.0252   -2.4135   -0.0697 C   0  0  0  0  0  0  0  0  0  0  0  0
   -1.8026    0.1194   -0.2113 C   0  0  0  0  0  0  0  0  0  0  0  0
    0.9403   -0.0063    0.0192 C   0  0  0  0  0  0  0  0  0  0  0  0
   -2.9363   -2.5151    1.1912 C   0  0  0  0  0  0  0  0  0  0  0  0
   -2.8126   -2.4872   -1.2557 O   0  0  0  0  0  0  0  0  0  0  0  0
   -1.0720    1.2980   -0.0892 C   0  0  0  0  0  0  0  0  0  0  0  0
    0.3080    1.2299    0.0133 C   0  0  0  0  0  0  0  0  0  0  0  0
    2.3034   -0.0084    0.0623 O   0  0  0  0  0  0  0  0  0  0  0  0
   -3.9139   -1.4079    1.2956 N   0  0  0  0  0  0  0  0  0  0  0  0
   -4.7435   -1.4662    2.4959 C   0  0  0  0  0  0  0  0  0  0  0  0
   -3.9108   -1.3292    3.7630 C   0  0  0  0  0  0  0  0  0  0  0  0
  1  2  2  0
  1  3  1  0
  1  4  1  0
  2  5  1  0
  3  6  1  0
  3  7  1  0
  4  8  2  0
  5  9  2  0
  5 10  1  0
  6 11  1  0
  8  9  1  0
 11 12  1  0
 12 13  1  0
M  END
>  <DRUGBANK_ID>  (1) 
DB08985

>  <COMMON_NAME>  (1) 
Etilefrine

>  <CAS_NUMBER>  (1) 
709-55-7

>  <UNII>  (1) 
ZB6F8MY53V

>  <SYNONYMS>  (1) 
Etilefrina; Etilefrine; Etilefrinum

$$$$
