654
     RDKit          3D

 18 20  0  0  0  0  0  0  0  0999 V2000
   -1.0703    0.0291    0.1377 S   0  0  0  0  0  0  0  0  0  0  0  0
    0.1196    1.2448    0.0331 C   0  0  0  0  0  0  0  0  0  0  0  0
    1.3912    0.7213   -0.0552 C   0  0  0  0  0  0  0  0  0  0  0  0
    1.3872   -0.7035   -0.0250 C   0  0  0  0  0  0  0  0  0  0  0  0
    0.1071   -1.2124    0.0155 C   0  0  0  0  0  0  0  0  0  0  0  0
   -0.1666    2.7024    0.0515 C   0  0  0  0  0  0  0  0  0  0  0  0
   -1.0199    3.3208    0.9271 N   0  0  0  0  0  0  0  0  0  0  0  0
    0.3691    3.6137   -0.8367 C   0  0  0  0  0  0  0  0  0  0  0  0
   -0.2354    4.8038   -0.5199 N   0  0  0  0  0  0  0  0  0  0  0  0
   -0.9886    4.5981    0.6010 C   0  0  0  0  0  0  0  0  0  0  0  0
   -0.1734    6.0437   -1.2881 C   0  0  0  0  0  0  0  0  0  0  0  0
   -0.8363    5.9609   -2.6508 C   0  0  0  0  0  0  0  0  0  0  0  0
   -1.4258    4.7848   -3.1401 C   0  0  0  0  0  0  0  0  0  0  0  0
   -1.9905    4.7229   -4.4086 C   0  0  0  0  0  0  0  0  0  0  0  0
   -0.8654    7.0973   -3.4762 C   0  0  0  0  0  0  0  0  0  0  0  0
   -1.4589    7.0441   -4.7450 C   0  0  0  0  0  0  0  0  0  0  0  0
   -2.0222    5.8535   -5.2182 C   0  0  0  0  0  0  0  0  0  0  0  0
   -2.6753    5.7823   -6.5634 C   0  0  0  0  0  0  0  0  0  0  0  0
  1  2  1  0
  1  5  1  0
  2  3  2  0
  2  6  1  0
  3  4  1  0
  4  5  2  0
  6  7  1  0
  6  8  2  0
  7 10  2  0
  8  9  1  0
  9 10  1  0
  9 11  1  0
 11 12  1  0
 12 13  2  0
 12 15  1  0
 13 14  1  0
 14 17  2  0
 15 16  2  0
 16 17  1  0
 17 18  1  0
M  END
>  <DRUGBANK_ID>  (1) 
DB03030

>  <SECONDARY_ACCESSION_NUMBERS>  (1) 
EXPT00269

>  <COMMON_NAME>  (1) 
4-(2-Thienyl)-1-(4-Methylbenzyl)-1h-Imidazole

$$$$
