
     RDKit          3D

 17 19  0  0  0  0  0  0  0  0999 V2000
   -2.0494    0.6837    0.0164 C   0  0  0  0  0  0  0  0  0  0  0  0
   -0.8798    1.4631    0.0013 C   0  0  0  0  0  0  0  0  0  0  0  0
    0.2898    0.7035   -0.0091 C   0  0  0  0  0  0  0  0  0  0  0  0
    0.2730   -0.7549   -0.0185 C   0  0  0  0  0  0  0  0  0  0  0  0
   -0.9291   -1.5048   -0.0338 C   0  0  0  0  0  0  0  0  0  0  0  0
   -2.1161   -0.7390   -0.0366 C   0  0  0  0  0  0  0  0  0  0  0  0
   -3.4603   -1.4410    0.0315 C   0  0  0  0  0  0  0  0  0  0  0  0
   -3.4976   -2.6522    0.2409 O   0  0  0  0  0  0  0  0  0  0  0  0
   -4.6049   -0.6530   -0.0070 N   0  0  0  0  0  0  0  0  0  0  0  0
   -4.9478    0.2339   -1.1203 C   0  0  0  0  0  0  0  0  0  0  0  0
   -5.3903    1.6031   -0.5783 C   0  0  0  0  0  0  0  0  0  0  0  0
   -6.4576    1.4609    0.3727 O   0  0  0  0  0  0  0  0  0  0  0  0
   -6.0673    0.6036    1.4682 C   0  0  0  0  0  0  0  0  0  0  0  0
   -5.6966   -0.8037    0.9612 C   0  0  0  0  0  0  0  0  0  0  0  0
    1.5451   -1.1732   -0.0046 N   0  0  0  0  0  0  0  0  0  0  0  0
    2.3270   -0.0276    0.0017 O   0  0  0  0  0  0  0  0  0  0  0  0
    1.5580    1.1227   -0.0017 N   0  0  0  0  0  0  0  0  0  0  0  0
  1  2  2  0
  1  6  1  0
  2  3  1  0
  3  4  1  0
  3 17  2  0
  4  5  1  0
  4 15  2  0
  5  6  2  0
  6  7  1  0
  7  8  2  0
  7  9  1  0
  9 10  1  0
  9 14  1  0
 10 11  1  0
 11 12  1  0
 12 13  1  0
 13 14  1  0
 15 16  1  0
 16 17  1  0
M  END
>  <DRUGBANK_ID>  (1) 
DB05047

>  <COMMON_NAME>  (1) 
CX-717

>  <CAS_NUMBER>  (1) 
867276-98-0

>  <UNII>  (1) 
7I12YTA3QM

$$$$
