
     RDKit          3D

 33 36  0  0  0  0  0  0  0  0999 V2000
   -3.7609   -0.3295   -0.2563 C   0  0  2  0  0  0  0  0  0  0  0  0
   -3.8909    1.1259   -0.4860 C   0  0  1  0  0  0  0  0  0  0  0  0
   -2.1942   -0.9747   -0.8756 C   0  0  2  0  0  0  0  0  0  0  0  0
   -4.9896   -1.3590   -0.1670 C   0  0  2  0  0  0  0  0  0  0  0  0
   -2.3821    1.6298   -0.5748 C   0  0  0  0  0  0  0  0  0  0  0  0
   -5.4398    1.1100   -0.8977 C   0  0  0  0  0  0  0  0  0  0  0  0
   -4.2743    1.9431    0.6862 O   0  0  0  0  0  0  0  0  0  0  0  0
   -1.0530   -0.5395   -0.0391 C   0  0  2  0  0  0  0  0  0  0  0  0
   -1.8244   -0.8074   -2.2650 O   0  0  0  0  0  0  0  0  0  0  0  0
   -6.1178   -0.7595    0.6046 C   0  0  0  0  0  0  0  0  0  0  0  0
   -4.1616   -2.5429   -0.1042 N   0  0  0  0  0  0  0  0  0  0  0  0
   -1.1992    0.9304   -0.2913 C   0  0  0  0  0  0  0  0  0  0  0  0
   -2.3558    3.0034   -0.7434 O   0  0  0  0  0  0  0  0  0  0  0  0
   -6.4180    0.4999    0.2032 C   0  0  0  0  0  0  0  0  0  0  0  0
   -5.8407    1.3055   -2.0357 O   0  0  0  0  0  0  0  0  0  0  0  0
    0.1701   -1.5501   -0.1770 C   0  0  2  0  0  0  0  0  0  0  0  0
   -6.9603   -1.5437    1.3793 O   0  0  0  0  0  0  0  0  0  0  0  0
   -3.0702   -2.2609    1.0953 C   0  0  0  0  0  0  0  0  0  0  0  0
   -3.9456   -2.4045   -1.8296 C   0  0  0  0  0  0  0  0  0  0  0  0
    0.1144    1.5399    0.0654 C   0  0  0  0  0  0  0  0  0  0  0  0
   -7.6107    1.1690    0.8135 C   0  0  0  0  0  0  0  0  0  0  0  0
    1.4079   -0.7216   -0.1138 C   0  0  0  0  0  0  0  0  0  0  0  0
    0.2273   -2.7229   -1.2184 C   0  0  0  0  0  0  0  0  0  0  0  0
    1.3752    0.6884   -0.0157 C   0  0  0  0  0  0  0  0  0  0  0  0
    0.1448    2.6779    0.4758 O   0  0  0  0  0  0  0  0  0  0  0  0
   -8.3604    1.9471   -0.0316 N   0  0  0  0  0  0  0  0  0  0  0  0
   -7.9426    1.0430    1.9586 O   0  0  0  0  0  0  0  0  0  0  0  0
    2.6314   -1.4154   -0.0506 C   0  0  0  0  0  0  0  0  0  0  0  0
    2.5981    1.3548    0.0651 C   0  0  0  0  0  0  0  0  0  0  0  0
    3.8209   -0.7335    0.0907 C   0  0  0  0  0  0  0  0  0  0  0  0
    3.8033    0.6538    0.1411 C   0  0  0  0  0  0  0  0  0  0  0  0
    2.6923    2.7181    0.0254 O   0  0  0  0  0  0  0  0  0  0  0  0
    0.1980   -2.3206    1.0704 O   0  0  0  0  0  0  0  0  0  0  0  0
  1  2  1  0
  1  3  1  0
  1  4  1  6
  2  5  1  0
  2  6  1  0
  2  7  1  1
  3  8  1  0
  3  9  1  6
  4 10  1  0
  4 11  1  1
  5 12  2  0
  5 13  1  0
  6 14  1  0
  6 15  2  0
  8 16  1  0
  8 12  1  6
 10 14  2  0
 10 17  1  0
 11 18  1  0
 11 19  1  0
 12 20  1  0
 14 21  1  0
 16 22  1  0
 16 23  1  6
 16 33  1  0
 20 24  1  0
 20 25  2  0
 21 26  1  0
 21 27  2  0
 22 28  2  0
 22 24  1  0
 24 29  2  0
 28 30  1  0
 29 31  1  0
 29 32  1  0
 30 31  2  0
M  END
>  <DRUGBANK_ID>  (1) 
DB00595

>  <SECONDARY_ACCESSION_NUMBERS>  (1) 
APRD00019

>  <COMMON_NAME>  (1) 
Oxytetracycline

>  <CAS_NUMBER>  (1) 
79-57-2

>  <UNII>  (1) 
SLF0D9077S

>  <SYNONYMS>  (1) 
5-Hydroxytetracycline; Embryostat; Hydroxytetracyclinum; Mepatar; Ossitetraciclina; Oxitetraciclina; Oxyterracin; Oxyterracine; Oxytetracyclin; Oxyt√©tracycline; Oxytetracycline; Oxytetracycline (anhydrous); Oxytetracycline amphoteric; Oxytetracyclinum

$$$$
