
     RDKit          3D

 24 26  0  0  1  0  0  0  0  0999 V2000
    0.9251    0.1781   -0.1808 N   0  0  0  0  0  0  0  0  0  0  0  0
    0.2397    1.2591    0.2814 C   0  0  0  0  0  0  0  0  0  0  0  0
   -0.8030    1.1655    1.0584 N   0  0  0  0  0  0  0  0  0  0  0  0
   -1.4360    2.3516    1.3416 C   0  0  0  0  0  0  0  0  0  0  0  0
   -2.5371    2.5351    2.1605 N   0  0  0  0  0  0  0  0  0  0  0  0
   -3.2485    1.5695    2.9476 C   0  0  2  0  0  0  0  0  0  0  0  0
   -4.6124    1.4891    2.4849 O   0  0  0  0  0  0  0  0  0  0  0  0
   -5.5109    1.4493    3.6249 C   0  0  2  0  0  0  0  0  0  0  0  0
   -6.3914    2.7158    3.6729 C   0  0  0  0  0  0  0  0  0  0  0  0
   -5.9511    3.6893    4.6143 O   0  0  0  0  0  0  0  0  0  0  0  0
   -4.6362    1.2329    4.8596 C   0  0  1  0  0  0  0  0  0  0  0  0
   -4.4623   -0.1675    5.1385 O   0  0  0  0  0  0  0  0  0  0  0  0
   -3.3088    1.8673    4.4575 C   0  0  1  0  0  0  0  0  0  0  0  0
   -2.2057    1.3138    5.1775 O   0  0  0  0  0  0  0  0  0  0  0  0
   -2.8930    3.9014    2.1409 C   0  0  0  0  0  0  0  0  0  0  0  0
   -3.7888    4.4484    2.7705 O   0  0  0  0  0  0  0  0  0  0  0  0
   -1.9917    4.5133    1.2551 N   0  0  0  0  0  0  0  0  0  0  0  0
   -1.9763    5.9227    0.9726 C   0  0  0  0  0  0  0  0  0  0  0  0
   -3.2746    6.3244    0.3311 C   0  0  0  0  0  0  0  0  0  0  0  0
   -4.1084    7.2267    0.8679 C   0  0  0  0  0  0  0  0  0  0  0  0
   -1.1121    3.5496    0.8340 C   0  0  0  0  0  0  0  0  0  0  0  0
    0.0571    3.6485   -0.0353 C   0  0  0  0  0  0  0  0  0  0  0  0
    0.4258    4.6764   -0.5875 O   0  0  0  0  0  0  0  0  0  0  0  0
    0.7115    2.4543   -0.1946 N   0  0  0  0  0  0  0  0  0  0  0  0
  1  2  1  0
  2  3  2  0
  2 24  1  0
  3  4  1  0
  4  5  1  0
  4 21  2  0
  5 15  1  0
  6  5  1  6
  6  7  1  0
  8  7  1  0
  8  9  1  1
  9 10  1  0
 11  8  1  0
 11 12  1  6
 11 13  1  0
 13  6  1  0
 13 14  1  1
 15 16  2  0
 15 17  1  0
 17 18  1  0
 17 21  1  0
 18 19  1  0
 19 20  2  0
 21 22  1  0
 22 23  2  0
 22 24  1  0
M  END
>  <DRUGBANK_ID>  (1) 
DB17589

>  <COMMON_NAME>  (1) 
Loxoribine

>  <CAS_NUMBER>  (1) 
121288-39-9

>  <UNII>  (1) 
9CAS0V66OI

>  <SYNONYMS>  (1) 
7-Allyl-7,8-dihydro-8-oxoguanosine

$$$$
