
     RDKit          3D

 25 27  0  0  0  0  0  0  0  0999 V2000
   -1.7570   -1.1112   -0.3659 C   0  0  2  0  0  0  0  0  0  0  0  0
   -1.9564    0.4118   -0.3348 C   0  0  0  0  0  0  0  0  0  0  0  0
   -0.4227   -0.8189    0.2828 C   0  0  2  0  0  0  0  0  0  0  0  0
   -0.7924    0.5814    0.3667 N   0  0  0  0  0  0  0  0  0  0  0  0
    0.2779    1.5121    0.0760 C   0  0  2  0  0  0  0  0  0  0  0  0
    1.5901    0.6564   -0.0352 C   0  0  0  0  0  0  0  0  0  0  0  0
    1.0559   -0.9800   -0.6841 S   0  0  0  0  0  0  0  0  0  0  0  0
    2.4975    1.1682   -1.1297 C   0  0  0  0  0  0  0  0  0  0  0  0
    2.3609    0.3961    1.2744 C   0  0  0  0  0  0  0  0  0  0  0  0
    0.3604    2.6333    1.1294 C   0  0  0  0  0  0  0  0  0  0  0  0
   -0.5081    3.6519    0.9451 O   0  0  0  0  0  0  0  0  0  0  0  0
    1.1020    2.6413    2.1009 O   0  0  0  0  0  0  0  0  0  0  0  0
   -1.8462   -2.0235   -1.4988 N   0  0  0  0  0  0  0  0  0  0  0  0
   -2.8054    1.2091   -0.6138 O   0  0  0  0  0  0  0  0  0  0  0  0
   -2.1471   -3.3775   -1.3764 C   0  0  0  0  0  0  0  0  0  0  0  0
   -2.2168   -4.0222   -2.4313 O   0  0  0  0  0  0  0  0  0  0  0  0
   -2.4518   -4.0731    0.0528 C   0  0  1  0  0  0  0  0  0  0  0  0
   -1.2756   -4.1691    1.0452 C   0  0  0  0  0  0  0  0  0  0  0  0
   -0.9452   -3.0913    1.8484 C   0  0  0  0  0  0  0  0  0  0  0  0
    0.2754   -2.9295    2.5049 C   0  0  0  0  0  0  0  0  0  0  0  0
    1.1067   -3.9989    2.6373 C   0  0  0  0  0  0  0  0  0  0  0  0
    0.6995   -5.2020    2.0741 C   0  0  0  0  0  0  0  0  0  0  0  0
   -0.4538   -5.2844    1.2463 C   0  0  0  0  0  0  0  0  0  0  0  0
   -3.7783   -3.6208    0.5805 N   0  0  0  0  0  0  0  0  0  0  0  0
   -4.0704   -2.6203    1.3108 C   0  0  0  0  0  0  0  0  0  0  0  0
  1  2  1  0
  1 13  1  6
  2 14  2  0
  2  4  1  0
  3  1  1  0
  3  4  1  0
  3  7  1  6
  4  5  1  0
  5  6  1  0
  5 10  1  1
  6  7  1  0
  6  8  1  0
  6  9  1  0
 10 11  1  0
 10 12  2  0
 13 15  1  0
 15 16  2  0
 15 17  1  0
 17 18  1  0
 17 24  1  1
 19 18  2  0
 19 20  1  0
 20 21  2  0
 21 22  1  0
 22 23  2  0
 23 18  1  0
 24 25  2  0
M  END
>  <DRUGBANK_ID>  (1) 
DB13836

>  <COMMON_NAME>  (1) 
Metampicillin

>  <CAS_NUMBER>  (1) 
6489-97-0

>  <UNII>  (1) 
G0H6U7VSTK

>  <SYNONYMS>  (1) 
Metampicilina; Metampicillin; Metampicilline; Metampicillinum

$$$$
