
     RDKit          3D

 29 30  0  0  1  0  0  0  0  0999 V2000
   10.0040    6.3726   -5.0872 C   0  0  0  0  0  0  0  0  0  0  0  0
   10.3815    5.5742   -3.8285 C   0  0  0  0  0  0  0  0  0  0  0  0
    9.0061    6.2417   -5.9984 C   0  0  0  0  0  0  0  0  0  0  0  0
    9.5944    5.4959   -2.4941 C   0  0  0  0  0  0  0  0  0  0  0  0
    6.9721    7.8753   -2.6622 C   0  0  0  0  0  0  0  0  0  0  0  0
    8.2392    8.2877   -2.4632 C   0  0  0  0  0  0  0  0  0  0  0  0
    5.9387    8.5513   -2.1534 C   0  0  0  0  0  0  0  0  0  0  0  0
    7.6406    5.6588   -5.8204 C   0  0  0  0  0  0  0  0  0  0  0  0
    8.1588    5.0838   -2.6613 C   0  0  0  0  0  0  0  0  0  0  0  0
    3.5063    7.6564   -3.3389 C   0  0  0  0  0  0  0  0  0  0  0  0
    3.9873    6.6809   -4.1613 C   0  0  0  0  0  0  0  0  0  0  0  0
    7.2311    8.9973   -0.3987 C   0  0  0  0  0  0  0  0  0  0  0  0
    5.8204    9.0089   -5.8119 C   0  0  0  0  0  0  0  0  0  0  0  0
    3.7253    7.8970   -0.6131 C   0  0  0  0  0  0  0  0  0  0  0  0
    8.3910    8.8083   -1.2386 C   0  0  0  0  0  0  0  0  0  0  0  0
    2.8364    7.6480   -1.9520 C   0  0  2  0  0  0  0  0  0  0  0  0
    5.9319    8.7931   -0.8914 C   0  0  0  0  0  0  0  0  0  0  0  0
    6.6046    6.6593   -5.2425 C   0  0  2  0  0  0  0  0  0  0  0  0
    5.0170    6.6783   -5.4220 C   0  0  2  0  0  0  0  0  0  0  0  0
    7.0579    8.3046   -5.3356 C   0  0  1  0  0  0  0  0  0  0  0  0
    4.9765    7.8751   -6.3645 C   0  0  2  0  0  0  0  0  0  0  0  0
    7.8252    3.7217   -3.2271 C   0  0  0  0  0  0  0  0  0  0  0  0
   10.0066    9.1196   -0.7728 Cl  0  0  0  0  0  0  0  0  0  0  0  0
    2.1278    6.4131   -1.8037 O   0  0  0  0  0  0  0  0  0  0  0  0
    8.2565    8.7221   -5.9593 O   0  0  0  0  0  0  0  0  0  0  0  0
    5.6305    7.4633   -7.5709 O   0  0  0  0  0  0  0  0  0  0  0  0
    6.7178    3.1701   -3.1001 O   0  0  0  0  0  0  0  0  0  0  0  0
    8.7033    3.2504   -4.1279 O   0  0  0  0  0  0  0  0  0  0  0  0
    4.6843    9.0064   -0.3839 O   0  0  0  0  0  0  0  0  0  0  0  0
  2  1  1  0
  3  1  2  0
  4  2  1  0
  6  5  2  0
  7  5  1  0
  8  3  1  0
  9  4  1  0
 11 10  2  0
 15  6  1  0
 15 12  2  0
 16 24  1  1
 16 14  1  0
 16 10  1  0
 17  7  2  0
 17 12  1  0
 18  8  1  6
 19 18  1  0
 19 11  1  1
 20 13  1  0
 20 18  1  0
 20 25  1  6
 21 13  1  0
 21 19  1  0
 21 26  1  6
 22  9  1  0
 23 15  1  0
 27 22  2  0
 28 22  1  0
 29 14  1  0
 29 17  1  0
M  END
>  <DRUGBANK_ID>  (1) 
DB11507

>  <COMMON_NAME>  (1) 
Cloprostenol

>  <CAS_NUMBER>  (1) 
54276-21-0

>  <UNII>  (1) 
4208238832

>  <SYNONYMS>  (1) 
Cloprostenol

$$$$
