
     RDKit          3D

 11 10  0  0  0  0  0  0  0  0999 V2000
    1.7788    0.7530    0.6300 C   0  0  0  0  0  0  0  0  0  0  0  0
    0.7496    0.4055    1.7380 N   0  0  0  0  0  0  0  0  0  0  0  0
    0.9782    1.6564    2.6041 C   0  0  0  0  0  0  0  0  0  0  0  0
   -0.8081    0.4193    1.4874 C   0  0  0  0  0  0  0  0  0  0  0  0
    1.1329   -0.9546    2.4267 C   0  0  0  0  0  0  0  0  0  0  0  0
    0.6438   -2.2694    1.6903 C   0  0  0  0  0  0  0  0  0  0  0  0
    1.0597   -2.4392    0.3206 O   0  0  0  0  0  0  0  0  0  0  0  0
    0.4830   -1.1230   -0.6427 P   0  0  0  0  0  0  0  0  0  0  0  0
    1.7977   -1.3886   -1.5693 O   0  0  0  0  0  0  0  0  0  0  0  0
   -0.4618   -2.2554   -1.3224 O   0  0  0  0  0  0  0  0  0  0  0  0
   -0.0331    0.0550   -1.5048 O   0  0  0  0  0  0  0  0  0  0  0  0
  1  2  1  0
  2  3  1  0
  2  4  1  0
  2  5  1  0
  5  6  1  0
  6  7  1  0
  7  8  1  0
  8  9  1  0
  8 10  1  0
  8 11  2  0
M  CHG  1   2   1
M  END
>  <DRUGBANK_ID>  (1) 
DB03945

>  <SECONDARY_ACCESSION_NUMBERS>  (1) 
EXPT02629

>  <COMMON_NAME>  (1) 
N,N,N-Trimethyl-2-(phosphonooxy)ethanaminium

>  <CAS_NUMBER>  (1) 
3616-04-4

>  <SYNONYMS>  (1) 
Choline, dihydrogen phosphate (ester) (8CI); Ethanaminium, N,N,N-trimethyl-2-(phosphonooxy)-; Phosphocholine cation

$$$$
