
     RDKit          3D

  1  0  0  0  0  0  0  0  0  0999 V2000
    1.0595   -0.0782    0.0186 Ra  0  0  0  0  0  2  0  0  0  0  0  0
M  ISO  1   1 223
M  END
>  <DRUGBANK_ID>  (1) 
DB12813

>  <COMMON_NAME>  (1) 
Radium Ra-223

>  <CAS_NUMBER>  (1) 
15623-45-7

>  <UNII>  (1) 
8BR2SOL3L1

>  <SYNONYMS>  (1) 
Radium-223

$$$$
