3IG
     RDKit          3D

 29 31  0  0  0  0  0  0  0  0999 V2000
    0.8797   -0.0643   -0.1272 C   0  0  0  0  0  0  0  0  0  0  0  0
   -0.1573    0.7678   -0.0248 N   0  0  0  0  0  0  0  0  0  0  0  0
   -1.3208    0.1746    0.0337 C   0  0  0  0  0  0  0  0  0  0  0  0
   -1.4463   -1.1550    0.0146 N   0  0  0  0  0  0  0  0  0  0  0  0
   -0.2936   -1.9161    0.0600 C   0  0  0  0  0  0  0  0  0  0  0  0
    0.9684   -1.4098    0.0889 C   0  0  0  0  0  0  0  0  0  0  0  0
    1.9354    0.5086   -0.7996 N   0  0  0  0  0  0  0  0  0  0  0  0
   -2.3976    1.0088    0.0284 N   0  0  0  0  0  0  0  0  0  0  0  0
   -0.4359   -3.3997    0.0566 C   0  0  0  0  0  0  0  0  0  0  0  0
   -1.1498   -3.7636    1.3238 C   0  0  0  0  0  0  0  0  0  0  0  0
    2.6890   -3.0057   -0.8899 C   0  0  0  0  0  0  0  0  0  0  0  0
    3.8679   -3.7690   -0.7886 C   0  0  0  0  0  0  0  0  0  0  0  0
    4.7082   -3.6343    0.3161 C   0  0  0  0  0  0  0  0  0  0  0  0
    4.3575   -2.7332    1.3333 C   0  0  0  0  0  0  0  0  0  0  0  0
    3.1349   -2.0294    1.2494 C   0  0  0  0  0  0  0  0  0  0  0  0
    2.2667   -2.1549    0.1446 C   0  0  0  0  0  0  0  0  0  0  0  0
    5.8778   -4.3727    0.3126 O   0  0  0  0  0  0  0  0  0  0  0  0
    6.8658   -3.9134    1.2527 C   0  0  0  0  0  0  0  0  0  0  0  0
    6.2243   -3.5496    2.6030 C   0  0  0  0  0  0  0  0  0  0  0  0
    5.2328   -2.5812    2.4417 N   0  0  0  0  0  0  0  0  0  0  0  0
    5.2332   -1.3975    3.3033 C   0  0  0  0  0  0  0  0  0  0  0  0
    5.6669   -0.0952    2.5872 C   0  0  0  0  0  0  0  0  0  0  0  0
    4.7925    0.3900    1.5417 N   0  0  0  0  0  0  0  0  0  0  0  0
    4.2387    1.6444    1.6444 C   0  0  0  0  0  0  0  0  0  0  0  0
    3.5375    2.1259    0.4403 C   0  0  0  0  0  0  0  0  0  0  0  0
    7.5579   -2.6526    0.6894 C   0  0  0  0  0  0  0  0  0  0  0  0
    7.9751   -4.9628    1.4427 C   0  0  0  0  0  0  0  0  0  0  0  0
    6.5849   -3.9869    3.6914 O   0  0  0  0  0  0  0  0  0  0  0  0
    4.2079    2.3013    2.6925 O   0  0  0  0  0  0  0  0  0  0  0  0
  1  2  2  0
  1  6  1  0
  1  7  1  0
  2  3  1  0
  3  4  2  0
  3  8  1  0
  4  5  1  0
  5  6  2  0
  5  9  1  0
  6 16  1  0
  9 10  1  0
 11 12  2  0
 11 16  1  0
 12 13  1  0
 13 14  2  0
 13 17  1  0
 14 15  1  0
 14 20  1  0
 15 16  2  0
 17 18  1  0
 18 19  1  0
 18 26  1  0
 18 27  1  0
 19 20  1  0
 19 28  2  0
 20 21  1  0
 21 22  1  0
 22 23  1  0
 23 24  1  0
 24 25  1  0
 24 29  2  0
M  END
>  <DRUGBANK_ID>  (1) 
DB07059

>  <COMMON_NAME>  (1) 
N-{2-[6-(2,4-DIAMINO-6-ETHYLPYRIMIDIN-5-YL)-2,2-DIMETHYL-3-OXO-2,3-DIHYDRO-4H-1,4-BENZOXAZIN-4-YL]ETHYL}ACETAMIDE

$$$$
