
     RDKit          3D

 29 28  0  0  0  0  0  0  0  0999 V2000
    0.9574    0.0890   -0.1412 C   0  0  0  0  0  0  0  0  0  0  0  0
   -3.0173   -3.3763    8.9568 C   0  0  0  0  0  0  0  0  0  0  0  0
   -3.3721   -3.2663    6.0894 C   0  0  0  0  0  0  0  0  0  0  0  0
   -2.7955   -6.1767    7.1145 C   0  0  0  0  0  0  0  0  0  0  0  0
    0.5024   -1.3197   -0.4792 C   0  0  0  0  0  0  0  0  0  0  0  0
    1.0178   -2.2950    0.5789 C   0  0  0  0  0  0  0  0  0  0  0  0
    0.4761   -1.9212    1.9621 C   0  0  0  0  0  0  0  0  0  0  0  0
   -1.0484   -1.9459    1.9237 C   0  0  0  0  0  0  0  0  0  0  0  0
   -1.4733   -3.3534    1.4755 C   0  0  0  0  0  0  0  0  0  0  0  0
   -0.9377   -4.3934    2.4789 C   0  0  0  0  0  0  0  0  0  0  0  0
   -1.4834   -4.0076    3.8082 C   0  0  0  0  0  0  0  0  0  0  0  0
   -2.9663   -3.9076    3.5041 C   0  0  0  0  0  0  0  0  0  0  0  0
   -3.6504   -5.2705    3.3159 C   0  0  0  0  0  0  0  0  0  0  0  0
   -3.3481   -6.3563    4.2943 C   0  0  0  0  0  0  0  0  0  0  0  0
   -1.2751   -4.5671    7.4823 C   0  0  0  0  0  0  0  0  0  0  0  0
   -1.2535   -5.4411    8.9037 C   0  0  0  0  0  0  0  0  0  0  0  0
   -5.0111   -4.3687    7.4419 C   0  0  0  0  0  0  0  0  0  0  0  0
   -6.3997   -6.0044    7.8606 C   0  0  0  0  0  0  0  0  0  0  0  0
   -6.2900   -4.5068    8.0379 C   0  0  0  0  0  0  0  0  0  0  0  0
   -4.5266   -6.3117    5.2778 C   0  0  0  0  0  0  0  0  0  0  0  0
   -2.6907   -4.3187    7.3710 N   0  0  0  0  0  0  0  0  0  0  0  0
   -6.2467   -4.0796    9.3906 O   0  0  0  0  0  0  0  0  0  0  0  0
   -5.2134   -7.3920    5.4557 O   0  0  0  0  0  0  0  0  0  0  0  0
   -3.6289   -8.3864    8.3969 O   0  0  0  0  0  0  0  0  0  0  0  0
   -4.2354   -5.8758    9.5668 O   0  0  0  0  0  0  0  0  0  0  0  0
   -4.6448   -5.1907    6.0594 O   0  0  0  0  0  0  0  0  0  0  0  0
   -2.2729   -6.6436    9.4591 O   0  0  0  0  0  0  0  0  0  0  0  0
   -5.5514   -7.0362    8.7109 O   0  0  0  0  0  0  0  0  0  0  0  0
   -3.9391   -7.4092    9.5074 P   0  0  0  0  0  0  0  0  0  0  0  0
  5  1  1  0
  6  5  1  0
  7  6  1  0
  8  7  1  0
  9  8  1  0
 10  9  1  0
 11 10  1  0
 12 11  1  0
 13 12  1  0
 14 13  1  0
 16 15  1  0
 19 17  1  0
 19 18  1  0
 20 14  1  0
 21  2  1  0
 21  3  1  0
 21  4  1  0
 21 15  1  0
 22 19  1  0
 23 20  2  0
 26 17  1  0
 26 20  1  0
 27 16  1  0
 28 18  1  0
 29 24  2  0
 29 25  1  0
 29 27  1  0
 29 28  1  0
M  CHG  1  21   1
M  END
>  <DRUGBANK_ID>  (1) 
DB01707

>  <SECONDARY_ACCESSION_NUMBERS>  (1) 
EXPT02003

>  <COMMON_NAME>  (1) 
L-Alfa-Lysophosphatidylcholine, Lauroyl

>  <UNII>  (1) 
V4Z2U6E9RE

$$$$
