RM2
     RDKit          3D

 14 15  0  0  0  0  0  0  0  0999 V2000
   -5.9532    0.5477   -5.5995 C   0  0  0  0  0  0  0  0  0  0  0  0
   -5.4757    0.0225   -4.4768 C   0  0  0  0  0  0  0  0  0  0  0  0
   -4.8698   -1.3049   -4.1871 C   0  0  0  0  0  0  0  0  0  0  0  0
   -4.0124   -1.6476   -3.2992 N   0  0  0  0  0  0  0  0  0  0  0  0
   -3.2926   -0.7886   -2.3299 C   0  0  2  0  0  0  0  0  0  0  0  0
   -3.8684   -0.9533   -0.9123 C   0  0  0  0  0  0  0  0  0  0  0  0
   -4.6231    0.3464   -0.5436 C   0  0  0  0  0  0  0  0  0  0  0  0
   -4.2500    1.3018   -1.6441 C   0  0  0  0  0  0  0  0  0  0  0  0
   -3.3687    0.6938   -2.5512 C   0  0  0  0  0  0  0  0  0  0  0  0
   -2.9503    1.3191   -3.7272 C   0  0  0  0  0  0  0  0  0  0  0  0
   -4.8019    2.5343   -1.9785 C   0  0  0  0  0  0  0  0  0  0  0  0
   -4.4630    3.1407   -3.2029 C   0  0  0  0  0  0  0  0  0  0  0  0
   -3.5349    2.5368   -4.0695 C   0  0  0  0  0  0  0  0  0  0  0  0
   -5.7887    3.0687   -1.2041 O   0  0  0  0  0  0  0  0  0  0  0  0
  1  2  2  0
  2  3  1  0
  3  4  2  0
  5  6  1  0
  5  9  1  0
  5  4  1  6
  6  7  1  0
  7  8  1  0
  8  9  2  0
  8 11  1  0
  9 10  1  0
 10 13  2  0
 11 12  2  0
 11 14  1  0
 12 13  1  0
M  END
>  <DRUGBANK_ID>  (1) 
DB08480

>  <COMMON_NAME>  (1) 
4-HYDROXY-N-PROPARGYL-1(R)-AMINOINDAN

$$$$
