722
     RDKit          3D

 29 30  0  0  1  0  0  0  0  0999 V2000
    1.0937    0.2191    0.1089 O   0  0  0  0  0  0  0  0  0  0  0  0
    0.8574    2.3647    1.7511 O   0  0  0  0  0  0  0  0  0  0  0  0
    0.3663    3.5140   -0.1316 O   0  0  0  0  0  0  0  0  0  0  0  0
    2.4702   -4.4091    3.8380 O   0  0  0  0  0  0  0  0  0  0  0  0
    2.4085   -2.2537    4.4730 O   0  0  0  0  0  0  0  0  0  0  0  0
    3.1061    1.2792   -0.1987 N   0  0  0  0  0  0  0  0  0  0  0  0
    2.6726   -1.5563    1.7624 N   0  0  0  0  0  0  0  0  0  0  0  0
    5.0677   -4.1468   -2.5245 N   0  0  0  0  0  0  0  0  0  0  0  0
    2.6283    2.6199    0.1149 C   0  0  1  0  0  0  0  0  0  0  0  0
    3.0238    3.4528   -1.1064 C   0  0  0  0  0  0  0  0  0  0  0  0
    4.1913    1.3619   -1.1836 C   0  0  0  0  0  0  0  0  0  0  0  0
    4.3272    2.8307   -1.5743 C   0  0  0  0  0  0  0  0  0  0  0  0
    3.0533   -1.1438    0.4009 C   0  0  2  0  0  0  0  0  0  0  0  0
    2.3189    0.1581    0.0404 C   0  0  0  0  0  0  0  0  0  0  0  0
    2.6553   -2.2646   -0.5604 C   0  0  0  0  0  0  0  0  0  0  0  0
    3.3859   -2.7485    2.2667 C   0  0  1  0  0  0  0  0  0  0  0  0
    3.0826   -1.9500   -1.9808 C   0  0  0  0  0  0  0  0  0  0  0  0
    1.1673    2.8514    0.5238 C   0  0  0  0  0  0  0  0  0  0  0  0
    4.9214   -2.5133    2.2286 C   0  0  0  0  0  0  0  0  0  0  0  0
    4.6077   -1.7939   -2.0908 C   0  0  0  0  0  0  0  0  0  0  0  0
    5.4131   -1.3780    3.1351 C   0  0  0  0  0  0  0  0  0  0  0  0
    2.7280   -3.0960    3.6347 C   0  0  0  0  0  0  0  0  0  0  0  0
    5.4041   -3.0238   -1.6755 C   0  0  0  0  0  0  0  0  0  0  0  0
    5.2571   -1.7186    4.5894 C   0  0  0  0  0  0  0  0  0  0  0  0
    5.3125   -3.0578    5.0188 C   0  0  0  0  0  0  0  0  0  0  0  0
    4.9665   -0.7230    5.5254 C   0  0  0  0  0  0  0  0  0  0  0  0
    5.0174   -3.4074    6.3250 C   0  0  0  0  0  0  0  0  0  0  0  0
    4.7958   -1.0679    6.8662 C   0  0  0  0  0  0  0  0  0  0  0  0
    4.7885   -2.4085    7.2567 C   0  0  0  0  0  0  0  0  0  0  0  0
  1 14  2  0
  2 18  1  0
  3 18  2  0
  4 22  1  0
  5 22  2  0
  6  9  1  0
  6 11  1  0
  6 14  1  0
  8 23  1  0
  9 10  1  0
  9 18  1  6
 10 12  1  0
 11 12  1  0
 13  7  1  0
 13 14  1  0
 13 15  1  6
 15 17  1  0
 16  7  1  0
 16 19  1  1
 16 22  1  0
 17 20  1  0
 19 21  1  0
 20 23  1  0
 21 24  1  0
 24 25  2  0
 24 26  1  0
 25 27  1  0
 26 28  2  0
 27 29  2  0
 28 29  1  0
M  END
>  <DRUGBANK_ID>  (1) 
DB00722

>  <SECONDARY_ACCESSION_NUMBERS>  (1) 
APRD00560

>  <COMMON_NAME>  (1) 
Lisinopril

>  <CAS_NUMBER>  (1) 
76547-98-3

>  <UNII>  (1) 
7Q3P4BS2FD

>  <SYNONYMS>  (1) 
(S)-1-(N(2)-(1-Carboxy-3-phenylpropyl)-L-lysyl)-L-proline; [N2-[(S)-1-carboxy-3-phenylpropyl]-L-lysyl-L-proline; Lisinopril; Lisinopril anhydrous; Lisinoprilum

$$$$
