
     RDKit          3D

 24 26  0  0  0  0  0  0  0  0999 V2000
   -2.2700   -0.0180    0.0345 C   0  0  0  0  0  0  0  0  0  0  0  0
   -1.6735    1.1769    0.0075 N   0  0  0  0  0  0  0  0  0  0  0  0
   -0.3157    1.2350   -0.0014 C   0  0  0  0  0  0  0  0  0  0  0  0
    0.4410    0.0728    0.0063 C   0  0  0  0  0  0  0  0  0  0  0  0
   -0.2612   -1.1077    0.0062 C   0  0  0  0  0  0  0  0  0  0  0  0
   -1.6071   -1.1755    0.0251 N   0  0  0  0  0  0  0  0  0  0  0  0
    2.1594    0.0562    0.0050 Cl  0  0  0  0  0  0  0  0  0  0  0  0
    0.3297    2.5038    0.0741 N   0  0  0  0  0  0  0  0  0  0  0  0
   -0.3287    3.6821   -0.0017 C   0  0  0  0  0  0  0  0  0  0  0  0
   -0.1461    4.6254   -0.9305 N   0  0  0  0  0  0  0  0  0  0  0  0
   -1.0478    5.5757   -0.6085 N   0  0  0  0  0  0  0  0  0  0  0  0
   -1.7085    5.3296    0.5638 C   0  0  0  0  0  0  0  0  0  0  0  0
   -1.2587    4.0980    0.9749 C   0  0  0  0  0  0  0  0  0  0  0  0
   -2.6841    6.2621    1.1643 C   0  0  0  0  0  0  0  0  0  0  0  0
   -3.6347   -0.0147    0.1788 N   0  0  0  0  0  0  0  0  0  0  0  0
   -4.4000   -1.2458    0.0525 C   0  0  1  0  0  0  0  0  0  0  0  0
   -5.2938   -1.3497    1.2864 C   0  0  0  0  0  0  0  0  0  0  0  0
   -5.2646   -1.2903   -1.2080 C   0  0  0  0  0  0  0  0  0  0  0  0
   -5.7009   -0.1206   -1.7379 N   0  0  0  0  0  0  0  0  0  0  0  0
   -6.4715   -0.2147   -2.8449 C   0  0  0  0  0  0  0  0  0  0  0  0
   -6.8344   -1.4092   -3.4162 C   0  0  0  0  0  0  0  0  0  0  0  0
   -6.3720   -2.5409   -2.7952 C   0  0  0  0  0  0  0  0  0  0  0  0
   -5.5929   -2.5136   -1.6923 N   0  0  0  0  0  0  0  0  0  0  0  0
   -7.5939   -1.4668   -4.5151 F   0  0  0  0  0  0  0  0  0  0  0  0
  1  2  2  0
  1  6  1  0
  1 15  1  0
  2  3  1  0
  3  4  2  0
  3  8  1  0
  4  5  1  0
  4  7  1  0
  5  6  2  0
  8  9  1  0
  9 13  1  0
 10  9  2  0
 11 10  1  0
 11 12  1  0
 12 14  1  0
 13 12  2  0
 15 16  1  0
 16 17  1  1
 16 18  1  0
 18 19  2  0
 18 23  1  0
 19 20  1  0
 20 21  2  0
 21 22  1  0
 21 24  1  0
 22 23  2  0
M  END
>  <DRUGBANK_ID>  (1) 
DB12588

>  <COMMON_NAME>  (1) 
AZD-1480

>  <CAS_NUMBER>  (1) 
935666-88-9

>  <UNII>  (1) 
KL2Z2TLF01

$$$$
