
     RDKit          3D

  9  8  0  0  1  0  0  0  0  0999 V2000
    0.9211    0.0484   -0.0378 N   0  0  0  0  0  0  0  0  0  0  0  0
    0.4311    1.1311    0.8273 C   0  0  1  0  0  0  0  0  0  0  0  0
    0.9377    2.4656    0.3051 C   0  0  0  0  0  0  0  0  0  0  0  0
    0.3344    2.7216   -1.3821 S   0  0  0  0  0  0  0  0  0  0  0  0
    1.0811    1.0718   -2.7004 As  0  0  0  0  0  3  0  0  0  0  0  0
    0.4644   -0.5525   -2.0648 O   0  0  0  0  0  0  0  0  0  0  0  0
   -1.0889    1.1311    0.8273 C   0  0  0  0  0  0  0  0  0  0  0  0
   -1.7989    0.9466    2.0432 O   0  0  0  0  0  0  0  0  0  0  0  0
   -1.7244    1.2962   -0.2608 O   0  0  0  0  0  0  0  0  0  0  0  0
  2  1  1  6
  2  3  1  0
  2  7  1  0
  3  4  1  0
  4  5  1  0
  5  6  1  0
  7  8  1  0
  7  9  2  0
M  END
>  <DRUGBANK_ID>  (1) 
DB01808

>  <SECONDARY_ACCESSION_NUMBERS>  (1) 
EXPT01089

>  <COMMON_NAME>  (1) 
Thiarsahydroxy-Cysteine

$$$$
