
     RDKit          3D

 41 46  0  0  1  0  0  0  0  0999 V2000
    0.9774   -0.0348   -0.1233 O   0  0  0  0  0  0  0  0  0  0  0  0
    0.3927   -0.6566    0.9112 C   0  0  0  0  0  0  0  0  0  0  0  0
    1.0192   -1.1412    1.8355 O   0  0  0  0  0  0  0  0  0  0  0  0
   -1.0768   -0.5625    0.8119 C   0  0  0  0  0  0  0  0  0  0  0  0
   -1.7838   -0.9348   -0.3274 C   0  0  0  0  0  0  0  0  0  0  0  0
   -3.1954   -0.9559   -0.3251 C   0  0  0  0  0  0  0  0  0  0  0  0
   -3.8858   -0.6529    0.8601 C   0  0  0  0  0  0  0  0  0  0  0  0
   -5.2262   -0.6464    1.1601 N   0  0  0  0  0  0  0  0  0  0  0  0
   -5.3296   -0.3019    2.4398 C   0  0  0  0  0  0  0  0  0  0  0  0
   -6.6649   -0.1975    3.1822 C   0  0  0  0  0  0  0  0  0  0  0  0
   -6.9412   -1.1794    4.2706 N   0  0  0  0  0  0  0  0  0  0  0  0
   -6.7567   -2.5447    3.7896 C   0  0  0  0  0  0  0  0  0  0  0  0
   -6.8608   -3.4961    4.9834 C   0  0  0  0  0  0  0  0  0  0  0  0
   -5.8231   -3.3384    6.1122 C   0  0  0  0  0  0  0  0  0  0  0  0
   -5.8917   -1.8819    6.5219 C   0  0  0  0  0  0  0  0  0  0  0  0
   -6.0033   -0.9728    5.3454 C   0  0  0  0  0  0  0  0  0  0  0  0
   -6.0272   -4.2336    7.3343 C   0  0  0  0  0  0  0  0  0  0  0  0
   -5.8560   -5.5651    7.2102 N   0  0  0  0  0  0  0  0  0  0  0  0
   -6.3713   -6.3983    8.1233 C   0  0  0  0  0  0  0  0  0  0  0  0
   -6.3078   -7.7644    7.9314 O   0  0  0  0  0  0  0  0  0  0  0  0
   -5.6502   -8.2215    6.7319 C   0  0  0  0  0  0  0  0  0  0  0  0
   -6.4518   -8.0601    5.4529 C   0  0  0  0  0  0  0  0  0  0  0  0
   -7.0821   -9.0987    4.7740 C   0  0  0  0  0  0  0  0  0  0  0  0
   -7.6247   -8.8739    3.4894 C   0  0  0  0  0  0  0  0  0  0  0  0
   -7.7714   -7.5854    2.9897 C   0  0  0  0  0  0  0  0  0  0  0  0
   -7.3399   -6.5425    3.7554 C   0  0  0  0  0  0  0  0  0  0  0  0
   -6.5019   -6.8276    4.8237 C   0  0  0  0  0  0  0  0  0  0  0  0
   -5.5054   -5.9666    5.0456 F   0  0  0  0  0  0  0  0  0  0  0  0
   -8.2334   -7.2859    1.6606 C   0  0  0  0  0  0  0  0  0  0  0  0
   -8.5542   -6.9920    0.5976 N   0  0  0  0  0  0  0  0  0  0  0  0
   -7.0874   -5.9276    9.2016 C   0  0  0  0  0  0  0  0  0  0  0  0
   -7.1948   -4.5535    9.3647 C   0  0  0  0  0  0  0  0  0  0  0  0
   -6.5049   -3.7136    8.5173 C   0  0  0  0  0  0  0  0  0  0  0  0
   -4.0582   -0.0691    2.9573 N   0  0  0  0  0  0  0  0  0  0  0  0
   -3.6142    0.2345    4.3117 C   0  0  0  0  0  0  0  0  0  0  0  0
   -2.9045   -0.9298    5.0712 C   0  0  2  0  0  0  0  0  0  0  0  0
   -1.4868   -1.3866    4.7104 C   0  0  0  0  0  0  0  0  0  0  0  0
   -1.9871   -2.7860    4.9914 C   0  0  0  0  0  0  0  0  0  0  0  0
   -3.3422   -2.3064    4.7624 O   0  0  0  0  0  0  0  0  0  0  0  0
   -3.1455   -0.2440    1.9506 C   0  0  0  0  0  0  0  0  0  0  0  0
   -1.7572   -0.1032    1.9283 C   0  0  0  0  0  0  0  0  0  0  0  0
  1  2  1  0
  2  3  2  0
  2  4  1  0
  4  5  2  0
  4 41  1  0
  5  6  1  0
  6  7  2  0
  7  8  1  0
  7 40  1  0
  8  9  2  0
  9 10  1  0
  9 34  1  0
 10 11  1  0
 11 12  1  0
 11 16  1  0
 12 13  1  0
 13 14  1  0
 14 15  1  0
 14 17  1  0
 15 16  1  0
 17 18  2  0
 17 33  1  0
 18 19  1  0
 19 20  1  0
 19 31  2  0
 20 21  1  0
 21 22  1  0
 22 23  2  0
 22 27  1  0
 23 24  1  0
 24 25  2  0
 25 26  1  0
 25 29  1  0
 26 27  2  0
 27 28  1  0
 29 30  3  0
 31 32  1  0
 32 33  2  0
 34 35  1  0
 34 40  1  0
 36 35  1  6
 36 37  1  0
 36 39  1  0
 37 38  1  0
 38 39  1  0
 40 41  2  0
M  END
>  <DRUGBANK_ID>  (1) 
DB16043

>  <COMMON_NAME>  (1) 
PF-06882961

>  <CAS_NUMBER>  (1) 
2230198-02-2

>  <UNII>  (1) 
DN9IUI24GP

$$$$
