
     RDKit          3D

 27 29  0  0  0  0  0  0  0  0999 V2000
    1.5159   -0.0445    0.5916 C   0  0  0  0  0  0  0  0  0  0  0  0
   -9.8788    1.2681   -0.2121 C   0  0  0  0  0  0  0  0  0  0  0  0
    0.6231    1.1417    1.1290 C   0  0  0  0  0  0  0  0  0  0  0  0
    0.7945    2.5838    0.5511 C   0  0  0  0  0  0  0  0  0  0  0  0
    1.5197    2.0962   -5.1528 C   0  0  0  0  0  0  0  0  0  0  0  0
    1.6822    0.7021   -5.0659 C   0  0  0  0  0  0  0  0  0  0  0  0
    1.2706    2.8155   -4.0182 C   0  0  0  0  0  0  0  0  0  0  0  0
    1.3221    0.0183   -3.9121 C   0  0  0  0  0  0  0  0  0  0  0  0
    1.3744    2.0803   -2.8765 C   0  0  0  0  0  0  0  0  0  0  0  0
   -0.1421    3.0640   -0.6140 C   0  0  0  0  0  0  0  0  0  0  0  0
   -2.6253    3.9057   -0.6386 C   0  0  0  0  0  0  0  0  0  0  0  0
   -3.4084    1.3537   -1.3465 C   0  0  0  0  0  0  0  0  0  0  0  0
   -6.3750    3.3273   -1.9350 C   0  0  0  0  0  0  0  0  0  0  0  0
   -0.0558    0.1710   -1.8361 C   0  0  0  0  0  0  0  0  0  0  0  0
    0.8895    0.7698   -2.8611 C   0  0  0  0  0  0  0  0  0  0  0  0
   -1.6240    2.8154   -0.8254 C   0  0  0  0  0  0  0  0  0  0  0  0
   -4.0420    3.6454   -0.6376 C   0  0  0  0  0  0  0  0  0  0  0  0
   -6.9312    3.6830   -0.7626 C   0  0  0  0  0  0  0  0  0  0  0  0
   -4.3115    2.4015   -1.1810 C   0  0  0  0  0  0  0  0  0  0  0  0
   -2.0553    1.5433   -1.2835 C   0  0  0  0  0  0  0  0  0  0  0  0
   -5.5225    4.4322   -0.3186 C   0  0  0  0  0  0  0  0  0  0  0  0
   -7.7283    2.3790   -0.3469 C   0  0  0  0  0  0  0  0  0  0  0  0
   -5.5504    2.1883   -1.8546 N   0  0  0  0  0  0  0  0  0  0  0  0
   -5.6172    5.6247   -0.0600 O   0  0  0  0  0  0  0  0  0  0  0  0
   -7.2383    1.2681   -0.2975 O   0  0  0  0  0  0  0  0  0  0  0  0
   -9.1149    2.5250   -0.3247 O   0  0  0  0  0  0  0  0  0  0  0  0
   -1.4477    0.4549   -1.8810 O   0  0  0  0  0  0  0  0  0  0  0  0
  3  1  1  0
  4  3  1  0
  6  5  2  0
  7  5  1  0
  8  6  1  0
  9  7  2  0
 10  4  1  0
 15  8  2  0
 15  9  1  0
 15 14  1  0
 16 10  1  0
 16 11  2  0
 17 11  1  0
 18 13  2  0
 19 12  1  0
 19 17  2  0
 20 12  2  0
 20 16  1  0
 21 17  1  0
 21 18  1  0
 22 18  1  0
 23 13  1  0
 23 19  1  0
 24 21  2  0
 25 22  2  0
 26  2  1  0
 26 22  1  0
 27 14  1  0
 27 20  1  0
M  END
>  <DRUGBANK_ID>  (1) 
DB11433

>  <COMMON_NAME>  (1) 
Nequinate

>  <CAS_NUMBER>  (1) 
13997-19-8

>  <UNII>  (1) 
91ZE013933

>  <SYNONYMS>  (1) 
Methyl benzoquate; Nequinate; Nequinato; Nequinatum

$$$$
