
     RDKit          3D

 19 20  0  0  0  0  0  0  0  0999 V2000
    1.1419   -0.0887    0.0071 Br  0  0  0  0  0  0  0  0  0  0  0  0
    8.4860   -1.6741   -1.0626 O   0  0  0  0  0  0  0  0  0  0  0  0
    9.1910    0.5572    0.7651 O   0  0  0  0  0  0  0  0  0  0  0  0
    9.5344   -1.4747   -3.9831 O   0  0  0  0  0  0  0  0  0  0  0  0
    5.3398    1.8757    2.5749 O   0  0  0  0  0  0  0  0  0  0  0  0
   11.5198   -0.5435   -0.4083 O   0  0  0  0  0  0  0  0  0  0  0  0
    7.3022    0.3367   -0.5700 N   0  0  0  0  0  0  0  0  0  0  0  0
    7.2783    1.4588    1.4777 N   0  0  0  0  0  0  0  0  0  0  0  0
    7.9906   -0.4380   -1.6086 C   0  0  1  0  0  0  0  0  0  0  0  0
    8.0015    0.7598    0.5506 C   0  0  0  0  0  0  0  0  0  0  0  0
    9.8147   -1.9295   -1.5956 C   0  0  1  0  0  0  0  0  0  0  0  0
    5.9278    0.5141   -0.6517 C   0  0  0  0  0  0  0  0  0  0  0  0
   10.0034   -0.9393   -2.7424 C   0  0  2  0  0  0  0  0  0  0  0  0
    9.1463    0.2401   -2.3297 C   0  0  0  0  0  0  0  0  0  0  0  0
    5.1881    0.9767    0.3709 C   0  0  0  0  0  0  0  0  0  0  0  0
    5.9206    1.4765    1.5664 C   0  0  0  0  0  0  0  0  0  0  0  0
   10.8818   -1.8156   -0.4856 C   0  0  0  0  0  0  0  0  0  0  0  0
    3.7369    0.9976    0.3704 C   0  0  0  0  0  0  0  0  0  0  0  0
    2.9933   -0.0417   -0.0294 C   0  0  0  0  0  0  0  0  0  0  0  0
  1 19  1  0
  2  9  1  0
  2 11  1  0
  3 10  2  0
  5 16  2  0
  6 17  1  0
  7 10  1  0
  7 12  1  0
  8 10  1  0
  8 16  1  0
  9  7  1  1
  9 14  1  0
 11 13  1  0
 11 17  1  1
 12 15  2  0
 13  4  1  6
 13 14  1  0
 15 16  1  0
 15 18  1  0
 18 19  2  0
M  END
>  <DRUGBANK_ID>  (1) 
DB03312

>  <SECONDARY_ACCESSION_NUMBERS>  (1) 
EXPT00783; DB05041

>  <COMMON_NAME>  (1) 
Brivudine

>  <CAS_NUMBER>  (1) 
69304-47-8

>  <UNII>  (1) 
2M3055079H

>  <SYNONYMS>  (1) 
(E)-5-(2-Bromovinyl)-deoxyuridine; Brivudina; Brivudine; Brivudinum; BVdU

$$$$
