1427
     RDKit          3D

 14 15  0  0  0  0  0  0  0  0999 V2000
    0.9262   -0.0857   -0.0223 O   0  0  0  0  0  0  0  0  0  0  0  0
    2.9328   -1.1742   -0.0487 N   0  0  0  0  0  0  0  0  0  0  0  0
    2.1649    2.4480   -0.0033 N   0  0  0  0  0  0  0  0  0  0  0  0
    9.1654   -0.2044   -1.2044 N   0  0  0  0  0  0  0  0  0  0  0  0
    4.9688   -0.0199   -0.3848 C   0  0  0  0  0  0  0  0  0  0  0  0
    6.4144   -0.0624   -0.6846 C   0  0  0  0  0  0  0  0  0  0  0  0
    4.2404    1.2278   -0.2067 C   0  0  0  0  0  0  0  0  0  0  0  0
    4.2893   -1.1751   -0.2627 C   0  0  0  0  0  0  0  0  0  0  0  0
    2.9008    1.2837   -0.1135 C   0  0  0  0  0  0  0  0  0  0  0  0
    2.1574   -0.0401   -0.0651 C   0  0  0  0  0  0  0  0  0  0  0  0
    6.8890   -0.6381   -1.8667 C   0  0  0  0  0  0  0  0  0  0  0  0
    7.3353    0.4966    0.2020 C   0  0  0  0  0  0  0  0  0  0  0  0
    8.2587   -0.7399   -2.0472 C   0  0  0  0  0  0  0  0  0  0  0  0
    8.6808    0.4390   -0.1216 C   0  0  0  0  0  0  0  0  0  0  0  0
  1 10  2  0
  2  8  1  0
  2 10  1  0
  3  9  1  0
  4 13  2  0
  4 14  1  0
  5  6  1  0
  5  7  1  0
  5  8  2  0
  6 11  2  0
  6 12  1  0
  7  9  2  0
  9 10  1  0
 11 13  1  0
 12 14  2  0
M  END
>  <DRUGBANK_ID>  (1) 
DB01427

>  <COMMON_NAME>  (1) 
Amrinone

>  <CAS_NUMBER>  (1) 
60719-84-8

>  <UNII>  (1) 
JUT23379TN

>  <SYNONYMS>  (1) 
Amrinona; Amrinone; Amrinonum; Inamrinone

$$$$
