
     RDKit          3D

 14 14  0  0  0  0  0  0  0  0999 V2000
    1.6970   -0.4928    0.6692 O   0  0  0  0  0  0  0  0  0  0  0  0
    1.1479   -3.2416    1.6236 O   0  0  0  0  0  0  0  0  0  0  0  0
    1.3532    1.0849   -1.5794 O   0  0  0  0  0  0  0  0  0  0  0  0
    1.6667   -7.0322   -0.5487 O   0  0  0  0  0  0  0  0  0  0  0  0
    0.4359   -3.0322   -2.0748 N   0  0  0  0  0  0  0  0  0  0  0  0
    0.9511   -4.9101   -0.8297 N   0  0  0  0  0  0  0  0  0  0  0  0
   -0.0790   -0.8108   -1.0200 C   0  0  2  0  0  0  0  0  0  0  0  0
    0.5221   -1.2454    0.3330 C   0  0  1  0  0  0  0  0  0  0  0  0
    0.5505   -2.7959    0.4084 C   0  0  1  0  0  0  0  0  0  0  0  0
    1.1114   -3.4713   -0.8691 C   0  0  2  0  0  0  0  0  0  0  0  0
    0.5513   -1.5750   -2.2033 C   0  0  0  0  0  0  0  0  0  0  0  0
    0.0217    0.6970   -1.2627 C   0  0  0  0  0  0  0  0  0  0  0  0
    1.9433   -5.8401   -0.7077 C   0  0  0  0  0  0  0  0  0  0  0  0
    3.3638   -5.3536   -0.7536 C   0  0  0  0  0  0  0  0  0  0  0  0
  3 12  1  0
  4 13  2  0
  5 10  1  0
  5 11  1  0
  6 13  1  0
  7  8  1  0
  7 11  1  0
  7 12  1  6
  8  1  1  6
  8  9  1  0
  9 10  1  0
  9  2  1  1
 10  6  1  1
 13 14  1  0
M  END
>  <DRUGBANK_ID>  (1) 
DB03861

>  <SECONDARY_ACCESSION_NUMBERS>  (1) 
EXPT01846

>  <COMMON_NAME>  (1) 
(2R,3R,4S,5R)-2-acetamido-3,4-dihydroxy-5-hydroxymethyl-piperidine

>  <CAS_NUMBER>  (1) 
176246-06-3

$$$$
