
     RDKit          3D

 20 20  0  0  0  0  0  0  0  0999 V2000
    1.0664   -0.2312   -0.0217 C   0  0  0  0  0  0  0  0  0  0  0  0
    0.5699    0.1664    1.3877 C   0  0  0  0  0  0  0  0  0  0  0  0
    1.2376    1.3019    2.2274 C   0  0  0  0  0  0  0  0  0  0  0  0
   -0.9362    0.2624    1.3241 C   0  0  0  0  0  0  0  0  0  0  0  0
   -1.6600   -0.9497    1.3747 C   0  0  0  0  0  0  0  0  0  0  0  0
   -3.0456   -0.9680    1.4585 C   0  0  0  0  0  0  0  0  0  0  0  0
   -3.7284    0.2344    1.5498 C   0  0  0  0  0  0  0  0  0  0  0  0
   -3.0319    1.4635    1.5282 C   0  0  0  0  0  0  0  0  0  0  0  0
   -3.8254    2.6805    1.9692 C   0  0  0  0  0  0  0  0  0  0  0  0
   -3.2182    3.2542    3.2524 C   0  0  0  0  0  0  0  0  0  0  0  0
   -3.8703    3.7311    0.8894 C   0  0  0  0  0  0  0  0  0  0  0  0
   -1.6368    1.4707    1.2586 C   0  0  0  0  0  0  0  0  0  0  0  0
   -0.9444    2.7263    1.0281 O   0  0  0  0  0  0  0  0  0  0  0  0
    0.1915    2.9579    0.2169 C   0  0  0  0  0  0  0  0  0  0  0  0
    0.7841    2.1906   -0.5301 O   0  0  0  0  0  0  0  0  0  0  0  0
    0.7876    4.3173    0.2984 C   0  0  0  0  0  0  0  0  0  0  0  0
    0.3315    4.9539   -0.9939 C   0  0  0  0  0  0  0  0  0  0  0  0
   -1.1541    5.0952   -0.9915 C   0  0  0  0  0  0  0  0  0  0  0  0
   -1.6140    6.3252   -0.7477 O   0  0  0  0  0  0  0  0  0  0  0  0
   -1.9049    4.1316   -1.1751 O   0  0  0  0  0  0  0  0  0  0  0  0
  1  2  1  0
  2  3  1  0
  2  4  1  0
  4  5  2  0
  4 12  1  0
  5  6  1  0
  6  7  2  0
  7  8  1  0
  8  9  1  0
  8 12  2  0
  9 10  1  0
  9 11  1  0
 12 13  1  0
 13 14  1  0
 14 15  2  0
 14 16  1  0
 16 17  1  0
 17 18  1  0
 18 19  1  0
 18 20  2  0
M  END
>  <DRUGBANK_ID>  (1) 
DB16947

>  <COMMON_NAME>  (1) 
Propofol Hemisuccinate

>  <CAS_NUMBER>  (1) 
184869-48-5

>  <UNII>  (1) 
OIC0UYZ1W6

>  <SYNONYMS>  (1) 
Butanedioic acid, 1-(2,6-bis(1-methylethyl)phenyl) ester; Succinic acid monopropofol ester

$$$$
