
     RDKit          3D

 25 24  0  0  0  0  0  0  0  0999 V2000
    1.0931   -0.0344    0.1279 C   0  0  0  0  0  0  0  0  0  0  0  0
   -4.3754   -7.0706   -7.2233 C   0  0  0  0  0  0  0  0  0  0  0  0
    0.6462    1.1644   -0.6926 C   0  0  0  0  0  0  0  0  0  0  0  0
   -3.9391   -5.6695   -6.8277 C   0  0  0  0  0  0  0  0  0  0  0  0
    1.1460    1.0371   -2.1321 C   0  0  0  0  0  0  0  0  0  0  0  0
   -3.2108   -5.0172   -8.0006 C   0  0  0  0  0  0  0  0  0  0  0  0
    0.5944   -0.2280   -2.7985 C   0  0  0  0  0  0  0  0  0  0  0  0
   -4.1019   -5.0168   -9.2529 C   0  0  0  0  0  0  0  0  0  0  0  0
   -0.9375   -0.2068   -2.8046 C   0  0  0  0  0  0  0  0  0  0  0  0
   -1.4335    1.0067   -3.5941 C   0  0  0  0  0  0  0  0  0  0  0  0
   -0.9149    0.9212   -5.0333 C   0  0  0  0  0  0  0  0  0  0  0  0
   -1.4439   -0.3624   -5.6791 C   0  0  0  0  0  0  0  0  0  0  0  0
   -2.9745   -0.3215   -5.6389 C   0  0  0  0  0  0  0  0  0  0  0  0
   -3.4573    0.9755   -6.3196 C   0  0  0  0  0  0  0  0  0  0  0  0
   -2.9226    1.0452   -7.7345 C   0  0  0  0  0  0  0  0  0  0  0  0
   -3.4630   -0.1548   -8.4154 C   0  0  0  0  0  0  0  0  0  0  0  0
   -5.4142   -4.2964   -8.9888 C   0  0  0  0  0  0  0  0  0  0  0  0
   -5.0295   -0.0488   -8.4288 C   0  0  0  0  0  0  0  0  0  0  0  0
   -5.0816   -2.8721   -8.7074 C   0  0  0  0  0  0  0  0  0  0  0  0
   -5.5612    0.9548   -9.4026 C   0  0  0  0  0  0  0  0  0  0  0  0
   -4.3962   -2.3063   -9.9941 C   0  0  0  0  0  0  0  0  0  0  0  0
   -5.0628    0.6036  -10.8188 C   0  0  0  0  0  0  0  0  0  0  0  0
   -5.2941   -1.9948  -11.1556 C   0  0  0  0  0  0  0  0  0  0  0  0
   -5.7398   -2.8791  -11.8449 O   0  0  0  0  0  0  0  0  0  0  0  0
   -5.5954   -0.6665  -11.3807 O   0  0  0  0  0  0  0  0  0  0  0  0
  3  1  1  0
  4  2  1  0
  5  3  1  0
  6  4  1  0
  7  5  1  0
  8  6  1  0
  9  7  1  0
 10  9  1  0
 11 10  1  0
 12 11  1  0
 13 12  1  0
 14 13  1  0
 15 14  1  0
 16 15  1  0
 17  8  1  0
 18 16  1  0
 19 17  1  0
 20 18  1  0
 21 19  1  0
 22 20  1  0
 23 21  1  0
 24 23  2  0
 25 22  1  0
 25 23  1  0
M  END
>  <DRUGBANK_ID>  (1) 
DB02425

>  <SECONDARY_ACCESSION_NUMBERS>  (1) 
EXPT00974

>  <COMMON_NAME>  (1) 
Hexadecyl Octanoate

>  <CAS_NUMBER>  (1) 
29710-31-4

>  <UNII>  (1) 
418Q5V6PLJ

>  <SYNONYMS>  (1) 
Caprylic acid, cetyl ester; Cetyl caprylate; Cetyl octanoate; Hexadecyl caprylate; Hexadecyl N-octanoate

$$$$
