
     RDKit          3D

 41 41  0  0  1  0  0  0  0  0999 V2000
    0.6453  -10.7066    5.1766 C   0  0  0  0  0  0  0  0  0  0  0  0
   -1.2866  -10.2407    3.6974 C   0  0  0  0  0  0  0  0  0  0  0  0
   -1.0474   -5.1300    8.6579 C   0  0  0  0  0  0  0  0  0  0  0  0
    0.8411   -5.6610   10.2255 C   0  0  0  0  0  0  0  0  0  0  0  0
   -8.3926   -3.7046    6.6784 C   0  0  0  0  0  0  0  0  0  0  0  0
  -10.3084   -7.7154    3.9573 C   0  0  0  0  0  0  0  0  0  0  0  0
   -3.4082   -6.7965   11.4882 C   0  0  0  0  0  0  0  0  0  0  0  0
   -8.3175  -11.8967   10.5384 C   0  0  0  0  0  0  0  0  0  0  0  0
   -8.7038  -12.9420    9.6999 C   0  0  0  0  0  0  0  0  0  0  0  0
   -7.7114  -10.7728   10.0053 C   0  0  0  0  0  0  0  0  0  0  0  0
   -8.4998  -12.8608    8.3219 C   0  0  0  0  0  0  0  0  0  0  0  0
   -7.5582  -10.6715    8.6293 C   0  0  0  0  0  0  0  0  0  0  0  0
   -5.8291   -8.9052    4.3086 C   0  0  0  0  0  0  0  0  0  0  0  0
   -5.0203   -8.3802    5.5123 C   0  0  0  0  0  0  0  0  0  0  0  0
   -7.7520  -11.6752    6.2530 C   0  0  0  0  0  0  0  0  0  0  0  0
   -0.5377   -9.7555    4.9485 C   0  0  0  0  0  0  0  0  0  0  0  0
    0.0379   -6.1476    9.0197 C   0  0  0  0  0  0  0  0  0  0  0  0
   -9.9185   -3.7727    6.6531 C   0  0  1  0  0  0  0  0  0  0  0  0
  -10.1022   -7.4788    5.4499 C   0  0  1  0  0  0  0  0  0  0  0  0
   -7.9444  -11.7099    7.7592 C   0  0  0  0  0  0  0  0  0  0  0  0
   -7.4171  -10.2838    5.7160 C   0  0  1  0  0  0  0  0  0  0  0  0
   -6.4643  -10.3012    4.5078 C   0  0  1  0  0  0  0  0  0  0  0  0
   -3.9126   -9.3343    5.9123 C   0  0  0  0  0  0  0  0  0  0  0  0
   -1.4836   -9.6863    6.1746 C   0  0  1  0  0  0  0  0  0  0  0  0
   -0.5259   -7.5663    9.2630 C   0  0  1  0  0  0  0  0  0  0  0  0
  -10.4957   -5.2131    6.4708 C   0  0  0  0  0  0  0  0  0  0  0  0
   -8.9252   -8.3056    6.0433 C   0  0  0  0  0  0  0  0  0  0  0  0
   -0.7514   -9.2501    7.4680 C   0  0  0  0  0  0  0  0  0  0  0  0
   -1.4506   -7.6543   10.4943 C   0  0  0  0  0  0  0  0  0  0  0  0
  -10.4272   -3.1873    7.9143 N   0  0  0  0  0  0  0  0  0  0  0  0
   -9.7914   -6.0483    5.6321 N   0  0  0  0  0  0  0  0  0  0  0  0
   -8.6335   -9.5102    5.4291 N   0  0  0  0  0  0  0  0  0  0  0  0
   -2.6421   -8.8176    5.8941 N   0  0  0  0  0  0  0  0  0  0  0  0
   -1.1585   -8.0636    8.0357 N   0  0  0  0  0  0  0  0  0  0  0  0
   -7.1551  -10.7116    3.3267 O   0  0  0  0  0  0  0  0  0  0  0  0
   -4.1460  -10.4933    6.2416 O   0  0  0  0  0  0  0  0  0  0  0  0
  -11.5629   -5.5481    6.9848 O   0  0  0  0  0  0  0  0  0  0  0  0
   -8.2616   -7.8803    6.9899 O   0  0  0  0  0  0  0  0  0  0  0  0
    0.1819   -9.8959    7.9403 O   0  0  0  0  0  0  0  0  0  0  0  0
   -1.1395   -8.2073   11.5513 O   0  0  0  0  0  0  0  0  0  0  0  0
   -2.6032   -6.9505   10.3134 O   0  0  0  0  0  0  0  0  0  0  0  0
  9  8  2  0
 10  8  1  0
 11  9  1  0
 12 10  2  0
 14 13  1  0
 16  1  1  0
 16  2  1  0
 17  3  1  0
 17  4  1  0
 18 30  1  0
 18 26  1  0
 18  5  1  1
 19 27  1  0
 19  6  1  6
 20 11  2  0
 20 12  1  0
 20 15  1  0
 21 32  1  0
 21 22  1  0
 21 15  1  6
 22 13  1  0
 22 35  1  6
 23 14  1  0
 24 16  1  0
 24 33  1  6
 25 17  1  0
 25 34  1  6
 28 24  1  0
 29 25  1  0
 31 19  1  0
 31 26  1  0
 32 27  1  0
 33 23  1  0
 34 28  1  0
 36 23  2  0
 37 26  2  0
 38 27  2  0
 39 28  2  0
 40 29  2  0
 41  7  1  0
 41 29  1  0
M  END
>  <DRUGBANK_ID>  (1) 
DB04191

>  <SECONDARY_ACCESSION_NUMBERS>  (1) 
EXPT01606

>  <COMMON_NAME>  (1) 
Skf 107457

>  <CAS_NUMBER>  (1) 
144285-77-8

$$$$
