783
     RDKit          3D

 20 23  0  0  1  0  0  0  0  0999 V2000
   -5.0454    1.1221   -0.3082 O   0  0  0  0  0  0  0  0  0  0  0  0
    5.7891    0.2134   -0.5658 O   0  0  0  0  0  0  0  0  0  0  0  0
   -2.6465    0.5430   -0.1143 C   0  0  1  0  0  0  0  0  0  0  0  0
   -1.9919   -0.7766    0.3440 C   0  0  2  0  0  0  0  0  0  0  0  0
   -0.5034   -0.8409   -0.0100 C   0  0  1  0  0  0  0  0  0  0  0  0
    0.2335    0.3505    0.6765 C   0  0  2  0  0  0  0  0  0  0  0  0
   -4.0998    0.2764    0.3184 C   0  0  2  0  0  0  0  0  0  0  0  0
   -1.9690    1.6936    0.6346 C   0  0  0  0  0  0  0  0  0  0  0  0
   -2.9430   -1.8404   -0.2003 C   0  0  0  0  0  0  0  0  0  0  0  0
   -0.4552    1.7077    0.3863 C   0  0  0  0  0  0  0  0  0  0  0  0
   -4.3371   -1.1973   -0.0585 C   0  0  0  0  0  0  0  0  0  0  0  0
    0.1524   -2.1423    0.4634 C   0  0  0  0  0  0  0  0  0  0  0  0
   -2.5721    0.7967   -1.6418 C   0  0  0  0  0  0  0  0  0  0  0  0
    1.7217    0.3243    0.3474 C   0  0  0  0  0  0  0  0  0  0  0  0
    1.6149   -2.2127    0.0193 C   0  0  0  0  0  0  0  0  0  0  0  0
    2.3621   -0.9001    0.0625 C   0  0  0  0  0  0  0  0  0  0  0  0
    2.4968    1.4982    0.3711 C   0  0  0  0  0  0  0  0  0  0  0  0
    3.7345   -0.9070   -0.2455 C   0  0  0  0  0  0  0  0  0  0  0  0
    3.8577    1.4799    0.0658 C   0  0  0  0  0  0  0  0  0  0  0  0
    4.4649    0.2737   -0.2480 C   0  0  0  0  0  0  0  0  0  0  0  0
  2 20  1  0
  3  4  1  0
  3  7  1  0
  3  8  1  0
  3 13  1  6
  4  5  1  0
  4  9  1  6
  5  6  1  0
  5 12  1  1
  6 10  1  6
  6 14  1  0
  7  1  1  6
  7 11  1  0
  8 10  1  0
  9 11  1  0
 12 15  1  0
 14 16  2  0
 14 17  1  0
 15 16  1  0
 16 18  1  0
 17 19  2  0
 18 20  2  0
 19 20  1  0
M  END
>  <DRUGBANK_ID>  (1) 
DB00783

>  <SECONDARY_ACCESSION_NUMBERS>  (1) 
APRD00311

>  <COMMON_NAME>  (1) 
Estradiol

>  <CAS_NUMBER>  (1) 
50-28-2

>  <UNII>  (1) 
4TI98Z838E

>  <SYNONYMS>  (1) 
(17β)-estra-1,3,5(10)-triene-3,17-diol; 17beta oestradiol; 17β-estra-1,3,5(10)-triene-3,17-diol; 17β-estradiol; 17β-oestradiol; beta-Estradiol; cis-Estradiol; Estradiol; Estradiol-17beta; Estradiolum

$$$$
