
     RDKit          3D

 10 10  0  0  0  0  0  0  0  0999 V2000
   -2.3380    1.2025    0.0041 C   0  0  0  0  0  0  0  0  0  0  0  0
   -1.1061    0.3534   -0.0008 C   0  0  0  0  0  0  0  0  0  0  0  0
   -1.2711   -0.9791   -0.0077 N   0  0  0  0  0  0  0  0  0  0  0  0
   -0.1395   -1.7032    0.0015 C   0  0  0  0  0  0  0  0  0  0  0  0
    1.1360   -1.1685    0.0092 C   0  0  0  0  0  0  0  0  0  0  0  0
    2.3264   -2.0726    0.0182 C   0  0  0  0  0  0  0  0  0  0  0  0
    2.3353   -2.9426    1.1936 N   0  0  0  0  0  0  0  0  0  0  0  0
    1.1942    0.2187    0.0048 C   0  0  0  0  0  0  0  0  0  0  0  0
    2.3724    0.9165   -0.1224 N   0  0  0  0  0  0  0  0  0  0  0  0
    0.0850    0.9788    0.0034 N   0  0  0  0  0  0  0  0  0  0  0  0
  1  2  1  0
  2  3  2  0
  2 10  1  0
  3  4  1  0
  4  5  2  0
  5  6  1  0
  5  8  1  0
  6  7  1  0
  8  9  1  0
  8 10  2  0
M  END
>  <DRUGBANK_ID>  (1) 
DB03204

>  <SECONDARY_ACCESSION_NUMBERS>  (1) 
EXPT02389

>  <COMMON_NAME>  (1) 
4-amino-5-aminomethyl-2-methylpyrimidine

>  <CAS_NUMBER>  (1) 
95-02-3

>  <UNII>  (1) 
EU1UNR0P28

>  <SYNONYMS>  (1) 
2-Methyl-4-amino-5-aminomethylpyrimidine; 4-Amino-2-methylpyrimidine-5-methylamine

$$$$
