
     RDKit          3D

 24 24  0  0  0  0  0  0  0  0999 V2000
   -1.5884    1.1737    0.5255 O   0  0  0  0  0  0  0  0  0  0  0  0
    1.3916   -1.8091   -0.0588 O   0  0  0  0  0  0  0  0  0  0  0  0
   -1.2118   -1.5395    0.9795 O   0  0  0  0  0  0  0  0  0  0  0  0
    2.2335    0.8322    0.6951 O   0  0  0  0  0  0  0  0  0  0  0  0
   -4.0527    1.0332   -0.9789 O   0  0  0  0  0  0  0  0  0  0  0  0
    0.7392    5.0317    1.3359 O   0  0  0  0  0  0  0  0  0  0  0  0
    1.9018   -0.9664   -5.4849 O   0  0  0  0  0  0  0  0  0  0  0  0
   -0.2352   -0.2696   -5.5687 O   0  0  0  0  0  0  0  0  0  0  0  0
    0.0253    2.9205    1.1074 N   0  0  0  0  0  0  0  0  0  0  0  0
    1.2673    0.9676   -4.4095 N   0  0  0  0  0  0  0  0  0  0  0  0
    0.5675   -0.6741   -0.3502 C   0  0  1  0  0  0  0  0  0  0  0  0
   -0.9328   -1.0336   -0.3361 C   0  0  2  0  0  0  0  0  0  0  0  0
    0.8354    0.4707    0.6708 C   0  0  2  0  0  0  0  0  0  0  0  0
   -1.8392    0.1957   -0.5562 C   0  0  1  0  0  0  0  0  0  0  0  0
   -0.2286    1.6444    0.4650 C   0  0  1  0  0  0  0  0  0  0  0  0
   -3.3269   -0.1418   -0.6014 C   0  0  0  0  0  0  0  0  0  0  0  0
    0.5060    4.1019    0.5541 C   0  0  0  0  0  0  0  0  0  0  0  0
    0.7015    4.3742   -0.9788 C   0  0  0  0  0  0  0  0  0  0  0  0
    1.8399    3.6579   -1.7297 C   0  0  0  0  0  0  0  0  0  0  0  0
    1.5474    2.2018   -1.8417 C   0  0  0  0  0  0  0  0  0  0  0  0
    0.2182    1.8450   -2.5167 C   0  0  0  0  0  0  0  0  0  0  0  0
    0.2856    1.9257   -3.9863 C   0  0  0  0  0  0  0  0  0  0  0  0
    0.8992   -0.0992   -5.1819 C   0  0  0  0  0  0  0  0  0  0  0  0
    3.2392   -0.8412   -4.9861 C   0  0  0  0  0  0  0  0  0  0  0  0
  1 14  1  0
  1 15  1  0
  5 16  1  0
  6 17  2  0
  7 23  1  0
  7 24  1  0
  8 23  2  0
  9 17  1  0
 10 22  1  0
 10 23  1  0
 11  2  1  1
 11 12  1  0
 11 13  1  0
 12  3  1  1
 12 14  1  0
 13  4  1  6
 13 15  1  0
 14 16  1  1
 15  9  1  1
 17 18  1  0
 18 19  1  0
 19 20  1  0
 20 21  1  0
 21 22  1  0
M  END
>  <DRUGBANK_ID>  (1) 
DB02474

>  <SECONDARY_ACCESSION_NUMBERS>  (1) 
EXPT00089

>  <COMMON_NAME>  (1) 
BMSC-0013

>  <SYNONYMS>  (1) 
N-{6-[(Methoxycarbonyl)amino]hexanoyl}-Î²-D-galactopyranosylamine

$$$$
