
     RDKit          3D

 28 30  0  0  0  0  0  0  0  0999 V2000
   -1.2740    1.3537   -0.2139 C   0  0  2  0  0  0  0  0  0  0  0  0
   -1.2921   -0.1081    0.2377 C   0  0  2  0  0  0  0  0  0  0  0  0
   -0.0036   -0.8095   -0.2022 C   0  0  1  0  0  0  0  0  0  0  0  0
    1.2444   -0.0245    0.2368 C   0  0  2  0  0  0  0  0  0  0  0  0
    1.1224    1.4705   -0.1759 C   0  0  1  0  0  0  0  0  0  0  0  0
   -0.1156    2.0216    0.2908 O   0  0  0  0  0  0  0  0  0  0  0  0
    2.2534    2.3128    0.4012 C   0  0  0  0  0  0  0  0  0  0  0  0
   -2.5052    2.0883    0.3280 C   0  0  0  0  0  0  0  0  0  0  0  0
    2.3987   -0.6609   -0.3334 O   0  0  0  0  0  0  0  0  0  0  0  0
   -2.4441   -0.7755   -0.2787 O   0  0  0  0  0  0  0  0  0  0  0  0
    0.0375   -2.1472    0.3136 O   0  0  0  0  0  0  0  0  0  0  0  0
   -2.4722    3.4582   -0.0699 O   0  0  0  0  0  0  0  0  0  0  0  0
    3.5755    2.0613    0.0117 C   0  0  0  0  0  0  0  0  0  0  0  0
    4.6920    2.6469    0.6430 C   0  0  0  0  0  0  0  0  0  0  0  0
    4.4372    3.6465    1.5870 C   0  0  0  0  0  0  0  0  0  0  0  0
    3.1219    3.9997    1.9058 C   0  0  0  0  0  0  0  0  0  0  0  0
    2.0414    3.3226    1.3390 C   0  0  0  0  0  0  0  0  0  0  0  0
    5.6990    4.5157    2.3823 Cl  0  0  0  0  0  0  0  0  0  0  0  0
    6.0935    2.1963    0.2677 C   0  0  0  0  0  0  0  0  0  0  0  0
    6.4357    0.7496    0.5677 C   0  0  0  0  0  0  0  0  0  0  0  0
    5.7704   -0.2749   -0.0978 C   0  0  0  0  0  0  0  0  0  0  0  0
    6.1066   -1.6042    0.0702 C   0  0  0  0  0  0  0  0  0  0  0  0
    7.1182   -1.9657    0.9505 C   0  0  0  0  0  0  0  0  0  0  0  0
    7.8502   -0.9584    1.5752 C   0  0  0  0  0  0  0  0  0  0  0  0
    7.4973    0.3925    1.4155 C   0  0  0  0  0  0  0  0  0  0  0  0
    7.4142   -3.2593    1.2747 O   0  0  0  0  0  0  0  0  0  0  0  0
    6.5425   -4.2772    0.7593 C   0  0  0  0  0  0  0  0  0  0  0  0
    5.1193   -4.2305    1.3222 C   0  0  0  0  0  0  0  0  0  0  0  0
  1  2  1  0
  1  8  1  1
  1  6  1  0
  2  3  1  0
  2 10  1  6
  3  4  1  0
  3 11  1  1
  4  9  1  6
  4  5  1  0
  5  7  1  1
  5  6  1  0
  7 13  2  0
  8 12  1  0
 13 14  1  0
 14 15  2  0
 14 19  1  0
 15 16  1  0
 15 18  1  0
 16 17  2  0
 17  7  1  0
 19 20  1  0
 20 21  2  0
 21 22  1  0
 22 23  2  0
 23 24  1  0
 23 26  1  0
 24 25  2  0
 25 20  1  0
 26 27  1  0
 27 28  1  0
M  END
>  <DRUGBANK_ID>  (1) 
DB06292

>  <COMMON_NAME>  (1) 
Dapagliflozin

>  <CAS_NUMBER>  (1) 
461432-26-8

>  <UNII>  (1) 
1ULL0QJ8UC

>  <SYNONYMS>  (1) 
(2S,3R,4R,5S,6R)-2-(4-Chloro-3-(4-ethoxybenzyl)phenyl)-6- (hydroxymethyl)tetrahydro-2H-pyran-3,4,5-triol; Dapagliflozin; Dapagliflozina

$$$$
