
     RDKit          3D

  9  8  0  0  1  0  0  0  0  0999 V2000
    1.0657   -0.1143    0.1112 C   0  0  0  0  0  0  0  0  0  0  0  0
   -0.9558    2.7041   -1.5024 C   0  0  0  0  0  0  0  0  0  0  0  0
    1.0470    2.4568    0.0865 C   0  0  0  0  0  0  0  0  0  0  0  0
    1.1361    3.9802   -1.9653 C   0  0  0  0  0  0  0  0  0  0  0  0
    0.6232    1.1664    0.8087 C   0  0  1  0  0  0  0  0  0  0  0  0
    0.5714    2.6622   -1.3749 C   0  0  2  0  0  0  0  0  0  0  0  0
    2.5595    4.0167   -2.0121 O   0  0  0  0  0  0  0  0  0  0  0  0
   -0.7785    1.1618    1.0508 O   0  0  0  0  0  0  0  0  0  0  0  0
    1.0585    1.5793   -2.1738 O   0  0  0  0  0  0  0  0  0  0  0  0
  5  1  1  6
  5  3  1  0
  5  8  1  0
  6  2  1  1
  6  3  1  0
  6  4  1  0
  6  9  1  0
  7  4  1  0
M  END
>  <DRUGBANK_ID>  (1) 
DB01881

>  <SECONDARY_ACCESSION_NUMBERS>  (1) 
EXPT02229

>  <COMMON_NAME>  (1) 
2-Methylpentane-1,2,4-Triol

$$$$
