
     RDKit          3D

 13 13  0  0  1  0  0  0  0  0999 V2000
    1.1386    0.1912   -0.2543 N   0  0  0  0  0  0  0  0  0  0  0  0
    0.5572   -0.9888   -0.9384 C   0  0  1  0  0  0  0  0  0  0  0  0
    1.0514   -2.3229   -0.3439 C   0  0  0  0  0  0  0  0  0  0  0  0
    0.6454   -2.5445    1.0419 N   0  0  0  0  0  0  0  0  0  0  0  0
    0.5805   -3.8735    1.5316 O   0  0  0  0  0  0  0  0  0  0  0  0
    0.1040   -3.7665    2.8215 C   0  0  0  0  0  0  0  0  0  0  0  0
   -0.0482   -4.7033    3.5938 O   0  0  0  0  0  0  0  0  0  0  0  0
   -0.1332   -2.4756    3.1035 N   0  0  0  0  0  0  0  0  0  0  0  0
    0.2116   -1.7173    2.0504 C   0  0  0  0  0  0  0  0  0  0  0  0
    0.1530   -0.4983    2.0627 O   0  0  0  0  0  0  0  0  0  0  0  0
   -0.9943   -0.9818   -0.9178 C   0  0  0  0  0  0  0  0  0  0  0  0
   -1.5778   -0.7693   -2.1189 O   0  0  0  0  0  0  0  0  0  0  0  0
   -1.6884   -1.2155    0.0630 O   0  0  0  0  0  0  0  0  0  0  0  0
  2  1  1  1
  2  3  1  0
  2 11  1  0
  3  4  1  0
  4  5  1  0
  4  9  1  0
  5  6  1  0
  6  7  2  0
  6  8  1  0
  8  9  1  0
  9 10  2  0
 11 12  1  0
 11 13  2  0
M  END
>  <DRUGBANK_ID>  (1) 
DB02999

>  <SECONDARY_ACCESSION_NUMBERS>  (1) 
EXPT02735

>  <COMMON_NAME>  (1) 
Quisqualic acid

>  <CAS_NUMBER>  (1) 
52809-07-1

>  <UNII>  (1) 
8OC22C1B99

>  <SYNONYMS>  (1) 
Quisqualate

$$$$
