
     RDKit          3D

 28 31  0  0  0  0  0  0  0  0999 V2000
    1.8354   -0.5745   -0.0273 C   0  0  0  0  0  0  0  0  0  0  0  0
    1.2586   -1.7329   -0.6011 O   0  0  0  0  0  0  0  0  0  0  0  0
    1.2736   -1.6770   -1.9519 C   0  0  0  0  0  0  0  0  0  0  0  0
    1.8386   -0.8597   -2.6310 O   0  0  0  0  0  0  0  0  0  0  0  0
    0.5500   -2.8803   -2.4105 C   0  0  0  0  0  0  0  0  0  0  0  0
   -0.8410   -3.0980   -2.1978 C   0  0  0  0  0  0  0  0  0  0  0  0
   -1.3810   -4.3046   -2.7073 C   0  0  0  0  0  0  0  0  0  0  0  0
   -0.6276   -5.1182   -3.5747 C   0  0  0  0  0  0  0  0  0  0  0  0
    0.7006   -4.8057   -3.8625 C   0  0  0  0  0  0  0  0  0  0  0  0
    1.2972   -3.7053   -3.2604 C   0  0  0  0  0  0  0  0  0  0  0  0
   -1.8050   -1.8923   -2.0011 C   0  0  0  0  0  0  0  0  0  0  0  0
   -2.2401   -1.4276   -3.2203 C   0  0  0  0  0  0  0  0  0  0  0  0
   -3.0089   -2.3054   -4.0984 C   0  0  0  0  0  0  0  0  0  0  0  0
   -2.3836   -2.9342   -5.1021 C   0  0  0  0  0  0  0  0  0  0  0  0
   -0.9882   -2.5285   -5.4523 C   0  0  0  0  0  0  0  0  0  0  0  0
   -0.2291   -3.3346   -6.1345 N   0  0  0  0  0  0  0  0  0  0  0  0
   -0.5136   -1.1667   -4.9146 C   0  0  0  0  0  0  0  0  0  0  0  0
    1.1432   -0.6024   -5.5935 Br  0  0  0  0  0  0  0  0  0  0  0  0
   -1.1869   -0.6091   -3.8615 C   0  0  0  0  0  0  0  0  0  0  0  0
   -0.7784    0.4992   -3.0984 O   0  0  0  0  0  0  0  0  0  0  0  0
   -1.0212    0.4707   -1.7028 C   0  0  0  0  0  0  0  0  0  0  0  0
   -1.4880   -0.7257   -1.1049 C   0  0  0  0  0  0  0  0  0  0  0  0
   -1.4647   -0.8503    0.3023 C   0  0  0  0  0  0  0  0  0  0  0  0
   -0.9340    0.1727    1.1143 C   0  0  0  0  0  0  0  0  0  0  0  0
   -0.3471    1.3034    0.5198 C   0  0  0  0  0  0  0  0  0  0  0  0
    0.6240    2.0069    1.2651 N   0  0  0  0  0  0  0  0  0  0  0  0
   -0.5098    1.5105   -0.8847 C   0  0  0  0  0  0  0  0  0  0  0  0
    0.3651    3.0003   -1.7035 Br  0  0  0  0  0  0  0  0  0  0  0  0
  1  2  1  0
  2  3  1  0
  3  4  2  0
  3  5  1  0
  5  6  2  0
  5 10  1  0
  6  7  1  0
  6 11  1  0
  7  8  2  0
  8  9  1  0
  9 10  2  0
 11 12  2  0
 11 22  1  0
 12 13  1  0
 12 19  1  0
 13 14  2  0
 14 15  1  0
 15 16  2  0
 15 17  1  0
 17 18  1  0
 17 19  2  0
 19 20  1  0
 20 21  1  0
 21 22  2  0
 21 27  1  0
 22 23  1  0
 23 24  2  0
 24 25  1  0
 25 26  1  0
 25 27  2  0
 27 28  1  0
M  END
>  <DRUGBANK_ID>  (1) 
DB17148

>  <COMMON_NAME>  (1) 
TH-9402 free base

>  <CAS_NUMBER>  (1) 
1373958-68-9

>  <UNII>  (1) 
934QHK1OOK

>  <SYNONYMS>  (1) 
4,5 dibromorhodamine methyl ester; 4,5-dibromorhodamine 123 free base; 4,5-dibromorhodamine methyl ester; Benzoic acid, 2-(6-amino-4,5-dibromo-3-imino-3h-xanthen-9-yl)-, methyl ester

$$$$
