
     RDKit          3D

 12 11  0  0  0  0  0  0  0  0999 V2000
    3.3261    1.7487    2.5020 O   0  0  0  0  0  0  0  0  0  0  0  0
    2.6242    0.7605    2.3124 C   0  0  0  0  0  0  0  0  0  0  0  0
    1.4796    0.5687    3.0047 O   0  0  0  0  0  0  0  0  0  0  0  0
    2.9257   -0.2956    1.2371 C   0  0  2  0  0  0  0  0  0  0  0  0
    2.2284    0.0368   -0.0141 N   0  0  0  0  0  0  0  0  0  0  0  0
    2.6259   -1.7310    1.6977 C   0  0  0  0  0  0  0  0  0  0  0  0
    3.0624   -2.8030    0.6947 C   0  0  0  0  0  0  0  0  0  0  0  0
    4.5520   -2.7562    0.3755 C   0  0  0  0  0  0  0  0  0  0  0  0
    5.3223   -3.1255    1.5418 N   0  0  0  0  0  0  0  0  0  0  0  0
    6.1735   -4.1613    1.6751 C   0  0  0  0  0  0  0  0  0  0  0  0
    6.8295   -4.4104    2.7524 N   0  0  0  0  0  0  0  0  0  0  0  0
    6.3200   -4.9875    0.6356 N   0  0  0  0  0  0  0  0  0  0  0  0
  2  1  2  0
  3  2  1  0
  4  5  1  6
  4  2  1  0
  6  4  1  0
  7  6  1  0
  7  8  1  0
  9  8  1  0
 10  9  1  0
 11 10  2  0
 12 10  1  0
M  END
>  <DRUGBANK_ID>  (1) 
DB04027

>  <SECONDARY_ACCESSION_NUMBERS>  (1) 
EXPT01113

>  <COMMON_NAME>  (1) 
D-arginine

>  <CAS_NUMBER>  (1) 
157-06-2

>  <UNII>  (1) 
R54Z304Z7C

>  <SYNONYMS>  (1) 
(2R)-2-amino-5-(carbamimidamido)pentanoic acid; (2R)-2-amino-5-guanidinopentanoic acid; (R)-2-amino-5-guanidinopentanoic acid; D-2-Amino-5-guanidinovaleric acid; D-Arginin

$$$$
