CII
     RDKit          3D

 22 23  0  0  0  0  0  0  0  0999 V2000
    0.9376    0.0086   -0.0376 O   0  0  0  0  0  0  0  0  0  0  0  0
    2.1483    0.0838    0.0411 C   0  0  0  0  0  0  0  0  0  0  0  0
    2.9890   -0.8850    0.8979 C   0  0  0  0  0  0  0  0  0  0  0  0
    2.5474   -2.3221    0.5804 C   0  0  0  0  0  0  0  0  0  0  0  0
    3.1410   -3.3586    1.5293 C   0  0  0  0  0  0  0  0  0  0  0  0
    2.8426   -3.0094    2.9814 C   0  0  0  0  0  0  0  0  0  0  0  0
    3.3614   -1.6167    3.3200 C   0  0  0  0  0  0  0  0  0  0  0  0
    2.7888   -0.5542    2.3813 C   0  0  0  0  0  0  0  0  0  0  0  0
    2.8902    1.0542   -0.5965 N   0  0  0  0  0  0  0  0  0  0  0  0
    2.3752    1.9726   -1.6215 C   0  0  1  0  0  0  0  0  0  0  0  0
    2.5380    3.4668   -1.1904 C   0  0  0  0  0  0  0  0  0  0  0  0
    3.9575    3.9720   -1.2113 C   0  0  0  0  0  0  0  0  0  0  0  0
    1.7759    4.4240   -2.0990 C   0  0  0  0  0  0  0  0  0  0  0  0
    2.9046    1.6453   -3.0760 C   0  0  0  0  0  0  0  0  0  0  0  0
    2.0749    1.4905   -3.9867 O   0  0  0  0  0  0  0  0  0  0  0  0
    4.2371    1.6918   -3.4715 N   0  0  0  0  0  0  0  0  0  0  0  0
    5.4120    1.9252   -2.7151 C   0  0  0  0  0  0  0  0  0  0  0  0
    5.6490    1.2299   -1.5402 C   0  0  0  0  0  0  0  0  0  0  0  0
    6.4803    1.8018   -0.5865 C   0  0  0  0  0  0  0  0  0  0  0  0
    7.1974    2.9222   -0.7992 N   0  0  0  0  0  0  0  0  0  0  0  0
    7.1076    3.4718   -2.0311 C   0  0  0  0  0  0  0  0  0  0  0  0
    6.2517    3.0040   -3.0291 C   0  0  0  0  0  0  0  0  0  0  0  0
  1  2  2  0
  2  3  1  0
  2  9  1  0
  3  4  1  0
  3  8  1  0
  4  5  1  0
  5  6  1  0
  6  7  1  0
  7  8  1  0
 10  9  1  1
 10 11  1  0
 10 14  1  0
 11 12  1  0
 11 13  1  0
 14 15  2  0
 14 16  1  0
 16 17  1  0
 17 18  2  0
 17 22  1  0
 18 19  1  0
 19 20  2  0
 20 21  1  0
 21 22  2  0
M  END
>  <DRUGBANK_ID>  (1) 
DB07560

>  <COMMON_NAME>  (1) 
N-[(1S)-2-methyl-1-(pyridin-4-ylcarbamoyl)propyl]cyclohexanecarboxamide

$$$$
