
     RDKit          3D

 31 34  0  0  0  0  0  0  0  0999 V2000
   -4.7313   -6.5652   -0.6670 C   0  0  0  0  0  0  0  0  0  0  0  0
   -5.6674   -5.7590   -1.3141 C   0  0  0  0  0  0  0  0  0  0  0  0
   -5.6414   -4.3778   -1.1164 C   0  0  0  0  0  0  0  0  0  0  0  0
   -4.6869   -3.8160   -0.3444 N   0  0  0  0  0  0  0  0  0  0  0  0
   -3.7239   -4.5858    0.2040 C   0  0  0  0  0  0  0  0  0  0  0  0
   -3.7651   -5.9722    0.1285 C   0  0  0  0  0  0  0  0  0  0  0  0
   -2.8193   -3.9477    1.2155 C   0  0  0  0  0  0  0  0  0  0  0  0
   -2.1446   -2.5628    1.2006 C   0  0  1  0  0  0  0  0  0  0  0  0
   -3.1730   -1.3984    1.2349 C   0  0  0  0  0  0  0  0  0  0  0  0
   -4.0182   -1.3249    2.5161 C   0  0  0  0  0  0  0  0  0  0  0  0
   -3.1788   -1.3731    3.8082 C   0  0  2  0  0  0  0  0  0  0  0  0
   -1.9911   -2.3543    3.8115 C   0  0  0  0  0  0  0  0  0  0  0  0
   -1.2419   -2.4160    2.4779 C   0  0  0  0  0  0  0  0  0  0  0  0
   -3.9866   -1.4530    5.0132 O   0  0  0  0  0  0  0  0  0  0  0  0
   -4.7494   -2.5583    5.2879 C   0  0  0  0  0  0  0  0  0  0  0  0
   -4.8146   -3.7238    4.5395 C   0  0  0  0  0  0  0  0  0  0  0  0
   -5.5951   -4.8278    4.8106 C   0  0  0  0  0  0  0  0  0  0  0  0
   -6.3428   -4.8216    5.9539 C   0  0  0  0  0  0  0  0  0  0  0  0
   -6.3011   -3.6846    6.7707 C   0  0  0  0  0  0  0  0  0  0  0  0
   -5.5220   -2.5537    6.4380 C   0  0  0  0  0  0  0  0  0  0  0  0
   -5.5579   -6.1759    3.7351 Cl  0  0  0  0  0  0  0  0  0  0  0  0
   -4.0182   -3.8880    3.5220 F   0  0  0  0  0  0  0  0  0  0  0  0
   -1.2908   -2.4789   -0.0472 C   0  0  0  0  0  0  0  0  0  0  0  0
   -1.5829   -1.9472   -1.1136 O   0  0  0  0  0  0  0  0  0  0  0  0
   -0.0887   -3.0754    0.0812 O   0  0  0  0  0  0  0  0  0  0  0  0
   -6.6509   -3.5739   -1.6657 N   0  0  0  0  0  0  0  0  0  0  0  0
   -6.6827   -2.2279   -1.5339 C   0  0  0  0  0  0  0  0  0  0  0  0
   -8.1160   -1.4268   -0.9796 S   0  0  0  0  0  0  0  0  0  0  0  0
   -7.2992    0.0805   -1.0328 C   0  0  0  0  0  0  0  0  0  0  0  0
   -6.0316   -0.1056   -1.5322 C   0  0  0  0  0  0  0  0  0  0  0  0
   -5.6978   -1.4075   -1.8303 N   0  0  0  0  0  0  0  0  0  0  0  0
  1  2  2  0
  1  6  1  0
  2  3  1  0
  3  4  2  0
  3 26  1  0
  4  5  1  0
  5  6  2  0
  5  7  1  0
  8  9  1  0
  8 13  1  0
  8 23  1  0
  8  7  1  1
  9 10  1  0
 10 11  1  0
 11 12  1  0
 11 14  1  1
 12 13  1  0
 14 15  1  0
 15 16  2  0
 15 20  1  0
 16 17  1  0
 16 22  1  0
 17 18  2  0
 17 21  1  0
 18 19  1  0
 19 20  2  0
 23 24  2  0
 23 25  1  0
 26 27  1  0
 27 28  1  0
 27 31  2  0
 28 29  1  0
 29 30  2  0
 30 31  1  0
M  END
>  <DRUGBANK_ID>  (1) 
DB12556

>  <COMMON_NAME>  (1) 
MK-5108

>  <CAS_NUMBER>  (1) 
1010085-13-8

>  <UNII>  (1) 
H8J407531S

$$$$
