
     RDKit          3D

 22 24  0  0  0  0  0  0  0  0999 V2000
    0.9084   -0.1069    0.0145 C   0  0  0  0  0  0  0  0  0  0  0  0
    0.3826    0.9750   -0.9464 C   0  0  0  0  0  0  0  0  0  0  0  0
    0.8446    0.6451   -2.3826 C   0  0  0  0  0  0  0  0  0  0  0  0
   -1.1642    0.8944   -0.9236 C   0  0  0  0  0  0  0  0  0  0  0  0
    0.8731    2.2967   -0.4636 N   0  0  0  0  0  0  0  0  0  0  0  0
    2.3080    2.5183   -0.7174 C   0  0  0  0  0  0  0  0  0  0  0  0
    2.8239    3.8867   -0.2995 C   0  0  0  0  0  0  0  0  0  0  0  0
    1.9630    5.0676   -0.8199 C   0  0  0  0  0  0  0  0  0  0  0  0
    0.4958    4.7640   -0.4358 C   0  0  0  0  0  0  0  0  0  0  0  0
   -0.0052    3.4035   -0.8588 C   0  0  0  0  0  0  0  0  0  0  0  0
    2.4312    6.3434   -0.0622 C   0  0  0  0  0  0  0  0  0  0  0  0
    3.7743    6.7504   -0.1785 C   0  0  0  0  0  0  0  0  0  0  0  0
    4.1604    8.0341    0.1935 C   0  0  0  0  0  0  0  0  0  0  0  0
    3.2294    8.9083    0.7464 C   0  0  0  0  0  0  0  0  0  0  0  0
    1.9217    8.4900    0.9637 C   0  0  0  0  0  0  0  0  0  0  0  0
    1.5320    7.2081    0.5897 C   0  0  0  0  0  0  0  0  0  0  0  0
    2.0691    5.2681   -2.3784 C   0  0  0  0  0  0  0  0  0  0  0  0
    1.7327    4.2598   -3.2944 C   0  0  0  0  0  0  0  0  0  0  0  0
    1.7541    4.4121   -4.6768 C   0  0  0  0  0  0  0  0  0  0  0  0
    2.1382    5.6266   -5.2140 C   0  0  0  0  0  0  0  0  0  0  0  0
    2.4830    6.6597   -4.3576 C   0  0  0  0  0  0  0  0  0  0  0  0
    2.4553    6.4861   -2.9685 C   0  0  0  0  0  0  0  0  0  0  0  0
  1  2  1  0
  2  3  1  0
  2  4  1  0
  2  5  1  0
  5  6  1  0
  5 10  1  0
  6  7  1  0
  7  8  1  0
  8  9  1  0
  8 11  1  0
  8 17  1  0
  9 10  1  0
 11 12  2  0
 11 16  1  0
 12 13  1  0
 13 14  2  0
 14 15  1  0
 15 16  2  0
 17 18  2  0
 17 22  1  0
 18 19  1  0
 19 20  2  0
 20 21  1  0
 21 22  2  0
M  END
>  <DRUGBANK_ID>  (1) 
DB13502

>  <COMMON_NAME>  (1) 
Budipine

>  <CAS_NUMBER>  (1) 
57982-78-2

>  <UNII>  (1) 
L9026OPI2Z

>  <SYNONYMS>  (1) 
Budipine

$$$$
