177
     RDKit          3D

 32 34  0  0  1  0  0  0  0  0999 V2000
    0.8476    0.0493    0.1082 O   0  0  0  0  0  0  0  0  0  0  0  0
   -0.6626   -2.8044    1.4989 O   0  0  0  0  0  0  0  0  0  0  0  0
    1.0137   -1.8594   -1.0185 O   0  0  0  0  0  0  0  0  0  0  0  0
   -1.7344   -0.8585    0.9124 N   0  0  0  0  0  0  0  0  0  0  0  0
   -5.9958   -4.4842    5.1788 N   0  0  0  0  0  0  0  0  0  0  0  0
   -5.3156   -2.3616    5.5741 N   0  0  0  0  0  0  0  0  0  0  0  0
   -4.7448   -4.3883    5.6546 N   0  0  0  0  0  0  0  0  0  0  0  0
   -4.3044   -3.1513    5.9097 N   0  0  0  0  0  0  0  0  0  0  0  0
   -1.2559   -1.0397   -0.4828 C   0  0  1  0  0  0  0  0  0  0  0  0
   -1.7760    0.0826   -1.4515 C   0  0  0  0  0  0  0  0  0  0  0  0
   -2.8115    0.1188    1.0758 C   0  0  0  0  0  0  0  0  0  0  0  0
   -1.3342   -1.8274    1.8578 C   0  0  0  0  0  0  0  0  0  0  0  0
   -1.1788   -0.0013   -2.8406 C   0  0  0  0  0  0  0  0  0  0  0  0
   -3.3178    0.0852   -1.6995 C   0  0  0  0  0  0  0  0  0  0  0  0
   -1.7464   -1.7707    3.3435 C   0  0  0  0  0  0  0  0  0  0  0  0
    0.3011   -1.0508   -0.4774 C   0  0  0  0  0  0  0  0  0  0  0  0
   -4.1871   -0.4169    1.3746 C   0  0  0  0  0  0  0  0  0  0  0  0
   -1.1953   -0.6115    4.1878 C   0  0  0  0  0  0  0  0  0  0  0  0
   -1.5959    0.7646    3.7159 C   0  0  0  0  0  0  0  0  0  0  0  0
   -4.3881   -1.7895    1.5217 C   0  0  0  0  0  0  0  0  0  0  0  0
   -5.1823    0.4886    1.7874 C   0  0  0  0  0  0  0  0  0  0  0  0
   -6.3828   -1.3507    2.7837 C   0  0  0  0  0  0  0  0  0  0  0  0
   -5.4622   -2.2512    2.2495 C   0  0  0  0  0  0  0  0  0  0  0  0
   -6.2059    0.0257    2.5942 C   0  0  0  0  0  0  0  0  0  0  0  0
   -3.1109    0.9127    3.8609 C   0  0  0  0  0  0  0  0  0  0  0  0
   -7.5815   -1.8273    3.4523 C   0  0  0  0  0  0  0  0  0  0  0  0
   -7.5734   -2.6837    4.5670 C   0  0  0  0  0  0  0  0  0  0  0  0
   -8.8078   -1.4196    2.8916 C   0  0  0  0  0  0  0  0  0  0  0  0
   -8.7969   -3.0887    5.1113 C   0  0  0  0  0  0  0  0  0  0  0  0
  -10.0103   -1.7779    3.4737 C   0  0  0  0  0  0  0  0  0  0  0  0
   -6.3297   -3.1816    5.1341 C   0  0  0  0  0  0  0  0  0  0  0  0
  -10.0043   -2.6294    4.5720 C   0  0  0  0  0  0  0  0  0  0  0  0
  1 16  1  0
  2 12  2  0
  3 16  2  0
  4 11  1  0
  4 12  1  0
  5  7  1  0
  5 31  2  0
  6  8  2  0
  6 31  1  0
  7  8  1  0
  9  4  1  0
  9 10  1  6
  9 16  1  0
 10 13  1  0
 10 14  1  0
 11 17  1  0
 12 15  1  0
 15 18  1  0
 17 20  2  0
 17 21  1  0
 18 19  1  0
 19 25  1  0
 20 23  1  0
 21 24  2  0
 22 23  2  0
 22 24  1  0
 22 26  1  0
 26 27  1  0
 26 28  2  0
 27 29  2  0
 27 31  1  0
 28 30  1  0
 29 32  1  0
 30 32  2  0
M  END
>  <DRUGBANK_ID>  (1) 
DB00177

>  <SECONDARY_ACCESSION_NUMBERS>  (1) 
APRD00133

>  <COMMON_NAME>  (1) 
Valsartan

>  <CAS_NUMBER>  (1) 
137862-53-4

>  <UNII>  (1) 
80M03YXJ7I

>  <SYNONYMS>  (1) 
(S)-N-Valeryl-N-{[2'-(1H-tetrazol-5-yl)biphenyl-4-yl]-methyl}-valine; N-(P-(O-1H-Tetrazol-5-ylphenyl)benzyl)-N-valeryl-L-valine; N-pentanoyl-N-{[2'-(1H-tetrazol-5-yl)biphenyl-4-yl]methyl}-L-valine; Valsartan

$$$$
