
     RDKit          3D

 11 11  0  0  0  0  0  0  0  0999 V2000
    1.0144   -0.0792   -0.0376 C   0  0  0  0  0  0  0  0  0  0  0  0
    0.5597   -1.4499    0.4021 C   0  0  0  0  0  0  0  0  0  0  0  0
    0.9325   -2.4665   -0.1788 O   0  0  0  0  0  0  0  0  0  0  0  0
   -0.2771   -1.4632    1.4866 N   0  0  0  0  0  0  0  0  0  0  0  0
   -0.7710   -2.6849    2.1228 C   0  0  0  0  0  0  0  0  0  0  0  0
   -0.2867   -2.8641    3.5716 C   0  0  0  0  0  0  0  0  0  0  0  0
   -0.6770   -1.7321    4.4663 C   0  0  0  0  0  0  0  0  0  0  0  0
   -0.9216    0.2379    5.3813 N   0  0  0  0  0  0  0  0  0  0  0  0
   -1.4283   -1.9076    5.6069 N   0  0  0  0  0  0  0  0  0  0  0  0
   -0.3298   -0.4040    4.3381 C   0  0  0  0  0  0  0  0  0  0  0  0
   -1.5341   -0.7119    6.1459 C   0  0  0  0  0  0  0  0  0  0  0  0
  2  1  1  0
  2  3  2  0
  4  2  1  0
  4  5  1  0
  5  6  1  0
  6  7  1  0
  7 10  2  0
  9  7  1  0
 10  8  1  0
 11  9  2  0
 11  8  1  0
M  END
>  <DRUGBANK_ID>  (1) 
DB04622

>  <COMMON_NAME>  (1) 
N-acetylhistamine

>  <CAS_NUMBER>  (1) 
673-49-4

>  <UNII>  (1) 
E65S46EBQ6

>  <SYNONYMS>  (1) 
4-(2-acetamidoethyl)imidazole; 4-(2-acetylaminoethyl)imidazole; 4-(beta-Acetylaminoethyl)imidazole; Î±-N-acetylhistamine

$$$$
