
     RDKit          3D

 36 39  0  0  0  0  0  0  0  0999 V2000
    0.7737   -0.0943   -0.0474 C   0  0  0  0  0  0  0  0  0  0  0  0
    0.3212    1.2797   -0.3543 C   0  0  0  0  0  0  0  0  0  0  0  0
    0.9901    2.4660   -0.0003 C   0  0  0  0  0  0  0  0  0  0  0  0
    0.3991    3.3135   -0.9606 C   0  0  0  0  0  0  0  0  0  0  0  0
   -0.7447    2.9109   -1.4678 N   0  0  0  0  0  0  0  0  0  0  0  0
   -0.8190    1.6455   -1.1081 N   0  0  0  0  0  0  0  0  0  0  0  0
   -1.9553    1.0047   -1.7865 C   0  0  0  0  0  0  0  0  0  0  0  0
   -3.3393    1.4655   -1.2858 C   0  0  0  0  0  0  0  0  0  0  0  0
   -3.8295    2.7900   -1.4053 C   0  0  0  0  0  0  0  0  0  0  0  0
   -5.1113    3.1452   -0.9414 C   0  0  0  0  0  0  0  0  0  0  0  0
   -5.9526    2.1756   -0.3913 C   0  0  0  0  0  0  0  0  0  0  0  0
   -5.4872    0.8609   -0.2829 C   0  0  0  0  0  0  0  0  0  0  0  0
   -4.2035    0.5132   -0.7312 C   0  0  0  0  0  0  0  0  0  0  0  0
   -7.2753    2.5108    0.0119 C   0  0  0  0  0  0  0  0  0  0  0  0
   -8.3836    2.7839    0.3257 N   0  0  0  0  0  0  0  0  0  0  0  0
    0.7381    4.6731   -1.0744 C   0  0  0  0  0  0  0  0  0  0  0  0
    0.7453    5.4187   -2.1759 F   0  0  0  0  0  0  0  0  0  0  0  0
   -0.1746    5.1592   -0.2417 F   0  0  0  0  0  0  0  0  0  0  0  0
    1.9880    4.6922   -0.6484 F   0  0  0  0  0  0  0  0  0  0  0  0
    2.0791    2.6977    0.9393 N   0  0  0  0  0  0  0  0  0  0  0  0
    2.7863    3.8703    1.4813 C   0  0  0  0  0  0  0  0  0  0  0  0
    3.8500    3.6508    2.0812 O   0  0  0  0  0  0  0  0  0  0  0  0
    2.3700    5.4005    1.3677 C   0  0  0  0  0  0  0  0  0  0  0  0
    1.0396    5.7806    1.6469 C   0  0  0  0  0  0  0  0  0  0  0  0
    0.4464    6.8950    0.9828 C   0  0  0  0  0  0  0  0  0  0  0  0
    1.1823    7.6806    0.1382 N   0  0  0  0  0  0  0  0  0  0  0  0
    2.5015    7.4112   -0.0513 C   0  0  0  0  0  0  0  0  0  0  0  0
    3.1516    6.2742    0.5296 C   0  0  0  0  0  0  0  0  0  0  0  0
    4.4570    5.9496    0.0853 C   0  0  0  0  0  0  0  0  0  0  0  0
    5.1095    6.6979   -0.8866 C   0  0  0  0  0  0  0  0  0  0  0  0
    4.5534    7.9040   -1.2600 C   0  0  0  0  0  0  0  0  0  0  0  0
    3.2564    8.2446   -0.8788 C   0  0  0  0  0  0  0  0  0  0  0  0
    5.3118    8.7860   -1.9250 F   0  0  0  0  0  0  0  0  0  0  0  0
   -1.1491    6.9714    0.7588 C   0  0  0  0  0  0  0  0  0  0  0  0
   -1.7093    7.8082    0.0535 O   0  0  0  0  0  0  0  0  0  0  0  0
   -1.9390    5.9386    1.2828 N   0  0  0  0  0  0  0  0  0  0  0  0
  1  2  1  0
  2  3  2  0
  2  6  1  0
  3  4  1  0
  3 20  1  0
  4  5  2  0
  4 16  1  0
  5  6  1  0
  6  7  1  0
  7  8  1  0
  8  9  2  0
  8 13  1  0
  9 10  1  0
 10 11  2  0
 11 12  1  0
 11 14  1  0
 12 13  2  0
 14 15  3  0
 16 17  1  0
 16 18  1  0
 16 19  1  0
 20 21  1  0
 21 22  2  0
 21 23  1  0
 23 24  2  0
 23 28  1  0
 24 25  1  0
 25 26  2  0
 25 34  1  0
 26 27  1  0
 27 28  2  0
 27 32  1  0
 28 29  1  0
 29 30  2  0
 30 31  1  0
 31 32  2  0
 31 33  1  0
 34 35  2  0
 34 36  1  0
M  END
>  <DRUGBANK_ID>  (1) 
DB16758

>  <COMMON_NAME>  (1) 
BAY-876

>  <CAS_NUMBER>  (1) 
1799753-84-6

>  <SYNONYMS>  (1) 
BAY 876; BAY876

$$$$
