581
     RDKit          3D

  6  5  0  0  1  0  0  0  0  0999 V2000
    0.9809   -2.5672   -0.0749 C   0  0  0  0  0  0  0  0  0  0  0  0
    0.4689   -1.2893   -0.7282 C   0  0  2  0  0  0  0  0  0  0  0  0
    1.0166   -0.0517   -0.0031 C   0  0  0  0  0  0  0  0  0  0  0  0
   -0.9549   -1.3511   -0.7685 O   0  0  0  0  0  0  0  0  0  0  0  0
    2.1309    0.0725    0.4842 O   0  0  0  0  0  0  0  0  0  0  0  0
    0.1223    0.9564    0.0768 O   0  0  0  0  0  0  0  0  0  0  0  0
  2  4  1  0
  2  3  1  0
  2  1  1  1
  5  3  2  0
  6  3  1  0
M  END
>  <DRUGBANK_ID>  (1) 
DB03066

>  <SECONDARY_ACCESSION_NUMBERS>  (1) 
EXPT01215

>  <COMMON_NAME>  (1) 
D-Lactic acid

>  <CAS_NUMBER>  (1) 
10326-41-7

>  <UNII>  (1) 
3Q6M5SET7W

>  <SYNONYMS>  (1) 
(−)-lactic acid; (R)-(−)-lactic acid; (R)-lactic acid; D-2-Hydroxypropanoic acid; D-2-Hydroxypropionic acid; D-Milchsäure

$$$$
