
     RDKit          3D

 21 23  0  0  0  0  0  0  0  0999 V2000
   -2.0834   -0.7547   -0.0005 N   0  0  0  0  0  0  0  0  0  0  0  0
   -0.8848    1.3483   -0.0322 N   0  0  0  0  0  0  0  0  0  0  0  0
   -1.9968    0.5909   -0.0107 C   0  0  0  0  0  0  0  0  0  0  0  0
    0.2816   -0.7706    0.0181 C   0  0  0  0  0  0  0  0  0  0  0  0
   -0.9375   -1.4616    0.0031 C   0  0  0  0  0  0  0  0  0  0  0  0
    0.2367    0.6170    0.0154 C   0  0  0  0  0  0  0  0  0  0  0  0
    1.5330    1.0866    0.0472 N   0  0  0  0  0  0  0  0  0  0  0  0
    2.3989    0.0110    0.0272 C   0  0  0  0  0  0  0  0  0  0  0  0
    1.6471   -1.1405    0.0186 C   0  0  0  0  0  0  0  0  0  0  0  0
   -1.0002   -2.8343   -0.0078 N   0  0  0  0  0  0  0  0  0  0  0  0
    2.1614   -2.4661    0.0011 C   0  0  0  0  0  0  0  0  0  0  0  0
    2.5211   -3.5733   -0.0089 N   0  0  0  0  0  0  0  0  0  0  0  0
    1.9974    2.4665   -0.0437 C   0  0  1  0  0  0  0  0  0  0  0  0
    1.5517    3.1933   -1.3056 C   0  0  2  0  0  0  0  0  0  0  0  0
    2.4018    2.9343   -2.4215 O   0  0  0  0  0  0  0  0  0  0  0  0
    1.5706    4.6475   -0.8560 C   0  0  2  0  0  0  0  0  0  0  0  0
    2.8684    5.2170   -1.0834 O   0  0  0  0  0  0  0  0  0  0  0  0
    1.2457    4.5737    0.6408 C   0  0  2  0  0  0  0  0  0  0  0  0
    1.5993    3.2445    1.0970 O   0  0  0  0  0  0  0  0  0  0  0  0
   -0.2312    4.8570    0.9471 C   0  0  0  0  0  0  0  0  0  0  0  0
   -1.1432    3.9907    0.2979 O   0  0  0  0  0  0  0  0  0  0  0  0
  3  1  2  0
  3  2  1  0
  5  1  1  0
  5  4  2  0
  6  2  2  0
  6  4  1  0
  7  6  1  0
  8  7  1  0
  9  4  1  0
  9  8  2  0
 10  5  1  0
 11  9  1  0
 12 11  3  0
 13  7  1  1
 14 13  1  0
 14 15  1  6
 16 14  1  0
 16 17  1  1
 18 16  1  0
 18 20  1  6
 19 13  1  0
 19 18  1  0
 21 20  1  0
M  END
>  <DRUGBANK_ID>  (1) 
DB13916

>  <COMMON_NAME>  (1) 
Toyocamycin

>  <CAS_NUMBER>  (1) 
606-58-6

>  <UNII>  (1) 
L7995C4D7F

>  <SYNONYMS>  (1) 
4-amino-5-cyano-7-(D-ribofuranosyl)-7H-pyrrolo(2,3-d)pyrimidine; 7-deaza-7-cyanoadenosine; Ahygroscopin-B; Cyanotubericidin; Siromycin; Uramycin B; Vengicide

$$$$
