
     RDKit          3D

 23 25  0  0  0  0  0  0  0  0999 V2000
    1.0907   -0.6198    0.1614 C   0  0  0  0  0  0  0  0  0  0  0  0
    5.4998    6.3685    2.1572 C   0  0  0  0  0  0  0  0  0  0  0  0
   -3.6301   -0.5121    0.0653 C   0  0  0  0  0  0  0  0  0  0  0  0
    4.4938    6.7860    1.3037 C   0  0  0  0  0  0  0  0  0  0  0  0
    5.2618    5.3260    3.0543 C   0  0  0  0  0  0  0  0  0  0  0  0
    0.8818    4.3393   -1.3827 C   0  0  0  0  0  0  0  0  0  0  0  0
    1.0194    2.9859   -1.5824 C   0  0  0  0  0  0  0  0  0  0  0  0
   -3.0658    0.7405    0.7129 C   0  0  0  0  0  0  0  0  0  0  0  0
   -3.0410   -1.7617    0.7122 C   0  0  0  0  0  0  0  0  0  0  0  0
    3.2406    6.2007    1.3978 C   0  0  0  0  0  0  0  0  0  0  0  0
    4.0216    4.6778    3.0819 C   0  0  0  0  0  0  0  0  0  0  0  0
    0.9128    4.8003   -0.0795 C   0  0  0  0  0  0  0  0  0  0  0  0
    1.2725    2.1918   -0.4754 C   0  0  0  0  0  0  0  0  0  0  0  0
   -1.5486    0.6695    0.7334 C   0  0  0  0  0  0  0  0  0  0  0  0
   -1.5219   -1.7348    0.7040 C   0  0  0  0  0  0  0  0  0  0  0  0
    1.5745    4.5418    2.3698 C   0  0  0  0  0  0  0  0  0  0  0  0
    1.1389    0.4954    2.3552 C   0  0  0  0  0  0  0  0  0  0  0  0
    0.4644   -0.6295    1.5221 C   0  0  0  0  0  0  0  0  0  0  0  0
    2.9725    5.1425    2.2815 C   0  0  0  0  0  0  0  0  0  0  0  0
    1.1287    3.9607    1.0399 C   0  0  0  0  0  0  0  0  0  0  0  0
    1.1665    2.5779    0.8541 C   0  0  0  0  0  0  0  0  0  0  0  0
   -1.0280   -0.5456    1.4212 N   0  0  0  0  0  0  0  0  0  0  0  0
    0.9758    1.8727    2.0035 O   0  0  0  0  0  0  0  0  0  0  0  0
  4  2  2  0
  5  2  1  0
  7  6  2  0
  8  3  1  0
  9  3  1  0
 10  4  1  0
 11  5  2  0
 12  6  1  0
 13  7  1  0
 14  8  1  0
 15  9  1  0
 18  1  1  0
 18 17  1  0
 19 10  2  0
 19 11  1  0
 19 16  1  0
 20 12  2  0
 20 16  1  0
 21 13  2  0
 21 20  1  0
 22 14  1  0
 22 15  1  0
 22 18  1  0
 23 17  1  0
 23 21  1  0
M  END
>  <DRUGBANK_ID>  (1) 
DB13309

>  <COMMON_NAME>  (1) 
Benproperine

>  <CAS_NUMBER>  (1) 
2156-27-6

>  <UNII>  (1) 
3AA6IZ48YK

>  <SYNONYMS>  (1) 
Bemproperina; Benproperine; Benproperinum

$$$$
