4822
     RDKit          3D

 24 24  0  0  0  0  0  0  0  0999 V2000
    1.0891   -0.0815   -0.2268 O   0  0  0  0  0  0  0  0  0  0  0  0
    1.0836   -0.7007   -2.4077 O   0  0  0  0  0  0  0  0  0  0  0  0
    2.6314   -1.0656    2.4047 O   0  0  0  0  0  0  0  0  0  0  0  0
    1.2281    2.0598    1.7538 N   0  0  0  0  0  0  0  0  0  0  0  0
   -1.1412   -0.2866   -1.3192 C   0  0  0  0  0  0  0  0  0  0  0  0
   -1.8089   -1.3065   -0.3076 C   0  0  0  0  0  0  0  0  0  0  0  0
   -1.5777    1.1598   -0.9376 C   0  0  0  0  0  0  0  0  0  0  0  0
   -1.7212   -0.7266   -2.6918 C   0  0  0  0  0  0  0  0  0  0  0  0
    0.4434   -0.3785   -1.3829 C   0  0  0  0  0  0  0  0  0  0  0  0
   -1.5710   -1.0193    1.1395 C   0  0  0  0  0  0  0  0  0  0  0  0
   -0.9777    2.2807   -1.7850 C   0  0  0  0  0  0  0  0  0  0  0  0
   -1.5498   -2.0597   -3.1085 C   0  0  0  0  0  0  0  0  0  0  0  0
   -2.4324    0.1267   -3.5472 C   0  0  0  0  0  0  0  0  0  0  0  0
    2.5316   -0.3410   -0.1686 C   0  0  0  0  0  0  0  0  0  0  0  0
   -2.0435   -2.4990   -4.3319 C   0  0  0  0  0  0  0  0  0  0  0  0
   -2.8824   -0.2951   -4.7914 C   0  0  0  0  0  0  0  0  0  0  0  0
    0.8222    0.8962    2.6655 C   0  0  0  0  0  0  0  0  0  0  0  0
    3.1647   -0.3896    1.2720 C   0  0  0  0  0  0  0  0  0  0  0  0
    1.2696   -0.6591    2.5343 C   0  0  0  0  0  0  0  0  0  0  0  0
   -2.6790   -1.6069   -5.1875 C   0  0  0  0  0  0  0  0  0  0  0  0
    0.4554    3.2844    2.0635 C   0  0  0  0  0  0  0  0  0  0  0  0
    2.6582    2.4959    1.6830 C   0  0  0  0  0  0  0  0  0  0  0  0
    0.7656    3.8443    3.4477 C   0  0  0  0  0  0  0  0  0  0  0  0
    3.4282    2.3582    3.0055 C   0  0  0  0  0  0  0  0  0  0  0  0
  1  9  1  0
  1 14  1  0
  2  9  2  0
  3 18  1  0
  3 19  1  0
  4 17  1  0
  4 21  1  0
  4 22  1  0
  5  6  1  0
  5  7  1  0
  5  8  1  0
  5  9  1  0
  6 10  1  0
  7 11  1  0
  8 12  2  0
  8 13  1  0
 12 15  1  0
 13 16  2  0
 14 18  1  0
 15 20  2  0
 16 20  1  0
 17 19  1  0
 21 23  1  0
 22 24  1  0
M  END
>  <DRUGBANK_ID>  (1) 
DB04822

>  <COMMON_NAME>  (1) 
Oxeladin

>  <CAS_NUMBER>  (1) 
468-61-1

>  <UNII>  (1) 
SNC1080T5Y

>  <SYNONYMS>  (1) 
2-(2-Diethylaminoethoxy)ethyl 2-ethyl-2-phenylbutyrate; Oxeladin; Oxeladina; Oxeladine; Oxeladinum

$$$$
