TOL
     RDKit          3D

 24 25  0  0  0  0  0  0  0  0999 V2000
    0.9443   -0.0594    0.0265 C   0  0  0  0  0  0  0  0  0  0  0  0
    0.4681    0.5789    1.1369 F   0  0  0  0  0  0  0  0  0  0  0  0
    0.4384    0.6199   -1.0395 F   0  0  0  0  0  0  0  0  0  0  0  0
    0.3211   -1.2676    0.0233 F   0  0  0  0  0  0  0  0  0  0  0  0
    2.4435   -0.0852    0.0294 C   0  0  0  0  0  0  0  0  0  0  0  0
    3.1246   -1.3148    0.0265 C   0  0  0  0  0  0  0  0  0  0  0  0
    2.4403   -2.4820   -0.1548 O   0  0  0  0  0  0  0  0  0  0  0  0
    3.1819   -3.7035   -0.0849 C   0  0  0  0  0  0  0  0  0  0  0  0
    4.4519   -1.2898    0.3489 C   0  0  0  0  0  0  0  0  0  0  0  0
    4.9797   -0.0994    0.8285 C   0  0  0  0  0  0  0  0  0  0  0  0
    4.5471    1.1378    0.3712 C   0  0  0  0  0  0  0  0  0  0  0  0
    5.3949    2.2967    0.2458 C   0  0  0  0  0  0  0  0  0  0  0  0
    4.7247    3.5344    0.1068 C   0  0  0  0  0  0  0  0  0  0  0  0
    3.3363    3.6169    0.0579 C   0  0  0  0  0  0  0  0  0  0  0  0
    2.5750    2.4522    0.0378 C   0  0  0  0  0  0  0  0  0  0  0  0
    3.1648    1.1700    0.1181 C   0  0  0  0  0  0  0  0  0  0  0  0
    6.9833    2.3082    0.2025 C   0  0  0  0  0  0  0  0  0  0  0  0
    7.7797    3.8299    0.3286 S   0  0  0  0  0  0  0  0  0  0  0  0
    7.7920    1.1336    0.0034 N   0  0  0  0  0  0  0  0  0  0  0  0
    7.3201   -0.1725   -0.3800 C   0  0  0  0  0  0  0  0  0  0  0  0
    9.2633    1.1587    0.0795 C   0  0  0  0  0  0  0  0  0  0  0  0
    9.8117    1.7612   -1.1968 C   0  0  0  0  0  0  0  0  0  0  0  0
   10.6711    2.6410   -1.2760 O   0  0  0  0  0  0  0  0  0  0  0  0
    9.3101    1.1979   -2.3169 O   0  0  0  0  0  0  0  0  0  0  0  0
  1  2  1  0
  1  3  1  0
  1  4  1  0
  1  5  1  0
  5  6  2  0
  5 16  1  0
  6  7  1  0
  6  9  1  0
  7  8  1  0
  9 10  2  0
 10 11  1  0
 11 12  1  0
 11 16  2  0
 12 13  2  0
 12 17  1  0
 13 14  1  0
 14 15  2  0
 15 16  1  0
 17 18  2  0
 17 19  1  0
 19 20  1  0
 19 21  1  0
 21 22  1  0
 22 23  2  0
 22 24  1  0
M  END
>  <DRUGBANK_ID>  (1) 
DB02383

>  <SECONDARY_ACCESSION_NUMBERS>  (1) 
EXPT03082

>  <COMMON_NAME>  (1) 
Tolrestat

>  <CAS_NUMBER>  (1) 
82964-04-3

>  <UNII>  (1) 
0T93LG5NMK

>  <SYNONYMS>  (1) 
Tolrestat

$$$$
