
     RDKit          3D

 11 12  0  0  0  0  0  0  0  0999 V2000
    0.9404    0.0438   -0.0562 O   0  0  0  0  0  0  0  0  0  0  0  0
    1.8470   -0.7814   -2.6310 O   0  0  0  0  0  0  0  0  0  0  0  0
   -2.7515    2.1960   -2.3943 N   0  0  0  0  0  0  0  0  0  0  0  0
    0.2814    0.3910   -1.2041 C   0  0  0  0  0  0  0  0  0  0  0  0
    0.7261   -0.0164   -2.4597 C   0  0  0  0  0  0  0  0  0  0  0  0
   -1.5794    1.4869   -2.2265 C   0  0  0  0  0  0  0  0  0  0  0  0
   -1.1622    1.0819   -3.4936 C   0  0  0  0  0  0  0  0  0  0  0  0
   -3.1552    2.1152   -3.7043 C   0  0  0  0  0  0  0  0  0  0  0  0
   -0.8722    1.1657   -1.0584 C   0  0  0  0  0  0  0  0  0  0  0  0
    0.0218    0.3287   -3.6142 C   0  0  0  0  0  0  0  0  0  0  0  0
   -2.1352    1.5429   -4.4231 C   0  0  0  0  0  0  0  0  0  0  0  0
  1  4  1  0
  2  5  1  0
  3  6  1  0
  3  8  1  0
  4  5  1  0
  4  9  2  0
  5 10  2  0
  6  7  2  0
  6  9  1  0
  7 10  1  0
  7 11  1  0
  8 11  2  0
M  END
>  <DRUGBANK_ID>  (1) 
DB01811

>  <SECONDARY_ACCESSION_NUMBERS>  (1) 
EXPT00174

>  <COMMON_NAME>  (1) 
3h-Indole-5,6-Diol

>  <CAS_NUMBER>  (1) 
3131-52-0

>  <UNII>  (1) 
Z3OC8499KG

$$$$
