
     RDKit          3D

 41 45  0  0  0  0  0  0  0  0999 V2000
   -1.5803    0.0173    0.1189 N   0  0  0  0  0  0  0  0  0  0  0  0
   -0.9099   -1.2638   -0.2447 C   0  0  0  0  0  0  0  0  0  0  0  0
    0.5972   -1.3001    0.1512 C   0  0  0  0  0  0  0  0  0  0  0  0
    1.2669   -0.0847   -0.3420 N   0  0  0  0  0  0  0  0  0  0  0  0
    0.5558    1.0947    0.0723 C   0  0  0  0  0  0  0  0  0  0  0  0
   -0.8722    1.1725   -0.3550 C   0  0  0  0  0  0  0  0  0  0  0  0
    2.5400   -0.1257   -0.9613 C   0  0  0  0  0  0  0  0  0  0  0  0
    3.3520    1.1816   -1.3621 C   0  0  0  0  0  0  0  0  0  0  0  0
    4.2811    1.0417   -2.1664 O   0  0  0  0  0  0  0  0  0  0  0  0
    3.0427   -1.2162   -1.2498 O   0  0  0  0  0  0  0  0  0  0  0  0
    1.3687    4.7257    1.5022 C   0  0  0  0  0  0  0  0  0  0  0  0
    2.0305    4.1967    0.3747 C   0  0  0  0  0  0  0  0  0  0  0  0
    2.7132    2.9568    0.4612 C   0  0  0  0  0  0  0  0  0  0  0  0
    2.7049    2.2224    1.6747 C   0  0  0  0  0  0  0  0  0  0  0  0
    1.9759    2.7940    2.7030 C   0  0  0  0  0  0  0  0  0  0  0  0
    1.3657    3.9983    2.6520 N   0  0  0  0  0  0  0  0  0  0  0  0
    2.1743    4.6361   -0.9361 N   0  0  0  0  0  0  0  0  0  0  0  0
    3.0296    2.5420   -0.8820 C   0  0  0  0  0  0  0  0  0  0  0  0
    2.7917    3.6443   -1.6879 C   0  0  0  0  0  0  0  0  0  0  0  0
    1.6836    5.9179   -1.4840 C   0  0  0  0  0  0  0  0  0  0  0  0
    0.2478    6.0455   -1.3795 O   0  0  0  0  0  0  0  0  0  0  0  0
   -0.6046    4.8332   -2.2721 P   0  0  0  0  0  0  0  0  0  0  0  0
   -1.4655    5.9882   -3.0267 O   0  0  0  0  0  0  0  0  0  0  0  0
    0.5562    4.4978   -3.1990 O   0  0  0  0  0  0  0  0  0  0  0  0
   -1.4570    3.6210   -3.1647 O   0  0  0  0  0  0  0  0  0  0  0  0
    0.7511    5.9951    1.5447 N   0  0  0  0  0  0  0  0  0  0  0  0
   -0.4221    6.3109    0.9376 N   0  0  0  0  0  0  0  0  0  0  0  0
   -0.4392    7.6488    1.0715 C   0  0  0  0  0  0  0  0  0  0  0  0
    0.5259    8.1475    1.9064 N   0  0  0  0  0  0  0  0  0  0  0  0
    1.2061    7.0755    2.2455 C   0  0  0  0  0  0  0  0  0  0  0  0
   -1.4091    8.5244    0.3687 C   0  0  0  0  0  0  0  0  0  0  0  0
    3.1824    0.9372    1.6531 O   0  0  0  0  0  0  0  0  0  0  0  0
    2.8664    0.0782    2.7489 C   0  0  0  0  0  0  0  0  0  0  0  0
   -2.6906    0.0853    0.9587 C   0  0  0  0  0  0  0  0  0  0  0  0
   -3.2351    1.4253    1.3741 C   0  0  0  0  0  0  0  0  0  0  0  0
   -3.5779    2.4240    0.4479 C   0  0  0  0  0  0  0  0  0  0  0  0
   -3.9161    3.7107    0.8879 C   0  0  0  0  0  0  0  0  0  0  0  0
   -4.0561    3.9677    2.2503 C   0  0  0  0  0  0  0  0  0  0  0  0
   -3.8647    2.9383    3.1704 C   0  0  0  0  0  0  0  0  0  0  0  0
   -3.4079    1.6864    2.7397 C   0  0  0  0  0  0  0  0  0  0  0  0
   -3.2205   -0.9236    1.4271 O   0  0  0  0  0  0  0  0  0  0  0  0
  1  2  1  0
  1  6  1  0
  1 34  1  0
  2  3  1  0
  3  4  1  0
  4  5  1  0
  4  7  1  0
  5  6  1  0
  7  8  1  0
  7 10  2  0
  8  9  2  0
  8 18  1  0
 11 12  2  0
 11 16  1  0
 11 26  1  0
 12 13  1  0
 12 17  1  0
 13 14  2  0
 13 18  1  0
 14 15  1  0
 14 32  1  0
 15 16  2  0
 17 19  1  0
 17 20  1  0
 18 19  2  0
 20 21  1  0
 21 22  1  0
 22 23  1  0
 22 24  2  0
 22 25  1  0
 26 27  1  0
 26 30  1  0
 27 28  2  0
 28 29  1  0
 28 31  1  0
 29 30  2  0
 32 33  1  0
 34 35  1  0
 34 41  2  0
 35 36  2  0
 35 40  1  0
 36 37  1  0
 37 38  2  0
 38 39  1  0
 39 40  2  0
M  END
>  <DRUGBANK_ID>  (1) 
DB11796

>  <COMMON_NAME>  (1) 
Fostemsavir

>  <CAS_NUMBER>  (1) 
864953-29-7

>  <UNII>  (1) 
97IQ273H4L

>  <SYNONYMS>  (1) 
Fostemsavir

$$$$
