
     RDKit          3D

 30 33  0  0  0  0  0  0  0  0999 V2000
   -0.5991    0.5301   -0.0315 C   0  0  1  0  0  0  0  0  0  0  0  0
    0.7177   -0.5265   -0.0224 C   0  0  1  0  0  0  0  0  0  0  0  0
   -0.8073   -0.9215    0.0220 C   0  0  0  0  0  0  0  0  0  0  0  0
    1.6018   -0.9217   -1.2637 C   0  0  0  0  0  0  0  0  0  0  0  0
    2.9061   -0.3165   -1.4030 C   0  0  0  0  0  0  0  0  0  0  0  0
    3.9671   -0.8979   -2.0719 C   0  0  0  0  0  0  0  0  0  0  0  0
    3.7872   -2.1165   -2.6749 C   0  0  0  0  0  0  0  0  0  0  0  0
    2.5515   -2.7612   -2.5518 C   0  0  0  0  0  0  0  0  0  0  0  0
    1.4829   -2.1857   -1.8406 C   0  0  0  0  0  0  0  0  0  0  0  0
    5.1761   -0.3199   -2.0255 F   0  0  0  0  0  0  0  0  0  0  0  0
    1.8080   -0.7406    1.0787 C   0  0  0  0  0  0  0  0  0  0  0  0
    2.2269    0.2651    2.0218 O   0  0  0  0  0  0  0  0  0  0  0  0
    2.2335    1.6151    1.9593 C   0  0  0  0  0  0  0  0  0  0  0  0
    2.0473    2.5175    0.9119 C   0  0  0  0  0  0  0  0  0  0  0  0
    1.9790    3.8265    1.0887 N   0  0  0  0  0  0  0  0  0  0  0  0
    2.0186    4.2913    2.3232 C   0  0  0  0  0  0  0  0  0  0  0  0
    2.1509    3.5499    3.4325 N   0  0  0  0  0  0  0  0  0  0  0  0
    2.2806    2.2212    3.2141 C   0  0  0  0  0  0  0  0  0  0  0  0
    2.0960    5.7656    2.3319 C   0  0  0  0  0  0  0  0  0  0  0  0
    1.5255    2.2470   -0.4309 C   0  0  0  0  0  0  0  0  0  0  0  0
   -0.8940    1.6489    1.0288 C   0  0  0  0  0  0  0  0  0  0  0  0
   -1.2350    2.7425    0.6333 O   0  0  0  0  0  0  0  0  0  0  0  0
   -0.7447    1.5507    2.4050 N   0  0  0  0  0  0  0  0  0  0  0  0
   -0.6053    0.4270    3.1735 C   0  0  0  0  0  0  0  0  0  0  0  0
   -1.2684    0.2735    4.3457 C   0  0  0  0  0  0  0  0  0  0  0  0
   -1.3996   -1.0555    4.7663 C   0  0  0  0  0  0  0  0  0  0  0  0
   -0.4692   -2.0117    4.4060 C   0  0  0  0  0  0  0  0  0  0  0  0
    0.4145   -1.6370    3.4829 C   0  0  0  0  0  0  0  0  0  0  0  0
    0.1448   -0.5622    2.7403 N   0  0  0  0  0  0  0  0  0  0  0  0
   -0.4639   -3.2719    4.8340 F   0  0  0  0  0  0  0  0  0  0  0  0
  1  2  1  0
  1  3  1  0
  1 21  1  1
  2  3  1  0
  2  4  1  0
  2 11  1  1
  4  5  2  0
  4  9  1  0
  5  6  1  0
  6  7  2  0
  6 10  1  0
  7  8  1  0
  8  9  2  0
 11 12  1  0
 12 13  1  0
 13 18  1  0
 14 13  2  0
 14 20  1  0
 15 14  1  0
 16 15  2  0
 16 17  1  0
 16 19  1  0
 18 17  2  0
 21 22  2  0
 21 23  1  0
 23 24  1  0
 24 25  2  0
 24 29  1  0
 25 26  1  0
 26 27  2  0
 27 28  1  0
 27 30  1  0
 28 29  2  0
M  END
>  <DRUGBANK_ID>  (1) 
DB11951

>  <COMMON_NAME>  (1) 
Lemborexant

>  <CAS_NUMBER>  (1) 
1369764-02-2

>  <UNII>  (1) 
0K5743G68X

>  <SYNONYMS>  (1) 
Lemborexant

$$$$
