
     RDKit          3D

 13 14  0  0  0  0  0  0  0  0999 V2000
    2.5746   -0.0219   -0.0707 C   0  0  0  0  0  0  0  0  0  0  0  0
    1.6430   -1.2207    0.0780 C   0  0  0  0  0  0  0  0  0  0  0  0
   -0.8435   -1.4633    0.0873 C   0  0  0  0  0  0  0  0  0  0  0  0
    1.6901    1.1953    0.2033 C   0  0  1  0  0  0  0  0  0  0  0  0
   -2.2039   -0.7379    0.1062 C   0  0  1  0  0  0  0  0  0  0  0  0
    0.3182    0.7594   -0.3375 C   0  0  2  0  0  0  0  0  0  0  0  0
   -2.1805    0.7815   -0.1774 C   0  0  2  0  0  0  0  0  0  0  0  0
   -0.8839    1.4741    0.2779 C   0  0  2  0  0  0  0  0  0  0  0  0
    0.3245   -0.6521   -0.0348 N   0  0  0  0  0  0  0  0  0  0  0  0
    1.6827    1.4388    1.6108 O   0  0  0  0  0  0  0  0  0  0  0  0
   -3.0930   -1.3528   -0.8395 O   0  0  0  0  0  0  0  0  0  0  0  0
   -3.3056    1.3949    0.4867 O   0  0  0  0  0  0  0  0  0  0  0  0
   -0.8717    2.8561   -0.1016 O   0  0  0  0  0  0  0  0  0  0  0  0
  2  1  1  0
  4  1  1  0
  4 10  1  1
  5  3  1  0
  5 11  1  6
  6  4  1  0
  7  5  1  0
  7 12  1  1
  8  6  1  0
  8  7  1  0
  8 13  1  6
  9  2  1  0
  9  3  1  0
  6  9  1  1
M  END
>  <DRUGBANK_ID>  (1) 
DB01816

>  <SECONDARY_ACCESSION_NUMBERS>  (1) 
EXPT01055

>  <COMMON_NAME>  (1) 
Castanospermine

>  <CAS_NUMBER>  (1) 
79831-76-8

>  <UNII>  (1) 
Q0I3184XM7

>  <SYNONYMS>  (1) 
(1S-(1α,6β,7α,8β,8αβ))-octahydro-1,6,7,8-indolizinetetrol; (1S,6S,7R,8R,8aR)-1,6,7,8-tetrahydroxyindolizidine; 1,6,7,8-tetrahydroxyoctahydroindolizine

$$$$
