
     RDKit          3D

 18 19  0  0  0  0  0  0  0  0999 V2000
    0.8907    0.0359    0.0902 C   0  0  2  0  0  0  0  0  0  0  0  0
    0.2809   -0.4167    1.4502 C   0  0  0  0  0  0  0  0  0  0  0  0
    0.5266    0.4192    2.6105 N   0  0  0  0  0  0  0  0  0  0  0  0
   -0.0766    1.6125    2.7921 N   0  0  0  0  0  0  0  0  0  0  0  0
    0.7454    2.1640    3.6924 C   0  0  0  0  0  0  0  0  0  0  0  0
    1.7074    1.3085    4.1385 N   0  0  0  0  0  0  0  0  0  0  0  0
    1.5682    0.1889    3.4359 N   0  0  0  0  0  0  0  0  0  0  0  0
    0.4765    1.3821   -0.2053 O   0  0  0  0  0  0  0  0  0  0  0  0
    0.9997    2.5226    0.3073 C   0  0  0  0  0  0  0  0  0  0  0  0
    2.1242    2.4026    1.0735 N   0  0  0  0  0  0  0  0  0  0  0  0
    0.4709    3.6058    0.1621 O   0  0  0  0  0  0  0  0  0  0  0  0
    0.4544   -0.9293   -1.0499 C   0  0  0  0  0  0  0  0  0  0  0  0
   -0.1328   -0.5546   -2.2818 C   0  0  0  0  0  0  0  0  0  0  0  0
   -0.4090   -1.5123   -3.2761 C   0  0  0  0  0  0  0  0  0  0  0  0
   -0.1351   -2.8592   -3.0727 C   0  0  0  0  0  0  0  0  0  0  0  0
    0.4144   -3.2616   -1.8654 C   0  0  0  0  0  0  0  0  0  0  0  0
    0.7158   -2.3133   -0.8778 C   0  0  0  0  0  0  0  0  0  0  0  0
   -0.5836    1.0562   -2.7214 Cl  0  0  0  0  0  0  0  0  0  0  0  0
  1  2  1  1
  1  8  1  0
  1 12  1  0
  2  3  1  0
  3  4  1  0
  3  7  1  0
  4  5  2  0
  5  6  1  0
  7  6  2  0
  8  9  1  0
  9 10  1  0
  9 11  2  0
 12 13  2  0
 12 17  1  0
 13 14  1  0
 13 18  1  0
 14 15  2  0
 16 15  1  0
 17 16  2  0
M  END
>  <DRUGBANK_ID>  (1) 
DB06119

>  <COMMON_NAME>  (1) 
Cenobamate

>  <CAS_NUMBER>  (1) 
913088-80-9

>  <UNII>  (1) 
P85X70RZWS

>  <SYNONYMS>  (1) 
Cenobamate; CÃ©nobamate; Cenobamato; Cenobamatum

$$$$
