
     RDKit          3D

 13 13  0  0  0  0  0  0  0  0999 V2000
    1.3789   -0.2246   -0.0053 C   0  0  0  0  0  0  0  0  0  0  0  0
    0.5124   -1.3189    0.0254 C   0  0  0  0  0  0  0  0  0  0  0  0
    0.8679    1.0793   -0.0681 C   0  0  0  0  0  0  0  0  0  0  0  0
   -0.5179    1.2820    0.0262 C   0  0  0  0  0  0  0  0  0  0  0  0
   -1.3918    0.1949    0.0182 C   0  0  0  0  0  0  0  0  0  0  0  0
   -0.8716   -1.1046    0.0162 C   0  0  0  0  0  0  0  0  0  0  0  0
    1.4243    2.9703   -1.6206 C   0  0  0  0  0  0  0  0  0  0  0  0
    1.0813    4.1415   -1.7134 O   0  0  0  0  0  0  0  0  0  0  0  0
    1.5049    2.1917   -2.7191 O   0  0  0  0  0  0  0  0  0  0  0  0
    1.7830    2.2516   -0.3382 C   0  0  0  0  0  0  0  0  0  0  0  0
   -1.7839   -2.2532    0.0432 N   0  0  0  0  0  0  0  0  0  0  0  0
   -3.0018   -2.0234    0.0420 O   0  0  0  0  0  0  0  0  0  0  0  0
   -1.2830   -3.3865    0.0760 O   0  0  0  0  0  0  0  0  0  0  0  0
  1  3  2  0
  2  1  1  0
  3 10  1  0
  4  3  1  0
  5  4  2  0
  6  5  1  0
  6  2  2  0
  6 11  1  0
  8  7  2  0
  9  7  1  0
 10  7  1  0
 11 12  2  0
 11 13  1  0
M  CHG  2  11   1  13  -1
M  END
>  <DRUGBANK_ID>  (1) 
DB07331

>  <COMMON_NAME>  (1) 
p-Nitrophenylacetic acid

>  <CAS_NUMBER>  (1) 
104-03-0

>  <UNII>  (1) 
KLB4P626RE

>  <SYNONYMS>  (1) 
(4-nitrophenyl)acetic acid; 2-(p-nitrophenyl)acetic acid; 4-nitrobenzeneacetic acid; 4-nitrophenylacetic acid

$$$$
