
     RDKit          3D

 28 30  0  0  1  0  0  0  0  0999 V2000
   14.5806    5.5683    0.4372 C   0  0  0  0  0  0  0  0  0  0  0  0
   14.2002    4.7409    1.6550 C   0  0  0  0  0  0  0  0  0  0  0  0
   12.7993    4.7223    1.9690 O   0  0  0  0  0  0  0  0  0  0  0  0
   12.2528    5.8873    2.4218 C   0  0  0  0  0  0  0  0  0  0  0  0
   12.3020    7.0861    1.7204 C   0  0  0  0  0  0  0  0  0  0  0  0
   11.6845    8.2426    2.1808 C   0  0  0  0  0  0  0  0  0  0  0  0
   10.9135    8.2055    3.3392 C   0  0  0  0  0  0  0  0  0  0  0  0
   10.8168    6.9767    4.0152 C   0  0  0  0  0  0  0  0  0  0  0  0
   11.4726    5.8249    3.5711 C   0  0  0  0  0  0  0  0  0  0  0  0
   10.2471    9.4889    3.8063 C   0  0  0  0  0  0  0  0  0  0  0  0
    8.7397    9.5112    3.6977 C   0  0  0  0  0  0  0  0  0  0  0  0
    8.0406    8.5582    4.4379 C   0  0  0  0  0  0  0  0  0  0  0  0
    6.6830    8.3147    4.2682 C   0  0  0  0  0  0  0  0  0  0  0  0
    5.9383    9.2935    3.6125 C   0  0  0  0  0  0  0  0  0  0  0  0
    6.5893   10.3477    2.9680 C   0  0  0  0  0  0  0  0  0  0  0  0
    7.9883   10.3885    2.9163 C   0  0  0  0  0  0  0  0  0  0  0  0
    8.7183   11.5028    1.8228 Cl  0  0  0  0  0  0  0  0  0  0  0  0
    6.1432    6.9218    4.5416 C   0  0  1  0  0  0  0  0  0  0  0  0
    6.7061    6.1900    5.7864 C   0  0  1  0  0  0  0  0  0  0  0  0
    6.0368    4.8186    5.9240 C   0  0  2  0  0  0  0  0  0  0  0  0
    4.5108    4.9146    5.8429 C   0  0  1  0  0  0  0  0  0  0  0  0
    4.1019    5.7176    4.5933 C   0  0  2  0  0  0  0  0  0  0  0  0
    4.7181    6.9995    4.6151 O   0  0  0  0  0  0  0  0  0  0  0  0
    2.2888    5.9033    4.4162 S   0  0  0  0  0  0  0  0  0  0  0  0
    1.9001    6.8080    5.9364 C   0  0  0  0  0  0  0  0  0  0  0  0
    3.9432    3.6027    5.8536 O   0  0  0  0  0  0  0  0  0  0  0  0
    6.4364    4.2025    7.1566 O   0  0  0  0  0  0  0  0  0  0  0  0
    8.1181    5.9422    5.7402 O   0  0  0  0  0  0  0  0  0  0  0  0
  1  2  1  0
  2  3  1  0
  3  4  1  0
  4  5  2  0
  4  9  1  0
  5  6  1  0
  6  7  2  0
  7  8  1  0
  7 10  1  0
  8  9  2  0
 10 11  1  0
 11 12  2  0
 11 16  1  0
 12 13  1  0
 13 14  2  0
 14 15  1  0
 15 16  2  0
 16 17  1  0
 18 19  1  0
 18 23  1  0
 18 13  1  1
 19 20  1  0
 19 28  1  6
 20 21  1  0
 20 27  1  1
 21 22  1  0
 21 26  1  6
 22 23  1  0
 22 24  1  1
 24 25  1  0
M  END
>  <DRUGBANK_ID>  (1) 
DB12713

>  <COMMON_NAME>  (1) 
Sotagliflozin

>  <CAS_NUMBER>  (1) 
1018899-04-1

>  <UNII>  (1) 
6B4ZBS263Y

>  <SYNONYMS>  (1) 
Sotagliflozin

$$$$
