989
     RDKit          3D

 18 18  0  0  1  0  0  0  0  0999 V2000
    1.1105    0.0129    0.0340 O   0  0  0  0  0  0  0  0  0  0  0  0
    3.1230    1.0791   -0.2146 O   0  0  0  0  0  0  0  0  0  0  0  0
   -0.4093   -4.4700    3.4930 N   0  0  0  0  0  0  0  0  0  0  0  0
    3.2841   -1.1914    0.0959 N   0  0  0  0  0  0  0  0  0  0  0  0
    0.5559   -4.1624    2.4284 C   0  0  2  0  0  0  0  0  0  0  0  0
   -0.0551   -3.1285    1.4783 C   0  0  0  0  0  0  0  0  0  0  0  0
    1.0307   -5.4364    1.6815 C   0  0  0  0  0  0  0  0  0  0  0  0
    0.4062   -1.7962    1.4977 C   0  0  0  0  0  0  0  0  0  0  0  0
   -1.0343   -3.4935    0.5443 C   0  0  0  0  0  0  0  0  0  0  0  0
    0.1381   -5.4172    4.4614 C   0  0  0  0  0  0  0  0  0  0  0  0
   -0.7944   -3.2336    4.1875 C   0  0  0  0  0  0  0  0  0  0  0  0
    0.1544   -1.0014    0.3792 C   0  0  0  0  0  0  0  0  0  0  0  0
   -1.3854   -2.6236   -0.4907 C   0  0  0  0  0  0  0  0  0  0  0  0
   -0.7702   -1.3749   -0.5970 C   0  0  0  0  0  0  0  0  0  0  0  0
    2.7460   -2.5227    0.1790 C   0  0  0  0  0  0  0  0  0  0  0  0
    2.5530    0.0096   -0.0346 C   0  0  0  0  0  0  0  0  0  0  0  0
    4.7282   -1.1056    0.1703 C   0  0  0  0  0  0  0  0  0  0  0  0
    3.1251   -3.5330   -0.8617 C   0  0  0  0  0  0  0  0  0  0  0  0
  1 12  1  0
  1 16  1  0
  2 16  2  0
  3 10  1  0
  3 11  1  0
  4 15  1  0
  4 16  1  0
  4 17  1  0
  5  3  1  0
  5  6  1  0
  5  7  1  6
  6  8  2  0
  6  9  1  0
  8 12  1  0
  9 13  2  0
 12 14  2  0
 13 14  1  0
 15 18  1  0
M  END
>  <DRUGBANK_ID>  (1) 
DB00989

>  <SECONDARY_ACCESSION_NUMBERS>  (1) 
APRD00321

>  <COMMON_NAME>  (1) 
Rivastigmine

>  <CAS_NUMBER>  (1) 
123441-03-2

>  <UNII>  (1) 
PKI06M3IW0

>  <SYNONYMS>  (1) 
(S)-3-(1-(Dimethylamino)ethyl)phenyl ethylmethylcarbamate; m-((S)-1-(Dimethylamino)ethyl)phenyl ethylmethylcarbamate; Rivastigmina; Rivastigmine

$$$$
