
     RDKit          3D

 21 21  0  0  1  0  0  0  0  0999 V2000
    1.5508    1.3495    0.4808 C   0  0  0  0  0  0  0  0  0  0  0  0
    2.1227    0.0353    0.3911 C   0  0  0  0  0  0  0  0  0  0  0  0
    1.2557   -0.6897   -0.4751 O   0  0  0  0  0  0  0  0  0  0  0  0
   -0.3302   -0.4968   -0.8151 P   0  0  1  0  0  0  0  0  0  0  0  0
   -0.8628   -1.5837   -1.6982 O   0  0  0  0  0  0  0  0  0  0  0  0
   -0.7892   -0.1358    0.6357 N   0  0  0  0  0  0  0  0  0  0  0  0
    0.1318    1.0074    0.9889 C   0  0  1  0  0  0  0  0  0  0  0  0
   -0.2456    1.0456    2.7339 S   0  0  0  0  0  0  0  0  0  0  0  0
    0.1426   -0.7157    2.9662 C   0  0  0  0  0  0  0  0  0  0  0  0
   -0.6954   -1.9683    2.4958 C   0  0  0  0  0  0  0  0  0  0  0  0
   -0.8067   -2.9201    0.9283 S   0  0  0  0  0  0  0  0  0  0  0  0
    0.4168   -2.8463    0.2478 O   0  0  0  0  0  0  0  0  0  0  0  0
   -1.3397   -4.2922    1.1876 O   0  0  0  0  0  0  0  0  0  0  0  0
   -2.1270   -2.1908    0.2132 O   0  0  0  0  0  0  0  0  0  0  0  0
   -1.1521    1.0141   -1.1121 N   0  0  0  0  0  0  0  0  0  0  0  0
   -0.0343    1.3072   -2.0525 C   0  0  0  0  0  0  0  0  0  0  0  0
    0.3252    2.6937   -2.4235 C   0  0  0  0  0  0  0  0  0  0  0  0
    0.9846    3.9140   -1.2953 Cl  0  0  0  0  0  0  0  0  0  0  0  0
   -1.9228    2.0546    0.1651 C   0  0  0  0  0  0  0  0  0  0  0  0
   -1.9880    3.5362    0.0421 C   0  0  0  0  0  0  0  0  0  0  0  0
   -3.2767    3.8546   -1.0428 Cl  0  0  0  0  0  0  0  0  0  0  0  0
  1  2  1  0
  1  7  1  0
  2  3  1  0
  3  4  1  0
  4  6  1  0
  4 15  1  0
  4  5  2  0
  6  7  1  0
  7  8  1  1
  8  9  1  0
  9 10  1  0
 10 11  1  0
 11 12  2  0
 11 13  2  0
 11 14  1  0
 15 16  1  0
 15 19  1  0
 16 17  1  0
 17 18  1  0
 19 20  1  0
 20 21  1  0
M  END
>  <DRUGBANK_ID>  (1) 
DB12083

>  <COMMON_NAME>  (1) 
Mafosfamide

>  <CAS_NUMBER>  (1) 
88859-04-5

>  <UNII>  (1) 
5970HH9923

>  <SYNONYMS>  (1) 
Mafosfamide

$$$$
