1089
     RDKit          3D

 42 47  0  0  1  0  0  0  0  0999 V2000
   -1.0425    0.9459   -0.5556 O   0  0  0  0  0  0  0  0  0  0  0  0
    2.3699    1.5037   -1.9668 O   0  0  0  0  0  0  0  0  0  0  0  0
    1.6608    0.8985    2.8451 O   0  0  0  0  0  0  0  0  0  0  0  0
   -0.4165    0.7844    2.2124 O   0  0  0  0  0  0  0  0  0  0  0  0
    4.3354    0.5291   -2.3880 O   0  0  0  0  0  0  0  0  0  0  0  0
    2.9647   -4.0091   -3.8359 O   0  0  0  0  0  0  0  0  0  0  0  0
   -0.4017   -0.9534   -5.6064 O   0  0  0  0  0  0  0  0  0  0  0  0
    0.7011   -3.5464   -5.5212 O   0  0  0  0  0  0  0  0  0  0  0  0
   -0.7046    5.1886    0.6373 N   0  0  0  0  0  0  0  0  0  0  0  0
   -1.8055    2.7308    3.2543 N   0  0  0  0  0  0  0  0  0  0  0  0
    1.5100    3.2876    0.3833 C   0  0  1  0  0  0  0  0  0  0  0  0
    1.0563    4.0402   -0.9536 C   0  0  2  0  0  0  0  0  0  0  0  0
    0.6636    3.5668    1.6267 C   0  0  0  0  0  0  0  0  0  0  0  0
    1.1461    1.7240    0.4283 C   0  0  2  0  0  0  0  0  0  0  0  0
   -0.3600    4.5581    1.8873 C   0  0  2  0  0  0  0  0  0  0  0  0
   -0.0011    5.1671   -0.6383 C   0  0  0  0  0  0  0  0  0  0  0  0
    0.6603    3.0899   -2.1622 C   0  0  0  0  0  0  0  0  0  0  0  0
    0.4464    0.9419   -0.6505 C   0  0  2  0  0  0  0  0  0  0  0  0
    0.9278    1.5852   -1.9277 C   0  0  2  0  0  0  0  0  0  0  0  0
   -1.6713    3.8658    2.4628 C   0  0  0  0  0  0  0  0  0  0  0  0
   -1.8214    6.0856    0.8359 C   0  0  0  0  0  0  0  0  0  0  0  0
   -3.1408    5.3039    1.0783 C   0  0  0  0  0  0  0  0  0  0  0  0
   -2.9476    4.2067    2.0690 C   0  0  0  0  0  0  0  0  0  0  0  0
    0.7082    1.0121    1.8792 C   0  0  0  0  0  0  0  0  0  0  0  0
   -3.8741    3.3865    2.7772 C   0  0  0  0  0  0  0  0  0  0  0  0
   -3.1380    2.4238    3.4643 C   0  0  0  0  0  0  0  0  0  0  0  0
   -1.7900    2.1540   -0.8054 C   0  0  0  0  0  0  0  0  0  0  0  0
   -5.2714    3.3765    2.9212 C   0  0  0  0  0  0  0  0  0  0  0  0
    3.1234    0.5479   -2.5329 C   0  0  0  0  0  0  0  0  0  0  0  0
   -3.7276    1.3899    4.2165 C   0  0  0  0  0  0  0  0  0  0  0  0
   -5.8701    2.4336    3.7701 C   0  0  0  0  0  0  0  0  0  0  0  0
    2.9599    0.6795    2.3821 C   0  0  0  0  0  0  0  0  0  0  0  0
   -5.1133    1.4408    4.3918 C   0  0  0  0  0  0  0  0  0  0  0  0
    2.4293   -0.4988   -3.2987 C   0  0  0  0  0  0  0  0  0  0  0  0
    1.3814   -0.2012   -4.1741 C   0  0  0  0  0  0  0  0  0  0  0  0
    2.9019   -1.7979   -3.1925 C   0  0  0  0  0  0  0  0  0  0  0  0
    2.3214   -2.8012   -3.9689 C   0  0  0  0  0  0  0  0  0  0  0  0
    0.7053   -1.1979   -4.8513 C   0  0  0  0  0  0  0  0  0  0  0  0
    1.2053   -2.5068   -4.7926 C   0  0  0  0  0  0  0  0  0  0  0  0
    2.4917   -5.0814   -4.6410 C   0  0  0  0  0  0  0  0  0  0  0  0
   -1.0011    0.3280   -5.6333 C   0  0  0  0  0  0  0  0  0  0  0  0
   -0.3901   -3.3560   -6.3966 C   0  0  0  0  0  0  0  0  0  0  0  0
  1 27  1  0
  2 29  1  0
  3 24  1  0
  3 32  1  0
  4 24  2  0
  5 29  2  0
  6 37  1  0
  6 40  1  0
  7 38  1  0
  7 41  1  0
  8 39  1  0
  8 42  1  0
  9 15  1  0
  9 16  1  0
  9 21  1  0
 10 20  1  0
 10 26  1  0
 11 12  1  0
 11 13  1  1
 11 14  1  0
 12 16  1  1
 12 17  1  0
 15 13  1  6
 14 18  1  0
 14 24  1  6
 15 20  1  0
 17 19  1  0
 18 19  1  0
 18  1  1  1
 19  2  1  1
 20 23  2  0
 21 22  1  0
 22 23  1  0
 23 25  1  0
 25 26  2  0
 25 28  1  0
 26 30  1  0
 28 31  2  0
 29 34  1  0
 30 33  2  0
 31 33  1  0
 34 35  2  0
 34 36  1  0
 35 38  1  0
 36 37  2  0
 37 39  1  0
 38 39  2  0
M  END
>  <DRUGBANK_ID>  (1) 
DB01089

>  <SECONDARY_ACCESSION_NUMBERS>  (1) 
APRD00906

>  <COMMON_NAME>  (1) 
Deserpidine

>  <CAS_NUMBER>  (1) 
131-01-1

>  <UNII>  (1) 
9016E3VB47

>  <SYNONYMS>  (1) 
(3β,16β,17α,18β,20α)-17-methoxy-18-[(3,4,5-trimethoxybenzoyl)oxy]yohimban-16-carboxylic acid methyl ester; 11-demethoxyreserpine; 11-desmethoxyreserpine; Canescine; Deserpidina; Deserpidine; Deserpidinum; Raunormine; Recanescine

$$$$
