1475
     RDKit          3D

 26 28  0  0  0  0  0  0  0  0999 V2000
    1.9314    0.1757    0.8366 O   0  0  0  0  0  0  0  0  0  0  0  0
    0.1216   -0.3136    0.7510 O   0  0  0  0  0  0  0  0  0  0  0  0
    0.9623   -2.9813    0.8936 O   0  0  0  0  0  0  0  0  0  0  0  0
   -1.9632   -0.0402   -0.0297 N   0  0  0  0  0  0  0  0  0  0  0  0
    0.4263   -1.7548   -1.8629 C   0  0  0  0  0  0  0  0  0  0  0  0
   -0.5291   -0.4520   -2.5011 C   0  0  0  0  0  0  0  0  0  0  0  0
   -1.9606   -0.1232   -1.7121 C   0  0  0  0  0  0  0  0  0  0  0  0
   -1.0616    1.1530    1.1577 C   0  0  0  0  0  0  0  0  0  0  0  0
   -0.9499   -1.1024   -0.2299 C   0  0  0  0  0  0  0  0  0  0  0  0
   -0.2780   -2.8735   -2.4581 C   0  0  0  0  0  0  0  0  0  0  0  0
    1.9955   -1.5150   -2.6165 C   0  0  0  0  0  0  0  0  0  0  0  0
    0.5247   -2.0726    0.1689 C   0  0  0  0  0  0  0  0  0  0  0  0
    0.9903    1.3758    1.1727 C   0  0  0  0  0  0  0  0  0  0  0  0
    1.1367   -0.5464   -0.5041 C   0  0  0  0  0  0  0  0  0  0  0  0
    0.2758   -4.0452   -2.0454 C   0  0  0  0  0  0  0  0  0  0  0  0
    2.7492   -0.2934   -2.7500 C   0  0  0  0  0  0  0  0  0  0  0  0
   -1.5018   -2.7424   -3.1093 C   0  0  0  0  0  0  0  0  0  0  0  0
    2.7561   -2.6389   -2.8112 C   0  0  0  0  0  0  0  0  0  0  0  0
   -0.3480   -5.1595   -2.4278 C   0  0  0  0  0  0  0  0  0  0  0  0
    4.1058   -0.2292   -3.0203 C   0  0  0  0  0  0  0  0  0  0  0  0
   -2.2906   -3.8268   -3.0876 C   0  0  0  0  0  0  0  0  0  0  0  0
    4.1286   -2.5978   -2.9535 C   0  0  0  0  0  0  0  0  0  0  0  0
   -1.6448   -5.0397   -2.9166 C   0  0  0  0  0  0  0  0  0  0  0  0
    4.7847   -1.4043   -3.1669 C   0  0  0  0  0  0  0  0  0  0  0  0
   -0.1560    1.1890   -0.5985 C   0  0  0  0  0  0  0  0  0  0  0  0
    0.7184    2.1415   -1.5740 C   0  0  0  0  0  0  0  0  0  0  0  0
  1 13  1  0
  1 14  1  0
  2 12  1  0
  2 25  1  0
  3 12  2  0
  4  7  1  0
  4  8  1  0
  4  9  1  0
  5  6  1  0
  5 10  1  0
  5 11  1  0
  5 12  1  0
  6  7  1  0
  8 13  1  0
  9 14  1  0
 10 15  2  0
 10 17  1  0
 11 16  2  0
 11 18  1  0
 15 19  1  0
 16 20  1  0
 17 21  2  0
 18 22  2  0
 19 23  2  0
 20 24  2  0
 21 23  1  0
 22 24  1  0
 25 26  1  0
M  END
>  <DRUGBANK_ID>  (1) 
DB01475

>  <COMMON_NAME>  (1) 
Dioxaphetyl butyrate

>  <CAS_NUMBER>  (1) 
467-86-7

>  <UNII>  (1) 
G751H98FY4

>  <SYNONYMS>  (1) 
Dioxaphetyl butyrate

$$$$
