391
     RDKit          3D

 29 33  0  0  0  0  0  0  0  0999 V2000
    1.0409   -1.3825   -0.0091 C   0  0  0  0  0  0  0  0  0  0  0  0
   -0.1525   -0.6813   -0.0022 C   0  0  0  0  0  0  0  0  0  0  0  0
   -1.4052   -1.2160    0.0055 O   0  0  0  0  0  0  0  0  0  0  0  0
   -2.2152   -0.0209    0.0817 C   0  0  0  0  0  0  0  0  0  0  0  0
   -1.4463    1.1947    0.0024 O   0  0  0  0  0  0  0  0  0  0  0  0
   -0.1842    0.6933   -0.0017 C   0  0  0  0  0  0  0  0  0  0  0  0
    0.9658    1.4438   -0.0141 C   0  0  0  0  0  0  0  0  0  0  0  0
    2.1837    0.7637   -0.0394 C   0  0  0  0  0  0  0  0  0  0  0  0
    2.2372   -0.6460   -0.0169 C   0  0  0  0  0  0  0  0  0  0  0  0
    3.4081   -1.3857   -0.0174 O   0  0  0  0  0  0  0  0  0  0  0  0
    4.6180   -0.7167    0.0287 C   0  0  0  0  0  0  0  0  0  0  0  0
    5.4325   -0.9268   -1.0176 N   0  0  0  0  0  0  0  0  0  0  0  0
    4.9578    0.0740    1.1031 C   0  0  0  0  0  0  0  0  0  0  0  0
    6.1519    0.7546    1.0104 C   0  0  0  0  0  0  0  0  0  0  0  0
    6.5755    1.7140    2.0817 C   0  0  0  0  0  0  0  0  0  0  0  0
    6.9823    0.6041   -0.0441 N   0  0  0  0  0  0  0  0  0  0  0  0
    6.5904   -0.2468   -1.0073 C   0  0  0  0  0  0  0  0  0  0  0  0
    7.5105   -0.4229   -2.0424 O   0  0  0  0  0  0  0  0  0  0  0  0
    7.0876   -1.1275   -3.1444 C   0  0  0  0  0  0  0  0  0  0  0  0
    5.9763   -0.7238   -3.8912 C   0  0  0  0  0  0  0  0  0  0  0  0
    5.5637   -1.4756   -4.9889 C   0  0  0  0  0  0  0  0  0  0  0  0
    7.8412   -2.2359   -3.5434 C   0  0  0  0  0  0  0  0  0  0  0  0
    7.4343   -2.9962   -4.6440 C   0  0  0  0  0  0  0  0  0  0  0  0
    6.2801   -2.6238   -5.3402 C   0  0  0  0  0  0  0  0  0  0  0  0
    5.7795   -3.4376   -6.3712 N   0  0  0  0  0  0  0  0  0  0  0  0
    5.4664   -3.0418   -7.6472 C   0  0  0  0  0  0  0  0  0  0  0  0
    4.8872   -4.1395   -8.2399 C   0  0  0  0  0  0  0  0  0  0  0  0
    4.8201   -5.1893   -7.3622 N   0  0  0  0  0  0  0  0  0  0  0  0
    5.3674   -4.7426   -6.2500 C   0  0  0  0  0  0  0  0  0  0  0  0
  1  9  2  0
  1  2  1  0
  2  3  1  0
  2  6  2  0
  3  4  1  0
  4  5  1  0
  5  6  1  0
  6  7  1  0
  7  8  2  0
  8  9  1  0
  9 10  1  0
 10 11  1  0
 11 13  1  0
 11 12  2  0
 12 17  1  0
 13 14  2  0
 14 15  1  0
 14 16  1  0
 16 17  2  0
 17 18  1  0
 18 19  1  0
 19 20  2  0
 19 22  1  0
 20 21  1  0
 21 24  2  0
 22 23  2  0
 23 24  1  0
 24 25  1  0
 25 26  1  0
 25 29  1  0
 26 27  2  0
 27 28  1  0
 28 29  2  0
M  END
>  <DRUGBANK_ID>  (1) 
DB07029

>  <COMMON_NAME>  (1) 
4-(1,3-BENZODIOXOL-5-YLOXY)-2-[4-(1H-IMIDAZOL-1-YL)PHENOXY]-6-METHYLPYRIMIDINE

$$$$
