92G
     RDKit          3D

 13 14  0  0  0  0  0  0  0  0999 V2000
    2.2507    0.0040    0.0004 O   0  0  0  0  0  0  0  0  0  0  0  0
   -1.2263   -1.1874    0.0228 C   0  0  0  0  0  0  0  0  0  0  0  0
    0.1746   -1.2197    0.0198 C   0  0  0  0  0  0  0  0  0  0  0  0
    0.8873   -0.0237    0.0108 C   0  0  0  0  0  0  0  0  0  0  0  0
   -1.1707    1.2301    0.0041 C   0  0  0  0  0  0  0  0  0  0  0  0
    0.2251    1.1978    0.0110 C   0  0  0  0  0  0  0  0  0  0  0  0
   -1.9068    0.0372    0.0037 C   0  0  0  0  0  0  0  0  0  0  0  0
   -3.3590    0.0742   -0.0364 C   0  0  0  0  0  0  0  0  0  0  0  0
   -5.4108   -0.3070    0.6813 C   0  0  0  0  0  0  0  0  0  0  0  0
   -4.0564    0.6910   -1.0558 C   0  0  0  0  0  0  0  0  0  0  0  0
   -5.7377    0.5662   -0.7629 S   0  0  0  0  0  0  0  0  0  0  0  0
   -4.1432   -0.5148    0.9415 N   0  0  0  0  0  0  0  0  0  0  0  0
   -6.4106   -0.7352    1.4614 N   0  0  0  0  0  0  0  0  0  0  0  0
  1  4  1  0
  2  7  2  0
  3  2  1  0
  3  4  2  0
  4  6  1  0
  6  5  2  0
  7  5  1  0
  7  8  1  0
  8 12  1  0
  9 13  1  0
 10  8  2  0
 10 11  1  0
 11  9  1  0
 12  9  2  0
M  END
>  <DRUGBANK_ID>  (1) 
DB07292

>  <COMMON_NAME>  (1) 
4-(2-amino-1,3-thiazol-4-yl)phenol

>  <UNII>  (1) 
MLP0GI2196

$$$$
