
     RDKit          3D

 18 20  0  0  0  0  0  0  0  0999 V2000
    0.8510   -0.0847   -0.1141 C   0  0  0  0  0  0  0  0  0  0  0  0
    0.4511   -0.7542   -1.3476 N   0  0  0  0  0  0  0  0  0  0  0  0
   -0.4427   -1.8124   -1.4077 C   0  0  0  0  0  0  0  0  0  0  0  0
   -1.4645   -1.9804   -0.4984 C   0  0  0  0  0  0  0  0  0  0  0  0
   -2.2739   -3.1438   -0.4981 C   0  0  0  0  0  0  0  0  0  0  0  0
   -2.1603   -4.2642   -1.3777 C   0  0  0  0  0  0  0  0  0  0  0  0
   -1.1862   -4.0344   -2.3716 C   0  0  0  0  0  0  0  0  0  0  0  0
   -0.3391   -2.8400   -2.3640 C   0  0  0  0  0  0  0  0  0  0  0  0
   -3.1939   -5.4473   -1.1894 C   0  0  0  0  0  0  0  0  0  0  0  0
   -3.2238   -6.7984   -1.3091 N   0  0  0  0  0  0  0  0  0  0  0  0
   -4.5497   -7.3679   -0.9413 C   0  0  0  0  0  0  0  0  0  0  0  0
   -5.4529   -6.3617   -0.6041 C   0  0  0  0  0  0  0  0  0  0  0  0
   -4.6980   -4.8614   -0.5440 S   0  0  0  0  0  0  0  0  0  0  0  0
   -6.8087   -6.5359   -0.3349 C   0  0  0  0  0  0  0  0  0  0  0  0
   -7.3604   -7.8017   -0.3797 C   0  0  0  0  0  0  0  0  0  0  0  0
   -8.6651   -7.9436   -0.1688 F   0  0  0  0  0  0  0  0  0  0  0  0
   -6.5319   -8.8888   -0.6252 C   0  0  0  0  0  0  0  0  0  0  0  0
   -5.1304   -8.7008   -0.8742 C   0  0  0  0  0  0  0  0  0  0  0  0
  1  2  1  0
  2  3  1  0
  3  4  2  0
  3  8  1  0
  4  5  1  0
  5  6  2  0
  6  7  1  0
  6  9  1  0
  7  8  2  0
  9 10  2  0
  9 13  1  0
 10 11  1  0
 11 12  2  0
 11 18  1  0
 12 13  1  0
 12 14  1  0
 14 15  2  0
 15 16  1  0
 15 17  1  0
 17 18  2  0
M  ISO  1  16  18
M  END
>  <DRUGBANK_ID>  (1) 
DB15457

>  <COMMON_NAME>  (1) 
Snubh-nm-333 F-18

>  <CAS_NUMBER>  (1) 
1226795-18-1

>  <UNII>  (1) 
I8WEG59XVM

>  <SYNONYMS>  (1) 
SNUBH-NM-333(18F)

$$$$
