
     RDKit          3D

 26 27  0  0  1  0  0  0  0  0999 V2000
   -4.4516    2.7791    4.8680 C   0  0  0  0  0  0  0  0  0  0  0  0
   -4.4346    1.3947    4.9399 C   0  0  0  0  0  0  0  0  0  0  0  0
   -4.3858    0.6331    3.7678 C   0  0  0  0  0  0  0  0  0  0  0  0
   -4.3444    1.2518    2.5115 C   0  0  0  0  0  0  0  0  0  0  0  0
   -4.3461    2.6687    2.4586 C   0  0  0  0  0  0  0  0  0  0  0  0
   -4.4006    3.4212    3.6360 C   0  0  0  0  0  0  0  0  0  0  0  0
   -4.4384    4.7899    3.6337 O   0  0  0  0  0  0  0  0  0  0  0  0
   -4.5394    3.4886    6.0323 O   0  0  0  0  0  0  0  0  0  0  0  0
   -4.5572    0.4625    1.2272 C   0  0  0  0  0  0  0  0  0  0  0  0
   -4.1853   -1.0475    1.1190 C   0  0  2  0  0  0  0  0  0  0  0  0
   -3.3025   -1.3844   -0.1001 C   0  0  0  0  0  0  0  0  0  0  0  0
   -5.4119   -1.8399    1.1041 O   0  0  0  0  0  0  0  0  0  0  0  0
   -2.6370   -0.6130   -0.7779 O   0  0  0  0  0  0  0  0  0  0  0  0
   -6.2284   -1.6036    0.0406 C   0  0  0  0  0  0  0  0  0  0  0  0
   -5.9789   -0.8405   -0.8843 O   0  0  0  0  0  0  0  0  0  0  0  0
   -7.5228   -2.3087    0.0922 C   0  0  0  0  0  0  0  0  0  0  0  0
   -3.2650   -2.7143   -0.3634 O   0  0  0  0  0  0  0  0  0  0  0  0
   -7.9369   -3.1516    1.0492 C   0  0  0  0  0  0  0  0  0  0  0  0
   -9.2422   -3.8405    0.9948 C   0  0  0  0  0  0  0  0  0  0  0  0
  -10.0154   -3.9362    2.1626 C   0  0  0  0  0  0  0  0  0  0  0  0
  -11.2370   -4.6203    2.1600 C   0  0  0  0  0  0  0  0  0  0  0  0
  -11.6831   -5.2249    0.9951 C   0  0  0  0  0  0  0  0  0  0  0  0
  -10.9305   -5.1445   -0.1724 C   0  0  0  0  0  0  0  0  0  0  0  0
   -9.7128   -4.4587   -0.1803 C   0  0  0  0  0  0  0  0  0  0  0  0
  -11.4246   -5.7607   -1.2904 O   0  0  0  0  0  0  0  0  0  0  0  0
  -12.8685   -5.9029    1.0236 O   0  0  0  0  0  0  0  0  0  0  0  0
  1  2  2  0
  1  8  1  0
  2  3  1  0
  3  4  2  0
  4  9  1  0
  4  5  1  0
  5  6  2  0
  6  7  1  0
  6  1  1  0
 10 12  1  0
 10 11  1  0
 10  9  1  6
 11 13  2  0
 11 17  1  0
 12 14  1  0
 14 15  2  0
 14 16  1  0
 16 18  2  0
 18 19  1  0
 19 20  2  0
 20 21  1  0
 21 22  2  0
 22 23  1  0
 22 26  1  0
 23 24  2  0
 23 25  1  0
 24 19  1  0
M  END
>  <DRUGBANK_ID>  (1) 
DB16865

>  <COMMON_NAME>  (1) 
Rosmarinic acid

>  <CAS_NUMBER>  (1) 
20283-92-5

>  <UNII>  (1) 
MQE6XG29YI

>  <SYNONYMS>  (1) 
Labiatenic acid; Labiatic acid; Rosemary acid

$$$$
