
     RDKit          3D

 20 21  0  0  1  0  0  0  0  0999 V2000
    0.9315    0.0705    0.0408 C   0  0  0  0  0  0  0  0  0  0  0  0
    0.3861    0.7525   -1.0764 O   0  0  0  0  0  0  0  0  0  0  0  0
    0.9417    1.9795   -1.3142 C   0  0  0  0  0  0  0  0  0  0  0  0
    2.2799    2.2898   -1.1552 C   0  0  0  0  0  0  0  0  0  0  0  0
    2.7649    3.5333   -1.5342 C   0  0  0  0  0  0  0  0  0  0  0  0
    1.9220    4.4225   -2.1871 C   0  0  0  0  0  0  0  0  0  0  0  0
    0.5906    4.1189   -2.4410 C   0  0  0  0  0  0  0  0  0  0  0  0
    0.0851    2.9177   -1.8860 C   0  0  0  0  0  0  0  0  0  0  0  0
   -0.3128    4.9983   -3.3128 C   0  0  2  0  0  0  0  0  0  0  0  0
   -1.3221    4.0418   -3.6525 O   0  0  0  0  0  0  0  0  0  0  0  0
    0.1838    5.4121   -4.7030 C   0  0  0  0  0  0  0  0  0  0  0  0
    1.3518    6.3554   -4.7110 C   0  0  1  0  0  0  0  0  0  0  0  0
    1.5477    6.7672   -6.0611 O   0  0  0  0  0  0  0  0  0  0  0  0
    1.1032    7.5761   -3.8267 C   0  0  0  0  0  0  0  0  0  0  0  0
    0.5190    7.2623   -2.4375 C   0  0  0  0  0  0  0  0  0  0  0  0
   -0.7237    6.3038   -2.5000 C   0  0  1  0  0  0  0  0  0  0  0  0
   -1.9063    7.1884   -3.0294 C   0  0  0  0  0  0  0  0  0  0  0  0
   -3.2843    6.6788   -2.9249 N   0  0  0  0  0  0  0  0  0  0  0  0
   -4.2312    7.5668   -3.5861 C   0  0  0  0  0  0  0  0  0  0  0  0
   -3.4234    5.3787   -3.5396 C   0  0  0  0  0  0  0  0  0  0  0  0
  1  2  1  0
  2  3  1  0
  3  4  2  0
  3  8  1  0
  4  5  1  0
  5  6  2  0
  6  7  1  0
  7  8  2  0
  9  7  1  0
  9 10  1  6
  9 11  1  0
  9 16  1  0
 12 11  1  0
 12 14  1  0
 12 13  1  6
 14 15  1  0
 16 15  1  0
 16 17  1  6
 17 18  1  0
 18 19  1  0
 18 20  1  0
M  END
>  <DRUGBANK_ID>  (1) 
DB16100

>  <COMMON_NAME>  (1) 
Axomadol

>  <CAS_NUMBER>  (1) 
187219-99-4

>  <UNII>  (1) 
9J92U4CVS0

>  <SYNONYMS>  (1) 
Axomadol; Bn-110 free base; Bn110 free base; Grt-151 free base; Grt151 free base

$$$$
