393
     RDKit          3D

 30 31  0  0  1  0  0  0  0  0999 V2000
    0.9079   -0.0368    0.0827 O   0  0  0  0  0  0  0  0  0  0  0  0
   -5.6140   -3.6736   -1.5150 O   0  0  0  0  0  0  0  0  0  0  0  0
    1.0111   -1.5921   -1.5925 O   0  0  0  0  0  0  0  0  0  0  0  0
   -3.7856   -4.5553   -0.7798 O   0  0  0  0  0  0  0  0  0  0  0  0
   -5.6991   -1.2146    0.6144 O   0  0  0  0  0  0  0  0  0  0  0  0
    2.4827   -6.3994   -1.4661 O   0  0  0  0  0  0  0  0  0  0  0  0
    2.5690   -4.7016   -0.0806 O   0  0  0  0  0  0  0  0  0  0  0  0
   -3.0470    0.2033   -1.0586 N   0  0  0  0  0  0  0  0  0  0  0  0
    1.9792   -5.4179   -0.9023 N   0  0  0  0  0  0  0  0  0  0  0  0
   -1.9255   -2.2838   -0.6749 C   0  0  0  0  0  0  0  0  0  0  0  0
   -1.0938   -0.9637   -0.7398 C   0  0  0  0  0  0  0  0  0  0  0  0
   -3.4251   -2.1390   -1.3208 C   0  0  0  0  0  0  0  0  0  0  0  0
   -1.1915   -3.4985   -1.2265 C   0  0  0  0  0  0  0  0  0  0  0  0
   -1.7054    0.2090   -0.9486 C   0  0  0  0  0  0  0  0  0  0  0  0
   -3.7824   -0.8356   -1.5579 C   0  0  0  0  0  0  0  0  0  0  0  0
    0.3791   -0.9332   -0.8131 C   0  0  0  0  0  0  0  0  0  0  0  0
   -0.0116   -3.9781   -0.6527 C   0  0  0  0  0  0  0  0  0  0  0  0
   -4.2751   -3.5429   -1.2984 C   0  0  0  0  0  0  0  0  0  0  0  0
   -1.7442   -4.2238   -2.2915 C   0  0  0  0  0  0  0  0  0  0  0  0
   -1.1531    1.5673   -1.2598 C   0  0  0  0  0  0  0  0  0  0  0  0
   -5.0272   -0.2006   -2.0358 C   0  0  0  0  0  0  0  0  0  0  0  0
    0.6012   -5.0842   -1.2420 C   0  0  0  0  0  0  0  0  0  0  0  0
   -1.3260   -5.4924   -2.6071 C   0  0  0  0  0  0  0  0  0  0  0  0
    2.3444    0.0319    0.0124 C   0  0  0  0  0  0  0  0  0  0  0  0
   -0.0749   -5.8690   -2.1852 C   0  0  0  0  0  0  0  0  0  0  0  0
   -6.5585   -2.6215   -1.5805 C   0  0  0  0  0  0  0  0  0  0  0  0
    2.8307    1.3066    0.6901 C   0  0  0  0  0  0  0  0  0  0  0  0
    2.9104   -1.1833    0.7310 C   0  0  0  0  0  0  0  0  0  0  0  0
   -6.7790   -1.7618   -0.1944 C   0  0  0  0  0  0  0  0  0  0  0  0
   -4.8559   -2.1771    1.2052 C   0  0  0  0  0  0  0  0  0  0  0  0
  1 16  1  0
  1 24  1  0
  2 18  1  0
  2 26  1  0
  3 16  2  0
  4 18  2  0
  5 29  1  0
  5 30  1  0
  6  9  1  0
  7  9  2  0
  8 14  1  0
  8 15  1  0
  9 22  1  0
 10 11  1  0
 10 12  1  0
 10 13  1  0
 11 14  2  0
 11 16  1  0
 12 15  2  0
 12 18  1  0
 13 17  2  0
 13 19  1  0
 14 20  1  0
 15 21  1  0
 17 22  1  0
 19 23  2  0
 22 25  2  0
 23 25  1  0
 24 27  1  0
 24 28  1  0
 26 29  1  0
M  CHG  2   6  -1   9   1
M  END
>  <DRUGBANK_ID>  (1) 
DB00393

>  <SECONDARY_ACCESSION_NUMBERS>  (1) 
APRD00612

>  <COMMON_NAME>  (1) 
Nimodipine

>  <CAS_NUMBER>  (1) 
66085-59-4

>  <UNII>  (1) 
57WA9QZ5WH

>  <SYNONYMS>  (1) 
2,6-dimethyl-4-(3'-nitrophenyl)-1,4-dihydropyridine-3,5-dicarboxylic acid 3-Î²-methoxyethyl ester 5-isopropyl ester; isopropyl 2-methoxyethyl 1,4-dihydro-2,6-dimethyl-4-(3-nitrophenyl)-3,5-pyridinedicarboxylate; isopropyl 2-methoxyethyl 1,4-dihydro-2,6-dimethyl-4-(m-nitrophenyl)-3,5-pyridinedicarboxylate; Nimodipine; Nimodipino; Nimodipinum

$$$$
