
     RDKit          3D

 11 11  0  0  1  0  0  0  0  0999 V2000
    1.1123   -1.0225   -2.2479 C   0  0  0  0  0  0  0  0  0  0  0  0
    0.5676    0.1556   -1.4265 C   0  0  2  0  0  0  0  0  0  0  0  0
    0.9671   -0.0554    0.0627 C   0  0  0  0  0  0  0  0  0  0  0  0
    0.2513   -1.1261    0.8716 C   0  0  0  0  0  0  0  0  0  0  0  0
    0.6364   -1.3222    2.2059 C   0  0  0  0  0  0  0  0  0  0  0  0
   -0.1411   -2.1107    3.0565 C   0  0  0  0  0  0  0  0  0  0  0  0
   -1.3377   -2.6624    2.6062 C   0  0  0  0  0  0  0  0  0  0  0  0
   -1.6963   -2.5289    1.2719 C   0  0  0  0  0  0  0  0  0  0  0  0
   -0.8555   -1.8457    0.4029 C   0  0  0  0  0  0  0  0  0  0  0  0
   -0.8589    0.4988   -1.5723 N   0  0  0  0  0  0  0  0  0  0  0  0
   -1.4239    0.3580   -2.8978 C   0  0  0  0  0  0  0  0  0  0  0  0
  2 10  1  0
  2  3  1  0
  2  1  1  6
  3  4  1  0
  4  5  2  0
  4  9  1  0
  5  6  1  0
  6  7  2  0
  7  8  1  0
  8  9  2  0
 10 11  1  0
M  END
>  <DRUGBANK_ID>  (1) 
DB09571

>  <COMMON_NAME>  (1) 
Levmetamfetamine

>  <CAS_NUMBER>  (1) 
33817-09-3

>  <UNII>  (1) 
Y24T9BT2Q2

>  <SYNONYMS>  (1) 
Levmetamfetamine; Levomethamphetamine

$$$$
