DHP
     RDKit          3D

 18 18  0  0  0  0  0  0  0  0999 V2000
   -1.1585    0.1506   -0.2072 N   0  0  0  0  0  0  0  0  0  0  0  0
    1.0156    0.7270   -0.0612 C   0  0  0  0  0  0  0  0  0  0  0  0
    2.1343    1.5104   -0.1175 O   0  0  0  0  0  0  0  0  0  0  0  0
   -0.3694    1.2117    0.0225 C   0  0  0  0  0  0  0  0  0  0  0  0
   -0.6930    2.3541    0.3025 O   0  0  0  0  0  0  0  0  0  0  0  0
   -0.4369   -0.9832   -0.1205 C   0  0  0  0  0  0  0  0  0  0  0  0
   -0.9463   -2.0845   -0.0412 O   0  0  0  0  0  0  0  0  0  0  0  0
    0.9989   -0.6049   -0.1040 C   0  0  0  0  0  0  0  0  0  0  0  0
    2.2153   -1.4578   -0.1926 C   0  0  0  0  0  0  0  0  0  0  0  0
    2.4339   -2.3239    1.0480 C   0  0  0  0  0  0  0  0  0  0  0  0
    1.2864   -3.3063    1.2436 C   0  0  0  0  0  0  0  0  0  0  0  0
    1.0947   -4.1623   -0.0215 C   0  0  0  0  0  0  0  0  0  0  0  0
    2.3293   -5.0398   -0.2283 C   0  0  0  0  0  0  0  0  0  0  0  0
    2.5172   -5.9437    0.9919 C   0  0  0  0  0  0  0  0  0  0  0  0
    1.2864   -6.8399    1.1782 C   0  0  0  0  0  0  0  0  0  0  0  0
    1.1010   -7.7558   -0.0359 C   0  0  0  0  0  0  0  0  0  0  0  0
    2.3349   -8.6316   -0.2566 C   0  0  0  0  0  0  0  0  0  0  0  0
    2.5863   -9.5050    0.9619 C   0  0  0  0  0  0  0  0  0  0  0  0
  1  4  1  0
  1  6  1  0
  2  3  1  0
  2  4  1  0
  2  8  2  0
  4  5  2  0
  6  7  2  0
  6  8  1  0
  8  9  1  0
  9 10  1  0
 10 11  1  0
 11 12  1  0
 12 13  1  0
 13 14  1  0
 14 15  1  0
 15 16  1  0
 16 17  1  0
 17 18  1  0
M  END
>  <DRUGBANK_ID>  (1) 
DB03064

>  <SECONDARY_ACCESSION_NUMBERS>  (1) 
EXPT01195

>  <COMMON_NAME>  (1) 
3-Decyl-2,5-Dioxo-4-Hydroxy-3-Pyrroline

$$$$
