2D9
     RDKit          3D

 31 34  0  0  0  0  0  0  0  0999 V2000
    1.0517    0.1131    0.0434 C   0  0  0  0  0  0  0  0  0  0  0  0
    0.4517    1.6571    0.6787 S   0  0  0  0  0  0  0  0  0  0  0  0
    1.0414    2.7111   -0.1413 O   0  0  0  0  0  0  0  0  0  0  0  0
   -0.9762    1.5514    0.8445 O   0  0  0  0  0  0  0  0  0  0  0  0
    1.1580    1.8537    2.2984 C   0  0  0  0  0  0  0  0  0  0  0  0
    1.2098    3.1341    2.8582 C   0  0  0  0  0  0  0  0  0  0  0  0
    1.6446    3.3058    4.1805 C   0  0  0  0  0  0  0  0  0  0  0  0
    1.6770    0.7725    2.9991 C   0  0  0  0  0  0  0  0  0  0  0  0
    2.2470    0.9815    4.2639 C   0  0  0  0  0  0  0  0  0  0  0  0
    2.0967    2.2090    4.9293 C   0  0  0  0  0  0  0  0  0  0  0  0
    2.2849    2.3068    6.4396 C   0  0  0  0  0  0  0  0  0  0  0  0
    1.2545    1.7302    7.3339 N   0  0  0  0  0  0  0  0  0  0  0  0
    1.0438    0.2735    7.1995 C   0  0  0  0  0  0  0  0  0  0  0  0
    0.1200   -0.1377    6.0374 C   0  0  0  0  0  0  0  0  0  0  0  0
   -0.0567    2.4226    7.2899 C   0  0  0  0  0  0  0  0  0  0  0  0
   -0.9206    2.0946    6.0469 C   0  0  0  0  0  0  0  0  0  0  0  0
   -1.1067    0.6508    6.0170 N   0  0  0  0  0  0  0  0  0  0  0  0
   -2.2178    0.0522    5.5696 C   0  0  0  0  0  0  0  0  0  0  0  0
   -3.0283    0.2541    4.4431 C   0  0  0  0  0  0  0  0  0  0  0  0
   -4.0600   -0.6012    4.4345 N   0  0  0  0  0  0  0  0  0  0  0  0
   -3.8989   -1.3070    5.5723 N   0  0  0  0  0  0  0  0  0  0  0  0
   -2.7537   -1.0079    6.2522 C   0  0  0  0  0  0  0  0  0  0  0  0
   -2.3439   -1.6129    7.5122 C   0  0  0  0  0  0  0  0  0  0  0  0
   -2.0932   -0.7822    8.6197 C   0  0  0  0  0  0  0  0  0  0  0  0
   -1.7754   -1.3281    9.8579 C   0  0  0  0  0  0  0  0  0  0  0  0
   -1.5201   -0.2836   11.2042 Cl  0  0  0  0  0  0  0  0  0  0  0  0
   -1.7166   -2.7126    9.9983 C   0  0  0  0  0  0  0  0  0  0  0  0
   -1.4209   -3.3118   11.1915 O   0  0  0  0  0  0  0  0  0  0  0  0
   -1.9431   -3.5451    8.9036 C   0  0  0  0  0  0  0  0  0  0  0  0
   -2.1845   -2.9914    7.6506 C   0  0  0  0  0  0  0  0  0  0  0  0
   -2.2231   -3.8425    6.5797 O   0  0  0  0  0  0  0  0  0  0  0  0
  1  2  1  0
  2  3  2  0
  2  4  2  0
  2  5  1  0
  5  6  2  0
  5  8  1  0
  6  7  1  0
  7 10  2  0
  8  9  2  0
  9 10  1  0
 10 11  1  0
 11 12  1  0
 12 13  1  0
 12 15  1  0
 13 14  1  0
 14 17  1  0
 15 16  1  0
 16 17  1  0
 17 18  1  0
 18 19  1  0
 18 22  2  0
 19 20  2  0
 20 21  1  0
 21 22  1  0
 22 23  1  0
 23 24  2  0
 23 30  1  0
 24 25  1  0
 25 26  1  0
 25 27  2  0
 27 28  1  0
 27 29  1  0
 29 30  2  0
 30 31  1  0
M  END
>  <DRUGBANK_ID>  (1) 
DB06957

>  <COMMON_NAME>  (1) 
4-CHLORO-6-(4-{4-[4-(METHYLSULFONYL)BENZYL]PIPERAZIN-1-YL}-1H-PYRAZOL-5-YL)BENZENE-1,3-DIOL

$$$$
