
     RDKit          3D

 14 14  0  0  0  0  0  0  0  0999 V2000
    0.9722    0.1046    0.0968 O   0  0  0  0  0  0  0  0  0  0  0  0
    2.1746    0.2216   -0.0993 C   0  0  0  0  0  0  0  0  0  0  0  0
    3.0384    0.1785    0.9572 O   0  0  0  0  0  0  0  0  0  0  0  0
    4.5114    0.1129    1.0578 C   0  0  0  0  0  0  0  0  0  0  0  0
    5.0733   -1.2694    0.5534 C   0  0  0  0  0  0  0  0  0  0  0  0
    4.8387   -1.4412   -0.9340 C   0  0  0  0  0  0  0  0  0  0  0  0
    4.9097   -2.7494   -1.5940 C   0  0  0  0  0  0  0  0  0  0  0  0
    4.8115   -3.8590   -0.8617 C   0  0  0  0  0  0  0  0  0  0  0  0
    4.7293   -3.8123    0.6403 C   0  0  0  0  0  0  0  0  0  0  0  0
    4.3796   -2.4538    1.2593 C   0  0  0  0  0  0  0  0  0  0  0  0
    4.7701   -5.1930   -1.5144 C   0  0  0  0  0  0  0  0  0  0  0  0
    5.1029    1.3790    0.4230 C   0  0  0  0  0  0  0  0  0  0  0  0
    4.9021    0.2157    2.5614 C   0  0  0  0  0  0  0  0  0  0  0  0
    2.6582    0.3667   -1.5291 C   0  0  0  0  0  0  0  0  0  0  0  0
  1  2  2  0
  2  3  1  0
  2 14  1  0
  3  4  1  0
  4  5  1  0
  4 12  1  0
  4 13  1  0
  5  6  1  0
  6  7  1  0
  7  8  2  0
  8  9  1  0
  8 11  1  0
  9 10  1  0
 10  5  1  0
M  END
>  <DRUGBANK_ID>  (1) 
DB15957

>  <COMMON_NAME>  (1) 
Terpinyl acetate

>  <CAS_NUMBER>  (1) 
8007-35-0

>  <UNII>  (1) 
9RXE0I9F2J

>  <SYNONYMS>  (1) 
Terpineol acetate

$$$$
