
     RDKit          3D

  5  4  0  0  0  0  0  0  0  0999 V2000
    0.9540   -0.0869   -0.0182 O   0  0  0  0  0  0  0  0  0  0  0  0
    3.1540   -0.0869   -0.0182 Mo  0  0  0  0  0  6  0  0  0  0  0  0
    3.8103   -1.5781    1.0874 O   0  0  0  0  0  0  0  0  0  0  0  0
    3.8103   -0.2988   -1.8625 O   0  0  0  0  0  0  0  0  0  0  0  0
    3.8873    1.8160    0.8071 O   0  0  0  0  0  0  0  0  0  0  0  0
  1  2  1  0
  2  4  2  0
  2  5  1  0
  2  3  2  0
M  CHG  2   1  -1   5  -1
M  ISO  1   2  99
M  END
>  <DRUGBANK_ID>  (1) 
DB16587

>  <COMMON_NAME>  (1) 
Molybdate Mo-99

>  <CAS_NUMBER>  (1) 
72826-31-4

>  <UNII>  (1) 
7608GL58YX

>  <SYNONYMS>  (1) 
Molybdate ion Mo 99; Molybdate ion Mo-99; Molybdate Mo 99; Molybdate Mo-99

$$$$
