PP1
     RDKit          3D

 21 23  0  0  0  0  0  0  0  0999 V2000
    1.4946    1.0641    0.0108 N   0  0  0  0  0  0  0  0  0  0  0  0
   -2.0428    0.5835   -0.0043 C   0  0  0  0  0  0  0  0  0  0  0  0
   -0.9409    1.3489    0.0013 N   0  0  0  0  0  0  0  0  0  0  0  0
    0.1880    0.6210    0.0062 C   0  0  0  0  0  0  0  0  0  0  0  0
    0.2472   -0.7621    0.0025 C   0  0  0  0  0  0  0  0  0  0  0  0
   -0.9668   -1.4600   -0.0032 C   0  0  0  0  0  0  0  0  0  0  0  0
   -2.1165   -0.7599   -0.0067 N   0  0  0  0  0  0  0  0  0  0  0  0
    2.3921    0.0360    0.0318 N   0  0  0  0  0  0  0  0  0  0  0  0
    1.6317   -1.0708   -0.0052 C   0  0  0  0  0  0  0  0  0  0  0  0
   -1.0640   -2.8340   -0.0226 N   0  0  0  0  0  0  0  0  0  0  0  0
    2.1974   -2.4143   -0.0508 C   0  0  0  0  0  0  0  0  0  0  0  0
    2.9693   -2.9047    1.0052 C   0  0  0  0  0  0  0  0  0  0  0  0
    3.4052   -4.2345    0.9942 C   0  0  0  0  0  0  0  0  0  0  0  0
    3.0640   -5.0871   -0.0645 C   0  0  0  0  0  0  0  0  0  0  0  0
    2.2763   -4.5978   -1.1106 C   0  0  0  0  0  0  0  0  0  0  0  0
    1.8621   -3.2672   -1.1126 C   0  0  0  0  0  0  0  0  0  0  0  0
    3.5395   -6.5083   -0.1094 C   0  0  0  0  0  0  0  0  0  0  0  0
    1.9950    2.4552    0.0027 C   0  0  0  0  0  0  0  0  0  0  0  0
    2.8619    2.7135    1.2525 C   0  0  0  0  0  0  0  0  0  0  0  0
    2.8583    2.7075   -1.2517 C   0  0  0  0  0  0  0  0  0  0  0  0
    0.8611    3.5015    0.0006 C   0  0  0  0  0  0  0  0  0  0  0  0
  1  4  1  0
  1  8  1  0
  1 18  1  0
  2  3  1  0
  2  7  2  0
  3  4  2  0
  4  5  1  0
  5  6  2  0
  5  9  1  0
  6  7  1  0
  6 10  1  0
  8  9  2  0
  9 11  1  0
 11 12  2  0
 11 16  1  0
 12 13  1  0
 13 14  2  0
 14 15  1  0
 14 17  1  0
 15 16  2  0
 18 19  1  0
 18 20  1  0
 18 21  1  0
M  END
>  <DRUGBANK_ID>  (1) 
DB01809

>  <SECONDARY_ACCESSION_NUMBERS>  (1) 
EXPT02633

>  <COMMON_NAME>  (1) 
1-Ter-Butyl-3-P-Tolyl-1h-Pyrazolo[3,4-D]Pyrimidin-4-Ylamine

>  <UNII>  (1) 
SA2ND7EHY4

$$$$
