
     RDKit          3D

 21 20  0  0  1  0  0  0  0  0999 V2000
    1.8489   18.6381   -4.3368 C   0  0  0  0  0  0  0  0  0  0  0  0
    1.1763   17.6917   -3.3557 C   0  0  0  0  0  0  0  0  0  0  0  0
   -0.3458   17.8110   -3.4428 C   0  0  0  0  0  0  0  0  0  0  0  0
   -0.8644   17.4629   -4.8420 C   0  0  0  0  0  0  0  0  0  0  0  0
   -0.4694   16.0362   -5.2378 C   0  0  0  0  0  0  0  0  0  0  0  0
   -1.0833   15.0243   -4.2667 C   0  0  0  0  0  0  0  0  0  0  0  0
   -2.6099   15.1373   -4.2942 C   0  0  0  0  0  0  0  0  0  0  0  0
   -3.1215   14.8586   -5.7120 C   0  0  0  0  0  0  0  0  0  0  0  0
   -2.7212   13.4396   -6.1268 C   0  0  0  0  0  0  0  0  0  0  0  0
   -3.3189   12.4420   -5.1295 C   0  0  0  0  0  0  0  0  0  0  0  0
   -4.8437   12.6181   -5.0925 C   0  0  0  0  0  0  0  0  0  0  0  0
   -5.4189   12.3541   -6.4814 C   0  0  0  0  0  0  0  0  0  0  0  0
   -5.0283   10.9513   -6.9137 C   0  0  0  0  0  0  0  0  0  0  0  0
   -5.5906    9.9313   -5.9128 C   0  0  0  0  0  0  0  0  0  0  0  0
   -7.1042    9.8376   -6.0291 C   0  0  0  0  0  0  0  0  0  0  0  0
   -7.5813    9.5283   -7.4541 C   0  0  1  0  0  0  0  0  0  0  0  0
   -7.0985    8.1468   -8.0107 C   0  0  2  0  0  0  0  0  0  0  0  0
   -5.5580    7.9585   -8.1302 C   0  0  0  0  0  0  0  0  0  0  0  0
   -5.1328    7.1102   -9.1900 O   0  0  0  0  0  0  0  0  0  0  0  0
   -7.7407    7.8838   -9.3110 N   0  0  0  0  0  0  0  0  0  0  0  0
   -9.0157    9.5962   -7.4724 O   0  0  0  0  0  0  0  0  0  0  0  0
  1  2  1  0
  2  3  1  0
  3  4  1  0
  4  5  1  0
  5  6  1  0
  6  7  1  0
  7  8  1  0
  8  9  1  0
  9 10  1  0
 10 11  1  0
 11 12  1  0
 12 13  1  0
 13 14  1  0
 14 15  1  0
 15 16  1  0
 16 21  1  1
 17 20  1  6
 17 18  1  0
 17 16  1  0
 18 19  1  0
M  END
>  <DRUGBANK_ID>  (1) 
DB11924

>  <COMMON_NAME>  (1) 
Safingol

>  <CAS_NUMBER>  (1) 
15639-50-6

>  <UNII>  (1) 
OWA98U788S

>  <SYNONYMS>  (1) 
Safingol

$$$$
