
     RDKit          3D

 15 14  0  0  0  0  0  0  0  0999 V2000
    0.9362    0.0863   -0.2429 C   0  0  0  0  0  0  0  0  0  0  0  0
    0.3986   -1.2952   -0.5463 C   0  0  0  0  0  0  0  0  0  0  0  0
    0.9038   -2.3393    0.4361 C   0  0  0  0  0  0  0  0  0  0  0  0
    0.4885   -2.2909    1.9243 C   0  0  0  0  0  0  0  0  0  0  0  0
   -1.0585   -2.2726    1.9844 C   0  0  0  0  0  0  0  0  0  0  0  0
    0.9967   -3.6025    2.6278 C   0  0  0  0  0  0  0  0  0  0  0  0
    2.4057   -3.8233    2.7265 O   0  0  0  0  0  0  0  0  0  0  0  0
    3.1521   -4.0778    1.5542 N   0  0  0  0  0  0  0  0  0  0  0  0
    2.5462   -4.5342    0.5812 O   0  0  0  0  0  0  0  0  0  0  0  0
    4.3375   -3.8037    1.6767 O   0  0  0  0  0  0  0  0  0  0  0  0
    1.0380   -1.0496    2.6890 C   0  0  0  0  0  0  0  0  0  0  0  0
    2.4397   -0.8763    2.5039 O   0  0  0  0  0  0  0  0  0  0  0  0
    3.2400   -1.4070    3.5474 N   0  0  0  0  0  0  0  0  0  0  0  0
    2.6449   -1.8848    4.5225 O   0  0  0  0  0  0  0  0  0  0  0  0
    4.4344   -1.3792    3.2950 O   0  0  0  0  0  0  0  0  0  0  0  0
  1  2  1  0
  2  3  1  0
  3  4  1  0
  4  5  1  0
  4  6  1  0
  4 11  1  0
  6  7  1  0
  7  8  1  0
  8  9  2  0
  8 10  1  0
 11 12  1  0
 12 13  1  0
 13 14  2  0
 13 15  1  0
M  CHG  4   8   1  10  -1  13   1  15  -1
M  END
>  <DRUGBANK_ID>  (1) 
DB13408

>  <COMMON_NAME>  (1) 
Methylpropylpropanediol dinitrate

>  <CAS_NUMBER>  (1) 
10605-24-0

>  <UNII>  (1) 
C317706XA7

>  <SYNONYMS>  (1) 
2-methyl-2-propylpropane-1,3-diyl dinitrate

$$$$
