
     RDKit          3D

 19 21  0  0  0  0  0  0  0  0999 V2000
    1.0748   -0.1037    0.0402 O   0  0  0  0  0  0  0  0  0  0  0  0
    4.3439    0.3714    1.1715 C   0  0  0  0  0  0  0  0  0  0  0  0
    3.1559    1.1382    0.5578 C   0  0  0  0  0  0  0  0  0  0  0  0
    4.5833   -0.4409   -0.0999 C   0  0  0  0  0  0  0  0  0  0  0  0
    3.7611    1.7321   -0.7454 C   0  0  0  0  0  0  0  0  0  0  0  0
    4.7500    0.6267   -1.2030 C   0  0  0  0  0  0  0  0  0  0  0  0
    3.2541   -1.1164   -0.3891 C   0  0  0  0  0  0  0  0  0  0  0  0
    2.2933   -0.0425    0.0803 C   0  0  0  0  0  0  0  0  0  0  0  0
    4.0292   -0.5113    2.3942 C   0  0  0  0  0  0  0  0  0  0  0  0
    5.5759    1.2206    1.5367 C   0  0  0  0  0  0  0  0  0  0  0  0
    2.5190    2.1277    1.4987 C   0  0  0  0  0  0  0  0  0  0  0  0
    2.9666   -2.3138   -0.9301 C   0  0  0  0  0  0  0  0  0  0  0  0
    3.9681   -3.3156   -1.3833 C   0  0  0  0  0  0  0  0  0  0  0  0
    5.3364   -3.0294   -1.4566 C   0  0  0  0  0  0  0  0  0  0  0  0
    3.5904   -4.6020   -1.7816 C   0  0  0  0  0  0  0  0  0  0  0  0
    6.3082   -3.9698   -1.7525 C   0  0  0  0  0  0  0  0  0  0  0  0
    4.5625   -5.5496   -2.1650 C   0  0  0  0  0  0  0  0  0  0  0  0
    5.9287   -5.2427   -2.1233 C   0  0  0  0  0  0  0  0  0  0  0  0
    6.9887   -6.2243   -2.5028 C   0  0  0  0  0  0  0  0  0  0  0  0
  1  8  2  0
  2  3  1  0
  2  4  1  0
  2  9  1  0
  2 10  1  0
  3  5  1  0
  3  8  1  0
  3 11  1  0
  4  6  1  0
  4  7  1  0
  5  6  1  0
  7  8  1  0
  7 12  2  0
 12 13  1  0
 13 14  2  0
 13 15  1  0
 14 16  1  0
 15 17  2  0
 16 18  2  0
 17 18  1  0
 18 19  1  0
M  END
>  <DRUGBANK_ID>  (1) 
DB11219

>  <COMMON_NAME>  (1) 
Enzacamene

>  <CAS_NUMBER>  (1) 
36861-47-9

>  <UNII>  (1) 
8I3XWY40L9

>  <SYNONYMS>  (1) 
(+/-)-3-(p-methylbenzylidene)camphor; 3-(4-methylbenzylidene)camphor; 3-(p-Methylbenzylidene)-DL-camphor; 4-MBC; 4-methylbenzylidene camphor; enzacam√®ne; Enzacamene; Enzacamene D-L form; enzacameno; enzacamenum; Methyl benzylidene camphor

$$$$
