
     RDKit          3D

  9  8  0  0  1  0  0  0  0  0999 V2000
    1.0372   -0.0273   -0.0729 N   0  0  0  0  0  0  0  0  0  0  0  0
    0.4753   -0.7149   -1.2999 C   0  0  1  0  0  0  0  0  0  0  0  0
    0.9173   -2.1894   -1.2587 C   0  0  0  0  0  0  0  0  0  0  0  0
    0.5187   -3.0131   -0.0240 C   0  0  0  0  0  0  0  0  0  0  0  0
   -0.9590   -3.3011    0.1157 C   0  0  0  0  0  0  0  0  0  0  0  0
   -1.4670   -4.3537   -0.2276 O   0  0  0  0  0  0  0  0  0  0  0  0
   -1.0361   -0.4679   -1.3380 C   0  0  0  0  0  0  0  0  0  0  0  0
   -1.5880   -0.0793   -2.4902 O   0  0  0  0  0  0  0  0  0  0  0  0
   -1.6825   -0.4903   -0.2915 O   0  0  0  0  0  0  0  0  0  0  0  0
  2  1  1  1
  2  3  1  0
  2  7  1  0
  3  4  1  0
  4  5  1  0
  5  6  2  0
  7  8  1  0
  7  9  2  0
M  CHG  1   1   1
M  END
>  <DRUGBANK_ID>  (1) 
DB03774

>  <SECONDARY_ACCESSION_NUMBERS>  (1) 
EXPT01861

>  <COMMON_NAME>  (1) 
Glutamyl Group

$$$$
