
     RDKit          3D

 28 31  0  0  0  0  0  0  0  0999 V2000
    2.5207   -0.8388    0.0049 C   0  0  0  0  0  0  0  0  0  0  0  0
    2.4935    0.5437    0.0068 C   0  0  0  0  0  0  0  0  0  0  0  0
    1.2577    1.1516   -0.0551 C   0  0  0  0  0  0  0  0  0  0  0  0
    0.0597    0.3852   -0.1663 C   0  0  0  0  0  0  0  0  0  0  0  0
   -1.1640    0.9324   -0.5553 C   0  0  0  0  0  0  0  0  0  0  0  0
   -2.4354    0.4409   -0.1854 C   0  0  0  0  0  0  0  0  0  0  0  0
   -2.4476   -0.9192    0.0390 C   0  0  0  0  0  0  0  0  0  0  0  0
   -1.2226   -1.6310    0.0576 C   0  0  0  0  0  0  0  0  0  0  0  0
    0.0507   -0.9785    0.0150 C   0  0  0  0  0  0  0  0  0  0  0  0
    1.3226   -1.5867    0.0526 C   0  0  0  0  0  0  0  0  0  0  0  0
   -3.7030    1.3364   -0.0488 C   0  0  0  0  0  0  0  0  0  0  0  0
   -3.8360    2.3630    1.2146 C   0  0  0  0  0  0  0  0  0  0  0  0
   -2.8701    3.5148    1.4096 N   0  0  0  0  0  0  0  0  0  0  0  0
   -3.2956    4.8180    0.8816 C   0  0  0  0  0  0  0  0  0  0  0  0
   -2.0977    5.8359    0.8194 C   0  0  0  0  0  0  0  0  0  0  0  0
   -0.9433    5.3249    0.0161 C   0  0  0  0  0  0  0  0  0  0  0  0
   -0.7319    4.0385    0.0242 C   0  0  0  0  0  0  0  0  0  0  0  0
   -1.6887    3.1461    0.6920 C   0  0  0  0  0  0  0  0  0  0  0  0
    0.1093    6.1210   -0.5890 C   0  0  0  0  0  0  0  0  0  0  0  0
    0.9302    6.8153    0.2930 C   0  0  0  0  0  0  0  0  0  0  0  0
    2.0097    7.5351   -0.1870 C   0  0  0  0  0  0  0  0  0  0  0  0
    2.3150    7.4973   -1.5447 C   0  0  0  0  0  0  0  0  0  0  0  0
    1.5882    6.6819   -2.4256 C   0  0  0  0  0  0  0  0  0  0  0  0
    0.4463    6.0246   -1.9491 C   0  0  0  0  0  0  0  0  0  0  0  0
    2.0893    6.4463   -3.8267 C   0  0  0  0  0  0  0  0  0  0  0  0
    2.4021    5.1375   -4.0470 F   0  0  0  0  0  0  0  0  0  0  0  0
    1.1862    6.7840   -4.7849 F   0  0  0  0  0  0  0  0  0  0  0  0
    3.2241    7.1453   -4.1137 F   0  0  0  0  0  0  0  0  0  0  0  0
  1  2  2  0
  1 10  1  0
  2  3  1  0
  3  4  2  0
  4  5  1  0
  4  9  1  0
  5  6  2  0
  6  7  1  0
  6 11  1  0
  7  8  2  0
  8  9  1  0
  9 10  2  0
 11 12  1  0
 12 13  1  0
 13 14  1  0
 13 18  1  0
 14 15  1  0
 15 16  1  0
 16 17  2  0
 16 19  1  0
 17 18  1  0
 19 20  2  0
 19 24  1  0
 20 21  1  0
 21 22  2  0
 22 23  1  0
 23 24  2  0
 23 25  1  0
 25 26  1  0
 25 27  1  0
 25 28  1  0
M  END
>  <DRUGBANK_ID>  (1) 
DB06393

>  <COMMON_NAME>  (1) 
Xaliproden

>  <CAS_NUMBER>  (1) 
135354-02-8

>  <UNII>  (1) 
V8QL94KNQO

>  <SYNONYMS>  (1) 
Xaliproden

$$$$
