
     RDKit          3D

 22 21  0  0  0  0  0  0  0  0999 V2000
    1.0109    0.1494    0.0167 C   0  0  0  0  0  0  0  0  0  0  0  0
    0.5693   -1.3125   -0.1169 C   0  0  0  0  0  0  0  0  0  0  0  0
   -7.9557   -5.5289    6.2006 C   0  0  2  0  0  0  0  0  0  0  0  0
   -7.2349   -6.8001    6.8442 C   0  0  1  0  0  0  0  0  0  0  0  0
   -5.5698   -6.7888    7.0553 C   0  0  1  0  0  0  0  0  0  0  0  0
   -4.6709   -5.5167    7.4582 C   0  0  0  0  0  0  0  0  0  0  0  0
   -3.2001   -5.5400    7.0458 C   0  0  0  0  0  0  0  0  0  0  0  0
   -2.9759   -5.9207    5.5738 C   0  0  0  0  0  0  0  0  0  0  0  0
   -3.5004   -4.9602    4.4876 C   0  0  0  0  0  0  0  0  0  0  0  0
   -3.0404   -3.5210    4.6932 C   0  0  0  0  0  0  0  0  0  0  0  0
   -1.5177   -3.5139    4.6428 C   0  0  0  0  0  0  0  0  0  0  0  0
   -1.0543   -4.0956    3.2959 C   0  0  0  0  0  0  0  0  0  0  0  0
   -1.5541   -3.2141    2.1480 C   0  0  0  0  0  0  0  0  0  0  0  0
   -1.0118   -1.8038    2.3427 C   0  0  0  0  0  0  0  0  0  0  0  0
    0.5193   -1.8715    2.3750 C   0  0  0  0  0  0  0  0  0  0  0  0
    1.0790   -2.2221    1.0019 C   0  0  0  0  0  0  0  0  0  0  0  0
    0.4927    0.9478    1.2098 C   0  0  0  0  0  0  0  0  0  0  0  0
   -7.0743   -4.3865    6.5776 C   0  0  0  0  0  0  0  0  0  0  0  0
   -6.1798   -4.3242    5.4927 O   0  0  0  0  0  0  0  0  0  0  0  0
   -9.3237   -5.1547    6.6066 N   0  0  0  0  0  0  0  0  0  0  0  0
   -5.2054   -7.7877    8.0246 O   0  0  0  0  0  0  0  0  0  0  0  0
   -7.8984   -7.0755    8.0864 O   0  0  0  0  0  0  0  0  0  0  0  0
  1 17  1  0
  2  1  1  0
  3 20  1  1
  3 18  1  0
  4 22  1  1
  4  3  1  0
  5  6  1  0
  5 21  1  1
  5  4  1  0
  6  7  1  0
  7  8  1  0
  8  9  1  0
  9 10  1  0
 10 11  1  0
 11 12  1  0
 12 13  1  0
 13 14  1  0
 14 15  1  0
 15 16  1  0
 16  2  1  0
 18 19  1  0
M  END
>  <DRUGBANK_ID>  (1) 
DB14119

>  <COMMON_NAME>  (1) 
Phytosphingosine

>  <CAS_NUMBER>  (1) 
554-62-1

>  <UNII>  (1) 
GIN46U9Q2Q

>  <SYNONYMS>  (1) 
(+)-D-ribo-phytosphingosine; 4-D-Hydroxysphinganine; 4-R-hydroxyoctadecasphinganine; C18-phytosphingosine; D-ribo-phytosphingosine; DS-phytosphingosine

$$$$
