SA1
     RDKit          3D

 20 22  0  0  0  0  0  0  0  0999 V2000
   -6.4704    4.1375   -6.9176 C   0  0  0  0  0  0  0  0  0  0  0  0
   -6.7453    3.5181   -5.6391 O   0  0  0  0  0  0  0  0  0  0  0  0
   -5.4697    3.1481   -5.0146 C   0  0  1  0  0  0  0  0  0  0  0  0
   -5.7667    1.6906   -5.3205 C   0  0  0  0  0  0  0  0  0  0  0  0
   -4.8490    4.5490   -5.3324 C   0  0  2  0  0  0  0  0  0  0  0  0
   -5.2308    5.2980   -4.0734 C   0  0  0  0  0  0  0  0  0  0  0  0
   -5.3731    6.5435   -3.9127 O   0  0  0  0  0  0  0  0  0  0  0  0
   -5.3310    4.4385   -3.0420 N   0  0  0  0  0  0  0  0  0  0  0  0
   -5.1768    3.0310   -3.4384 C   0  0  2  0  0  0  0  0  0  0  0  0
   -3.5985    2.5453   -3.2369 C   0  0  2  0  0  0  0  0  0  0  0  0
   -3.0678    2.1645   -1.7937 C   0  0  2  0  0  0  0  0  0  0  0  0
   -3.6250    0.8841   -1.1847 C   0  0  0  0  0  0  0  0  0  0  0  0
   -4.5067    0.8781   -0.1582 C   0  0  0  0  0  0  0  0  0  0  0  0
   -5.1195    2.1422    0.4310 C   0  0  0  0  0  0  0  0  0  0  0  0
   -4.6769    3.4122   -0.2839 C   0  0  0  0  0  0  0  0  0  0  0  0
   -3.2591    3.3500   -0.8382 C   0  0  0  0  0  0  0  0  0  0  0  0
   -2.6581    3.5018   -3.7806 O   0  0  0  0  0  0  0  0  0  0  0  0
   -6.0527    1.9050   -2.6566 C   0  0  0  0  0  0  0  0  0  0  0  0
   -7.1031    1.2929   -2.8543 O   0  0  0  0  0  0  0  0  0  0  0  0
   -5.5577    5.2274   -6.4900 C   0  0  0  0  0  0  0  0  0  0  0  0
  1  2  1  0
  1 20  1  0
  2  3  1  0
  3  4  1  6
  3  5  1  0
  3  9  1  0
  5  6  1  0
  5 20  1  6
  6  7  2  0
  6  8  1  0
  8  9  1  0
  9 18  1  1
  9 10  1  0
 10 17  1  1
 11 12  1  1
 11 16  1  0
 11 10  1  0
 12 13  2  0
 13 14  1  0
 14 15  1  0
 15 16  1  0
 18 19  2  0
M  END
>  <DRUGBANK_ID>  (1) 
DB08515

>  <COMMON_NAME>  (1) 
(3AR,6R,6AS)-6-((S)-((S)-CYCLOHEX-2-ENYL)(HYDROXY)METHYL)-6A-METHYL-4-OXO-HEXAHYDRO-2H-FURO[3,2-C]PYRROLE-6-CARBALDEHYDE

$$$$
