
     RDKit          3D

 24 26  0  0  1  0  0  0  0  0999 V2000
    0.9428   -0.0347   -0.0679 C   0  0  0  0  0  0  0  0  0  0  0  0
    0.4646   -1.4544   -0.2389 C   0  0  0  0  0  0  0  0  0  0  0  0
   -0.8615   -1.7080   -0.6419 C   0  0  0  0  0  0  0  0  0  0  0  0
   -1.7527   -0.7022   -0.9086 O   0  0  0  0  0  0  0  0  0  0  0  0
   -1.3405   -3.0099   -0.7944 C   0  0  0  0  0  0  0  0  0  0  0  0
   -2.7600   -3.2848   -1.2214 C   0  0  0  0  0  0  0  0  0  0  0  0
   -0.4732   -4.0860   -0.5357 C   0  0  0  0  0  0  0  0  0  0  0  0
   -0.9907   -5.4772   -0.7099 C   0  0  0  0  0  0  0  0  0  0  0  0
    0.1606   -6.4336   -0.7266 C   0  0  0  0  0  0  0  0  0  0  0  0
    1.0554   -6.1917    0.4939 C   0  0  2  0  0  0  0  0  0  0  0  0
    0.3656   -6.0770    1.8781 C   0  0  0  0  0  0  0  0  0  0  0  0
    1.6927   -4.9102    0.2609 O   0  0  0  0  0  0  0  0  0  0  0  0
    0.8408   -3.8652   -0.0751 C   0  0  0  0  0  0  0  0  0  0  0  0
    1.3222   -2.5507    0.0605 C   0  0  0  0  0  0  0  0  0  0  0  0
    2.7334   -2.3011    0.5283 C   0  0  0  0  0  0  0  0  0  0  0  0
    2.0677   -7.3893    0.5789 C   0  0  0  0  0  0  0  0  0  0  0  0
    3.2890   -7.2447    0.4423 O   0  0  0  0  0  0  0  0  0  0  0  0
    1.5939   -8.6625    0.8354 N   0  0  0  0  0  0  0  0  0  0  0  0
    0.2030   -9.1247    0.8688 C   0  0  2  0  0  0  0  0  0  0  0  0
   -0.1070   -9.9870    2.0892 C   0  0  0  0  0  0  0  0  0  0  0  0
    0.3128  -11.4329    1.8713 C   0  0  0  0  0  0  0  0  0  0  0  0
   -0.1933  -11.9703    0.5319 C   0  0  0  0  0  0  0  0  0  0  0  0
    0.2837  -11.1512   -0.5774 N   0  0  0  0  0  0  0  0  0  0  0  0
   -0.2342   -9.7991   -0.4441 C   0  0  0  0  0  0  0  0  0  0  0  0
  1  2  1  0
  2  3  2  0
  2 14  1  0
  3  4  1  0
  3  5  1  0
  5  6  1  0
  5  7  2  0
  7  8  1  0
  7 13  1  0
  8  9  1  0
 10  9  1  0
 10 11  1  1
 10 12  1  0
 10 16  1  0
 12 13  1  0
 13 14  2  0
 14 15  1  0
 16 17  2  0
 16 18  1  0
 19 18  1  6
 19 20  1  0
 19 24  1  0
 20 21  1  0
 21 22  1  0
 22 23  1  0
 23 24  1  0
M  END
>  <DRUGBANK_ID>  (1) 
DB16333

>  <COMMON_NAME>  (1) 
Sonlicromanol

>  <CAS_NUMBER>  (1) 
1541170-75-5

>  <UNII>  (1) 
JCU3O35RDS

>  <SYNONYMS>  (1) 
(S)-6-Hydroxy-2,5,7,8-Tetramethyl-N-((R)-Piperidin-3-Yl)Chroman-2-Carboxamide; KH-176; KH176; Sonlicromanol

$$$$
