TTR
     RDKit          3D

 17 19  0  0  0  0  0  0  0  0999 V2000
   -3.4299   -0.0960    0.3861 C   0  0  0  0  0  0  0  0  0  0  0  0
   -3.0145    1.1593   -0.3796 C   0  0  0  0  0  0  0  0  0  0  0  0
   -1.6034    1.5637    0.0427 C   0  0  0  0  0  0  0  0  0  0  0  0
   -0.6922    0.3756    0.0093 C   0  0  0  0  0  0  0  0  0  0  0  0
   -1.1155   -0.9459   -0.0297 C   0  0  0  0  0  0  0  0  0  0  0  0
    0.7092    0.3945    0.0137 C   0  0  0  0  0  0  0  0  0  0  0  0
    0.0148   -1.7832   -0.0686 N   0  0  0  0  0  0  0  0  0  0  0  0
   -0.0072   -3.2072   -0.0980 C   0  0  0  0  0  0  0  0  0  0  0  0
   -1.0677   -3.8219   -0.0671 O   0  0  0  0  0  0  0  0  0  0  0  0
    1.2930   -3.9400   -0.1292 C   0  0  0  0  0  0  0  0  0  0  0  0
    1.1526   -0.9335   -0.0359 C   0  0  0  0  0  0  0  0  0  0  0  0
    1.6294    1.4621    0.0551 C   0  0  0  0  0  0  0  0  0  0  0  0
    2.5440   -1.1762   -0.0384 C   0  0  0  0  0  0  0  0  0  0  0  0
    2.9938    1.2041    0.0482 C   0  0  0  0  0  0  0  0  0  0  0  0
    3.4427   -0.1033    0.0028 C   0  0  0  0  0  0  0  0  0  0  0  0
   -2.5428   -1.2668   -0.0384 C   0  0  0  0  0  0  0  0  0  0  0  0
   -3.0652   -2.3250   -0.3699 O   0  0  0  0  0  0  0  0  0  0  0  0
  1  2  1  0
  1 16  1  0
  2  3  1  0
  3  4  1  0
  4  5  2  0
  4  6  1  0
  5  7  1  0
  5 16  1  0
  6 11  2  0
  6 12  1  0
  7  8  1  0
  7 11  1  0
  8  9  2  0
  8 10  1  0
 11 13  1  0
 12 14  2  0
 13 15  2  0
 14 15  1  0
 16 17  2  0
M  END
>  <DRUGBANK_ID>  (1) 
DB08655

>  <COMMON_NAME>  (1) 
9-ACETYL-2,3,4,9-TETRAHYDRO-1H-CARBAZOL-1-ONE

$$$$
