
     RDKit          3D

 13  9  0  0  0  0  0  0  0  0999 V2000
    1.0642   -0.0670    0.0372 C   0  0  0  0  0  0  0  0  0  0  0  0
    1.0107   -0.0764   -0.0636 C   0  0  0  0  0  0  0  0  0  0  0  0
    0.9236   -0.0383   -0.0519 C   0  0  0  0  0  0  0  0  0  0  0  0
    0.3542   -0.0821    1.2669 O   0  0  0  0  0  0  0  0  0  0  0  0
    0.2136   -0.0839    1.1770 O   0  0  0  0  0  0  0  0  0  0  0  0
    0.3007    1.1520   -0.0050 O   0  0  0  0  0  0  0  0  0  0  0  0
    0.4288   -0.0535   -1.0634 O   0  0  0  0  0  0  0  0  0  0  0  0
    0.3752   -1.1758   -0.1161 O   0  0  0  0  0  0  0  0  0  0  0  0
    0.2881    0.0024   -1.1518 O   0  0  0  0  0  0  0  0  0  0  0  0
    0.9393   -0.0468    0.0642 Al  0  0  0  0  0 15  0  0  0  0  0  0
    2.5842   -0.0670    0.0372 C   0  0  0  0  0  0  0  0  0  0  0  0
    2.4436   -0.0383   -0.0519 C   0  0  0  0  0  0  0  0  0  0  0  0
    2.5307   -0.0764   -0.0636 C   0  0  0  0  0  0  0  0  0  0  0  0
  4  1  1  0
  5  3  1  0
  6  2  1  0
  7  1  2  0
  8  2  2  0
  9  3  2  0
 11  1  1  0
 12  3  1  0
 13  2  1  0
M  CHG  4   4  -1   5  -1   6  -1  10   3
M  END
>  <DRUGBANK_ID>  (1) 
DB14518

>  <SECONDARY_ACCESSION_NUMBERS>  (1) 
DBSALT001466

>  <COMMON_NAME>  (1) 
Aluminum acetate

>  <CAS_NUMBER>  (1) 
139-12-8

>  <UNII>  (1) 
80EHD8I43D

>  <SYNONYMS>  (1) 
Aluminum acetate

$$$$
