
     RDKit          3D

 25 27  0  0  0  0  0  0  0  0999 V2000
    2.3407   -0.0846   -0.0602 O   0  0  0  0  0  0  0  0  0  0  0  0
    0.9846   -0.1194    0.0035 C   0  0  0  0  0  0  0  0  0  0  0  0
    0.2401   -1.2890   -0.0238 C   0  0  0  0  0  0  0  0  0  0  0  0
   -1.1710   -1.2258   -0.0229 C   0  0  0  0  0  0  0  0  0  0  0  0
   -1.8584   -0.0068    0.1310 C   0  0  0  0  0  0  0  0  0  0  0  0
   -1.0288    1.0873    0.3785 C   0  0  0  0  0  0  0  0  0  0  0  0
    0.3470    1.0824    0.1670 C   0  0  0  0  0  0  0  0  0  0  0  0
   -3.3065    0.1403   -0.0075 N   0  0  0  0  0  0  0  0  0  0  0  0
   -4.0490    1.3726   -0.1281 C   0  0  0  0  0  0  0  0  0  0  0  0
   -5.2762    1.4223   -0.0948 O   0  0  0  0  0  0  0  0  0  0  0  0
   -3.3896    2.7208   -0.2395 C   0  0  0  0  0  0  0  0  0  0  0  0
   -2.3773    2.9922   -1.1787 C   0  0  0  0  0  0  0  0  0  0  0  0
   -1.5721    4.1394   -1.0457 C   0  0  0  0  0  0  0  0  0  0  0  0
   -1.8853    5.0951   -0.0834 C   0  0  0  0  0  0  0  0  0  0  0  0
   -1.1313    6.2246    0.0645 O   0  0  0  0  0  0  0  0  0  0  0  0
   -2.9725    4.8896    0.7652 C   0  0  0  0  0  0  0  0  0  0  0  0
   -3.2860    5.8136    1.6858 F   0  0  0  0  0  0  0  0  0  0  0  0
   -3.7132    3.7053    0.7104 C   0  0  0  0  0  0  0  0  0  0  0  0
   -4.0824   -1.0879   -0.0288 C   0  0  0  0  0  0  0  0  0  0  0  0
   -3.9775   -2.0298    1.0136 C   0  0  0  0  0  0  0  0  0  0  0  0
   -4.7025   -3.2290    0.9835 C   0  0  0  0  0  0  0  0  0  0  0  0
   -5.5546   -3.4902   -0.0804 C   0  0  0  0  0  0  0  0  0  0  0  0
   -6.2470   -4.6375   -0.1080 F   0  0  0  0  0  0  0  0  0  0  0  0
   -5.6953   -2.5734   -1.1144 C   0  0  0  0  0  0  0  0  0  0  0  0
   -4.9687   -1.3715   -1.0852 C   0  0  0  0  0  0  0  0  0  0  0  0
  1  2  1  0
  2  3  2  0
  2  7  1  0
  3  4  1  0
  4  5  2  0
  5  6  1  0
  5  8  1  0
  6  7  2  0
  8  9  1  0
  8 19  1  0
  9 10  2  0
  9 11  1  0
 11 12  2  0
 11 18  1  0
 12 13  1  0
 13 14  2  0
 14 15  1  0
 14 16  1  0
 16 17  1  0
 16 18  2  0
 19 20  2  0
 19 25  1  0
 20 21  1  0
 21 22  2  0
 22 23  1  0
 22 24  1  0
 24 25  2  0
M  END
>  <DRUGBANK_ID>  (1) 
DB14969

>  <COMMON_NAME>  (1) 
GTX-758

>  <CAS_NUMBER>  (1) 
938067-78-8

>  <UNII>  (1) 
406GR1485Z

$$$$
