
     RDKit          3D

 13 12  0  0  1  0  0  0  0  0999 V2000
    0.9103   -0.0364   -0.0251 N   0  0  0  0  0  0  0  0  0  0  0  0
    0.4203   -1.2139    0.7059 C   0  0  1  0  0  0  0  0  0  0  0  0
    0.9270   -1.1681    2.1382 C   0  0  0  0  0  0  0  0  0  0  0  0
    0.4203    0.0952    2.8147 C   0  0  0  0  0  0  0  0  0  0  0  0
   -1.0997    0.0952    2.8147 C   0  0  0  0  0  0  0  0  0  0  0  0
   -1.6063   -1.1223    3.5705 C   0  0  0  0  0  0  0  0  0  0  0  0
   -1.0730   -1.0741    5.0783 B   0  0  0  0  0  0  0  0  0  0  0  0
   -1.5730    0.1727    5.7459 O   0  0  0  0  0  0  0  0  0  0  0  0
   -1.5730   -2.2756    5.8242 O   0  0  0  0  0  0  0  0  0  0  0  0
    0.4270   -1.0741    5.0783 O   0  0  0  0  0  0  0  0  0  0  0  0
   -1.0997   -1.2139    0.7059 C   0  0  0  0  0  0  0  0  0  0  0  0
   -1.8097   -2.2980    0.1253 O   0  0  0  0  0  0  0  0  0  0  0  0
   -1.7351   -0.2436    1.2254 O   0  0  0  0  0  0  0  0  0  0  0  0
  2  1  1  6
  2  3  1  0
  2 11  1  0
  3  4  1  0
  4  5  1  0
  5  6  1  0
  6  7  1  0
  7  8  1  0
  7  9  1  0
  7 10  1  0
 11 12  1  0
 11 13  2  0
M  CHG  1   7  -1
M  END
>  <DRUGBANK_ID>  (1) 
DB01983

>  <SECONDARY_ACCESSION_NUMBERS>  (1) 
EXPT00396

>  <COMMON_NAME>  (1) 
2(S)-Amino-6-Boronohexanoic Acid

>  <UNII>  (1) 
4X6P7ZQE7D

$$$$
