
     RDKit          3D

 36 40  0  0  0  0  0  0  0  0999 V2000
    0.8865   -0.0727   -0.0248 C   0  0  0  0  0  0  0  0  0  0  0  0
    0.4599   -1.5249    0.0855 C   0  0  0  0  0  0  0  0  0  0  0  0
    1.0350   -2.3700    1.5639 S   0  0  0  0  0  0  0  0  0  0  0  0
    0.6354   -1.5260    2.7066 O   0  0  0  0  0  0  0  0  0  0  0  0
    0.5968   -3.7275    1.4939 O   0  0  0  0  0  0  0  0  0  0  0  0
    2.8567   -2.3483    1.4959 C   0  0  0  0  0  0  0  0  0  0  0  0
    3.4324   -1.0870    1.6506 C   0  0  0  0  0  0  0  0  0  0  0  0
    4.8005   -0.9850    1.6144 C   0  0  0  0  0  0  0  0  0  0  0  0
    5.5996   -2.1272    1.3902 C   0  0  0  0  0  0  0  0  0  0  0  0
    5.1698   -3.5060    1.3639 C   0  0  0  0  0  0  0  0  0  0  0  0
    3.6934   -3.5529    1.3788 C   0  0  0  0  0  0  0  0  0  0  0  0
    6.4218   -4.7984    1.5424 C   0  0  0  0  0  0  0  0  0  0  0  0
    7.2133   -5.4216    2.7425 C   0  0  0  0  0  0  0  0  0  0  0  0
    7.7467   -6.4942    3.3667 C   0  0  0  0  0  0  0  0  0  0  0  0
    7.2833   -7.5397    2.5499 C   0  0  0  0  0  0  0  0  0  0  0  0
    6.5219   -7.2357    1.1746 C   0  0  0  0  0  0  0  0  0  0  0  0
    6.3261   -5.9104    0.7205 C   0  0  0  0  0  0  0  0  0  0  0  0
    5.8464   -5.7997   -0.4777 C   0  0  0  0  0  0  0  0  0  0  0  0
    5.9708   -4.6638   -1.2696 C   0  0  0  0  0  0  0  0  0  0  0  0
    5.4503   -4.6692   -2.4768 C   0  0  0  0  0  0  0  0  0  0  0  0
    4.5122   -5.6914   -2.6890 C   0  0  0  0  0  0  0  0  0  0  0  0
    4.2407   -6.8509   -1.8500 N   0  0  0  0  0  0  0  0  0  0  0  0
    5.0772   -6.8960   -0.7675 C   0  0  0  0  0  0  0  0  0  0  0  0
    5.5194   -7.8311    0.2743 N   0  0  0  0  0  0  0  0  0  0  0  0
    6.1120   -3.6733   -3.3795 C   0  0  0  0  0  0  0  0  0  0  0  0
    7.5684   -8.8537    3.1887 C   0  0  0  0  0  0  0  0  0  0  0  0
    7.9065   -6.2343    5.1198 C   0  0  0  0  0  0  0  0  0  0  0  0
    8.0526   -7.1953    5.9125 O   0  0  0  0  0  0  0  0  0  0  0  0
    7.7845   -4.9215    5.8550 N   0  0  0  0  0  0  0  0  0  0  0  0
    6.8079   -3.6560    5.8558 C   0  0  0  0  0  0  0  0  0  0  0  0
    5.3718   -4.1141    6.1209 C   0  0  0  0  0  0  0  0  0  0  0  0
    4.9865   -5.1410    5.1635 C   0  0  0  0  0  0  0  0  0  0  0  0
    5.0455   -4.5388    3.8391 N   0  0  0  0  0  0  0  0  0  0  0  0
    6.4868   -3.4416    3.6212 C   0  0  0  0  0  0  0  0  0  0  0  0
    6.8952   -2.6315    4.7361 C   0  0  0  0  0  0  0  0  0  0  0  0
    4.6433   -5.9536    3.2056 C   0  0  0  0  0  0  0  0  0  0  0  0
  1  2  1  0
  2  3  1  0
  3  4  2  0
  3  5  2  0
  3  6  1  0
  6  7  2  0
  6 11  1  0
  7  8  1  0
  8  9  2  0
  9 10  1  0
 10 11  2  0
 10 12  1  0
 12 13  2  0
 12 17  1  0
 13 14  1  0
 14 15  2  0
 14 27  1  0
 15 16  1  0
 15 26  1  0
 16 17  2  0
 16 24  1  0
 17 18  1  0
 18 19  2  0
 18 23  1  0
 19 20  1  0
 20 21  2  0
 20 25  1  0
 21 22  1  0
 22 23  2  0
 23 24  1  0
 27 28  2  0
 27 29  1  0
 29 30  1  0
 30 31  1  0
 30 35  1  0
 31 32  1  0
 32 33  1  0
 33 34  1  0
 33 36  1  0
 34 35  1  0
M  END
>  <DRUGBANK_ID>  (1) 
DB12756

>  <COMMON_NAME>  (1) 
TAK-901

>  <CAS_NUMBER>  (1) 
934541-31-8

>  <UNII>  (1) 
DM9UIR23R7

$$$$
