
     RDKit          3D

 16 17  0  0  1  0  0  0  0  0999 V2000
   -0.1268    3.6500    1.6756 C   0  0  0  0  0  0  0  0  0  0  0  0
    2.9984    5.7949    0.0359 C   0  0  0  0  0  0  0  0  0  0  0  0
    2.0972    2.3170   -1.2867 C   0  0  0  0  0  0  0  0  0  0  0  0
   -0.6325    3.7585    2.9061 C   0  0  0  0  0  0  0  0  0  0  0  0
    1.2751    2.6438   -0.0404 C   0  0  1  0  0  0  0  0  0  0  0  0
    2.0297    4.7220   -0.4305 C   0  0  2  0  0  0  0  0  0  0  0  0
   -0.6516    2.5477    3.7347 C   0  0  0  0  0  0  0  0  0  0  0  0
    0.4956    1.4366    2.0856 C   0  0  0  0  0  0  0  0  0  0  0  0
   -1.1488    4.9021    3.3758 F   0  0  0  0  0  0  0  0  0  0  0  0
   -1.2479    2.5274    4.8828 N   0  0  0  0  0  0  0  0  0  0  0  0
   -0.0116    1.4123    3.2819 N   0  0  0  0  0  0  0  0  0  0  0  0
    0.4189    2.4792    1.1563 N   0  0  0  0  0  0  0  0  0  0  0  0
    3.0575    5.8979    1.4682 O   0  0  0  0  0  0  0  0  0  0  0  0
    1.1233    0.3146    1.6847 O   0  0  0  0  0  0  0  0  0  0  0  0
    2.1856    3.6082    0.4571 O   0  0  0  0  0  0  0  0  0  0  0  0
    2.2305    3.9799   -2.0635 S   0  0  0  0  0  0  0  0  0  0  0  0
  4  1  2  0
  5  3  1  0
  5 15  1  0
  5 12  1  6
  6 15  1  0
  6 16  1  0
  6  2  1  1
  7  4  1  0
  9  4  1  0
 10  7  2  0
 11  7  1  0
 11  8  2  0
 12  1  1  0
 12  8  1  0
 13  2  1  0
 14  8  1  0
 16  3  1  0
M  END
>  <DRUGBANK_ID>  (1) 
DB00879

>  <SECONDARY_ACCESSION_NUMBERS>  (1) 
APRD00226

>  <COMMON_NAME>  (1) 
Emtricitabine

>  <CAS_NUMBER>  (1) 
143491-57-0

>  <UNII>  (1) 
G70B4ETF4S

>  <SYNONYMS>  (1) 
(−)-(2R,5S)-5-fluoro-1-[2-(hydroxymethyl)-1,3-oxathiolan-5-yl]cytosine; (−)-2'-deoxy-5-fluoro-3'-thiacytidine; (−)-cis-4-amino-5-fluoro-1-(2-hydroxymethyl-1,3-oxathiolan-5-yl)-(1H)-pyrimidin-2-one; (−)-FTC; (−)-β-2',3'-dideoxy-5-fluoro-3'-thiacytidine; (2R-cis)-4-amino-5-fluoro-1-(2-(hydroxymethyl)-1,3-oxathiolan-5-yl)-2(1H)-pyrimidinone; 4-amino-5-fluoro-1-((2R,5S)-2-(hydroxymethyl)-1,3-oxathiolan-5-yl)pyrimidin-2(1H)-one; 4-Amino-5-fluoro-1-((2R,5S)-2-hydroxymethyl-[1,3]oxathiolan-5-yl)-1H-pyrimidin-2-one; 5-fluoro-1-((2R,5S)-2-(hydroxymethyl)-1,3-oxathiolan-5-yl)cytosine; Emtricitabin; Emtricitabina; Emtricitabine; Emtricitabinum

$$$$
