
     RDKit          3D

 13 13  0  0  0  0  0  0  0  0999 V2000
    1.2736   -0.2231    0.1184 C   0  0  0  0  0  0  0  0  0  0  0  0
    1.8544    3.9128    3.0467 C   0  0  0  0  0  0  0  0  0  0  0  0
   -0.2097    3.9738    0.1149 C   0  0  0  0  0  0  0  0  0  0  0  0
    1.0537    1.2073    2.1338 C   0  0  0  0  0  0  0  0  0  0  0  0
    0.7226   -0.1432    1.5561 C   0  0  0  0  0  0  0  0  0  0  0  0
    0.9819    3.6498    1.8592 C   0  0  0  0  0  0  0  0  0  0  0  0
   -0.2918    2.6204    0.3430 C   0  0  0  0  0  0  0  0  0  0  0  0
    0.5554    4.5941    1.0494 N   0  0  0  0  0  0  0  0  0  0  0  0
    0.5315    2.3876    1.4437 N   0  0  0  0  0  0  0  0  0  0  0  0
   -1.0838    1.7836   -0.5334 N   0  0  0  0  0  0  0  0  0  0  0  0
   -0.6487   -0.4010    1.8413 O   0  0  0  0  0  0  0  0  0  0  0  0
   -1.3114    0.6083   -0.2164 O   0  0  0  0  0  0  0  0  0  0  0  0
   -1.5337    2.3044   -1.5484 O   0  0  0  0  0  0  0  0  0  0  0  0
  5  1  1  0
  5  4  1  0
  6  2  1  0
  7  3  2  0
  8  3  1  0
  8  6  2  0
  9  4  1  0
  9  6  1  0
  9  7  1  0
 10  7  1  0
 11  5  1  0
 12 10  1  0
 13 10  2  0
M  CHG  2  10   1  12  -1
M  END
>  <DRUGBANK_ID>  (1) 
DB12834

>  <COMMON_NAME>  (1) 
Secnidazole

>  <CAS_NUMBER>  (1) 
3366-95-8

>  <UNII>  (1) 
R3459K699K

>  <SYNONYMS>  (1) 
1-(2­ hydroxypropyl)-2-methyl-5-nitroimidazole; 1-(2-methyl-5-nitro-1H-imidazol-1-yl) propan-2­ ol; Secnidazole

$$$$
