
     RDKit          3D

 12 12  0  0  0  0  0  0  0  0999 V2000
    1.3523   -0.2566    0.0116 C   0  0  0  0  0  0  0  0  0  0  0  0
    0.4142   -1.3062   -0.0128 C   0  0  0  0  0  0  0  0  0  0  0  0
   -0.9568   -1.0645   -0.0290 C   0  0  0  0  0  0  0  0  0  0  0  0
   -1.4280    0.2403   -0.0115 C   0  0  0  0  0  0  0  0  0  0  0  0
   -0.5266    1.3014    0.0249 C   0  0  0  0  0  0  0  0  0  0  0  0
    0.8511    1.0584    0.0027 C   0  0  0  0  0  0  0  0  0  0  0  0
    3.3236    0.0942    1.3145 O   0  0  0  0  0  0  0  0  0  0  0  0
    2.8596   -0.5279    0.1030 C   0  0  2  0  0  0  0  0  0  0  0  0
    3.6256    0.1034   -1.1063 C   0  0  0  0  0  0  0  0  0  0  0  0
    4.3210   -0.7461   -1.8981 O   0  0  0  0  0  0  0  0  0  0  0  0
    3.6893    1.3140   -1.3183 O   0  0  0  0  0  0  0  0  0  0  0  0
    3.1584   -2.0230    0.2912 C   0  0  0  0  0  0  0  0  0  0  0  0
  1  2  2  0
  1  6  1  0
  1  8  1  0
  2  3  1  0
  3  4  2  0
  4  5  1  0
  5  6  2  0
  8  9  1  0
  8  7  1  0
  9 10  1  0
  9 11  2  0
  8 12  1  1
M  END
>  <DRUGBANK_ID>  (1) 
DB07381

>  <SECONDARY_ACCESSION_NUMBERS>  (1) 
DB03954

>  <COMMON_NAME>  (1) 
(S)-atrolactic acid

>  <CAS_NUMBER>  (1) 
13113-71-8

>  <UNII>  (1) 
22Y6G519RU

>  <SYNONYMS>  (1) 
(S)-(+)-Atrolactic acid; (S)-2-Hydroxy-2-phenylpropanoic acid; (S)-2-Phenyllactic acid; (S)-atrolactic acid

$$$$
