
     RDKit          3D

 24 26  0  0  0  0  0  0  0  0999 V2000
    1.3163    0.7305   -0.0009 C   0  0  0  0  0  0  0  0  0  0  0  0
    0.0777    1.3360   -0.0214 C   0  0  0  0  0  0  0  0  0  0  0  0
   -1.1950    0.2030   -0.0773 S   0  0  0  0  0  0  0  0  0  0  0  0
   -0.0944   -1.0906   -0.1443 C   0  0  0  0  0  0  0  0  0  0  0  0
    1.2296   -0.7101   -0.0213 C   0  0  0  0  0  0  0  0  0  0  0  0
    2.4235   -1.6494    0.0940 C   0  0  0  0  0  0  0  0  0  0  0  0
    2.5349   -2.4293    1.4059 C   0  0  0  0  0  0  0  0  0  0  0  0
    1.3961   -3.4645    1.4730 C   0  0  0  0  0  0  0  0  0  0  0  0
    1.3709   -4.2542    2.7396 C   0  0  0  0  0  0  0  0  0  0  0  0
    1.3312   -3.2840    3.9020 C   0  0  0  0  0  0  0  0  0  0  0  0
    2.5385   -2.3458    3.8944 C   0  0  0  0  0  0  0  0  0  0  0  0
    2.6048   -1.5197    2.6187 C   0  0  0  0  0  0  0  0  0  0  0  0
    2.5290   -2.7953   -0.8870 C   0  0  0  0  0  0  0  0  0  0  0  0
    3.5869   -3.4212   -0.9731 O   0  0  0  0  0  0  0  0  0  0  0  0
    1.3724   -3.1742   -1.4892 O   0  0  0  0  0  0  0  0  0  0  0  0
    1.5159   -4.1302   -2.5516 C   0  0  0  0  0  0  0  0  0  0  0  0
    1.6832   -3.3411   -3.8626 C   0  0  0  0  0  0  0  0  0  0  0  0
    2.8382   -2.4051   -3.9369 N   0  0  0  0  0  0  0  0  0  0  0  0
    2.5076   -1.1132   -3.3360 C   0  0  0  0  0  0  0  0  0  0  0  0
    3.3234    0.0912   -3.7497 C   0  0  0  0  0  0  0  0  0  0  0  0
    4.7388    0.1199   -3.1872 C   0  0  0  0  0  0  0  0  0  0  0  0
    5.6328   -1.0477   -3.5902 C   0  0  0  0  0  0  0  0  0  0  0  0
    5.2619   -2.3352   -2.8992 C   0  0  0  0  0  0  0  0  0  0  0  0
    4.1132   -3.0768   -3.6049 C   0  0  0  0  0  0  0  0  0  0  0  0
  1  2  2  0
  1  5  1  0
  2  3  1  0
  3  4  1  0
  4  5  2  0
  5  6  1  0
  6  7  1  0
  6 13  1  0
  7  8  1  0
  7 12  1  0
  8  9  1  0
  9 10  1  0
 10 11  1  0
 11 12  1  0
 13 14  2  0
 13 15  1  0
 15 16  1  0
 16 17  1  0
 17 18  1  0
 18 19  1  0
 18 24  1  0
 19 20  1  0
 20 21  1  0
 21 22  1  0
 22 23  1  0
 23 24  1  0
M  END
>  <DRUGBANK_ID>  (1) 
DB13753

>  <COMMON_NAME>  (1) 
Cetiedil

>  <CAS_NUMBER>  (1) 
14176-10-4

>  <UNII>  (1) 
621RT200TO

>  <SYNONYMS>  (1) 
Cetiedil

$$$$
