1442
     RDKit          3D

 15 16  0  0  1  0  0  0  0  0999 V2000
   -1.4773   -1.1955   -0.0675 O   0  0  0  0  0  0  0  0  0  0  0  0
   -1.5254    1.1994    0.0184 O   0  0  0  0  0  0  0  0  0  0  0  0
    1.0530    2.8176    0.0424 O   0  0  0  0  0  0  0  0  0  0  0  0
    2.5581   -3.4244    1.3151 N   0  0  0  0  0  0  0  0  0  0  0  0
    3.4466   -1.4678   -0.0325 C   0  0  0  0  0  0  0  0  0  0  0  0
    3.6014   -2.3937    1.2066 C   0  0  0  0  0  0  0  0  0  0  0  0
    2.1521   -0.6779   -0.0685 C   0  0  0  0  0  0  0  0  0  0  0  0
    0.9331   -1.3589   -0.1824 C   0  0  0  0  0  0  0  0  0  0  0  0
   -0.2370   -0.6424   -0.0933 C   0  0  0  0  0  0  0  0  0  0  0  0
    2.1414    0.7337    0.0040 C   0  0  0  0  0  0  0  0  0  0  0  0
   -0.2459    0.7268   -0.0159 C   0  0  0  0  0  0  0  0  0  0  0  0
    0.9314    1.4554    0.0064 C   0  0  0  0  0  0  0  0  0  0  0  0
    4.9441   -3.1204    1.1635 C   0  0  0  0  0  0  0  0  0  0  0  0
   -2.2854   -0.0176    0.0746 C   0  0  0  0  0  0  0  0  0  0  0  0
   -0.1699    3.5499    0.0150 C   0  0  0  0  0  0  0  0  0  0  0  0
  1  9  1  0
  1 14  1  0
  2 11  1  0
  2 14  1  0
  3 12  1  0
  3 15  1  0
  4  6  1  0
  5  6  1  0
  5  7  1  0
  6 13  1  0
  7  8  1  0
  7 10  2  0
  8  9  2  0
  9 11  1  0
 10 12  1  0
 11 12  2  0
M  END
>  <DRUGBANK_ID>  (1) 
DB01442

>  <COMMON_NAME>  (1) 
MMDA

>  <CAS_NUMBER>  (1) 
13674-05-0

>  <UNII>  (1) 
RG7FY73ZAA

>  <SYNONYMS>  (1) 
(+-)-MMDA; 3-Methoxy-4,5-methylenedioxyphenylisopropylamine; 3-Methoxy-alpha-methyl-4,5-methylenedioxyphenethylamine; 3-methoxy-methylenedioxyamphetamine; 5-Methoxy-3,4-methylenedioxyamphetamine

$$$$
