1208
     RDKit          3D

 28 31  0  0  1  0  0  0  0  0999 V2000
    0.9735    0.0810   -0.0157 F   0  0  0  0  0  0  0  0  0  0  0  0
    4.9995   -2.3574    0.0840 F   0  0  0  0  0  0  0  0  0  0  0  0
    6.4231    2.4839    0.0167 O   0  0  0  0  0  0  0  0  0  0  0  0
    4.5102    6.2421    0.0247 O   0  0  0  0  0  0  0  0  0  0  0  0
    6.4457    5.1613    0.0244 O   0  0  0  0  0  0  0  0  0  0  0  0
    2.3553    2.5795   -0.0167 N   0  0  0  0  0  0  0  0  0  0  0  0
    2.1430   -2.3246    0.0301 N   0  0  0  0  0  0  0  0  0  0  0  0
    1.1257   -4.8711   -0.8875 N   0  0  0  0  0  0  0  0  0  0  0  0
    6.4899   -0.0610    0.0503 N   0  0  0  0  0  0  0  0  0  0  0  0
    0.8683    2.6885    0.0518 C   0  0  0  0  0  0  0  0  0  0  0  0
    0.0509    3.2387   -1.0911 C   0  0  0  0  0  0  0  0  0  0  0  0
    0.0917    3.9653    0.2241 C   0  0  0  0  0  0  0  0  0  0  0  0
    3.0101    1.3065    0.0109 C   0  0  0  0  0  0  0  0  0  0  0  0
    2.2114   -4.8180    0.1375 C   0  0  2  0  0  0  0  0  0  0  0  0
    1.1282   -3.6674   -1.7597 C   0  0  1  0  0  0  0  0  0  0  0  0
    2.2295   -3.4784    0.9344 C   0  0  0  0  0  0  0  0  0  0  0  0
    1.0323   -2.3647   -0.9386 C   0  0  0  0  0  0  0  0  0  0  0  0
    2.9320   -1.1849    0.0867 C   0  0  0  0  0  0  0  0  0  0  0  0
    3.1317    3.7267   -0.0102 C   0  0  0  0  0  0  0  0  0  0  0  0
    4.4157    1.2435    0.0299 C   0  0  0  0  0  0  0  0  0  0  0  0
    2.3171    0.0814    0.0270 C   0  0  0  0  0  0  0  0  0  0  0  0
    5.0961    0.0014    0.0646 C   0  0  0  0  0  0  0  0  0  0  0  0
    4.4684    3.8167    0.0080 C   0  0  0  0  0  0  0  0  0  0  0  0
    4.3349   -1.1875    0.1073 C   0  0  0  0  0  0  0  0  0  0  0  0
    5.1967    2.5188    0.0161 C   0  0  0  0  0  0  0  0  0  0  0  0
    3.6009   -5.1681   -0.4154 C   0  0  0  0  0  0  0  0  0  0  0  0
    2.3745   -3.5876   -2.6434 C   0  0  0  0  0  0  0  0  0  0  0  0
    5.2348    5.0975    0.0190 C   0  0  0  0  0  0  0  0  0  0  0  0
  1 21  1  0
  2 24  1  0
  3 25  2  0
  4 28  1  0
  5 28  2  0
  6 10  1  0
  6 13  1  0
  6 19  1  0
  7 16  1  0
  7 17  1  0
  7 18  1  0
  8 14  1  0
  8 15  1  0
  9 22  1  0
 10 11  1  0
 10 12  1  0
 11 12  1  0
 13 20  2  0
 13 21  1  0
 14 16  1  0
 14 26  1  6
 15 17  1  0
 15 27  1  1
 18 21  2  0
 18 24  1  0
 19 23  2  0
 20 22  1  0
 20 25  1  0
 22 24  2  0
 23 25  1  0
 23 28  1  0
M  END
>  <DRUGBANK_ID>  (1) 
DB01208

>  <SECONDARY_ACCESSION_NUMBERS>  (1) 
APRD01231

>  <COMMON_NAME>  (1) 
Sparfloxacin

>  <CAS_NUMBER>  (1) 
110871-86-8

>  <UNII>  (1) 
Q90AGA787L

>  <SYNONYMS>  (1) 
cis-5-Amino-1-cyclopropyl-7-(3,5-dimethyl-1-piperazinyl)-6,8-difluoro-1,4-dihydro-4-oxo-3-quinolinecarboxylic acid; Sparfloxacin

$$$$
