982
     RDKit          3D

 17 18  0  0  0  0  0  0  0  0999 V2000
    1.6176    1.2265   -0.2260 C   0  0  0  0  0  0  0  0  0  0  0  0
    2.5798    0.2547   -0.0505 C   0  0  0  0  0  0  0  0  0  0  0  0
    2.1454   -1.0427    0.0463 C   0  0  0  0  0  0  0  0  0  0  0  0
    0.8515   -1.4397    0.0355 N   0  0  0  0  0  0  0  0  0  0  0  0
   -0.0499   -0.4276   -0.0079 C   0  0  0  0  0  0  0  0  0  0  0  0
    0.2439    0.9276   -0.1057 C   0  0  0  0  0  0  0  0  0  0  0  0
   -1.7267   -0.7204    0.0304 S   0  0  0  0  0  0  0  0  0  0  0  0
   -2.1100    0.9601    0.0237 C   0  0  0  0  0  0  0  0  0  0  0  0
   -0.9548    1.7325   -0.0314 C   0  0  0  0  0  0  0  0  0  0  0  0
   -3.5056    1.3552    0.0848 C   0  0  0  0  0  0  0  0  0  0  0  0
   -4.5017    0.6357    0.1278 O   0  0  0  0  0  0  0  0  0  0  0  0
   -1.0710    3.0912    0.0164 O   0  0  0  0  0  0  0  0  0  0  0  0
    0.1157    3.8588    0.0670 C   0  0  0  0  0  0  0  0  0  0  0  0
    0.9942    3.7376    1.3197 C   0  0  0  0  0  0  0  0  0  0  0  0
    2.2120    3.6260    1.3468 O   0  0  0  0  0  0  0  0  0  0  0  0
   -3.6703    2.6980    0.0880 O   0  0  0  0  0  0  0  0  0  0  0  0
    0.3088    3.7632    2.4756 O   0  0  0  0  0  0  0  0  0  0  0  0
  1  2  2  0
  1  6  1  0
  2  3  1  0
  3  4  2  0
  4  5  1  0
  5  6  2  0
  5  7  1  0
  6  9  1  0
  7  8  1  0
  8  9  2  0
  8 10  1  0
  9 12  1  0
 10 11  2  0
 10 16  1  0
 12 13  1  0
 13 14  1  0
 14 15  2  0
 14 17  1  0
M  END
>  <DRUGBANK_ID>  (1) 
DB07298

>  <COMMON_NAME>  (1) 
3-(CARBOXYMETHOXY)THIENO[2,3-B]PYRIDINE-2-CARBOXYLIC ACID

$$$$
