
     RDKit          3D

 40 42  0  0  0  0  0  0  0  0999 V2000
    0.8480   -0.1306   -0.0366 O   0  0  0  0  0  0  0  0  0  0  0  0
    0.1121    0.5343   -0.9678 C   0  0  0  0  0  0  0  0  0  0  0  0
   -0.7913    1.3027   -0.6394 O   0  0  0  0  0  0  0  0  0  0  0  0
    0.4097    0.2647   -2.3003 N   0  0  0  0  0  0  0  0  0  0  0  0
    0.3056   -1.1274   -2.7120 C   0  0  0  0  0  0  0  0  0  0  0  0
    0.9141   -1.3409   -4.0993 C   0  0  0  0  0  0  0  0  0  0  0  0
    0.3574   -0.4778   -5.1555 N   0  0  0  0  0  0  0  0  0  0  0  0
    0.3777    0.9398   -4.7164 C   0  0  0  0  0  0  0  0  0  0  0  0
   -0.1662    1.1768   -3.2915 C   0  0  0  0  0  0  0  0  0  0  0  0
   -1.0029   -0.9162   -5.4498 C   0  0  0  0  0  0  0  0  0  0  0  0
    2.3092   -0.0440    0.0551 C   0  0  1  0  0  0  0  0  0  0  0  0
    2.9367   -0.8766   -1.0254 C   0  0  0  0  0  0  0  0  0  0  0  0
    3.9319   -0.4830   -1.8226 C   0  0  0  0  0  0  0  0  0  0  0  0
    4.5519   -1.2272   -2.9298 C   0  0  2  0  0  0  0  0  0  0  0  0
    4.9816   -2.5991   -2.4651 C   0  0  0  0  0  0  0  0  0  0  0  0
    5.6708   -0.4538   -3.6958 C   0  0  1  0  0  0  0  0  0  0  0  0
    5.3760   -0.3510   -5.1752 C   0  0  0  0  0  0  0  0  0  0  0  0
    6.4020   -0.1210   -6.0039 C   0  0  0  0  0  0  0  0  0  0  0  0
    6.2014    0.1494   -7.3874 C   0  0  0  0  0  0  0  0  0  0  0  0
    7.1975    0.4191   -8.2239 C   0  0  0  0  0  0  0  0  0  0  0  0
    6.9187    0.5711   -9.6941 C   0  0  1  0  0  0  0  0  0  0  0  0
    7.3936    1.9620  -10.0993 C   0  0  0  0  0  0  0  0  0  0  0  0
    7.5793   -0.5455  -10.4829 C   0  0  0  0  0  0  0  0  0  0  0  0
    7.7529   -1.8142   -9.9178 C   0  0  0  0  0  0  0  0  0  0  0  0
    8.4287   -2.7896  -10.6343 C   0  0  0  0  0  0  0  0  0  0  0  0
    8.8723   -2.4952  -11.9140 C   0  0  0  0  0  0  0  0  0  0  0  0
    8.6115   -1.2368  -12.4274 C   0  0  0  0  0  0  0  0  0  0  0  0
    7.9761   -0.2641  -11.7456 N   0  0  0  0  0  0  0  0  0  0  0  0
    3.9278   -0.3479   -5.6227 C   0  0  0  0  0  0  0  0  0  0  0  0
    5.9823    0.8544   -3.0958 O   0  0  0  0  0  0  0  0  0  0  0  0
    5.3642    2.0074   -3.5139 C   0  0  0  0  0  0  0  0  0  0  0  0
    5.2915    3.0041   -2.3772 C   0  0  0  0  0  0  0  0  0  0  0  0
    3.9574    3.7663   -2.4227 C   0  0  1  0  0  0  0  0  0  0  0  0
    3.1260    3.6466   -1.1396 C   0  0  0  0  0  0  0  0  0  0  0  0
    2.5023    2.2711   -1.0098 C   0  0  0  0  0  0  0  0  0  0  0  0
    2.8956    1.4133    0.2156 C   0  0  2  0  0  0  0  0  0  0  0  0
    4.4162    1.3776    0.5420 C   0  0  0  0  0  0  0  0  0  0  0  0
    2.3081    2.0226    1.3757 O   0  0  0  0  0  0  0  0  0  0  0  0
    4.2287    5.1511   -2.6186 O   0  0  0  0  0  0  0  0  0  0  0  0
    4.8565    2.2113   -4.5890 O   0  0  0  0  0  0  0  0  0  0  0  0
  2  1  1  0
  3  2  2  0
  4  2  1  0
  5  4  1  0
  6  5  1  0
  7  6  1  0
  8  7  1  0
  9  4  1  0
  9  8  1  0
 10  7  1  0
 11  1  1  6
 12 11  1  0
 13 12  2  0
 14 13  1  0
 14 15  1  1
 16 14  1  0
 16 17  1  6
 18 17  2  0
 19 18  1  0
 20 19  2  0
 21 20  1  0
 21 22  1  6
 23 21  1  0
 24 23  2  0
 25 24  1  0
 26 25  2  0
 27 26  1  0
 28 23  1  0
 28 27  2  0
 29 17  1  0
 30 16  1  0
 31 30  1  0
 32 31  1  0
 33 32  1  0
 33 39  1  1
 34 33  1  0
 35 34  1  0
 36 11  1  0
 36 35  1  0
 36 37  1  1
 36 38  1  0
 40 31  2  0
M  END
>  <DRUGBANK_ID>  (1) 
DB14017

>  <COMMON_NAME>  (1) 
H3B-8800

>  <CAS_NUMBER>  (1) 
1825302-42-8

>  <UNII>  (1) 
90YLS47BRX

>  <SYNONYMS>  (1) 
(2S,3S,4E,6S,7R,10R)-7,10-Dihydroxy-3,7-dimethyl-12-oxo-2-[(2E,4E,6R)-6-(2-pyridinyl)-2,4-heptadien-2-yl]oxacyclododec-4-en-6-yl 4-methyl-1-piperazinecarboxylate; (2S,3S,4E,6S,7R,10R)-7,10-Dihydroxy-3,7-Dimethyl-12-Oxo-2-[(2E,4E,6R)-6-(Pyridin-2-Yl)Hepta-2,4-Dien-2-Yl]Oxacyclododec-4-En-6-Yl 4-Methylpiperazine-1-Carboxylate; 1-PIPERAZINECARBOXYLIC ACID, 4-METHYL-, (2S,3S,4E,6S,7R,10R)-7,10-DIHYDROXY-3,7-DIMETHYL-2-((1E,3E,5R)-1-METHYL-5-(2-PYRIDINYL)-1,3-HEXADIEN-1-YL)-12-OXOOXACYCLODODEC-4-EN-6-YL ESTER

$$$$
