EH9
     RDKit          3D

 20 21  0  0  0  0  0  0  0  0999 V2000
   -4.5670    1.2924   -1.1103 C   0  0  0  0  0  0  0  0  0  0  0  0
   -3.2062    1.4031   -0.8095 C   0  0  0  0  0  0  0  0  0  0  0  0
   -2.4972    2.4108   -1.4261 C   0  0  0  0  0  0  0  0  0  0  0  0
   -4.2888    3.1112   -2.5225 C   0  0  0  0  0  0  0  0  0  0  0  0
   -1.2259    1.2153   -0.0840 C   0  0  0  0  0  0  0  0  0  0  0  0
   -2.9744    3.3215   -2.3018 N   0  0  0  0  0  0  0  0  0  0  0  0
   -5.1016    2.1706   -1.9904 N   0  0  0  0  0  0  0  0  0  0  0  0
   -1.2237    2.2835   -0.9498 N   0  0  0  0  0  0  0  0  0  0  0  0
   -2.4004    0.6612    0.0282 N   0  0  0  0  0  0  0  0  0  0  0  0
   -0.1008    3.1940   -1.2071 C   0  0  2  0  0  0  0  0  0  0  0  0
    0.8411    2.5577   -2.2622 C   0  0  0  0  0  0  0  0  0  0  0  0
   -5.3598    0.3249   -0.5433 N   0  0  0  0  0  0  0  0  0  0  0  0
    2.0752    3.3874   -2.6278 C   0  0  0  0  0  0  0  0  0  0  0  0
    3.1327    3.5169   -1.5286 C   0  0  0  0  0  0  0  0  0  0  0  0
    3.6986    2.2061   -0.9964 C   0  0  0  0  0  0  0  0  0  0  0  0
    4.5655    1.5228   -2.0122 C   0  0  0  0  0  0  0  0  0  0  0  0
    5.7226    2.4329   -2.3527 C   0  0  0  0  0  0  0  0  0  0  0  0
    0.4890    3.6108    0.1666 C   0  0  1  0  0  0  0  0  0  0  0  0
    1.4560    2.6860    0.6646 O   0  0  0  0  0  0  0  0  0  0  0  0
    1.0141    5.0532    0.1888 C   0  0  0  0  0  0  0  0  0  0  0  0
  1 12  1  0
  1  2  2  0
  2  9  1  0
  3  2  1  0
  3  8  1  0
  4  7  2  0
  4  6  1  0
  6  3  2  0
  7  1  1  0
  8  5  1  0
  9  5  2  0
 10  8  1  0
 10 11  1  6
 13 11  1  0
 14 13  1  0
 15 14  1  0
 16 15  1  0
 17 16  1  0
 18 19  1  0
 18 10  1  0
 18 20  1  6
M  END
>  <DRUGBANK_ID>  (1) 
DB07711

>  <COMMON_NAME>  (1) 
(2S,3R)-3-(6-amino-9H-purin-9-yl)nonan-2-ol

$$$$
