
     RDKit          3D

 11 11  0  0  0  0  0  0  0  0999 V2000
   -1.2051   -1.2310    0.0009 C   0  0  0  0  0  0  0  0  0  0  0  0
   -1.8678    0.0000   -0.0239 C   0  0  0  0  0  0  0  0  0  0  0  0
    0.1910   -1.2878    0.0025 C   0  0  0  0  0  0  0  0  0  0  0  0
    0.2623    1.1113   -0.1538 C   0  0  0  0  0  0  0  0  0  0  0  0
   -1.4934    3.3635    1.2570 C   0  0  0  0  0  0  0  0  0  0  0  0
   -1.1367    1.1948   -0.0754 C   0  0  0  0  0  0  0  0  0  0  0  0
    0.9151   -0.1060   -0.0702 C   0  0  0  0  0  0  0  0  0  0  0  0
   -1.8348    2.5377   -0.0191 C   0  0  0  0  0  0  0  0  0  0  0  0
   -0.0713    3.7328    1.3912 N   0  0  0  0  0  0  0  0  0  0  0  0
    2.2766   -0.0757   -0.0471 O   0  0  0  0  0  0  0  0  0  0  0  0
   -1.5050    3.2812   -1.1918 O   0  0  0  0  0  0  0  0  0  0  0  0
  2  1  2  0
  3  1  1  0
  6  2  1  0
  6  4  2  0
  7  3  2  0
  7  4  1  0
  8  5  1  0
  8  6  1  0
  9  5  1  0
 10  7  1  0
 11  8  1  0
M  END
>  <DRUGBANK_ID>  (1) 
DB13378

>  <COMMON_NAME>  (1) 
Norfenefrine

>  <CAS_NUMBER>  (1) 
536-21-0

>  <UNII>  (1) 
D2P3M6SRN5

>  <SYNONYMS>  (1) 
Norfenefrine

$$$$
