
     RDKit          3D

 35 40  0  0  1  0  0  0  0  0999 V2000
    0.9991    0.7918   -1.4589 C   0  0  0  0  0  0  0  0  0  0  0  0
   -0.4660    1.0170   -0.9820 C   0  0  1  0  0  0  0  0  0  0  0  0
   -0.6178    2.3895   -0.3190 C   0  0  0  0  0  0  0  0  0  0  0  0
   -0.4337    3.4024   -1.4181 C   0  0  1  0  0  0  0  0  0  0  0  0
   -1.4654    3.2490   -2.5156 C   0  0  1  0  0  0  0  0  0  0  0  0
   -1.1459    4.6115   -3.2106 C   0  0  2  0  0  0  0  0  0  0  0  0
   -0.5056    5.6997   -2.0542 C   0  0  2  0  0  0  0  0  0  0  0  0
   -0.7808    4.6870   -1.0323 O   0  0  0  0  0  0  0  0  0  0  0  0
    0.4537    6.1623   -0.6546 C   0  0  0  0  0  0  0  0  0  0  0  0
    2.0152    6.2009   -0.4647 C   0  0  0  0  0  0  0  0  0  0  0  0
    2.9017    6.5255   -1.6578 C   0  0  1  0  0  0  0  0  0  0  0  0
    4.3669    6.5030   -1.4632 C   0  0  1  0  0  0  0  0  0  0  0  0
    4.7204    7.1251   -0.1714 C   0  0  0  0  0  0  0  0  0  0  0  0
    6.1737    7.1758   -0.2755 C   0  0  0  0  0  0  0  0  0  0  0  0
    6.7621    5.8346   -0.4076 C   0  0  1  0  0  0  0  0  0  0  0  0
    6.2967    4.9587    0.8319 C   0  0  0  0  0  0  0  0  0  0  0  0
    7.4448    4.8401    1.7371 C   0  0  1  0  0  0  0  0  0  0  0  0
    8.4266    4.2864    0.6157 C   0  0  0  0  0  0  0  0  0  0  0  0
    7.5758    3.8244   -0.9960 C   0  0  0  0  0  0  0  0  0  0  0  0
    6.4854    4.9957   -1.6178 C   0  0  1  0  0  0  0  0  0  0  0  0
    4.8853    5.0037   -1.5738 C   0  0  2  0  0  0  0  0  0  0  0  0
    4.0183    4.5081   -2.7067 C   0  0  0  0  0  0  0  0  0  0  0  0
    2.8355    5.4472   -2.6619 C   0  0  0  0  0  0  0  0  0  0  0  0
    1.7160    5.3058   -3.3525 C   0  0  0  0  0  0  0  0  0  0  0  0
    0.5924    6.2653   -3.0056 C   0  0  0  0  0  0  0  0  0  0  0  0
    1.6355    4.1356   -4.2831 C   0  0  0  0  0  0  0  0  0  0  0  0
    6.9056    5.6940   -2.9483 C   0  0  0  0  0  0  0  0  0  0  0  0
    7.6954    5.9840    2.7035 N   0  0  0  0  0  0  0  0  0  0  0  0
    8.6689    7.3618    2.7295 S   0  0  0  0  0  0  0  0  0  0  0  0
    8.4767    8.0064    3.9840 O   0  0  0  0  0  0  0  0  0  0  0  0
   10.0084    6.9565    2.2740 O   0  0  0  0  0  0  0  0  0  0  0  0
    8.0014    8.4296    1.5198 C   0  0  0  0  0  0  0  0  0  0  0  0
   -1.6556    5.2422   -4.5503 C   0  0  0  0  0  0  0  0  0  0  0  0
   -1.2490    1.9203   -3.1297 N   0  0  0  0  0  0  0  0  0  0  0  0
   -1.5313    0.8740   -2.1038 C   0  0  0  0  0  0  0  0  0  0  0  0
  2  3  1  0
  2 35  1  0
  2  1  1  6
  4  3  1  1
  4  5  1  0
  4  8  1  0
  5  6  1  0
  5 34  1  6
  6  7  1  0
  6 33  1  1
  7  8  1  0
  7  9  1  6
  7 25  1  0
  9 10  1  0
 11 10  1  1
 11 12  1  0
 11 23  1  0
 12 13  1  1
 12 21  1  0
 13 14  1  0
 15 14  1  6
 15 16  1  0
 15 20  1  0
 16 17  1  0
 17 18  1  0
 17 28  1  6
 18 19  1  0
 19 20  1  0
 20 21  1  0
 20 27  1  6
 21 22  1  6
 22 23  1  0
 23 24  2  0
 24 25  1  0
 24 26  1  0
 28 29  1  0
 29 30  2  0
 29 31  2  0
 29 32  1  0
 34 35  1  0
M  END
>  <DRUGBANK_ID>  (1) 
DB12655

>  <SECONDARY_ACCESSION_NUMBERS>  (1) 
DB05922

>  <COMMON_NAME>  (1) 
Patidegib

>  <CAS_NUMBER>  (1) 
1037210-93-7

>  <UNII>  (1) 
JT96FPU35X

>  <SYNONYMS>  (1) 
Patidegib; Saridegib

$$$$
