
     RDKit          3D

 37 40  0  0  1  0  0  0  0  0999 V2000
    2.7635   12.9447    3.1561 C   0  0  0  0  0  0  0  0  0  0  0  0
    2.8349   14.2831    3.4907 C   0  0  0  0  0  0  0  0  0  0  0  0
    3.3020   15.2192    2.5726 C   0  0  0  0  0  0  0  0  0  0  0  0
    3.8783   14.7756    1.3829 C   0  0  0  0  0  0  0  0  0  0  0  0
    3.9129   13.4087    1.0929 C   0  0  0  0  0  0  0  0  0  0  0  0
    3.2736   12.4953    1.9427 C   0  0  0  0  0  0  0  0  0  0  0  0
    3.0841   11.0961    1.6148 C   0  0  0  0  0  0  0  0  0  0  0  0
    1.7969   10.5773    1.4104 C   0  0  0  0  0  0  0  0  0  0  0  0
    1.6270    9.2407    1.0831 C   0  0  0  0  0  0  0  0  0  0  0  0
    2.7595    8.4442    0.9691 C   0  0  0  0  0  0  0  0  0  0  0  0
    3.9981    8.9053    1.2695 N   0  0  0  0  0  0  0  0  0  0  0  0
    4.1455   10.2130    1.5560 C   0  0  0  0  0  0  0  0  0  0  0  0
    2.6466    7.0893    0.3016 C   0  0  0  0  0  0  0  0  0  0  0  0
    3.5310    6.9156   -1.0590 C   0  0  2  0  0  0  0  0  0  0  0  0
    4.4395    5.6732   -0.8178 C   0  0  0  0  0  0  0  0  0  0  0  0
    5.3212    5.8238    0.3334 N   0  0  0  0  0  0  0  0  0  0  0  0
    5.2983    5.1304    1.5054 C   0  0  0  0  0  0  0  0  0  0  0  0
    5.9422    5.8312    2.4231 N   0  0  0  0  0  0  0  0  0  0  0  0
    6.3922    6.9525    1.7920 N   0  0  0  0  0  0  0  0  0  0  0  0
    6.0669    6.9249    0.5122 N   0  0  0  0  0  0  0  0  0  0  0  0
    4.3236    8.1390   -1.6074 C   0  0  0  0  0  0  0  0  0  0  0  0
    3.7325    9.4089   -1.6610 C   0  0  0  0  0  0  0  0  0  0  0  0
    4.5338   10.5585   -1.6671 C   0  0  0  0  0  0  0  0  0  0  0  0
    5.9179   10.4441   -1.6642 C   0  0  0  0  0  0  0  0  0  0  0  0
    6.5164    9.2152   -1.7819 C   0  0  0  0  0  0  0  0  0  0  0  0
    5.7106    8.0879   -1.8755 C   0  0  0  0  0  0  0  0  0  0  0  0
    6.3495    6.9328   -2.0980 F   0  0  0  0  0  0  0  0  0  0  0  0
    6.6764   11.5425   -1.5442 F   0  0  0  0  0  0  0  0  0  0  0  0
    2.6224    6.5967   -2.1575 O   0  0  0  0  0  0  0  0  0  0  0  0
    2.9034    6.0801    1.1885 F   0  0  0  0  0  0  0  0  0  0  0  0
    1.3347    6.8276   -0.0487 F   0  0  0  0  0  0  0  0  0  0  0  0
    3.2164   16.5728    2.7370 O   0  0  0  0  0  0  0  0  0  0  0  0
    2.5418   17.0301    3.9206 C   0  0  0  0  0  0  0  0  0  0  0  0
    1.0185   16.8473    3.9321 C   0  0  0  0  0  0  0  0  0  0  0  0
    0.6050   15.5634    3.8877 F   0  0  0  0  0  0  0  0  0  0  0  0
    0.5106   17.3622    5.0800 F   0  0  0  0  0  0  0  0  0  0  0  0
    0.4308   17.4934    2.9028 F   0  0  0  0  0  0  0  0  0  0  0  0
  1  2  2  0
  1  6  1  0
  2  3  1  0
  3  4  2  0
  3 32  1  0
  4  5  1  0
  5  6  2  0
  6  7  1  0
  7  8  2  0
  7 12  1  0
  8  9  1  0
  9 10  2  0
 10 11  1  0
 10 13  1  0
 11 12  2  0
 13 30  1  0
 13 31  1  0
 14 21  1  0
 14 29  1  6
 14 15  1  0
 14 13  1  0
 15 16  1  0
 16 17  1  0
 16 20  1  0
 17 18  2  0
 18 19  1  0
 19 20  2  0
 21 22  2  0
 21 26  1  0
 22 23  1  0
 23 24  2  0
 24 25  1  0
 24 28  1  0
 25 26  2  0
 26 27  1  0
 32 33  1  0
 33 34  1  0
 34 35  1  0
 34 36  1  0
 34 37  1  0
M  END
>  <DRUGBANK_ID>  (1) 
DB13055

>  <COMMON_NAME>  (1) 
Oteseconazole

>  <CAS_NUMBER>  (1) 
1340593-59-0

>  <UNII>  (1) 
VHH774W97N

>  <SYNONYMS>  (1) 
(R)-2-(2,4-difluorophenyl)-1,1-difluoro-3-(1H-tetrazol-1-yl)-1(5-(4-(2,2,2-trifluoroethoxy)phenyl)pyridin-2-yl)propan-2-ol; 2-Pyridineethanol, α-(2,4difluorophenyl)-β β-difluoro- α-(1H-tetrazol-1-ylmethyl)-5-(4-(2,2,2-trifluoroethoxy)phenyl)-,(αR); Oteseconazole; VT-1161

$$$$
