
     RDKit          3D

 12 11  0  0  0  0  0  0  0  0999 V2000
   -1.1862   -3.1599    4.0676 C   0  0  0  0  0  0  0  0  0  0  0  0
    0.2518   -3.5962    3.7626 C   0  0  1  0  0  0  0  0  0  0  0  0
    0.5864   -3.7534    2.2735 C   0  0  2  0  0  0  0  0  0  0  0  0
   -0.1410   -4.9213    1.5964 C   0  0  2  0  0  0  0  0  0  0  0  0
    0.2419   -5.0027    0.1080 C   0  0  2  0  0  0  0  0  0  0  0  0
   -1.5226   -2.5652    5.0853 O   0  0  0  0  0  0  0  0  0  0  0  0
    1.1637   -2.6138    4.2777 O   0  0  0  0  0  0  0  0  0  0  0  0
    2.0065   -3.9752    2.1374 O   0  0  0  0  0  0  0  0  0  0  0  0
   -1.5584   -4.7777    1.7037 O   0  0  0  0  0  0  0  0  0  0  0  0
   -0.0907   -3.7728   -0.5635 O   0  0  0  0  0  0  0  0  0  0  0  0
   -0.5222   -6.1450   -0.5580 C   0  0  0  0  0  0  0  0  0  0  0  0
   -0.1643   -6.2179   -1.9346 O   0  0  0  0  0  0  0  0  0  0  0  0
  2  7  1  6
  2  1  1  0
  3  2  1  0
  3  8  1  1
  4  3  1  0
  4  9  1  6
  5 10  1  6
  5  4  1  0
  6  1  2  0
 11  5  1  0
 11 12  1  0
M  END
>  <DRUGBANK_ID>  (1) 
DB11735

>  <COMMON_NAME>  (1) 
Galactose

>  <CAS_NUMBER>  (1) 
59-23-4

>  <UNII>  (1) 
X2RN3Q8DNE

>  <SYNONYMS>  (1) 
D-Galactose; D(+)-Galactose; Galactose

$$$$
