
     RDKit          3D

 20 21  0  0  0  0  0  0  0  0999 V2000
   -2.3310    0.0297    0.0081 C   0  0  0  0  0  0  0  0  0  0  0  0
    3.1023   -2.4749    0.0379 C   0  0  0  0  0  0  0  0  0  0  0  0
    4.2153    5.3111   -2.8698 C   0  0  0  0  0  0  0  0  0  0  0  0
    4.9355    3.2089   -3.7982 C   0  0  0  0  0  0  0  0  0  0  0  0
    3.8779    4.6836   -1.6698 C   0  0  0  0  0  0  0  0  0  0  0  0
    4.5887    2.5639   -2.6072 C   0  0  0  0  0  0  0  0  0  0  0  0
    1.8218   -0.0699    0.0309 C   0  0  0  0  0  0  0  0  0  0  0  0
   -0.8272    0.0340   -0.0093 C   0  0  0  0  0  0  0  0  0  0  0  0
    4.7468    4.5857   -3.9416 C   0  0  0  0  0  0  0  0  0  0  0  0
    4.0317    3.3057   -1.5580 C   0  0  0  0  0  0  0  0  0  0  0  0
    1.1887    1.1346   -0.0046 C   0  0  0  0  0  0  0  0  0  0  0  0
    1.0829   -1.2153    0.0251 C   0  0  0  0  0  0  0  0  0  0  0  0
    5.0039    5.2109   -5.1473 N   0  0  0  0  0  0  0  0  0  0  0  0
   -0.1540    1.2198   -0.0389 N   0  0  0  0  0  0  0  0  0  0  0  0
   -0.2512   -1.1870    0.0068 N   0  0  0  0  0  0  0  0  0  0  0  0
    1.8938    2.3561   -0.2369 N   0  0  0  0  0  0  0  0  0  0  0  0
    3.8203    3.4514    1.0391 O   0  0  0  0  0  0  0  0  0  0  0  0
    4.2876    1.2496   -0.0589 O   0  0  0  0  0  0  0  0  0  0  0  0
    1.6666   -2.4622    0.0232 O   0  0  0  0  0  0  0  0  0  0  0  0
    3.5776    2.5160   -0.0300 S   0  0  0  0  0  0  0  0  0  0  0  0
  5  3  2  0
  6  4  1  0
  8  1  1  0
  9  3  1  0
  9  4  2  0
 10  5  1  0
 10  6  2  0
 11  7  2  0
 12  7  1  0
 13  9  1  0
 14  8  2  0
 14 11  1  0
 15  8  1  0
 15 12  2  0
 16 11  1  0
 19  2  1  0
 19 12  1  0
 20 10  1  0
 20 16  1  0
 20 17  2  0
 20 18  2  0
M  END
>  <DRUGBANK_ID>  (1) 
DB13485

>  <COMMON_NAME>  (1) 
Sulfametomidine

>  <CAS_NUMBER>  (1) 
3772-76-7

>  <UNII>  (1) 
940ZL3AHKB

>  <SYNONYMS>  (1) 
Sulfametomidine

$$$$
