
     RDKit          3D

 20 22  0  0  0  0  0  0  0  0999 V2000
   -0.7934   -0.5136    0.0188 C   0  0  0  0  0  0  0  0  0  0  0  0
   -0.5624    0.8427   -0.0234 C   0  0  0  0  0  0  0  0  0  0  0  0
   -2.1976   -0.7248    0.1072 C   0  0  0  0  0  0  0  0  0  0  0  0
    0.3565   -1.3808    0.0007 C   0  0  0  0  0  0  0  0  0  0  0  0
   -1.7702    1.4769   -0.0249 N   0  0  0  0  0  0  0  0  0  0  0  0
    0.6280    1.4860   -0.0373 N   0  0  0  0  0  0  0  0  0  0  0  0
   -2.7714    0.5402    0.0632 C   0  0  0  0  0  0  0  0  0  0  0  0
   -2.9077   -2.0343    0.1969 C   0  0  0  0  0  0  0  0  0  0  0  0
    1.5517   -0.6910    0.0017 N   0  0  0  0  0  0  0  0  0  0  0  0
    0.3080   -2.6104   -0.0068 O   0  0  0  0  0  0  0  0  0  0  0  0
    1.6567    0.6838   -0.0118 C   0  0  0  0  0  0  0  0  0  0  0  0
   -3.5883   -2.1190    1.4751 N   0  0  0  0  0  0  0  0  0  0  0  0
    2.9148    1.1817    0.0019 N   0  0  0  0  0  0  0  0  0  0  0  0
   -4.5953   -3.1620    1.5550 C   0  0  2  0  0  0  0  0  0  0  0  0
   -4.7855   -3.8129    2.9620 C   0  0  2  0  0  0  0  0  0  0  0  0
   -4.5859   -4.3542    0.6394 C   0  0  0  0  0  0  0  0  0  0  0  0
   -4.4537   -5.3195    2.7651 C   0  0  2  0  0  0  0  0  0  0  0  0
   -6.1388   -3.5874    3.3876 O   0  0  0  0  0  0  0  0  0  0  0  0
   -4.6102   -5.5188    1.2977 C   0  0  0  0  0  0  0  0  0  0  0  0
   -5.2945   -6.2062    3.4778 O   0  0  0  0  0  0  0  0  0  0  0  0
  1  2  2  0
  1  3  1  0
  1  4  1  0
  2  5  1  0
  2  6  1  0
  3  7  2  0
  3  8  1  0
  4  9  1  0
  4 10  2  0
  5  7  1  0
  6 11  2  0
  8 12  1  0
  9 11  1  0
 11 13  1  0
 14 12  1  1
 14 15  1  0
 14 16  1  0
 15 17  1  0
 15 18  1  6
 16 19  2  0
 17 19  1  0
 17 20  1  1
M  END
>  <DRUGBANK_ID>  (1) 
DB14732

>  <COMMON_NAME>  (1) 
Queuine

>  <CAS_NUMBER>  (1) 
72496-59-4

>  <UNII>  (1) 
DAK6EYX2BZ

>  <SYNONYMS>  (1) 
7-(3,4-trans-4,5-cis-dihydroxy-1-cyclopenten-3-ylaminomethyl)-7-deazaguanine; Base Q; Q Base

$$$$
