
     RDKit          3D

 11 12  0  0  0  0  0  0  0  0999 V2000
    0.0141   -1.1357    0.3373 C   0  0  1  0  0  0  0  0  0  0  0  0
   -1.1820   -0.7215   -0.5238 C   0  0  0  0  0  0  0  0  0  0  0  0
   -1.2549    0.7965   -0.5694 C   0  0  0  0  0  0  0  0  0  0  0  0
   -0.0131    1.1111    0.3044 C   0  0  2  0  0  0  0  0  0  0  0  0
    1.2389    0.7615   -0.5347 C   0  0  0  0  0  0  0  0  0  0  0  0
    1.2441   -0.7843   -0.5326 C   0  0  0  0  0  0  0  0  0  0  0  0
   -0.0288    0.0027    1.3881 C   0  0  0  0  0  0  0  0  0  0  0  0
   -0.0051   -2.5453    0.8817 C   0  0  0  0  0  0  0  0  0  0  0  0
   -1.9614   -1.4786   -1.0849 O   0  0  0  0  0  0  0  0  0  0  0  0
    1.1760    0.0180    2.3437 C   0  0  0  0  0  0  0  0  0  0  0  0
   -1.2921    0.0037    2.2698 C   0  0  0  0  0  0  0  0  0  0  0  0
  1  7  1  0
  1  8  1  1
  1  2  1  0
  2  9  2  0
  2  3  1  0
  4  5  1  6
  4  7  1  0
  4  3  1  0
  5  6  1  0
  6  1  1  0
 10  7  1  0
 11  7  1  0
M  END
>  <DRUGBANK_ID>  (1) 
DB11345

>  <COMMON_NAME>  (1) 
(S)-camphor

>  <CAS_NUMBER>  (1) 
464-48-2

>  <UNII>  (1) 
213N3S8275

>  <SYNONYMS>  (1) 
(−)-bornan-2-one; (−)-camphor; (1S,4S)-camphor; (1S)-(−)-camphor; l-camphor

$$$$
