
     RDKit          3D

 14 14  0  0  0  0  0  0  0  0999 V2000
   -1.6552    1.1173    0.0088 C   0  0  0  0  0  0  0  0  0  0  0  0
   -2.3108   -0.0429    0.0104 N   0  0  0  0  0  0  0  0  0  0  0  0
   -0.3372    1.2129   -0.0085 N   0  0  0  0  0  0  0  0  0  0  0  0
   -2.3445    2.3016    0.0260 N   0  0  0  0  0  0  0  0  0  0  0  0
   -1.5865   -1.1552   -0.0069 C   0  0  0  0  0  0  0  0  0  0  0  0
    0.2728    0.0383   -0.0196 C   0  0  0  0  0  0  0  0  0  0  0  0
   -3.7895    2.3750    0.0870 C   0  0  0  0  0  0  0  0  0  0  0  0
   -0.2682   -1.1673   -0.0227 N   0  0  0  0  0  0  0  0  0  0  0  0
   -2.2770   -2.3377    0.0101 N   0  0  0  0  0  0  0  0  0  0  0  0
    1.9835    0.0681   -0.0070 Cl  0  0  0  0  0  0  0  0  0  0  0  0
   -4.2205    3.1159    1.3501 C   0  0  0  0  0  0  0  0  0  0  0  0
   -4.3216    3.0995   -1.1460 C   0  0  0  0  0  0  0  0  0  0  0  0
   -1.6292   -3.6245   -0.0787 C   0  0  0  0  0  0  0  0  0  0  0  0
   -1.9954   -4.4702    1.1292 C   0  0  0  0  0  0  0  0  0  0  0  0
  1  2  2  0
  1  3  1  0
  1  4  1  0
  2  5  1  0
  3  6  2  0
  4  7  1  0
  5  8  2  0
  5  9  1  0
  6 10  1  0
  6  8  1  0
  7 11  1  0
  7 12  1  0
  9 13  1  0
 13 14  1  0
M  END
>  <DRUGBANK_ID>  (1) 
DB07392

>  <COMMON_NAME>  (1) 
Atrazine

>  <CAS_NUMBER>  (1) 
1912-24-9

>  <UNII>  (1) 
QJA9M5H4IM

$$$$
