
     RDKit          3D

  9  8  0  0  0  0  0  0  0  0999 V2000
    2.6033   -3.6753   -0.2205 C   0  0  0  0  0  0  0  0  0  0  0  0
    2.0899   -2.6787    0.7762 C   0  0  0  0  0  0  0  0  0  0  0  0
    0.2711   -0.9573    0.8875 C   0  0  0  0  0  0  0  0  0  0  0  0
    0.5949   -2.4252    0.6041 C   0  0  2  0  0  0  0  0  0  0  0  0
   -0.8531   -0.5306    0.2774 O   0  0  0  0  0  0  0  0  0  0  0  0
    2.0641   -4.8987   -0.0866 O   0  0  0  0  0  0  0  0  0  0  0  0
    0.8936   -0.2121    1.6293 O   0  0  0  0  0  0  0  0  0  0  0  0
    3.4655   -3.4608   -1.0588 O   0  0  0  0  0  0  0  0  0  0  0  0
   -0.1591   -3.2670    1.4775 O   0  0  0  0  0  0  0  0  0  0  0  0
  1  2  1  0
  4  9  1  1
  4  3  1  0
  4  2  1  0
  5  3  1  0
  6  1  1  0
  7  3  2  0
  8  1  2  0
M  END
>  <DRUGBANK_ID>  (1) 
DB03499

>  <SECONDARY_ACCESSION_NUMBERS>  (1) 
EXPT02188

>  <COMMON_NAME>  (1) 
D-Malic acid

>  <CAS_NUMBER>  (1) 
636-61-3

>  <UNII>  (1) 
P750Y95K96

>  <SYNONYMS>  (1) 
(+)-D-malic acid; (R)-2-hydroxybutanedioic acid; (R)-malic acid

$$$$
