
     RDKit          3D

 21 22  0  0  1  0  0  0  0  0999 V2000
   -2.3810   -1.3816    1.1351 N   0  0  0  0  0  0  0  0  0  0  0  0
   -2.0437   -1.9086   -0.8986 C   0  0  0  0  0  0  0  0  0  0  0  0
   -1.3083   -1.2345   -2.1449 C   0  0  0  0  0  0  0  0  0  0  0  0
    0.1076   -1.2641   -1.9698 O   0  0  0  0  0  0  0  0  0  0  0  0
    0.6045   -0.6126   -0.7929 N   0  0  0  0  0  0  0  0  0  0  0  0
   -0.2012   -0.0103    0.1466 C   0  0  0  0  0  0  0  0  0  0  0  0
    0.0772    0.2129    1.3251 O   0  0  0  0  0  0  0  0  0  0  0  0
   -1.5767   -0.3475   -0.1690 C   0  0  1  0  0  0  0  0  0  0  0  0
   -0.8934   -2.3196    0.6178 C   0  0  0  0  0  0  0  0  0  0  0  0
   -1.4473   -3.6057   -0.0801 C   0  0  0  0  0  0  0  0  0  0  0  0
   -3.4426   -3.1328    0.1348 C   0  0  1  0  0  0  0  0  0  0  0  0
   -4.2387   -1.3022    0.4286 C   0  0  0  0  0  0  0  0  0  0  0  0
   -3.5257   -0.3998   -0.5469 N   0  0  0  0  0  0  0  0  0  0  0  0
   -4.3733   -1.3407   -1.7690 C   0  0  0  0  0  0  0  0  0  0  0  0
   -3.9640   -1.1744   -2.9327 O   0  0  0  0  0  0  0  0  0  0  0  0
   -4.3641   -2.9175   -1.1606 N   0  0  0  0  0  0  0  0  0  0  0  0
   -5.5132   -3.5905   -0.6890 O   0  0  0  0  0  0  0  0  0  0  0  0
   -5.3635   -5.2556   -0.9208 S   0  0  0  0  0  0  0  0  0  0  0  0
   -5.2797   -5.3100   -2.5294 O   0  0  0  0  0  0  0  0  0  0  0  0
   -4.1216   -5.8322   -0.4263 O   0  0  0  0  0  0  0  0  0  0  0  0
   -6.6146   -5.8333   -0.5025 O   0  0  0  0  0  0  0  0  0  0  0  0
  1  2  1  0
  2  3  1  0
  3  4  1  0
  4  5  1  0
  5  6  1  0
  6  7  2  0
  8  9  1  0
  8 13  1  0
  8  6  1  6
  9 10  1  0
 11 10  1  6
 11 12  1  0
 11 16  1  0
 13 12  1  0
 13 14  1  0
 14 16  1  0
 14 15  2  0
 16 17  1  0
 17 18  1  0
 18 19  1  0
 18 20  2  0
 18 21  2  0
M  END
>  <DRUGBANK_ID>  (1) 
DB15353

>  <COMMON_NAME>  (1) 
Nacubactam

>  <CAS_NUMBER>  (1) 
1452458-86-4

>  <UNII>  (1) 
832O37V7MZ

>  <SYNONYMS>  (1) 
Nacubactam

$$$$
