CT2
     RDKit          3D

 23 24  0  0  0  0  0  0  0  0999 V2000
   -4.0126   -3.4133   -3.7445 C   0  0  0  0  0  0  0  0  0  0  0  0
   -2.6316   -4.0294   -3.8683 C   0  0  0  0  0  0  0  0  0  0  0  0
   -1.5629   -3.0148   -4.2980 C   0  0  0  0  0  0  0  0  0  0  0  0
   -1.4802   -1.7568   -3.4295 C   0  0  0  0  0  0  0  0  0  0  0  0
   -0.9628   -1.9797   -2.0104 C   0  0  2  0  0  0  0  0  0  0  0  0
    0.4861   -1.9365   -2.0130 N   0  0  0  0  0  0  0  0  0  0  0  0
    1.2607   -0.8702   -1.6950 C   0  0  0  0  0  0  0  0  0  0  0  0
    2.4720   -1.0353   -1.5919 O   0  0  0  0  0  0  0  0  0  0  0  0
    0.5764    0.2896   -1.5314 O   0  0  0  0  0  0  0  0  0  0  0  0
    1.2420    1.4760   -1.0092 C   0  0  0  0  0  0  0  0  0  0  0  0
    1.2393    1.4809    0.5473 C   0  0  0  0  0  0  0  0  0  0  0  0
   -0.1416    1.4896    1.1816 C   0  0  0  0  0  0  0  0  0  0  0  0
   -1.0307    0.4419    0.9249 C   0  0  0  0  0  0  0  0  0  0  0  0
   -2.3027    0.3933    1.4811 C   0  0  0  0  0  0  0  0  0  0  0  0
   -2.6794    1.3701    2.3887 C   0  0  0  0  0  0  0  0  0  0  0  0
   -1.7921    2.4004    2.7044 C   0  0  0  0  0  0  0  0  0  0  0  0
   -0.5498    2.4927    2.0651 C   0  0  0  0  0  0  0  0  0  0  0  0
    0.5551    2.7459   -1.5545 C   0  0  0  0  0  0  0  0  0  0  0  0
    1.6445    3.8228   -1.6018 C   0  0  0  0  0  0  0  0  0  0  0  0
    2.9816    3.0991   -1.5247 C   0  0  0  0  0  0  0  0  0  0  0  0
    2.6441    1.6302   -1.6126 C   0  0  0  0  0  0  0  0  0  0  0  0
   -1.3061   -3.2995   -1.3378 C   0  0  0  0  0  0  0  0  0  0  0  0
   -2.2407   -3.4564   -0.5568 O   0  0  0  0  0  0  0  0  0  0  0  0
  1  2  1  0
  2  3  1  0
  3  4  1  0
  5 22  1  6
  5  6  1  0
  5  4  1  0
  6  7  1  0
  7  8  2  0
  7  9  1  0
  9 10  1  0
 10 11  1  0
 10 18  1  0
 10 21  1  0
 11 12  1  0
 12 13  2  0
 12 17  1  0
 13 14  1  0
 14 15  2  0
 15 16  1  0
 16 17  2  0
 18 19  1  0
 19 20  1  0
 20 21  1  0
 22 23  2  0
M  END
>  <DRUGBANK_ID>  (1) 
DB07593

>  <COMMON_NAME>  (1) 
1-(PHENYLMETHYL)CYCLOPENTYL[(1S)-1-FORMYLPENTYL]CARBAMATE

$$$$
