
     RDKit          3D

 39 43  0  0  1  0  0  0  0  0999 V2000
   -0.3186   -2.4029   -3.1455 C   0  0  0  0  0  0  0  0  0  0  0  0
    0.1780   -1.5620   -2.1163 O   0  0  0  0  0  0  0  0  0  0  0  0
    0.9045   -2.1892   -1.0362 C   0  0  1  0  0  0  0  0  0  0  0  0
    0.6751   -3.6835   -0.8924 C   0  0  0  0  0  0  0  0  0  0  0  0
    1.2257   -4.6786   -1.8523 C   0  0  0  0  0  0  0  0  0  0  0  0
    2.6673   -4.3595   -2.1385 C   0  0  2  0  0  0  0  0  0  0  0  0
    2.9651   -2.8683   -2.3615 C   0  0  0  0  0  0  0  0  0  0  0  0
    2.4184   -1.9722   -1.2431 C   0  0  0  0  0  0  0  0  0  0  0  0
    3.0243   -5.1693   -3.3389 C   0  0  0  0  0  0  0  0  0  0  0  0
    2.4113   -4.8685   -4.4964 N   0  0  0  0  0  0  0  0  0  0  0  0
    2.6630   -5.6315   -5.5647 C   0  0  0  0  0  0  0  0  0  0  0  0
    2.0976   -5.2782   -6.8161 N   0  0  0  0  0  0  0  0  0  0  0  0
    1.1463   -4.3192   -6.9837 C   0  0  0  0  0  0  0  0  0  0  0  0
   -0.0597   -4.5114   -7.5307 N   0  0  0  0  0  0  0  0  0  0  0  0
   -0.6350   -3.2910   -7.5062 N   0  0  0  0  0  0  0  0  0  0  0  0
    0.1948   -2.3012   -7.0580 C   0  0  0  0  0  0  0  0  0  0  0  0
   -0.1898   -0.8719   -7.0346 C   0  0  0  0  0  0  0  0  0  0  0  0
    1.3548   -2.9489   -6.6959 C   0  0  0  0  0  0  0  0  0  0  0  0
    3.5392   -6.7022   -5.4562 C   0  0  0  0  0  0  0  0  0  0  0  0
    4.1092   -6.9485   -4.2131 C   0  0  0  0  0  0  0  0  0  0  0  0
    5.0761   -8.0548   -3.9498 C   0  0  0  0  0  0  0  0  0  0  0  0
    3.8501   -6.1923   -3.1425 N   0  0  0  0  0  0  0  0  0  0  0  0
    0.4224   -1.4276    0.2659 C   0  0  0  0  0  0  0  0  0  0  0  0
    0.7907   -0.2821    0.5069 O   0  0  0  0  0  0  0  0  0  0  0  0
   -0.4876   -1.9672    1.1545 N   0  0  0  0  0  0  0  0  0  0  0  0
   -1.1732   -3.2575    1.2471 C   0  0  1  0  0  0  0  0  0  0  0  0
   -0.6979   -4.1003    2.4200 C   0  0  0  0  0  0  0  0  0  0  0  0
   -2.6365   -3.2212    0.9332 C   0  0  0  0  0  0  0  0  0  0  0  0
   -3.2913   -2.0714    0.4929 C   0  0  0  0  0  0  0  0  0  0  0  0
   -4.6504   -2.1256    0.2190 C   0  0  0  0  0  0  0  0  0  0  0  0
   -5.3048   -3.3436    0.3814 C   0  0  0  0  0  0  0  0  0  0  0  0
   -4.6829   -4.4964    0.7204 N   0  0  0  0  0  0  0  0  0  0  0  0
   -3.3640   -4.4131    0.9487 C   0  0  0  0  0  0  0  0  0  0  0  0
   -6.6990   -3.3843    0.1622 N   0  0  0  0  0  0  0  0  0  0  0  0
   -7.3460   -2.9512   -0.9710 C   0  0  0  0  0  0  0  0  0  0  0  0
   -8.6721   -3.1496   -0.7213 C   0  0  0  0  0  0  0  0  0  0  0  0
   -9.6526   -2.9182   -1.5424 F   0  0  0  0  0  0  0  0  0  0  0  0
   -8.7652   -3.6566    0.5749 C   0  0  0  0  0  0  0  0  0  0  0  0
   -7.5574   -3.8422    1.1155 N   0  0  0  0  0  0  0  0  0  0  0  0
  1  2  1  0
  3  4  1  0
  3  8  1  0
  3 23  1  0
  3  2  1  6
  4  5  1  0
  6  5  1  0
  6  7  1  0
  6  9  1  6
  7  8  1  0
  9 10  2  0
  9 22  1  0
 10 11  1  0
 11 12  1  0
 11 19  2  0
 12 13  1  0
 13 14  2  0
 13 18  1  0
 14 15  1  0
 15 16  1  0
 16 17  1  0
 16 18  2  0
 19 20  1  0
 20 21  1  0
 20 22  2  0
 23 24  2  0
 23 25  1  0
 26 25  1  0
 26 27  1  1
 26 28  1  0
 28 29  2  0
 28 33  1  0
 29 30  1  0
 30 31  2  0
 31 32  1  0
 31 34  1  0
 32 33  2  0
 34 35  1  0
 34 39  1  0
 35 36  2  0
 36 37  1  0
 36 38  1  0
 38 39  2  0
M  END
>  <DRUGBANK_ID>  (1) 
DB15822

>  <COMMON_NAME>  (1) 
Pralsetinib

>  <CAS_NUMBER>  (1) 
2097132-94-8

>  <UNII>  (1) 
1WPE73O1WV

>  <SYNONYMS>  (1) 
Pralsetinib

$$$$
