
     RDKit          3D

 11 12  0  0  0  0  0  0  0  0999 V2000
    0.9681    0.0900   -0.0324 O   0  0  0  0  0  0  0  0  0  0  0  0
    2.1939    0.0096   -0.0482 C   0  0  0  0  0  0  0  0  0  0  0  0
    3.0268    1.2518   -0.0633 C   0  0  0  0  0  0  0  0  0  0  0  0
    4.3655    1.1016   -0.1555 C   0  0  0  0  0  0  0  0  0  0  0  0
    5.3189    2.2510   -0.1952 C   0  0  0  0  0  0  0  0  0  0  0  0
    4.9277   -0.3104   -0.1922 C   0  0  1  0  0  0  0  0  0  0  0  0
    4.2706   -1.1780    0.9455 C   0  0  0  0  0  0  0  0  0  0  0  0
    3.0719   -1.3010   -0.0677 C   0  0  2  0  0  0  0  0  0  0  0  0
    4.1844   -1.2932   -1.2093 C   0  0  0  0  0  0  0  0  0  0  0  0
    3.7920   -0.7407   -2.5856 C   0  0  0  0  0  0  0  0  0  0  0  0
    4.8548   -2.6522   -1.4665 C   0  0  0  0  0  0  0  0  0  0  0  0
  2  1  2  0
  3  2  1  0
  3  4  2  0
  4  6  1  0
  5  4  1  0
  6  7  1  1
  6  9  1  0
  8  7  1  1
  8  2  1  0
  8  9  1  0
 10  9  1  0
 11  9  1  0
M  END
>  <DRUGBANK_ID>  (1) 
DB15977

>  <COMMON_NAME>  (1) 
Verbenone

>  <CAS_NUMBER>  (1) 
80-57-9

>  <UNII>  (1) 
IFV46DXC6U

$$$$
