
     RDKit          3D

 29 31  0  0  0  0  0  0  0  0999 V2000
    2.4163   -7.1583    2.4160 Cl  0  0  0  0  0  0  0  0  0  0  0  0
    2.1426   -5.4607    2.4369 C   0  0  0  0  0  0  0  0  0  0  0  0
    1.7424   -4.8214    3.6020 C   0  0  0  0  0  0  0  0  0  0  0  0
    1.5408   -3.4398    3.6016 C   0  0  0  0  0  0  0  0  0  0  0  0
    1.7615   -2.6960    2.4415 C   0  0  0  0  0  0  0  0  0  0  0  0
    2.1848   -3.3302    1.2676 C   0  0  0  0  0  0  0  0  0  0  0  0
    2.3545   -4.7268    1.2778 C   0  0  0  0  0  0  0  0  0  0  0  0
    2.5318   -2.5027    0.0506 C   0  0  2  0  0  0  0  0  0  0  0  0
    2.1960   -3.2484   -1.2514 C   0  0  0  0  0  0  0  0  0  0  0  0
    2.5516   -2.5122   -2.4637 N   0  0  0  0  0  0  0  0  0  0  0  0
    2.1836   -3.2948   -3.6532 C   0  0  0  0  0  0  0  0  0  0  0  0
    0.6757   -3.5857   -3.7535 C   0  0  0  0  0  0  0  0  0  0  0  0
   -0.0345   -2.3218   -3.7760 N   0  0  0  0  0  0  0  0  0  0  0  0
   -0.9459   -2.0378   -4.7661 C   0  0  0  0  0  0  0  0  0  0  0  0
   -1.8206   -3.0093   -5.2523 C   0  0  0  0  0  0  0  0  0  0  0  0
   -2.7406   -2.7116   -6.2507 C   0  0  0  0  0  0  0  0  0  0  0  0
   -2.8021   -1.4247   -6.7694 C   0  0  0  0  0  0  0  0  0  0  0  0
   -1.9565   -0.4224   -6.2828 C   0  0  0  0  0  0  0  0  0  0  0  0
   -0.9866   -0.7593   -5.3241 C   0  0  0  0  0  0  0  0  0  0  0  0
   -2.1766    0.9741   -6.6565 C   0  0  0  0  0  0  0  0  0  0  0  0
   -3.4015    1.5892   -6.3351 C   0  0  0  0  0  0  0  0  0  0  0  0
   -3.6084    2.9452   -6.5735 C   0  0  0  0  0  0  0  0  0  0  0  0
   -2.5764    3.7141   -7.1037 C   0  0  0  0  0  0  0  0  0  0  0  0
   -1.3355    3.1266   -7.3825 C   0  0  0  0  0  0  0  0  0  0  0  0
   -1.1612    1.7475   -7.2246 C   0  0  0  0  0  0  0  0  0  0  0  0
   -0.1492    3.9435   -7.7180 C   0  0  0  0  0  0  0  0  0  0  0  0
    0.9841    3.5185   -7.8901 O   0  0  0  0  0  0  0  0  0  0  0  0
   -0.4149    5.2603   -7.7307 O   0  0  0  0  0  0  0  0  0  0  0  0
    3.9208   -2.1981    0.1285 O   0  0  0  0  0  0  0  0  0  0  0  0
  1  2  1  0
  2  3  2  0
  2  7  1  0
  3  4  1  0
  4  5  2  0
  5  6  1  0
  6  7  2  0
  8  9  1  0
  8 29  1  6
  8  6  1  0
  9 10  1  0
 10 11  1  0
 11 12  1  0
 12 13  1  0
 13 14  1  0
 14 15  2  0
 14 19  1  0
 15 16  1  0
 16 17  2  0
 17 18  1  0
 18 19  2  0
 18 20  1  0
 20 21  2  0
 20 25  1  0
 21 22  1  0
 22 23  2  0
 23 24  1  0
 24 25  2  0
 24 26  1  0
 26 27  2  0
 26 28  1  0
M  END
>  <DRUGBANK_ID>  (1) 
DB06190

>  <COMMON_NAME>  (1) 
Solabegron

>  <CAS_NUMBER>  (1) 
252920-94-8

>  <UNII>  (1) 
55P6YH9O6N

>  <SYNONYMS>  (1) 
Solabegron

$$$$
