S14
     RDKit          3D

 31 34  0  0  0  0  0  0  0  0999 V2000
    0.2993   -0.7725    0.0114 C   0  0  0  0  0  0  0  0  0  0  0  0
   -0.9139   -1.5123    0.0208 C   0  0  0  0  0  0  0  0  0  0  0  0
   -2.0862   -0.8621    0.0312 C   0  0  0  0  0  0  0  0  0  0  0  0
   -2.1408    0.5821    0.0763 C   0  0  0  0  0  0  0  0  0  0  0  0
   -0.9933    1.2939    0.0224 C   0  0  0  0  0  0  0  0  0  0  0  0
    0.2199    0.6226   -0.0047 N   0  0  0  0  0  0  0  0  0  0  0  0
    1.4737    1.1361   -0.0234 N   0  0  0  0  0  0  0  0  0  0  0  0
    2.2253    0.0352   -0.0061 C   0  0  0  0  0  0  0  0  0  0  0  0
    1.5554   -1.1507    0.0090 N   0  0  0  0  0  0  0  0  0  0  0  0
   -3.4041    1.2858    0.1516 C   0  0  0  0  0  0  0  0  0  0  0  0
   -4.3144    1.1593    1.2116 C   0  0  0  0  0  0  0  0  0  0  0  0
   -5.4828    1.9422    1.2550 C   0  0  0  0  0  0  0  0  0  0  0  0
   -5.6828    2.9288    0.2882 C   0  0  0  0  0  0  0  0  0  0  0  0
   -4.6126    3.1061   -0.5961 C   0  0  0  0  0  0  0  0  0  0  0  0
   -3.6313    2.1925   -0.8370 C   0  0  0  0  0  0  0  0  0  0  0  0
   -6.9911    3.7457    0.1676 C   0  0  1  0  0  0  0  0  0  0  0  0
   -6.8669    5.2986    0.3961 C   0  0  1  0  0  0  0  0  0  0  0  0
   -6.1094    6.1515   -0.7088 C   0  0  0  0  0  0  0  0  0  0  0  0
   -6.9308    6.7852   -1.6512 N   0  0  0  0  0  0  0  0  0  0  0  0
   -7.9117    3.3449   -1.0800 C   0  0  0  0  0  0  0  0  0  0  0  0
   -8.2278    5.8648    0.6095 N   0  0  0  0  0  0  0  0  0  0  0  0
   -4.8673    6.1461   -0.8099 O   0  0  0  0  0  0  0  0  0  0  0  0
   -9.0370    2.8703   -0.8819 O   0  0  0  0  0  0  0  0  0  0  0  0
   -7.4972    3.5959   -2.3962 N   0  0  0  0  0  0  0  0  0  0  0  0
   -6.1603    3.9152   -2.7316 C   0  0  0  0  0  0  0  0  0  0  0  0
   -8.3224    3.3331   -3.5436 C   0  0  0  0  0  0  0  0  0  0  0  0
   -7.4278    8.0835   -1.2623 C   0  0  0  0  0  0  0  0  0  0  0  0
   -7.2184    8.9933   -2.4615 C   0  0  2  0  0  0  0  0  0  0  0  0
   -7.3365    8.0756   -3.6448 C   0  0  0  0  0  0  0  0  0  0  0  0
   -6.6996    6.8200   -3.1035 C   0  0  0  0  0  0  0  0  0  0  0  0
   -5.9551    9.4930   -2.4336 F   0  0  0  0  0  0  0  0  0  0  0  0
  1  2  1  0
  1  6  1  0
  1  9  2  0
  2  3  2  0
  3  4  1  0
  4  5  2  0
  4 10  1  0
  5  6  1  0
  6  7  1  0
  7  8  2  0
  8  9  1  0
 10 11  2  0
 10 15  1  0
 11 12  1  0
 12 13  2  0
 13 14  1  0
 13 16  1  0
 14 15  2  0
 16 17  1  0
 16 20  1  6
 17 18  1  0
 17 21  1  6
 18 19  1  0
 18 22  2  0
 19 27  1  0
 19 30  1  0
 20 23  2  0
 20 24  1  0
 24 25  1  0
 24 26  1  0
 27 28  1  0
 28 29  1  0
 28 31  1  1
 29 30  1  0
M  END
>  <DRUGBANK_ID>  (1) 
DB08504

>  <COMMON_NAME>  (1) 
6-(4-{(1S,2S)-2-AMINO-1-[(DIMETHYLAMINO)CARBONYL]-3-[(3S)-3-FLUOROPYRROLIDIN-1-YL]-3-OXOPROPYL}PHENYL)-1H-[1,2,4]TRIAZOLO[1,5-A]PYRIDIN-4-IUM

$$$$
