1482
     RDKit          3D

 25 27  0  0  1  0  0  0  0  0999 V2000
    1.1596   -0.0158    0.6857 O   0  0  0  0  0  0  0  0  0  0  0  0
    5.0514   -2.2506   -0.0515 O   0  0  0  0  0  0  0  0  0  0  0  0
    2.7175    2.5635    0.0682 N   0  0  0  0  0  0  0  0  0  0  0  0
    0.3624    1.3751   -1.3767 N   0  0  0  0  0  0  0  0  0  0  0  0
    5.1408    0.0449   -0.0021 N   0  0  0  0  0  0  0  0  0  0  0  0
    3.0645   -1.1243    0.0577 N   0  0  0  0  0  0  0  0  0  0  0  0
    4.9475    2.4935   -0.0368 N   0  0  0  0  0  0  0  0  0  0  0  0
   -0.2864    0.8438   -2.5588 C   0  0  0  0  0  0  0  0  0  0  0  0
    1.3759    3.1357    0.0282 C   0  0  0  0  0  0  0  0  0  0  0  0
    0.5672    2.8069   -1.2481 C   0  0  0  0  0  0  0  0  0  0  0  0
    3.0802    1.2391    0.1690 C   0  0  0  0  0  0  0  0  0  0  0  0
    0.5372    1.1980   -3.8224 C   0  0  0  0  0  0  0  0  0  0  0  0
    4.4373    1.2298    0.0291 C   0  0  0  0  0  0  0  0  0  0  0  0
   -0.4152   -0.6807   -2.3580 C   0  0  0  0  0  0  0  0  0  0  0  0
    3.8893    3.2825    0.0009 C   0  0  0  0  0  0  0  0  0  0  0  0
    2.3409    0.0270    0.3340 C   0  0  0  0  0  0  0  0  0  0  0  0
    1.9723    0.6852   -3.8283 C   0  0  0  0  0  0  0  0  0  0  0  0
    4.4549   -1.1703   -0.0127 C   0  0  0  0  0  0  0  0  0  0  0  0
    6.5847    0.0229   -0.0257 C   0  0  0  0  0  0  0  0  0  0  0  0
    2.3276   -2.3752    0.0493 C   0  0  0  0  0  0  0  0  0  0  0  0
    2.2491   -0.6895   -3.8856 C   0  0  0  0  0  0  0  0  0  0  0  0
    3.0547    1.5695   -3.7380 C   0  0  0  0  0  0  0  0  0  0  0  0
    3.5469   -1.1778   -3.7624 C   0  0  0  0  0  0  0  0  0  0  0  0
    4.3650    1.0837   -3.6955 C   0  0  0  0  0  0  0  0  0  0  0  0
    4.6091   -0.2884   -3.6918 C   0  0  0  0  0  0  0  0  0  0  0  0
  1 16  2  0
  2 18  2  0
  3  9  1  0
  3 11  1  0
  3 15  1  0
  4  8  1  0
  4 10  1  0
  5 13  1  0
  5 18  1  0
  5 19  1  0
  6 16  1  0
  6 18  1  0
  6 20  1  0
  7 13  1  0
  7 15  2  0
  8 12  1  0
  8 14  1  0
  9 10  1  0
 11 13  2  0
 11 16  1  0
 12 17  1  0
 17 21  2  0
 17 22  1  0
 21 23  1  0
 22 24  2  0
 23 25  2  0
 24 25  1  0
M  END
>  <DRUGBANK_ID>  (1) 
DB01482

>  <COMMON_NAME>  (1) 
Fenethylline

>  <CAS_NUMBER>  (1) 
3736-08-1

>  <UNII>  (1) 
YZ0N7VL5R3

>  <SYNONYMS>  (1) 
Amfetyline; Fenethylline; Fenetilina; Fenetillina; Fenetylline; Fenetyllinum

$$$$
