
     RDKit          3D

 31 33  0  0  0  0  0  0  0  0999 V2000
    1.4501   -0.1683   -0.1265 C   0  0  0  0  0  0  0  0  0  0  0  0
    0.5831   -1.2405   -0.3476 C   0  0  0  0  0  0  0  0  0  0  0  0
   -0.7358   -0.9502   -0.7154 C   0  0  0  0  0  0  0  0  0  0  0  0
   -1.2423    0.3503   -0.5901 C   0  0  0  0  0  0  0  0  0  0  0  0
   -0.4100    1.3985   -0.1992 C   0  0  0  0  0  0  0  0  0  0  0  0
    0.9653    1.1490   -0.1121 C   0  0  0  0  0  0  0  0  0  0  0  0
    1.0132   -2.6734   -0.1096 C   0  0  0  0  0  0  0  0  0  0  0  0
    0.4876   -3.3557    1.1871 C   0  0  0  0  0  0  0  0  0  0  0  0
   -1.0147   -3.4391    1.3241 C   0  0  0  0  0  0  0  0  0  0  0  0
   -1.9400   -2.3852    1.6389 C   0  0  0  0  0  0  0  0  0  0  0  0
   -3.1946   -2.8578    1.3504 C   0  0  0  0  0  0  0  0  0  0  0  0
   -3.1284   -4.2026    1.1583 N   0  0  0  0  0  0  0  0  0  0  0  0
   -1.7980   -4.5741    1.1526 C   0  0  0  0  0  0  0  0  0  0  0  0
   -1.7870   -0.9779    2.0286 C   0  0  0  0  0  0  0  0  0  0  0  0
   -2.9158   -0.1764    1.8473 N   0  0  0  0  0  0  0  0  0  0  0  0
   -4.0429   -0.7005    1.4696 C   0  0  0  0  0  0  0  0  0  0  0  0
   -4.2675   -2.0447    1.2786 N   0  0  0  0  0  0  0  0  0  0  0  0
   -5.0775    0.1189    1.1422 N   0  0  0  0  0  0  0  0  0  0  0  0
   -1.0512    2.6843    0.2433 C   0  0  0  0  0  0  0  0  0  0  0  0
   -0.2091    3.7369    0.5265 N   0  0  0  0  0  0  0  0  0  0  0  0
   -0.7079    5.0897    0.7602 C   0  0  1  0  0  0  0  0  0  0  0  0
   -0.0319    5.6715    2.0186 C   0  0  0  0  0  0  0  0  0  0  0  0
    1.5050    5.7323    2.0325 C   0  0  0  0  0  0  0  0  0  0  0  0
    2.1734    6.6423    1.0199 C   0  0  0  0  0  0  0  0  0  0  0  0
    2.4972    7.8711    1.4778 O   0  0  0  0  0  0  0  0  0  0  0  0
   -2.2695    2.7897    0.3659 O   0  0  0  0  0  0  0  0  0  0  0  0
   -0.5525    5.8972   -0.5493 C   0  0  0  0  0  0  0  0  0  0  0  0
   -1.5408    6.7858   -0.8006 O   0  0  0  0  0  0  0  0  0  0  0  0
    0.3518    5.7438   -1.3526 O   0  0  0  0  0  0  0  0  0  0  0  0
    2.4807    6.2922   -0.0915 O   0  0  0  0  0  0  0  0  0  0  0  0
   -0.7201   -0.5392    2.4339 O   0  0  0  0  0  0  0  0  0  0  0  0
  1  2  2  0
  1  6  1  0
  2  3  1  0
  2  7  1  0
  3  4  2  0
  4  5  1  0
  5  6  2  0
  5 19  1  0
  7  8  1  0
  8  9  1  0
  9 10  1  0
  9 13  2  0
 10 11  2  0
 10 14  1  0
 11 12  1  0
 11 17  1  0
 12 13  1  0
 14 15  1  0
 14 31  2  0
 15 16  2  0
 16 17  1  0
 16 18  1  0
 19 20  1  0
 19 26  2  0
 20 21  1  0
 21 22  1  1
 21 27  1  0
 22 23  1  0
 23 24  1  0
 24 25  1  0
 24 30  2  0
 27 28  1  0
 27 29  2  0
M  END
>  <DRUGBANK_ID>  (1) 
DB00642

>  <SECONDARY_ACCESSION_NUMBERS>  (1) 
APRD00573; EXPT02075

>  <COMMON_NAME>  (1) 
Pemetrexed

>  <CAS_NUMBER>  (1) 
137281-23-3

>  <UNII>  (1) 
04Q9AIZ7NO

>  <SYNONYMS>  (1) 
Pemetrexed

$$$$
