
     RDKit          3D

 30 33  0  0  1  0  0  0  0  0999 V2000
  -11.7865    0.0517   -6.5863 N   0  0  0  0  0  0  0  0  0  0  0  0
  -10.3281    0.2185   -6.6652 C   0  0  0  0  0  0  0  0  0  0  0  0
   -9.6796    0.0061   -7.8309 N   0  0  0  0  0  0  0  0  0  0  0  0
   -8.3314    0.1454   -7.9307 C   0  0  0  0  0  0  0  0  0  0  0  0
   -7.5756    0.5146   -6.8726 N   0  0  0  0  0  0  0  0  0  0  0  0
   -8.1818    0.7511   -5.6372 C   0  0  0  0  0  0  0  0  0  0  0  0
   -9.5924    0.6011   -5.5240 C   0  0  0  0  0  0  0  0  0  0  0  0
   -9.8971    0.8833   -4.2582 N   0  0  0  0  0  0  0  0  0  0  0  0
   -8.7817    1.1891   -3.6118 C   0  0  0  0  0  0  0  0  0  0  0  0
   -7.7445    1.1142   -4.4207 N   0  0  0  0  0  0  0  0  0  0  0  0
   -6.3465    1.3826   -4.0539 C   0  0  2  0  0  0  0  0  0  0  0  0
   -5.6441    2.7701   -5.0609 O   0  0  0  0  0  0  0  0  0  0  0  0
   -4.4563    1.7994   -6.1058 C   0  0  1  0  0  0  0  0  0  0  0  0
   -3.0008    1.8550   -5.6713 C   0  0  0  0  0  0  0  0  0  0  0  0
   -2.2220    1.0225   -6.5180 O   0  0  0  0  0  0  0  0  0  0  0  0
   -2.4973    1.5688   -8.1362 P   0  0  0  0  0  0  0  0  0  0  0  0
   -4.0013    0.7144   -8.1687 O   0  0  0  0  0  0  0  0  0  0  0  0
   -1.9931    0.7268   -9.3339 O   0  0  0  0  0  0  0  0  0  0  0  0
   -0.9933    2.4231   -8.1037 O   0  0  0  0  0  0  0  0  0  0  0  0
   -1.2976    4.1261   -8.0929 P   0  0  0  0  0  0  0  0  0  0  0  0
   -0.2754    4.3000   -6.7080 O   0  0  0  0  0  0  0  0  0  0  0  0
   -0.6291    4.2557   -9.6832 O   0  0  0  0  0  0  0  0  0  0  0  0
   -1.5700    5.6503   -8.0832 O   0  0  0  0  0  0  0  0  0  0  0  0
   -5.1244    0.4309   -6.0035 C   0  0  1  0  0  0  0  0  0  0  0  0
   -4.4034   -0.7998   -6.2361 O   0  0  0  0  0  0  0  0  0  0  0  0
   -4.9725   -1.7193   -5.4010 V   0  0  0  0  0  6  0  0  0  0  0  0
   -6.1038   -2.8905   -6.4920 O   0  0  0  0  0  0  0  0  0  0  0  0
   -3.5457   -2.7205   -4.5047 O   0  0  0  0  0  0  0  0  0  0  0  0
   -5.7694   -1.1445   -4.4483 O   0  0  0  0  0  0  0  0  0  0  0  0
   -5.4452    0.2520   -4.4878 C   0  0  2  0  0  0  0  0  0  0  0  0
  1  2  1  0
  2  3  2  0
  2  7  1  0
  3  4  1  0
  4  5  2  0
  5  6  1  0
  6  7  2  0
  6 10  1  0
  7  8  1  0
  8  9  2  0
  9 10  1  0
 11 10  1  6
 11 12  1  0
 11 30  1  0
 12 13  1  0
 13 14  1  1
 13 24  1  0
 14 15  1  0
 16 18  2  0
 16 19  1  0
 16 17  1  0
 16 15  1  0
 19 20  1  0
 20 21  1  0
 20 22  1  0
 20 23  2  0
 24 25  1  1
 24 30  1  0
 25 26  1  0
 26 27  2  0
 26 28  2  0
 26 29  1  0
 30 29  1  6
M  END
>  <DRUGBANK_ID>  (1) 
DB02661

>  <SECONDARY_ACCESSION_NUMBERS>  (1) 
EXPT00592

>  <COMMON_NAME>  (1) 
Adenosine-5'-diphosphate-2',3'-vanadate

$$$$
