940
     RDKit          3D

 25 27  0  0  0  0  0  0  0  0999 V2000
    1.3003    0.7414    0.3132 O   0  0  0  0  0  0  0  0  0  0  0  0
    3.6960   -0.7771    4.3909 O   0  0  0  0  0  0  0  0  0  0  0  0
    3.1675    0.7399   -0.9157 O   0  0  0  0  0  0  0  0  0  0  0  0
    1.1623   -1.9141    1.5933 N   0  0  0  0  0  0  0  0  0  0  0  0
   -0.1468   -1.4280    1.2351 C   0  0  0  0  0  0  0  0  0  0  0  0
    1.3901   -1.0379    2.8313 C   0  0  0  0  0  0  0  0  0  0  0  0
    1.3014   -3.3046    2.0268 C   0  0  0  0  0  0  0  0  0  0  0  0
    1.9723   -1.8598    0.2354 C   0  0  0  0  0  0  0  0  0  0  0  0
   -0.0218    0.1255    0.9321 C   0  0  0  0  0  0  0  0  0  0  0  0
    0.8474   -1.3683    4.2243 C   0  0  0  0  0  0  0  0  0  0  0  0
    1.1012   -4.3636    0.9932 C   0  0  0  0  0  0  0  0  0  0  0  0
    3.8469    0.0928    1.5005 C   0  0  0  0  0  0  0  0  0  0  0  0
    2.7261    0.5712    0.1844 C   0  0  0  0  0  0  0  0  0  0  0  0
    4.3018   -1.5519    2.0647 C   0  0  0  0  0  0  0  0  0  0  0  0
    3.4910    1.0435    2.6661 C   0  0  0  0  0  0  0  0  0  0  0  0
    4.0693   -1.8499    3.4587 C   0  0  0  0  0  0  0  0  0  0  0  0
    3.3225    0.5665    3.9769 C   0  0  0  0  0  0  0  0  0  0  0  0
    4.5316   -2.7688    1.2187 C   0  0  0  0  0  0  0  0  0  0  0  0
    3.0013    2.3583    2.3232 C   0  0  0  0  0  0  0  0  0  0  0  0
    3.7433   -3.2884    3.8457 C   0  0  0  0  0  0  0  0  0  0  0  0
    2.4217    1.3526    4.8051 C   0  0  0  0  0  0  0  0  0  0  0  0
    4.2809   -4.1531    1.6359 C   0  0  0  0  0  0  0  0  0  0  0  0
    2.2684    3.1556    3.2039 C   0  0  0  0  0  0  0  0  0  0  0  0
    3.8513   -4.4249    2.9449 C   0  0  0  0  0  0  0  0  0  0  0  0
    1.9106    2.6228    4.4247 C   0  0  0  0  0  0  0  0  0  0  0  0
  1  9  1  0
  1 13  1  0
  2 16  1  0
  2 17  1  0
  3 13  2  0
  4  5  1  0
  4  6  1  0
  4  7  1  0
  4  8  1  0
  5  9  1  0
  6 10  1  0
  7 11  1  0
 12 13  1  0
 12 14  1  0
 12 15  1  0
 14 16  2  0
 14 18  1  0
 15 17  2  0
 15 19  1  0
 16 20  1  0
 17 21  1  0
 18 22  2  0
 19 23  2  0
 20 24  2  0
 21 25  2  0
 22 24  1  0
 23 25  1  0
M  CHG  1   4   1
M  END
>  <DRUGBANK_ID>  (1) 
DB00940

>  <SECONDARY_ACCESSION_NUMBERS>  (1) 
APRD00751

>  <COMMON_NAME>  (1) 
Methantheline

>  <CAS_NUMBER>  (1) 
5818-17-7

>  <UNII>  (1) 
36EI79TX7I

>  <SYNONYMS>  (1) 
Methantheline; Methantheline cation; Methantheline ion; Methanthelinium; Methanthelinum

$$$$
