122
     RDKit          3D

  7  6  0  0  0  0  0  0  0  0999 V2000
    0.7969    0.0265    0.1286 O   0  0  0  0  0  0  0  0  0  0  0  0
    2.5463   -0.0525   -2.3522 N   0  0  0  0  0  0  0  0  0  0  0  0
    0.9925   -0.0418   -2.2942 C   0  0  0  0  0  0  0  0  0  0  0  0
    3.0964   -1.4685   -2.3376 C   0  0  0  0  0  0  0  0  0  0  0  0
    2.9636    0.6238   -3.6566 C   0  0  0  0  0  0  0  0  0  0  0  0
    3.1513    0.7435   -1.1954 C   0  0  0  0  0  0  0  0  0  0  0  0
    0.3993   -0.6897   -1.0323 C   0  0  0  0  0  0  0  0  0  0  0  0
  1  7  1  0
  2  3  1  0
  2  4  1  0
  2  5  1  0
  2  6  1  0
  3  7  1  0
M  CHG  1   2   1
M  END
>  <DRUGBANK_ID>  (1) 
DB00122

>  <SECONDARY_ACCESSION_NUMBERS>  (1) 
NUTR00020

>  <COMMON_NAME>  (1) 
Choline

>  <CAS_NUMBER>  (1) 
62-49-7

>  <UNII>  (1) 
N91BDP6H0X

>  <SYNONYMS>  (1) 
Bilineurine; Choline ion; N-trimethylethanolamine; N,N,N-trimethylethanol-ammonium; trimethylethanolamine; Vitamin J

$$$$
