
     RDKit          3D

 22 23  0  0  0  0  0  0  0  0999 V2000
   -2.4379   -6.4822    0.7597 C   0  0  0  0  0  0  0  0  0  0  0  0
   -2.1375   -5.0235    0.9017 C   0  0  0  0  0  0  0  0  0  0  0  0
   -1.4846   -5.8236   -0.2175 C   0  0  0  0  0  0  0  0  0  0  0  0
    1.8004   -1.9528    2.2830 N   0  0  0  0  0  0  0  0  0  0  0  0
   -0.6599   -4.1257    4.4988 O   0  0  0  0  0  0  0  0  0  0  0  0
    1.6751   -3.0181    4.6057 C   0  0  1  0  0  0  0  0  0  0  0  0
   -0.2765   -5.2438    3.8229 C   0  0  0  0  0  0  0  0  0  0  0  0
    2.5466   -2.5892    3.3775 C   0  0  0  0  0  0  0  0  0  0  0  0
    0.1285   -2.9370    4.3612 C   0  0  0  0  0  0  0  0  0  0  0  0
    0.5168   -7.6038    2.5155 C   0  0  0  0  0  0  0  0  0  0  0  0
   -0.9398   -6.4191    4.0794 C   0  0  0  0  0  0  0  0  0  0  0  0
    0.7631   -5.2794    2.8934 C   0  0  0  0  0  0  0  0  0  0  0  0
   -0.5696   -7.6053    3.4170 C   0  0  0  0  0  0  0  0  0  0  0  0
    1.3071   -6.4805    2.4525 C   0  0  0  0  0  0  0  0  0  0  0  0
    2.1474   -4.2548    5.1657 O   0  0  0  0  0  0  0  0  0  0  0  0
   -0.0137   -6.0527   -0.2799 C   0  0  0  0  0  0  0  0  0  0  0  0
    0.3921   -7.3340   -0.7531 O   0  0  0  0  0  0  0  0  0  0  0  0
    2.5777   -1.5743    1.1077 C   0  0  0  0  0  0  0  0  0  0  0  0
    0.6933   -8.6684    1.4455 C   0  0  0  0  0  0  0  0  0  0  0  0
    0.0066   -8.4513    0.0560 C   0  0  0  0  0  0  0  0  0  0  0  0
    3.2820   -2.7708    0.4683 C   0  0  0  0  0  0  0  0  0  0  0  0
    1.5727   -0.9853    0.1075 C   0  0  0  0  0  0  0  0  0  0  0  0
  2  1  1  0
  3  1  1  0
  3  2  1  0
  4  8  1  0
  5  7  1  0
  6 15  1  6
  6  8  1  0
  6  9  1  0
  7 12  2  0
  9  5  1  0
 10 19  1  0
 11 13  2  0
 11  7  1  0
 12 14  1  0
 13 10  1  0
 14 10  2  0
 16  3  1  0
 17 16  1  0
 18  4  1  0
 19 20  1  0
 20 17  1  0
 21 18  1  0
 22 18  1  0
M  END
>  <DRUGBANK_ID>  (1) 
DB09351

>  <COMMON_NAME>  (1) 
Levobetaxolol

>  <CAS_NUMBER>  (1) 
93221-48-8

>  <UNII>  (1) 
75O9XHA4TU

>  <SYNONYMS>  (1) 
(S)-betaxolol; Levobetaxolol

$$$$
