A11
     RDKit          3D

 19 20  0  0  0  0  0  0  0  0999 V2000
   -2.1783    0.1461    0.0101 Cl  0  0  0  0  0  0  0  0  0  0  0  0
   -0.4625    0.0991    0.0159 C   0  0  0  0  0  0  0  0  0  0  0  0
    0.2917    1.2580    0.0137 C   0  0  0  0  0  0  0  0  0  0  0  0
    1.6649    1.1151    0.0058 C   0  0  0  0  0  0  0  0  0  0  0  0
    2.2864   -0.0905   -0.0081 N   0  0  0  0  0  0  0  0  0  0  0  0
    1.5153   -1.2044   -0.0283 C   0  0  0  0  0  0  0  0  0  0  0  0
    0.1506   -1.1352    0.0002 C   0  0  0  0  0  0  0  0  0  0  0  0
    2.1456   -2.3991   -0.1736 N   0  0  0  0  0  0  0  0  0  0  0  0
    1.7150   -3.7898   -0.0153 C   0  0  0  0  0  0  0  0  0  0  0  0
    0.5090   -4.5050   -0.6523 C   0  0  0  0  0  0  0  0  0  0  0  0
   -0.6777   -4.8402    0.2594 C   0  0  0  0  0  0  0  0  0  0  0  0
   -0.2315   -5.3534    1.5479 N   0  0  0  0  0  0  0  0  0  0  0  0
    0.6801   -4.4605    2.2439 C   0  0  0  0  0  0  0  0  0  0  0  0
    1.9604   -4.2537    1.4219 C   0  0  0  0  0  0  0  0  0  0  0  0
   -0.6458   -6.6012    2.0030 C   0  0  0  0  0  0  0  0  0  0  0  0
   -1.3346   -7.3646    1.3153 O   0  0  0  0  0  0  0  0  0  0  0  0
   -0.2395   -6.9160    3.2676 O   0  0  0  0  0  0  0  0  0  0  0  0
   -0.6437   -8.2063    3.7960 C   0  0  0  0  0  0  0  0  0  0  0  0
   -2.1479   -8.3182    4.0105 C   0  0  0  0  0  0  0  0  0  0  0  0
  1  2  1  0
  2  3  2  0
  2  7  1  0
  3  4  1  0
  4  5  2  0
  5  6  1  0
  6  7  2  0
  6  8  1  0
  8  9  1  0
  9 10  1  0
  9 14  1  0
 10 11  1  0
 11 12  1  0
 12 13  1  0
 12 15  1  0
 13 14  1  0
 15 16  2  0
 15 17  1  0
 17 18  1  0
 18 19  1  0
M  END
>  <DRUGBANK_ID>  (1) 
DB07306

>  <COMMON_NAME>  (1) 
ETHYL 4-[(4-CHLOROPYRIDIN-2-YL)AMINO]PIPERIDINE-1-CARBOXYLATE

$$$$
