M08
     RDKit          3D

 21 23  0  0  0  0  0  0  0  0999 V2000
    1.3950   -0.2738   -0.0186 C   0  0  0  0  0  0  0  0  0  0  0  0
    0.8873    1.0308   -0.0150 C   0  0  0  0  0  0  0  0  0  0  0  0
   -0.4897    1.2446    0.0049 C   0  0  0  0  0  0  0  0  0  0  0  0
   -1.3607    0.1547   -0.0343 C   0  0  0  0  0  0  0  0  0  0  0  0
   -0.8559   -1.1542   -0.0721 C   0  0  0  0  0  0  0  0  0  0  0  0
    0.5263   -1.3707   -0.0626 C   0  0  0  0  0  0  0  0  0  0  0  0
    1.0996   -2.7401   -0.0028 C   0  0  0  0  0  0  0  0  0  0  0  0
    0.7795   -3.7973   -1.0143 C   0  0  0  0  0  0  0  0  0  0  0  0
    1.9555   -3.0956    0.8928 N   0  0  0  0  0  0  0  0  0  0  0  0
    2.2075   -4.4818    0.7077 O   0  0  0  0  0  0  0  0  0  0  0  0
    1.2382   -5.0209   -0.2174 C   0  0  2  0  0  0  0  0  0  0  0  0
    1.8598   -6.0233   -1.0635 O   0  0  0  0  0  0  0  0  0  0  0  0
    2.3388   -7.1613   -0.3024 C   0  0  2  0  0  0  0  0  0  0  0  0
    3.0762   -8.1555   -1.2221 C   0  0  0  0  0  0  0  0  0  0  0  0
    4.1462   -8.7872   -0.5172 O   0  0  0  0  0  0  0  0  0  0  0  0
    1.1642   -7.8698    0.3974 C   0  0  1  0  0  0  0  0  0  0  0  0
    1.5440   -9.0047    1.1835 O   0  0  0  0  0  0  0  0  0  0  0  0
    0.4399   -6.8730    1.3128 C   0  0  2  0  0  0  0  0  0  0  0  0
   -0.7349   -7.5148    1.8406 O   0  0  0  0  0  0  0  0  0  0  0  0
    0.0198   -5.6492    0.5007 C   0  0  1  0  0  0  0  0  0  0  0  0
   -0.6815   -4.6895    1.2986 O   0  0  0  0  0  0  0  0  0  0  0  0
  1  6  2  0
  1  2  1  0
  2  3  2  0
  3  4  1  0
  5  4  2  0
  6  5  1  0
  7  6  1  0
  8  7  1  0
  9  7  2  0
 10  9  1  0
 11 12  1  0
 11 10  1  0
 11  8  1  6
 13 12  1  0
 13 14  1  6
 15 14  1  0
 16 13  1  0
 16 17  1  1
 18 16  1  0
 18 20  1  0
 18 19  1  6
 20 11  1  0
 20 21  1  1
M  END
>  <DRUGBANK_ID>  (1) 
DB08151

>  <COMMON_NAME>  (1) 
(5R,7R,8S,9S,10R)-7-(hydroxymethyl)-3-phenyl-1,6-dioxa-2-azaspiro[4.5]dec-2-ene-8,9,10-triol

$$$$
