
     RDKit          3D

 34 37  0  0  1  0  0  0  0  0999 V2000
    7.0926   -7.4018    1.0497 C   0  0  0  0  0  0  0  0  0  0  0  0
    6.2731   -7.6624    2.0727 N   0  0  0  0  0  0  0  0  0  0  0  0
    5.4454   -6.6789    2.4557 C   0  0  0  0  0  0  0  0  0  0  0  0
    5.4762   -5.4345    1.8150 C   0  0  0  0  0  0  0  0  0  0  0  0
    6.3597   -5.2603    0.7508 C   0  0  0  0  0  0  0  0  0  0  0  0
    7.1738   -6.2516    0.3609 N   0  0  0  0  0  0  0  0  0  0  0  0
    4.6379   -4.3844    2.1914 C   0  0  0  0  0  0  0  0  0  0  0  0
    4.6009   -3.1597    1.5477 C   0  0  0  0  0  0  0  0  0  0  0  0
    5.5285   -2.9348    0.5266 C   0  0  0  0  0  0  0  0  0  0  0  0
    6.3721   -4.0063    0.1236 C   0  0  0  0  0  0  0  0  0  0  0  0
    4.5471   -6.9260    3.5187 N   0  0  0  0  0  0  0  0  0  0  0  0
    3.6129   -2.2356    1.9470 N   0  0  0  0  0  0  0  0  0  0  0  0
    2.8414   -2.2421    3.0833 C   0  0  0  0  0  0  0  0  0  0  0  0
    2.0895   -0.9797    3.3123 C   0  0  0  0  0  0  0  0  0  0  0  0
    1.2414   -0.9424    4.3513 C   0  0  0  0  0  0  0  0  0  0  0  0
    4.4310   -8.1115    4.2526 C   0  0  0  0  0  0  0  0  0  0  0  0
    3.2300   -8.8323    4.2722 C   0  0  0  0  0  0  0  0  0  0  0  0
    3.1749  -10.0634    4.9290 C   0  0  0  0  0  0  0  0  0  0  0  0
    4.3024  -10.5529    5.5867 C   0  0  0  0  0  0  0  0  0  0  0  0
    5.4874   -9.8285    5.5967 C   0  0  0  0  0  0  0  0  0  0  0  0
    5.5500   -8.6150    4.9229 C   0  0  0  0  0  0  0  0  0  0  0  0
    4.2715  -11.7366    6.2156 F   0  0  0  0  0  0  0  0  0  0  0  0
    1.7191  -10.9840    4.8930 Cl  0  0  0  0  0  0  0  0  0  0  0  0
    2.7399   -3.1685    3.8934 O   0  0  0  0  0  0  0  0  0  0  0  0
    0.3688    0.2185    4.7003 C   0  0  0  0  0  0  0  0  0  0  0  0
   -1.0503   -0.1339    4.5660 N   0  0  0  0  0  0  0  0  0  0  0  0
   -1.8831    1.0021    4.9672 C   0  0  0  0  0  0  0  0  0  0  0  0
   -1.3806   -0.5163    3.1898 C   0  0  0  0  0  0  0  0  0  0  0  0
    5.8276   -1.7462   -0.0807 O   0  0  0  0  0  0  0  0  0  0  0  0
    4.9843   -0.5988   -0.0219 C   0  0  1  0  0  0  0  0  0  0  0  0
    4.9468    0.2170    1.2716 C   0  0  0  0  0  0  0  0  0  0  0  0
    4.5769    1.5962    0.7913 C   0  0  0  0  0  0  0  0  0  0  0  0
    5.1275    1.7382   -0.5126 O   0  0  0  0  0  0  0  0  0  0  0  0
    5.5780    0.4499   -0.9512 C   0  0  0  0  0  0  0  0  0  0  0  0
  1  2  2  0
  1  6  1  0
  2  3  1  0
  3  4  2  0
  3 11  1  0
  4  5  1  0
  4  7  1  0
  5  6  2  0
  5 10  1  0
  7  8  2  0
  8  9  1  0
  8 12  1  0
  9 10  2  0
  9 29  1  0
 11 16  1  0
 12 13  1  0
 13 14  1  0
 13 24  2  0
 14 15  2  0
 15 25  1  0
 16 17  2  0
 16 21  1  0
 17 18  1  0
 18 19  2  0
 18 23  1  0
 19 20  1  0
 19 22  1  0
 20 21  2  0
 25 26  1  0
 26 27  1  0
 26 28  1  0
 30 31  1  0
 30 34  1  0
 30 29  1  1
 31 32  1  0
 32 33  1  0
 33 34  1  0
M  END
>  <DRUGBANK_ID>  (1) 
DB08916

>  <COMMON_NAME>  (1) 
Afatinib

>  <CAS_NUMBER>  (1) 
850140-72-6

>  <UNII>  (1) 
41UD74L59M

>  <SYNONYMS>  (1) 
Afatinib; Afatinibum

$$$$
