
     RDKit          3D

 37 40  0  0  1  0  0  0  0  0999 V2000
    2.5917   -0.1064   -0.0302 C   0  0  0  0  0  0  0  0  0  0  0  0
    1.1023   -0.1212    0.0024 C   0  0  0  0  0  0  0  0  0  0  0  0
    0.4693    1.0947    0.0848 C   0  0  0  0  0  0  0  0  0  0  0  0
   -0.9041    1.1556    0.2136 C   0  0  0  0  0  0  0  0  0  0  0  0
   -1.7433    0.0463    0.1358 C   0  0  0  0  0  0  0  0  0  0  0  0
   -1.0826   -1.1969    0.0341 C   0  0  0  0  0  0  0  0  0  0  0  0
    0.3246   -1.2809   -0.0028 C   0  0  0  0  0  0  0  0  0  0  0  0
   -3.2562    0.0698    0.1015 C   0  0  0  0  0  0  0  0  0  0  0  0
   -3.7774   -1.0723    0.0426 O   0  0  0  0  0  0  0  0  0  0  0  0
   -4.0843    1.2310    0.0773 N   0  0  0  0  0  0  0  0  0  0  0  0
   -3.6887    2.5672    0.5541 C   0  0  0  0  0  0  0  0  0  0  0  0
   -4.1712    3.7821   -0.1658 C   0  0  0  0  0  0  0  0  0  0  0  0
   -5.5889    4.1375   -0.3931 C   0  0  0  0  0  0  0  0  0  0  0  0
   -6.0735    4.7915    0.7543 N   0  0  0  0  0  0  0  0  0  0  0  0
   -5.5418    1.0057    0.0116 C   0  0  1  0  0  0  0  0  0  0  0  0
   -6.0348    0.4914   -1.4121 C   0  0  0  0  0  0  0  0  0  0  0  0
   -6.1421   -0.8038   -1.4220 N   0  0  0  0  0  0  0  0  0  0  0  0
   -6.3354   -1.4764   -2.6116 C   0  0  0  0  0  0  0  0  0  0  0  0
   -6.1335   -2.8480   -2.6647 C   0  0  0  0  0  0  0  0  0  0  0  0
   -6.1426   -3.4803   -3.9061 C   0  0  0  0  0  0  0  0  0  0  0  0
   -6.3884   -2.7635   -5.0784 C   0  0  0  0  0  0  0  0  0  0  0  0
   -6.7702   -1.4393   -4.9978 C   0  0  0  0  0  0  0  0  0  0  0  0
   -6.6635   -0.8069   -3.7704 C   0  0  0  0  0  0  0  0  0  0  0  0
   -6.7311    0.6390   -3.7404 C   0  0  0  0  0  0  0  0  0  0  0  0
   -7.1138    1.2105   -4.7432 O   0  0  0  0  0  0  0  0  0  0  0  0
   -6.2691    1.2608   -2.5750 N   0  0  0  0  0  0  0  0  0  0  0  0
   -6.1994    2.7267   -2.8574 C   0  0  0  0  0  0  0  0  0  0  0  0
   -4.7216    3.3189   -3.0907 C   0  0  0  0  0  0  0  0  0  0  0  0
   -3.5911    2.4529   -2.9634 C   0  0  0  0  0  0  0  0  0  0  0  0
   -2.3051    2.9494   -2.5496 C   0  0  0  0  0  0  0  0  0  0  0  0
   -2.1106    4.3112   -2.2294 C   0  0  0  0  0  0  0  0  0  0  0  0
   -3.1660    5.2092   -2.4595 C   0  0  0  0  0  0  0  0  0  0  0  0
   -4.4274    4.7381   -2.9749 C   0  0  0  0  0  0  0  0  0  0  0  0
   -5.9117   -5.1778   -4.0046 Cl  0  0  0  0  0  0  0  0  0  0  0  0
   -6.1231    0.3570    1.2904 C   0  0  0  0  0  0  0  0  0  0  0  0
   -5.6429    1.1510    2.5304 C   0  0  0  0  0  0  0  0  0  0  0  0
   -7.6541    0.4716    1.2147 C   0  0  0  0  0  0  0  0  0  0  0  0
  1  2  1  0
  2  3  2  0
  2  7  1  0
  3  4  1  0
  4  5  2  0
  5  6  1  0
  5  8  1  0
  6  7  2  0
  8  9  2  0
  8 10  1  0
 10 11  1  0
 11 12  1  0
 12 13  1  0
 13 14  1  0
 15 10  1  0
 15 16  1  0
 15 35  1  1
 16 17  2  0
 16 26  1  0
 17 18  1  0
 18 19  2  0
 18 23  1  0
 19 20  1  0
 20 21  2  0
 20 34  1  0
 21 22  1  0
 22 23  2  0
 23 24  1  0
 24 25  2  0
 24 26  1  0
 26 27  1  0
 27 28  1  0
 28 29  2  0
 28 33  1  0
 29 30  1  0
 30 31  2  0
 31 32  1  0
 32 33  2  0
 35 36  1  0
 35 37  1  0
M  END
>  <DRUGBANK_ID>  (1) 
DB06188

>  <COMMON_NAME>  (1) 
Ispinesib

>  <CAS_NUMBER>  (1) 
336113-53-2

>  <UNII>  (1) 
BKT5F9C2NI

>  <SYNONYMS>  (1) 
Ispinesib

$$$$
