APL
     RDKit          3D

 19 19  0  0  0  0  0  0  0  0999 V2000
    3.2736   -5.4232   -0.6960 C   0  0  0  0  0  0  0  0  0  0  0  0
    3.7288   -4.5769    0.4520 C   0  0  0  0  0  0  0  0  0  0  0  0
    4.7800   -4.8386    1.0506 O   0  0  0  0  0  0  0  0  0  0  0  0
    2.9885   -3.5190    0.8821 N   0  0  0  0  0  0  0  0  0  0  0  0
    1.7510   -2.8669    0.3599 C   0  0  2  0  0  0  0  0  0  0  0  0
    0.9268   -2.1055    1.4942 C   0  0  0  0  0  0  0  0  0  0  0  0
    1.8723   -1.3531    2.4520 C   0  0  0  0  0  0  0  0  0  0  0  0
    0.8548   -3.8940   -0.3630 C   0  0  0  0  0  0  0  0  0  0  0  0
    0.0312   -1.1155    0.9623 O   0  0  0  0  0  0  0  0  0  0  0  0
    0.0935   -3.0502    2.1733 O   0  0  0  0  0  0  0  0  0  0  0  0
    2.5995   -0.4468    1.7513 F   0  0  0  0  0  0  0  0  0  0  0  0
    1.1688   -0.6751    3.3883 F   0  0  0  0  0  0  0  0  0  0  0  0
    2.7321   -2.1705    3.0897 F   0  0  0  0  0  0  0  0  0  0  0  0
   -0.3817   -3.4356   -1.0461 C   0  0  0  0  0  0  0  0  0  0  0  0
   -1.3657   -4.3756   -1.3461 C   0  0  0  0  0  0  0  0  0  0  0  0
   -2.5656   -3.9419   -1.8837 C   0  0  0  0  0  0  0  0  0  0  0  0
   -2.7939   -2.5752   -2.0527 C   0  0  0  0  0  0  0  0  0  0  0  0
   -1.7919   -1.6532   -1.7869 C   0  0  0  0  0  0  0  0  0  0  0  0
   -0.5437   -2.1111   -1.4318 C   0  0  0  0  0  0  0  0  0  0  0  0
  1  2  1  0
  2  3  2  0
  2  4  1  0
  5  8  1  1
  5  6  1  0
  5  4  1  0
  6  7  1  0
  6  9  1  0
  6 10  1  0
  7 11  1  0
  7 12  1  0
  7 13  1  0
  8 14  1  0
 14 15  2  0
 14 19  1  0
 15 16  1  0
 16 17  2  0
 17 18  1  0
 18 19  2  0
M  END
>  <DRUGBANK_ID>  (1) 
DB07383

>  <COMMON_NAME>  (1) 
N-(1-BENZYL-3,3,3-TRIFLUORO-2,2-DIHYDROXY-PROPYL)-ACETAMIDE

$$$$
