
     RDKit          3D

 35 36  0  0  0  0  0  0  0  0999 V2000
    1.0391    0.2124    0.0676 C   0  0  0  0  0  0  0  0  0  0  0  0
    0.6416   -0.3861   -1.2689 C   0  0  0  0  0  0  0  0  0  0  0  0
    1.2318   -1.8017   -1.3805 C   0  0  0  0  0  0  0  0  0  0  0  0
    0.7154   -2.7010   -0.2561 C   0  0  0  0  0  0  0  0  0  0  0  0
   -0.7934   -2.6464   -0.2779 C   0  0  0  0  0  0  0  0  0  0  0  0
   -1.3051   -2.9039   -1.7091 C   0  0  0  0  0  0  0  0  0  0  0  0
   -1.3000   -4.3275   -2.1824 C   0  0  0  0  0  0  0  0  0  0  0  0
   -2.2278   -5.1478   -1.3411 C   0  0  0  0  0  0  0  0  0  0  0  0
   -3.5919   -5.4611   -1.4229 O   0  0  0  0  0  0  0  0  0  0  0  0
   -4.2487   -4.4160   -0.8973 C   0  0  0  0  0  0  0  0  0  0  0  0
   -4.1825   -3.3315   -1.7686 C   0  0  0  0  0  0  0  0  0  0  0  0
   -4.5032   -2.0769   -1.3382 C   0  0  0  0  0  0  0  0  0  0  0  0
   -5.3599   -2.0180   -0.2728 C   0  0  0  0  0  0  0  0  0  0  0  0
   -5.6421   -3.1872    0.4773 C   0  0  0  0  0  0  0  0  0  0  0  0
   -4.9045   -4.3800    0.3129 C   0  0  0  0  0  0  0  0  0  0  0  0
   -5.0017   -5.4978    1.3356 C   0  0  0  0  0  0  0  0  0  0  0  0
   -5.9324   -5.4133    2.1480 O   0  0  0  0  0  0  0  0  0  0  0  0
   -4.2034   -6.6538    1.4299 N   0  0  0  0  0  0  0  0  0  0  0  0
   -2.8948   -6.9943    1.0075 C   0  0  0  0  0  0  0  0  0  0  0  0
   -1.7970   -6.1656    1.2344 C   0  0  0  0  0  0  0  0  0  0  0  0
   -0.6128   -6.3144    0.4481 C   0  0  0  0  0  0  0  0  0  0  0  0
   -0.5892   -7.2684   -0.5922 C   0  0  0  0  0  0  0  0  0  0  0  0
   -1.5026   -8.3276   -0.5108 C   0  0  0  0  0  0  0  0  0  0  0  0
   -2.6820   -8.1612    0.2539 C   0  0  0  0  0  0  0  0  0  0  0  0
    0.0446   -6.9624   -2.0669 C   0  0  0  0  0  0  0  0  0  0  0  0
   -0.1881   -7.6545   -3.0059 O   0  0  0  0  0  0  0  0  0  0  0  0
    1.1456   -6.0885   -1.9686 O   0  0  0  0  0  0  0  0  0  0  0  0
    2.2868   -6.1284   -2.9131 C   0  0  0  0  0  0  0  0  0  0  0  0
    3.4332   -7.0823   -2.4058 C   0  0  0  0  0  0  0  0  0  0  0  0
    2.9760   -8.5578   -2.1576 N   0  0  0  0  0  0  0  0  0  0  0  0
    2.4021   -9.0282   -3.5549 C   0  0  0  0  0  0  0  0  0  0  0  0
    4.0377   -9.5434   -1.7506 C   0  0  0  0  0  0  0  0  0  0  0  0
    4.6314   -9.1869   -0.4013 C   0  0  0  0  0  0  0  0  0  0  0  0
    1.9836   -8.6859   -1.0233 C   0  0  0  0  0  0  0  0  0  0  0  0
    2.1489   -7.9509    0.3186 C   0  0  0  0  0  0  0  0  0  0  0  0
  1  2  1  0
  2  3  1  0
  3  4  1  0
  4  5  1  0
  5  6  1  0
  6  7  1  0
  7  8  1  0
  8  9  1  0
  9 10  1  0
 10 11  2  0
 10 15  1  0
 11 12  1  0
 12 13  2  0
 13 14  1  0
 14 15  2  0
 15 16  1  0
 16 17  2  0
 16 18  1  0
 18 19  1  0
 19 20  2  0
 19 24  1  0
 20 21  1  0
 21 22  2  0
 22 23  1  0
 22 25  1  0
 23 24  2  0
 25 26  2  0
 25 27  1  0
 27 28  1  0
 28 29  1  0
 29 30  1  0
 30 31  1  0
 30 32  1  0
 30 34  1  0
 32 33  1  0
 34 35  1  0
M  CHG  1  30   1
M  END
>  <DRUGBANK_ID>  (1) 
DB13500

>  <COMMON_NAME>  (1) 
Otilonium

>  <CAS_NUMBER>  (1) 
105360-89-2

>  <UNII>  (1) 
6330179ARU

$$$$
