1055
     RDKit          3D

 14 14  0  0  1  0  0  0  0  0999 V2000
    0.8610    0.0530   -0.0678 O   0  0  0  0  0  0  0  0  0  0  0  0
    0.2492   -3.8306   -4.3148 O   0  0  0  0  0  0  0  0  0  0  0  0
    0.9646   -1.6395    1.3867 O   0  0  0  0  0  0  0  0  0  0  0  0
   -0.7037   -6.0982   -2.9032 O   0  0  0  0  0  0  0  0  0  0  0  0
   -1.2986   -2.4500   -1.2437 N   0  0  0  0  0  0  0  0  0  0  0  0
   -1.7576    0.4423    1.2202 N   0  0  0  0  0  0  0  0  0  0  0  0
   -1.7404   -1.1313   -0.7324 C   0  0  0  0  0  0  0  0  0  0  0  0
   -1.2434   -0.8487    0.6962 C   0  0  1  0  0  0  0  0  0  0  0  0
   -0.5960   -2.5655   -2.4450 C   0  0  0  0  0  0  0  0  0  0  0  0
   -1.6503   -3.6215   -0.5867 C   0  0  0  0  0  0  0  0  0  0  0  0
    0.2792   -0.8792    0.7147 C   0  0  0  0  0  0  0  0  0  0  0  0
   -0.3538   -3.7289   -3.0781 C   0  0  0  0  0  0  0  0  0  0  0  0
   -1.3770   -4.8510   -1.0331 C   0  0  0  0  0  0  0  0  0  0  0  0
   -0.7941   -4.9857   -2.3864 C   0  0  0  0  0  0  0  0  0  0  0  0
  1 11  1  0
  2 12  1  0
  3 11  2  0
  4 14  2  0
  5  7  1  0
  5  9  1  0
  5 10  1  0
  7  8  1  0
  8  6  1  6
  8 11  1  0
  9 12  2  0
 10 13  2  0
 12 14  1  0
 13 14  1  0
M  END
>  <DRUGBANK_ID>  (1) 
DB01055

>  <SECONDARY_ACCESSION_NUMBERS>  (1) 
APRD00647

>  <COMMON_NAME>  (1) 
Mimosine

>  <CAS_NUMBER>  (1) 
500-44-7

>  <UNII>  (1) 
Z46B1LUI5N

>  <SYNONYMS>  (1) 
(L)-Mimosine; (S)-2-amino-3-(3-hydroxy-4-oxo-4H-pyridin-1-yl)propanoate; L-Mimosine; Leucaenine; Leucaenol; Leucenine; Leucenol; Mimosin

$$$$
