[NO NAME]
     RDKit          3D

  7  5  0  0  0  0  0  0  0  0999 V2000
    1.2802    0.0078   -1.1349 C   0  0  0  0  0  0  0  0  0  0  0  0
   -0.5132   -1.8744   -0.2227 C   0  0  0  0  0  0  0  0  0  0  0  0
    0.2581   -1.1674   -1.3617 C   0  0  0  0  0  0  0  0  0  0  0  0
    0.8330    0.2844    1.3129 N   0  0  0  0  0  0  0  0  0  0  0  0
    0.7128    1.1393   -1.0047 O   0  0  0  0  0  0  0  0  0  0  0  0
    2.3539   -0.2980   -0.5011 O   0  0  0  0  0  0  0  0  0  0  0  0
   -0.8112   -0.6259   -2.1596 O   0  0  0  0  0  0  0  0  0  0  0  0
  3  1  1  0
  3  2  1  0
  5  1  2  0
  6  1  1  0
  7  3  1  0
M  CHG  2   4   1   6  -1
M  END
>  <DRUGBANK_ID>  (1) 
DB06768

>  <COMMON_NAME>  (1) 
Ammonium lactate

>  <CAS_NUMBER>  (1) 
515-98-0

>  <UNII>  (1) 
67M901L9NQ

>  <SYNONYMS>  (1) 
Ammonium (+-)-lactate; Ammonium lactate; Lactic acid ammonium salt

$$$$
