
     RDKit          3D

 23 25  0  0  1  0  0  0  0  0999 V2000
    1.1945   -1.7719   -0.4160 O   0  0  0  0  0  0  0  0  0  0  0  0
    6.9895    0.0680    4.5187 O   0  0  0  0  0  0  0  0  0  0  0  0
    7.0765    2.9685    4.3215 O   0  0  0  0  0  0  0  0  0  0  0  0
    1.5065    0.9027    1.9156 N   0  0  0  0  0  0  0  0  0  0  0  0
    2.6194   -0.0169    2.2944 C   0  0  0  0  0  0  0  0  0  0  0  0
    2.0937    0.3820   -0.6200 C   0  0  0  0  0  0  0  0  0  0  0  0
    0.9126    0.3828    0.6975 C   0  0  0  0  0  0  0  0  0  0  0  0
    2.9729   -1.0859    1.1805 C   0  0  0  0  0  0  0  0  0  0  0  0
    1.8335    2.2477    1.4772 C   0  0  0  0  0  0  0  0  0  0  0  0
    3.8043    0.7651    2.8728 C   0  0  0  0  0  0  0  0  0  0  0  0
    2.0356   -0.9754   -0.0471 C   0  0  0  0  0  0  0  0  0  0  0  0
    3.3749   -0.2832   -1.5638 C   0  0  0  0  0  0  0  0  0  0  0  0
    2.6878    3.0319    2.3872 C   0  0  0  0  0  0  0  0  0  0  0  0
    3.8199    2.1761    2.8553 C   0  0  0  0  0  0  0  0  0  0  0  0
    2.9067   -1.4476   -2.5259 C   0  0  0  0  0  0  0  0  0  0  0  0
    4.9000    0.1154    3.4678 C   0  0  0  0  0  0  0  0  0  0  0  0
    4.9137    2.8919    3.3143 C   0  0  0  0  0  0  0  0  0  0  0  0
    1.9369   -0.8718   -3.5418 C   0  0  0  0  0  0  0  0  0  0  0  0
    3.9121   -2.3753   -3.2038 C   0  0  0  0  0  0  0  0  0  0  0  0
    5.9992    0.8498    3.9673 C   0  0  0  0  0  0  0  0  0  0  0  0
    6.0067    2.2536    3.8666 C   0  0  0  0  0  0  0  0  0  0  0  0
    8.1277    0.7536    5.0353 C   0  0  0  0  0  0  0  0  0  0  0  0
    7.0448    4.3816    4.2005 C   0  0  0  0  0  0  0  0  0  0  0  0
  1 11  2  0
  2 20  1  0
  2 22  1  0
  3 21  1  0
  3 23  1  0
  4  5  1  0
  4  7  1  0
  4  9  1  0
  5  8  1  0
  5 10  1  0
  6  7  1  0
  6 11  1  0
  6 12  1  0
  8 11  1  0
  9 13  1  0
 10 14  2  0
 10 16  1  0
 12 15  1  0
 13 14  1  0
 14 17  1  0
 15 18  1  0
 15 19  1  0
 16 20  2  0
 17 21  2  0
 20 21  1  0
M  END
>  <DRUGBANK_ID>  (1) 
DB04844

>  <COMMON_NAME>  (1) 
Tetrabenazine

>  <CAS_NUMBER>  (1) 
58-46-8

>  <UNII>  (1) 
Z9O08YRN8O

>  <SYNONYMS>  (1) 
1,2,4,6,7,11b-hexahydro-3-isobutyl-9,10-dimethoxy-2H-benzo[a]quinolizin-2-one; 2-oxo-3-isobutyl-9,10-dimethoxy-1,2,3,4,6,7-hexahydro-11bH-benzo[a]quinolizine; 2-oxo-3-isobutyl-9,10-dimethoxy-1,3,4,6,7,11b-hexahydro-2H-benzoquinolizine; Tetrabenazina; Tetrabenazine; Tetrabenazinum

$$$$
