F1K
     RDKit          3D

 21 22  0  0  0  0  0  0  0  0999 V2000
   -1.2039    1.3346    0.2863 C   0  0  0  0  0  0  0  0  0  0  0  0
    0.1971    1.3211    0.1488 C   0  0  0  0  0  0  0  0  0  0  0  0
    0.8865    0.1176    0.1929 C   0  0  0  0  0  0  0  0  0  0  0  0
   -1.1407   -0.9745    0.9226 C   0  0  0  0  0  0  0  0  0  0  0  0
    0.8286   -3.8483   -4.9290 C   0  0  0  0  0  0  0  0  0  0  0  0
   -0.4260   -3.0475   -4.6685 C   0  0  0  0  0  0  0  0  0  0  0  0
   -1.4534   -3.8370   -3.8448 C   0  0  0  0  0  0  0  0  0  0  0  0
   -1.3446   -3.4951   -1.4139 C   0  0  0  0  0  0  0  0  0  0  0  0
   -3.5268   -2.0598   -1.2427 C   0  0  0  0  0  0  0  0  0  0  0  0
   -2.0586   -2.1609   -1.6368 C   0  0  2  0  0  0  0  0  0  0  0  0
   -3.5108    0.0733   -2.3704 C   0  0  0  0  0  0  0  0  0  0  0  0
   -2.0080    0.0788   -2.6446 C   0  0  0  0  0  0  0  0  0  0  0  0
    2.1857    0.0681   -0.1334 F   0  0  0  0  0  0  0  0  0  0  0  0
    0.2235   -1.0367    0.5574 C   0  0  0  0  0  0  0  0  0  0  0  0
   -1.9106    0.1454    0.5330 C   0  0  0  0  0  0  0  0  0  0  0  0
   -3.4159    0.0281    0.1577 C   0  0  0  0  0  0  0  0  0  0  0  0
   -3.8970   -0.6269   -1.1208 N   0  0  0  0  0  0  0  0  0  0  0  0
   -1.5154   -1.2846   -2.7162 N   0  0  0  0  0  0  0  0  0  0  0  0
   -1.0621   -3.9401   -0.3175 O   0  0  0  0  0  0  0  0  0  0  0  0
   -0.9527   -4.1548   -2.5390 N   0  0  0  0  0  0  0  0  0  0  0  0
    0.4583   -5.3619   -5.8553 S   0  0  0  0  0  0  0  0  0  0  0  0
  1  2  2  0
  1 15  1  0
  2  3  1  0
  3 13  1  0
  3 14  2  0
  4 14  1  0
  4 15  2  0
  5  6  1  0
  5 21  1  0
  6  7  1  0
  7 20  1  0
  8 19  2  0
  8 20  1  0
  9 10  1  0
  9 17  1  0
 10 18  1  0
 10  8  1  6
 11 12  1  0
 11 17  1  0
 12 18  1  0
 15 16  1  0
 16 17  1  0
M  END
>  <DRUGBANK_ID>  (1) 
DB07737

>  <COMMON_NAME>  (1) 
(2S)-4-(4-fluorobenzyl)-N-(3-sulfanylpropyl)piperazine-2-carboxamide

$$$$
