
     RDKit          3D

 26 26  0  0  0  0  0  0  0  0999 V2000
    1.2528   -0.0126    0.2687 C   0  0  2  0  0  0  0  0  0  0  0  0
    0.0182   -0.8054   -0.2025 C   0  0  2  0  0  0  0  0  0  0  0  0
   -1.2880   -0.1192    0.2384 C   0  0  1  0  0  0  0  0  0  0  0  0
   -1.2954    1.3431   -0.2059 C   0  0  2  0  0  0  0  0  0  0  0  0
   -0.1745    2.0212    0.3356 O   0  0  0  0  0  0  0  0  0  0  0  0
    1.0715    1.4858   -0.0616 C   0  0  1  0  0  0  0  0  0  0  0  0
    2.3158    2.5883    0.6226 S   0  0  0  0  0  0  0  0  0  0  0  0
    2.3531    2.2365    2.3564 C   0  0  0  0  0  0  0  0  0  0  0  0
    1.3840    1.5670    2.8951 N   0  0  0  0  0  0  0  0  0  0  0  0
    1.5151    1.4465    4.3013 O   0  0  0  0  0  0  0  0  0  0  0  0
    0.2858    0.6025    5.0061 S   0  0  0  0  0  0  0  0  0  0  0  0
   -0.9710    1.2995    4.7928 O   0  0  0  0  0  0  0  0  0  0  0  0
    0.4153   -0.7972    4.6773 O   0  0  0  0  0  0  0  0  0  0  0  0
    0.5842    0.7199    6.5889 O   0  0  0  0  0  0  0  0  0  0  0  0
    3.5336    2.8530    3.0999 C   0  0  0  0  0  0  0  0  0  0  0  0
    4.8982    2.2731    2.6974 C   0  0  0  0  0  0  0  0  0  0  0  0
    5.3719    2.6447    1.2791 C   0  0  0  0  0  0  0  0  0  0  0  0
    5.3490    4.1601    0.9915 C   0  0  0  0  0  0  0  0  0  0  0  0
    6.6574    4.9572    1.9920 S   0  0  0  0  0  0  0  0  0  0  0  0
    6.4121    6.6726    1.5223 C   0  0  0  0  0  0  0  0  0  0  0  0
    6.2438    4.8706    3.5048 O   0  0  0  0  0  0  0  0  0  0  0  0
   -2.5249    2.0767    0.3279 C   0  0  0  0  0  0  0  0  0  0  0  0
   -2.4816    3.4477   -0.0759 O   0  0  0  0  0  0  0  0  0  0  0  0
   -2.4303   -0.7960   -0.2833 O   0  0  0  0  0  0  0  0  0  0  0  0
    0.0718   -2.1432    0.3122 O   0  0  0  0  0  0  0  0  0  0  0  0
    2.4563   -0.5424   -0.3122 O   0  0  0  0  0  0  0  0  0  0  0  0
  1  2  1  0
  1  6  1  0
  1 26  1  6
  2  3  1  0
  2 25  1  1
  3  4  1  0
  3 24  1  6
  4  5  1  0
  4 22  1  1
  5  6  1  0
  6  7  1  1
  7  8  1  0
  8  9  2  0
  8 15  1  0
  9 10  1  0
 10 11  1  0
 11 12  2  0
 11 13  2  0
 11 14  1  0
 15 16  1  0
 16 17  1  0
 17 18  1  0
 18 19  1  0
 19 20  1  6
 19 21  1  0
 22 23  1  0
M  CHG  2  19   1  21  -1
M  END
>  <DRUGBANK_ID>  (1) 
DB15436

>  <COMMON_NAME>  (1) 
Glucoraphanin

>  <CAS_NUMBER>  (1) 
1432982-77-8

>  <UNII>  (1) 
Q86A197713

>  <SYNONYMS>  (1) 
4-methylsulfinylbutyl glucosinolate; Glucorafanin; Sulforaphane glucosinolate

$$$$
