
     RDKit          3D

 25 25  0  0  0  0  0  0  0  0999 V2000
    7.2076   -9.6840   -0.2233 S   0  0  0  0  0  0  0  0  0  0  0  0
    3.8552  -11.5245    3.5946 S   0  0  0  0  0  0  0  0  0  0  0  0
    6.2996   -7.2096    3.1798 O   0  0  0  0  0  0  0  0  0  0  0  0
    1.5764   -8.9035    1.5831 O   0  0  0  0  0  0  0  0  0  0  0  0
    8.7317   -4.6492   -1.0562 O   0  0  0  0  0  0  0  0  0  0  0  0
    2.8056   -9.5763   -0.1598 O   0  0  0  0  0  0  0  0  0  0  0  0
    4.3682  -12.9316    3.5065 O   0  0  0  0  0  0  0  0  0  0  0  0
    3.5855   -3.5810    1.0989 O   0  0  0  0  0  0  0  0  0  0  0  0
    2.1772   -4.3880   -0.5039 O   0  0  0  0  0  0  0  0  0  0  0  0
    5.3671   -8.5797    1.4913 N   0  0  0  0  0  0  0  0  0  0  0  0
    7.7374   -6.3908    0.0062 N   0  0  0  0  0  0  0  0  0  0  0  0
    3.1488   -6.8735    0.6200 N   0  0  0  0  0  0  0  0  0  0  0  0
    6.6056   -7.1125    0.6580 C   0  0  1  0  0  0  0  0  0  0  0  0
    5.9444   -8.4486    0.1409 C   0  0  1  0  0  0  0  0  0  0  0  0
    6.2173   -7.6459    2.0333 C   0  0  0  0  0  0  0  0  0  0  0  0
    4.0565   -9.2670    1.9448 C   0  0  2  0  0  0  0  0  0  0  0  0
    4.3652  -10.7481    2.0550 C   0  0  0  0  0  0  0  0  0  0  0  0
    7.6746   -5.1498   -0.6607 C   0  0  0  0  0  0  0  0  0  0  0  0
    2.7526   -9.3054    1.0386 C   0  0  0  0  0  0  0  0  0  0  0  0
    6.3527   -4.3276   -0.8708 C   0  0  0  0  0  0  0  0  0  0  0  0
    5.2752   -4.9024   -1.7995 C   0  0  0  0  0  0  0  0  0  0  0  0
    4.6156   -6.0866   -1.1700 C   0  0  0  0  0  0  0  0  0  0  0  0
    3.9708   -5.7633    0.2221 C   0  0  1  0  0  0  0  0  0  0  0  0
    4.9448  -10.6323    4.7352 C   0  0  0  0  0  0  0  0  0  0  0  0
    3.1504   -4.5147    0.2205 C   0  0  0  0  0  0  0  0  0  0  0  0
  2  7  2  0
  2 17  1  0
  2 24  1  0
  3 15  2  0
  4 19  1  0
  5 18  2  0
  6 19  2  0
  8 25  1  0
  9 25  2  0
 10 14  1  0
 10 15  1  0
 11 18  1  0
 13 11  1  1
 13 14  1  0
 13 15  1  0
 14  1  1  1
 16 19  1  0
 16 17  1  6
 16 10  1  0
 18 20  1  0
 20 21  1  0
 21 22  1  0
 23 25  1  0
 23 22  1  0
 23 12  1  6
M  END
>  <DRUGBANK_ID>  (1) 
DB03004

>  <SECONDARY_ACCESSION_NUMBERS>  (1) 
EXPT00419

>  <COMMON_NAME>  (1) 
(2S)-2-amino-6-[[(3R,4R)-1-[(1S)-1-carboxy-2-[(S)-methylsulfinyl]ethyl]-2-oxo-4-sulfanylazetidin-3-yl]amino]-6-oxohexanoic acid

$$$$
