C4F
     RDKit          3D

 18 20  0  0  0  0  0  0  0  0999 V2000
    0.9968    0.0024    0.0740 C   0  0  0  0  0  0  0  0  0  0  0  0
    0.4048    0.0483    1.3591 O   0  0  0  0  0  0  0  0  0  0  0  0
    0.9474   -0.7482    2.3256 C   0  0  0  0  0  0  0  0  0  0  0  0
    2.2709   -1.1298    2.4502 C   0  0  0  0  0  0  0  0  0  0  0  0
    2.6800   -1.8190    3.5975 C   0  0  0  0  0  0  0  0  0  0  0  0
    1.7960   -2.0234    4.6647 C   0  0  0  0  0  0  0  0  0  0  0  0
    0.0602   -1.0945    3.3374 C   0  0  0  0  0  0  0  0  0  0  0  0
    0.4764   -1.5794    4.5780 C   0  0  0  0  0  0  0  0  0  0  0  0
   -0.4592   -1.6068    5.7670 C   0  0  0  0  0  0  0  0  0  0  0  0
   -0.8046   -0.1801    6.1540 C   0  0  0  0  0  0  0  0  0  0  0  0
   -1.5870    0.8138    5.4458 C   0  0  0  0  0  0  0  0  0  0  0  0
   -0.4669    0.4109    7.3693 C   0  0  0  0  0  0  0  0  0  0  0  0
   -0.9567    1.6900    7.3929 N   0  0  0  0  0  0  0  0  0  0  0  0
   -1.6155    1.9642    6.2341 C   0  0  0  0  0  0  0  0  0  0  0  0
   -2.2082    3.1429    5.9571 N   0  0  0  0  0  0  0  0  0  0  0  0
   -2.8076    3.1696    4.7455 C   0  0  0  0  0  0  0  0  0  0  0  0
   -2.8721    2.1132    3.8588 C   0  0  0  0  0  0  0  0  0  0  0  0
   -2.2984    0.9043    4.2342 C   0  0  0  0  0  0  0  0  0  0  0  0
  1  2  1  0
  2  3  1  0
  3  4  2  0
  3  7  1  0
  4  5  1  0
  5  6  2  0
  6  8  1  0
  7  8  2  0
  8  9  1  0
  9 10  1  0
 10 11  1  0
 10 12  2  0
 11 14  2  0
 11 18  1  0
 12 13  1  0
 13 14  1  0
 14 15  1  0
 15 16  2  0
 16 17  1  0
 17 18  2  0
M  END
>  <DRUGBANK_ID>  (1) 
DB07525

>  <COMMON_NAME>  (1) 
3-(3-methoxybenzyl)-1H-pyrrolo[2,3-b]pyridine

$$$$
