
     RDKit          3D

 25 28  0  0  0  0  0  0  0  0999 V2000
    2.4677   -0.0082    0.0589 C   0  0  0  0  0  0  0  0  0  0  0  0
    0.3768   -1.2139    0.2556 C   0  0  0  0  0  0  0  0  0  0  0  0
    0.3924    1.1937    0.2690 C   0  0  0  0  0  0  0  0  0  0  0  0
   -1.1150   -1.2452   -0.1405 C   0  0  0  0  0  0  0  0  0  0  0  0
   -1.0943    1.2276   -0.1117 C   0  0  0  0  0  0  0  0  0  0  0  0
   -6.5503    1.8382   -1.0923 C   0  0  0  0  0  0  0  0  0  0  0  0
   -5.3092    1.8868   -1.9440 C   0  0  0  0  0  0  0  0  0  0  0  0
   -4.5025   -0.7012    2.6764 C   0  0  0  0  0  0  0  0  0  0  0  0
   -7.8138    1.0625    0.8720 C   0  0  0  0  0  0  0  0  0  0  0  0
   -5.5802   -0.0840    2.0356 C   0  0  0  0  0  0  0  0  0  0  0  0
   -8.0601    0.4982    2.0655 C   0  0  0  0  0  0  0  0  0  0  0  0
   -3.2574   -0.6864    2.0793 C   0  0  0  0  0  0  0  0  0  0  0  0
   -5.4441    0.5496    0.7764 C   0  0  0  0  0  0  0  0  0  0  0  0
   -3.0323   -0.0479    0.8520 C   0  0  0  0  0  0  0  0  0  0  0  0
   -6.8951   -0.1313    2.7248 C   0  0  0  0  0  0  0  0  0  0  0  0
   -4.1509    0.5456    0.1961 C   0  0  0  0  0  0  0  0  0  0  0  0
   -9.3961    0.4931    2.6971 C   0  0  0  0  0  0  0  0  0  0  0  0
   -2.2364   -1.2756    2.7233 F   0  0  0  0  0  0  0  0  0  0  0  0
    1.0560   -0.0093   -0.2882 N   0  0  0  0  0  0  0  0  0  0  0  0
   -1.7337   -0.0121    0.3576 N   0  0  0  0  0  0  0  0  0  0  0  0
   -6.5937    1.1145    0.1869 N   0  0  0  0  0  0  0  0  0  0  0  0
   -6.9821   -0.6846    3.8159 O   0  0  0  0  0  0  0  0  0  0  0  0
   -9.7014   -0.0011    3.7733 O   0  0  0  0  0  0  0  0  0  0  0  0
  -10.3513    1.1087    1.9728 O   0  0  0  0  0  0  0  0  0  0  0  0
   -3.8032    1.1391   -1.4462 S   0  0  0  0  0  0  0  0  0  0  0  0
  4  2  1  0
  5  3  1  0
  7  6  1  0
 10  8  1  0
 11  9  2  0
 12  8  2  0
 13 10  2  0
 14 12  1  0
 15 10  1  0
 15 11  1  0
 16 13  1  0
 16 14  2  0
 17 11  1  0
 18 12  1  0
 19  1  1  0
 19  2  1  0
 19  3  1  0
 20  4  1  0
 20  5  1  0
 20 14  1  0
 21  6  1  0
 21  9  1  0
 21 13  1  0
 22 15  2  0
 23 17  2  0
 24 17  1  0
 25  7  1  0
 25 16  1  0
M  END
>  <DRUGBANK_ID>  (1) 
DB13772

>  <COMMON_NAME>  (1) 
Rufloxacin

>  <CAS_NUMBER>  (1) 
101363-10-4

>  <UNII>  (1) 
Y521XM2900

>  <SYNONYMS>  (1) 
Rufloxacin

$$$$
