
     RDKit          3D

 13 12  0  0  1  0  0  0  0  0999 V2000
    1.0587   -0.0153    0.0350 C   0  0  0  0  0  0  0  0  0  0  0  0
    0.5595    0.7243   -1.1769 C   0  0  0  0  0  0  0  0  0  0  0  0
   -0.1276    0.1871   -2.0403 O   0  0  0  0  0  0  0  0  0  0  0  0
    0.9091    2.0396   -1.3034 N   0  0  0  0  0  0  0  0  0  0  0  0
    1.7448    2.8005   -0.3731 C   0  0  1  0  0  0  0  0  0  0  0  0
    2.9571    3.3906   -1.1185 C   0  0  0  0  0  0  0  0  0  0  0  0
    2.6854    4.2755   -2.3412 C   0  0  0  0  0  0  0  0  0  0  0  0
    2.0415    5.6036   -2.0344 C   0  0  0  0  0  0  0  0  0  0  0  0
    2.6638    6.6303   -1.8025 O   0  0  0  0  0  0  0  0  0  0  0  0
    0.6838    5.6049   -1.9965 N   0  0  0  0  0  0  0  0  0  0  0  0
    0.9667    3.7641    0.5510 C   0  0  0  0  0  0  0  0  0  0  0  0
    1.2822    4.0796    1.6758 O   0  0  0  0  0  0  0  0  0  0  0  0
   -0.0638    4.3953   -0.0542 O   0  0  0  0  0  0  0  0  0  0  0  0
  1  2  1  0
  2  3  2  0
  2  4  1  0
  5  4  1  0
  5  6  1  6
  5 11  1  0
  6  7  1  0
  7  8  1  0
  8  9  2  0
  8 10  1  0
 11 12  2  0
 11 13  1  0
M  END
>  <DRUGBANK_ID>  (1) 
DB04167

>  <SECONDARY_ACCESSION_NUMBERS>  (1) 
EXPT02358

>  <COMMON_NAME>  (1) 
Aceglutamide

>  <CAS_NUMBER>  (1) 
2490-97-3

>  <UNII>  (1) 
01J18G9G97

>  <SYNONYMS>  (1) 
Aceglutamide; N-acetyl-L-glutamine

$$$$
