
     RDKit          3D

 40 42  0  0  1  0  0  0  0  0999 V2000
    1.0569    0.0993   -0.0831 C   0  0  0  0  0  0  0  0  0  0  0  0
    0.4215   -0.1039    1.2650 C   0  0  0  0  0  0  0  0  0  0  0  0
    1.0515    0.6900    2.3508 C   0  0  0  0  0  0  0  0  0  0  0  0
   -1.0428   -0.3463    1.2810 C   0  0  0  0  0  0  0  0  0  0  0  0
   -1.4405   -1.4152    0.2511 C   0  0  0  0  0  0  0  0  0  0  0  0
   -0.7368   -2.7849    0.2336 N   0  0  0  0  0  0  0  0  0  0  0  0
   -1.1933   -3.6149   -1.4348 C   0  0  0  0  0  0  0  0  0  0  0  0
   -0.2065   -3.0082   -3.2169 C   0  0  1  0  0  0  0  0  0  0  0  0
    0.8227   -3.4515   -2.3174 O   0  0  0  0  0  0  0  0  0  0  0  0
    0.2923   -3.0150   -5.3199 C   0  0  1  0  0  0  0  0  0  0  0  0
    1.3092   -3.1051   -7.4614 C   0  0  0  0  0  0  0  0  0  0  0  0
    2.3016   -3.7736   -9.1768 C   0  0  0  0  0  0  0  0  0  0  0  0
    2.5519   -4.8702  -10.6242 C   0  0  0  0  0  0  0  0  0  0  0  0
    3.5287   -6.0838  -10.7626 C   0  0  0  0  0  0  0  0  0  0  0  0
    4.3055   -6.1583   -9.6873 C   0  0  0  0  0  0  0  0  0  0  0  0
    4.6759   -7.3758   -9.1541 O   0  0  0  0  0  0  0  0  0  0  0  0
    4.1578   -7.7877   -7.8335 C   0  0  0  0  0  0  0  0  0  0  0  0
    4.6274   -6.8922   -6.6661 C   0  0  0  0  0  0  0  0  0  0  0  0
    3.9980   -5.5583   -6.6514 C   0  0  0  0  0  0  0  0  0  0  0  0
    2.5812   -5.6298   -6.8533 C   0  0  0  0  0  0  0  0  0  0  0  0
    2.1129   -6.3953   -7.6759 O   0  0  0  0  0  0  0  0  0  0  0  0
    1.8434   -4.7888   -6.1604 N   0  0  0  0  0  0  0  0  0  0  0  0
    0.3873   -4.9327   -6.4386 C   0  0  1  0  0  0  0  0  0  0  0  0
   -0.2360   -5.7759   -7.4200 C   0  0  0  0  0  0  0  0  0  0  0  0
   -1.7256   -5.6018   -7.3040 C   0  0  0  0  0  0  0  0  0  0  0  0
    0.1475   -5.2826   -8.7603 C   0  0  0  0  0  0  0  0  0  0  0  0
   -0.2719   -5.3114   -5.1728 C   0  0  0  0  0  0  0  0  0  0  0  0
    0.1196   -6.1141   -4.3447 O   0  0  0  0  0  0  0  0  0  0  0  0
   -0.9986   -3.8864   -5.2481 N   0  0  0  0  0  0  0  0  0  0  0  0
    4.6473   -4.8342   -9.2572 C   0  0  0  0  0  0  0  0  0  0  0  0
    3.6319   -3.7025   -9.0288 C   0  0  0  0  0  0  0  0  0  0  0  0
    1.0531   -2.8994    0.6954 S   0  0  0  0  0  0  0  0  0  0  0  0
    1.6675   -2.4363   -0.5198 O   0  0  0  0  0  0  0  0  0  0  0  0
    1.5961   -2.3480    1.9287 O   0  0  0  0  0  0  0  0  0  0  0  0
    1.4670   -4.5098    1.0196 C   0  0  0  0  0  0  0  0  0  0  0  0
    2.7109   -4.6750    1.6198 C   0  0  0  0  0  0  0  0  0  0  0  0
    3.2166   -5.9402    1.7095 C   0  0  0  0  0  0  0  0  0  0  0  0
    2.3816   -7.0151    1.4798 C   0  0  0  0  0  0  0  0  0  0  0  0
    1.0451   -6.8127    1.2054 C   0  0  0  0  0  0  0  0  0  0  0  0
    0.6111   -5.5563    0.8861 C   0  0  0  0  0  0  0  0  0  0  0  0
  1  2  1  0
  2  3  1  0
  2  4  1  0
  4  5  1  0
  5  6  1  0
  6  7  1  0
  6 32  1  0
  7  8  1  0
  8  9  1  1
 10  8  1  0
 10 11  1  1
 10 29  1  0
 11 12  1  0
 12 13  2  0
 12 31  1  0
 13 14  1  0
 14 15  2  0
 15 16  1  0
 15 30  1  0
 16 17  1  0
 17 18  1  0
 18 19  1  0
 19 20  1  0
 20 21  2  0
 20 22  1  0
 22 23  1  0
 23 24  1  6
 23 27  1  0
 24 25  1  0
 24 26  1  0
 27 28  2  0
 27 29  1  0
 30 31  2  0
 32 33  2  0
 32 34  2  0
 32 35  1  0
 35 36  2  0
 35 40  1  0
 36 37  1  0
 37 38  2  0
 38 39  1  0
 39 40  2  0
M  END
>  <DRUGBANK_ID>  (1) 
DB03768

>  <SECONDARY_ACCESSION_NUMBERS>  (1) 
EXPT01695

>  <COMMON_NAME>  (1) 
N-[2-Hydroxy-2-(8-Isopropyl-6,9-Dioxo-2-Oxa-7,10-Diaza-Bicyclo[11.2.2]Heptadeca-1(16),13(17),14-Trien-11-Yl)-Ethyl]-N-(3-Methyl-Butyl)-Benzenesulfonamide,Inhibitor 3

$$$$
