
     RDKit          3D

 18 19  0  0  0  0  0  0  0  0999 V2000
   -0.1214    0.9081    0.1768 C   0  0  0  0  0  0  0  0  0  0  0  0
    0.6631   -0.2760    0.7581 C   0  0  0  0  0  0  0  0  0  0  0  0
   -0.7028   -0.3837    0.3104 O   0  0  0  0  0  0  0  0  0  0  0  0
    1.6584   -0.9711   -0.0185 C   0  0  0  0  0  0  0  0  0  0  0  0
    2.8698   -0.1901   -0.2360 O   0  0  0  0  0  0  0  0  0  0  0  0
    2.7317    1.1842   -0.7129 C   0  0  0  0  0  0  0  0  0  0  0  0
    2.0360    1.5472   -2.1211 C   0  0  0  0  0  0  0  0  0  0  0  0
    1.0272    0.6798   -2.6240 O   0  0  0  0  0  0  0  0  0  0  0  0
    1.4615   -0.6799   -2.6914 C   0  0  0  0  0  0  0  0  0  0  0  0
    2.7975   -1.4870   -2.7994 C   0  0  0  0  0  0  0  0  0  0  0  0
    4.1309   -1.0507   -3.1175 O   0  0  0  0  0  0  0  0  0  0  0  0
    4.2531    0.3144   -3.4616 C   0  0  0  0  0  0  0  0  0  0  0  0
    3.5745    0.7574   -4.8244 C   0  0  0  0  0  0  0  0  0  0  0  0
    2.3019    0.2011   -5.2081 O   0  0  0  0  0  0  0  0  0  0  0  0
    2.2393   -1.1616   -5.6041 C   0  0  0  0  0  0  0  0  0  0  0  0
    3.4577   -1.7532   -6.1637 C   0  0  0  0  0  0  0  0  0  0  0  0
    3.3514   -2.1443   -7.4971 C   0  0  0  0  0  0  0  0  0  0  0  0
    3.3161   -3.1350   -6.4850 O   0  0  0  0  0  0  0  0  0  0  0  0
  1  2  1  0
  1  3  1  0
  2  3  1  0
  2  4  1  0
  4  5  1  0
  5  6  1  0
  6  7  1  0
  7  8  1  0
  8  9  1  0
  9 10  1  0
 10 11  1  0
 11 12  1  0
 12 13  1  0
 13 14  1  0
 14 15  1  0
 15 16  1  0
 16 17  1  0
 16 18  1  0
 17 18  1  0
M  END
>  <DRUGBANK_ID>  (1) 
DB13339

>  <COMMON_NAME>  (1) 
Etoglucid

>  <CAS_NUMBER>  (1) 
1954-28-5

>  <UNII>  (1) 
4F9KUA0T4D

>  <SYNONYMS>  (1) 
Etoglucid

$$$$
