
     RDKit          3D

 31 34  0  0  0  0  0  0  0  0999 V2000
    3.6108    4.4601    4.5783 C   0  0  0  0  0  0  0  0  0  0  0  0
    3.0386    5.3406    3.6775 C   0  0  0  0  0  0  0  0  0  0  0  0
    2.6203    4.8290    2.4421 C   0  0  0  0  0  0  0  0  0  0  0  0
    2.3382    3.4564    2.1989 C   0  0  0  0  0  0  0  0  0  0  0  0
    3.0292    2.6256    3.0551 C   0  0  0  0  0  0  0  0  0  0  0  0
    3.7778    3.1801    4.0877 C   0  0  0  0  0  0  0  0  0  0  0  0
    2.8629    6.7593    3.7540 C   0  0  0  0  0  0  0  0  0  0  0  0
    2.3893    7.2634    2.5699 C   0  0  0  0  0  0  0  0  0  0  0  0
    2.8546    6.1557    1.3456 S   0  0  0  0  0  0  0  0  0  0  0  0
    4.0912    4.9334    5.7637 O   0  0  0  0  0  0  0  0  0  0  0  0
    4.6663    3.9894    6.6724 C   0  0  0  0  0  0  0  0  0  0  0  0
    3.6455    3.1046    7.4164 C   0  0  0  0  0  0  0  0  0  0  0  0
    2.9364    2.0534    6.6106 C   0  0  0  0  0  0  0  0  0  0  0  0
    2.4340    0.4241    5.1731 O   0  0  0  0  0  0  0  0  0  0  0  0
    3.4564    0.9501    5.9410 C   0  0  0  0  0  0  0  0  0  0  0  0
    1.6090    2.2360    6.2416 N   0  0  0  0  0  0  0  0  0  0  0  0
    1.3520    1.2702    5.3789 C   0  0  0  0  0  0  0  0  0  0  0  0
    4.8639    0.5160    5.6472 C   0  0  0  0  0  0  0  0  0  0  0  0
    0.1788    1.0817    4.5001 C   0  0  0  0  0  0  0  0  0  0  0  0
   -1.5863    1.9474    3.0207 C   0  0  0  0  0  0  0  0  0  0  0  0
   -0.4976    2.1574    3.9075 C   0  0  0  0  0  0  0  0  0  0  0  0
   -0.3014   -0.1932    4.1982 C   0  0  0  0  0  0  0  0  0  0  0  0
   -1.3099   -0.4012    3.2398 C   0  0  0  0  0  0  0  0  0  0  0  0
   -1.9384    0.6699    2.6260 C   0  0  0  0  0  0  0  0  0  0  0  0
    1.5175    2.8507    1.0717 C   0  0  0  0  0  0  0  0  0  0  0  0
    0.1461    3.5261    0.9384 C   0  0  2  0  0  0  0  0  0  0  0  0
   -0.6700    2.9507   -0.0897 O   0  0  0  0  0  0  0  0  0  0  0  0
    0.1546    5.0527    0.9467 C   0  0  0  0  0  0  0  0  0  0  0  0
   -0.3876    5.6182    2.0646 O   0  0  0  0  0  0  0  0  0  0  0  0
    0.5058    5.7112   -0.0007 O   0  0  0  0  0  0  0  0  0  0  0  0
   -1.4675    3.9481   -0.7404 C   0  0  0  0  0  0  0  0  0  0  0  0
  1  2  2  0
  1  6  1  0
  1 10  1  0
  2  3  1  0
  2  7  1  0
  3  4  2  0
  3  9  1  0
  4  5  1  0
  4 25  1  0
  5  6  2  0
  7  8  2  0
  8  9  1  0
 10 11  1  0
 11 12  1  0
 12 13  1  0
 13 16  1  0
 14 15  1  0
 14 17  1  0
 15 13  2  0
 15 18  1  0
 16 17  2  0
 17 19  1  0
 19 22  2  0
 20 21  2  0
 20 24  1  0
 21 19  1  0
 22 23  1  0
 23 24  2  0
 26 28  1  0
 26 27  1  0
 26 25  1  6
 27 31  1  0
 28 29  1  0
 28 30  2  0
M  END
>  <DRUGBANK_ID>  (1) 
DB08915

>  <SECONDARY_ACCESSION_NUMBERS>  (1) 
DB08483

>  <COMMON_NAME>  (1) 
Aleglitazar

>  <CAS_NUMBER>  (1) 
475479-34-6

>  <UNII>  (1) 
41T4OAG59U

>  <SYNONYMS>  (1) 
Aleglitazar

$$$$
