
     RDKit          3D

 18 19  0  0  0  0  0  0  0  0999 V2000
   -2.0538   -0.0194    0.0015 Cl  0  0  0  0  0  0  0  0  0  0  0  0
    3.2573    1.6883    6.6345 Cl  0  0  0  0  0  0  0  0  0  0  0  0
    4.2508    0.0196    0.0665 S   0  0  0  0  0  0  0  0  0  0  0  0
    4.6402   -0.7606    1.4646 O   0  0  0  0  0  0  0  0  0  0  0  0
    4.7092   -0.7867   -1.0445 O   0  0  0  0  0  0  0  0  0  0  0  0
    4.6596    1.4121    0.1784 O   0  0  0  0  0  0  0  0  0  0  0  0
    2.4561    0.0093   -0.0539 C   0  0  0  0  0  0  0  0  0  0  0  0
    1.7487    1.2209   -0.0543 C   0  0  0  0  0  0  0  0  0  0  0  0
    1.7701   -1.2137   -0.0577 C   0  0  0  0  0  0  0  0  0  0  0  0
    4.3207   -0.2206    2.6859 C   0  0  0  0  0  0  0  0  0  0  0  0
    0.3502    1.2071   -0.0398 C   0  0  0  0  0  0  0  0  0  0  0  0
    0.3694   -1.2165   -0.0444 C   0  0  0  0  0  0  0  0  0  0  0  0
    3.0020    0.0849    3.0098 C   0  0  0  0  0  0  0  0  0  0  0  0
    5.3121   -0.0508    3.6556 C   0  0  0  0  0  0  0  0  0  0  0  0
   -0.3332   -0.0091   -0.0333 C   0  0  0  0  0  0  0  0  0  0  0  0
    2.6760    0.6898    4.2166 C   0  0  0  0  0  0  0  0  0  0  0  0
    4.9825    0.5263    4.8934 C   0  0  0  0  0  0  0  0  0  0  0  0
    3.6702    0.9228    5.1532 C   0  0  0  0  0  0  0  0  0  0  0  0
  1 15  1  0
  2 18  1  0
  3  4  1  0
  3  5  2  0
  3  6  2  0
  3  7  1  0
  4 10  1  0
  7  8  2  0
  7  9  1  0
  8 11  1  0
  9 12  2  0
 10 13  2  0
 10 14  1  0
 11 15  2  0
 12 15  1  0
 13 16  1  0
 14 17  2  0
 16 18  2  0
 17 18  1  0
M  END
>  <DRUGBANK_ID>  (1) 
DB05377

>  <COMMON_NAME>  (1) 
Chlorfenson

>  <CAS_NUMBER>  (1) 
80-33-1

>  <UNII>  (1) 
LW65NJ3YWV

>  <SYNONYMS>  (1) 
4-Chlorophenyl 4-chlorobenzenesulfonate; Ester sulfonate

$$$$
