
     RDKit          3D

 38 41  0  0  0  0  0  0  0  0999 V2000
    1.0015    0.0485    0.1000 C   0  0  0  0  0  0  0  0  0  0  0  0
    1.8903   -3.5615   -3.0640 C   0  0  0  0  0  0  0  0  0  0  0  0
   -7.3915    4.2877   -9.5821 C   0  0  0  0  0  0  0  0  0  0  0  0
    0.0271    4.7166   -0.4317 C   0  0  0  0  0  0  0  0  0  0  0  0
    1.2636    4.8040    0.2067 C   0  0  0  0  0  0  0  0  0  0  0  0
   -0.3089    3.5589   -1.1301 C   0  0  0  0  0  0  0  0  0  0  0  0
   -2.9261    3.9448   -7.2599 C   0  0  0  0  0  0  0  0  0  0  0  0
   -4.0896    4.6798   -7.5041 C   0  0  0  0  0  0  0  0  0  0  0  0
   -0.1605   -2.8549   -0.1827 C   0  0  0  0  0  0  0  0  0  0  0  0
    0.4831   -4.0722    0.0709 C   0  0  0  0  0  0  0  0  0  0  0  0
    1.9224    2.7068   -0.7794 C   0  0  0  0  0  0  0  0  0  0  0  0
   -0.2808   -0.9639   -3.3992 C   0  0  0  0  0  0  0  0  0  0  0  0
   -1.6993    1.7315   -7.2893 C   0  0  0  0  0  0  0  0  0  0  0  0
   -5.2984    2.6318   -7.5753 C   0  0  0  0  0  0  0  0  0  0  0  0
    0.5106    0.0429   -1.3462 C   0  0  0  0  0  0  0  0  0  0  0  0
    2.2179    3.7922    0.0469 C   0  0  0  0  0  0  0  0  0  0  0  0
   -2.9799    2.5518   -7.3119 C   0  0  0  0  0  0  0  0  0  0  0  0
    0.6357    2.5366   -1.2876 C   0  0  0  0  0  0  0  0  0  0  0  0
   -5.2935    4.0075   -7.6939 C   0  0  0  0  0  0  0  0  0  0  0  0
    0.2296   -1.1002   -2.0340 C   0  0  0  0  0  0  0  0  0  0  0  0
   -0.4874    0.2225   -4.0031 C   0  0  0  0  0  0  0  0  0  0  0  0
    0.3826   -2.3681   -1.3642 C   0  0  0  0  0  0  0  0  0  0  0  0
   -0.9908    0.2618   -5.4174 C   0  0  0  0  0  0  0  0  0  0  0  0
   -0.1936    1.4627   -3.2467 C   0  0  0  0  0  0  0  0  0  0  0  0
    3.5291    3.8082    0.7798 C   0  0  0  0  0  0  0  0  0  0  0  0
    3.6804    2.7065    1.5693 F   0  0  0  0  0  0  0  0  0  0  0  0
    4.5978    3.8143   -0.0606 F   0  0  0  0  0  0  0  0  0  0  0  0
    3.6793    4.8801    1.6025 F   0  0  0  0  0  0  0  0  0  0  0  0
   -4.1642    1.8936   -7.4374 N   0  0  0  0  0  0  0  0  0  0  0  0
   -1.1786    1.5131   -5.9574 N   0  0  0  0  0  0  0  0  0  0  0  0
    1.3099   -4.4082   -0.9154 N   0  0  0  0  0  0  0  0  0  0  0  0
    1.1934   -3.3958   -1.8099 N   0  0  0  0  0  0  0  0  0  0  0  0
    0.3009    1.3125   -1.9470 N   0  0  0  0  0  0  0  0  0  0  0  0
   -1.1952   -0.7744   -6.0410 O   0  0  0  0  0  0  0  0  0  0  0  0
   -0.3456    2.5559   -3.8028 O   0  0  0  0  0  0  0  0  0  0  0  0
   -7.7377    4.5077   -6.9965 O   0  0  0  0  0  0  0  0  0  0  0  0
   -6.4319    6.2823   -8.2220 O   0  0  0  0  0  0  0  0  0  0  0  0
   -6.7910    4.8858   -8.0214 S   0  0  0  0  0  0  0  0  0  0  0  0
  5  4  2  0
  6  4  1  0
  8  7  2  0
 10  9  1  0
 15  1  1  0
 16  5  1  0
 16 11  2  0
 17  7  1  0
 17 13  1  0
 18  6  2  0
 18 11  1  0
 19  8  1  0
 19 14  2  0
 20 12  1  0
 20 15  2  0
 21 12  2  0
 22  9  2  0
 22 20  1  0
 23 21  1  0
 24 21  1  0
 25 16  1  0
 26 25  1  0
 27 25  1  0
 28 25  1  0
 29 14  1  0
 29 17  2  0
 30 13  1  0
 30 23  1  0
 31 10  2  0
 32  2  1  0
 32 22  1  0
 32 31  1  0
 33 15  1  0
 33 18  1  0
 33 24  1  0
 34 23  2  0
 35 24  2  0
 38  3  1  0
 38 19  1  0
 38 36  2  0
 38 37  2  0
M  END
>  <DRUGBANK_ID>  (1) 
DB11863

>  <COMMON_NAME>  (1) 
Alvelestat

>  <CAS_NUMBER>  (1) 
848141-11-7

>  <UNII>  (1) 
6Y5629322X

>  <SYNONYMS>  (1) 
Alvelestat

$$$$
