
     RDKit          3D

 13 13  0  0  0  0  0  0  0  0999 V2000
    2.2774   -0.0788    0.0043 O   0  0  0  0  0  0  0  0  0  0  0  0
    0.9158   -0.0086    0.0111 C   0  0  0  0  0  0  0  0  0  0  0  0
    0.1807   -1.2004    0.0093 C   0  0  0  0  0  0  0  0  0  0  0  0
   -1.2193   -1.1681   -0.0025 C   0  0  0  0  0  0  0  0  0  0  0  0
   -1.8861    0.0644   -0.0132 C   0  0  0  0  0  0  0  0  0  0  0  0
   -1.1619    1.2634    0.0006 C   0  0  0  0  0  0  0  0  0  0  0  0
    0.2463    1.2258    0.0166 C   0  0  0  0  0  0  0  0  0  0  0  0
    0.9739    2.5094    0.0473 N   0  0  0  0  0  0  0  0  0  0  0  0
    0.2855    3.5421    0.0587 O   0  0  0  0  0  0  0  0  0  0  0  0
    2.2096    2.5123    0.0651 O   0  0  0  0  0  0  0  0  0  0  0  0
   -3.3569    0.1010   -0.0402 N   0  0  0  0  0  0  0  0  0  0  0  0
   -3.9028    1.2132   -0.0517 O   0  0  0  0  0  0  0  0  0  0  0  0
   -3.9592   -0.9801   -0.0522 O   0  0  0  0  0  0  0  0  0  0  0  0
  1  2  1  0
  2  3  2  0
  2  7  1  0
  3  4  1  0
  4  5  2  0
  5  6  1  0
  5 11  1  0
  6  7  2  0
  7  8  1  0
  8  9  1  0
  8 10  2  0
 11 12  1  0
 11 13  2  0
M  CHG  4   8   1   9  -1  11   1  12  -1
M  END
>  <DRUGBANK_ID>  (1) 
DB04528

>  <SECONDARY_ACCESSION_NUMBERS>  (1) 
EXPT01235

>  <COMMON_NAME>  (1) 
2,4-Dinitrophenol

>  <CAS_NUMBER>  (1) 
51-28-5

>  <UNII>  (1) 
Q13SKS21MN

>  <SYNONYMS>  (1) 
Dinitrophenol

$$$$
