MTH
     RDKit          3D

 20 22  0  0  0  0  0  0  0  0999 V2000
    1.1042    0.0714   -0.0791 C   0  0  0  0  0  0  0  0  0  0  0  0
    0.4296    0.8075   -1.5985 S   0  0  0  0  0  0  0  0  0  0  0  0
    1.1136    2.5049   -1.5050 C   0  0  0  0  0  0  0  0  0  0  0  0
    0.5844    3.3204   -0.3165 C   0  0  1  0  0  0  0  0  0  0  0  0
    1.7067    4.0455    0.2516 O   0  0  0  0  0  0  0  0  0  0  0  0
    0.3014    5.6635   -0.7850 C   0  0  2  0  0  0  0  0  0  0  0  0
   -0.5064    6.8105   -0.5392 O   0  0  0  0  0  0  0  0  0  0  0  0
   -0.4825    4.3603   -0.6959 C   0  0  2  0  0  0  0  0  0  0  0  0
   -1.4894    4.4717    0.3254 O   0  0  0  0  0  0  0  0  0  0  0  0
    1.3790    5.4474    0.2740 C   0  0  2  0  0  0  0  0  0  0  0  0
    2.5780    6.2454    0.0733 N   0  0  0  0  0  0  0  0  0  0  0  0
    3.4310    6.2039   -1.0066 C   0  0  0  0  0  0  0  0  0  0  0  0
    4.3668    7.2036   -0.8442 C   0  0  0  0  0  0  0  0  0  0  0  0
    4.0909    7.8611    0.3842 C   0  0  0  0  0  0  0  0  0  0  0  0
    4.6467    8.9236    1.1046 C   0  0  0  0  0  0  0  0  0  0  0  0
    5.7441    9.6231    0.6555 N   0  0  0  0  0  0  0  0  0  0  0  0
    4.0909    9.2781    2.2783 N   0  0  0  0  0  0  0  0  0  0  0  0
    3.0114    8.5886    2.7030 C   0  0  0  0  0  0  0  0  0  0  0  0
    2.3860    7.5611    2.0983 N   0  0  0  0  0  0  0  0  0  0  0  0
    2.9774    7.2398    0.9367 C   0  0  0  0  0  0  0  0  0  0  0  0
  1  2  1  0
  2  3  1  0
  4  3  1  6
  4  5  1  0
  4  8  1  0
  5 10  1  0
  6  7  1  1
  6  8  1  0
  6 10  1  0
  8  9  1  1
 10 11  1  6
 11 12  1  0
 11 20  1  0
 12 13  2  0
 13 14  1  0
 14 15  1  0
 14 20  2  0
 15 16  1  0
 15 17  2  0
 17 18  1  0
 18 19  2  0
 19 20  1  0
M  END
>  <DRUGBANK_ID>  (1) 
DB02933

>  <SECONDARY_ACCESSION_NUMBERS>  (1) 
EXPT02244

>  <COMMON_NAME>  (1) 
5'-Deoxy-5'-(Methylthio)-Tubercidin

$$$$
