
     RDKit          3D

 34 36  0  0  0  0  0  0  0  0999 V2000
    0.4848   -0.1190   -0.4105 C   0  0  0  0  0  0  0  0  0  0  0  0
    0.2572    1.2016   -1.0900 C   0  0  0  0  0  0  0  0  0  0  0  0
    0.9978    1.1380   -2.3763 C   0  0  0  0  0  0  0  0  0  0  0  0
    0.3948    1.0159   -3.4350 O   0  0  0  0  0  0  0  0  0  0  0  0
    2.4060    1.1501   -2.3725 N   0  0  0  0  0  0  0  0  0  0  0  0
    3.6268    1.1916   -1.2182 S   0  0  0  0  0  0  0  0  0  0  0  0
    4.2381   -0.1133   -1.2404 O   0  0  0  0  0  0  0  0  0  0  0  0
    4.4344    2.3483   -1.5801 O   0  0  0  0  0  0  0  0  0  0  0  0
    2.9761    1.4586    0.4630 C   0  0  0  0  0  0  0  0  0  0  0  0
    2.7304    0.3301    1.2818 C   0  0  0  0  0  0  0  0  0  0  0  0
    1.8351    0.3791    2.3806 C   0  0  0  0  0  0  0  0  0  0  0  0
    1.1956   -0.7911    2.8655 N   0  0  0  0  0  0  0  0  0  0  0  0
    1.3423   -2.1037    2.3996 C   0  0  0  0  0  0  0  0  0  0  0  0
    2.5892   -2.5309    2.1668 N   0  0  0  0  0  0  0  0  0  0  0  0
    2.7559   -3.7841    1.7221 C   0  0  0  0  0  0  0  0  0  0  0  0
    1.7158   -4.6363    1.4860 C   0  0  0  0  0  0  0  0  0  0  0  0
    1.9341   -5.8917    1.0711 F   0  0  0  0  0  0  0  0  0  0  0  0
    0.4468   -4.1420    1.7308 C   0  0  0  0  0  0  0  0  0  0  0  0
   -0.6558   -5.0195    1.6277 N   0  0  0  0  0  0  0  0  0  0  0  0
   -2.0049   -4.6390    1.6231 C   0  0  0  0  0  0  0  0  0  0  0  0
   -2.4810   -3.6238    0.7951 C   0  0  0  0  0  0  0  0  0  0  0  0
   -3.8296   -3.2657    0.8124 C   0  0  0  0  0  0  0  0  0  0  0  0
   -4.7280   -3.8943    1.6745 C   0  0  0  0  0  0  0  0  0  0  0  0
   -6.0352   -3.5184    1.8680 O   0  0  0  0  0  0  0  0  0  0  0  0
   -6.5093   -2.3257    1.2049 C   0  0  0  0  0  0  0  0  0  0  0  0
   -5.6675   -1.1112    1.5610 C   0  0  0  0  0  0  0  0  0  0  0  0
   -4.9453   -0.0694    1.8664 C   0  0  0  0  0  0  0  0  0  0  0  0
   -4.2689   -4.9616    2.4511 C   0  0  0  0  0  0  0  0  0  0  0  0
   -2.9141   -5.3210    2.4343 C   0  0  0  0  0  0  0  0  0  0  0  0
    0.2599   -2.8771    2.2055 N   0  0  0  0  0  0  0  0  0  0  0  0
    1.4122    1.6415    2.8016 C   0  0  0  0  0  0  0  0  0  0  0  0
    1.8216    2.7948    2.1054 C   0  0  0  0  0  0  0  0  0  0  0  0
    2.5898    2.7204    0.9228 C   0  0  0  0  0  0  0  0  0  0  0  0
    2.9067    3.9701    0.1597 C   0  0  0  0  0  0  0  0  0  0  0  0
  1  2  1  0
  2  3  1  0
  3  4  2  0
  3  5  1  0
  5  6  1  0
  6  7  2  0
  6  8  2  0
  6  9  1  0
  9 10  2  0
  9 33  1  0
 10 11  1  0
 11 12  1  0
 11 31  2  0
 12 13  1  0
 13 14  2  0
 13 30  1  0
 14 15  1  0
 15 16  2  0
 16 17  1  0
 16 18  1  0
 18 19  1  0
 18 30  2  0
 19 20  1  0
 20 21  2  0
 20 29  1  0
 21 22  1  0
 22 23  2  0
 23 24  1  0
 23 28  1  0
 24 25  1  0
 25 26  1  0
 26 27  3  0
 28 29  2  0
 31 32  1  0
 32 33  2  0
 33 34  1  0
M  END
>  <DRUGBANK_ID>  (1) 
DB06321

>  <COMMON_NAME>  (1) 
R-348

>  <CAS_NUMBER>  (1) 
916742-11-5

>  <UNII>  (1) 
3J396119JY

>  <SYNONYMS>  (1) 
5-Fluoro-N-(4-methyl-3-propionylaminosulfonylphenyl)-N'-(4-(prop-2-ynyloxy)phenyl)-2,4-pyrimidinediamine

$$$$
