2CC
     RDKit          3D

 31 35  0  0  0  0  0  0  0  0999 V2000
    1.0772    0.0612    0.0186 Cl  0  0  0  0  0  0  0  0  0  0  0  0
    2.7925    0.0737   -0.0185 C   0  0  0  0  0  0  0  0  0  0  0  0
    3.4944    1.2841   -0.0098 C   0  0  0  0  0  0  0  0  0  0  0  0
    4.8870    1.3077   -0.0333 C   0  0  0  0  0  0  0  0  0  0  0  0
    5.6100    0.1156   -0.0808 C   0  0  0  0  0  0  0  0  0  0  0  0
    4.9183   -1.1158   -0.0884 C   0  0  0  0  0  0  0  0  0  0  0  0
    3.5244   -1.1168   -0.0454 C   0  0  0  0  0  0  0  0  0  0  0  0
    3.1127   -2.4354   -0.0273 N   0  0  0  0  0  0  0  0  0  0  0  0
    4.1952   -3.2694   -0.0161 C   0  0  0  0  0  0  0  0  0  0  0  0
    5.3157   -2.4792   -0.0600 C   0  0  0  0  0  0  0  0  0  0  0  0
    6.6890   -2.9431   -0.0255 C   0  0  0  0  0  0  0  0  0  0  0  0
    7.6350   -2.7064    0.9556 C   0  0  0  0  0  0  0  0  0  0  0  0
    7.6062   -1.9754    2.2135 C   0  0  0  0  0  0  0  0  0  0  0  0
    8.5867   -1.8276    2.9370 O   0  0  0  0  0  0  0  0  0  0  0  0
    6.4141   -1.4492    2.5776 O   0  0  0  0  0  0  0  0  0  0  0  0
    8.7771   -3.3718    0.5100 N   0  0  0  0  0  0  0  0  0  0  0  0
    8.5736   -4.0405   -0.6976 C   0  0  0  0  0  0  0  0  0  0  0  0
    9.6321   -4.8063   -1.3408 C   0  0  0  0  0  0  0  0  0  0  0  0
    9.3285   -5.3704   -2.5338 O   0  0  0  0  0  0  0  0  0  0  0  0
   10.7521   -4.9539   -0.8625 O   0  0  0  0  0  0  0  0  0  0  0  0
    7.2525   -3.7831   -1.0228 C   0  0  0  0  0  0  0  0  0  0  0  0
    6.5203   -4.2820   -2.1753 C   0  0  0  0  0  0  0  0  0  0  0  0
    6.3512   -5.6098   -2.4941 C   0  0  0  0  0  0  0  0  0  0  0  0
    5.7712   -5.6589   -3.7297 N   0  0  0  0  0  0  0  0  0  0  0  0
    5.4745   -4.3841   -4.1663 C   0  0  0  0  0  0  0  0  0  0  0  0
    5.9332   -3.4896   -3.1967 C   0  0  0  0  0  0  0  0  0  0  0  0
    5.7642   -2.1055   -3.4167 C   0  0  0  0  0  0  0  0  0  0  0  0
    5.1041   -1.6597   -4.5636 C   0  0  0  0  0  0  0  0  0  0  0  0
    4.6578   -2.5714   -5.5157 C   0  0  0  0  0  0  0  0  0  0  0  0
    4.8511   -3.9439   -5.3381 C   0  0  0  0  0  0  0  0  0  0  0  0
    4.3235   -5.0621   -6.5292 Cl  0  0  0  0  0  0  0  0  0  0  0  0
  2  1  1  0
  2  3  2  0
  4  3  1  0
  5  4  2  0
  6  5  1  0
  6  7  2  0
  7  2  1  0
  8  7  1  0
  9  8  1  0
  9 10  2  0
 10  6  1  0
 11 10  1  0
 12 11  2  0
 12 13  1  0
 13 15  1  0
 14 13  2  0
 16 12  1  0
 17 16  1  0
 17 21  2  0
 18 17  1  0
 19 18  1  0
 20 18  2  0
 21 11  1  0
 22 21  1  0
 22 23  2  0
 24 23  1  0
 25 24  1  0
 26 22  1  0
 26 25  2  0
 27 26  1  0
 28 27  2  0
 28 29  1  0
 29 30  2  0
 30 25  1  0
 30 31  1  0
M  END
>  <DRUGBANK_ID>  (1) 
DB06955

>  <COMMON_NAME>  (1) 
3,4-bis(7-chloro-1H-indol-3-yl)-1H-pyrrole-2,5-dicarboxylic acid

$$$$
