
     RDKit          3D

 27 30  0  0  0  0  0  0  0  0999 V2000
   -0.3752    1.2140    0.0510 C   0  0  0  0  0  0  0  0  0  0  0  0
    0.9677    1.2930    0.0160 C   0  0  0  0  0  0  0  0  0  0  0  0
    1.6926    0.0850    0.0225 C   0  0  0  0  0  0  0  0  0  0  0  0
    1.0543   -1.1781    0.0746 C   0  0  0  0  0  0  0  0  0  0  0  0
   -0.3084   -1.2024    0.1695 C   0  0  0  0  0  0  0  0  0  0  0  0
   -0.9290    0.0203    0.1630 N   0  0  0  0  0  0  0  0  0  0  0  0
    1.5074    2.6545    0.0134 C   0  0  0  0  0  0  0  0  0  0  0  0
    0.8729    3.6829    0.0263 O   0  0  0  0  0  0  0  0  0  0  0  0
    2.8485    2.6327    0.0293 O   0  0  0  0  0  0  0  0  0  0  0  0
   -1.3318   -2.3853    0.0473 C   0  0  0  0  0  0  0  0  0  0  0  0
   -1.5695   -3.7367    0.7274 C   0  0  0  0  0  0  0  0  0  0  0  0
   -0.7704   -3.6958   -0.5125 C   0  0  0  0  0  0  0  0  0  0  0  0
   -3.1460   -1.0293    1.0869 C   0  0  0  0  0  0  0  0  0  0  0  0
   -2.6946   -1.6708   -0.1167 C   0  0  0  0  0  0  0  0  0  0  0  0
   -3.0132   -1.0672   -1.3424 C   0  0  0  0  0  0  0  0  0  0  0  0
   -3.6969    0.1574   -1.3288 C   0  0  0  0  0  0  0  0  0  0  0  0
   -4.1023    0.8093   -0.1364 C   0  0  0  0  0  0  0  0  0  0  0  0
   -4.9210    2.0941   -0.2294 C   0  0  0  0  0  0  0  0  0  0  0  0
   -5.6123    2.3919    1.1187 C   0  0  0  0  0  0  0  0  0  0  0  0
   -4.5987    2.3613    2.2569 C   0  0  0  0  0  0  0  0  0  0  0  0
   -4.0426    0.9300    2.4417 C   0  0  0  0  0  0  0  0  0  0  0  0
   -3.7671    0.2372    1.1007 C   0  0  0  0  0  0  0  0  0  0  0  0
   -2.8053    1.0460    3.3702 C   0  0  0  0  0  0  0  0  0  0  0  0
   -5.1050    0.0533    3.1238 C   0  0  0  0  0  0  0  0  0  0  0  0
   -6.0212    1.8670   -1.2846 C   0  0  0  0  0  0  0  0  0  0  0  0
   -4.0611    3.3083   -0.6337 C   0  0  0  0  0  0  0  0  0  0  0  0
   -2.3571   -1.4955   -2.6236 C   0  0  0  0  0  0  0  0  0  0  0  0
  1  2  2  0
  1  6  1  0
  2  3  1  0
  2  7  1  0
  3  4  2  0
  4  5  1  0
  5  6  2  0
  5 10  1  0
  7  8  2  0
  7  9  1  0
 10 11  1  0
 10 12  1  0
 10 14  1  0
 11 12  1  0
 13 14  2  0
 13 22  1  0
 14 15  1  0
 15 16  2  0
 15 27  1  0
 16 17  1  0
 17 18  1  0
 17 22  2  0
 18 19  1  0
 18 25  1  0
 18 26  1  0
 19 20  1  0
 20 21  1  0
 21 22  1  0
 21 23  1  0
 21 24  1  0
M  END
>  <DRUGBANK_ID>  (1) 
DB01941

>  <SECONDARY_ACCESSION_NUMBERS>  (1) 
EXPT02021

>  <COMMON_NAME>  (1) 
LG-100268

>  <CAS_NUMBER>  (1) 
153559-76-3

>  <UNII>  (1) 
UVU4X1103P

$$$$
