
     RDKit          3D

 12 11  0  0  1  0  0  0  0  0999 V2000
    1.0529    0.0260   -0.1064 C   0  0  0  0  0  0  0  0  0  0  0  0
    0.5050    1.3778    0.3450 C   0  0  0  0  0  0  0  0  0  0  0  0
    0.9971    2.4739   -0.6042 C   0  0  0  0  0  0  0  0  0  0  0  0
   -1.0335    1.3711    0.4047 C   0  0  0  0  0  0  0  0  0  0  0  0
   -1.6535    0.3523    1.3939 C   0  0  1  0  0  0  0  0  0  0  0  0
   -1.1956    0.6461    2.7622 N   0  0  0  0  0  0  0  0  0  0  0  0
   -2.0433    0.7600    3.8360 C   0  0  0  0  0  0  0  0  0  0  0  0
   -1.4104    1.1172    5.1480 C   0  0  0  0  0  0  0  0  0  0  0  0
   -3.2567    0.5839    3.7776 O   0  0  0  0  0  0  0  0  0  0  0  0
   -3.1827    0.4080    1.1484 C   0  0  0  0  0  0  0  0  0  0  0  0
   -3.7348   -0.7821    0.8006 O   0  0  0  0  0  0  0  0  0  0  0  0
   -3.8505    1.4337    1.2076 O   0  0  0  0  0  0  0  0  0  0  0  0
  1  2  1  0
  2  3  1  0
  2  4  1  0
  5  4  1  6
  5  6  1  0
  5 10  1  0
  6  7  1  0
  7  8  1  0
  7  9  2  0
 10 11  1  0
 10 12  2  0
M  END
>  <DRUGBANK_ID>  (1) 
DB17837

>  <COMMON_NAME>  (1) 
DS-1211

>  <CAS_NUMBER>  (1) 
19764-30-8

>  <UNII>  (1) 
91WU82GA22

>  <SYNONYMS>  (1) 
Ac-D-Leu-OH; ACETYLLEUCINE, (R)-; ACETYLLEUCINE, D-; D-leucine, N-acetyl-; N-Acetyl-D-leucine; N-Acetyl-R-leucine

$$$$
