
     RDKit          3D

 39 44  0  0  0  0  0  0  0  0999 V2000
   -0.0522   -0.5790   -0.5842 C   0  0  1  0  0  0  0  0  0  0  0  0
    1.3579   -0.6406   -0.7779 C   0  0  0  0  0  0  0  0  0  0  0  0
   -0.8446    0.5662   -0.7687 O   0  0  0  0  0  0  0  0  0  0  0  0
    1.7328    0.6272   -0.0674 C   0  0  1  0  0  0  0  0  0  0  0  0
   -0.5518    1.7616   -0.1902 C   0  0  1  0  0  0  0  0  0  0  0  0
    0.8817    1.8162   -0.6282 C   0  0  1  0  0  0  0  0  0  0  0  0
    1.8136    0.5908    1.4099 O   0  0  0  0  0  0  0  0  0  0  0  0
   -1.5275    2.7723   -0.7470 C   0  0  0  0  0  0  0  0  0  0  0  0
    1.4415    3.0179   -0.2178 O   0  0  0  0  0  0  0  0  0  0  0  0
    0.7148    0.4416    2.3280 C   0  0  0  0  0  0  0  0  0  0  0  0
   -3.8152   -2.8067   -1.7442 C   0  0  1  0  0  0  0  0  0  0  0  0
   -3.9846   -3.3746    0.1540 C   0  0  2  0  0  0  0  0  0  0  0  0
   -4.1750   -1.7955   -2.7425 C   0  0  2  0  0  0  0  0  0  0  0  0
   -3.1877   -1.1322   -1.7632 C   0  0  0  0  0  0  0  0  0  0  0  0
   -3.8301   -3.8355   -3.1412 C   0  0  0  0  0  0  0  0  0  0  0  0
   -4.9705   -2.7135    0.8302 C   0  0  1  0  0  0  0  0  0  0  0  0
   -3.0248   -3.4459    1.9838 C   0  0  0  0  0  0  0  0  0  0  0  0
   -2.2684   -2.1801   -3.4144 C   0  0  0  0  0  0  0  0  0  0  0  0
   -5.4798   -1.3232   -1.3370 C   0  0  0  0  0  0  0  0  0  0  0  0
   -5.1379   -1.5175   -3.7347 O   0  0  0  0  0  0  0  0  0  0  0  0
   -1.9924   -0.7269   -2.5154 C   0  0  0  0  0  0  0  0  0  0  0  0
   -4.1774   -3.5492   -4.3092 O   0  0  0  0  0  0  0  0  0  0  0  0
   -3.6555   -1.9944    1.0373 C   0  0  1  0  0  0  0  0  0  0  0  0
   -5.9814   -2.0721    0.0239 C   0  0  0  0  0  0  0  0  0  0  0  0
   -1.9702   -4.3928    1.9731 C   0  0  0  0  0  0  0  0  0  0  0  0
   -1.2415   -2.0527   -2.3336 C   0  0  1  0  0  0  0  0  0  0  0  0
   -2.1507   -3.3884    0.7797 C   0  0  2  0  0  0  0  0  0  0  0  0
   -3.2955   -0.6019    0.7917 C   0  0  0  0  0  0  0  0  0  0  0  0
   -4.0908   -1.4506    2.4355 O   0  0  0  0  0  0  0  0  0  0  0  0
   -0.5732   -1.7501   -1.2133 O   0  0  0  0  0  0  0  0  0  0  0  0
   -0.9273   -2.6332    0.9946 C   0  0  2  0  0  0  0  0  0  0  0  0
   -2.2951   -4.7566   -0.2152 C   0  0  0  0  0  0  0  0  0  0  0  0
   -1.8669   -1.0108    0.8959 C   0  0  0  0  0  0  0  0  0  0  0  0
    0.2879   -3.6641    0.7531 C   0  0  0  0  0  0  0  0  0  0  0  0
    0.4122   -4.9181   -0.0869 C   0  0  0  0  0  0  0  0  0  0  0  0
    1.5030   -3.3649    1.1932 C   0  0  0  0  0  0  0  0  0  0  0  0
    1.7922   -5.2139   -0.1539 O   0  0  0  0  0  0  0  0  0  0  0  0
    2.4405   -4.2491    0.5304 C   0  0  0  0  0  0  0  0  0  0  0  0
    3.6423   -4.0784    0.5435 O   0  0  0  0  0  0  0  0  0  0  0  0
  1  2  1  0
  1  3  1  0
  1 30  1  6
  2  4  1  0
  3  5  1  0
  4  6  1  0
  4  7  1  1
  5  6  1  0
  5  8  1  6
  6  9  1  1
  7 10  1  0
 11 12  1  0
 11 13  1  0
 11 14  1  0
 11 15  1  6
 12 16  1  0
 12 17  1  1
 13 18  1  0
 13 19  1  0
 13 20  1  6
 14 21  1  0
 15 22  2  0
 16 23  1  0
 16 24  1  6
 17 25  1  0
 18 26  1  0
 19 24  1  0
 21 26  1  0
 23 27  1  0
 23 28  1  0
 23 29  1  1
 25 27  1  0
 26 30  1  6
 27 31  1  0
 27 32  1  6
 28 33  1  0
 31 33  1  0
 31 34  1  6
 34 35  1  0
 34 36  2  0
 35 37  1  0
 36 38  1  0
 37 38  1  0
 38 39  2  0
M  END
>  <DRUGBANK_ID>  (1) 
DB13240

>  <COMMON_NAME>  (1) 
Cymarin

>  <CAS_NUMBER>  (1) 
508-77-0

>  <UNII>  (1) 
UK3LS8435E

>  <SYNONYMS>  (1) 
Cymarine

$$$$
