
     RDKit          3D

 12 13  0  0  1  0  0  0  0  0999 V2000
   -0.9907    0.9375   -1.2772 C   0  0  0  0  0  0  0  0  0  0  0  0
    0.4304    0.3121   -1.3235 C   0  0  2  0  0  0  0  0  0  0  0  0
    1.4509    1.3134   -2.0110 C   0  0  2  0  0  0  0  0  0  0  0  0
    0.8909    1.8618   -3.3367 C   0  0  0  0  0  0  0  0  0  0  0  0
    1.0000    0.6589   -4.2759 C   0  0  0  0  0  0  0  0  0  0  0  0
    1.6085   -0.4377   -3.3747 C   0  0  1  0  0  0  0  0  0  0  0  0
    2.5711    0.4045   -2.5358 C   0  0  0  0  0  0  0  0  0  0  0  0
    0.5770   -0.9555   -2.3068 C   0  0  0  0  0  0  0  0  0  0  0  0
    1.1509   -2.2177   -1.6063 C   0  0  0  0  0  0  0  0  0  0  0  0
   -0.7298   -1.4385   -2.9653 C   0  0  0  0  0  0  0  0  0  0  0  0
    0.9888    0.0020    0.0222 N   0  0  0  0  0  0  0  0  0  0  0  0
    0.1513    0.3004    1.1731 C   0  0  0  0  0  0  0  0  0  0  0  0
  2  3  1  0
  2  8  1  0
  2 11  1  0
  2  1  1  1
  3  4  1  6
  3  7  1  0
  4  5  1  0
  6  5  1  6
  6  7  1  0
  6  8  1  0
  8  9  1  0
  8 10  1  0
 11 12  1  0
M  END
>  <DRUGBANK_ID>  (1) 
DB11807

>  <COMMON_NAME>  (1) 
Dexmecamylamine

>  <CAS_NUMBER>  (1) 
107538-05-6

>  <UNII>  (1) 
5Y1141YI4U

>  <SYNONYMS>  (1) 
Dexmecamylamine

$$$$
