
     RDKit          3D

 17 17  0  0  0  0  0  0  0  0999 V2000
    1.0853   -0.0302   -0.1333 C   0  0  0  0  0  0  0  0  0  0  0  0
    0.2946    1.1611   -0.7068 N   0  0  0  0  0  0  0  0  0  0  0  0
   -0.5127    1.7061    0.5095 C   0  0  0  0  0  0  0  0  0  0  0  0
   -0.4834    0.6899   -1.9481 C   0  0  0  0  0  0  0  0  0  0  0  0
    1.0514    2.4183   -1.0962 C   0  0  0  0  0  0  0  0  0  0  0  0
    2.3207    2.6861   -0.6337 C   0  0  0  0  0  0  0  0  0  0  0  0
    2.6836    4.0121   -0.3772 C   0  0  0  0  0  0  0  0  0  0  0  0
    1.7638    5.0522   -0.5719 C   0  0  0  0  0  0  0  0  0  0  0  0
    0.5208    4.8288   -1.1524 C   0  0  0  0  0  0  0  0  0  0  0  0
    0.2021    3.4993   -1.4738 C   0  0  0  0  0  0  0  0  0  0  0  0
   -0.5057    5.9336   -1.4436 C   0  0  0  0  0  0  0  0  0  0  0  0
   -1.0437    5.6143   -2.7347 O   0  0  0  0  0  0  0  0  0  0  0  0
   -1.5849    5.8424   -0.5091 O   0  0  0  0  0  0  0  0  0  0  0  0
    0.1502    7.3602   -1.4299 C   0  0  0  0  0  0  0  0  0  0  0  0
    0.5420    7.7194   -0.1844 F   0  0  0  0  0  0  0  0  0  0  0  0
    1.2575    7.3522   -2.2203 F   0  0  0  0  0  0  0  0  0  0  0  0
   -0.6679    8.3215   -1.9032 F   0  0  0  0  0  0  0  0  0  0  0  0
  1  2  1  0
  2  3  1  0
  2  4  1  0
  2  5  1  0
  5  6  2  0
  5 10  1  0
  6  7  1  0
  7  8  2  0
  8  9  1  0
  9 10  2  0
  9 11  1  0
 11 12  1  0
 11 13  1  0
 11 14  1  0
 14 15  1  0
 14 16  1  0
 14 17  1  0
M  CHG  1   2   1
M  END
>  <DRUGBANK_ID>  (1) 
DB03359

>  <SECONDARY_ACCESSION_NUMBERS>  (1) 
EXPT02285

>  <COMMON_NAME>  (1) 
M-(N,N,N-Trimethylammonio)-2,2,2-Trifluoro-1,1-Dihydroxyethylbenzene

$$$$
