
     RDKit          3D

 16 17  0  0  1  0  0  0  0  0999 V2000
    2.1382   -0.6740    0.0168 C   0  0  0  0  0  0  0  0  0  0  0  0
    2.1256    0.7184    0.0137 C   0  0  0  0  0  0  0  0  0  0  0  0
    0.9396   -1.3997    0.0222 C   0  0  0  0  0  0  0  0  0  0  0  0
    0.9212    1.4261    0.0060 C   0  0  0  0  0  0  0  0  0  0  0  0
   -2.2128   -2.5061    0.0394 C   0  0  0  0  0  0  0  0  0  0  0  0
   -0.2923   -0.7106   -0.0116 C   0  0  0  0  0  0  0  0  0  0  0  0
   -1.6720   -1.1108   -0.0499 C   0  0  0  0  0  0  0  0  0  0  0  0
   -3.0242   -2.7992    1.3243 C   0  0  1  0  0  0  0  0  0  0  0  0
   -0.2653    0.6850   -0.0260 C   0  0  0  0  0  0  0  0  0  0  0  0
   -2.4068    0.0453   -0.2435 C   0  0  0  0  0  0  0  0  0  0  0  0
   -4.2913   -1.9307    1.4621 C   0  0  0  0  0  0  0  0  0  0  0  0
   -3.4518   -4.2251    1.2854 N   0  0  0  0  0  0  0  0  0  0  0  0
   -1.5691    1.1093   -0.0832 N   0  0  0  0  0  0  0  0  0  0  0  0
   -3.6982    0.2632   -0.4656 O   0  0  0  0  0  0  0  0  0  0  0  0
   -5.4040   -2.2345    1.0728 O   0  0  0  0  0  0  0  0  0  0  0  0
   -4.0469   -0.7017    1.9592 O   0  0  0  0  0  0  0  0  0  0  0  0
  2  1  2  0
  3  1  1  0
  4  2  1  0
  6  3  2  0
  7  5  1  0
  7  6  1  0
  8  5  1  0
  8 12  1  6
  9  4  2  0
  9  6  1  0
 10  7  2  0
 11  8  1  0
 13  9  1  0
 13 10  1  0
 14 10  1  0
 15 11  2  0
 16 11  1  0
M  END
>  <DRUGBANK_ID>  (1) 
DB03679

>  <SECONDARY_ACCESSION_NUMBERS>  (1) 
EXPT03112

>  <COMMON_NAME>  (1) 
2-Hydroxy-Tryptophan

>  <UNII>  (1) 
TCB9GM9U3X

$$$$
