
     RDKit          3D

 18 19  0  0  1  0  0  0  0  0999 V2000
    2.9162   -0.5466    1.0144 F   0  0  0  0  0  0  0  0  0  0  0  0
    3.4598    2.0811   -2.6713 O   0  0  0  0  0  0  0  0  0  0  0  0
    5.0881    0.8066    0.1245 O   0  0  0  0  0  0  0  0  0  0  0  0
    5.8583    2.5999   -4.1330 O   0  0  0  0  0  0  0  0  0  0  0  0
    0.2188    0.5704   -3.8467 O   0  0  0  0  0  0  0  0  0  0  0  0
    2.4224    0.0803   -3.4626 N   0  0  0  0  0  0  0  0  0  0  0  0
    1.2006   -0.9246   -5.2567 N   0  0  0  0  0  0  0  0  0  0  0  0
    2.1808   -2.6083   -6.5060 N   0  0  0  0  0  0  0  0  0  0  0  0
    4.7638    1.7042   -2.1459 C   0  0  1  0  0  0  0  0  0  0  0  0
    4.5423    0.5400   -1.1555 C   0  0  2  0  0  0  0  0  0  0  0  0
    2.5046    1.0490   -2.3521 C   0  0  1  0  0  0  0  0  0  0  0  0
    3.0487    0.4159   -1.1087 C   0  0  0  0  0  0  0  0  0  0  0  0
    5.6578    1.4088   -3.3703 C   0  0  0  0  0  0  0  0  0  0  0  0
    2.3220   -0.0425   -0.0849 C   0  0  0  0  0  0  0  0  0  0  0  0
    3.4333   -0.8132   -3.7123 C   0  0  0  0  0  0  0  0  0  0  0  0
    1.2215   -0.0479   -4.1770 C   0  0  0  0  0  0  0  0  0  0  0  0
    3.3716   -1.7735   -4.6138 C   0  0  0  0  0  0  0  0  0  0  0  0
    2.1896   -1.7350   -5.4626 C   0  0  0  0  0  0  0  0  0  0  0  0
  1 14  1  0
  2  9  1  0
  2 11  1  0
  4 13  1  0
  5 16  2  0
  6 15  1  0
  6 16  1  0
  7 16  1  0
  7 18  2  0
  8 18  1  0
  9 10  1  0
  9 13  1  6
 10 12  1  0
 10  3  1  1
 11 12  1  0
 11  6  1  6
 12 14  2  0
 15 17  2  0
 17 18  1  0
M  END
>  <DRUGBANK_ID>  (1) 
DB06433

>  <COMMON_NAME>  (1) 
Tezacitabine

>  <CAS_NUMBER>  (1) 
171176-43-5

>  <UNII>  (1) 
7607Y95N9S

>  <SYNONYMS>  (1) 
2'-Deoxy-2'-(fluoromethylene)cytidine; Tezacitabine

$$$$
