
     RDKit          3D

 11 12  0  0  0  0  0  0  0  0999 V2000
   -2.2128    0.6583   -0.0009 C   0  0  0  0  0  0  0  0  0  0  0  0
   -1.0478    1.4233    0.0007 C   0  0  0  0  0  0  0  0  0  0  0  0
   -0.8955   -1.3958    0.0006 C   0  0  0  0  0  0  0  0  0  0  0  0
   -2.1285   -0.7390    0.0009 C   0  0  0  0  0  0  0  0  0  0  0  0
    0.2540   -0.6150    0.0002 C   0  0  0  0  0  0  0  0  0  0  0  0
    0.1722    0.7735    0.0010 C   0  0  0  0  0  0  0  0  0  0  0  0
    2.4496   -0.1081    0.0002 C   0  0  0  0  0  0  0  0  0  0  0  0
   -3.2639   -1.4964    0.0041 O   0  0  0  0  0  0  0  0  0  0  0  0
    3.6639   -0.2740    0.0003 O   0  0  0  0  0  0  0  0  0  0  0  0
    1.5362   -1.1675   -0.0005 O   0  0  0  0  0  0  0  0  0  0  0  0
    1.7551    1.5146    0.0013 S   0  0  0  0  0  0  0  0  0  0  0  0
  2  1  2  0
  4  1  1  0
  4  3  2  0
  5  3  1  0
  6  2  1  0
  6  5  2  0
  8  4  1  0
  9  7  2  0
 10  5  1  0
 10  7  1  0
 11  6  1  0
 11  7  1  0
M  END
>  <DRUGBANK_ID>  (1) 
DB13343

>  <COMMON_NAME>  (1) 
Tioxolone

>  <CAS_NUMBER>  (1) 
4991-65-5

>  <UNII>  (1) 
S0FAJ1R9CD

>  <SYNONYMS>  (1) 
tioxolona; Tioxolone

$$$$
