
     RDKit          3D

 22 22  0  0  1  0  0  0  0  0999 V2000
    0.9470   -0.0482    0.0693 C   0  0  0  0  0  0  0  0  0  0  0  0
    0.4617   -1.2013   -0.7573 C   0  0  0  0  0  0  0  0  0  0  0  0
   -0.2618   -2.0783   -0.2913 O   0  0  0  0  0  0  0  0  0  0  0  0
    0.8680   -1.2985   -2.0546 N   0  0  0  0  0  0  0  0  0  0  0  0
    1.6288   -0.3248   -2.8516 C   0  0  1  0  0  0  0  0  0  0  0  0
    2.9890   -0.8735   -3.3977 C   0  0  0  0  0  0  0  0  0  0  0  0
    3.0182   -1.9347   -4.4976 C   0  0  0  0  0  0  0  0  0  0  0  0
    2.7990   -1.6172   -5.8602 C   0  0  0  0  0  0  0  0  0  0  0  0
    2.5199   -2.6414   -6.8005 C   0  0  0  0  0  0  0  0  0  0  0  0
    1.6220   -2.1112   -8.6734 I   0  0  0  0  0  0  0  0  0  0  0  0
    2.5290   -3.9832   -6.4054 C   0  0  0  0  0  0  0  0  0  0  0  0
    2.0768   -4.9784   -7.2318 O   0  0  0  0  0  0  0  0  0  0  0  0
    2.8912   -4.3028   -5.0921 C   0  0  0  0  0  0  0  0  0  0  0  0
    3.1038   -6.2889   -4.4718 I   0  0  0  0  0  0  0  0  0  0  0  0
    3.1016   -3.2916   -4.1400 C   0  0  0  0  0  0  0  0  0  0  0  0
    0.7529    0.3693   -3.9184 C   0  0  0  0  0  0  0  0  0  0  0  0
    0.7358    1.5991   -4.0173 O   0  0  0  0  0  0  0  0  0  0  0  0
    0.0634   -0.3536   -4.8499 N   0  0  0  0  0  0  0  0  0  0  0  0
    0.0647   -1.7817   -5.0547 C   0  0  0  0  0  0  0  0  0  0  0  0
   -1.1553   -2.6558   -5.0805 C   0  0  0  0  0  0  0  0  0  0  0  0
   -1.1592   -3.5152   -6.1387 O   0  0  0  0  0  0  0  0  0  0  0  0
   -1.9903   -2.6598   -4.2086 O   0  0  0  0  0  0  0  0  0  0  0  0
  1  2  1  0
  2  3  2  0
  2  4  1  0
  5  4  1  0
  5  6  1  6
  5 16  1  0
  6  7  1  0
  7  8  2  0
  7 15  1  0
  8  9  1  0
  9 10  1  0
  9 11  2  0
 11 12  1  0
 11 13  1  0
 13 14  1  0
 13 15  2  0
 16 17  2  0
 16 18  1  0
 18 19  1  0
 19 20  1  0
 20 21  1  0
 20 22  2  0
M  END
>  <DRUGBANK_ID>  (1) 
DB02598

>  <SECONDARY_ACCESSION_NUMBERS>  (1) 
EXPT01950

>  <COMMON_NAME>  (1) 
N-Alpha-Acetyl-3,5-Diiodotyrosylglycine

$$$$
