
     RDKit          3D

 44 50  0  0  0  0  0  0  0  0999 V2000
    0.9875   -0.2728    0.0094 C   0  0  0  0  0  0  0  0  0  0  0  0
    0.5346   -1.6433    0.0431 O   0  0  0  0  0  0  0  0  0  0  0  0
    1.0652   -2.4705   -0.9332 C   0  0  0  0  0  0  0  0  0  0  0  0
    1.7995   -2.0944   -1.8135 O   0  0  0  0  0  0  0  0  0  0  0  0
    0.5842   -3.8363   -0.7599 C   0  0  0  0  0  0  0  0  0  0  0  0
   -0.7175   -4.1802   -0.4948 C   0  0  0  0  0  0  0  0  0  0  0  0
   -0.8718   -5.5072   -0.5379 N   0  0  0  0  0  0  0  0  0  0  0  0
    0.3080   -6.0753   -0.6275 C   0  0  0  0  0  0  0  0  0  0  0  0
    1.2487   -5.0820   -0.9184 N   0  0  0  0  0  0  0  0  0  0  0  0
    2.6293   -5.2652   -1.3499 C   0  0  0  0  0  0  0  0  0  0  0  0
    3.5103   -6.2480   -0.5879 C   0  0  0  0  0  0  0  0  0  0  0  0
    3.1507   -7.6669   -0.7356 C   0  0  0  0  0  0  0  0  0  0  0  0
    4.1888   -8.5357   -1.1255 C   0  0  0  0  0  0  0  0  0  0  0  0
    3.9327   -9.8590   -1.2519 C   0  0  0  0  0  0  0  0  0  0  0  0
    2.8327  -10.3679   -0.6546 C   0  0  0  0  0  0  0  0  0  0  0  0
    1.8318   -9.4924   -0.6084 C   0  0  0  0  0  0  0  0  0  0  0  0
    1.8724   -8.1413   -0.5249 C   0  0  0  0  0  0  0  0  0  0  0  0
    0.5474   -7.4755   -0.3681 C   0  0  0  0  0  0  0  0  0  0  0  0
   -0.5572   -8.2498    0.0047 C   0  0  0  0  0  0  0  0  0  0  0  0
   -2.0349   -7.8328   -0.0918 C   0  0  0  0  0  0  0  0  0  0  0  0
   -2.8753   -8.5572    0.9530 C   0  0  0  0  0  0  0  0  0  0  0  0
   -2.8370  -10.0226    0.9169 N   0  0  0  0  0  0  0  0  0  0  0  0
   -1.5035  -10.4310    1.2959 C   0  0  0  0  0  0  0  0  0  0  0  0
   -0.5402   -9.7653    0.3860 C   0  0  0  0  0  0  0  0  0  0  0  0
   -3.3325  -10.6630   -0.3363 C   0  0  0  0  0  0  0  0  0  0  0  0
   -2.9511  -10.3246   -1.8572 C   0  0  0  0  0  0  0  0  0  0  0  0
   -1.5684  -10.6628   -2.4611 C   0  0  0  0  0  0  0  0  0  0  0  0
   -0.6650   -9.6861   -2.9391 C   0  0  0  0  0  0  0  0  0  0  0  0
    0.6922  -10.0217   -3.2625 C   0  0  0  0  0  0  0  0  0  0  0  0
    1.2240  -11.3220   -3.0401 C   0  0  0  0  0  0  0  0  0  0  0  0
    0.3403  -12.2517   -2.4995 C   0  0  0  0  0  0  0  0  0  0  0  0
   -1.0368  -11.9521   -2.2829 C   0  0  0  0  0  0  0  0  0  0  0  0
    2.6061  -11.4657   -3.1294 O   0  0  0  0  0  0  0  0  0  0  0  0
    3.4050  -12.6449   -2.6891 C   0  0  0  0  0  0  0  0  0  0  0  0
    3.9798  -12.8498   -1.2094 C   0  0  0  0  0  0  0  0  0  0  0  0
    5.0565  -12.2385   -0.4713 C   0  0  0  0  0  0  0  0  0  0  0  0
    5.0918  -12.2423    0.9718 C   0  0  0  0  0  0  0  0  0  0  0  0
    4.2410  -13.1261    1.6437 C   0  0  0  0  0  0  0  0  0  0  0  0
    4.2872  -13.5475    3.0035 C   0  0  0  0  0  0  0  0  0  0  0  0
    3.6315  -14.7427    3.3365 C   0  0  0  0  0  0  0  0  0  0  0  0
    2.8040  -15.3755    2.4101 C   0  0  0  0  0  0  0  0  0  0  0  0
    2.5604  -14.7886    1.1928 C   0  0  0  0  0  0  0  0  0  0  0  0
    3.3152  -13.7521    0.7884 C   0  0  0  0  0  0  0  0  0  0  0  0
    3.1237  -13.5766   -0.5061 N   0  0  0  0  0  0  0  0  0  0  0  0
  1  2  1  0
  2  3  1  0
  3  4  2  0
  3  5  1  0
  5  6  2  0
  5  9  1  0
  6  7  1  0
  7  8  2  0
  8  9  1  0
  8 18  1  0
  9 10  1  0
 10 11  1  0
 11 12  1  0
 12 13  1  0
 12 17  2  0
 13 14  2  0
 14 15  1  0
 15 16  2  0
 16 17  1  0
 17 18  1  0
 18 19  2  3
 19 20  1  0
 19 24  1  0
 20 21  1  0
 21 22  1  0
 22 23  1  0
 22 25  1  0
 23 24  1  0
 25 26  1  0
 26 27  1  0
 27 28  2  0
 27 32  1  0
 28 29  1  0
 29 30  2  0
 30 31  1  0
 30 33  1  0
 31 32  2  0
 33 34  1  0
 34 35  1  0
 35 36  2  0
 35 44  1  0
 36 37  1  0
 37 38  2  0
 38 39  1  0
 38 43  1  0
 39 40  2  0
 40 41  1  0
 41 42  2  0
 42 43  1  0
 43 44  2  0
M  END
>  <DRUGBANK_ID>  (1) 
DB12799

>  <COMMON_NAME>  (1) 
Laniquidar

>  <CAS_NUMBER>  (1) 
197509-46-9

>  <UNII>  (1) 
K3FRN4DDOY

>  <SYNONYMS>  (1) 
Laniquidar

$$$$
