
     RDKit          3D

 11  8  0  0  0  0  0  0  0  0999 V2000
    1.0699    0.0196   -0.0688 C   0  0  0  0  0  0  0  0  0  0  0  0
    0.5632    0.3054   -1.4731 C   0  0  0  0  0  0  0  0  0  0  0  0
    1.0698   -0.7678   -2.4228 C   0  0  0  0  0  0  0  0  0  0  0  0
    0.4665   -2.3861   -1.8814 S   0  0  0  0  0  0  0  0  0  0  0  0
   -1.0639   -2.3861   -1.8814 O   0  0  0  0  0  0  0  0  0  0  0  0
    0.9767   -3.4667   -2.8376 O   0  0  0  0  0  0  0  0  0  0  0  0
    1.0365   -2.7077   -0.3016 O   0  0  0  0  0  0  0  0  0  0  0  0
   -0.8568    0.3054   -1.4731 O   0  0  0  0  0  0  0  0  0  0  0  0
    0.4665   -1.5987    0.4725 S   0  0  0  0  0  0  0  0  0  0  0  0
    1.0101    0.0628    0.0772 Na  0  0  0  0  0 15  0  0  0  0  0  0
    0.9336   -0.0661    0.0350 Au  0  0  0  0  0 15  0  0  0  0  0  0
  1  2  1  0
  1  9  1  0
  2  3  1  0
  2  8  1  0
  3  4  1  0
  4  5  2  0
  4  6  2  0
  4  7  1  0
M  CHG  4   7  -1   9  -1  10   1  11   1
M  END
>  <DRUGBANK_ID>  (1) 
DB13763

>  <COMMON_NAME>  (1) 
Aurotioprol

>  <CAS_NUMBER>  (1) 
27279-43-2

>  <UNII>  (1) 
G7097J63E9

$$$$
