1420
     RDKit          3D

 25 28  0  0  1  0  0  0  0  0999 V2000
    1.0239    0.0774    0.0152 O   0  0  0  0  0  0  0  0  0  0  0  0
   -0.1638  -10.4314    2.4427 O   0  0  0  0  0  0  0  0  0  0  0  0
    2.9268    0.8947   -0.8364 O   0  0  0  0  0  0  0  0  0  0  0  0
   -0.8549   -2.9032    1.0815 C   0  0  2  0  0  0  0  0  0  0  0  0
    0.2743   -2.3080    0.2374 C   0  0  2  0  0  0  0  0  0  0  0  0
   -1.1244   -4.3609    0.7116 C   0  0  1  0  0  0  0  0  0  0  0  0
    0.1526   -5.2281    0.9429 C   0  0  1  0  0  0  0  0  0  0  0  0
   -0.0588   -6.7172    0.5058 C   0  0  2  0  0  0  0  0  0  0  0  0
    1.5264   -3.1251    0.5312 C   0  0  0  0  0  0  0  0  0  0  0  0
    1.4040   -4.6171    0.3145 C   0  0  0  0  0  0  0  0  0  0  0  0
    0.2566   -0.8651    0.7750 C   0  0  2  0  0  0  0  0  0  0  0  0
   -1.9801   -1.8753    0.9511 C   0  0  0  0  0  0  0  0  0  0  0  0
   -2.2717   -4.9281    1.5440 C   0  0  0  0  0  0  0  0  0  0  0  0
   -1.2513   -0.5180    0.8512 C   0  0  0  0  0  0  0  0  0  0  0  0
   -1.2603   -7.2481    1.2864 C   0  0  0  0  0  0  0  0  0  0  0  0
    0.0368   -2.2943   -1.2882 C   0  0  0  0  0  0  0  0  0  0  0  0
   -2.5131   -6.4042    1.2585 C   0  0  0  0  0  0  0  0  0  0  0  0
    1.2182   -7.5452    0.8378 C   0  0  0  0  0  0  0  0  0  0  0  0
   -0.3401   -6.8294   -1.0116 C   0  0  0  0  0  0  0  0  0  0  0  0
    0.9591   -9.0446    0.8370 C   0  0  0  0  0  0  0  0  0  0  0  0
   -1.2535   -8.4135    1.9559 C   0  0  0  0  0  0  0  0  0  0  0  0
   -0.1285   -9.3695    1.8273 C   0  0  0  0  0  0  0  0  0  0  0  0
    2.3771    0.1740    0.0068 C   0  0  0  0  0  0  0  0  0  0  0  0
    3.2408   -0.6100    0.9748 C   0  0  0  0  0  0  0  0  0  0  0  0
    2.9942   -0.4293    2.4534 C   0  0  0  0  0  0  0  0  0  0  0  0
  1 23  1  0
  2 22  2  0
  3 23  2  0
  4  5  1  0
  4  6  1  0
  4 12  1  6
  5  9  1  0
  5 11  1  0
  5 16  1  6
  6  7  1  0
  6 13  1  1
  7  8  1  0
  7 10  1  6
  8 15  1  0
  8 18  1  0
  8 19  1  6
  9 10  1  0
 11  1  1  6
 11 14  1  0
 12 14  1  0
 13 17  1  0
 15 17  1  0
 15 21  2  0
 18 20  1  0
 20 22  1  0
 21 22  1  0
 23 24  1  0
 24 25  1  0
M  END
>  <DRUGBANK_ID>  (1) 
DB01420

>  <SECONDARY_ACCESSION_NUMBERS>  (1) 
DBSALT001032

>  <COMMON_NAME>  (1) 
Testosterone propionate

>  <CAS_NUMBER>  (1) 
57-85-2

>  <UNII>  (1) 
WI93Z9138A

>  <SYNONYMS>  (1) 
Testosterone propionate

$$$$
