
     RDKit          3D

 10  9  0  0  0  0  0  0  0  0999 V2000
    0.9651   -0.0499   -0.0798 O   0  0  0  0  0  0  0  0  0  0  0  0
    0.3933    0.6640   -1.0682 C   0  0  0  0  0  0  0  0  0  0  0  0
   -1.1349    0.6778   -1.0143 C   0  0  2  0  0  0  0  0  0  0  0  0
   -1.6345    1.2808    0.2898 C   0  0  0  0  0  0  0  0  0  0  0  0
   -1.7250    3.6355   -0.7405 O   0  0  0  0  0  0  0  0  0  0  0  0
   -1.0423    2.9482    0.5560 S   0  0  0  0  0  0  0  0  0  0  0  0
    1.0585    1.2413   -1.9152 O   0  0  0  0  0  0  0  0  0  0  0  0
   -1.6570   -0.6979   -1.1995 N   0  0  0  0  0  0  0  0  0  0  0  0
   -1.6868    3.4842    1.7362 O   0  0  0  0  0  0  0  0  0  0  0  0
    0.3848    3.0183    0.3750 O   0  0  0  0  0  0  0  0  0  0  0  0
  1  2  1  0
  3  2  1  0
  3  8  1  1
  4  3  1  0
  5  6  1  0
  6  4  1  0
  7  2  2  0
  9  6  2  0
 10  6  2  0
M  END
>  <DRUGBANK_ID>  (1) 
DB03661

>  <SECONDARY_ACCESSION_NUMBERS>  (1) 
EXPT02415

>  <COMMON_NAME>  (1) 
L-cysteic acid

>  <CAS_NUMBER>  (1) 
498-40-8

>  <UNII>  (1) 
M6W2DJ6N5K

>  <SYNONYMS>  (1) 
(2R)-2-amino-3-sulfopropanoic acid; 2-Amino-3-sulfopropionic acid; 3-sulfo-L-alanine; 3-Sulfoalanine; Cysteinesulfonic acid; Cysteric acid; L-Cysteate

$$$$
