
     RDKit          3D

 37 40  0  0  1  0  0  0  0  0999 V2000
    0.8478    0.0566   -0.3383 C   0  0  0  0  0  0  0  0  0  0  0  0
    0.3036   -1.0225    0.6268 C   0  0  0  0  0  0  0  0  0  0  0  0
    0.5790   -0.3223    1.9153 C   0  0  0  0  0  0  0  0  0  0  0  0
   -1.2216   -1.0978    0.6593 C   0  0  0  0  0  0  0  0  0  0  0  0
    1.2091   -2.3312    0.3360 C   0  0  0  0  0  0  0  0  0  0  0  0
    1.8064   -2.4197   -0.7475 O   0  0  0  0  0  0  0  0  0  0  0  0
    1.3539   -3.5585    1.2773 C   0  0  0  0  0  0  0  0  0  0  0  0
    1.9704   -3.5170    2.7939 N   0  0  0  0  0  0  0  0  0  0  0  0
    2.1164   -2.2922    3.5946 C   0  0  0  0  0  0  0  0  0  0  0  0
    2.9010   -1.3168    2.9869 C   0  0  0  0  0  0  0  0  0  0  0  0
    2.8743    0.0169    3.4628 C   0  0  0  0  0  0  0  0  0  0  0  0
    2.0660    0.3909    4.5351 C   0  0  0  0  0  0  0  0  0  0  0  0
    1.4186   -0.5824    5.2682 C   0  0  0  0  0  0  0  0  0  0  0  0
    1.4593   -1.9249    4.8594 C   0  0  0  0  0  0  0  0  0  0  0  0
    0.7731   -2.8179    5.8458 C   0  0  0  0  0  0  0  0  0  0  0  0
    1.1322   -4.0572    5.8803 N   0  0  0  0  0  0  0  0  0  0  0  0
    2.1329   -4.7102    5.0413 C   0  0  2  0  0  0  0  0  0  0  0  0
    2.1417   -4.7216    3.4644 C   0  0  0  0  0  0  0  0  0  0  0  0
    2.3429   -5.7552    2.8059 O   0  0  0  0  0  0  0  0  0  0  0  0
    1.9676   -6.0923    5.3910 N   0  0  0  0  0  0  0  0  0  0  0  0
    0.8690   -6.8762    5.3186 C   0  0  0  0  0  0  0  0  0  0  0  0
    1.0711   -8.0889    5.5743 O   0  0  0  0  0  0  0  0  0  0  0  0
   -0.4396   -6.4610    5.1138 N   0  0  0  0  0  0  0  0  0  0  0  0
   -1.0390   -5.2812    4.5520 C   0  0  0  0  0  0  0  0  0  0  0  0
   -0.5608   -4.8492    3.3791 C   0  0  0  0  0  0  0  0  0  0  0  0
   -0.6931   -3.5122    3.1041 C   0  0  0  0  0  0  0  0  0  0  0  0
   -1.4519   -2.6309    3.7786 C   0  0  0  0  0  0  0  0  0  0  0  0
   -2.3707   -3.1365    4.5699 C   0  0  0  0  0  0  0  0  0  0  0  0
   -2.1662   -4.5132    5.0109 C   0  0  0  0  0  0  0  0  0  0  0  0
   -3.4055   -2.2065    4.8353 N   0  0  0  0  0  0  0  0  0  0  0  0
   -3.1195   -0.6812    4.6760 C   0  0  0  0  0  0  0  0  0  0  0  0
   -0.3394   -2.3167    6.9359 C   0  0  0  0  0  0  0  0  0  0  0  0
   -0.3276   -2.6548    8.2748 C   0  0  0  0  0  0  0  0  0  0  0  0
   -1.4669   -2.4308    9.1206 C   0  0  0  0  0  0  0  0  0  0  0  0
   -2.6396   -1.9078    8.6448 C   0  0  0  0  0  0  0  0  0  0  0  0
   -2.5089   -1.4433    7.3898 C   0  0  0  0  0  0  0  0  0  0  0  0
   -1.3910   -1.5661    6.5533 N   0  0  0  0  0  0  0  0  0  0  0  0
  1  2  1  0
  2  3  1  0
  2  4  1  0
  2  5  1  0
  5  6  2  0
  5  7  1  0
  7  8  1  0
  8  9  1  0
  8 18  1  0
  9 10  2  0
  9 14  1  0
 10 11  1  0
 11 12  2  0
 12 13  1  0
 13 14  2  0
 14 15  1  0
 15 16  2  0
 15 32  1  0
 16 17  1  0
 17 18  1  0
 17 20  1  1
 18 19  2  0
 20 21  1  0
 21 22  2  0
 21 23  1  0
 23 24  1  0
 24 25  2  0
 24 29  1  0
 25 26  1  0
 26 27  2  0
 27 28  1  0
 28 29  2  0
 28 30  1  0
 30 31  1  0
 32 33  2  0
 32 37  1  0
 33 34  1  0
 34 35  2  0
 35 36  1  0
 36 37  2  0
M  END
>  <DRUGBANK_ID>  (1) 
DB12355

>  <COMMON_NAME>  (1) 
Netazepide

>  <CAS_NUMBER>  (1) 
155488-25-8

>  <UNII>  (1) 
HOU4I0G29C

>  <SYNONYMS>  (1) 
Netazepide

$$$$
