M05
     RDKit          3D

 24 27  0  0  0  0  0  0  0  0999 V2000
   -1.7691   -0.0319    0.4063 N   0  0  0  0  0  0  0  0  0  0  0  0
   -1.2747    1.2335   -0.1326 C   0  0  0  0  0  0  0  0  0  0  0  0
    1.1055   -0.0705   -1.9712 C   0  0  0  0  0  0  0  0  0  0  0  0
    0.9728    0.0088   -0.4203 C   0  0  0  0  0  0  0  0  0  0  0  0
    2.3761    0.0200    0.1728 N   0  0  0  0  0  0  0  0  0  0  0  0
   -1.1980   -1.2305   -0.1439 C   0  0  0  0  0  0  0  0  0  0  0  0
    1.7926   -1.3285   -2.4755 C   0  0  0  0  0  0  0  0  0  0  0  0
    1.2238   -2.5964   -2.2681 C   0  0  0  0  0  0  0  0  0  0  0  0
    1.9208   -3.7673   -2.5443 C   0  0  0  0  0  0  0  0  0  0  0  0
    3.1358   -3.6880   -3.2018 C   0  0  0  0  0  0  0  0  0  0  0  0
    3.9552   -5.1337   -3.6280 Cl  0  0  0  0  0  0  0  0  0  0  0  0
    3.6647   -2.4436   -3.5423 C   0  0  0  0  0  0  0  0  0  0  0  0
    3.0124   -1.2647   -3.1564 C   0  0  0  0  0  0  0  0  0  0  0  0
   -2.3868   -0.0601    1.6494 C   0  0  0  0  0  0  0  0  0  0  0  0
   -3.5647    0.6108    1.7351 N   0  0  0  0  0  0  0  0  0  0  0  0
   -4.2674    0.5835    2.8839 C   0  0  0  0  0  0  0  0  0  0  0  0
   -3.9089    0.0445    4.0541 N   0  0  0  0  0  0  0  0  0  0  0  0
   -2.7329   -0.5875    3.9616 C   0  0  0  0  0  0  0  0  0  0  0  0
   -2.1292   -1.2005    5.0284 N   0  0  0  0  0  0  0  0  0  0  0  0
   -0.9761   -1.8028    4.6158 C   0  0  0  0  0  0  0  0  0  0  0  0
   -0.8704   -1.5854    3.2621 C   0  0  0  0  0  0  0  0  0  0  0  0
    0.2564    1.3013    0.0612 C   0  0  0  0  0  0  0  0  0  0  0  0
    0.2788   -1.1958    0.2126 C   0  0  0  0  0  0  0  0  0  0  0  0
   -1.9445   -0.7385    2.8286 C   0  0  0  0  0  0  0  0  0  0  0  0
  1  2  1  0
  1  6  1  0
  1 14  1  0
  2 22  1  0
  3  4  1  0
  3  7  1  0
  4  5  1  0
  4 22  1  0
  4 23  1  0
  6 23  1  0
  7  8  2  0
  7 13  1  0
  8  9  1  0
  9 10  2  0
 10 11  1  0
 10 12  1  0
 12 13  2  0
 14 15  2  0
 14 24  1  0
 15 16  1  0
 16 17  2  0
 17 18  1  0
 18 19  1  0
 18 24  2  0
 19 20  1  0
 20 21  2  0
 21 24  1  0
M  CHG  1   5   1
M  END
>  <DRUGBANK_ID>  (1) 
DB08150

>  <COMMON_NAME>  (1) 
4-(4-chlorobenzyl)-1-(7H-pyrrolo[2,3-d]pyrimidin-4-yl)piperidin-4-aminium

$$$$
