
     RDKit          3D

 12 12  0  0  0  0  0  0  0  0999 V2000
   -0.7643    1.1277   -0.0003 C   0  0  0  0  0  0  0  0  0  0  0  0
    0.6317    1.2174    0.0024 C   0  0  0  0  0  0  0  0  0  0  0  0
   -1.4699   -0.0521    0.0046 N   0  0  0  0  0  0  0  0  0  0  0  0
    1.3824    0.0507   -0.0028 C   0  0  0  0  0  0  0  0  0  0  0  0
    0.7182   -1.1670   -0.0024 C   0  0  0  0  0  0  0  0  0  0  0  0
   -0.6803   -1.1777    0.0079 C   0  0  0  0  0  0  0  0  0  0  0  0
   -1.5254    2.4206   -0.0138 C   0  0  0  0  0  0  0  0  0  0  0  0
   -2.8676    2.2754   -0.0263 O   0  0  0  0  0  0  0  0  0  0  0  0
   -0.9774    3.5141   -0.0166 O   0  0  0  0  0  0  0  0  0  0  0  0
   -1.3454   -2.5218    0.0349 C   0  0  0  0  0  0  0  0  0  0  0  0
   -2.6943   -2.4725    0.0501 O   0  0  0  0  0  0  0  0  0  0  0  0
   -0.7199   -3.5730    0.0468 O   0  0  0  0  0  0  0  0  0  0  0  0
  1  7  1  0
  1  2  2  0
  2  4  1  0
  3  1  1  0
  3  6  2  0
  4  5  2  0
  5  6  1  0
  6 10  1  0
  7  8  1  0
  7  9  2  0
 10 11  1  0
 10 12  2  0
M  END
>  <DRUGBANK_ID>  (1) 
DB04267

>  <SECONDARY_ACCESSION_NUMBERS>  (1) 
EXPT02530

>  <COMMON_NAME>  (1) 
Dipicolinic acid

>  <CAS_NUMBER>  (1) 
499-83-2

>  <UNII>  (1) 
UE81S5CQ0G

>  <SYNONYMS>  (1) 
2,6-dicarboxypyridine; 2,6-Dipicolinic acid; 2,6-pyridinedicarboxylic acid

$$$$
