
     RDKit          3D

 16 16  0  0  0  0  0  0  0  0999 V2000
   -1.3226   -0.1345   -0.0234 C   0  0  0  0  0  0  0  0  0  0  0  0
   -0.5955   -1.2623   -0.0109 N   0  0  0  0  0  0  0  0  0  0  0  0
   -0.8450    1.1169    0.0105 N   0  0  0  0  0  0  0  0  0  0  0  0
    0.4651    1.2182    0.0359 C   0  0  0  0  0  0  0  0  0  0  0  0
    1.2357    0.1522    0.0362 N   0  0  0  0  0  0  0  0  0  0  0  0
    1.0492    2.4602    0.0445 N   0  0  0  0  0  0  0  0  0  0  0  0
    2.9720    3.5143   -1.0388 C   0  0  0  0  0  0  0  0  0  0  0  0
    2.4808    2.6802    0.1321 C   0  0  0  0  0  0  0  0  0  0  0  0
    0.7123   -1.0567    0.0205 C   0  0  0  0  0  0  0  0  0  0  0  0
    1.5746   -2.1374    0.0390 N   0  0  0  0  0  0  0  0  0  0  0  0
    3.5853   -2.7495    1.3265 C   0  0  0  0  0  0  0  0  0  0  0  0
    3.5989   -2.8313   -1.1754 C   0  0  0  0  0  0  0  0  0  0  0  0
   -3.1087   -0.2148   -0.1068 S   0  0  0  0  0  0  0  0  0  0  0  0
   -3.4419   -1.9918   -0.1443 C   0  0  0  0  0  0  0  0  0  0  0  0
    3.0525   -2.0849    0.0490 C   0  0  0  0  0  0  0  0  0  0  0  0
    3.6486   -0.6776    0.0073 C   0  0  0  0  0  0  0  0  0  0  0  0
  1  2  2  0
  3  1  1  0
  4  3  2  0
  5  4  1  0
  6  4  1  0
  6  8  1  0
  8  7  1  0
  9  5  2  0
  9  2  1  0
 10  9  1  0
 10 15  1  0
 13  1  1  0
 13 14  1  0
 15 11  1  0
 15 12  1  0
 15 16  1  0
M  END
>  <DRUGBANK_ID>  (1) 
DB08215

>  <COMMON_NAME>  (1) 
Terbutryn

>  <CAS_NUMBER>  (1) 
886-50-0

>  <UNII>  (1) 
ZXL474TLFP

>  <SYNONYMS>  (1) 
Terbutryn; Terbutryne

$$$$
