
     RDKit          3D

 15 16  0  0  1  0  0  0  0  0999 V2000
    1.1956   -0.5427   -2.4656 N   0  0  0  0  0  0  0  0  0  0  0  0
    0.4972    0.3047   -1.4451 C   0  0  2  0  0  0  0  0  0  0  0  0
    0.9480   -0.1152   -0.0438 C   0  0  0  0  0  0  0  0  0  0  0  0
    0.4170   -1.4449    0.4391 C   0  0  0  0  0  0  0  0  0  0  0  0
    0.4036   -1.8238    1.7691 C   0  0  0  0  0  0  0  0  0  0  0  0
   -0.2604   -3.0181    1.8690 N   0  0  0  0  0  0  0  0  0  0  0  0
   -0.6004   -3.4930    0.6230 C   0  0  0  0  0  0  0  0  0  0  0  0
   -1.2711   -4.6650    0.2279 C   0  0  0  0  0  0  0  0  0  0  0  0
   -1.4932   -4.9011   -1.1399 C   0  0  0  0  0  0  0  0  0  0  0  0
   -1.1367   -3.9703   -2.0855 C   0  0  0  0  0  0  0  0  0  0  0  0
   -0.5644   -2.7889   -1.6569 C   0  0  0  0  0  0  0  0  0  0  0  0
   -0.2040   -2.5325   -0.3020 C   0  0  0  0  0  0  0  0  0  0  0  0
   -1.0843    0.3642   -1.4988 C   0  0  0  0  0  0  0  0  0  0  0  0
   -1.5859    1.5458   -1.9370 O   0  0  0  0  0  0  0  0  0  0  0  0
   -1.8776   -0.4705   -1.1237 O   0  0  0  0  0  0  0  0  0  0  0  0
  2 13  1  0
  2  3  1  0
  2  1  1  6
  3  4  1  0
  4  5  2  0
  4 12  1  0
  5  6  1  0
  6  7  1  0
  7  8  1  0
  7 12  2  0
  8  9  2  0
  9 10  1  0
 10 11  2  0
 11 12  1  0
 13 14  1  0
 13 15  2  0
M  END
>  <DRUGBANK_ID>  (1) 
DB03225

>  <SECONDARY_ACCESSION_NUMBERS>  (1) 
EXPT01290

>  <COMMON_NAME>  (1) 
D-Tryptophan

>  <CAS_NUMBER>  (1) 
153-94-6

>  <UNII>  (1) 
7NS97N9H1G

>  <SYNONYMS>  (1) 
(2R)-2-amino-3-(1H-indol-3-yl)propanoic acid; (R)-tryptophan; DTR

$$$$
