
     RDKit          3D

 12 11  0  0  1  0  0  0  0  0999 V2000
    0.9683   -2.0048   -1.2548 C   0  0  0  0  0  0  0  0  0  0  0  0
    2.0878   -1.2274   -0.5741 C   0  0  0  0  0  0  0  0  0  0  0  0
    1.5792    0.1070   -0.0476 C   0  0  0  0  0  0  0  0  0  0  0  0
    0.6039   -0.1106    0.9583 O   0  0  0  0  0  0  0  0  0  0  0  0
    1.1752   -0.8707    2.2841 P   0  0  0  0  0  0  0  0  0  0  0  0
    0.5985   -2.3709    1.6440 O   0  0  0  0  0  0  0  0  0  0  0  0
    0.1134   -0.9875    3.3721 O   0  0  0  0  0  0  0  0  0  0  0  0
    1.7519    0.6295    2.9242 O   0  0  0  0  0  0  0  0  0  0  0  0
    0.7515    1.8228    3.2639 P   0  0  0  0  0  0  0  0  0  0  0  0
    0.9762    1.9768    4.8409 O   0  0  0  0  0  0  0  0  0  0  0  0
    1.6226    3.0267    2.6639 O   0  0  0  0  0  0  0  0  0  0  0  0
   -0.6548    1.7853    2.8152 O   0  0  0  0  0  0  0  0  0  0  0  0
  1  2  1  0
  2  3  1  0
  3  4  1  0
  5  7  2  0
  5  8  1  0
  5  6  1  0
  5  4  1  0
  8  9  1  0
  9 10  1  0
  9 11  1  0
  9 12  2  0
M  END
>  <DRUGBANK_ID>  (1) 
DB01679

>  <SECONDARY_ACCESSION_NUMBERS>  (1) 
EXPT02471

>  <COMMON_NAME>  (1) 
Propyl Trihydrogen Diphosphate

$$$$
