
     RDKit          3D

 17 18  0  0  1  0  0  0  0  0999 V2000
    1.0604   -0.0759   -0.0241 B   0  0  0  0  0  0  0  0  0  0  0  0
    0.2604    1.2198    0.4669 C   0  0  2  0  0  0  0  0  0  0  0  0
    0.9060    2.5161    0.0623 C   0  0  0  0  0  0  0  0  0  0  0  0
    0.2043    3.5591    0.9835 C   0  0  0  0  0  0  0  0  0  0  0  0
   -0.0364    2.7795    2.2789 C   0  0  0  0  0  0  0  0  0  0  0  0
    0.2430    1.3335    1.9370 N   0  0  0  0  0  0  0  0  0  0  0  0
    0.4582    0.2400    2.8956 C   0  0  0  0  0  0  0  0  0  0  0  0
    0.4171    0.4724    4.1443 O   0  0  0  0  0  0  0  0  0  0  0  0
    0.7300   -1.1686    2.3932 C   0  0  0  0  0  0  0  0  0  0  0  0
   -0.4064   -1.6268    1.5810 N   0  0  0  0  0  0  0  0  0  0  0  0
   -0.1436   -2.9891    1.0951 C   0  0  2  0  0  0  0  0  0  0  0  0
   -1.1854   -4.0087    0.5439 C   0  0  0  0  0  0  0  0  0  0  0  0
   -1.6641   -4.7075    1.7863 C   0  0  0  0  0  0  0  0  0  0  0  0
   -0.4018   -4.9343    2.5141 N   0  0  0  0  0  0  0  0  0  0  0  0
    0.4820   -3.7303    2.2796 C   0  0  0  0  0  0  0  0  0  0  0  0
    0.3104   -1.2907   -0.4845 O   0  0  0  0  0  0  0  0  0  0  0  0
    2.5604   -0.0759   -0.0241 O   0  0  0  0  0  0  0  0  0  0  0  0
  1 16  1  0
  1 17  1  0
  2  1  1  1
  2  3  1  0
  2  6  1  0
  3  4  1  0
  4  5  1  0
  5  6  1  0
  6  7  1  0
  7  8  2  0
  7  9  1  0
  9 10  1  0
 11 10  1  1
 11 12  1  0
 11 15  1  0
 12 13  1  0
 13 14  1  0
 14 15  1  0
M  END
>  <DRUGBANK_ID>  (1) 
DB11723

>  <SECONDARY_ACCESSION_NUMBERS>  (1) 
DB05065

>  <COMMON_NAME>  (1) 
Dutogliptin

>  <CAS_NUMBER>  (1) 
852329-66-9

>  <UNII>  (1) 
38EAO245ZX

>  <SYNONYMS>  (1) 
Dutogliptin

$$$$
