
     RDKit          3D

 19 22  0  0  0  0  0  0  0  0999 V2000
    0.9437    0.1340   -0.2060 C   0  0  0  0  0  0  0  0  0  0  0  0
    0.5518    0.1279   -1.6069 N   0  0  0  0  0  0  0  0  0  0  0  0
    0.4918   -1.1705   -2.2954 C   0  0  0  0  0  0  0  0  0  0  0  0
   -0.9555   -1.6453   -2.5217 C   0  0  0  0  0  0  0  0  0  0  0  0
   -1.8064   -0.5527   -2.9629 N   0  0  0  0  0  0  0  0  0  0  0  0
   -3.0338   -0.6147   -3.5680 C   0  0  0  0  0  0  0  0  0  0  0  0
   -3.4324    0.7082   -3.8309 C   0  0  0  0  0  0  0  0  0  0  0  0
   -4.7051    0.9101   -4.4177 C   0  0  0  0  0  0  0  0  0  0  0  0
   -5.5077   -0.1963   -4.7590 C   0  0  0  0  0  0  0  0  0  0  0  0
   -5.0485   -1.4900   -4.5174 C   0  0  0  0  0  0  0  0  0  0  0  0
   -3.8136   -1.7208   -3.9132 C   0  0  0  0  0  0  0  0  0  0  0  0
   -6.7201    0.0976   -5.3351 O   0  0  0  0  0  0  0  0  0  0  0  0
   -7.5240   -1.0188   -5.7170 C   0  0  0  0  0  0  0  0  0  0  0  0
   -2.3457    1.5494   -3.4263 C   0  0  0  0  0  0  0  0  0  0  0  0
   -1.4251    0.7434   -2.8193 C   0  0  0  0  0  0  0  0  0  0  0  0
   -0.2238    1.1416   -2.1507 C   0  0  0  0  0  0  0  0  0  0  0  0
    0.0721    2.3968   -2.0950 N   0  0  0  0  0  0  0  0  0  0  0  0
   -0.8255    3.4279   -2.6884 C   0  0  0  0  0  0  0  0  0  0  0  0
   -2.0478    2.9929   -3.5513 C   0  0  0  0  0  0  0  0  0  0  0  0
  1  2  1  0
  2  3  1  0
  2 16  1  0
  3  4  1  0
  4  5  1  0
  5  6  1  0
  5 15  1  0
  6  7  2  0
  6 11  1  0
  7  8  1  0
  7 14  1  0
  8  9  2  0
  9 10  1  0
  9 12  1  0
 10 11  2  0
 12 13  1  0
 14 15  2  0
 14 19  1  0
 15 16  1  0
 16 17  2  0
 17 18  1  0
 18 19  1  0
M  END
>  <DRUGBANK_ID>  (1) 
DB09306

>  <COMMON_NAME>  (1) 
Metralindole

>  <CAS_NUMBER>  (1) 
54188-38-4

>  <UNII>  (1) 
2QW3FL6OPA

>  <SYNONYMS>  (1) 
Incasan; Inkazan; Metralindole

$$$$
