
     RDKit          3D

 11 11  0  0  0  0  0  0  0  0999 V2000
    0.9308   -0.0638    0.0419 C   0  0  0  0  0  0  0  0  0  0  0  0
    0.4310   -1.4052   -0.0765 O   0  0  0  0  0  0  0  0  0  0  0  0
    0.8603   -2.0540   -1.1898 C   0  0  0  0  0  0  0  0  0  0  0  0
    1.5989   -1.5752   -2.0442 O   0  0  0  0  0  0  0  0  0  0  0  0
    0.3635   -3.4545   -1.2362 C   0  0  0  0  0  0  0  0  0  0  0  0
    1.2272   -4.4020   -1.6276 C   0  0  0  0  0  0  0  0  0  0  0  0
    0.8298   -5.8285   -1.7698 C   0  0  0  0  0  0  0  0  0  0  0  0
   -0.6282   -6.1686   -1.4572 C   0  0  0  0  0  0  0  0  0  0  0  0
   -1.5434   -5.1344   -0.9650 N   0  0  0  0  0  0  0  0  0  0  0  0
   -2.0796   -5.5408    0.3311 C   0  0  0  0  0  0  0  0  0  0  0  0
   -1.0729   -3.7352   -0.9306 C   0  0  0  0  0  0  0  0  0  0  0  0
  1  2  1  0
  2  3  1  0
  3  4  2  0
  3  5  1  0
  5  6  2  0
  5 11  1  0
  6  7  1  0
  7  8  1  0
  8  9  1  0
  9 10  1  0
  9 11  1  0
M  END
>  <DRUGBANK_ID>  (1) 
DB04365

>  <SECONDARY_ACCESSION_NUMBERS>  (1) 
EXPT03296

>  <COMMON_NAME>  (1) 
Arecoline

>  <CAS_NUMBER>  (1) 
63-75-2

>  <UNII>  (1) 
4ALN5933BH

$$$$
