841
     RDKit          3D

 22 23  0  0  1  0  0  0  0  0999 V2000
    1.7195   -1.3566    0.0333 O   0  0  0  0  0  0  0  0  0  0  0  0
   -3.9560    6.7325    3.6077 O   0  0  0  0  0  0  0  0  0  0  0  0
    1.7278    1.3731    0.0376 O   0  0  0  0  0  0  0  0  0  0  0  0
   -4.4813    0.2665    1.1951 N   0  0  0  0  0  0  0  0  0  0  0  0
   -5.2459    0.6503    2.3686 C   0  0  0  0  0  0  0  0  0  0  0  0
   -4.4139    0.4208    3.6761 C   0  0  0  0  0  0  0  0  0  0  0  0
   -3.0630    1.1806    3.8379 C   0  0  0  0  0  0  0  0  0  0  0  0
   -4.1010   -1.1346    1.1251 C   0  0  0  0  0  0  0  0  0  0  0  0
   -5.6686    2.0854    2.0174 C   0  0  0  0  0  0  0  0  0  0  0  0
   -3.2347   -1.3960   -0.1184 C   0  0  0  0  0  0  0  0  0  0  0  0
   -3.1948    2.6759    4.0320 C   0  0  0  0  0  0  0  0  0  0  0  0
   -1.8951   -0.6743   -0.1087 C   0  0  0  0  0  0  0  0  0  0  0  0
   -2.1149    3.5505    3.8304 C   0  0  0  0  0  0  0  0  0  0  0  0
   -4.4365    3.2412    4.3174 C   0  0  0  0  0  0  0  0  0  0  0  0
   -0.6937   -1.3920   -0.0239 C   0  0  0  0  0  0  0  0  0  0  0  0
   -1.8300    0.7322   -0.1880 C   0  0  0  0  0  0  0  0  0  0  0  0
   -2.3444    4.9332    3.7699 C   0  0  0  0  0  0  0  0  0  0  0  0
   -4.7032    4.5712    4.0420 C   0  0  0  0  0  0  0  0  0  0  0  0
    0.5190   -0.7011    0.0061 C   0  0  0  0  0  0  0  0  0  0  0  0
   -3.6420    5.4247    3.7948 C   0  0  0  0  0  0  0  0  0  0  0  0
   -0.6257    1.4174   -0.0649 C   0  0  0  0  0  0  0  0  0  0  0  0
    0.5457    0.6924    0.0053 C   0  0  0  0  0  0  0  0  0  0  0  0
  1 19  1  0
  2 20  1  0
  3 22  1  0
  4  5  1  0
  4  8  1  0
  5  6  1  0
  5  9  1  0
  6  7  1  0
  7 11  1  0
  8 10  1  0
 10 12  1  0
 11 13  2  0
 11 14  1  0
 12 15  2  0
 12 16  1  0
 13 17  1  0
 14 18  2  0
 15 19  1  0
 16 21  2  0
 17 20  2  0
 18 20  1  0
 19 22  2  0
 21 22  1  0
M  END
>  <DRUGBANK_ID>  (1) 
DB00841

>  <SECONDARY_ACCESSION_NUMBERS>  (1) 
APRD00122

>  <COMMON_NAME>  (1) 
Dobutamine

>  <CAS_NUMBER>  (1) 
34368-04-2

>  <UNII>  (1) 
3S12J47372

>  <SYNONYMS>  (1) 
(±)-4-(2-((3-(p-hydroxyphenyl)-1-methylpropyl)amino)ethyl)pyrocatechol; 3,4-dihydroxy-N-[3-(4-hydroxyphenyl)-1-methylpropyl]-β-phenylethylamine; 4-{2-[3-(4-Hydroxy-phenyl)-1-methyl-propylamino]-ethyl}-benzene-1,2-diol; DL-dobutamine; Dobutamin; Dobutamina; Dobutamine; Dobutaminum; rac-dobutamine; racemic-dobutamine

$$$$
