
     RDKit          3D

 17 17  0  0  1  0  0  0  0  0999 V2000
   -4.8670   -5.3458    9.0699 C   0  0  0  0  0  0  0  0  0  0  0  0
   -4.1225   -4.3997   10.0097 C   0  0  0  0  0  0  0  0  0  0  0  0
   -0.0141   -0.1646    5.4130 C   0  0  0  0  0  0  0  0  0  0  0  0
   -0.7201   -1.1427    4.4764 C   0  0  0  0  0  0  0  0  0  0  0  0
    0.2959   -0.7569    6.7775 C   0  0  0  0  0  0  0  0  0  0  0  0
   -2.6081   -4.4740    9.8702 C   0  0  0  0  0  0  0  0  0  0  0  0
   -2.1490   -3.1247    5.1116 C   0  0  0  0  0  0  0  0  0  0  0  0
   -2.7465   -3.9177    7.4081 C   0  0  0  0  0  0  0  0  0  0  0  0
   -0.8174   -3.6560    8.3708 C   0  0  0  0  0  0  0  0  0  0  0  0
   -2.1400   -1.6006    4.8968 C   0  0  1  0  0  0  0  0  0  0  0  0
   -1.8100   -3.5729    6.4824 C   0  0  0  0  0  0  0  0  0  0  0  0
   -2.8895   -0.7359    5.9454 C   0  0  0  0  0  0  0  0  0  0  0  0
    1.2533   -1.8533    6.6927 N   0  0  0  0  0  0  0  0  0  0  0  0
   -0.5829   -3.5463    7.0765 N   0  0  0  0  0  0  0  0  0  0  0  0
   -2.1047   -4.0315    8.5923 N   0  0  0  0  0  0  0  0  0  0  0  0
   -3.5782    0.2209    5.6881 O   0  0  0  0  0  0  0  0  0  0  0  0
   -2.6265   -1.0250    7.2370 O   0  0  0  0  0  0  0  0  0  0  0  0
  2  1  1  0
  4  3  1  0
  5  3  1  0
  6  2  1  0
 10 12  1  0
 10  7  1  1
 10  4  1  0
 11  7  1  0
 11  8  2  0
 13  5  1  0
 14  9  2  0
 14 11  1  0
 15  6  1  0
 15  8  1  0
 15  9  1  0
 16 12  2  0
 17 12  1  0
M  END
>  <DRUGBANK_ID>  (1) 
DB12099

>  <COMMON_NAME>  (1) 
UK-396,082

>  <CAS_NUMBER>  (1) 
400044-47-5

>  <UNII>  (1) 
2Q5861SUIG

$$$$
