
     RDKit          3D

 12 13  0  0  0  0  0  0  0  0999 V2000
    1.2369   -1.3627    0.0226 C   0  0  0  0  0  0  0  0  0  0  0  0
    2.4297   -0.6443   -0.0541 C   0  0  0  0  0  0  0  0  0  0  0  0
   -2.4079   -0.7444   -0.0318 C   0  0  0  0  0  0  0  0  0  0  0  0
   -2.4482    0.6418   -0.1190 C   0  0  0  0  0  0  0  0  0  0  0  0
   -1.2708    1.3664    0.0501 C   0  0  0  0  0  0  0  0  0  0  0  0
   -0.0252    0.7188    0.0886 C   0  0  0  0  0  0  0  0  0  0  0  0
    1.1924    1.4202    0.0635 C   0  0  0  0  0  0  0  0  0  0  0  0
    2.4109    0.7505   -0.0241 C   0  0  0  0  0  0  0  0  0  0  0  0
    0.0045   -0.7010    0.0862 C   0  0  0  0  0  0  0  0  0  0  0  0
   -1.2003   -1.4139    0.1071 C   0  0  0  0  0  0  0  0  0  0  0  0
   -3.5491   -1.4879   -0.0820 O   0  0  0  0  0  0  0  0  0  0  0  0
    1.1686    2.7928    0.0710 O   0  0  0  0  0  0  0  0  0  0  0  0
  1  9  2  0
  2  1  1  0
  3  4  1  0
  3 10  2  0
  4  5  2  0
  5  6  1  0
  6  7  2  0
  6  9  1  0
  7 12  1  0
  7  8  1  0
  8  2  2  0
  9 10  1  0
 11  3  1  0
M  END
>  <DRUGBANK_ID>  (1) 
DB07661

>  <COMMON_NAME>  (1) 
1,6-Naphthalenediol

>  <CAS_NUMBER>  (1) 
575-44-0

>  <UNII>  (1) 
34C30KW024

>  <SYNONYMS>  (1) 
1,6-dihydroxynaphthalene; 2,5-dihydroxynaphthalene; 2,5-naphthalenediol; 6-hydroxy-1-naphthol; Naphthalene-1,6-diol

$$$$
