
     RDKit          3D

 29 32  0  0  1  0  0  0  0  0999 V2000
    1.5887   -0.3802    0.4843 O   0  0  0  0  0  0  0  0  0  0  0  0
   -1.8259   -1.9233   -1.9674 O   0  0  0  0  0  0  0  0  0  0  0  0
   -0.3504   -0.3429   -2.0833 N   0  0  0  0  0  0  0  0  0  0  0  0
   -0.1145   -2.2795    2.8771 N   0  0  0  0  0  0  0  0  0  0  0  0
    0.5851    0.6352   -1.6266 C   0  0  0  0  0  0  0  0  0  0  0  0
    1.9648    0.3437   -2.2266 C   0  0  0  0  0  0  0  0  0  0  0  0
    0.1980    2.0677   -1.5773 C   0  0  0  0  0  0  0  0  0  0  0  0
   -0.5090   -1.7362    0.0953 C   0  0  0  0  0  0  0  0  0  0  0  0
   -0.9072   -1.3522   -1.3482 C   0  0  0  0  0  0  0  0  0  0  0  0
   -1.3147   -2.7064    0.7822 C   0  0  0  0  0  0  0  0  0  0  0  0
    1.9664    0.7935   -3.6766 C   0  0  0  0  0  0  0  0  0  0  0  0
    0.5210   -1.1555    0.8696 C   0  0  0  0  0  0  0  0  0  0  0  0
   -1.0288   -2.9422    2.1583 C   0  0  0  0  0  0  0  0  0  0  0  0
    0.5827   -1.3319    2.2491 C   0  0  0  0  0  0  0  0  0  0  0  0
   -1.1099    2.4351   -1.8417 C   0  0  0  0  0  0  0  0  0  0  0  0
    1.1218    3.0084   -1.0790 C   0  0  0  0  0  0  0  0  0  0  0  0
   -2.3792   -3.4728    0.2257 C   0  0  0  0  0  0  0  0  0  0  0  0
    1.5310   -0.4779    2.9962 C   0  0  0  0  0  0  0  0  0  0  0  0
   -1.7744   -3.8596    2.8718 C   0  0  0  0  0  0  0  0  0  0  0  0
   -1.4053    3.7752   -1.9355 C   0  0  0  0  0  0  0  0  0  0  0  0
    0.7826    4.3443   -1.0531 C   0  0  0  0  0  0  0  0  0  0  0  0
   -3.2087   -4.2714    1.0062 C   0  0  0  0  0  0  0  0  0  0  0  0
   -0.4492    4.7270   -1.5753 C   0  0  0  0  0  0  0  0  0  0  0  0
   -2.9341   -4.4195    2.3494 C   0  0  0  0  0  0  0  0  0  0  0  0
    1.4141    0.9371    2.9350 C   0  0  0  0  0  0  0  0  0  0  0  0
    2.7356   -1.0203    3.4477 C   0  0  0  0  0  0  0  0  0  0  0  0
    2.4943    1.7655    3.2452 C   0  0  0  0  0  0  0  0  0  0  0  0
    3.7671   -0.1856    3.8792 C   0  0  0  0  0  0  0  0  0  0  0  0
    3.6635    1.2002    3.7409 C   0  0  0  0  0  0  0  0  0  0  0  0
  1 12  1  0
  2  9  2  0
  3  5  1  0
  3  9  1  0
  4 13  2  0
  4 14  1  0
  5  6  1  0
  5  7  1  0
  6 11  1  0
  7 15  2  0
  7 16  1  0
  8  9  1  0
  8 10  2  0
  8 12  1  0
 10 13  1  0
 10 17  1  0
 12 14  2  0
 13 19  1  0
 14 18  1  0
 15 20  1  0
 16 21  2  0
 17 22  2  0
 18 25  2  0
 18 26  1  0
 19 24  2  0
 20 23  2  0
 21 23  1  0
 22 24  1  0
 25 27  1  0
 26 28  2  0
 27 29  2  0
 28 29  1  0
M  END
>  <DRUGBANK_ID>  (1) 
DB06429

>  <COMMON_NAME>  (1) 
Talnetant

>  <CAS_NUMBER>  (1) 
174636-32-9

>  <UNII>  (1) 
CZ3T9T146K

>  <SYNONYMS>  (1) 
Talnetant

$$$$
