
     RDKit          3D

 29 30  0  0  1  0  0  0  0  0999 V2000
    1.0695    1.3227   -2.3481 C   0  0  0  0  0  0  0  0  0  0  0  0
    0.4263    1.2044   -0.9937 C   0  0  2  0  0  0  0  0  0  0  0  0
    0.9695    0.0038   -0.1738 C   0  0  1  0  0  0  0  0  0  0  0  0
    1.9997   -0.9907   -0.8756 C   0  0  0  0  0  0  0  0  0  0  0  0
    3.1078   -1.1536   -0.3472 O   0  0  0  0  0  0  0  0  0  0  0  0
    1.5914   -1.8067   -1.9508 N   0  0  0  0  0  0  0  0  0  0  0  0
    0.7229   -1.5488   -3.1148 C   0  0  0  0  0  0  0  0  0  0  0  0
    0.1123   -2.8626   -3.4257 C   0  0  0  0  0  0  0  0  0  0  0  0
    1.2861   -3.7863   -3.2219 C   0  0  0  0  0  0  0  0  0  0  0  0
    2.2012   -3.1347   -2.1556 C   0  0  1  0  0  0  0  0  0  0  0  0
    3.6954   -3.1712   -2.6106 C   0  0  0  0  0  0  0  0  0  0  0  0
    4.3388   -2.1525   -2.8744 O   0  0  0  0  0  0  0  0  0  0  0  0
    4.3060   -4.4142   -2.6013 N   0  0  0  0  0  0  0  0  0  0  0  0
    3.8776   -5.6288   -3.2507 C   0  0  0  0  0  0  0  0  0  0  0  0
    4.3407   -6.7178   -2.3069 C   0  0  0  0  0  0  0  0  0  0  0  0
    5.6803   -6.1890   -1.8049 C   0  0  0  0  0  0  0  0  0  0  0  0
    5.5224   -4.6514   -1.8337 C   0  0  1  0  0  0  0  0  0  0  0  0
    6.8070   -4.0388   -2.4189 C   0  0  0  0  0  0  0  0  0  0  0  0
    7.0561   -4.0416   -3.6317 O   0  0  0  0  0  0  0  0  0  0  0  0
    7.7859   -3.6139   -1.5603 N   0  0  0  0  0  0  0  0  0  0  0  0
    7.7086   -3.5115   -0.0995 C   0  0  1  0  0  0  0  0  0  0  0  0
    8.7753   -4.3902    0.5867 C   0  0  1  0  0  0  0  0  0  0  0  0
   10.2077   -3.9623    0.3125 C   0  0  0  0  0  0  0  0  0  0  0  0
    8.5650   -4.4572    1.9977 O   0  0  0  0  0  0  0  0  0  0  0  0
    7.7277   -2.0534    0.3796 C   0  0  0  0  0  0  0  0  0  0  0  0
    6.8305   -1.5894    1.1107 O   0  0  0  0  0  0  0  0  0  0  0  0
    8.8152   -1.2877    0.1172 N   0  0  0  0  0  0  0  0  0  0  0  0
    1.5382    0.5951    1.0823 N   0  0  0  0  0  0  0  0  0  0  0  0
   -0.9988    1.0968   -1.1502 O   0  0  0  0  0  0  0  0  0  0  0  0
  2 29  1  0
  2  3  1  0
  2  1  1  6
  3  4  1  0
  3 28  1  1
  4  5  2  0
  4  6  1  0
  6  7  1  0
  6 10  1  0
  7  8  1  0
  8  9  1  0
  9 10  1  0
 10 11  1  6
 11 12  2  0
 11 13  1  0
 13 14  1  0
 13 17  1  0
 14 15  1  0
 15 16  1  0
 16 17  1  0
 17 18  1  6
 18 19  2  0
 18 20  1  0
 21 20  1  6
 21 22  1  0
 21 25  1  0
 22 23  1  1
 22 24  1  0
 25 26  2  0
 25 27  1  0
M  END
>  <DRUGBANK_ID>  (1) 
DB11801

>  <COMMON_NAME>  (1) 
Rapastinel

>  <CAS_NUMBER>  (1) 
117928-94-6

>  <UNII>  (1) 
6A1X56B95E

>  <SYNONYMS>  (1) 
Rapastinel

$$$$
