
     RDKit          3D

  8  8  0  0  0  0  0  0  0  0999 V2000
    0.6860    1.2432    0.0050 C   0  0  0  0  0  0  0  0  0  0  0  0
    1.4449    0.0735   -0.0017 C   0  0  0  0  0  0  0  0  0  0  0  0
   -0.6969    1.1395    0.0013 C   0  0  0  0  0  0  0  0  0  0  0  0
    1.3297    2.5639    0.0235 C   0  0  0  0  0  0  0  0  0  0  0  0
    0.7870   -1.1557   -0.0029 C   0  0  0  0  0  0  0  0  0  0  0  0
   -1.3572   -0.0443    0.0025 N   0  0  0  0  0  0  0  0  0  0  0  0
    0.6761    3.6002    0.0332 O   0  0  0  0  0  0  0  0  0  0  0  0
   -0.6005   -1.1636    0.0041 C   0  0  0  0  0  0  0  0  0  0  0  0
  1  2  2  0
  1  3  1  0
  1  4  1  0
  2  5  1  0
  3  6  2  0
  4  7  2  0
  5  8  2  0
  6  8  1  0
M  END
>  <DRUGBANK_ID>  (1) 
DB15905

>  <COMMON_NAME>  (1) 
Nicotinaldehyde

>  <CAS_NUMBER>  (1) 
500-22-1

>  <UNII>  (1) 
840R4IDQ1T

>  <SYNONYMS>  (1) 
3-Formylpyridine; 3-Pyridinaldehyde; 3-Pyridinecarboxaldehyde; Nicotinic aldehyde

$$$$
