
     RDKit          3D

 24 26  0  0  0  0  0  0  0  0999 V2000
    0.9634    0.0982   -0.0658 C   0  0  0  0  0  0  0  0  0  0  0  0
   -0.3847    0.1191    2.1248 C   0  0  0  0  0  0  0  0  0  0  0  0
    4.2372   -8.3486    5.0161 C   0  0  0  0  0  0  0  0  0  0  0  0
    7.2056   -2.2196    5.7811 C   0  0  0  0  0  0  0  0  0  0  0  0
    4.6963   -8.2426    3.7064 C   0  0  0  0  0  0  0  0  0  0  0  0
    3.5345   -7.2882    5.5870 C   0  0  0  0  0  0  0  0  0  0  0  0
    7.4324   -3.0778    4.7054 C   0  0  0  0  0  0  0  0  0  0  0  0
    5.9087   -1.7994    6.0537 C   0  0  0  0  0  0  0  0  0  0  0  0
    4.4620   -7.0787    2.9704 C   0  0  0  0  0  0  0  0  0  0  0  0
    3.2944   -6.1177    4.8469 C   0  0  0  0  0  0  0  0  0  0  0  0
    6.3577   -3.5375    3.9151 C   0  0  0  0  0  0  0  0  0  0  0  0
    4.8396   -2.2660    5.2790 C   0  0  0  0  0  0  0  0  0  0  0  0
    0.7370   -1.9409    1.3567 C   0  0  0  0  0  0  0  0  0  0  0  0
    1.6889   -2.7589    0.5318 C   0  0  0  0  0  0  0  0  0  0  0  0
    0.4402   -0.6465    1.1303 C   0  0  0  0  0  0  0  0  0  0  0  0
    3.7977   -5.9903    3.5424 C   0  0  0  0  0  0  0  0  0  0  0  0
    5.0416   -3.1304    4.1956 C   0  0  0  0  0  0  0  0  0  0  0  0
    2.9403   -3.2019    1.2960 C   0  0  0  0  0  0  0  0  0  0  0  0
    3.0093   -4.6700    1.6219 C   0  0  0  0  0  0  0  0  0  0  0  0
    3.2726   -2.5350    2.6232 C   0  0  0  0  0  0  0  0  0  0  0  0
    3.7781   -4.7778    2.7984 N   0  0  0  0  0  0  0  0  0  0  0  0
    3.8946   -3.5184    3.4245 N   0  0  0  0  0  0  0  0  0  0  0  0
    2.5017   -5.5662    0.9538 O   0  0  0  0  0  0  0  0  0  0  0  0
    3.1405   -1.3436    2.8868 O   0  0  0  0  0  0  0  0  0  0  0  0
  5  3  2  0
  6  3  1  0
  7  4  2  0
  8  4  1  0
  9  5  1  0
 10  6  2  0
 11  7  1  0
 12  8  2  0
 14 13  1  0
 15  1  1  0
 15  2  1  0
 15 13  2  3
 16  9  2  0
 16 10  1  0
 17 11  2  0
 17 12  1  0
 18 14  1  0
 19 18  1  0
 20 18  1  0
 21 16  1  0
 21 19  1  0
 22 17  1  0
 22 20  1  0
 22 21  1  0
 23 19  2  0
 24 20  2  0
M  END
>  <DRUGBANK_ID>  (1) 
DB13364

>  <COMMON_NAME>  (1) 
Feprazone

>  <CAS_NUMBER>  (1) 
30748-29-9

>  <UNII>  (1) 
7BVX6J0CGR

>  <SYNONYMS>  (1) 
Feprazone

$$$$
