
     RDKit          3D

 24 23  0  0  0  0  0  0  0  0999 V2000
    0.9131   -0.0214    0.0912 C   0  0  0  0  0  0  0  0  0  0  0  0
   -3.4630    1.2274   -1.9008 C   0  0  0  0  0  0  0  0  0  0  0  0
   -4.1712    1.8380   -2.8746 C   0  0  0  0  0  0  0  0  0  0  0  0
   -8.5182    3.1121   -4.9071 C   0  0  0  0  0  0  0  0  0  0  0  0
   -7.8889    3.8419   -6.0712 C   0  0  0  0  0  0  0  0  0  0  0  0
  -12.2284    2.4790   -3.8972 C   0  0  0  0  0  0  0  0  0  0  0  0
  -12.9095    1.8569   -2.9049 C   0  0  0  0  0  0  0  0  0  0  0  0
  -12.2747    1.1318   -1.7482 C   0  0  0  0  0  0  0  0  0  0  0  0
  -10.0011    3.1117   -4.9065 C   0  0  0  0  0  0  0  0  0  0  0  0
  -10.7731    2.5267   -3.9733 C   0  0  0  0  0  0  0  0  0  0  0  0
   -6.3088    2.4897   -3.9143 C   0  0  0  0  0  0  0  0  0  0  0  0
   -7.7618    2.5171   -3.9579 C   0  0  0  0  0  0  0  0  0  0  0  0
   -5.6242    1.8794   -2.9407 C   0  0  0  0  0  0  0  0  0  0  0  0
   -4.1445    0.5086   -0.7542 C   0  0  0  0  0  0  0  0  0  0  0  0
   -1.9827    1.2387   -1.9187 C   0  0  0  0  0  0  0  0  0  0  0  0
   -1.2241    0.6492   -0.9784 C   0  0  0  0  0  0  0  0  0  0  0  0
    0.2291    0.5995   -0.8991 C   0  0  0  0  0  0  0  0  0  0  0  0
    0.2800   -0.7463    1.2477 C   0  0  0  0  0  0  0  0  0  0  0  0
    2.4053    0.0040    0.0508 C   0  0  0  0  0  0  0  0  0  0  0  0
    3.1046    0.5361   -0.7980 O   0  0  0  0  0  0  0  0  0  0  0  0
  -14.4012    1.8810   -2.9434 C   0  0  0  0  0  0  0  0  0  0  0  0
  -15.1021    2.4127   -3.7914 O   0  0  0  0  0  0  0  0  0  0  0  0
    2.9620   -0.6475    1.0900 O   0  0  0  0  0  0  0  0  0  0  0  0
  -14.9559    1.2292   -1.9036 O   0  0  0  0  0  0  0  0  0  0  0  0
  1 17  2  0
  1 19  1  0
  2  3  2  0
  3 13  1  0
  4  5  1  0
  4  9  1  0
  6  7  2  0
  7  8  1  0
  7 21  1  0
  9 10  2  0
 10  6  1  0
 11 12  1  0
 12  4  2  0
 13 11  2  0
 14  2  1  0
 15  2  1  0
 16 15  2  0
 17 16  1  0
 18  1  1  0
 19 20  2  0
 19 23  1  0
 21 22  2  0
 21 24  1  0
M  END
>  <DRUGBANK_ID>  (1) 
DB05974

>  <COMMON_NAME>  (1) 
Transcrocetinate

>  <CAS_NUMBER>  (1) 
27876-94-4

>  <UNII>  (1) 
20TC155L9C

>  <SYNONYMS>  (1) 
8,8'-diapo-8,8'-carotenedioic acid; 8,8'-diapo-ψ,ψ-carotenedioic acid; 8,8'-diapocarotenedioic acid; Crocetin; trans-crocetin

$$$$
