
     RDKit          3D

 22 25  0  0  0  0  0  0  0  0999 V2000
    1.0813   -1.3711    0.1432 C   0  0  0  0  0  0  0  0  0  0  0  0
   -0.1353   -0.5388   -0.4411 C   0  0  2  0  0  0  0  0  0  0  0  0
    2.0500    1.9843   -0.1321 C   0  0  2  0  0  0  0  0  0  0  0  0
    2.4685   -0.6734   -0.2640 C   0  0  0  0  0  0  0  0  0  0  0  0
    2.7165    0.7087    0.3187 C   0  0  0  0  0  0  0  0  0  0  0  0
    3.5229    3.1841    0.4419 C   0  0  0  0  0  0  0  0  0  0  0  0
    3.3324    0.8478    1.5054 C   0  0  0  0  0  0  0  0  0  0  0  0
    4.2234    3.0098    1.9468 C   0  0  0  0  0  0  0  0  0  0  0  0
    3.0818    2.1799    2.1701 C   0  0  0  0  0  0  0  0  0  0  0  0
    0.3316    1.1576    0.2153 C   0  0  1  0  0  0  0  0  0  0  0  0
   -3.8523   -1.0283   -1.3304 C   0  0  0  0  0  0  0  0  0  0  0  0
   -2.2642    1.0199    0.3617 C   0  0  0  0  0  0  0  0  0  0  0  0
   -4.8440   -0.8087   -0.1349 C   0  0  0  0  0  0  0  0  0  0  0  0
   -1.0114    1.8200   -0.1272 C   0  0  0  0  0  0  0  0  0  0  0  0
    1.9967    2.7476    2.3406 O   0  0  0  0  0  0  0  0  0  0  0  0
   -2.5515   -0.2518   -0.3576 C   0  0  1  0  0  0  0  0  0  0  0  0
   -2.1269   -0.0973   -2.1942 C   0  0  0  0  0  0  0  0  0  0  0  0
   -1.8899   -1.3838   -0.7851 C   0  0  2  0  0  0  0  0  0  0  0  0
   -3.7076   -1.4387    0.4767 C   0  0  1  0  0  0  0  0  0  0  0  0
   -3.6406   -1.3952    1.8598 O   0  0  0  0  0  0  0  0  0  0  0  0
   -3.8036   -3.0126   -0.0194 C   0  0  0  0  0  0  0  0  0  0  0  0
   -3.8078   -4.0274   -0.6208 C   0  0  0  0  0  0  0  0  0  0  0  0
  1  4  1  0
  2  1  1  1
  2 18  1  0
  3  5  1  0
  3  6  1  1
  4  5  1  0
  5  7  2  0
  6  8  1  0
  7  9  1  0
  8  9  1  0
  9 15  2  0
 10  2  1  0
 10  3  1  0
 10 14  1  6
 11 13  1  0
 12 14  1  0
 16 12  1  0
 16 19  1  0
 16 17  1  6
 18 11  1  6
 18 16  1  0
 19 13  1  0
 19 21  1  0
 19 20  1  1
 21 22  3  0
M  END
>  <DRUGBANK_ID>  (1) 
DB00717

>  <SECONDARY_ACCESSION_NUMBERS>  (1) 
APRD00679

>  <COMMON_NAME>  (1) 
Norethisterone

>  <CAS_NUMBER>  (1) 
68-22-4

>  <UNII>  (1) 
T18F433X4S

>  <SYNONYMS>  (1) 
(17alpha)-17-ethynyl-17-hydroxyestra-4,8(14),9-trien-3-one; 17-hydroxy-19-nor-17-α-pregn-4-en-20-yn-3-one; 17-hydroxy-19-nor-17α-pregn-4-en-20-yn-3-one; 17-α-ethynyl-17-hydroxy-4-estren-3-one; 17-α-ethynyl-19-norandrost-4-en-17-β-ol-3-one; 17-α-ethynyl-19-nortestosterone; 17-α-ethynyl-4-estren-17-ol-3-one; 17-β-hydroxy-19-norpregn-4-en-20-yn-3-one; 17α-ethinyl-19-nortestosterone; 17α-ethinylestra-4-en-17β-ol-3-one; 17α-ethynyl-17-hydroxy-4-estren-3-one; 17α-ethynyl-17β-hydroxy-19-norandrost-4-en-3-one; 17α-ethynyl-19-nor-4-androsten-17β-ol-3-one; 17α-ethynyl-19-norandrost-4-en-17β-ol-3-one; 17α-ethynyl-19-nortestosterone; 17α-ethynyl-4-estren-17-ol-3-one; 17β-hydroxy-19-norpregn-4-en-20-yn-3-one; 19-nor-17-α-ethynyl-17-β-hydroxy-4-androsten-3-one; 19-nor-17-α-ethynylandrosten-17-β-ol-3-one; 19-nor-17-α-ethynyltestosterone; 19-Nor-17alpha-ethynyl-17beta-hydroxy-4-androsten-3-one; 19-nor-17α-ethynyl-17β-hydroxy-4-androsten-3-one; 19-nor-17α-ethynylandrosten-17β-ol-3-one; 19-nor-17α-ethynyltestosterone; 19-nor-ethindrone; 19-norethisterone; 4-estren-17α-ethynyl-17β-ol-3-one; Norethindrone; Norethisteron; Noréthistérone; Norethisterone; Norethisteronum; Noretisterona

$$$$
