599
     RDKit          3D

 16 16  0  0  1  0  0  0  0  0999 V2000
    1.0712    0.1123   -0.5151 S   0  0  0  0  0  0  0  0  0  0  0  0
    4.4723    2.1947    1.7109 O   0  0  0  0  0  0  0  0  0  0  0  0
    4.2121   -2.3031    1.5941 O   0  0  0  0  0  0  0  0  0  0  0  0
    3.4436    1.1846   -0.0321 N   0  0  0  0  0  0  0  0  0  0  0  0
    3.3716   -1.1235   -0.1350 N   0  0  0  0  0  0  0  0  0  0  0  0
    5.1395   -0.0922    1.1516 C   0  0  0  0  0  0  0  0  0  0  0  0
    6.1320   -0.0927   -0.0804 C   0  0  0  0  0  0  0  0  0  0  0  0
    7.1354    1.0940   -0.0872 C   0  0  0  0  0  0  0  0  0  0  0  0
    5.8532   -0.2269    2.5060 C   0  0  0  0  0  0  0  0  0  0  0  0
    4.3382    1.2038    1.0136 C   0  0  0  0  0  0  0  0  0  0  0  0
    4.2121   -1.2830    0.9374 C   0  0  0  0  0  0  0  0  0  0  0  0
    6.7668   -1.4709   -0.3292 C   0  0  0  0  0  0  0  0  0  0  0  0
    8.1876    1.1979    1.0212 C   0  0  0  0  0  0  0  0  0  0  0  0
    5.0059   -0.2179    3.7561 C   0  0  0  0  0  0  0  0  0  0  0  0
    2.7030    0.0565   -0.2179 C   0  0  0  0  0  0  0  0  0  0  0  0
    9.0161   -0.0550    1.2293 C   0  0  0  0  0  0  0  0  0  0  0  0
  1 15  2  0
  2 10  2  0
  3 11  2  0
  4 10  1  0
  4 15  1  0
  5 11  1  0
  5 15  1  0
  6  7  1  0
  6  9  1  0
  6 10  1  0
  6 11  1  0
  7  8  1  0
  7 12  1  0
  8 13  1  0
  9 14  1  0
 13 16  1  0
M  END
>  <DRUGBANK_ID>  (1) 
DB00599

>  <SECONDARY_ACCESSION_NUMBERS>  (1) 
APRD00660

>  <COMMON_NAME>  (1) 
Thiopental

>  <CAS_NUMBER>  (1) 
76-75-5

>  <UNII>  (1) 
JI8Z5M7NA3

>  <SYNONYMS>  (1) 
(Â±)-thiopental; 2-Thio-5-ethyl-5-sec-pentylbarbituric acid; 5-Ethyl-5-(1-methyl-butyl)-2-thioxo-dihydro-pyrimidine-4,6-dione; Penthiobarbital; Pentothiobarbital; Thiopental; Thiopentobarbital; Thiopentobarbitone; Thiopentobarbituric acid; Thiopentone; Tiopentale

$$$$
