
     RDKit          3D

 23 24  0  0  0  0  0  0  0  0999 V2000
   -0.0121   -0.8519   -0.0048 C   0  0  0  0  0  0  0  0  0  0  0  0
    0.0024    0.5338   -0.0463 C   0  0  0  0  0  0  0  0  0  0  0  0
    1.2465   -1.5776    0.0170 C   0  0  0  0  0  0  0  0  0  0  0  0
   -1.2410   -1.5087   -0.0075 C   0  0  0  0  0  0  0  0  0  0  0  0
    1.1238    1.2955    0.0596 O   0  0  0  0  0  0  0  0  0  0  0  0
   -1.1860    1.2412   -0.1581 C   0  0  0  0  0  0  0  0  0  0  0  0
    2.3693   -0.8764    0.0114 C   0  0  0  0  0  0  0  0  0  0  0  0
   -2.4414   -0.7969   -0.0124 C   0  0  0  0  0  0  0  0  0  0  0  0
   -1.2531   -2.8767    0.0120 O   0  0  0  0  0  0  0  0  0  0  0  0
    2.3973    0.6316    0.0226 C   0  0  0  0  0  0  0  0  0  0  0  0
   -2.4263    0.5986   -0.0670 C   0  0  0  0  0  0  0  0  0  0  0  0
    3.0443    1.0675   -1.3058 C   0  0  0  0  0  0  0  0  0  0  0  0
    3.1169    1.0036    1.3249 C   0  0  0  0  0  0  0  0  0  0  0  0
   -3.7186    1.3751    0.0089 C   0  0  0  0  0  0  0  0  0  0  0  0
    3.1654    2.5767   -1.5139 C   0  0  0  0  0  0  0  0  0  0  0  0
   -3.8207    2.2661    1.2614 C   0  0  0  0  0  0  0  0  0  0  0  0
    4.1416    3.1915   -0.5610 C   0  0  0  0  0  0  0  0  0  0  0  0
   -2.7997    3.4128    1.3194 C   0  0  0  0  0  0  0  0  0  0  0  0
    5.3375    3.7126   -0.8571 C   0  0  0  0  0  0  0  0  0  0  0  0
   -2.8173    4.2811    0.0546 C   0  0  0  0  0  0  0  0  0  0  0  0
    6.2475    4.1764    0.2430 C   0  0  0  0  0  0  0  0  0  0  0  0
    5.7618    3.8717   -2.2780 C   0  0  0  0  0  0  0  0  0  0  0  0
   -4.1347    5.0241   -0.0536 C   0  0  0  0  0  0  0  0  0  0  0  0
  1  2  2  0
  1  3  1  0
  1  4  1  0
  2  5  1  0
  2  6  1  0
  3  7  2  0
  4  8  2  0
  4  9  1  0
  5 10  1  0
  6 11  2  0
  7 10  1  0
  8 11  1  0
 10 12  1  0
 10 13  1  0
 11 14  1  0
 12 15  1  0
 14 16  1  0
 15 17  1  0
 16 18  1  0
 17 19  2  3
 18 20  1  0
 19 21  1  0
 19 22  1  0
 20 23  1  0
M  END
>  <DRUGBANK_ID>  (1) 
DB14735

>  <COMMON_NAME>  (1) 
Cannabichromene

>  <CAS_NUMBER>  (1) 
20675-51-8

>  <UNII>  (1) 
K4497H250W

>  <SYNONYMS>  (1) 
2-Methyl-2-(4-methyl-3-pentenyl)-7-pentyl-2H-1-benzopyran-5-ol; Cannabichrome; Cannabinochromene; Cannanbichromene; Pentylcannabichromene

$$$$
