
     RDKit          3D

 34 35  0  0  0  0  0  0  0  0999 V2000
    1.0906   -0.1677    0.1083 C   0  0  0  0  0  0  0  0  0  0  0  0
    0.5755   -0.0024   -1.3303 C   0  0  0  0  0  0  0  0  0  0  0  0
    1.0757   -1.2186   -2.1384 C   0  0  0  0  0  0  0  0  0  0  0  0
   -1.0101   -0.0130   -1.2780 C   0  0  0  0  0  0  0  0  0  0  0  0
   -1.5488    1.1015   -0.3990 C   0  0  0  0  0  0  0  0  0  0  0  0
   -1.9933    0.9773    0.8962 C   0  0  0  0  0  0  0  0  0  0  0  0
   -2.1669    2.1344    1.6776 C   0  0  0  0  0  0  0  0  0  0  0  0
   -1.9080    3.4169    1.1764 C   0  0  0  0  0  0  0  0  0  0  0  0
   -1.4722    3.5462   -0.1168 C   0  0  0  0  0  0  0  0  0  0  0  0
   -1.3579    2.3855   -0.8611 C   0  0  0  0  0  0  0  0  0  0  0  0
    1.1465    1.2137   -1.9763 N   0  0  0  0  0  0  0  0  0  0  0  0
    1.9541    2.1900   -1.2171 C   0  0  0  0  0  0  0  0  0  0  0  0
    0.7579    1.4973   -3.2682 C   0  0  0  0  0  0  0  0  0  0  0  0
    0.0253    0.7328   -3.9756 O   0  0  0  0  0  0  0  0  0  0  0  0
    1.2321    2.7419   -3.8857 C   0  0  0  0  0  0  0  0  0  0  0  0
    0.7940    4.0080   -3.2129 N   0  0  0  0  0  0  0  0  0  0  0  0
    1.7513    5.0524   -3.7547 C   0  0  0  0  0  0  0  0  0  0  0  0
    1.8294    5.0160   -5.3047 C   0  0  0  0  0  0  0  0  0  0  0  0
    0.6246    4.4215   -5.6249 O   0  0  0  0  0  0  0  0  0  0  0  0
   -0.7446    4.2505   -3.3435 C   0  0  0  0  0  0  0  0  0  0  0  0
   -1.5170    4.3860   -4.6526 C   0  0  0  0  0  0  0  0  0  0  0  0
   -2.1933    3.4289   -5.0868 O   0  0  0  0  0  0  0  0  0  0  0  0
   -1.3394    5.5921   -5.3739 N   0  0  0  0  0  0  0  0  0  0  0  0
   -0.4484    6.6964   -4.7427 C   0  0  0  0  0  0  0  0  0  0  0  0
   -1.6955    5.5369   -6.9097 C   0  0  0  0  0  0  0  0  0  0  0  0
   -1.0131    4.3119   -7.7082 C   0  0  0  0  0  0  0  0  0  0  0  0
   -3.2024    5.3619   -7.0851 C   0  0  0  0  0  0  0  0  0  0  0  0
   -1.2203    6.8517   -7.5579 C   0  0  0  0  0  0  0  0  0  0  0  0
   -1.7845    8.1129   -6.8795 C   0  0  0  0  0  0  0  0  0  0  0  0
   -2.5191    8.1019   -5.6554 C   0  0  0  0  0  0  0  0  0  0  0  0
   -2.4396    9.1483   -4.7379 C   0  0  0  0  0  0  0  0  0  0  0  0
   -1.8707   10.3298   -5.1449 C   0  0  0  0  0  0  0  0  0  0  0  0
   -1.3619   10.4356   -6.4446 C   0  0  0  0  0  0  0  0  0  0  0  0
   -1.3059    9.3375   -7.3110 C   0  0  0  0  0  0  0  0  0  0  0  0
  1  2  1  0
  2  3  1  0
  2  4  1  0
  2 11  1  0
  4  5  1  0
  5  6  2  0
  5 10  1  0
  6  7  1  0
  7  8  2  0
  8  9  1  0
  9 10  2  0
 11 12  1  0
 11 13  1  0
 13 14  2  0
 13 15  1  0
 15 16  1  0
 16 17  1  0
 16 20  1  0
 17 18  1  0
 18 19  1  0
 20 21  1  0
 21 22  2  0
 21 23  1  0
 23 24  1  0
 23 25  1  0
 25 26  1  0
 25 27  1  0
 25 28  1  0
 28 29  1  0
 29 30  2  0
 29 34  1  0
 30 31  1  0
 31 32  2  0
 32 33  1  0
 33 34  2  0
M  END
>  <DRUGBANK_ID>  (1) 
DB12532

>  <COMMON_NAME>  (1) 
Oxetacaine

>  <CAS_NUMBER>  (1) 
126-27-2

>  <UNII>  (1) 
IP8QT76V17

>  <SYNONYMS>  (1) 
Oxetacaine

$$$$
