
     RDKit          3D

 37 39  0  0  0  0  0  0  0  0999 V2000
    0.9152    0.0069    0.1036 C   0  0  0  0  0  0  0  0  0  0  0  0
    0.4271   -0.1024   -1.2229 O   0  0  0  0  0  0  0  0  0  0  0  0
    0.8725    0.9817   -1.9019 C   0  0  0  0  0  0  0  0  0  0  0  0
    2.2201    1.3034   -2.0526 C   0  0  0  0  0  0  0  0  0  0  0  0
    2.6976    2.3337   -2.8742 C   0  0  0  0  0  0  0  0  0  0  0  0
    4.0035    2.6287   -3.0985 O   0  0  0  0  0  0  0  0  0  0  0  0
    4.8709    1.9257   -2.2268 C   0  0  0  0  0  0  0  0  0  0  0  0
    1.7929    3.0968   -3.5349 C   0  0  0  0  0  0  0  0  0  0  0  0
    0.4449    2.8317   -3.2415 C   0  0  0  0  0  0  0  0  0  0  0  0
   -0.4906    3.1712   -4.2627 C   0  0  0  0  0  0  0  0  0  0  0  0
   -0.5482    1.5932   -4.7019 O   0  0  0  0  0  0  0  0  0  0  0  0
   -0.0637    0.8835   -5.9071 C   0  0  0  0  0  0  0  0  0  0  0  0
    1.2060    0.1418   -5.3070 C   0  0  0  0  0  0  0  0  0  0  0  0
    2.0211   -0.8780   -6.1056 C   0  0  0  0  0  0  0  0  0  0  0  0
    3.3664   -0.8844   -5.6314 N   0  0  0  0  0  0  0  0  0  0  0  0
    1.6056   -1.4148   -7.6746 C   0  0  0  0  0  0  0  0  0  0  0  0
    2.9862   -2.1402   -8.4841 Cl  0  0  0  0  0  0  0  0  0  0  0  0
    0.1950   -0.7758   -8.6123 C   0  0  0  0  0  0  0  0  0  0  0  0
   -0.7656    0.6500   -7.7530 C   0  0  0  0  0  0  0  0  0  0  0  0
   -1.8371    1.2447   -8.5173 C   0  0  0  0  0  0  0  0  0  0  0  0
   -2.1371    0.5394   -9.4650 O   0  0  0  0  0  0  0  0  0  0  0  0
   -2.5425    2.5118   -8.1101 C   0  0  0  0  0  0  0  0  0  0  0  0
   -3.2464    1.9871   -6.9114 C   0  0  0  0  0  0  0  0  0  0  0  0
   -2.1663    1.5685   -5.9835 C   0  0  0  0  0  0  0  0  0  0  0  0
   -0.7110    2.7788   -6.4886 C   0  0  0  0  0  0  0  0  0  0  0  0
    0.5699    2.3906   -7.3570 C   0  0  0  0  0  0  0  0  0  0  0  0
    1.0702    0.6568   -7.4845 N   0  0  0  0  0  0  0  0  0  0  0  0
    1.6289    0.8921   -9.0271 C   0  0  0  0  0  0  0  0  0  0  0  0
    0.6298    1.1932  -10.2279 C   0  0  0  0  0  0  0  0  0  0  0  0
    0.0042    2.4987  -10.2401 N   0  0  0  0  0  0  0  0  0  0  0  0
   -1.1118    2.9602  -11.3450 S   0  0  0  0  0  0  0  0  0  0  0  0
   -2.6345    1.9476  -11.3104 C   0  0  0  0  0  0  0  0  0  0  0  0
   -1.4722    4.2696  -10.8340 O   0  0  0  0  0  0  0  0  0  0  0  0
   -0.4229    2.7519  -12.5889 O   0  0  0  0  0  0  0  0  0  0  0  0
   -0.3514   -0.8332   -6.7639 C   0  0  0  0  0  0  0  0  0  0  0  0
   -1.8540   -0.2611   -5.8534 C   0  0  0  0  0  0  0  0  0  0  0  0
   -0.0487    1.7917   -2.4496 C   0  0  0  0  0  0  0  0  0  0  0  0
  1  2  1  0
  2  3  1  0
  3  4  2  0
  3 37  1  0
  4  5  1  0
  5  6  1  0
  5  8  2  0
  6  7  1  0
  8  9  1  0
  9 10  1  0
  9 37  2  0
 10 11  1  0
 11 12  1  0
 12 13  2  0
 12 19  1  0
 13 14  1  0
 14 15  1  0
 14 16  2  0
 16 17  1  0
 16 18  1  0
 18 19  2  0
 19 20  1  0
 20 21  2  0
 20 22  1  0
 22 23  1  0
 23 24  1  0
 24 25  1  0
 24 36  1  0
 25 26  1  0
 26 27  1  0
 27 28  1  0
 27 35  1  0
 28 29  1  0
 29 30  1  0
 30 31  1  0
 31 32  1  0
 31 33  2  0
 31 34  2  0
 35 36  1  0
M  END
>  <DRUGBANK_ID>  (1) 
DB17050

>  <COMMON_NAME>  (1) 
RS-39604

>  <CAS_NUMBER>  (1) 
161362-65-8

>  <UNII>  (1) 
0RP0I19CSC

>  <SYNONYMS>  (1) 
Methanesulfonamide, n-(2-(4-(3-(4-amino-5-chloro-2-((3,5-dimethoxyphenyl)methoxy)phenyl)-3-oxopropyl)-1-piperidinyl)ethyl)-

$$$$
