
     RDKit          3D

 33 37  0  0  1  0  0  0  0  0999 V2000
    1.3311   -0.1889    0.0283 C   0  0  0  0  0  0  0  0  0  0  0  0
    0.3879   -1.2093    0.0395 C   0  0  0  0  0  0  0  0  0  0  0  0
    0.8917    1.1327    0.0343 C   0  0  0  0  0  0  0  0  0  0  0  0
   -0.9952   -0.8899    0.0487 C   0  0  0  0  0  0  0  0  0  0  0  0
   -0.4749    1.4500    0.1030 C   0  0  0  0  0  0  0  0  0  0  0  0
   -1.3962    7.8596    4.1555 C   0  0  0  0  0  0  0  0  0  0  0  0
   -0.2094    5.8364    3.6659 C   0  0  0  0  0  0  0  0  0  0  0  0
   -7.5264    1.6139    3.3039 C   0  0  0  0  0  0  0  0  0  0  0  0
   -6.2314   -0.2964    4.0536 C   0  0  0  0  0  0  0  0  0  0  0  0
   -0.4130    8.5739    3.4740 C   0  0  0  0  0  0  0  0  0  0  0  0
    0.6763    6.5153    2.8543 C   0  0  0  0  0  0  0  0  0  0  0  0
   -8.5806    1.2176    4.1270 C   0  0  0  0  0  0  0  0  0  0  0  0
   -7.2697   -0.6687    4.8981 C   0  0  0  0  0  0  0  0  0  0  0  0
   -2.9215    0.9231   -0.1509 C   0  0  0  0  0  0  0  0  0  0  0  0
   -2.6129    5.6587    4.3927 C   0  0  0  0  0  0  0  0  0  0  0  0
   -4.4262    2.2785    3.4266 C   0  0  0  0  0  0  0  0  0  0  0  0
   -1.4591    0.4658    0.0943 C   0  0  0  0  0  0  0  0  0  0  0  0
   -1.3796    6.4699    4.0966 C   0  0  0  0  0  0  0  0  0  0  0  0
   -6.3410    0.8707    3.2917 C   0  0  0  0  0  0  0  0  0  0  0  0
    0.5679    7.8863    2.7616 C   0  0  0  0  0  0  0  0  0  0  0  0
   -8.4352    0.0875    4.9287 C   0  0  0  0  0  0  0  0  0  0  0  0
   -3.8133    1.7383    0.8770 C   0  0  0  0  0  0  0  0  0  0  0  0
   -5.1299    1.3933    2.6857 C   0  0  0  0  0  0  0  0  0  0  0  0
   -3.6145    3.1988    1.6432 C   0  0  0  0  0  0  0  0  0  0  0  0
   -2.6217    3.9078    3.1126 C   0  0  0  0  0  0  0  0  0  0  0  0
   -3.6711    5.0123    3.2769 C   0  0  2  0  0  0  0  0  0  0  0  0
   -4.6659    0.9349    1.4851 N   0  0  0  0  0  0  0  0  0  0  0  0
   -3.9523    4.5235    1.6385 N   0  0  0  0  0  0  0  0  0  0  0  0
   -3.2758    2.7737    2.8637 N   0  0  0  0  0  0  0  0  0  0  0  0
    1.4661    8.5257    1.9661 O   0  0  0  0  0  0  0  0  0  0  0  0
   -9.4262   -0.3232    5.7695 O   0  0  0  0  0  0  0  0  0  0  0  0
   -1.5496    4.0812    2.5319 O   0  0  0  0  0  0  0  0  0  0  0  0
   -4.8774    4.8930    4.0556 O   0  0  0  0  0  0  0  0  0  0  0  0
  2  1  2  0
  3  1  1  0
  4  2  1  0
  5  3  2  0
 10  6  2  0
 11  7  1  0
 12  8  2  0
 13  9  1  0
 17  4  2  0
 17  5  1  0
 17 14  1  0
 18  6  1  0
 18  7  2  0
 18 15  1  0
 19  8  1  0
 19  9  2  0
 20 10  1  0
 20 11  2  0
 21 12  1  0
 21 13  2  0
 22 14  1  0
 23 16  2  0
 23 19  1  0
 24 22  1  0
 26 15  1  0
 26 25  1  0
 26 33  1  1
 27 22  2  0
 27 23  1  0
 28 24  2  0
 28 26  1  0
 29 16  1  0
 29 24  1  0
 29 25  1  0
 30 20  1  0
 31 21  1  0
 32 25  2  0
M  END
>  <DRUGBANK_ID>  (1) 
DB02194

>  <SECONDARY_ACCESSION_NUMBERS>  (1) 
EXPT01057

>  <COMMON_NAME>  (1) 
8-Benzyl-2-Hydroxy-2-(4-Hydroxy-Benzyl)-6-(4-Hydroxy-Phenyl)-2h-Imidazo[1,2-a]Pyrazin-3-One

$$$$
