
     RDKit          3D

 19 21  0  0  0  0  0  0  0  0999 V2000
    0.9405   -0.0004    0.0744 C   0  0  0  0  0  0  0  0  0  0  0  0
    0.3684   -1.3318    0.1739 N   0  0  0  0  0  0  0  0  0  0  0  0
   -0.3529   -1.7577    1.2775 C   0  0  0  0  0  0  0  0  0  0  0  0
   -0.0565   -2.8816    1.8746 N   0  0  0  0  0  0  0  0  0  0  0  0
   -0.7627   -3.2996    3.0338 C   0  0  0  0  0  0  0  0  0  0  0  0
   -2.1536   -3.2132    3.2354 C   0  0  0  0  0  0  0  0  0  0  0  0
   -2.7258   -3.6793    4.4352 C   0  0  0  0  0  0  0  0  0  0  0  0
   -1.9524   -4.2676    5.4212 C   0  0  0  0  0  0  0  0  0  0  0  0
   -2.7152   -4.8470    6.8501 Cl  0  0  0  0  0  0  0  0  0  0  0  0
   -0.5865   -4.3792    5.2415 C   0  0  0  0  0  0  0  0  0  0  0  0
   -0.0020   -3.8961    4.0590 C   0  0  0  0  0  0  0  0  0  0  0  0
   -3.0521   -2.6406    2.1974 C   0  0  0  0  0  0  0  0  0  0  0  0
   -2.7805   -1.5894    1.4896 N   0  0  0  0  0  0  0  0  0  0  0  0
   -1.5213   -0.8806    1.7330 C   0  0  0  0  0  0  0  0  0  0  0  0
   -4.3170   -3.3132    1.9197 C   0  0  0  0  0  0  0  0  0  0  0  0
   -4.7279   -3.8869    0.7259 C   0  0  0  0  0  0  0  0  0  0  0  0
   -6.0031   -4.4717    0.9216 C   0  0  0  0  0  0  0  0  0  0  0  0
   -6.3620   -4.2365    2.2257 C   0  0  0  0  0  0  0  0  0  0  0  0
   -5.3709   -3.4857    2.7975 N   0  0  0  0  0  0  0  0  0  0  0  0
  1  2  1  0
  2  3  1  0
  3  4  2  0
  3 14  1  0
  4  5  1  0
  5  6  2  0
  5 11  1  0
  6  7  1  0
  6 12  1  0
  7  8  2  0
  8  9  1  0
  8 10  1  0
 10 11  2  0
 12 13  2  0
 12 15  1  0
 13 14  1  0
 15 16  2  0
 15 19  1  0
 16 17  1  0
 17 18  2  0
 18 19  1  0
M  END
>  <DRUGBANK_ID>  (1) 
DB16062

>  <COMMON_NAME>  (1) 
Ro 24-7429

>  <CAS_NUMBER>  (1) 
139339-45-0

>  <UNII>  (1) 
MLW2GKK8LI

$$$$
