1526
     RDKit          3D

 21 24  0  0  1  0  0  0  0  0999 V2000
    3.5838   -0.0172   -6.9016 O   0  0  0  0  0  0  0  0  0  0  0  0
    6.8565    2.5702   -2.7598 O   0  0  0  0  0  0  0  0  0  0  0  0
    1.1733    0.0526   -6.1011 C   0  0  2  0  0  0  0  0  0  0  0  0
    1.6040    0.5052   -4.7539 C   0  0  2  0  0  0  0  0  0  0  0  0
    0.2316    0.1635   -7.0157 C   0  0  1  0  0  0  0  0  0  0  0  0
    1.2541    2.0144   -4.6945 C   0  0  2  0  0  0  0  0  0  0  0  0
    2.2117    2.8109   -3.7090 C   0  0  1  0  0  0  0  0  0  0  0  0
   -0.6830    1.4061   -5.9889 C   0  0  0  0  0  0  0  0  0  0  0  0
   -0.2508    1.8038   -4.5521 C   0  0  0  0  0  0  0  0  0  0  0  0
    2.1308   -0.4743   -7.3564 C   0  0  2  0  0  0  0  0  0  0  0  0
    1.0379   -1.6231   -6.6644 C   0  0  0  0  0  0  0  0  0  0  0  0
    3.0765    0.4417   -4.7182 C   0  0  0  0  0  0  0  0  0  0  0  0
    2.4071   -1.8419   -6.5000 C   0  0  0  0  0  0  0  0  0  0  0  0
    3.2809    2.0260   -2.9925 C   0  0  0  0  0  0  0  0  0  0  0  0
    3.6860    0.6828   -3.4355 C   0  0  0  0  0  0  0  0  0  0  0  0
    3.7384    3.6437   -4.5861 C   0  0  0  0  0  0  0  0  0  0  0  0
   -1.3291   -0.7964   -6.6789 C   0  0  0  0  0  0  0  0  0  0  0  0
    1.2746    2.3183   -2.3332 C   0  0  0  0  0  0  0  0  0  0  0  0
    5.2496    3.8825   -3.7313 C   0  0  0  0  0  0  0  0  0  0  0  0
    4.1326    2.8319   -2.3388 C   0  0  0  0  0  0  0  0  0  0  0  0
    5.4780    2.5832   -3.0272 C   0  0  2  0  0  0  0  0  0  0  0  0
  3  4  1  0
  3  5  1  0
  3 11  1  1
  4  6  1  0
  4 12  1  6
  5  8  1  0
  5 10  1  0
  5 17  1  1
  6  7  1  0
  6  9  1  1
  7 14  1  0
  7 16  1  0
  7 18  1  1
  8  9  1  0
 10 13  1  0
 10  1  1  1
 11 13  1  0
 12 15  1  0
 14 15  1  0
 14 20  2  0
 16 19  1  0
 19 21  1  0
 20 21  1  0
 21  2  1  1
M  END
>  <DRUGBANK_ID>  (1) 
DB01526

>  <COMMON_NAME>  (1) 
4-Androstenediol

>  <CAS_NUMBER>  (1) 
1156-92-9

>  <UNII>  (1) 
G10EHA9I0D

$$$$
