L23
     RDKit          3D

 22 24  0  0  0  0  0  0  0  0999 V2000
   -2.6962    0.7525    0.0467 Cl  0  0  0  0  0  0  0  0  0  0  0  0
   -1.1653   -0.0579    0.0413 C   0  0  0  0  0  0  0  0  0  0  0  0
   -1.2175   -1.4608    0.0386 C   0  0  0  0  0  0  0  0  0  0  0  0
   -0.0479   -2.2102    0.0405 C   0  0  0  0  0  0  0  0  0  0  0  0
    1.1712   -1.5596   -0.0454 C   0  0  0  0  0  0  0  0  0  0  0  0
    1.2182   -0.1682   -0.1748 C   0  0  0  0  0  0  0  0  0  0  0  0
    2.7378    0.4297   -0.7571 Cl  0  0  0  0  0  0  0  0  0  0  0  0
    0.0641    0.6328   -0.0249 C   0  0  0  0  0  0  0  0  0  0  0  0
    0.1256    2.1498    0.0229 C   0  0  0  0  0  0  0  0  0  0  0  0
    0.7278    2.6923    1.2491 N   0  0  0  0  0  0  0  0  0  0  0  0
    2.0334    2.5373    1.6226 C   0  0  0  0  0  0  0  0  0  0  0  0
    0.1695    3.5563    2.1774 C   0  0  0  0  0  0  0  0  0  0  0  0
   -1.2220    4.0797    2.1518 C   0  0  0  0  0  0  0  0  0  0  0  0
    1.0541    3.8817    3.1120 N   0  0  0  0  0  0  0  0  0  0  0  0
    2.2185    3.2448    2.7786 C   0  0  0  0  0  0  0  0  0  0  0  0
    3.5039    3.3070    3.4608 C   0  0  0  0  0  0  0  0  0  0  0  0
    4.6324    3.6838    2.7545 C   0  0  0  0  0  0  0  0  0  0  0  0
    5.8084    3.6585    3.4600 C   0  0  0  0  0  0  0  0  0  0  0  0
    5.8894    3.2642    4.7392 N   0  0  0  0  0  0  0  0  0  0  0  0
    4.7479    2.8757    5.3242 C   0  0  0  0  0  0  0  0  0  0  0  0
    3.5457    2.8888    4.7400 N   0  0  0  0  0  0  0  0  0  0  0  0
    4.8340    2.3944    6.5986 N   0  0  0  0  0  0  0  0  0  0  0  0
  1  2  1  0
  2  3  2  0
  2  8  1  0
  3  4  1  0
  4  5  2  0
  5  6  1  0
  6  7  1  0
  6  8  2  0
  8  9  1  0
  9 10  1  0
 10 11  1  0
 10 12  1  0
 11 15  2  0
 12 13  1  0
 12 14  2  0
 14 15  1  0
 15 16  1  0
 16 17  2  0
 16 21  1  0
 17 18  1  0
 18 19  2  0
 19 20  1  0
 20 21  2  0
 20 22  1  0
M  END
>  <DRUGBANK_ID>  (1) 
DB08076

>  <COMMON_NAME>  (1) 
4-[1-(2,6-dichlorobenzyl)-2-methyl-1H-imidazol-4-yl]pyrimidin-2-amine

$$$$
