
     RDKit          3D

 37 40  0  0  0  0  0  0  0  0999 V2000
    0.1418    0.7389   -0.6493 C   0  0  2  0  0  0  0  0  0  0  0  0
   -0.5848   -0.5018   -0.3927 N   0  0  0  0  0  0  0  0  0  0  0  0
   -0.0196   -1.7234   -0.1574 C   0  0  0  0  0  0  0  0  0  0  0  0
    1.3247   -1.7845    0.0452 C   0  0  0  0  0  0  0  0  0  0  0  0
    2.2520   -0.5669    0.0002 C   0  0  0  0  0  0  0  0  0  0  0  0
    1.4607    0.9936    0.4999 S   0  0  0  0  0  0  0  0  0  0  0  0
   -1.1656    1.4693   -0.4337 C   0  0  1  0  0  0  0  0  0  0  0  0
   -1.7139    0.0928    0.0659 C   0  0  0  0  0  0  0  0  0  0  0  0
   -1.4012    2.6986    0.3106 N   0  0  0  0  0  0  0  0  0  0  0  0
   -2.1543    3.7895   -0.1470 C   0  0  0  0  0  0  0  0  0  0  0  0
   -2.1694    4.7669    0.5986 O   0  0  0  0  0  0  0  0  0  0  0  0
   -2.6671   -0.4020    0.6077 O   0  0  0  0  0  0  0  0  0  0  0  0
   -2.8815    3.8013   -1.5771 C   0  0  0  0  0  0  0  0  0  0  0  0
    2.0811   -3.0569    0.3668 C   0  0  0  0  0  0  0  0  0  0  0  0
   -2.9663    2.6315   -2.4926 C   0  0  0  0  0  0  0  0  0  0  0  0
    1.6416   -3.8991    1.9055 S   0  0  0  0  0  0  0  0  0  0  0  0
    1.6655   -2.7610    3.2208 C   0  0  0  0  0  0  0  0  0  0  0  0
   -2.5301    2.6471   -3.8108 C   0  0  0  0  0  0  0  0  0  0  0  0
   -2.4689    1.0517   -4.4514 S   0  0  0  0  0  0  0  0  0  0  0  0
   -3.0085    0.4315   -2.9494 C   0  0  0  0  0  0  0  0  0  0  0  0
   -3.3373    1.3442   -2.0609 N   0  0  0  0  0  0  0  0  0  0  0  0
   -3.4229    4.8757   -2.0972 N   0  0  0  0  0  0  0  0  0  0  0  0
    1.8814   -3.2167    4.4326 N   0  0  0  0  0  0  0  0  0  0  0  0
    1.8635   -2.1858    5.3560 C   0  0  0  0  0  0  0  0  0  0  0  0
    1.6164   -0.9326    4.8309 C   0  0  0  0  0  0  0  0  0  0  0  0
    1.2941   -1.1003    3.1712 S   0  0  0  0  0  0  0  0  0  0  0  0
   -0.8754   -2.9930   -0.1719 C   0  0  0  0  0  0  0  0  0  0  0  0
   -2.2012   -2.8299   -0.3546 O   0  0  0  0  0  0  0  0  0  0  0  0
   -0.4178   -4.1257   -0.1612 O   0  0  0  0  0  0  0  0  0  0  0  0
   -2.9539   -0.8803   -2.6652 N   0  0  0  0  0  0  0  0  0  0  0  0
    2.6869    1.2913    5.0318 C   0  0  0  0  0  0  0  0  0  0  0  0
    1.5589    0.3982    5.5052 C   0  0  0  0  0  0  0  0  0  0  0  0
    2.2907    2.4983    4.5641 O   0  0  0  0  0  0  0  0  0  0  0  0
    3.8703    0.9867    5.0885 O   0  0  0  0  0  0  0  0  0  0  0  0
    2.1111   -2.5307    6.7721 C   0  0  0  0  0  0  0  0  0  0  0  0
   -3.3827    5.9856   -1.2469 O   0  0  0  0  0  0  0  0  0  0  0  0
   -4.1091    7.0657   -1.8243 C   0  0  0  0  0  0  0  0  0  0  0  0
  1  2  1  0
  1  6  1  1
  1  7  1  0
  2  3  1  0
  2  8  1  0
  3  4  2  0
  3 27  1  0
  4  5  1  0
  4 14  1  0
  5  6  1  0
  7  8  1  0
  7  9  1  1
  8 12  2  0
  9 10  1  0
 10 11  2  0
 10 13  1  0
 13 15  1  0
 13 22  2  0
 14 16  1  0
 15 18  2  0
 15 21  1  0
 16 17  1  0
 17 23  2  0
 17 26  1  0
 18 19  1  0
 19 20  1  0
 20 21  2  0
 20 30  1  0
 22 36  1  0
 23 24  1  0
 24 25  2  0
 24 35  1  0
 25 26  1  0
 25 32  1  0
 27 28  1  0
 27 29  2  0
 31 32  1  0
 31 33  1  0
 31 34  2  0
 36 37  1  0
M  END
>  <DRUGBANK_ID>  (1) 
DB13470

>  <COMMON_NAME>  (1) 
Cefodizime

>  <CAS_NUMBER>  (1) 
69739-16-8

>  <UNII>  (1) 
Z31298J4HQ

>  <SYNONYMS>  (1) 
CDZM; Cefodizima; Cefodizime; Cefodizimum

$$$$
