
     RDKit          3D

 26 30  0  0  1  0  0  0  0  0999 V2000
    1.0079    0.0327   -0.0857 C   0  0  0  0  0  0  0  0  0  0  0  0
   -5.7408   -2.6515    6.9419 C   0  0  0  0  0  0  0  0  0  0  0  0
   -6.1276   -3.9953    6.3910 C   0  0  0  0  0  0  0  0  0  0  0  0
   -1.3078   -1.8037    0.8426 C   0  0  0  0  0  0  0  0  0  0  0  0
    0.2025   -3.6178    6.2047 C   0  0  0  0  0  0  0  0  0  0  0  0
   -2.1269   -2.6438    5.0882 C   0  0  0  0  0  0  0  0  0  0  0  0
    0.9411   -1.7708    1.5637 C   0  0  0  0  0  0  0  0  0  0  0  0
   -1.3230   -0.5329    2.8636 C   0  0  0  0  0  0  0  0  0  0  0  0
   -3.4645   -4.7816    7.8489 C   0  0  0  0  0  0  0  0  0  0  0  0
   -4.7472   -3.4602    6.1482 C   0  0  0  0  0  0  0  0  0  0  0  0
   -0.9500   -0.4038    1.3450 C   0  0  1  0  0  0  0  0  0  0  0  0
   -0.3965   -2.4801    1.8807 C   0  0  1  0  0  0  0  0  0  0  0  0
   -1.0291   -3.9429    6.7765 C   0  0  0  0  0  0  0  0  0  0  0  0
   -2.3783   -5.2862    8.4653 C   0  0  0  0  0  0  0  0  0  0  0  0
    0.2344   -2.9679    4.9764 C   0  0  0  0  0  0  0  0  0  0  0  0
   -2.2255   -3.4716    6.2237 C   0  0  0  0  0  0  0  0  0  0  0  0
   -0.9280   -2.4843    4.3713 C   0  0  0  0  0  0  0  0  0  0  0  0
   -1.0570   -4.8539    7.9415 C   0  0  0  0  0  0  0  0  0  0  0  0
   -2.4664   -6.2261    9.6026 C   0  0  0  0  0  0  0  0  0  0  0  0
    1.4284   -2.8062    4.3905 F   0  0  0  0  0  0  0  0  0  0  0  0
    0.5384   -0.3678    1.2331 N   0  0  0  0  0  0  0  0  0  0  0  0
   -0.9929   -1.9417    3.1191 N   0  0  0  0  0  0  0  0  0  0  0  0
   -3.4735   -3.8937    6.7776 N   0  0  0  0  0  0  0  0  0  0  0  0
    0.0037   -5.2460    8.4150 O   0  0  0  0  0  0  0  0  0  0  0  0
   -1.5385   -6.7320   10.2139 O   0  0  0  0  0  0  0  0  0  0  0  0
   -3.7275   -6.5233    9.9731 O   0  0  0  0  0  0  0  0  0  0  0  0
  3  2  1  0
 10  2  1  0
 10  3  1  0
 11  4  1  0
 11  8  1  1
 12  4  1  0
 12  7  1  6
 13  5  2  0
 14  9  2  0
 15  5  1  0
 16  6  2  0
 16 13  1  0
 17  6  1  0
 17 15  2  0
 18 13  1  0
 18 14  1  0
 19 14  1  0
 20 15  1  0
 21  1  1  0
 21  7  1  0
 21 11  1  0
 22  8  1  0
 22 12  1  0
 22 17  1  0
 23  9  1  0
 23 10  1  0
 23 16  1  0
 24 18  2  0
 25 19  2  0
 26 19  1  0
M  END
>  <DRUGBANK_ID>  (1) 
DB11393

>  <COMMON_NAME>  (1) 
Danofloxacin

>  <CAS_NUMBER>  (1) 
112398-08-0

>  <UNII>  (1) 
24CU1YS91D

>  <SYNONYMS>  (1) 
Danofloxacin; Danofloxacine; Danofloxacino; Danofloxacinum

$$$$
