
     RDKit          3D

 26 29  0  0  0  0  0  0  0  0999 V2000
   -4.0399    1.2467   -0.5152 C   0  0  0  0  0  0  0  0  0  0  0  0
   -4.5021   -0.2090   -0.5889 C   0  0  1  0  0  0  0  0  0  0  0  0
   -3.7159   -1.1979    0.2731 C   0  0  0  0  0  0  0  0  0  0  0  0
   -2.2366   -1.0012    0.1514 C   0  0  0  0  0  0  0  0  0  0  0  0
   -1.6933    0.4323    0.2250 C   0  0  2  0  0  0  0  0  0  0  0  0
   -2.5373    1.3770   -0.6811 C   0  0  0  0  0  0  0  0  0  0  0  0
   -1.4646   -2.0883   -0.0055 C   0  0  0  0  0  0  0  0  0  0  0  0
    0.0158   -2.0570   -0.1312 C   0  0  0  0  0  0  0  0  0  0  0  0
    0.6253   -0.7045    0.2399 C   0  0  2  0  0  0  0  0  0  0  0  0
   -0.2225    0.4716   -0.3147 C   0  0  2  0  0  0  0  0  0  0  0  0
    2.0402   -0.5910   -0.3291 C   0  0  1  0  0  0  0  0  0  0  0  0
    2.7257    0.7438    0.0382 C   0  0  2  0  0  0  0  0  0  0  0  0
    1.9185    1.8672   -0.6277 C   0  0  0  0  0  0  0  0  0  0  0  0
    0.4676    1.8500   -0.1330 C   0  0  0  0  0  0  0  0  0  0  0  0
    3.0621   -1.6372    0.0818 C   0  0  0  0  0  0  0  0  0  0  0  0
    4.3953   -1.0025   -0.3373 C   0  0  0  0  0  0  0  0  0  0  0  0
    4.1315    0.5134   -0.5592 C   0  0  2  0  0  0  0  0  0  0  0  0
    2.7574    0.9441    1.5633 C   0  0  0  0  0  0  0  0  0  0  0  0
    5.3748    1.3345   -0.1842 C   0  0  0  0  0  0  0  0  0  0  0  0
   -1.7551    0.9151    1.6962 C   0  0  0  0  0  0  0  0  0  0  0  0
    5.5189    2.1725    1.0617 C   0  0  0  0  0  0  0  0  0  0  0  0
   -5.9203   -0.3147   -0.3407 O   0  0  0  0  0  0  0  0  0  0  0  0
    6.3756    1.2346   -0.9103 O   0  0  0  0  0  0  0  0  0  0  0  0
   -6.5543   -0.0388    0.8216 C   0  0  0  0  0  0  0  0  0  0  0  0
   -5.7715    0.4465    2.0091 C   0  0  0  0  0  0  0  0  0  0  0  0
   -7.7656   -0.1807    0.9080 O   0  0  0  0  0  0  0  0  0  0  0  0
  1  2  1  0
  1  6  1  0
  2  3  1  0
  2 22  1  1
  3  4  1  0
  4  5  1  0
  4  7  2  0
  5  6  1  0
  5 10  1  0
  5 20  1  1
  7  8  1  0
  9  8  1  6
  9 10  1  0
  9 11  1  0
 10 14  1  1
 11 12  1  0
 11 15  1  1
 12 13  1  0
 12 17  1  0
 12 18  1  1
 13 14  1  0
 15 16  1  0
 16 17  1  0
 17 19  1  1
 19 21  1  0
 19 23  2  0
 22 24  1  0
 24 25  1  0
 24 26  2  0
M  END
>  <DRUGBANK_ID>  (1) 
DB14626

>  <SECONDARY_ACCESSION_NUMBERS>  (1) 
DBSALT002259

>  <COMMON_NAME>  (1) 
Pregnenolone acetate

>  <CAS_NUMBER>  (1) 
1778-02-5

>  <UNII>  (1) 
0G0WWV404B

>  <SYNONYMS>  (1) 
3beta-Hydroxypregn-5-en-20-one acetate

$$$$
