
     RDKit          3D

 36 38  0  0  0  0  0  0  0  0999 V2000
    0.5278   -1.0664    4.0083 P   0  0  2  0  0  0  0  0  0  0  0  0
   -1.5379   -1.7928    5.7933 P   0  0  2  0  0  0  0  0  0  0  0  0
   -1.2736   -1.8004    1.5191 F   0  0  0  0  0  0  0  0  0  0  0  0
   -3.6963   -3.4488    6.7190 O   0  0  0  0  0  0  0  0  0  0  0  0
    2.2563   -2.5911    0.9892 O   0  0  0  0  0  0  0  0  0  0  0  0
   -5.8655   -4.9831    5.9049 O   0  0  0  0  0  0  0  0  0  0  0  0
   -6.9888   -2.6777    6.5122 O   0  0  0  0  0  0  0  0  0  0  0  0
   -1.3527   -3.1540    4.9153 O   0  0  0  0  0  0  0  0  0  0  0  0
    0.7989   -2.2656    2.9156 O   0  0  0  0  0  0  0  0  0  0  0  0
    0.8966   -4.0114   -1.1899 O   0  0  0  0  0  0  0  0  0  0  0  0
   -1.5080   -4.2802    0.2158 O   0  0  0  0  0  0  0  0  0  0  0  0
   -1.1511   -0.8747    4.3790 O   0  0  0  0  0  0  0  0  0  0  0  0
    4.6519   -4.0401    0.7530 O   0  0  0  0  0  0  0  0  0  0  0  0
   -3.7920   -0.4604    5.1793 O   0  0  0  0  0  0  0  0  0  0  0  0
    0.3444   -0.0248    2.6392 O   0  0  0  0  0  0  0  0  0  0  0  0
   -0.5161   -0.8069    6.5994 O   0  0  0  0  0  0  0  0  0  0  0  0
    0.6919   -1.9986    5.2336 O   0  0  0  0  0  0  0  0  0  0  0  0
   -1.8841   -2.6146    7.0591 O   0  0  0  0  0  0  0  0  0  0  0  0
   -3.0194    2.6815    8.3115 O   0  0  0  0  0  0  0  0  0  0  0  0
   -4.2279   -1.0607    7.3650 N   0  0  0  0  0  0  0  0  0  0  0  0
   -3.6218    1.1303    6.7518 N   0  0  0  0  0  0  0  0  0  0  0  0
   -5.2491   -3.8814    5.1821 C   0  0  1  0  0  0  0  0  0  0  0  0
   -5.6866   -2.5933    5.9258 C   0  0  2  0  0  0  0  0  0  0  0  0
   -3.7482   -4.0173    5.4132 C   0  0  1  0  0  0  0  0  0  0  0  0
   -4.6799   -2.4670    7.0476 C   0  0  1  0  0  0  0  0  0  0  0  0
    0.9195   -4.4544    0.1847 C   0  0  2  0  0  0  0  0  0  0  0  0
   -0.3140   -3.8666    0.8829 C   0  0  1  0  0  0  0  0  0  0  0  0
    2.2078   -4.0114    0.8977 C   0  0  1  0  0  0  0  0  0  0  0  0
   -0.2125   -2.3455    0.8516 C   0  0  2  0  0  0  0  0  0  0  0  0
   -2.6440   -3.5684    4.3685 C   0  0  0  0  0  0  0  0  0  0  0  0
    1.0845   -1.9779    1.5456 C   0  0  2  0  0  0  0  0  0  0  0  0
    3.4500   -4.4729    0.1169 C   0  0  0  0  0  0  0  0  0  0  0  0
   -3.8995   -0.1571    6.3635 C   0  0  0  0  0  0  0  0  0  0  0  0
   -4.2395   -0.6292    8.6923 C   0  0  0  0  0  0  0  0  0  0  0  0
   -3.8449    0.5983    9.0633 C   0  0  0  0  0  0  0  0  0  0  0  0
   -3.4503    1.5522    8.0281 C   0  0  0  0  0  0  0  0  0  0  0  0
  1  9  1  0
  1 12  1  0
  1 15  1  1
  1 17  2  0
  2  8  1  0
  2 12  1  0
  2 16  1  1
  2 18  2  0
  4 24  1  0
  4 25  1  0
  5 28  1  0
  5 31  1  0
  8 30  1  0
 13 32  1  0
 14 33  2  0
 19 36  2  0
 20 33  1  0
 20 34  1  0
 21 33  1  0
 21 36  1  0
 22  6  1  1
 22 23  1  0
 22 24  1  0
 23  7  1  1
 23 25  1  0
 24 30  1  6
 25 20  1  6
 26 10  1  6
 26 27  1  0
 26 28  1  0
 27 11  1  6
 27 29  1  0
 28 32  1  6
 29 31  1  0
 29  3  1  1
 31  9  1  1
 34 35  2  0
 35 36  1  0
M  END
>  <DRUGBANK_ID>  (1) 
DB02976

>  <SECONDARY_ACCESSION_NUMBERS>  (1) 
EXPT03197

>  <COMMON_NAME>  (1) 
Uridine-5'-diphosphate-2-deoxy-2-fluorogalactose

$$$$
