1367
     RDKit          3D

 13 14  0  0  1  0  0  0  0  0999 V2000
    1.0355    0.0787    0.0040 N   0  0  0  0  0  0  0  0  0  0  0  0
    0.5367    1.2873   -0.6516 C   0  0  2  0  0  0  0  0  0  0  0  0
    1.5898    2.0094   -1.5287 C   0  0  0  0  0  0  0  0  0  0  0  0
    1.1778    3.4901   -1.5608 C   0  0  0  0  0  0  0  0  0  0  0  0
    0.1911    2.3906    0.3147 C   0  0  0  0  0  0  0  0  0  0  0  0
    0.5401    3.6410   -0.2143 C   0  0  0  0  0  0  0  0  0  0  0  0
   -0.4469    2.2954    1.5432 C   0  0  0  0  0  0  0  0  0  0  0  0
    0.2697    4.8110    0.4784 C   0  0  0  0  0  0  0  0  0  0  0  0
    0.5764   -1.1396   -0.6583 C   0  0  0  0  0  0  0  0  0  0  0  0
   -0.7005    3.4674    2.2592 C   0  0  0  0  0  0  0  0  0  0  0  0
   -0.3413    4.7165    1.7317 C   0  0  0  0  0  0  0  0  0  0  0  0
    1.0669   -1.2365   -2.0386 C   0  0  0  0  0  0  0  0  0  0  0  0
    1.4556   -1.2653   -3.1769 C   0  0  0  0  0  0  0  0  0  0  0  0
  1  9  1  0
  2  1  1  1
  2  3  1  0
  2  5  1  0
  3  4  1  0
  4  6  1  0
  5  6  2  0
  5  7  1  0
  6  8  1  0
  7 10  2  0
  8 11  2  0
  9 12  1  0
 10 11  1  0
 12 13  3  0
M  END
>  <DRUGBANK_ID>  (1) 
DB01367

>  <SECONDARY_ACCESSION_NUMBERS>  (1) 
EXPT02758

>  <COMMON_NAME>  (1) 
Rasagiline

>  <CAS_NUMBER>  (1) 
136236-51-6

>  <UNII>  (1) 
003N66TS6T

>  <SYNONYMS>  (1) 
(1R)-N-propargylindan-1-amine; (R)-indan-1-yl-prop-2-ynyl-amine; (R)-N-2-Propynyl-1-indanamine; RAS; Rasagilina; Rasagiline

$$$$
