
     RDKit          3D

 25 26  0  0  0  0  0  0  0  0999 V2000
    0.9352   -0.0709   -0.0993 C   0  0  0  0  0  0  0  0  0  0  0  0
    0.2172    0.9110   -0.9587 C   0  0  0  0  0  0  0  0  0  0  0  0
   -1.1300    0.9418   -0.9893 C   0  0  0  0  0  0  0  0  0  0  0  0
    0.3368   -0.8289    0.6450 O   0  0  0  0  0  0  0  0  0  0  0  0
    2.2954   -0.1526   -0.1514 N   0  0  0  0  0  0  0  0  0  0  0  0
    3.2500    0.6507   -0.8569 C   0  0  0  0  0  0  0  0  0  0  0  0
    3.9312    1.6137    0.0670 C   0  0  0  0  0  0  0  0  0  0  0  0
    5.0699    0.8753    0.7730 C   0  0  0  0  0  0  0  0  0  0  0  0
    6.0467    0.1882   -0.2099 C   0  0  0  0  0  0  0  0  0  0  0  0
    6.7790    1.1754   -1.0950 C   0  0  0  0  0  0  0  0  0  0  0  0
    6.5435    2.5572   -0.9977 C   0  0  0  0  0  0  0  0  0  0  0  0
    7.0589    3.4801   -1.8843 C   0  0  0  0  0  0  0  0  0  0  0  0
    8.0369    3.0637   -2.7574 C   0  0  0  0  0  0  0  0  0  0  0  0
    8.4190    1.7190   -2.7772 C   0  0  0  0  0  0  0  0  0  0  0  0
    7.7336    0.7594   -2.0193 C   0  0  0  0  0  0  0  0  0  0  0  0
   -1.9134    1.8716   -1.8312 C   0  0  0  0  0  0  0  0  0  0  0  0
   -1.6378    2.0658   -3.2006 C   0  0  0  0  0  0  0  0  0  0  0  0
   -2.3677    2.9908   -3.9417 C   0  0  0  0  0  0  0  0  0  0  0  0
   -3.4175    3.6790   -3.3476 C   0  0  0  0  0  0  0  0  0  0  0  0
   -3.7517    3.4446   -2.0211 C   0  0  0  0  0  0  0  0  0  0  0  0
   -2.9742    2.5752   -1.2504 C   0  0  0  0  0  0  0  0  0  0  0  0
   -4.1314    4.6101   -4.0449 O   0  0  0  0  0  0  0  0  0  0  0  0
   -2.0842    3.2379   -5.2565 O   0  0  0  0  0  0  0  0  0  0  0  0
    0.9772    1.8856   -1.8435 C   0  0  0  0  0  0  0  0  0  0  0  0
    1.6077    2.6941   -2.5776 N   0  0  0  0  0  0  0  0  0  0  0  0
  1  2  1  0
  1  4  2  0
  1  5  1  0
  2  3  2  0
  2 24  1  0
  3 16  1  0
  5  6  1  0
  6  7  1  0
  7  8  1  0
  8  9  1  0
  9 10  1  0
 10 11  2  0
 10 15  1  0
 11 12  1  0
 12 13  2  0
 13 14  1  0
 14 15  2  0
 16 17  2  0
 16 21  1  0
 17 18  1  0
 18 19  2  0
 18 23  1  0
 19 20  1  0
 19 22  1  0
 20 21  2  0
 24 25  3  0
M  END
>  <DRUGBANK_ID>  (1) 
DB16775

>  <COMMON_NAME>  (1) 
Tyrphostin B56

>  <CAS_NUMBER>  (1) 
149092-35-3

>  <SYNONYMS>  (1) 
AG 556; AG-556; AG556; Tyrphostin AG-556; Tyrphostin AG556

$$$$
