627
     RDKit          3D

  9  9  0  0  0  0  0  0  0  0999 V2000
    1.0373   -0.2192    0.0503 N   0  0  0  0  0  0  0  0  0  0  0  0
   -0.9072   -0.9666   -0.8334 O   0  0  0  0  0  0  0  0  0  0  0  0
    1.3221   -2.7376   -3.9518 N   0  0  0  0  0  0  0  0  0  0  0  0
    1.0748   -1.8996   -1.6945 C   0  0  0  0  0  0  0  0  0  0  0  0
    2.1621   -2.6669   -1.2749 C   0  0  0  0  0  0  0  0  0  0  0  0
    0.6834   -1.9823   -3.0234 C   0  0  0  0  0  0  0  0  0  0  0  0
    2.8272   -3.4635   -2.2085 C   0  0  0  0  0  0  0  0  0  0  0  0
    2.3796   -3.4599   -3.5223 C   0  0  0  0  0  0  0  0  0  0  0  0
    0.3152   -1.0168   -0.7921 C   0  0  0  0  0  0  0  0  0  0  0  0
  1  9  1  0
  2  9  2  0
  3  6  2  0
  3  8  1  0
  4  5  2  0
  4  6  1  0
  4  9  1  0
  5  7  1  0
  7  8  2  0
M  END
>  <DRUGBANK_ID>  (1) 
DB02701

>  <SECONDARY_ACCESSION_NUMBERS>  (1) 
EXPT02307

>  <COMMON_NAME>  (1) 
Nicotinamide

>  <CAS_NUMBER>  (1) 
98-92-0

>  <UNII>  (1) 
25X51I8RD4

>  <SYNONYMS>  (1) 
3-pyridinecarboxamide; Niacinamide; Nicotinamida; Nicotinamide; Nicotinamidum; Nicotinic acid amide; Nicotinic amide; Î²-pyridinecarboxamide

$$$$
