
     RDKit          3D

 10 10  0  0  0  0  0  0  0  0999 V2000
    1.3776   -0.2121   -0.0029 C   0  0  0  0  0  0  0  0  0  0  0  0
    0.4960   -1.2937    0.0048 C   0  0  0  0  0  0  0  0  0  0  0  0
   -0.8918   -1.0798    0.0028 C   0  0  0  0  0  0  0  0  0  0  0  0
   -1.3729    0.2409   -0.0094 C   0  0  0  0  0  0  0  0  0  0  0  0
   -0.4894    1.3166    0.0205 C   0  0  0  0  0  0  0  0  0  0  0  0
    0.8837    1.0908   -0.0190 C   0  0  0  0  0  0  0  0  0  0  0  0
   -1.8488   -2.2515    0.0862 C   0  0  1  0  0  0  0  0  0  0  0  0
   -2.6781   -2.1878    1.3106 C   0  0  0  0  0  0  0  0  0  0  0  0
   -2.6621   -2.2801   -1.0937 O   0  0  0  0  0  0  0  0  0  0  0  0
   -3.3377   -2.0976    2.2672 N   0  0  0  0  0  0  0  0  0  0  0  0
  1  2  2  0
  2  3  1  0
  3  4  2  0
  4  5  1  0
  6  5  2  0
  6  1  1  0
  7  3  1  0
  7  8  1  0
  7  9  1  6
  8 10  3  0
M  END
>  <DRUGBANK_ID>  (1) 
DB04737

>  <COMMON_NAME>  (1) 
(S)-mandelonitrile

>  <CAS_NUMBER>  (1) 
28549-12-4

>  <UNII>  (1) 
2K9VO6WZ5K

>  <SYNONYMS>  (1) 
(−)-mandelonitrile; (S)-(−)-mandelonitrile; (S)-Benzaldehyde cyanohydrin; l-mandelonitrile

$$$$
