
     RDKit          3D

 31 35  0  0  0  0  0  0  0  0999 V2000
    0.9943   -0.0007   -0.0140 S   0  0  0  0  0  0  0  0  0  0  0  0
    0.9557   -5.0810    0.3419 O   0  0  0  0  0  0  0  0  0  0  0  0
    2.7511    3.8917    1.2371 O   0  0  0  0  0  0  0  0  0  0  0  0
    0.6282    0.7006    1.1945 O   0  0  0  0  0  0  0  0  0  0  0  0
    0.6134    0.5356   -1.3104 O   0  0  0  0  0  0  0  0  0  0  0  0
    7.9267    2.7599    0.0060 O   0  0  0  0  0  0  0  0  0  0  0  0
    0.4317   -1.5740    0.1258 N   0  0  0  0  0  0  0  0  0  0  0  0
    5.6910    4.9198   -0.0379 N   0  0  0  0  0  0  0  0  0  0  0  0
    6.8851    0.6481    0.0025 N   0  0  0  0  0  0  0  0  0  0  0  0
   -0.2449   -4.3247    0.5131 C   0  0  0  0  0  0  0  0  0  0  0  0
    0.8504   -2.2531    1.3646 C   0  0  0  0  0  0  0  0  0  0  0  0
    0.3607   -2.4364   -1.0716 C   0  0  0  0  0  0  0  0  0  0  0  0
   -0.1079   -3.3679    1.6931 C   0  0  0  0  0  0  0  0  0  0  0  0
   -0.6005   -3.5920   -0.7821 C   0  0  0  0  0  0  0  0  0  0  0  0
    3.3782    4.2172   -0.0150 C   0  0  2  0  0  0  0  0  0  0  0  0
    4.9401    3.7561   -0.0025 C   0  0  0  0  0  0  0  0  0  0  0  0
    5.4738    2.5108    0.0477 C   0  0  0  0  0  0  0  0  0  0  0  0
    2.7780   -0.1114    0.0067 C   0  0  0  0  0  0  0  0  0  0  0  0
    3.5265    5.7356    0.0017 C   0  0  0  0  0  0  0  0  0  0  0  0
    4.7175    1.2777    0.0826 C   0  0  0  0  0  0  0  0  0  0  0  0
    4.8935    6.0544    0.0113 C   0  0  0  0  0  0  0  0  0  0  0  0
    3.3711    1.1067    0.1951 C   0  0  0  0  0  0  0  0  0  0  0  0
    5.5629    0.1896    0.0088 C   0  0  0  0  0  0  0  0  0  0  0  0
    2.4962    3.7605   -1.2112 C   0  0  0  0  0  0  0  0  0  0  0  0
    6.9310    2.0601    0.0211 C   0  0  0  0  0  0  0  0  0  0  0  0
    3.6082   -1.2265   -0.0819 C   0  0  0  0  0  0  0  0  0  0  0  0
    5.0234   -1.0889   -0.0276 C   0  0  0  0  0  0  0  0  0  0  0  0
    2.5672    6.7441    0.0265 C   0  0  0  0  0  0  0  0  0  0  0  0
    5.3250    7.3652    0.0172 C   0  0  0  0  0  0  0  0  0  0  0  0
    3.0028    8.0764    0.0367 C   0  0  0  0  0  0  0  0  0  0  0  0
    4.3720    8.3839    0.0284 C   0  0  0  0  0  0  0  0  0  0  0  0
  1  4  2  0
  1  5  2  0
  1  7  1  0
  1 18  1  0
  6 25  2  0
  7 11  1  0
  7 12  1  0
  8 16  1  0
  8 21  1  0
  9 23  1  0
  9 25  1  0
 10  2  1  0
 10 13  1  0
 10 14  1  0
 11 13  1  0
 12 14  1  0
 15 16  1  0
 15 19  1  0
 15 24  1  6
 15  3  1  0
 16 17  2  0
 17 20  1  0
 17 25  1  0
 18 22  2  0
 18 26  1  0
 19 21  2  0
 19 28  1  0
 20 22  1  0
 20 23  2  0
 21 29  1  0
 23 27  1  0
 26 27  2  0
 28 30  2  0
 29 31  2  0
 30 31  1  0
M  END
>  <DRUGBANK_ID>  (1) 
DB03583

>  <SECONDARY_ACCESSION_NUMBERS>  (1) 
EXPT02828

>  <COMMON_NAME>  (1) 
(2E,3S)-3-hydroxy-5'-[(4-hydroxypiperidin-1-yl)sulfonyl]-3-methyl-1,3-dihydro-2,3'-biindol-2'(1'H)-one

$$$$
