298
     RDKit          3D

 24 27  0  0  0  0  0  0  0  0999 V2000
   -1.4109    0.0237    0.2570 N   0  0  0  0  0  0  0  0  0  0  0  0
    1.3415   -0.2542   -0.8956 N   0  0  0  0  0  0  0  0  0  0  0  0
    2.2694    1.7703    1.8611 N   0  0  0  0  0  0  0  0  0  0  0  0
    0.4025    2.7999    2.3501 N   0  0  0  0  0  0  0  0  0  0  0  0
    1.1820    3.6552    1.6032 N   0  0  0  0  0  0  0  0  0  0  0  0
   -0.8382   -1.2449   -0.2435 C   0  0  0  0  0  0  0  0  0  0  0  0
   -0.8492    1.1351   -0.5466 C   0  0  0  0  0  0  0  0  0  0  0  0
   -1.3039    0.2193    1.7359 C   0  0  0  0  0  0  0  0  0  0  0  0
    0.7137   -1.3743   -0.1735 C   0  0  0  0  0  0  0  0  0  0  0  0
    0.6835    1.0572   -0.6260 C   0  0  0  0  0  0  0  0  0  0  0  0
    0.0678    0.3167    2.5800 C   0  0  0  0  0  0  0  0  0  0  0  0
    3.2566    0.8077    1.4212 C   0  0  0  0  0  0  0  0  0  0  0  0
    0.9522    1.5963    2.3816 C   0  0  0  0  0  0  0  0  0  0  0  0
    4.4698    1.4883    0.6684 C   0  0  0  0  0  0  0  0  0  0  0  0
    4.0362    2.4357   -0.4901 C   0  0  0  0  0  0  0  0  0  0  0  0
    3.3186    3.5392    0.2534 C   0  0  0  0  0  0  0  0  0  0  0  0
    2.2777    3.0311    1.2429 C   0  0  0  0  0  0  0  0  0  0  0  0
    2.5426   -0.4185   -1.5878 C   0  0  0  0  0  0  0  0  0  0  0  0
    2.5453   -0.8800   -2.8562 C   0  0  0  0  0  0  0  0  0  0  0  0
    3.8502   -0.4538   -1.0862 C   0  0  0  0  0  0  0  0  0  0  0  0
    3.7443   -0.9855   -3.6373 C   0  0  0  0  0  0  0  0  0  0  0  0
    1.2792   -1.5216   -3.3183 C   0  0  0  0  0  0  0  0  0  0  0  0
    5.0002   -0.1712   -1.8722 C   0  0  0  0  0  0  0  0  0  0  0  0
    4.9596   -0.4775   -3.1632 C   0  0  0  0  0  0  0  0  0  0  0  0
  1  6  1  0
  1  7  1  0
  1  8  1  0
  2  9  1  0
  2 10  1  0
  2 18  1  0
  3 12  1  0
  3 13  1  0
  3 17  1  0
  4  5  1  0
  4 13  2  0
  5 17  2  0
  6  9  1  0
  7 10  1  0
  8 11  1  0
 11 13  1  0
 12 14  1  0
 14 15  1  0
 15 16  1  0
 16 17  1  0
 18 19  2  0
 18 20  1  0
 19 21  1  0
 19 22  1  0
 20 23  2  0
 21 24  2  0
 23 24  1  0
M  END
>  <DRUGBANK_ID>  (1) 
DB00298

>  <SECONDARY_ACCESSION_NUMBERS>  (1) 
APRD00902

>  <COMMON_NAME>  (1) 
Dapiprazole

>  <CAS_NUMBER>  (1) 
72822-12-9

>  <UNII>  (1) 
5RNZ8GJO7K

>  <SYNONYMS>  (1) 
5,6,7,8-Tetrahydro-3-(2-(4-(o-tolyl)-1-piperazinyl)ethyl)-s-triazolo(4,3-a)pyridine; Dapiprazol; Dapiprazole; Dapiprazolum

$$$$
