
     RDKit          3D

 26 28  0  0  0  0  0  0  0  0999 V2000
   -2.3213   -0.0801    0.1804 C   0  0  0  0  0  0  0  0  0  0  0  0
   -0.8670   -0.0051   -0.2130 N   0  0  0  0  0  0  0  0  0  0  0  0
   -0.1220    1.2852    0.2164 C   0  0  0  0  0  0  0  0  0  0  0  0
    1.3231    1.2716   -0.2826 C   0  0  0  0  0  0  0  0  0  0  0  0
    2.0884    0.0226    0.1633 C   0  0  0  0  0  0  0  0  0  0  0  0
    1.3129   -1.2507   -0.1684 C   0  0  0  0  0  0  0  0  0  0  0  0
   -0.1036   -1.2172    0.4342 C   0  0  0  0  0  0  0  0  0  0  0  0
   -0.0086   -1.1344    2.0401 C   0  0  0  0  0  0  0  0  0  0  0  0
   -1.2525   -1.0971    2.7815 O   0  0  0  0  0  0  0  0  0  0  0  0
   -1.9574    0.0832    2.9099 C   0  0  0  0  0  0  0  0  0  0  0  0
   -1.4898    1.1864    2.7274 O   0  0  0  0  0  0  0  0  0  0  0  0
   -3.5255   -0.1705    3.0822 C   0  0  0  0  0  0  0  0  0  0  0  0
   -4.2051   -1.4232    2.4576 C   0  0  0  0  0  0  0  0  0  0  0  0
   -3.5909   -2.6860    2.4990 C   0  0  0  0  0  0  0  0  0  0  0  0
   -4.2955   -3.8593    2.2522 C   0  0  0  0  0  0  0  0  0  0  0  0
   -5.6352   -3.8044    1.9031 C   0  0  0  0  0  0  0  0  0  0  0  0
   -6.2663   -2.5717    1.7854 C   0  0  0  0  0  0  0  0  0  0  0  0
   -5.5515   -1.3903    2.0167 C   0  0  0  0  0  0  0  0  0  0  0  0
   -3.6097   -0.1256    4.5796 C   0  0  0  0  0  0  0  0  0  0  0  0
   -3.5128    1.1206    5.2107 C   0  0  0  0  0  0  0  0  0  0  0  0
   -3.4049    1.1761    6.5845 C   0  0  0  0  0  0  0  0  0  0  0  0
   -3.4027   -0.0060    7.3251 C   0  0  0  0  0  0  0  0  0  0  0  0
   -3.4503   -1.2454    6.7015 C   0  0  0  0  0  0  0  0  0  0  0  0
   -3.4834   -1.3008    5.3296 C   0  0  0  0  0  0  0  0  0  0  0  0
   -4.2327    0.9395    2.4862 O   0  0  0  0  0  0  0  0  0  0  0  0
   -1.0601   -0.0257   -1.7213 C   0  0  0  0  0  0  0  0  0  0  0  0
  1  2  1  0
  2  3  1  0
  2  7  1  0
  2 26  1  0
  3  4  1  0
  4  5  1  0
  5  6  1  0
  6  7  1  0
  7  8  1  0
  8  9  1  0
  9 10  1  0
 10 11  2  0
 10 12  1  0
 12 13  1  0
 12 19  1  0
 12 25  1  0
 13 14  2  0
 13 18  1  0
 14 15  1  0
 15 16  2  0
 16 17  1  0
 17 18  2  0
 19 20  2  0
 19 24  1  0
 20 21  1  0
 21 22  2  0
 22 23  1  0
 23 24  2  0
M  CHG  1   2   1
M  END
>  <DRUGBANK_ID>  (1) 
DB13542

>  <COMMON_NAME>  (1) 
Bevonium

>  <CAS_NUMBER>  (1) 
33371-53-8

>  <UNII>  (1) 
34B0471E08

$$$$
