
     RDKit          3D

 23 19  0  0  0  0  0  0  0  0999 V2000
    0.9801   -0.0120    0.0180 C   0  0  0  0  0  0  0  0  0  0  0  0
    0.8126    0.8762    1.2385 C   0  0  0  0  0  0  0  0  0  0  0  0
   -1.0301    0.4629   -1.4382 C   0  0  0  0  0  0  0  0  0  0  0  0
    0.7888    1.9127   -1.9446 C   0  0  0  0  0  0  0  0  0  0  0  0
    0.6507    3.1775    1.9251 C   0  0  0  0  0  0  0  0  0  0  0  0
    2.8310    2.4625    1.1565 C   0  0  0  0  0  0  0  0  0  0  0  0
   -2.0483    1.3332   -0.5276 C   0  0  0  0  0  0  0  0  0  0  0  0
    0.5635    3.2459   -1.1958 C   0  0  0  0  0  0  0  0  0  0  0  0
    0.8488    2.9301    3.4567 C   0  0  0  0  0  0  0  0  0  0  0  0
    3.4881    1.6887    2.2630 C   0  0  0  0  0  0  0  0  0  0  0  0
    0.5271    0.5618   -1.2929 N   0  0  0  0  0  0  0  0  0  0  0  0
    1.4042    2.1727    1.0446 N   0  0  0  0  0  0  0  0  0  0  0  0
   -2.9433    1.9444   -1.1609 O   0  0  0  0  0  0  0  0  0  0  0  0
   -2.1046    0.8891    0.6698 O   0  0  0  0  0  0  0  0  0  0  0  0
    1.7295    3.8266   -1.1671 O   0  0  0  0  0  0  0  0  0  0  0  0
   -0.5330    3.5013   -0.7693 O   0  0  0  0  0  0  0  0  0  0  0  0
    1.1915    3.9417    4.1246 O   0  0  0  0  0  0  0  0  0  0  0  0
    0.6785    1.7137    3.8369 O   0  0  0  0  0  0  0  0  0  0  0  0
    3.6020    0.4445    1.9043 O   0  0  0  0  0  0  0  0  0  0  0  0
    3.8298    2.2326    3.3128 O   0  0  0  0  0  0  0  0  0  0  0  0
    2.9101    1.1412   -1.1609 Cu  0  0  0  0  0 15  0  0  0  0  0  0
    2.4298   -0.6050    3.3001 Na  0  0  0  0  0 15  0  0  0  0  0  0
   -1.7300   -0.9179    1.0586 Na  0  0  0  0  0 15  0  0  0  0  0  0
  2  1  1  0
  7  3  1  0
  8  4  1  0
  9  5  1  0
 10  6  1  0
 11  1  1  0
 11  3  1  0
 11  4  1  0
 12  2  1  0
 12  5  1  0
 12  6  1  0
 13  7  2  0
 14  7  1  0
 15  8  2  0
 16  8  1  0
 17  9  2  0
 18  9  1  0
 19 10  2  0
 20 10  1  0
M  CHG  7  14  -1  16  -1  18  -1  20  -1  21   2  22   1  23   1
M  END
>  <DRUGBANK_ID>  (1) 
DB14599

>  <SECONDARY_ACCESSION_NUMBERS>  (1) 
DBSALT001713

>  <COMMON_NAME>  (1) 
Edetate copper disodium

>  <CAS_NUMBER>  (1) 
14025-15-1

>  <UNII>  (1) 
6V475AX06U

>  <SYNONYMS>  (1) 
Copper disodium edetate; Copper disodium ethylenediaminetetraacetate; Copper versenate; EDTA copper disodium salt

$$$$
