
     RDKit          3D

 31 34  0  0  1  0  0  0  0  0999 V2000
    4.7256    3.8823    1.4201 C   0  0  0  0  0  0  0  0  0  0  0  0
    4.4353    2.8843    2.5518 C   0  0  0  0  0  0  0  0  0  0  0  0
    3.0612    2.5435    2.6938 O   0  0  0  0  0  0  0  0  0  0  0  0
    2.5754    1.6502    1.7013 C   0  0  1  0  0  0  0  0  0  0  0  0
    3.0072    2.0418    0.3283 C   0  0  0  0  0  0  0  0  0  0  0  0
    2.5659    1.1538   -0.7513 C   0  0  0  0  0  0  0  0  0  0  0  0
    3.0036   -0.2016   -0.5422 N   0  0  0  0  0  0  0  0  0  0  0  0
    2.8670   -0.9734   -1.8161 C   0  0  0  0  0  0  0  0  0  0  0  0
    1.4709   -1.1559   -2.4402 C   0  0  0  0  0  0  0  0  0  0  0  0
    0.6186   -0.0277   -2.7015 C   0  0  0  0  0  0  0  0  0  0  0  0
    1.1760    1.2204   -2.8611 O   0  0  0  0  0  0  0  0  0  0  0  0
    0.3788    2.3959   -2.6422 C   0  0  0  0  0  0  0  0  0  0  0  0
   -0.7551   -0.1841   -2.7607 C   0  0  0  0  0  0  0  0  0  0  0  0
   -1.3451   -1.4493   -2.8341 C   0  0  0  0  0  0  0  0  0  0  0  0
   -2.8388   -1.5260   -2.7683 C   0  0  0  0  0  0  0  0  0  0  0  0
   -0.5001   -2.5832   -2.7179 C   0  0  0  0  0  0  0  0  0  0  0  0
    0.8831   -2.4738   -2.5186 C   0  0  0  0  0  0  0  0  0  0  0  0
    1.3319   -3.7828   -2.0675 C   0  0  0  0  0  0  0  0  0  0  0  0
    0.2266   -4.5920   -1.9206 C   0  0  0  0  0  0  0  0  0  0  0  0
   -0.8570   -3.8985   -2.4023 N   0  0  0  0  0  0  0  0  0  0  0  0
    2.5024   -0.7075    0.7724 C   0  0  1  0  0  0  0  0  0  0  0  0
    2.9912    0.1879    1.9342 C   0  0  0  0  0  0  0  0  0  0  0  0
    0.9854   -0.8225    0.9332 C   0  0  0  0  0  0  0  0  0  0  0  0
    0.3766   -1.8431    0.2784 C   0  0  0  0  0  0  0  0  0  0  0  0
   -1.0133   -1.9653    0.1777 C   0  0  0  0  0  0  0  0  0  0  0  0
   -1.8737   -1.1010    0.8087 C   0  0  0  0  0  0  0  0  0  0  0  0
   -1.2757   -0.2378    1.6964 C   0  0  0  0  0  0  0  0  0  0  0  0
    0.1181   -0.1068    1.7543 C   0  0  0  0  0  0  0  0  0  0  0  0
   -3.3571   -1.2698    0.6172 C   0  0  0  0  0  0  0  0  0  0  0  0
   -4.0954   -0.3372    1.2634 O   0  0  0  0  0  0  0  0  0  0  0  0
   -3.8808   -2.1281   -0.0294 O   0  0  0  0  0  0  0  0  0  0  0  0
  1  2  1  0
  2  3  1  0
  4  5  1  0
  4 22  1  0
  4  3  1  1
  5  6  1  0
  6  7  1  0
  7  8  1  0
  8  9  1  0
  9 10  2  0
  9 17  1  0
 10 11  1  0
 10 13  1  0
 11 12  1  0
 13 14  2  0
 14 15  1  0
 14 16  1  0
 16 17  2  0
 16 20  1  0
 17 18  1  0
 18 19  2  0
 19 20  1  0
 21  7  1  0
 21 22  1  0
 21 23  1  6
 23 24  2  0
 23 28  1  0
 24 25  1  0
 25 26  2  0
 26 27  1  0
 26 29  1  0
 27 28  2  0
 29 30  1  0
 29 31  2  0
M  END
>  <DRUGBANK_ID>  (1) 
DB16200

>  <COMMON_NAME>  (1) 
Iptacopan

>  <CAS_NUMBER>  (1) 
1644670-37-0

>  <UNII>  (1) 
8E05T07Z6W

>  <SYNONYMS>  (1) 
4-((2S,4S)-4-ethoxy-1-((5-methoxy-7-methyl-1H-indol-4-yl)methyl)piperidin-2-yl) benzoic acid; BENZOIC ACID, 4-((2S,4S)-4-ETHOXY-1-((5-METHOXY-7-METHYL-1H-INDOL-4-YL)METHYL)-2-PIPERIDINYL)-; Iptacopan

$$$$
