
     RDKit          3D

 34 37  0  0  0  0  0  0  0  0999 V2000
    0.0480    0.7094   -0.8678 C   0  0  2  0  0  0  0  0  0  0  0  0
   -0.5989   -0.5064   -0.4161 N   0  0  0  0  0  0  0  0  0  0  0  0
   -0.0197   -1.7250   -0.2313 C   0  0  0  0  0  0  0  0  0  0  0  0
    1.3358   -1.7809   -0.1167 C   0  0  0  0  0  0  0  0  0  0  0  0
    2.2667   -0.5783   -0.3950 C   0  0  0  0  0  0  0  0  0  0  0  0
    1.5686    1.0901   -0.1200 S   0  0  0  0  0  0  0  0  0  0  0  0
   -1.1966    1.4613   -0.4635 C   0  0  1  0  0  0  0  0  0  0  0  0
   -1.7291    0.0835    0.0498 C   0  0  0  0  0  0  0  0  0  0  0  0
   -1.3835    2.6932    0.2915 N   0  0  0  0  0  0  0  0  0  0  0  0
   -2.1505    3.7870   -0.1530 C   0  0  0  0  0  0  0  0  0  0  0  0
   -2.1644    4.7632    0.5939 O   0  0  0  0  0  0  0  0  0  0  0  0
   -2.6639   -0.4143    0.6100 O   0  0  0  0  0  0  0  0  0  0  0  0
   -2.8925    3.8020   -1.5827 C   0  0  0  0  0  0  0  0  0  0  0  0
    2.1022   -3.0246    0.3413 C   0  0  0  0  0  0  0  0  0  0  0  0
   -2.9918    2.6346   -2.5053 C   0  0  0  0  0  0  0  0  0  0  0  0
   -2.5386    2.6481   -3.8179 C   0  0  0  0  0  0  0  0  0  0  0  0
   -2.4686    1.0514   -4.4562 S   0  0  0  0  0  0  0  0  0  0  0  0
   -3.0203    0.4305   -2.9587 C   0  0  0  0  0  0  0  0  0  0  0  0
   -3.3667    1.3438   -2.0773 N   0  0  0  0  0  0  0  0  0  0  0  0
   -3.4299    4.8793   -2.0997 N   0  0  0  0  0  0  0  0  0  0  0  0
   -0.8748   -2.9951   -0.1702 C   0  0  0  0  0  0  0  0  0  0  0  0
   -2.2035   -2.8413   -0.3387 O   0  0  0  0  0  0  0  0  0  0  0  0
   -0.4110   -4.1252   -0.1482 O   0  0  0  0  0  0  0  0  0  0  0  0
    1.6393   -3.8253    1.9038 S   0  0  0  0  0  0  0  0  0  0  0  0
    1.7798   -2.8130    3.3337 C   0  0  0  0  0  0  0  0  0  0  0  0
    2.3958   -1.5289    3.2045 C   0  0  0  0  0  0  0  0  0  0  0  0
    1.9387   -0.4230    2.5429 C   0  0  0  0  0  0  0  0  0  0  0  0
    3.5113   -1.1707    3.9210 O   0  0  0  0  0  0  0  0  0  0  0  0
    3.8464    0.0882    3.5243 C   0  0  0  0  0  0  0  0  0  0  0  0
    2.9755    0.5315    2.5723 C   0  0  0  0  0  0  0  0  0  0  0  0
   -2.9498   -0.8801   -2.6661 N   0  0  0  0  0  0  0  0  0  0  0  0
    1.2836   -3.2072    4.3830 O   0  0  0  0  0  0  0  0  0  0  0  0
   -3.3822    5.9878   -1.2492 O   0  0  0  0  0  0  0  0  0  0  0  0
   -4.1097    7.0683   -1.8240 C   0  0  0  0  0  0  0  0  0  0  0  0
  1  2  1  0
  1  6  1  1
  1  7  1  0
  2  3  1  0
  2  8  1  0
  3  4  2  0
  3 21  1  0
  4  5  1  0
  4 14  1  0
  5  6  1  0
  7  8  1  0
  7  9  1  1
  8 12  2  0
  9 10  1  0
 10 11  2  0
 10 13  1  0
 13 15  1  0
 13 20  2  0
 14 24  1  0
 15 16  2  0
 15 19  1  0
 16 17  1  0
 17 18  1  0
 18 19  2  0
 18 31  1  0
 20 33  1  0
 21 22  1  0
 21 23  2  0
 24 25  1  0
 25 26  1  0
 25 32  2  0
 26 27  2  0
 26 28  1  0
 27 30  1  0
 28 29  1  0
 29 30  2  0
 33 34  1  0
M  END
>  <DRUGBANK_ID>  (1) 
DB11485

>  <COMMON_NAME>  (1) 
Ceftiofur

>  <CAS_NUMBER>  (1) 
80370-57-6

>  <UNII>  (1) 
83JL932I1C

>  <SYNONYMS>  (1) 
Ceftiofur; Ceftiofur crystalline free acid

$$$$
