
     RDKit          3D

 11 11  0  0  0  0  0  0  0  0999 V2000
   -0.6018   -1.2491   -0.0427 C   0  0  0  0  0  0  0  0  0  0  0  0
   -1.3267   -0.0506   -0.0212 C   0  0  0  0  0  0  0  0  0  0  0  0
    0.8029   -1.2255   -0.0293 C   0  0  0  0  0  0  0  0  0  0  0  0
   -1.2820   -2.5452   -0.0860 N   0  0  0  0  0  0  0  0  0  0  0  0
   -0.6425    1.1646   -0.0357 C   0  0  0  0  0  0  0  0  0  0  0  0
   -2.6906    0.0491    0.0248 O   0  0  0  0  0  0  0  0  0  0  0  0
    1.4872   -0.0035   -0.0052 C   0  0  0  0  0  0  0  0  0  0  0  0
   -2.5232   -2.5413   -0.0855 O   0  0  0  0  0  0  0  0  0  0  0  0
   -0.5854   -3.5703   -0.1221 O   0  0  0  0  0  0  0  0  0  0  0  0
    0.7546    1.1895   -0.0310 C   0  0  0  0  0  0  0  0  0  0  0  0
    2.9854    0.0336    0.0681 C   0  0  0  0  0  0  0  0  0  0  0  0
  1  2  2  0
  1  3  1  0
  1  4  1  0
  2  5  1  0
  2  6  1  0
  3  7  2  0
  4  8  2  0
  4  9  1  0
  5 10  2  0
  7 11  1  0
  7 10  1  0
M  CHG  2   4   1   9  -1
M  END
>  <DRUGBANK_ID>  (1) 
DB04110

>  <SECONDARY_ACCESSION_NUMBERS>  (1) 
EXPT02314

>  <COMMON_NAME>  (1) 
2-Nitro-4-cresol

>  <CAS_NUMBER>  (1) 
119-33-5

>  <UNII>  (1) 
P92KPK2NL3

>  <SYNONYMS>  (1) 
2-Nitro-4-methylphenol; 2-Nitro-P-cresol; o-Nitro-p-cresol

$$$$
