
     RDKit          3D

 32 34  0  0  0  0  0  0  0  0999 V2000
   -1.1707    0.6936    0.0090 C   0  0  0  0  0  0  0  0  0  0  0  0
    0.2431    1.0845    0.0387 N   0  0  0  0  0  0  0  0  0  0  0  0
    1.1031   -0.0411   -0.0055 C   0  0  0  0  0  0  0  0  0  0  0  0
    0.3040   -1.1774   -0.0541 N   0  0  0  0  0  0  0  0  0  0  0  0
   -1.0356   -0.8421   -0.0277 C   0  0  0  0  0  0  0  0  0  0  0  0
    0.7614   -2.5205   -0.0972 C   0  0  0  0  0  0  0  0  0  0  0  0
    0.4039   -3.3578   -1.1583 C   0  0  0  0  0  0  0  0  0  0  0  0
    1.6073   -3.0276    0.8992 C   0  0  0  0  0  0  0  0  0  0  0  0
    2.0850   -4.3590    0.8593 C   0  0  0  0  0  0  0  0  0  0  0  0
    1.6922   -5.1927   -0.1979 C   0  0  0  0  0  0  0  0  0  0  0  0
    0.8775   -4.6769   -1.2154 C   0  0  0  0  0  0  0  0  0  0  0  0
   -1.9891   -1.6134   -0.0112 O   0  0  0  0  0  0  0  0  0  0  0  0
    2.0636   -6.5831   -0.2422 C   0  0  0  0  0  0  0  0  0  0  0  0
    2.3460   -7.7054   -0.2351 N   0  0  0  0  0  0  0  0  0  0  0  0
    2.9992   -4.8256    1.9673 C   0  0  0  0  0  0  0  0  0  0  0  0
    4.1217   -4.0612    2.0521 F   0  0  0  0  0  0  0  0  0  0  0  0
    2.3956   -4.7466    3.1840 F   0  0  0  0  0  0  0  0  0  0  0  0
    3.4403   -6.1030    1.8578 F   0  0  0  0  0  0  0  0  0  0  0  0
    2.7810    0.0003    0.0089 S   0  0  0  0  0  0  0  0  0  0  0  0
   -1.8932    1.1287   -1.2715 C   0  0  0  0  0  0  0  0  0  0  0  0
   -1.9570    1.1268    1.2452 C   0  0  0  0  0  0  0  0  0  0  0  0
    0.6638    2.4399    0.0170 C   0  0  0  0  0  0  0  0  0  0  0  0
    1.4721    2.9256   -1.0096 C   0  0  0  0  0  0  0  0  0  0  0  0
    1.9053    4.2562   -0.9998 C   0  0  0  0  0  0  0  0  0  0  0  0
    1.5538    5.1376    0.0328 C   0  0  0  0  0  0  0  0  0  0  0  0
    0.7582    4.6397    1.0697 C   0  0  0  0  0  0  0  0  0  0  0  0
    0.3222    3.3075    1.0573 C   0  0  0  0  0  0  0  0  0  0  0  0
    2.0346    6.5537   -0.0099 C   0  0  0  0  0  0  0  0  0  0  0  0
    1.6773    7.4066    1.0242 N   0  0  0  0  0  0  0  0  0  0  0  0
    2.1083    8.7883    1.0356 C   0  0  0  0  0  0  0  0  0  0  0  0
    2.7215    6.9414   -0.9483 O   0  0  0  0  0  0  0  0  0  0  0  0
    2.6707    4.6486   -2.0283 F   0  0  0  0  0  0  0  0  0  0  0  0
  1  2  1  0
  1  5  1  0
  1 20  1  0
  1 21  1  0
  2  3  1  0
  2 22  1  0
  3  4  1  0
  3 19  2  0
  4  5  1  0
  4  6  1  0
  5 12  2  0
  6  8  1  0
  7  6  2  0
  7 11  1  0
  8  9  2  0
  9 10  1  0
  9 15  1  0
 10 11  2  0
 10 13  1  0
 13 14  3  0
 15 16  1  0
 15 17  1  0
 15 18  1  0
 22 23  2  0
 22 27  1  0
 23 24  1  0
 24 25  2  0
 24 32  1  0
 25 26  1  0
 25 28  1  0
 26 27  2  0
 28 29  1  0
 28 31  2  0
 29 30  1  0
M  END
>  <DRUGBANK_ID>  (1) 
DB08899

>  <SECONDARY_ACCESSION_NUMBERS>  (1) 
DB05094

>  <COMMON_NAME>  (1) 
Enzalutamide

>  <CAS_NUMBER>  (1) 
915087-33-1

>  <UNII>  (1) 
93T0T9GKNU

>  <SYNONYMS>  (1) 
Enzalutamida; Enzalutamide

$$$$
