
     RDKit          3D

 16 17  0  0  0  0  0  0  0  0999 V2000
    0.9203   -0.0806    0.0895 C   0  0  0  0  0  0  0  0  0  0  0  0
    0.4247   -0.7237    1.3722 C   0  0  0  0  0  0  0  0  0  0  0  0
   -0.9247   -0.6758    3.5517 C   0  0  0  0  0  0  0  0  0  0  0  0
    0.4935    1.2663   -0.0487 O   0  0  0  0  0  0  0  0  0  0  0  0
    0.8561   -2.1622    1.5191 C   0  0  0  0  0  0  0  0  0  0  0  0
   -0.3937    0.0277    4.7002 N   0  0  0  0  0  0  0  0  0  0  0  0
   -2.2778    2.4511    6.7459 C   0  0  0  0  0  0  0  0  0  0  0  0
   -1.2355    1.9834    5.9556 C   0  0  0  0  0  0  0  0  0  0  0  0
   -0.3174    2.9936    5.7304 N   0  0  0  0  0  0  0  0  0  0  0  0
   -1.9979    3.7644    6.9680 N   0  0  0  0  0  0  0  0  0  0  0  0
   -0.8182    4.0515    6.3409 C   0  0  0  0  0  0  0  0  0  0  0  0
   -3.3510    1.7787    7.1790 N   0  0  0  0  0  0  0  0  0  0  0  0
   -3.3340    0.5140    6.7200 C   0  0  0  0  0  0  0  0  0  0  0  0
   -1.3373    0.6500    5.5094 C   0  0  0  0  0  0  0  0  0  0  0  0
   -0.3448   -0.0940    2.2892 C   0  0  0  0  0  0  0  0  0  0  0  0
   -2.4245   -0.0657    5.9098 N   0  0  0  0  0  0  0  0  0  0  0  0
  2  1  1  0
  3 15  1  0
  4  1  1  0
  5  2  1  0
  6  3  1  0
  8  7  2  0
  9  8  1  0
 10  7  1  0
 11  9  2  0
 11 10  1  0
 12  7  1  0
 13 12  2  0
 13 16  1  0
 14  6  1  0
 14  8  1  0
 14 16  2  0
 15  2  2  0
M  END
>  <DRUGBANK_ID>  (1) 
DB11337

>  <COMMON_NAME>  (1) 
Zeatin

>  <CAS_NUMBER>  (1) 
1637-39-4

>  <UNII>  (1) 
7I6OOJ9GR6

>  <SYNONYMS>  (1) 
(E)-2-methyl-4-(1H-purin-6-ylamino)-2-buten-1-ol; (E)-2-methyl-4-(1H-purin-6-ylamino)but-2-en-1-ol; (E)-2-methyl-4-(purin-6-ylamino)-2-buten-1-ol; (E)-zeatin; N6-(4-Hydroxyisopentenyl)adenine; trans-Zeatin

$$$$
