
     RDKit          3D

 20 22  0  0  0  0  0  0  0  0999 V2000
    3.2279   -1.4084   -0.0104 O   0  0  0  0  0  0  0  0  0  0  0  0
    1.9595   -0.8952    0.0076 C   0  0  0  0  0  0  0  0  0  0  0  0
    0.8454   -1.7267    0.0297 C   0  0  0  0  0  0  0  0  0  0  0  0
   -0.4270   -1.1527    0.0225 C   0  0  0  0  0  0  0  0  0  0  0  0
   -0.5806    0.2387    0.0163 C   0  0  0  0  0  0  0  0  0  0  0  0
   -1.9446    0.7821   -0.0045 C   0  0  0  0  0  0  0  0  0  0  0  0
   -2.1558    1.9924    0.0129 O   0  0  0  0  0  0  0  0  0  0  0  0
   -3.0466   -0.1833   -0.0618 C   0  0  0  0  0  0  0  0  0  0  0  0
   -2.7610   -1.4931   -0.0685 C   0  0  0  0  0  0  0  0  0  0  0  0
   -1.4901   -2.0252    0.0133 O   0  0  0  0  0  0  0  0  0  0  0  0
   -3.8530   -2.4732   -0.1032 C   0  0  0  0  0  0  0  0  0  0  0  0
   -4.0236   -3.3777    0.9518 C   0  0  0  0  0  0  0  0  0  0  0  0
   -5.1414   -4.2140    0.9865 C   0  0  0  0  0  0  0  0  0  0  0  0
   -6.0978   -4.1445   -0.0260 C   0  0  0  0  0  0  0  0  0  0  0  0
   -5.9319   -3.2515   -1.0825 C   0  0  0  0  0  0  0  0  0  0  0  0
   -4.7922   -2.4504   -1.1441 C   0  0  0  0  0  0  0  0  0  0  0  0
    0.5434    1.0727    0.0144 C   0  0  0  0  0  0  0  0  0  0  0  0
    0.4464    2.4400    0.0230 O   0  0  0  0  0  0  0  0  0  0  0  0
    1.8123    0.4951   -0.0017 C   0  0  0  0  0  0  0  0  0  0  0  0
    2.9292    1.2865   -0.0331 O   0  0  0  0  0  0  0  0  0  0  0  0
  1  2  1  0
  2  3  2  0
  2 19  1  0
  3  4  1  0
  4  5  2  0
  4 10  1  0
  5  6  1  0
  5 17  1  0
  6  7  2  0
  6  8  1  0
  8  9  2  0
  9 10  1  0
  9 11  1  0
 11 12  2  0
 11 16  1  0
 12 13  1  0
 13 14  2  0
 14 15  1  0
 15 16  2  0
 17 18  1  0
 17 19  2  0
 19 20  1  0
M  END
>  <DRUGBANK_ID>  (1) 
DB16101

>  <COMMON_NAME>  (1) 
Baicalein

>  <CAS_NUMBER>  (1) 
491-67-8

>  <UNII>  (1) 
49QAH60606

>  <SYNONYMS>  (1) 
Noroxylin

$$$$
