
     RDKit          3D

 35 38  0  0  0  0  0  0  0  0999 V2000
    0.9627    0.0612    0.1239 C   0  0  0  0  0  0  0  0  0  0  0  0
    0.4327   -0.2087    1.4428 N   0  0  0  0  0  0  0  0  0  0  0  0
   -0.3108    0.7676    2.0658 C   0  0  0  0  0  0  0  0  0  0  0  0
   -1.2606    1.3670    1.3427 N   0  0  0  0  0  0  0  0  0  0  0  0
   -2.0291    2.2906    1.9256 C   0  0  0  0  0  0  0  0  0  0  0  0
   -3.0516    2.8828    1.2013 C   0  0  0  0  0  0  0  0  0  0  0  0
   -3.8874    3.9212    1.6913 C   0  0  0  0  0  0  0  0  0  0  0  0
   -3.6609    4.3872    2.9982 C   0  0  0  0  0  0  0  0  0  0  0  0
   -2.6378    3.7598    3.7340 C   0  0  0  0  0  0  0  0  0  0  0  0
   -1.8589    2.6916    3.2361 C   0  0  0  0  0  0  0  0  0  0  0  0
   -0.9022    1.9698    3.9526 C   0  0  0  0  0  0  0  0  0  0  0  0
   -0.1172    1.0180    3.3670 N   0  0  0  0  0  0  0  0  0  0  0  0
   -0.6475    2.2012    5.3956 C   0  0  0  0  0  0  0  0  0  0  0  0
   -1.6090    2.2090    6.3986 C   0  0  0  0  0  0  0  0  0  0  0  0
   -1.2436    2.4327    7.7375 C   0  0  0  0  0  0  0  0  0  0  0  0
    0.0890    2.7060    8.0946 C   0  0  0  0  0  0  0  0  0  0  0  0
    1.0714    2.6945    7.1090 C   0  0  0  0  0  0  0  0  0  0  0  0
    0.6610    2.3946    5.8122 C   0  0  0  0  0  0  0  0  0  0  0  0
    2.4372    2.8941    7.4266 N   0  0  0  0  0  0  0  0  0  0  0  0
    3.5550    2.9509    6.5915 C   0  0  0  0  0  0  0  0  0  0  0  0
    4.6831    2.8412    7.0704 O   0  0  0  0  0  0  0  0  0  0  0  0
    3.4333    3.1673    5.1139 C   0  0  0  0  0  0  0  0  0  0  0  0
    2.5694    4.1553    4.6047 C   0  0  0  0  0  0  0  0  0  0  0  0
    2.1897    4.1427    3.2494 C   0  0  0  0  0  0  0  0  0  0  0  0
    2.8203    3.2800    2.3485 C   0  0  0  0  0  0  0  0  0  0  0  0
    3.8037    2.3998    2.8389 C   0  0  0  0  0  0  0  0  0  0  0  0
    4.0517    2.2832    4.2206 C   0  0  0  0  0  0  0  0  0  0  0  0
    2.4836    3.2355    0.8835 C   0  0  0  0  0  0  0  0  0  0  0  0
    3.1009    2.5634    0.0897 O   0  0  0  0  0  0  0  0  0  0  0  0
    1.4170    4.0334    0.5779 O   0  0  0  0  0  0  0  0  0  0  0  0
    1.0855    4.0605   -0.8200 C   0  0  0  0  0  0  0  0  0  0  0  0
   -4.1975    5.3368    3.8276 O   0  0  0  0  0  0  0  0  0  0  0  0
   -5.2566    6.1545    3.4221 C   0  0  0  0  0  0  0  0  0  0  0  0
   -4.7637    4.2346    0.6814 O   0  0  0  0  0  0  0  0  0  0  0  0
   -5.7073    5.2540    0.8465 C   0  0  0  0  0  0  0  0  0  0  0  0
  1  2  1  0
  2  3  1  0
  3  4  2  0
  3 12  1  0
  4  5  1  0
  5  6  2  0
  5 10  1  0
  6  7  1  0
  7  8  2  0
  7 34  1  0
  8  9  1  0
  8 32  1  0
  9 10  2  0
 10 11  1  0
 11 12  2  0
 11 13  1  0
 13 14  2  0
 13 18  1  0
 14 15  1  0
 15 16  2  0
 16 17  1  0
 17 18  2  0
 17 19  1  0
 19 20  1  0
 20 21  2  0
 20 22  1  0
 22 23  2  0
 22 27  1  0
 23 24  1  0
 24 25  2  0
 25 26  1  0
 25 28  1  0
 26 27  2  0
 28 29  2  0
 28 30  1  0
 30 31  1  0
 32 33  1  0
 34 35  1  0
M  END
>  <DRUGBANK_ID>  (1) 
DB12776

>  <COMMON_NAME>  (1) 
E-6005

>  <CAS_NUMBER>  (1) 
947620-48-6

>  <UNII>  (1) 
TO043KKB9C

$$$$
