
     RDKit          3D

 17 18  0  0  1  0  0  0  0  0999 V2000
    1.0898    1.4513   -1.6430 O   0  0  0  0  0  0  0  0  0  0  0  0
    2.3523    0.1742    0.3448 O   0  0  0  0  0  0  0  0  0  0  0  0
   -3.1453   -3.2795   -0.0920 O   0  0  0  0  0  0  0  0  0  0  0  0
   -1.2572   -7.2461   -1.3367 N   0  0  0  0  0  0  0  0  0  0  0  0
    0.0271   -5.6322   -0.3077 N   0  0  0  0  0  0  0  0  0  0  0  0
    1.4227   -4.1092    0.8877 N   0  0  0  0  0  0  0  0  0  0  0  0
   -0.5884   -2.1328    0.1496 N   0  0  0  0  0  0  0  0  0  0  0  0
   -2.2653   -5.2787   -0.7779 N   0  0  0  0  0  0  0  0  0  0  0  0
    0.5418    0.1664   -1.3028 C   0  0  2  0  0  0  0  0  0  0  0  0
    0.9984   -0.2562    0.1476 C   0  0  1  0  0  0  0  0  0  0  0  0
    1.0159   -0.7909   -2.4033 C   0  0  0  0  0  0  0  0  0  0  0  0
    0.8468   -1.7948    0.2945 C   0  0  1  0  0  0  0  0  0  0  0  0
    1.4598   -2.6760    1.3890 C   0  0  0  0  0  0  0  0  0  0  0  0
   -1.1920   -6.0082   -0.7973 C   0  0  0  0  0  0  0  0  0  0  0  0
    0.3221   -4.4193    0.2683 C   0  0  0  0  0  0  0  0  0  0  0  0
   -2.1620   -4.0010   -0.2535 C   0  0  0  0  0  0  0  0  0  0  0  0
   -0.7978   -3.4146    0.1006 C   0  0  0  0  0  0  0  0  0  0  0  0
  3 16  2  0
  4 14  1  0
  5 14  1  0
  5 15  1  0
  6 13  1  0
  6 15  2  0
  7 12  1  0
  7 17  2  0
  8 14  2  0
  8 16  1  0
  9 11  1  6
  9 10  1  0
  9  1  1  0
 10 12  1  0
 10  2  1  6
 12 13  1  1
 15 17  1  0
 16 17  1  0
M  END
>  <DRUGBANK_ID>  (1) 
DB02562

>  <SECONDARY_ACCESSION_NUMBERS>  (1) 
EXPT01676

>  <COMMON_NAME>  (1) 
Quinonoid 7,8-Tetrahydrobiopterin

>  <CAS_NUMBER>  (1) 
79647-29-3

$$$$
