E4H
     RDKit          3D

 21 21  0  0  0  0  0  0  0  0999 V2000
    1.1206    0.1285    0.0765 C   0  0  0  0  0  0  0  0  0  0  0  0
    0.5931   -1.1195   -0.6441 C   0  0  1  0  0  0  0  0  0  0  0  0
    1.5096   -1.4378   -1.8744 C   0  0  0  0  0  0  0  0  0  0  0  0
    0.8273   -1.4028   -3.2668 C   0  0  1  0  0  0  0  0  0  0  0  0
    0.3311   -0.0058   -3.5719 C   0  0  0  0  0  0  0  0  0  0  0  0
    1.7340   -1.9778   -4.3671 C   0  0  0  0  0  0  0  0  0  0  0  0
    2.0892   -1.3591   -5.3488 O   0  0  0  0  0  0  0  0  0  0  0  0
    2.2437   -3.3657   -4.1787 C   0  0  0  0  0  0  0  0  0  0  0  0
    1.5238   -4.3613   -3.6341 C   0  0  0  0  0  0  0  0  0  0  0  0
    2.1084   -5.6332   -3.0602 C   0  0  1  0  0  0  0  0  0  0  0  0
    3.5547   -5.3384   -2.6905 C   0  0  0  0  0  0  0  0  0  0  0  0
    1.3375   -6.3143   -1.8341 C   0  0  1  0  0  0  0  0  0  0  0  0
    2.2478   -6.9592   -0.7517 C   0  0  0  0  0  0  0  0  0  0  0  0
    3.1929   -6.0126    0.0161 C   0  0  0  0  0  0  0  0  0  0  0  0
    0.2876   -5.4372   -1.3237 O   0  0  0  0  0  0  0  0  0  0  0  0
    0.2241   -4.8756   -0.0806 C   0  0  0  0  0  0  0  0  0  0  0  0
    0.6967   -5.3389    0.9365 O   0  0  0  0  0  0  0  0  0  0  0  0
   -0.4597   -3.5070   -0.1208 C   0  0  2  0  0  0  0  0  0  0  0  0
   -1.0434   -3.2606   -1.4957 C   0  0  0  0  0  0  0  0  0  0  0  0
    0.4698   -2.3244    0.3433 C   0  0  1  0  0  0  0  0  0  0  0  0
    1.7926   -2.6862    0.7293 O   0  0  0  0  0  0  0  0  0  0  0  0
  2  1  1  1
  2  3  1  0
  2 20  1  0
  3  4  1  0
  4  6  1  0
  4  5  1  6
  6  7  2  0
  6  8  1  0
  8  9  2  0
  9 10  1  0
 10 12  1  0
 10 11  1  1
 12 15  1  0
 12 13  1  1
 13 14  1  0
 15 16  1  0
 16 17  2  0
 16 18  1  0
 18 20  1  0
 18 19  1  6
 20 21  1  6
M  END
>  <DRUGBANK_ID>  (1) 
DB07703

>  <COMMON_NAME>  (1) 
(3R,4S,5S,7R,9E,11R,12R)-12-ETHYL-4-HYDROXY-3,5,7,11-TETRAMETHYLOXACYCLODODEC-9-ENE-2,8-DIONE

$$$$
