
     RDKit          3D

 26 25  0  0  0  0  0  0  0  0999 V2000
    0.9029   -0.0175    0.0162 C   0  0  0  0  0  0  0  0  0  0  0  0
    0.3962   -1.0617   -0.9654 C   0  0  0  0  0  0  0  0  0  0  0  0
    0.9029   -2.4338   -0.5519 C   0  0  0  0  0  0  0  0  0  0  0  0
   -1.1238   -1.0617   -0.9654 C   0  0  0  0  0  0  0  0  0  0  0  0
   -1.7752   -2.2184   -0.9349 C   0  0  0  0  0  0  0  0  0  0  0  0
   -3.1399   -2.2487   -0.7786 C   0  0  0  0  0  0  0  0  0  0  0  0
   -3.8693   -1.0928   -0.7426 C   0  0  0  0  0  0  0  0  0  0  0  0
   -3.1823    0.0342   -0.7005 C   0  0  0  0  0  0  0  0  0  0  0  0
   -1.8032    0.1449   -0.9972 C   0  0  0  0  0  0  0  0  0  0  0  0
   -1.1508    1.4243   -1.3106 N   0  0  0  0  0  0  0  0  0  0  0  0
   -1.9372    2.6662   -1.3256 C   0  0  0  0  0  0  0  0  0  0  0  0
   -1.3731    3.7723   -1.5966 O   0  0  0  0  0  0  0  0  0  0  0  0
   -3.4251    2.6273   -1.0169 C   0  0  0  0  0  0  0  0  0  0  0  0
   -4.1056    1.7642   -1.9930 N   0  0  0  0  0  0  0  0  0  0  0  0
   -5.5445    1.7266   -1.6945 C   0  0  0  0  0  0  0  0  0  0  0  0
   -6.1158    3.1328   -1.7765 C   0  0  0  0  0  0  0  0  0  0  0  0
   -7.0414    3.3952   -2.6069 O   0  0  0  0  0  0  0  0  0  0  0  0
   -5.6154    4.1532   -0.9252 O   0  0  0  0  0  0  0  0  0  0  0  0
   -3.8998    2.2986   -3.3469 C   0  0  0  0  0  0  0  0  0  0  0  0
   -4.4712    3.7047   -3.4289 C   0  0  0  0  0  0  0  0  0  0  0  0
   -3.7136    4.6824   -3.7212 O   0  0  0  0  0  0  0  0  0  0  0  0
   -5.8514    3.9260   -3.1789 O   0  0  0  0  0  0  0  0  0  0  0  0
   -3.9246    1.3006   -0.3060 C   0  0  0  0  0  0  0  0  0  0  0  0
   -3.2937    1.8887    0.9455 C   0  0  0  0  0  0  0  0  0  0  0  0
   -3.8404    2.3109   -1.4385 C   0  0  0  0  0  0  0  0  0  0  0  0
    1.0163   -0.0974   -0.0155 Tc  0  0  0  0  0 15  0  0  0  0  0  0
  1  2  1  0
  2  3  1  0
  2  4  1  0
  4  5  2  0
  4  9  1  0
  5  6  1  0
  6  7  2  0
  7  8  1  0
  8  9  2  0
  8 23  1  0
  9 10  1  0
 10 11  1  0
 11 12  2  0
 11 13  1  0
 13 14  1  0
 14 15  1  0
 14 19  1  0
 15 16  1  0
 16 17  2  0
 16 18  1  0
 19 20  1  0
 20 21  2  0
 20 22  1  0
 23 24  1  0
 23 25  1  0
M  ISO  1  26  99
M  END
>  <DRUGBANK_ID>  (1) 
DB09164

>  <COMMON_NAME>  (1) 
Technetium Tc-99m disofenin

>  <UNII>  (1) 
QTJ2VIW97T

>  <SYNONYMS>  (1) 
99mTc-DISIDA; 99mTc-Disofenin; Technetium (99mTc) disofenin; Technetium Tc 99m Disofenin; Technetium-99m-Diisopropyliminodiacetic Acid

$$$$
