
     RDKit          3D

 31 28  0  0  0  0  0  0  0  0999 V2000
    0.6843   -2.8532    0.7364 C   0  0  2  0  0  0  0  0  0  0  0  0
    0.0930   -1.2500   -0.3678 C   0  0  2  0  0  0  0  0  0  0  0  0
    0.7317   -2.6364    2.2350 C   0  0  1  0  0  0  0  0  0  0  0  0
    2.2571   -3.3235    0.6075 O   0  0  0  0  0  0  0  0  0  0  0  0
    1.5638    0.4281   -0.5901 C   0  0  1  0  0  0  0  0  0  0  0  0
   -1.3441   -1.2491   -0.3648 O   0  0  0  0  0  0  0  0  0  0  0  0
    1.2631   -3.4504    3.2887 C   0  0  1  0  0  0  0  0  0  0  0  0
    1.6110   -1.5644    2.5560 O   0  0  0  0  0  0  0  0  0  0  0  0
    2.3139    0.3547    1.3843 C   0  0  0  0  0  0  0  0  0  0  0  0
    2.7217    0.7157   -1.1256 O   0  0  0  0  0  0  0  0  0  0  0  0
    2.7593   -3.6181    2.9473 C   0  0  0  0  0  0  0  0  0  0  0  0
    0.9610   -2.5519    4.4252 O   0  0  0  0  0  0  0  0  0  0  0  0
    1.3999    0.4680    2.3480 O   0  0  0  0  0  0  0  0  0  0  0  0
    3.4680   -0.0514    1.5697 O   0  0  0  0  0  0  0  0  0  0  0  0
    3.6825   -2.5200    3.1142 O   0  0  0  0  0  0  0  0  0  0  0  0
    0.8153    0.5282   -2.8591 C   0  0  2  0  0  0  0  0  0  0  0  0
   -0.0013    1.0273   -1.4918 C   0  0  2  0  0  0  0  0  0  0  0  0
    0.9052   -0.9844   -3.0033 C   0  0  1  0  0  0  0  0  0  0  0  0
    2.1225    1.1755   -3.1102 O   0  0  0  0  0  0  0  0  0  0  0  0
    0.3792    0.3185    0.5179 C   0  0  1  0  0  0  0  0  0  0  0  0
   -1.3663    0.9866   -1.4662 O   0  0  0  0  0  0  0  0  0  0  0  0
    1.4098   -1.7396   -4.1348 C   0  0  1  0  0  0  0  0  0  0  0  0
    2.1261   -1.1432   -2.3266 O   0  0  0  0  0  0  0  0  0  0  0  0
    1.9070   -1.2673   -0.0182 C   0  0  0  0  0  0  0  0  0  0  0  0
    1.4931    1.9382    0.7866 O   0  0  0  0  0  0  0  0  0  0  0  0
    2.9273   -1.3575   -4.2852 C   0  0  0  0  0  0  0  0  0  0  0  0
    1.2201   -3.1502   -3.8545 O   0  0  0  0  0  0  0  0  0  0  0  0
    3.1625   -1.2003   -0.1805 O   0  0  0  0  0  0  0  0  0  0  0  0
    1.5614   -2.2967   -0.8929 O   0  0  0  0  0  0  0  0  0  0  0  0
    3.9064   -1.8967   -3.3179 O   0  0  0  0  0  0  0  0  0  0  0  0
   -0.2465   -0.6420    2.2765 Ca  0  0  0  0  0 15  0  0  0  0  0  0
  1  3  1  0
  1  4  1  6
  2  6  1  1
  2  5  1  0
  2  1  1  0
  3  7  1  0
  3  8  1  6
  5  9  1  0
  5 10  1  6
  7 11  1  0
  7 12  1  1
  9 14  1  0
  9 13  2  0
 11 15  1  0
 16 18  1  0
 16 19  1  1
 17 21  1  6
 17 20  1  0
 17 16  1  0
 18 22  1  0
 18 23  1  1
 20 24  1  0
 20 25  1  1
 22 26  1  0
 22 27  1  1
 24 28  2  0
 24 29  1  0
 26 30  1  0
M  CHG  3  14  -1  29  -1  31   2
M  END
>  <DRUGBANK_ID>  (1) 
DB00326

>  <SECONDARY_ACCESSION_NUMBERS>  (1) 
APRD00841

>  <COMMON_NAME>  (1) 
Calcium glucoheptonate

>  <CAS_NUMBER>  (1) 
29039-00-7

>  <UNII>  (1) 
L11651398J

>  <SYNONYMS>  (1) 
Calcii glucoheptonas; calcium (2ξ)-D-gluco-heptonate; calcium bis[(2ξ)-D-glycero-D-gulo-heptonate]; calcium bis[(2ξ)-D-glycero-D-ido-heptonate]; calcium bis[(3R,4S,5R,6R)-2,3,4,5,6,7-hexahydroxyheptanoate]; Calcium gluceptate; Calcium glucoheptonat; Calcium glucoheptonate; Calcium glucoheptonate (1:2); Glucoheptonate de calcium; Glucoheptonato calcico

$$$$
