7I2
     RDKit          3D

 15 16  0  0  0  0  0  0  0  0999 V2000
   -1.6370   -1.1427    0.0008 N   0  0  0  0  0  0  0  0  0  0  0  0
   -2.3636    0.0190    0.0007 N   0  0  0  0  0  0  0  0  0  0  0  0
   -1.5552    1.1364   -0.0005 C   0  0  0  0  0  0  0  0  0  0  0  0
    0.8672    1.4742   -0.0009 C   0  0  0  0  0  0  0  0  0  0  0  0
    2.0570    0.7186    0.0005 C   0  0  0  0  0  0  0  0  0  0  0  0
    2.0783   -0.7045   -0.0003 C   0  0  0  0  0  0  0  0  0  0  0  0
    0.8904   -1.4875   -0.0001 C   0  0  0  0  0  0  0  0  0  0  0  0
   -0.3358   -0.7772   -0.0000 C   0  0  0  0  0  0  0  0  0  0  0  0
   -0.2728    0.6695   -0.0007 C   0  0  0  0  0  0  0  0  0  0  0  0
    0.9468   -2.9336    0.0015 N   0  0  0  0  0  0  0  0  0  0  0  0
   -0.1024   -3.5822    0.0034 O   0  0  0  0  0  0  0  0  0  0  0  0
    2.0801   -3.4460    0.0013 O   0  0  0  0  0  0  0  0  0  0  0  0
   -3.7978   -0.0296    0.0018 C   0  0  0  0  0  0  0  0  0  0  0  0
   -4.5356    1.0411    0.0019 N   0  0  0  0  0  0  0  0  0  0  0  0
   -4.4482   -1.2245    0.0028 N   0  0  0  0  0  0  0  0  0  0  0  0
  1  2  1  0
  1  8  2  0
  2  3  1  0
  2 13  1  0
  3  9  2  0
  4  5  2  0
  4  9  1  0
  5  6  1  0
  6  7  2  0
  7  8  1  0
  7 10  1  0
  8  9  1  0
 10 11  2  0
 10 12  1  0
 13 14  2  0
 13 15  1  0
M  CHG  2  10   1  12  -1
M  END
>  <DRUGBANK_ID>  (1) 
DB03065

>  <SECONDARY_ACCESSION_NUMBERS>  (1) 
EXPT00312

>  <COMMON_NAME>  (1) 
7-Nitroindazole-2-Carboxamidine

$$$$
