404
     RDKit          3D

 22 25  0  0  0  0  0  0  0  0999 V2000
    0.9263   -0.0493   -0.0201 Cl  0  0  0  0  0  0  0  0  0  0  0  0
    6.8581    0.0346    0.1241 N   0  0  0  0  0  0  0  0  0  0  0  0
    6.5000   -2.9976   -0.0068 N   0  0  0  0  0  0  0  0  0  0  0  0
    8.9237   -0.5476    0.6178 N   0  0  0  0  0  0  0  0  0  0  0  0
    8.9499    0.7261    0.1184 N   0  0  0  0  0  0  0  0  0  0  0  0
    5.4459   -0.0163    0.0550 C   0  0  0  0  0  0  0  0  0  0  0  0
    4.7660   -1.2181   -0.2041 C   0  0  0  0  0  0  0  0  0  0  0  0
    7.6771   -0.9690    0.5931 C   0  0  0  0  0  0  0  0  0  0  0  0
    5.4580   -2.5039   -0.5708 C   0  0  0  0  0  0  0  0  0  0  0  0
    7.1571   -2.2700    1.0772 C   0  0  0  0  0  0  0  0  0  0  0  0
    7.7182    1.0759   -0.1928 C   0  0  0  0  0  0  0  0  0  0  0  0
    4.7085    1.1559    0.2939 C   0  0  0  0  0  0  0  0  0  0  0  0
    3.3565   -1.2134   -0.2197 C   0  0  0  0  0  0  0  0  0  0  0  0
    4.8543   -3.2657   -1.6995 C   0  0  0  0  0  0  0  0  0  0  0  0
    3.3161    1.1504    0.2508 C   0  0  0  0  0  0  0  0  0  0  0  0
    2.6444   -0.0361    0.0009 C   0  0  0  0  0  0  0  0  0  0  0  0
    7.3532    2.3313   -0.8962 C   0  0  0  0  0  0  0  0  0  0  0  0
    4.7286   -2.6483   -2.9474 C   0  0  0  0  0  0  0  0  0  0  0  0
    4.2843   -4.5171   -1.4583 C   0  0  0  0  0  0  0  0  0  0  0  0
    3.8989   -3.2184   -3.9100 C   0  0  0  0  0  0  0  0  0  0  0  0
    3.5202   -5.1195   -2.4579 C   0  0  0  0  0  0  0  0  0  0  0  0
    3.2820   -4.4444   -3.6577 C   0  0  0  0  0  0  0  0  0  0  0  0
  1 16  1  0
  2  6  1  0
  2  8  1  0
  2 11  1  0
  3  9  2  0
  3 10  1  0
  4  5  1  0
  4  8  2  0
  5 11  2  0
  6  7  2  0
  6 12  1  0
  7  9  1  0
  7 13  1  0
  8 10  1  0
  9 14  1  0
 11 17  1  0
 12 15  2  0
 13 16  2  0
 14 18  2  0
 14 19  1  0
 15 16  1  0
 18 20  1  0
 19 21  2  0
 20 22  2  0
 21 22  1  0
M  END
>  <DRUGBANK_ID>  (1) 
DB00404

>  <SECONDARY_ACCESSION_NUMBERS>  (1) 
APRD00280; DB05925; DB05690

>  <COMMON_NAME>  (1) 
Alprazolam

>  <CAS_NUMBER>  (1) 
28981-97-7

>  <UNII>  (1) 
YU55MQ3IZY

>  <SYNONYMS>  (1) 
8-Chloro-1-methyl-6-phenyl-4H-s-triazolo(4,3-a)(1,4)benzodiazepine; Alprazolam

$$$$
