
     RDKit          3D

 22 23  0  0  0  0  0  0  0  0999 V2000
    1.4063   -0.2642   -0.0075 C   0  0  0  0  0  0  0  0  0  0  0  0
    0.5026   -1.3351    0.0041 C   0  0  0  0  0  0  0  0  0  0  0  0
   -0.8736   -1.0993   -0.0330 C   0  0  0  0  0  0  0  0  0  0  0  0
   -1.3590    0.2098   -0.1106 C   0  0  0  0  0  0  0  0  0  0  0  0
   -0.4406    1.2644   -0.1755 C   0  0  0  0  0  0  0  0  0  0  0  0
    0.9211    1.0389   -0.1128 C   0  0  0  0  0  0  0  0  0  0  0  0
    3.6999    0.0871   -1.0003 C   0  0  0  0  0  0  0  0  0  0  0  0
    2.8912   -0.4904    0.1489 C   0  0  0  0  0  0  0  0  0  0  0  0
    4.6432    0.8545   -0.8275 O   0  0  0  0  0  0  0  0  0  0  0  0
    3.2804   -0.3795   -2.2112 O   0  0  0  0  0  0  0  0  0  0  0  0
   -2.8383    0.4933   -0.1861 C   0  0  0  0  0  0  0  0  0  0  0  0
   -3.4137    1.2716    1.0177 C   0  0  0  0  0  0  0  0  0  0  0  0
   -2.7772    2.6481    1.2241 C   0  0  0  0  0  0  0  0  0  0  0  0
   -4.9150    1.4790    0.8205 C   0  0  0  0  0  0  0  0  0  0  0  0
    3.3517    0.1468    1.4701 C   0  0  0  0  0  0  0  0  0  0  0  0
    3.9915    0.1459   -3.3489 C   0  0  0  0  0  0  0  0  0  0  0  0
    3.7515    1.6249   -3.5538 C   0  0  0  0  0  0  0  0  0  0  0  0
    2.5394    2.0837   -4.0588 C   0  0  0  0  0  0  0  0  0  0  0  0
    2.3365    3.4577   -4.1601 C   0  0  0  0  0  0  0  0  0  0  0  0
    3.3261    4.3311   -3.7226 C   0  0  0  0  0  0  0  0  0  0  0  0
    4.4960    3.7935   -3.2216 C   0  0  0  0  0  0  0  0  0  0  0  0
    4.7381    2.4701   -3.1639 N   0  0  0  0  0  0  0  0  0  0  0  0
  1  2  2  0
  1  6  1  0
  1  8  1  0
  2  3  1  0
  3  4  2  0
  4  5  1  0
  4 11  1  0
  5  6  2  0
  7  8  1  0
  7  9  2  0
  7 10  1  0
  8 15  1  0
 10 16  1  0
 11 12  1  0
 12 13  1  0
 12 14  1  0
 16 17  1  0
 17 18  2  0
 17 22  1  0
 18 19  1  0
 19 20  2  0
 20 21  1  0
 21 22  2  0
M  END
>  <DRUGBANK_ID>  (1) 
DB16887

>  <COMMON_NAME>  (1) 
Ibuprofen piconol

>  <CAS_NUMBER>  (1) 
64622-45-3

>  <UNII>  (1) 
B0F91K5U4N

>  <SYNONYMS>  (1) 
Ibuprofen piconol

$$$$
