8AP
     RDKit          3D

 15 16  0  0  0  0  0  0  0  0999 V2000
    2.2877   -0.1370    0.2080 N   0  0  0  0  0  0  0  0  0  0  0  0
    0.9006   -0.1024    0.0469 C   0  0  0  0  0  0  0  0  0  0  0  0
    0.3542    1.1344    0.0035 N   0  0  0  0  0  0  0  0  0  0  0  0
   -0.9911    1.2240   -0.0126 C   0  0  0  0  0  0  0  0  0  0  0  0
   -1.8359    0.1307   -0.0411 C   0  0  0  0  0  0  0  0  0  0  0  0
   -1.2565   -1.1293   -0.0123 C   0  0  0  0  0  0  0  0  0  0  0  0
    0.1269   -1.2924    0.0776 C   0  0  0  0  0  0  0  0  0  0  0  0
    0.7252   -2.5411    0.1497 N   0  0  0  0  0  0  0  0  0  0  0  0
    0.0200   -3.8069    0.2013 C   0  0  0  0  0  0  0  0  0  0  0  0
    0.3625   -4.6922   -0.9733 C   0  0  0  0  0  0  0  0  0  0  0  0
    1.1007   -4.2447   -2.0791 C   0  0  0  0  0  0  0  0  0  0  0  0
    1.3930   -5.1066   -3.1350 C   0  0  0  0  0  0  0  0  0  0  0  0
    0.9522   -6.4271   -3.0980 C   0  0  0  0  0  0  0  0  0  0  0  0
    0.2111   -6.8848   -2.0112 C   0  0  0  0  0  0  0  0  0  0  0  0
   -0.1052   -6.0158   -0.9681 C   0  0  0  0  0  0  0  0  0  0  0  0
  1  2  1  0
  2  3  2  0
  2  7  1  0
  3  4  1  0
  4  5  2  0
  5  6  1  0
  6  7  2  0
  7  8  1  0
  8  9  1  0
  9 10  1  0
 10 11  2  0
 10 15  1  0
 11 12  1  0
 12 13  2  0
 13 14  1  0
 14 15  2  0
M  END
>  <DRUGBANK_ID>  (1) 
DB07281

>  <COMMON_NAME>  (1) 
N~3~-BENZYLPYRIDINE-2,3-DIAMINE

$$$$
