
     RDKit          3D

 17 18  0  0  0  0  0  0  0  0999 V2000
    1.0627   -0.7794   -0.0771 N   0  0  0  0  0  0  0  0  0  0  0  0
    2.2582   -1.4920    0.1924 N   0  0  0  0  0  0  0  0  0  0  0  0
   -0.1867   -1.3820   -0.0856 C   0  0  0  0  0  0  0  0  0  0  0  0
    1.0571    0.4822   -0.3947 N   0  0  0  0  0  0  0  0  0  0  0  0
    3.2338   -0.9068    1.1115 C   0  0  0  0  0  0  0  0  0  0  0  0
    2.8392   -2.1433   -0.9788 C   0  0  0  0  0  0  0  0  0  0  0  0
   -1.0630   -0.3545   -0.3641 C   0  0  0  0  0  0  0  0  0  0  0  0
   -0.2702    0.6954   -0.7556 O   0  0  0  0  0  0  0  0  0  0  0  0
    4.5497   -0.4029    0.5082 C   0  0  0  0  0  0  0  0  0  0  0  0
    4.1562   -1.5503   -1.4926 C   0  0  0  0  0  0  0  0  0  0  0  0
   -2.4102   -0.4163   -0.2627 N   0  0  0  0  0  0  0  0  0  0  0  0
    5.0727   -1.3575   -0.4159 O   0  0  0  0  0  0  0  0  0  0  0  0
   -3.3299    0.5606   -0.1101 C   0  0  0  0  0  0  0  0  0  0  0  0
   -3.0493    1.8968    0.0705 O   0  0  0  0  0  0  0  0  0  0  0  0
   -4.5418    0.2942   -0.0774 O   0  0  0  0  0  0  0  0  0  0  0  0
   -1.7603    2.4914    0.1929 C   0  0  0  0  0  0  0  0  0  0  0  0
   -1.1089    1.9977    1.4837 C   0  0  0  0  0  0  0  0  0  0  0  0
  1  2  1  0
  1  3  1  0
  1  4  2  0
  2  5  1  0
  2  6  1  0
  3  7  2  0
  4  8  1  0
  5  9  1  0
  6 10  1  0
  7 11  1  0
  7  8  1  0
  9 12  1  0
 10 12  1  0
 11 13  1  0
 13 14  1  0
 13 15  2  0
 14 16  1  0
 16 17  1  0
M  CHG  2   1   1  11  -1
M  END
>  <DRUGBANK_ID>  (1) 
DB09282

>  <COMMON_NAME>  (1) 
Molsidomine

>  <CAS_NUMBER>  (1) 
25717-80-0

>  <UNII>  (1) 
D46583G77X

>  <SYNONYMS>  (1) 
Molsidomina; Molsidomine; Molsidominum

$$$$
