
     RDKit          3D

 28 31  0  0  1  0  0  0  0  0999 V2000
    0.9464   -0.1853   -0.0957 C   0  0  0  0  0  0  0  0  0  0  0  0
    0.5770    0.3532   -1.4163 N   0  0  0  0  0  0  0  0  0  0  0  0
    1.7341    0.5153   -2.3135 C   0  0  0  0  0  0  0  0  0  0  0  0
    2.7255    1.6459   -1.9528 C   0  0  0  0  0  0  0  0  0  0  0  0
    1.9987    3.0114   -1.7873 C   0  0  1  0  0  0  0  0  0  0  0  0
    0.7791    2.7583   -0.8980 C   0  0  2  0  0  0  0  0  0  0  0  0
    1.2443    2.4129    0.4058 O   0  0  0  0  0  0  0  0  0  0  0  0
   -0.1387    1.6344   -1.3235 C   0  0  0  0  0  0  0  0  0  0  0  0
    2.8981    4.1378   -1.2147 C   0  0  0  0  0  0  0  0  0  0  0  0
    4.0757    4.4919   -1.8893 C   0  0  0  0  0  0  0  0  0  0  0  0
    4.3452    3.9285   -3.1069 O   0  0  0  0  0  0  0  0  0  0  0  0
    4.9563    5.4329   -1.3530 C   0  0  0  0  0  0  0  0  0  0  0  0
    4.6745    6.0354   -0.1183 C   0  0  0  0  0  0  0  0  0  0  0  0
    5.5579    6.9405    0.3941 O   0  0  0  0  0  0  0  0  0  0  0  0
    3.4923    5.7537    0.5694 C   0  0  0  0  0  0  0  0  0  0  0  0
    2.5973    4.8566   -0.0063 C   0  0  0  0  0  0  0  0  0  0  0  0
    1.3474    4.7138    0.5594 O   0  0  0  0  0  0  0  0  0  0  0  0
    1.0789    5.0808    1.8546 C   0  0  0  0  0  0  0  0  0  0  0  0
    1.8464    5.9575    2.5006 C   0  0  0  0  0  0  0  0  0  0  0  0
    3.1134    6.3753    1.8685 C   0  0  0  0  0  0  0  0  0  0  0  0
    3.8094    7.1993    2.4624 O   0  0  0  0  0  0  0  0  0  0  0  0
   -0.2074    4.5707    2.4067 C   0  0  0  0  0  0  0  0  0  0  0  0
   -1.2675    5.4855    2.5370 C   0  0  0  0  0  0  0  0  0  0  0  0
   -2.5007    5.1051    3.0844 C   0  0  0  0  0  0  0  0  0  0  0  0
   -2.7322    3.7832    3.4486 C   0  0  0  0  0  0  0  0  0  0  0  0
   -1.7126    2.8495    3.3083 C   0  0  0  0  0  0  0  0  0  0  0  0
   -0.4435    3.2492    2.8549 C   0  0  0  0  0  0  0  0  0  0  0  0
    0.8115    2.0796    3.1059 Cl  0  0  0  0  0  0  0  0  0  0  0  0
  1  2  1  0
  2  3  1  0
  2  8  1  0
  3  4  1  0
  4  5  1  0
  5  6  1  0
  5  9  1  1
  6  7  1  1
  6  8  1  0
  9 10  2  0
  9 16  1  0
 10 11  1  0
 10 12  1  0
 12 13  2  0
 13 14  1  0
 13 15  1  0
 15 16  2  0
 15 20  1  0
 16 17  1  0
 17 18  1  0
 18 19  2  0
 18 22  1  0
 19 20  1  0
 20 21  2  0
 22 23  2  0
 22 27  1  0
 23 24  1  0
 24 25  2  0
 25 26  1  0
 26 27  2  0
 27 28  1  0
M  END
>  <DRUGBANK_ID>  (1) 
DB03496

>  <SECONDARY_ACCESSION_NUMBERS>  (1) 
EXPT00998

>  <COMMON_NAME>  (1) 
Alvocidib

>  <CAS_NUMBER>  (1) 
146426-40-6

>  <UNII>  (1) 
45AD6X575G

>  <SYNONYMS>  (1) 
Alvocidib; Alvocidib freebase; Flavopiridol

$$$$
