
     RDKit          3D

 19 20  0  0  1  0  0  0  0  0999 V2000
   -2.2065    0.0333   -0.0496 Cl  0  0  0  0  0  0  0  0  0  0  0  0
    4.1728   -2.2252    1.6454 C   0  0  0  0  0  0  0  0  0  0  0  0
    4.5354    1.5058   -2.5450 N   0  0  0  0  0  0  0  0  0  0  0  0
    3.8352   -0.1753    0.1801 C   0  0  1  0  0  0  0  0  0  0  0  0
    2.3103   -0.1146    0.1476 C   0  0  0  0  0  0  0  0  0  0  0  0
    4.4379   -0.8853    1.3732 C   0  0  0  0  0  0  0  0  0  0  0  0
    1.6228    1.1096    0.2410 C   0  0  0  0  0  0  0  0  0  0  0  0
    1.5541   -1.2749   -0.0459 C   0  0  0  0  0  0  0  0  0  0  0  0
    4.4568   -0.6628   -1.1471 C   0  0  0  0  0  0  0  0  0  0  0  0
    5.2826   -0.1499    2.1420 N   0  0  0  0  0  0  0  0  0  0  0  0
   -0.4906   -0.0103   -0.0024 C   0  0  0  0  0  0  0  0  0  0  0  0
    0.2350    1.1707    0.1010 C   0  0  0  0  0  0  0  0  0  0  0  0
    0.1648   -1.2321   -0.0585 C   0  0  0  0  0  0  0  0  0  0  0  0
    4.0284    0.1214   -2.4036 C   0  0  0  0  0  0  0  0  0  0  0  0
    4.7395   -2.8024    2.7646 C   0  0  0  0  0  0  0  0  0  0  0  0
    5.8504   -0.7447    3.2046 C   0  0  0  0  0  0  0  0  0  0  0  0
    5.5981   -2.0629    3.5592 C   0  0  0  0  0  0  0  0  0  0  0  0
    4.0440    2.0733   -3.8052 C   0  0  0  0  0  0  0  0  0  0  0  0
    4.0857    2.4316   -1.5111 C   0  0  0  0  0  0  0  0  0  0  0  0
  1 11  1  0
  2  6  2  0
  2 15  1  0
  3 14  1  0
  3 18  1  0
  3 19  1  0
  4  5  1  0
  4  6  1  0
  4  9  1  6
  5  7  2  0
  5  8  1  0
  6 10  1  0
  7 12  1  0
  8 13  2  0
  9 14  1  0
 10 16  2  0
 11 12  2  0
 11 13  1  0
 15 17  2  0
 16 17  1  0
M  END
>  <DRUGBANK_ID>  (1) 
DB13679

>  <COMMON_NAME>  (1) 
Dexchlorpheniramine

>  <CAS_NUMBER>  (1) 
25523-97-1

>  <UNII>  (1) 
3Q9Q0B929N

>  <SYNONYMS>  (1) 
Dexchlorpheniramine; dexclorfeniramina

$$$$
