231
     RDKit          3D

 21 23  0  0  1  0  0  0  0  0999 V2000
    1.0484   -0.0649    0.0547 Cl  0  0  0  0  0  0  0  0  0  0  0  0
    6.4225    1.5267   -2.4221 O   0  0  0  0  0  0  0  0  0  0  0  0
    9.0830    0.5717   -0.5022 O   0  0  0  0  0  0  0  0  0  0  0  0
    6.9974   -0.1751    0.1124 N   0  0  0  0  0  0  0  0  0  0  0  0
    6.5718    2.8261   -0.3521 N   0  0  0  0  0  0  0  0  0  0  0  0
    5.5801   -0.0871    0.1027 C   0  0  0  0  0  0  0  0  0  0  0  0
    4.8713    1.1244    0.1944 C   0  0  0  0  0  0  0  0  0  0  0  0
    5.5411    2.4510    0.3207 C   0  0  0  0  0  0  0  0  0  0  0  0
    7.2053    1.9102   -1.3046 C   0  0  0  0  0  0  0  0  0  0  0  0
    7.8520    0.7328   -0.5191 C   0  0  0  0  0  0  0  0  0  0  0  0
    4.9611    3.4115    1.3044 C   0  0  0  0  0  0  0  0  0  0  0  0
    3.4643    1.1217    0.1774 C   0  0  0  0  0  0  0  0  0  0  0  0
    4.8447   -1.2787   -0.0310 C   0  0  0  0  0  0  0  0  0  0  0  0
    7.6309   -1.2913    0.8036 C   0  0  0  0  0  0  0  0  0  0  0  0
    2.7657   -0.0745    0.0642 C   0  0  0  0  0  0  0  0  0  0  0  0
    3.4503   -1.2752   -0.0510 C   0  0  0  0  0  0  0  0  0  0  0  0
    4.6117    4.7127    0.9286 C   0  0  0  0  0  0  0  0  0  0  0  0
    4.7421    2.9722    2.6140 C   0  0  0  0  0  0  0  0  0  0  0  0
    4.1145    5.5941    1.8933 C   0  0  0  0  0  0  0  0  0  0  0  0
    4.1580    3.8269    3.5446 C   0  0  0  0  0  0  0  0  0  0  0  0
    3.8897    5.1502    3.1985 C   0  0  0  0  0  0  0  0  0  0  0  0
  1 15  1  0
  2  9  1  0
  3 10  2  0
  4  6  1  0
  4 10  1  0
  4 14  1  0
  5  8  2  0
  5  9  1  0
  6  7  2  0
  6 13  1  0
  7  8  1  0
  7 12  1  0
  8 11  1  0
  9 10  1  0
 11 17  2  0
 11 18  1  0
 12 15  2  0
 13 16  2  0
 15 16  1  0
 17 19  1  0
 18 20  2  0
 19 21  2  0
 20 21  1  0
M  END
>  <DRUGBANK_ID>  (1) 
DB00231

>  <SECONDARY_ACCESSION_NUMBERS>  (1) 
APRD00676

>  <COMMON_NAME>  (1) 
Temazepam

>  <CAS_NUMBER>  (1) 
846-50-4

>  <UNII>  (1) 
CHB1QD2QSS

>  <SYNONYMS>  (1) 
Temazepam

$$$$
