1194
     RDKit          3D

 23 24  0  0  1  0  0  0  0  0999 V2000
   -1.0113    1.5431   -0.6270 S   0  0  0  0  0  0  0  0  0  0  0  0
    1.8619    1.4111   -0.3547 S   0  0  0  0  0  0  0  0  0  0  0  0
    4.3815    0.0735   -0.0435 S   0  0  0  0  0  0  0  0  0  0  0  0
   -1.2251    1.9988   -1.9902 O   0  0  0  0  0  0  0  0  0  0  0  0
   -0.4681    2.3611    0.3646 O   0  0  0  0  0  0  0  0  0  0  0  0
   -0.9718    3.1761    2.6009 O   0  0  0  0  0  0  0  0  0  0  0  0
    4.8894    0.6395   -1.2684 O   0  0  0  0  0  0  0  0  0  0  0  0
    4.6162    0.6367    1.2636 O   0  0  0  0  0  0  0  0  0  0  0  0
   -2.2642    0.6144    0.0100 N   0  0  0  0  0  0  0  0  0  0  0  0
   -0.8340   -2.1818    1.2679 N   0  0  0  0  0  0  0  0  0  0  0  0
    4.8722   -1.5319   -0.0084 N   0  0  0  0  0  0  0  0  0  0  0  0
   -0.8279   -1.5865   -0.1010 C   0  0  1  0  0  0  0  0  0  0  0  0
   -2.2238   -0.8523   -0.1519 C   0  0  0  0  0  0  0  0  0  0  0  0
    0.4307   -0.7604   -0.4410 C   0  0  0  0  0  0  0  0  0  0  0  0
    0.3803    0.5752   -0.6461 C   0  0  0  0  0  0  0  0  0  0  0  0
   -2.9527    1.0154    1.2707 C   0  0  0  0  0  0  0  0  0  0  0  0
    1.8116   -1.0690   -0.7292 C   0  0  0  0  0  0  0  0  0  0  0  0
   -2.1120    0.9022    2.5556 C   0  0  0  0  0  0  0  0  0  0  0  0
    2.6639   -0.0450   -0.3247 C   0  0  0  0  0  0  0  0  0  0  0  0
    0.1669   -3.1790    1.6121 C   0  0  0  0  0  0  0  0  0  0  0  0
   -0.8211    1.7184    2.6999 C   0  0  0  0  0  0  0  0  0  0  0  0
    1.4717   -2.4813    1.8603 C   0  0  0  0  0  0  0  0  0  0  0  0
   -1.7162    3.8551    1.5472 C   0  0  0  0  0  0  0  0  0  0  0  0
  1  4  2  0
  1  5  2  0
  1  9  1  0
  1 15  1  0
  2 15  1  0
  2 19  1  0
  3  7  2  0
  3  8  2  0
  3 11  1  0
  3 19  1  0
  6 21  1  0
  6 23  1  0
  9 13  1  0
  9 16  1  0
 10 20  1  0
 12 10  1  1
 12 13  1  0
 12 14  1  0
 14 15  2  0
 14 17  1  0
 16 18  1  0
 17 19  2  0
 18 21  1  0
 20 22  1  0
M  END
>  <DRUGBANK_ID>  (1) 
DB01194

>  <SECONDARY_ACCESSION_NUMBERS>  (1) 
APRD00475

>  <COMMON_NAME>  (1) 
Brinzolamide

>  <CAS_NUMBER>  (1) 
138890-62-7

>  <UNII>  (1) 
9451Z89515

>  <SYNONYMS>  (1) 
Brinzolamida; Brinzolamide

$$$$
