
     RDKit          3D

 26 27  0  0  1  0  0  0  0  0999 V2000
    7.0167   -5.1211    0.0106 Cl  0  0  0  0  0  0  0  0  0  0  0  0
    1.0826   -0.0323    0.0461 Cl  0  0  0  0  0  0  0  0  0  0  0  0
    2.2393   -5.7799    1.1921 N   0  0  0  0  0  0  0  0  0  0  0  0
    2.9879   -7.0449    1.1984 C   0  0  0  0  0  0  0  0  0  0  0  0
    2.1550   -8.3210    1.1111 C   0  0  0  0  0  0  0  0  0  0  0  0
    3.8132   -7.0466    2.4914 C   0  0  0  0  0  0  0  0  0  0  0  0
    3.0338   -9.5585    1.2214 C   0  0  0  0  0  0  0  0  0  0  0  0
    4.6786   -8.2960    2.6074 C   0  0  0  0  0  0  0  0  0  0  0  0
    3.8382   -9.5598    2.5152 C   0  0  0  0  0  0  0  0  0  0  0  0
    8.3200   -2.4278    0.1253 C   0  0  0  0  0  0  0  0  0  0  0  0
    9.0362   -3.0814   -1.0535 C   0  0  0  0  0  0  0  0  0  0  0  0
    8.7043   -3.1379    1.4295 C   0  0  0  0  0  0  0  0  0  0  0  0
   10.5428   -3.0980   -0.8394 C   0  0  0  0  0  0  0  0  0  0  0  0
   10.2147   -3.1687    1.6319 C   0  0  0  0  0  0  0  0  0  0  0  0
   10.9167   -3.8183    0.4498 C   0  0  0  0  0  0  0  0  0  0  0  0
    2.6040   -5.0005    0.0003 C   0  0  0  0  0  0  0  0  0  0  0  0
    6.8008   -2.4419    0.0777 C   0  0  0  0  0  0  0  0  0  0  0  0
    2.5680   -5.0100    2.4005 C   0  0  0  0  0  0  0  0  0  0  0  0
    1.8298   -3.6925   -0.0062 C   0  0  0  0  0  0  0  0  0  0  0  0
    6.1087   -3.6404    0.0309 C   0  0  0  0  0  0  0  0  0  0  0  0
    6.0819   -1.2510    0.0805 C   0  0  0  0  0  0  0  0  0  0  0  0
    4.0591   -4.7161    2.4240 C   0  0  0  0  0  0  0  0  0  0  0  0
    4.0169   -2.4907    0.0314 C   0  0  0  0  0  0  0  0  0  0  0  0
    4.7227   -3.6931    0.0372 C   0  0  0  0  0  0  0  0  0  0  0  0
    4.6923   -1.2808    0.0462 C   0  0  0  0  0  0  0  0  0  0  0  0
    2.4971   -2.5071    0.0085 C   0  0  0  0  0  0  0  0  0  0  0  0
  1 20  1  0
  3  4  1  0
  3 16  1  0
  3 18  1  0
  4  5  1  0
  4  6  1  0
  5  7  1  0
  6  8  1  0
  7  9  1  0
  8  9  1  0
 10 11  1  0
 10 12  1  0
 10 17  1  0
 11 13  1  0
 12 14  1  0
 13 15  1  0
 14 15  1  0
 16 19  1  0
 17 20  2  0
 17 21  1  0
 18 22  1  0
 19 26  2  0
 20 24  1  0
 21 25  2  0
 23 24  2  0
 23 25  1  0
 23 26  1  0
M  END
>  <DRUGBANK_ID>  (1) 
DB05792

>  <COMMON_NAME>  (1) 
Arylacenamide

>  <CAS_NUMBER>  (1) 
132173-07-0

>  <UNII>  (1) 
9K6U3I1UR0

$$$$
