
     RDKit          3D

 15 13  0  0  0  0  0  0  0  0999 V2000
    2.1979   -0.3629    0.3271 C   0  0  0  0  0  0  0  0  0  0  0  0
    1.1778   -1.7595    0.0066 C   0  0  0  0  0  0  0  0  0  0  0  0
   -0.0162   -1.9667    0.2960 O   0  0  0  0  0  0  0  0  0  0  0  0
    1.3859   -2.7150   -0.8619 N   0  0  0  0  0  0  0  0  0  0  0  0
    1.9883   -2.3378   -2.0682 C   0  0  0  0  0  0  0  0  0  0  0  0
    3.2241   -3.1697   -1.8743 C   0  0  0  0  0  0  0  0  0  0  0  0
    3.5905   -4.0414   -2.5844 O   0  0  0  0  0  0  0  0  0  0  0  0
    3.8642   -2.8332   -0.7059 O   0  0  0  0  0  0  0  0  0  0  0  0
   -0.3319    0.3670   -0.0168 C   0  0  0  0  0  0  0  0  0  0  0  0
   -0.3631   -0.3034    1.7265 C   0  0  0  0  0  0  0  0  0  0  0  0
    0.4247    0.8246    3.0440 Cl  0  0  0  0  0  0  0  0  0  0  0  0
   -2.0386   -0.6591    2.1943 Cl  0  0  0  0  0  0  0  0  0  0  0  0
    0.7538   -1.8775    2.6350 Cl  0  0  0  0  0  0  0  0  0  0  0  0
   -0.3158    1.7936   -0.0085 O   0  0  0  0  0  0  0  0  0  0  0  0
   -1.0740   -0.0746   -1.1903 O   0  0  0  0  0  0  0  0  0  0  0  0
  1  2  1  0
  2  3  2  0
  2  4  1  0
  4  5  1  0
  5  6  1  0
  6  7  2  0
  6  8  1  0
  9 10  1  0
  9 14  1  0
  9 15  1  0
 10 11  1  0
 10 12  1  0
 10 13  1  0
M  END
>  <DRUGBANK_ID>  (1) 
DB13402

>  <COMMON_NAME>  (1) 
Acetylglycinamide chloral hydrate

>  <CAS_NUMBER>  (1) 
17427-14-4

>  <UNII>  (1) 
6WZ3595RLZ

$$$$
