GA0
     RDKit          3D

 27 29  0  0  0  0  0  0  0  0999 V2000
    0.8421    0.0627   -0.1679 N   0  0  0  0  0  0  0  0  0  0  0  0
    0.4772   -0.4963    1.1440 C   0  0  0  0  0  0  0  0  0  0  0  0
    1.0184    0.3632    2.2780 C   0  0  0  0  0  0  0  0  0  0  0  0
    0.2739    0.9395    3.0861 O   0  0  0  0  0  0  0  0  0  0  0  0
    2.3595    0.5288    2.4227 N   0  0  0  0  0  0  0  0  0  0  0  0
    3.4516   -0.0987    1.6869 C   0  0  1  0  0  0  0  0  0  0  0  0
    4.2632    0.9478    0.9343 C   0  0  0  0  0  0  0  0  0  0  0  0
    4.4631   -0.9417    2.4665 C   0  0  0  0  0  0  0  0  0  0  0  0
    4.6984   -2.0935    2.0839 O   0  0  0  0  0  0  0  0  0  0  0  0
    5.2053   -0.3567    3.4697 N   0  0  0  0  0  0  0  0  0  0  0  0
    4.8715    0.7097    4.3972 C   0  0  0  0  0  0  0  0  0  0  0  0
    6.5306   -0.8701    3.7710 C   0  0  1  0  0  0  0  0  0  0  0  0
    7.1533    0.2490    4.6471 C   0  0  0  0  0  0  0  0  0  0  0  0
    6.1613    1.4184    4.6278 C   0  0  0  0  0  0  0  0  0  0  0  0
    6.6528   -2.2742    4.4535 C   0  0  0  0  0  0  0  0  0  0  0  0
    7.6358   -2.9788    4.1736 O   0  0  0  0  0  0  0  0  0  0  0  0
    5.8977   -2.6693    5.5416 N   0  0  0  0  0  0  0  0  0  0  0  0
    4.7043   -2.1405    6.0628 C   0  0  0  0  0  0  0  0  0  0  0  0
    4.5696   -1.8455    7.4183 C   0  0  0  0  0  0  0  0  0  0  0  0
    3.4520   -1.0928    7.8725 C   0  0  0  0  0  0  0  0  0  0  0  0
    2.5106   -0.5998    6.9369 C   0  0  0  0  0  0  0  0  0  0  0  0
    1.4522    0.2303    7.3230 C   0  0  0  0  0  0  0  0  0  0  0  0
    1.2318    0.4768    8.6699 C   0  0  0  0  0  0  0  0  0  0  0  0
    2.1055   -0.0537    9.6172 C   0  0  0  0  0  0  0  0  0  0  0  0
    3.2264   -0.7979    9.2231 C   0  0  0  0  0  0  0  0  0  0  0  0
    2.6115   -0.9962    5.6162 C   0  0  0  0  0  0  0  0  0  0  0  0
    3.6312   -1.8648    5.2284 C   0  0  0  0  0  0  0  0  0  0  0  0
  1  2  1  0
  2  3  1  0
  3  4  2  0
  3  5  1  0
  5  6  1  0
  6  7  1  1
  6  8  1  0
  8  9  2  0
  8 10  1  0
 10 11  1  0
 10 12  1  0
 11 14  1  0
 12 13  1  0
 12 15  1  1
 13 14  1  0
 15 16  2  0
 15 17  1  0
 17 18  1  0
 18 19  2  0
 18 27  1  0
 19 20  1  0
 20 21  2  0
 20 25  1  0
 21 22  1  0
 21 26  1  0
 22 23  2  0
 23 24  1  0
 24 25  2  0
 26 27  2  0
M  END
>  <DRUGBANK_ID>  (1) 
DB07813

>  <COMMON_NAME>  (1) 
GLYCYLALANYL-N-2-NAPHTHYL-L-PROLINEAMIDE

$$$$
