
     RDKit          3D

 28 31  0  0  0  0  0  0  0  0999 V2000
    0.9876   -0.0252    0.1882 C   0  0  0  0  0  0  0  0  0  0  0  0
    0.3707   -0.5378    1.1186 O   0  0  0  0  0  0  0  0  0  0  0  0
    0.2898    0.6715   -0.9682 C   0  0  0  0  0  0  0  0  0  0  0  0
    0.6452    2.1551   -1.0912 C   0  0  0  0  0  0  0  0  0  0  0  0
    2.1289    2.3925   -1.4086 C   0  0  0  0  0  0  0  0  0  0  0  0
    2.5326    1.7004   -2.7104 C   0  0  0  0  0  0  0  0  0  0  0  0
    2.4655    3.8736   -1.4526 C   0  0  0  0  0  0  0  0  0  0  0  0
    8.7248   -0.2144    3.0168 C   0  0  1  0  0  0  0  0  0  0  0  0
    4.6256   -0.2989    1.1824 C   0  0  1  0  0  0  0  0  0  0  0  0
    9.1258   -1.4613    3.8190 C   0  0  0  0  0  0  0  0  0  0  0  0
    7.1487   -0.2071    2.8800 C   0  0  2  0  0  0  0  0  0  0  0  0
    5.1100   -1.4642    2.0742 C   0  0  2  0  0  0  0  0  0  0  0  0
    6.6333   -1.5247    2.2281 C   0  0  2  0  0  0  0  0  0  0  0  0
    3.0924   -0.6130    1.1542 C   0  0  1  0  0  0  0  0  0  0  0  0
    9.9694   -1.4435    4.8672 C   0  0  0  0  0  0  0  0  0  0  0  0
    5.0370    0.9938    1.9123 C   0  0  0  0  0  0  0  0  0  0  0  0
    6.5584    1.0594    2.2010 C   0  0  0  0  0  0  0  0  0  0  0  0
    9.1978    1.0663    3.7623 C   0  0  0  0  0  0  0  0  0  0  0  0
    7.0507   -2.7249    3.0906 C   0  0  0  0  0  0  0  0  0  0  0  0
    4.4027   -2.6827    1.4953 C   0  0  0  0  0  0  0  0  0  0  0  0
    2.3509   -0.0319    0.0670 O   0  0  0  0  0  0  0  0  0  0  0  0
    8.5501   -2.7761    3.3537 C   0  0  0  0  0  0  0  0  0  0  0  0
   10.7362   -0.2255    5.2165 C   0  0  0  0  0  0  0  0  0  0  0  0
    3.0461   -2.1472    1.0270 C   0  0  0  0  0  0  0  0  0  0  0  0
   11.5090   -0.2473    6.1708 O   0  0  0  0  0  0  0  0  0  0  0  0
   10.6250    0.9567    4.2901 C   0  0  0  0  0  0  0  0  0  0  0  0
    9.4181   -0.2680    1.6354 C   0  0  0  0  0  0  0  0  0  0  0  0
    5.2225   -0.3062   -0.2429 C   0  0  0  0  0  0  0  0  0  0  0  0
  2  1  2  0
  3  1  1  0
  4  3  1  0
  5  4  1  0
  6  5  1  0
  7  5  1  0
  8 27  1  6
  9 16  1  0
  9 28  1  6
 10  8  1  0
 11  8  1  0
 12 13  1  0
 12  9  1  0
 13 11  1  0
 14  9  1  0
 14 21  1  6
 14 24  1  0
 15 10  2  0
 15 23  1  0
 16 17  1  0
 11 17  1  6
 18  8  1  0
 13 19  1  1
 12 20  1  6
 21  1  1  0
 22 10  1  0
 22 19  1  0
 23 26  1  0
 24 20  1  0
 25 23  2  0
 26 18  1  0
M  END
>  <DRUGBANK_ID>  (1) 
DB16002

>  <COMMON_NAME>  (1) 
Testosterone isocaproate

>  <CAS_NUMBER>  (1) 
15262-86-9

>  <UNII>  (1) 
X8ST05GYDM

$$$$
