1178
     RDKit          3D

 17 18  0  0  1  0  0  0  0  0999 V2000
   -2.1680   -0.0980    0.0114 Cl  0  0  0  0  0  0  0  0  0  0  0  0
    4.5297    0.6159    1.5368 S   0  0  0  0  0  0  0  0  0  0  0  0
    3.8005    0.0117    2.6421 O   0  0  0  0  0  0  0  0  0  0  0  0
    5.9770    0.5756    1.5106 O   0  0  0  0  0  0  0  0  0  0  0  0
    3.7241    2.7280   -2.1904 O   0  0  0  0  0  0  0  0  0  0  0  0
    4.4075    0.7886   -1.1859 N   0  0  0  0  0  0  0  0  0  0  0  0
    3.9070    0.0017   -0.0560 C   0  0  0  0  0  0  0  0  0  0  0  0
    4.0642    2.3214    1.4018 C   0  0  0  0  0  0  0  0  0  0  0  0
    4.5526    2.8917    0.0746 C   0  0  0  0  0  0  0  0  0  0  0  0
    2.3710   -0.0196   -0.0425 C   0  0  0  0  0  0  0  0  0  0  0  0
    4.1687    2.1463   -1.2059 C   0  0  0  0  0  0  0  0  0  0  0  0
    5.2057    0.1676   -2.2248 C   0  0  0  0  0  0  0  0  0  0  0  0
    1.5846    1.1537   -0.1044 C   0  0  0  0  0  0  0  0  0  0  0  0
    1.6851   -1.2384   -0.0049 C   0  0  0  0  0  0  0  0  0  0  0  0
    0.1985    1.1393   -0.0465 C   0  0  0  0  0  0  0  0  0  0  0  0
    0.2821   -1.2621   -0.0037 C   0  0  0  0  0  0  0  0  0  0  0  0
   -0.4523   -0.0756   -0.0059 C   0  0  0  0  0  0  0  0  0  0  0  0
  1 17  1  0
  2  3  2  0
  2  4  2  0
  2  7  1  0
  2  8  1  0
  5 11  2  0
  6  7  1  0
  6 11  1  0
  6 12  1  0
  7 10  1  0
  8  9  1  0
  9 11  1  0
 10 13  2  0
 10 14  1  0
 13 15  1  0
 14 16  2  0
 15 17  2  0
 16 17  1  0
M  END
>  <DRUGBANK_ID>  (1) 
DB01178

>  <SECONDARY_ACCESSION_NUMBERS>  (1) 
APRD00865

>  <COMMON_NAME>  (1) 
Chlormezanone

>  <CAS_NUMBER>  (1) 
80-77-3

>  <UNII>  (1) 
GP568V9G19

>  <SYNONYMS>  (1) 
(±)-chlormezanone; 2-(p-chlorophenyl)tetrahydro-3-methyl-4H-1,3-thiazin-4-one 1,1-dioxide; 2-(p-chlorphenyl)-3-methyl-1,3-perhydrothiazin-4-on-1,1-dioxide; Chlormethazanone; Chlormezanona; Chlormézanone; Chlormezanone; Chlormezanonum; Clormezanona

$$$$
