U05
     RDKit          3D

 22 24  0  0  0  0  0  0  0  0999 V2000
   -2.0688   -1.5922    0.0419 N   0  0  0  0  0  0  0  0  0  0  0  0
   -3.2220   -1.2000    0.6385 C   0  0  0  0  0  0  0  0  0  0  0  0
   -3.6321    0.1172    0.7397 C   0  0  0  0  0  0  0  0  0  0  0  0
   -2.8020    1.0892    0.2058 C   0  0  0  0  0  0  0  0  0  0  0  0
   -1.5990    0.6929   -0.3858 C   0  0  0  0  0  0  0  0  0  0  0  0
   -0.6592    1.7061   -0.8488 C   0  0  0  0  0  0  0  0  0  0  0  0
   -1.0025    2.5013   -1.7192 O   0  0  0  0  0  0  0  0  0  0  0  0
    0.4638    1.8328   -0.0497 N   0  0  0  0  0  0  0  0  0  0  0  0
    0.6301    3.1028    0.6411 C   0  0  0  0  0  0  0  0  0  0  0  0
    1.4368    0.7820    0.0679 C   0  0  0  0  0  0  0  0  0  0  0  0
    2.6766    1.0941    0.6662 C   0  0  0  0  0  0  0  0  0  0  0  0
    3.7046    0.1575    0.7660 C   0  0  0  0  0  0  0  0  0  0  0  0
    3.5061   -1.1243    0.2652 C   0  0  0  0  0  0  0  0  0  0  0  0
    4.5587   -2.1344    0.4089 N   0  0  0  0  0  0  0  0  0  0  0  0
    4.3322   -3.2715   -0.0277 O   0  0  0  0  0  0  0  0  0  0  0  0
    5.6139   -1.7895    0.9594 O   0  0  0  0  0  0  0  0  0  0  0  0
    2.2973   -1.4638   -0.3474 C   0  0  0  0  0  0  0  0  0  0  0  0
    1.2430   -0.5300   -0.4647 C   0  0  0  0  0  0  0  0  0  0  0  0
    0.0126   -1.0166   -0.9647 N   0  0  0  0  0  0  0  0  0  0  0  0
    0.0087   -1.7877   -2.2263 C   0  0  0  0  0  0  0  0  0  0  0  0
   -0.5847   -3.1804   -2.0708 C   0  0  0  0  0  0  0  0  0  0  0  0
   -1.2452   -0.6409   -0.4674 C   0  0  0  0  0  0  0  0  0  0  0  0
  1  2  2  0
  1 22  1  0
  2  3  1  0
  3  4  2  0
  4  5  1  0
  5  6  1  0
  5 22  2  0
  6  7  2  0
  6  8  1  0
  8  9  1  0
  8 10  1  0
 10 11  1  0
 10 18  2  0
 11 12  2  0
 12 13  1  0
 13 14  1  0
 13 17  2  0
 14 15  1  0
 14 16  2  0
 17 18  1  0
 18 19  1  0
 19 20  1  0
 19 22  1  0
 20 21  1  0
M  CHG  2  14   1  15  -1
M  END
>  <DRUGBANK_ID>  (1) 
DB08665

>  <COMMON_NAME>  (1) 
6,11-DIHYDRO-11-ETHYL-6-METHYL-9-NITRO-5H-PYRIDO[2,3-B][1,5]BENZODIAZEPIN-5-ONE

>  <UNII>  (1) 
KOO1113T0V

$$$$
