
     RDKit          3D

 13 12  0  0  1  0  0  0  0  0999 V2000
    1.0146   -0.0723    0.0999 C   0  0  0  0  0  0  0  0  0  0  0  0
    1.7193    5.2974    0.1203 C   0  0  0  0  0  0  0  0  0  0  0  0
    0.3140    4.7589    0.4034 C   0  0  0  0  0  0  0  0  0  0  0  0
    1.9370    5.5661   -1.3738 C   0  0  0  0  0  0  0  0  0  0  0  0
    0.0545    3.4492   -0.3253 C   0  0  0  0  0  0  0  0  0  0  0  0
    0.9448    6.5856   -1.9337 C   0  0  0  0  0  0  0  0  0  0  0  0
    0.4860    1.1353    0.8612 C   0  0  1  0  0  0  0  0  0  0  0  0
    1.0148    2.3717    0.1533 C   0  0  0  0  0  0  0  0  0  0  0  0
    1.1057    7.9409   -1.2980 C   0  0  0  0  0  0  0  0  0  0  0  0
   -0.9788    1.0794    0.9126 N   0  0  0  0  0  0  0  0  0  0  0  0
    2.2314    2.4788   -0.0403 O   0  0  0  0  0  0  0  0  0  0  0  0
    1.4889    8.9552   -1.8670 O   0  0  0  0  0  0  0  0  0  0  0  0
    0.7920    7.9700    0.0101 O   0  0  0  0  0  0  0  0  0  0  0  0
  3  2  1  0
  4  2  1  0
  5  3  1  0
  6  4  1  0
  7  1  1  6
  7 10  1  0
  8  5  1  0
  8  7  1  0
  9  6  1  0
 11  8  2  0
 12  9  2  0
 13  9  1  0
M  END
>  <DRUGBANK_ID>  (1) 
DB02274

>  <SECONDARY_ACCESSION_NUMBERS>  (1) 
EXPT01962

>  <COMMON_NAME>  (1) 
7-Keto-8-Aminopelargonic Acid

>  <CAS_NUMBER>  (1) 
4707-58-8

>  <UNII>  (1) 
D0SI1JMK5I

$$$$
