
     RDKit          3D

 17 18  0  0  0  0  0  0  0  0999 V2000
    2.3238   -0.1103   -0.0770 O   0  0  0  0  0  0  0  0  0  0  0  0
    0.9678   -0.1307    0.0142 C   0  0  0  0  0  0  0  0  0  0  0  0
    0.1956   -1.2909   -0.0073 C   0  0  0  0  0  0  0  0  0  0  0  0
   -1.2166   -1.2021    0.0186 C   0  0  0  0  0  0  0  0  0  0  0  0
   -1.8348    0.0436    0.1621 C   0  0  0  0  0  0  0  0  0  0  0  0
   -3.2379    0.2058    0.0301 N   0  0  0  0  0  0  0  0  0  0  0  0
   -4.0143    1.3689   -0.1078 C   0  0  0  0  0  0  0  0  0  0  0  0
   -5.2354    1.2955   -0.0544 O   0  0  0  0  0  0  0  0  0  0  0  0
   -3.4010    2.7243   -0.2703 C   0  0  0  0  0  0  0  0  0  0  0  0
   -3.7055    3.6998    0.6959 C   0  0  0  0  0  0  0  0  0  0  0  0
   -2.9567    4.8820    0.7620 C   0  0  0  0  0  0  0  0  0  0  0  0
   -1.8742    5.0733   -0.0982 C   0  0  0  0  0  0  0  0  0  0  0  0
   -1.5851    4.1239   -1.0799 C   0  0  0  0  0  0  0  0  0  0  0  0
   -2.3945    2.9900   -1.2130 C   0  0  0  0  0  0  0  0  0  0  0  0
   -2.0845    2.0668   -2.1750 O   0  0  0  0  0  0  0  0  0  0  0  0
   -0.9999    1.1230    0.4221 C   0  0  0  0  0  0  0  0  0  0  0  0
    0.3648    1.0876    0.1968 C   0  0  0  0  0  0  0  0  0  0  0  0
  1  2  1  0
  2  3  2  0
  2 17  1  0
  3  4  1  0
  4  5  2  0
  5  6  1  0
  5 16  1  0
  6  7  1  0
  7  8  2  0
  7  9  1  0
  9 10  2  0
  9 14  1  0
 10 11  1  0
 11 12  2  0
 12 13  1  0
 13 14  2  0
 14 15  1  0
 16 17  2  0
M  END
>  <DRUGBANK_ID>  (1) 
DB16273

>  <COMMON_NAME>  (1) 
Osalmid

>  <CAS_NUMBER>  (1) 
526-18-1

>  <UNII>  (1) 
89741L759Z

>  <SYNONYMS>  (1) 
Osalmid

$$$$
