
     RDKit          3D

 16 16  0  0  0  0  0  0  0  0999 V2000
    1.0755   -0.0796    0.0238 C   0  0  0  0  0  0  0  0  0  0  0  0
    0.5922    1.3292    0.2502 C   0  0  0  0  0  0  0  0  0  0  0  0
   -0.4920    1.5781    1.1019 C   0  0  0  0  0  0  0  0  0  0  0  0
   -0.9221    2.8886    1.3426 C   0  0  0  0  0  0  0  0  0  0  0  0
    0.6457   -0.6005   -1.1567 F   0  0  0  0  0  0  0  0  0  0  0  0
    0.6635   -0.9471    0.9911 F   0  0  0  0  0  0  0  0  0  0  0  0
   -1.9977    3.1680    2.3722 C   0  0  0  0  0  0  0  0  0  0  0  0
   -0.9196    5.2536    3.2824 N   0  0  0  0  0  0  0  0  0  0  0  0
    1.2520    2.4039   -0.3678 C   0  0  0  0  0  0  0  0  0  0  0  0
   -1.4757    3.9280    3.6274 C   0  0  0  0  0  0  0  0  0  0  0  0
    0.8350    3.7099   -0.1263 C   0  0  0  0  0  0  0  0  0  0  0  0
   -0.2860    3.9336    0.6562 C   0  0  0  0  0  0  0  0  0  0  0  0
   -2.6055    4.0675    4.6475 C   0  0  0  0  0  0  0  0  0  0  0  0
    2.4344   -0.1676    0.0045 F   0  0  0  0  0  0  0  0  0  0  0  0
   -0.3424    6.0093    4.3891 C   0  0  0  0  0  0  0  0  0  0  0  0
    0.8217    5.2659    5.0250 C   0  0  0  0  0  0  0  0  0  0  0  0
  1 14  1  0
  2  1  1  0
  3  2  2  0
  4  3  1  0
  5  1  1  0
  6  1  1  0
  7  4  1  0
  8 15  1  0
  9  2  1  0
 10  7  1  0
 10  8  1  0
 11  9  2  0
 12  4  2  0
 12 11  1  0
 13 10  1  0
 15 16  1  0
M  END
>  <DRUGBANK_ID>  (1) 
DB00574

>  <SECONDARY_ACCESSION_NUMBERS>  (1) 
APRD00319

>  <COMMON_NAME>  (1) 
Fenfluramine

>  <CAS_NUMBER>  (1) 
458-24-2

>  <UNII>  (1) 
2DS058H2CF

>  <SYNONYMS>  (1) 
(Â±)-fenfluramine; 1-(m-trifluoromethyl-phenyl)-2-ethylaminopropane; DL-Fenfluramine; Fenfluramina; Fenfluramine; Fenfluraminum

$$$$
