
     RDKit          3D

 18 19  0  0  0  0  0  0  0  0999 V2000
    0.9469    0.0371    0.0375 C   0  0  0  0  0  0  0  0  0  0  0  0
    0.4289   -0.2545    1.4570 C   0  0  0  0  0  0  0  0  0  0  0  0
    0.9027    0.8933    2.3803 C   0  0  0  0  0  0  0  0  0  0  0  0
   -1.1135   -0.2425    1.4615 C   0  0  0  0  0  0  0  0  0  0  0  0
    0.9054   -1.6310    1.9366 C   0  0  0  0  0  0  0  0  0  0  0  0
    1.6814   -1.7677    3.0901 C   0  0  0  0  0  0  0  0  0  0  0  0
    2.0317   -3.0181    3.5861 C   0  0  0  0  0  0  0  0  0  0  0  0
    1.5896   -4.1834    2.9584 C   0  0  0  0  0  0  0  0  0  0  0  0
    1.8750   -5.4633    3.3914 O   0  0  0  0  0  0  0  0  0  0  0  0
    2.6599   -5.6004    4.5176 C   0  0  0  0  0  0  0  0  0  0  0  0
    2.1840   -5.1809    5.7593 C   0  0  0  0  0  0  0  0  0  0  0  0
    3.0361   -5.2626    6.8564 C   0  0  0  0  0  0  0  0  0  0  0  0
    4.3135   -5.7913    6.7160 C   0  0  0  0  0  0  0  0  0  0  0  0
    5.1206   -5.9869    7.8243 N   0  0  0  0  0  0  0  0  0  0  0  0
    4.6610   -6.2508    5.4406 C   0  0  0  0  0  0  0  0  0  0  0  0
    3.8731   -6.1563    4.3400 N   0  0  0  0  0  0  0  0  0  0  0  0
    0.8240   -4.0717    1.8002 C   0  0  0  0  0  0  0  0  0  0  0  0
    0.5184   -2.8106    1.2704 C   0  0  0  0  0  0  0  0  0  0  0  0
  1  2  1  0
  2  3  1  0
  2  4  1  0
  2  5  1  0
  5  6  2  0
  5 18  1  0
  6  7  1  0
  7  8  2  0
  8  9  1  0
  8 17  1  0
  9 10  1  0
 10 11  2  0
 10 16  1  0
 11 12  1  0
 12 13  2  0
 13 14  1  0
 13 15  1  0
 15 16  2  0
 17 18  2  0
M  END
>  <DRUGBANK_ID>  (1) 
DB15279

>  <COMMON_NAME>  (1) 
CB-103

>  <CAS_NUMBER>  (1) 
218457-67-1

>  <UNII>  (1) 
Q5BB91JL0V

>  <SYNONYMS>  (1) 
3-PYRIDINAMINE, 6-(4-(1,1-DIMETHYLETHYL)PHENOXY)-; 6-(4-(1,1-Dimethylethyl)phenoxy)-3-pyridinamine

$$$$
