PM2
     RDKit          3D

 30 33  0  0  0  0  0  0  0  0999 V2000
    1.2964   -0.1717    0.0298 C   0  0  0  0  0  0  0  0  0  0  0  0
    0.3237   -1.1790    0.0020 C   0  0  0  0  0  0  0  0  0  0  0  0
    0.8386    1.1386   -0.0095 C   0  0  0  0  0  0  0  0  0  0  0  0
   -1.0410   -0.9712   -0.0147 C   0  0  0  0  0  0  0  0  0  0  0  0
   -0.5425    1.3867    0.0033 C   0  0  0  0  0  0  0  0  0  0  0  0
   -1.4762    0.3398   -0.0242 C   0  0  0  0  0  0  0  0  0  0  0  0
   -1.9303   -2.1812    0.0550 C   0  0  0  0  0  0  0  0  0  0  0  0
   -2.7212   -2.1554    1.2749 N   0  0  0  0  0  0  0  0  0  0  0  0
    3.2659   -1.3584   -1.0344 C   0  0  0  0  0  0  0  0  0  0  0  0
    2.7052   -2.7751   -1.0409 C   0  0  0  0  0  0  0  0  0  0  0  0
    3.4882   -4.6501    0.2696 C   0  0  0  0  0  0  0  0  0  0  0  0
    3.8983   -5.2203   -0.7249 O   0  0  0  0  0  0  0  0  0  0  0  0
    2.7713   -0.5247    0.1610 C   0  0  0  0  0  0  0  0  0  0  0  0
    2.8589   -3.4172    0.2728 N   0  0  0  0  0  0  0  0  0  0  0  0
    2.4924   -2.6753    1.4989 C   0  0  0  0  0  0  0  0  0  0  0  0
    3.0557   -1.2640    1.4828 C   0  0  0  0  0  0  0  0  0  0  0  0
    3.7439   -5.2909    1.5471 C   0  0  0  0  0  0  0  0  0  0  0  0
    2.7253   -5.6456    2.4419 C   0  0  0  0  0  0  0  0  0  0  0  0
    5.0680   -5.5901    1.8047 C   0  0  0  0  0  0  0  0  0  0  0  0
    3.0627   -6.3562    3.5807 C   0  0  0  0  0  0  0  0  0  0  0  0
    5.4387   -6.2560    2.8895 N   0  0  0  0  0  0  0  0  0  0  0  0
    1.9892   -6.7702    4.5767 C   0  0  0  0  0  0  0  0  0  0  0  0
    4.4307   -6.6491    3.6968 C   0  0  0  0  0  0  0  0  0  0  0  0
    1.9093   -8.2866    4.8466 C   0  0  0  0  0  0  0  0  0  0  0  0
    3.1138   -8.8598    5.5653 C   0  0  0  0  0  0  0  0  0  0  0  0
    4.0008   -8.0335    6.2794 C   0  0  0  0  0  0  0  0  0  0  0  0
    3.4049  -10.2223    5.4944 C   0  0  0  0  0  0  0  0  0  0  0  0
    5.2662   -8.4817    6.6402 C   0  0  0  0  0  0  0  0  0  0  0  0
    4.5757  -10.7105    6.0830 C   0  0  0  0  0  0  0  0  0  0  0  0
    5.5437   -9.8330    6.5721 C   0  0  0  0  0  0  0  0  0  0  0  0
  1  2  2  0
  1  3  1  0
  1 13  1  0
  2  4  1  0
  3  5  2  0
  4  6  2  0
  4  7  1  0
  5  6  1  0
  7  8  1  0
  9 10  1  0
  9 13  1  0
 10 14  1  0
 11 12  2  0
 11 14  1  0
 11 17  1  0
 13 16  1  0
 14 15  1  0
 15 16  1  0
 17 18  2  0
 17 19  1  0
 18 20  1  0
 19 21  2  0
 20 22  1  0
 20 23  2  0
 21 23  1  0
 22 24  1  0
 24 25  1  0
 25 26  2  0
 25 27  1  0
 26 28  1  0
 27 29  2  0
 28 30  2  0
 29 30  1  0
M  END
>  <DRUGBANK_ID>  (1) 
DB04764

>  <COMMON_NAME>  (1) 
[4-(3-AMINOMETHYL-PHENYL)-PIPERIDIN-1-YL]-(5-PHENETHYL- PYRIDIN-3-YL)-METHANONE

$$$$
