
     RDKit          3D

 24 27  0  0  1  0  0  0  0  0999 V2000
    0.7835   -0.3093    0.4670 C   0  0  0  0  0  0  0  0  0  0  0  0
    0.2647    0.8742    1.1704 C   0  0  0  0  0  0  0  0  0  0  0  0
    0.7618    1.9685    0.4407 N   0  0  0  0  0  0  0  0  0  0  0  0
    2.3900    1.6568   -0.1197 C   0  0  2  0  0  0  0  0  0  0  0  0
    2.9559    2.9074   -1.0898 C   0  0  0  0  0  0  0  0  0  0  0  0
    0.8777    3.8039   -1.7585 C   0  0  0  0  0  0  0  0  0  0  0  0
   -0.2254    2.8404   -0.7761 C   0  0  1  0  0  0  0  0  0  0  0  0
   -0.4368    1.8613   -1.8742 C   0  0  0  0  0  0  0  0  0  0  0  0
    0.9004    1.2041   -2.4129 C   0  0  2  0  0  0  0  0  0  0  0  0
    1.9165    0.8033   -1.2824 C   0  0  0  0  0  0  0  0  0  0  0  0
    1.4671    1.9061   -3.5447 O   0  0  0  0  0  0  0  0  0  0  0  0
    2.7089    2.5967   -3.2965 C   0  0  0  0  0  0  0  0  0  0  0  0
    2.5354    4.1787   -2.2108 C   0  0  0  0  0  0  0  0  0  0  0  0
    1.8255    3.9112   -0.3184 C   0  0  0  0  0  0  0  0  0  0  0  0
    1.6957    4.1648    0.9361 C   0  0  0  0  0  0  0  0  0  0  0  0
    2.0930    5.3700    0.6721 C   0  0  0  0  0  0  0  0  0  0  0  0
    2.6913    5.8952   -0.7307 C   0  0  0  0  0  0  0  0  0  0  0  0
    2.9325    5.3394   -2.1781 C   0  0  0  0  0  0  0  0  0  0  0  0
    3.9563    1.4498   -3.0675 C   0  0  0  0  0  0  0  0  0  0  0  0
    5.2168    1.9350   -2.7401 C   0  0  0  0  0  0  0  0  0  0  0  0
    6.1196    1.1521   -2.0104 C   0  0  0  0  0  0  0  0  0  0  0  0
    5.7632   -0.0824   -1.4807 C   0  0  0  0  0  0  0  0  0  0  0  0
    4.5083   -0.5574   -1.7166 C   0  0  0  0  0  0  0  0  0  0  0  0
    3.7788    0.0392   -2.7989 C   0  0  0  0  0  0  0  0  0  0  0  0
  1  2  1  0
  2  3  1  0
  4  3  1  0
  4  5  1  6
  4 10  1  0
  5  6  1  0
  7  6  1  6
  7  3  1  0
  7  8  1  0
  8  9  1  0
  9 10  1  0
  9 11  1  6
 11 12  1  0
 12 13  1  0
 12 19  1  0
 13 14  2  0
 13 18  1  0
 14 15  1  0
 15 16  2  0
 16 17  1  0
 17 18  2  0
 19 20  2  0
 19 24  1  0
 20 21  1  0
 21 22  2  0
 22 23  1  0
 23 24  2  0
M  END
>  <DRUGBANK_ID>  (1) 
DB13468

>  <COMMON_NAME>  (1) 
Etybenzatropine

>  <CAS_NUMBER>  (1) 
524-83-4

>  <UNII>  (1) 
G1X2X9N95N

>  <SYNONYMS>  (1) 
Ethybenztropine; Etybenzatropine

$$$$
