
     RDKit          3D

 11 10  0  0  1  0  0  0  0  0999 V2000
    0.9142   -0.0161   -0.0487 C   0  0  0  0  0  0  0  0  0  0  0  0
    0.9142   -1.0556   -3.0586 C   0  0  0  0  0  0  0  0  0  0  0  0
    0.4075    2.6533   -4.2186 C   0  0  0  0  0  0  0  0  0  0  0  0
    0.9142    1.5709   -5.1578 C   0  0  1  0  0  0  0  0  0  0  0  0
    0.4075    0.2163   -4.6899 C   0  0  0  0  0  0  0  0  0  0  0  0
    0.2642    0.3330   -1.8537 As  0  0  0  0  0  5  0  0  0  0  0  0
    0.4241    1.8341   -6.5185 N   0  0  0  0  0  0  0  0  0  0  0  0
   -0.3232   -0.4877   -5.4552 O   0  0  0  0  0  0  0  0  0  0  0  0
    0.7505   -0.2625   -3.3979 O   0  0  0  0  0  0  0  0  0  0  0  0
   -1.3916    0.3330   -1.8537 O   0  0  0  0  0  0  0  0  0  0  0  0
    1.0108    2.3292   -2.5431 S   0  0  0  0  0  0  0  0  0  0  0  0
  4  3  1  0
  4  7  1  6
  5  4  1  0
  6  1  1  0
  6  2  1  0
  8  5  2  0
  9  5  1  0
 10  6  2  0
 11  3  1  0
 11  6  1  0
M  END
>  <DRUGBANK_ID>  (1) 
DB03676

>  <SECONDARY_ACCESSION_NUMBERS>  (1) 
EXPT00825

>  <COMMON_NAME>  (1) 
Cystein-S-Yl Cacodylate

$$$$
