
     RDKit          3D

 11 12  0  0  0  0  0  0  0  0999 V2000
    1.2950    0.0812    0.0068 Br  0  0  0  0  0  0  0  0  0  0  0  0
    5.8532   -2.7205   -0.0144 Cl  0  0  0  0  0  0  0  0  0  0  0  0
    7.1501    0.3298   -0.0147 N   0  0  0  0  0  0  0  0  0  0  0  0
    6.0180    2.2406   -0.0075 N   0  0  0  0  0  0  0  0  0  0  0  0
    3.8053    1.2715    0.0016 N   0  0  0  0  0  0  0  0  0  0  0  0
    3.7857   -1.1409   -0.0010 N   0  0  0  0  0  0  0  0  0  0  0  0
    5.8283   -0.0104   -0.0086 C   0  0  0  0  0  0  0  0  0  0  0  0
    5.1447    1.1870   -0.0042 C   0  0  0  0  0  0  0  0  0  0  0  0
    5.1233   -1.1820   -0.0069 C   0  0  0  0  0  0  0  0  0  0  0  0
    7.2163    1.6964   -0.0139 C   0  0  0  0  0  0  0  0  0  0  0  0
    3.1999    0.0741    0.0026 C   0  0  0  0  0  0  0  0  0  0  0  0
  1 11  1  0
  2  9  1  0
  3  7  1  0
  3 10  1  0
  4  8  1  0
  4 10  2  0
  5  8  1  0
  5 11  2  0
  6  9  2  0
  6 11  1  0
  7  8  2  0
  7  9  1  0
M  END
>  <DRUGBANK_ID>  (1) 
DB01706

>  <SECONDARY_ACCESSION_NUMBERS>  (1) 
EXPT00642

>  <COMMON_NAME>  (1) 
2-Bromo-6-chloro-purine

>  <CAS_NUMBER>  (1) 
500797-85-3

>  <SYNONYMS>  (1) 
2-Bromo-6-chloro-7H-purine

$$$$
