
     RDKit          3D

 28 31  0  0  0  0  0  0  0  0999 V2000
    1.9023    1.8289   -0.0064 C   0  0  0  0  0  0  0  0  0  0  0  0
    0.5065    1.6679    0.0195 C   0  0  0  0  0  0  0  0  0  0  0  0
   -0.0517    0.3832    0.0221 C   0  0  0  0  0  0  0  0  0  0  0  0
   -1.3544   -0.1855   -0.0008 C   0  0  0  0  0  0  0  0  0  0  0  0
   -1.2530   -1.5555    0.0300 C   0  0  0  0  0  0  0  0  0  0  0  0
    0.0486   -1.7753    0.3111 N   0  0  0  0  0  0  0  0  0  0  0  0
    0.8196   -0.6727    0.0827 C   0  0  0  0  0  0  0  0  0  0  0  0
    2.2028   -0.5523    0.0149 C   0  0  0  0  0  0  0  0  0  0  0  0
    2.7501    0.7297   -0.0419 C   0  0  0  0  0  0  0  0  0  0  0  0
    3.0395   -1.7478    0.0781 C   0  0  0  0  0  0  0  0  0  0  0  0
    4.2405   -1.5300    0.0415 O   0  0  0  0  0  0  0  0  0  0  0  0
    2.3268   -2.9692    0.1662 N   0  0  0  0  0  0  0  0  0  0  0  0
    1.7089   -3.4176   -1.1049 C   0  0  0  0  0  0  0  0  0  0  0  0
    0.6918   -4.5524   -0.8129 C   0  0  0  0  0  0  0  0  0  0  0  0
    1.2419   -5.7159   -0.1052 N   0  0  0  0  0  0  0  0  0  0  0  0
    1.7848   -5.2856    1.2110 C   0  0  0  0  0  0  0  0  0  0  0  0
    2.7082   -4.0893    1.0433 C   0  0  0  0  0  0  0  0  0  0  0  0
    2.1783   -6.4820   -0.9781 C   0  0  0  0  0  0  0  0  0  0  0  0
    3.5410   -5.9121   -1.6212 C   0  0  0  0  0  0  0  0  0  0  0  0
    4.7354   -5.5173   -0.6965 C   0  0  0  0  0  0  0  0  0  0  0  0
    5.1222   -4.1608   -0.4650 C   0  0  0  0  0  0  0  0  0  0  0  0
    5.6290   -3.7480    0.8141 C   0  0  0  0  0  0  0  0  0  0  0  0
    5.9720   -4.6915    1.7529 C   0  0  0  0  0  0  0  0  0  0  0  0
    5.7666   -6.0307    1.4622 C   0  0  0  0  0  0  0  0  0  0  0  0
    5.1283   -6.4393    0.2731 C   0  0  0  0  0  0  0  0  0  0  0  0
    6.3780   -4.3086    2.9730 F   0  0  0  0  0  0  0  0  0  0  0  0
   -2.5804    0.5478   -0.0315 C   0  0  0  0  0  0  0  0  0  0  0  0
   -3.5357    1.1654   -0.0295 N   0  0  0  0  0  0  0  0  0  0  0  0
  1  2  2  0
  1  9  1  0
  2  3  1  0
  3  4  1  0
  3  7  2  0
  4  5  2  0
  4 27  1  0
  5  6  1  0
  6  7  1  0
  7  8  1  0
  8  9  2  0
  8 10  1  0
 10 11  2  0
 10 12  1  0
 12 13  1  0
 12 17  1  0
 13 14  1  0
 14 15  1  0
 15 16  1  0
 15 18  1  0
 16 17  1  0
 18 19  1  0
 19 20  1  0
 20 21  2  0
 20 25  1  0
 21 22  1  0
 22 23  2  0
 23 24  1  0
 23 26  1  0
 24 25  2  0
 27 28  3  0
M  END
>  <DRUGBANK_ID>  (1) 
DB13094

>  <COMMON_NAME>  (1) 
Pruvanserin

>  <CAS_NUMBER>  (1) 
443144-26-1

>  <UNII>  (1) 
UL09X1D9EM

>  <SYNONYMS>  (1) 
Pruvanserin

$$$$
