
     RDKit          3D

 34 36  0  0  1  0  0  0  0  0999 V2000
    0.8313    5.2654   -1.4243 C   0  0  0  0  0  0  0  0  0  0  0  0
    0.2669    4.4768   -0.3604 O   0  0  0  0  0  0  0  0  0  0  0  0
    0.8795    4.5135    0.8601 C   0  0  0  0  0  0  0  0  0  0  0  0
    1.6707    5.3690    1.2038 O   0  0  0  0  0  0  0  0  0  0  0  0
    0.4418    3.3394    1.7764 C   0  0  2  0  0  0  0  0  0  0  0  0
    1.0233    1.9281    1.4352 C   0  0  0  0  0  0  0  0  0  0  0  0
    1.8237    1.8756    0.1681 C   0  0  0  0  0  0  0  0  0  0  0  0
    1.2015    2.0936   -1.0648 C   0  0  0  0  0  0  0  0  0  0  0  0
    1.9576    2.4999   -2.1594 C   0  0  0  0  0  0  0  0  0  0  0  0
    3.3344    2.6304   -2.0355 C   0  0  0  0  0  0  0  0  0  0  0  0
    3.9706    2.2672   -0.8442 C   0  0  0  0  0  0  0  0  0  0  0  0
    3.2121    1.8326    0.2431 C   0  0  0  0  0  0  0  0  0  0  0  0
    5.4439    2.4474   -0.7300 C   0  0  0  0  0  0  0  0  0  0  0  0
    6.1028    2.0931    0.4045 N   0  0  0  0  0  0  0  0  0  0  0  0
    6.0861    2.9538   -1.7312 N   0  0  0  0  0  0  0  0  0  0  0  0
   -1.0863    3.2619    1.8449 C   0  0  1  0  0  0  0  0  0  0  0  0
   -1.6182    2.2813    2.8944 C   0  0  0  0  0  0  0  0  0  0  0  0
   -1.7139    4.5679    2.0661 N   0  0  0  0  0  0  0  0  0  0  0  0
   -2.4485    5.3118    1.1614 C   0  0  0  0  0  0  0  0  0  0  0  0
   -2.7626    6.4680    1.4101 O   0  0  0  0  0  0  0  0  0  0  0  0
   -2.8652    4.6789   -0.1147 C   0  0  0  0  0  0  0  0  0  0  0  0
   -3.3966    3.3877   -0.0904 C   0  0  0  0  0  0  0  0  0  0  0  0
   -3.6315    2.7007   -1.2697 C   0  0  0  0  0  0  0  0  0  0  0  0
   -3.4607    3.3356   -2.5019 C   0  0  0  0  0  0  0  0  0  0  0  0
   -3.0655    4.6858   -2.5182 C   0  0  0  0  0  0  0  0  0  0  0  0
   -2.7204    5.3460   -1.3321 C   0  0  0  0  0  0  0  0  0  0  0  0
   -3.7324    2.5905   -3.7304 C   0  0  0  0  0  0  0  0  0  0  0  0
   -5.0015    2.0317   -3.9384 C   0  0  0  0  0  0  0  0  0  0  0  0
   -5.2905    1.3216   -5.0993 C   0  0  0  0  0  0  0  0  0  0  0  0
   -4.3247    1.1975   -6.0926 C   0  0  0  0  0  0  0  0  0  0  0  0
   -3.0709    1.8006   -5.9386 C   0  0  0  0  0  0  0  0  0  0  0  0
   -2.1275    1.8919   -7.1092 C   0  0  0  0  0  0  0  0  0  0  0  0
   -1.8846    3.2948   -7.4410 N   0  0  0  0  0  0  0  0  0  0  0  0
   -2.7555    2.4247   -4.7208 C   0  0  0  0  0  0  0  0  0  0  0  0
  1  2  1  0
  2  3  1  0
  3  4  2  0
  5 16  1  0
  5  6  1  6
  5  3  1  0
  6  7  1  0
  7  8  2  0
  7 12  1  0
  8  9  1  0
  9 10  2  0
 10 11  1  0
 11 12  2  0
 11 13  1  0
 13 14  1  0
 13 15  2  0
 16 17  1  1
 16 18  1  0
 18 19  1  0
 19 20  2  0
 19 21  1  0
 21 22  2  0
 21 26  1  0
 22 23  1  0
 23 24  2  0
 24 25  1  0
 24 27  1  0
 25 26  2  0
 27 28  2  0
 27 34  1  0
 28 29  1  0
 29 30  2  0
 30 31  1  0
 31 32  1  0
 31 34  2  0
 32 33  1  0
M  END
>  <DRUGBANK_ID>  (1) 
DB04424

>  <SECONDARY_ACCESSION_NUMBERS>  (1) 
EXPT02814

>  <COMMON_NAME>  (1) 
RPR128515

$$$$
