
     RDKit          3D

 23 24  0  0  1  0  0  0  0  0999 V2000
   -4.8876    4.2712    1.2594 C   0  0  0  0  0  0  0  0  0  0  0  0
   -3.3906    3.8630    1.2620 C   0  0  2  0  0  0  0  0  0  0  0  0
   -2.3180    4.7853    0.6262 C   0  0  2  0  0  0  0  0  0  0  0  0
   -2.4360    4.8893   -0.9080 C   0  0  1  0  0  0  0  0  0  0  0  0
   -2.5391    3.4823   -1.5820 C   0  0  2  0  0  0  0  0  0  0  0  0
   -3.5790    2.6368   -0.7487 C   0  0  2  0  0  0  0  0  0  0  0  0
   -3.2959    2.5918    0.6355 O   0  0  0  0  0  0  0  0  0  0  0  0
   -3.9170    1.3282   -1.1107 O   0  0  0  0  0  0  0  0  0  0  0  0
   -2.8660    0.4876   -1.5067 C   0  0  1  0  0  0  0  0  0  0  0  0
   -1.9364   -0.0708   -0.3909 C   0  0  1  0  0  0  0  0  0  0  0  0
   -0.8807   -0.9939   -1.0308 C   0  0  1  0  0  0  0  0  0  0  0  0
   -1.5501   -2.0918   -1.8751 C   0  0  1  0  0  0  0  0  0  0  0  0
   -2.4982   -1.4957   -2.9304 C   0  0  2  0  0  0  0  0  0  0  0  0
   -3.5623   -0.6339   -2.2679 C   0  0  2  0  0  0  0  0  0  0  0  0
   -4.4250   -0.0659   -3.2781 O   0  0  0  0  0  0  0  0  0  0  0  0
   -3.1315   -2.4997   -3.7267 O   0  0  0  0  0  0  0  0  0  0  0  0
   -0.5317   -2.8521   -2.5313 O   0  0  0  0  0  0  0  0  0  0  0  0
    0.0444   -0.2749   -1.8821 O   0  0  0  0  0  0  0  0  0  0  0  0
   -1.2244    0.8998    0.3792 O   0  0  0  0  0  0  0  0  0  0  0  0
   -1.1831    2.8583   -1.7464 N   0  0  0  0  0  0  0  0  0  0  0  0
   -3.4748    5.7793   -1.3136 O   0  0  0  0  0  0  0  0  0  0  0  0
   -1.0196    4.1929    0.8677 O   0  0  0  0  0  0  0  0  0  0  0  0
   -5.6976    3.2091    1.8147 O   0  0  0  0  0  0  0  0  0  0  0  0
  1 23  1  0
  2  1  1  6
  2  3  1  0
  2  7  1  0
  3  4  1  0
  3 22  1  6
  4  5  1  0
  4 21  1  1
  5  6  1  0
  5 20  1  1
  6  7  1  0
  6  8  1  6
  9 10  1  0
  9 14  1  0
  9  8  1  1
 10 11  1  0
 10 19  1  6
 11 12  1  0
 11 18  1  6
 12 13  1  0
 12 17  1  6
 13 14  1  0
 13 16  1  1
 14 15  1  6
M  END
>  <DRUGBANK_ID>  (1) 
DB03779

>  <SECONDARY_ACCESSION_NUMBERS>  (1) 
EXPT02268

>  <COMMON_NAME>  (1) 
Glucosaminyl-(Alpha-6)-D-Myo-Inositol

$$$$
