
     RDKit          3D

 27 29  0  0  1  0  0  0  0  0999 V2000
    0.0636   -0.8869    0.2204 C   0  0  0  0  0  0  0  0  0  0  0  0
    1.3365   -1.3684    0.3939 N   0  0  0  0  0  0  0  0  0  0  0  0
    0.1285    0.4366    0.5892 C   0  0  0  0  0  0  0  0  0  0  0  0
   -1.0554   -1.5724   -0.1110 N   0  0  0  0  0  0  0  0  0  0  0  0
    1.2882    0.6997    1.2839 N   0  0  0  0  0  0  0  0  0  0  0  0
   -2.1348    0.5497    0.0398 N   0  0  0  0  0  0  0  0  0  0  0  0
   -0.9894    1.3102    0.2591 C   0  0  0  0  0  0  0  0  0  0  0  0
   -2.1328   -0.8246   -0.0921 C   0  0  0  0  0  0  0  0  0  0  0  0
    2.0193   -0.3742    1.0615 C   0  0  0  0  0  0  0  0  0  0  0  0
   -0.9713    2.5143    0.1602 O   0  0  0  0  0  0  0  0  0  0  0  0
   -3.3472   -1.4141   -0.1799 N   0  0  0  0  0  0  0  0  0  0  0  0
    3.9822   -3.6714    0.6885 C   0  0  1  0  0  0  0  0  0  0  0  0
    2.7958   -3.0166    1.2144 O   0  0  0  0  0  0  0  0  0  0  0  0
    3.6862   -3.9723   -0.7722 C   0  0  2  0  0  0  0  0  0  0  0  0
    1.8605   -2.7033    0.1449 C   0  0  2  0  0  0  0  0  0  0  0  0
    2.6357   -2.9362   -1.1319 C   0  0  0  0  0  0  0  0  0  0  0  0
    3.1370   -5.2687   -0.9221 O   0  0  0  0  0  0  0  0  0  0  0  0
    5.1998   -2.7543    0.7773 C   0  0  0  0  0  0  0  0  0  0  0  0
    4.8572   -1.6151    0.0283 O   0  0  0  0  0  0  0  0  0  0  0  0
    3.7621    2.2029   -2.0512 O   0  0  0  0  0  0  0  0  0  0  0  0
    3.4188    0.9168   -1.1026 P   0  0  0  0  0  0  0  0  0  0  0  0
    4.9855    0.2428   -1.3928 O   0  0  0  0  0  0  0  0  0  0  0  0
    5.4794   -1.2530   -1.3940 P   0  0  1  0  0  0  0  0  0  0  0  0
    2.8019   -0.0558   -2.1177 O   0  0  0  0  0  0  0  0  0  0  0  0
    6.9477   -1.5010   -1.4819 O   0  0  0  0  0  0  0  0  0  0  0  0
    1.8522    1.5908   -0.8123 O   0  0  0  0  0  0  0  0  0  0  0  0
    4.6990   -1.9333   -2.6264 O   0  0  0  0  0  0  0  0  0  0  0  0
  2  1  1  0
  3  1  2  0
  4  1  1  0
  5  3  1  0
  7  3  1  0
  7  6  1  0
  8  4  2  0
  8  6  1  0
  9  2  1  0
  9  5  2  0
 10  7  2  0
 11  8  1  0
 12 18  1  6
 13 12  1  0
 14 12  1  0
 14 17  1  1
 15  2  1  1
 15 13  1  0
 16 14  1  0
 16 15  1  0
 19 18  1  0
 21 20  1  0
 22 21  1  0
 23 19  1  0
 23 22  1  0
 24 21  2  0
 25 23  2  0
 26 21  1  0
 23 27  1  6
M  END
>  <DRUGBANK_ID>  (1) 
DB03491

>  <SECONDARY_ACCESSION_NUMBERS>  (1) 
EXPT01179

>  <COMMON_NAME>  (1) 
2'-Deoxyguanosine-5'-Diphosphate

$$$$
