
     RDKit          3D

 30 32  0  0  0  0  0  0  0  0999 V2000
    0.9767   -0.1434    0.2950 N   0  0  0  0  0  0  0  0  0  0  0  0
    0.4109   -1.4918    0.4383 C   0  0  0  0  0  0  0  0  0  0  0  0
    0.9674   -1.9888    1.7947 C   0  0  0  0  0  0  0  0  0  0  0  0
    0.5557   -1.0985    2.8411 O   0  0  0  0  0  0  0  0  0  0  0  0
   -1.1547   -1.6030    0.5511 C   0  0  0  0  0  0  0  0  0  0  0  0
   -1.8963   -1.6340   -0.6602 O   0  0  0  0  0  0  0  0  0  0  0  0
    0.9276   -2.3142   -0.7632 C   0  0  0  0  0  0  0  0  0  0  0  0
    0.4727   -1.8256   -2.1693 C   0  0  0  0  0  0  0  0  0  0  0  0
    0.8101   -0.3884   -2.5428 C   0  0  0  0  0  0  0  0  0  0  0  0
    2.0081   -0.2092   -3.2665 C   0  0  0  0  0  0  0  0  0  0  0  0
    2.4760    1.0720   -3.5907 C   0  0  0  0  0  0  0  0  0  0  0  0
    1.7885    2.2128   -3.1939 C   0  0  0  0  0  0  0  0  0  0  0  0
    2.3625    3.8419   -3.5951 S   0  0  0  0  0  0  0  0  0  0  0  0
    1.2721    4.9841   -2.7361 C   0  0  0  0  0  0  0  0  0  0  0  0
    1.1241    4.9785   -1.3374 C   0  0  0  0  0  0  0  0  0  0  0  0
    0.3970    5.9779   -0.6978 C   0  0  0  0  0  0  0  0  0  0  0  0
   -0.0922    7.0435   -1.4404 C   0  0  0  0  0  0  0  0  0  0  0  0
    0.0064    7.0471   -2.8377 C   0  0  0  0  0  0  0  0  0  0  0  0
   -0.5425    7.9942   -3.6693 O   0  0  0  0  0  0  0  0  0  0  0  0
   -1.2293    9.1013   -3.0618 C   0  0  0  0  0  0  0  0  0  0  0  0
   -2.5749    8.7439   -2.4450 C   0  0  0  0  0  0  0  0  0  0  0  0
   -2.9813    7.4046   -2.3036 C   0  0  0  0  0  0  0  0  0  0  0  0
   -4.0177    7.0454   -1.4521 C   0  0  0  0  0  0  0  0  0  0  0  0
   -4.7601    8.0345   -0.8304 C   0  0  0  0  0  0  0  0  0  0  0  0
   -4.4544    9.3787   -1.0531 C   0  0  0  0  0  0  0  0  0  0  0  0
   -3.3618    9.7363   -1.8518 C   0  0  0  0  0  0  0  0  0  0  0  0
    0.6328    5.9785   -3.4821 C   0  0  0  0  0  0  0  0  0  0  0  0
    0.6036    2.0402   -2.4966 C   0  0  0  0  0  0  0  0  0  0  0  0
    0.1045    0.7833   -2.1944 C   0  0  0  0  0  0  0  0  0  0  0  0
   -1.3792    0.9733   -1.3195 Cl  0  0  0  0  0  0  0  0  0  0  0  0
  1  2  1  0
  2  3  1  0
  2  5  1  0
  2  7  1  0
  3  4  1  0
  5  6  1  0
  7  8  1  0
  8  9  1  0
  9 10  2  0
  9 29  1  0
 10 11  1  0
 11 12  2  0
 12 13  1  0
 12 28  1  0
 13 14  1  0
 14 15  2  0
 14 27  1  0
 15 16  1  0
 16 17  2  0
 17 18  1  0
 18 19  1  0
 18 27  2  0
 19 20  1  0
 20 21  1  0
 21 22  2  0
 21 26  1  0
 22 23  1  0
 23 24  2  0
 24 25  1  0
 25 26  2  0
 28 29  2  0
 29 30  1  0
M  END
>  <DRUGBANK_ID>  (1) 
DB18151

>  <COMMON_NAME>  (1) 
Mocravimod

>  <CAS_NUMBER>  (1) 
509092-16-4

>  <UNII>  (1) 
X71GCJ0HLI

>  <SYNONYMS>  (1) 
1,3-propanediol, 2-amino-2-(2-(2-chloro-4-((3-(phenylmethoxy)phenyl)thio)phenyl)ethyl)-; 2-amino-2-(2-(2-chloro-4-(3-benzyloxyphenylthio)phenyl)ethyl)-1,3-propanediol; Krp-203 free base

$$$$
