
     RDKit          3D

 12 13  0  0  0  0  0  0  0  0999 V2000
   -0.1341   -1.3095   -0.0400 N   0  0  0  0  0  0  0  0  0  0  0  0
   -0.4112   -2.6925   -0.0147 C   0  0  0  0  0  0  0  0  0  0  0  0
    1.0946   -0.6652    0.0844 C   0  0  0  0  0  0  0  0  0  0  0  0
   -1.0969   -0.3748   -0.2027 N   0  0  0  0  0  0  0  0  0  0  0  0
    0.1087   -3.4880    1.0147 C   0  0  0  0  0  0  0  0  0  0  0  0
   -1.1984   -3.2637   -1.0208 C   0  0  0  0  0  0  0  0  0  0  0  0
    0.8738    0.6340    0.0642 N   0  0  0  0  0  0  0  0  0  0  0  0
    2.2843   -1.2979    0.1344 N   0  0  0  0  0  0  0  0  0  0  0  0
   -0.4821    0.7949   -0.0763 N   0  0  0  0  0  0  0  0  0  0  0  0
   -0.1772   -4.8547    1.0446 C   0  0  0  0  0  0  0  0  0  0  0  0
   -1.4726   -4.6342   -0.9844 C   0  0  0  0  0  0  0  0  0  0  0  0
   -0.9610   -5.4280    0.0435 C   0  0  0  0  0  0  0  0  0  0  0  0
  1  2  1  0
  1  3  1  0
  1  4  1  0
  2  5  2  0
  2  6  1  0
  3  7  2  0
  3  8  1  0
  4  9  2  0
  5 10  1  0
  6 11  2  0
  7  9  1  0
 10 12  2  0
 11 12  1  0
M  END
>  <DRUGBANK_ID>  (1) 
DB12506

>  <COMMON_NAME>  (1) 
Fenamole

>  <CAS_NUMBER>  (1) 
5467-78-7

>  <UNII>  (1) 
K4H264PBQ7

>  <SYNONYMS>  (1) 
Fenamole; Fenamolum; PAT

$$$$
