
     RDKit          3D

 19 20  0  0  0  0  0  0  0  0999 V2000
    2.3813   -0.9348   -0.0128 O   0  0  0  0  0  0  0  0  0  0  0  0
    1.1889   -0.2606   -0.0117 C   0  0  0  0  0  0  0  0  0  0  0  0
    1.1781    1.1396   -0.0071 C   0  0  0  0  0  0  0  0  0  0  0  0
   -0.0413    1.8347    0.0152 C   0  0  0  0  0  0  0  0  0  0  0  0
   -0.0559    3.3046    0.0312 C   0  0  0  0  0  0  0  0  0  0  0  0
   -1.1760    4.0530    0.0743 C   0  0  0  0  0  0  0  0  0  0  0  0
   -1.1610    5.5119    0.0486 C   0  0  0  0  0  0  0  0  0  0  0  0
   -0.3738    6.1948   -0.8825 C   0  0  0  0  0  0  0  0  0  0  0  0
   -0.3868    7.5851   -0.9258 C   0  0  0  0  0  0  0  0  0  0  0  0
   -1.2188    8.2993   -0.0658 C   0  0  0  0  0  0  0  0  0  0  0  0
   -2.0476    7.6236    0.8295 C   0  0  0  0  0  0  0  0  0  0  0  0
   -2.0047    6.2315    0.9031 C   0  0  0  0  0  0  0  0  0  0  0  0
   -1.2297    1.1005    0.0188 C   0  0  0  0  0  0  0  0  0  0  0  0
   -1.2098   -0.2849    0.0035 C   0  0  0  0  0  0  0  0  0  0  0  0
   -2.4045   -0.9510    0.0062 O   0  0  0  0  0  0  0  0  0  0  0  0
   -0.0052   -0.9980   -0.0113 C   0  0  0  0  0  0  0  0  0  0  0  0
    0.0002   -2.5150   -0.0280 C   0  0  0  0  0  0  0  0  0  0  0  0
   -0.6489   -3.0793    1.2395 C   0  0  0  0  0  0  0  0  0  0  0  0
   -0.6703   -3.0506   -1.2972 C   0  0  0  0  0  0  0  0  0  0  0  0
  1  2  1  0
  2  3  2  0
  2 16  1  0
  3  4  1  0
  4  5  1  0
  4 13  2  0
  5  6  2  0
  6  7  1  0
  7  8  2  0
  7 12  1  0
  8  9  1  0
  9 10  2  0
 10 11  1  0
 11 12  2  0
 13 14  1  0
 14 15  1  0
 14 16  2  0
 16 17  1  0
 17 18  1  0
 17 19  1  0
M  END
>  <DRUGBANK_ID>  (1) 
DB06083

>  <COMMON_NAME>  (1) 
Tapinarof

>  <CAS_NUMBER>  (1) 
79338-84-4

>  <UNII>  (1) 
84HW7D0V04

>  <SYNONYMS>  (1) 
3,5-Dihydroxy-4-isopropyl-trans-stilbene; Benvitimod; Tapinarof

$$$$
