
     RDKit          3D

 21 22  0  0  0  0  0  0  0  0999 V2000
   -0.7628   -1.4376    0.6366 O   0  0  0  0  0  0  0  0  0  0  0  0
   -0.1889   -0.7396   -0.4787 C   0  0  2  0  0  0  0  0  0  0  0  0
    1.3375   -0.7102   -0.3828 C   0  0  1  0  0  0  0  0  0  0  0  0
    2.0280   -0.8164   -1.7429 C   0  0  0  0  0  0  0  0  0  0  0  0
    1.3373   -1.7441   -2.5724 O   0  0  0  0  0  0  0  0  0  0  0  0
    1.2796   -3.3125   -1.8445 P   0  0  0  0  0  0  0  0  0  0  0  0
   -0.3386   -3.2166   -2.0257 O   0  0  0  0  0  0  0  0  0  0  0  0
    1.5979   -3.8746   -3.3441 O   0  0  0  0  0  0  0  0  0  0  0  0
    1.2279   -4.7161   -1.1930 O   0  0  0  0  0  0  0  0  0  0  0  0
    1.7053    0.5123    0.2521 O   0  0  0  0  0  0  0  0  0  0  0  0
    0.5103    1.3107    0.4006 C   0  0  2  0  0  0  0  0  0  0  0  0
   -0.5861    0.7122   -0.4676 C   0  0  2  0  0  0  0  0  0  0  0  0
   -1.9021    0.8842    0.0529 O   0  0  0  0  0  0  0  0  0  0  0  0
    0.8546    2.6736    0.0476 N   0  0  0  0  0  0  0  0  0  0  0  0
    1.2175    2.9277   -1.2704 N   0  0  0  0  0  0  0  0  0  0  0  0
    1.7603    4.0766   -1.5198 C   0  0  0  0  0  0  0  0  0  0  0  0
    2.0398    5.0870   -0.4547 C   0  0  0  0  0  0  0  0  0  0  0  0
    2.6484    6.1136   -0.7368 O   0  0  0  0  0  0  0  0  0  0  0  0
    1.5948    4.7597    0.7825 N   0  0  0  0  0  0  0  0  0  0  0  0
    1.0170    3.5677    1.0931 C   0  0  0  0  0  0  0  0  0  0  0  0
    0.7012    3.3376    2.2581 O   0  0  0  0  0  0  0  0  0  0  0  0
  2  1  1  1
  2  3  1  0
  2 12  1  0
  3 10  1  0
  3  4  1  6
  4  5  1  0
  5  6  1  0
  6  7  1  0
  6  8  1  0
  6  9  2  0
 10 11  1  0
 11 12  1  0
 11 14  1  6
 12 13  1  1
 14 15  1  0
 14 20  1  0
 15 16  2  0
 16 17  1  0
 17 18  2  0
 17 19  1  0
 19 20  1  0
 20 21  2  0
M  END
>  <DRUGBANK_ID>  (1) 
DB03718

>  <SECONDARY_ACCESSION_NUMBERS>  (1) 
EXPT03195

>  <COMMON_NAME>  (1) 
6-aza uridine 5'-monophosphate

>  <CAS_NUMBER>  (1) 
2018-19-1

>  <SYNONYMS>  (1) 
6-Aza-UMP; 6-Aza-Uridine Monophosphate; 6-Azauridine-5'-monophosphate

$$$$
