925
     RDKit          3D

 21 22  0  0  1  0  0  0  0  0999 V2000
    1.7337   -0.7791   -0.3348 Cl  0  0  0  0  0  0  0  0  0  0  0  0
    0.9870    4.4174    0.8099 O   0  0  0  0  0  0  0  0  0  0  0  0
    3.5510    2.3324    0.9684 N   0  0  0  0  0  0  0  0  0  0  0  0
    3.7620    3.7962    1.1585 C   0  0  0  0  0  0  0  0  0  0  0  0
    2.1532    2.3292    0.7028 C   0  0  0  0  0  0  0  0  0  0  0  0
    3.8880    1.3938   -0.1294 C   0  0  0  0  0  0  0  0  0  0  0  0
    2.7648    4.5172    0.2857 C   0  0  0  0  0  0  0  0  0  0  0  0
    3.3162    4.5784    2.4201 C   0  0  0  0  0  0  0  0  0  0  0  0
    1.5385    2.8654   -0.9879 C   0  0  0  0  0  0  0  0  0  0  0  0
    3.3804   -0.1456    0.0180 C   0  0  0  0  0  0  0  0  0  0  0  0
    0.9282    2.0009   -1.9053 C   0  0  0  0  0  0  0  0  0  0  0  0
    1.2363    4.3594   -1.5061 C   0  0  0  0  0  0  0  0  0  0  0  0
   -0.2397    3.3161    0.7787 C   0  0  0  0  0  0  0  0  0  0  0  0
    0.2138    2.5809   -2.9987 C   0  0  0  0  0  0  0  0  0  0  0  0
    0.6212    4.9090   -2.5510 C   0  0  0  0  0  0  0  0  0  0  0  0
    0.0644    3.9470   -3.3792 C   0  0  0  0  0  0  0  0  0  0  0  0
   -0.1103    1.9954    1.3816 C   0  0  0  0  0  0  0  0  0  0  0  0
   -1.2447    3.2021   -0.2120 C   0  0  0  0  0  0  0  0  0  0  0  0
   -0.8797    0.8112    1.4114 C   0  0  0  0  0  0  0  0  0  0  0  0
   -1.9044    1.8888   -0.4673 C   0  0  0  0  0  0  0  0  0  0  0  0
   -1.6799    0.7089    0.3009 C   0  0  0  0  0  0  0  0  0  0  0  0
  1 10  1  0
  2  7  1  0
  2 13  1  0
  3  4  1  0
  3  5  1  0
  3  6  1  0
  4  7  1  0
  4  8  1  0
  5  9  1  0
  6 10  1  0
  9 11  2  0
  9 12  1  0
 11 14  1  0
 12 15  2  0
 13 17  2  0
 13 18  1  0
 14 16  2  0
 15 16  1  0
 17 19  1  0
 18 20  2  0
 19 21  2  0
 20 21  1  0
M  END
>  <DRUGBANK_ID>  (1) 
DB00925

>  <SECONDARY_ACCESSION_NUMBERS>  (1) 
APRD00651

>  <COMMON_NAME>  (1) 
Phenoxybenzamine

>  <CAS_NUMBER>  (1) 
59-96-1

>  <UNII>  (1) 
0TTZ664R7Z

>  <SYNONYMS>  (1) 
Fenossibenzamina; Fenoxibenzamina; Phenoxybenzamine; Phenoxybenzaminum; POB

$$$$
