
     RDKit          3D

 13 12  0  0  0  0  0  0  0  0999 V2000
    1.0836    0.1310    0.2111 C   0  0  0  0  0  0  0  0  0  0  0  0
    0.5659   -1.2675   -0.0653 C   0  0  0  0  0  0  0  0  0  0  0  0
    1.0199   -2.3295    0.9383 C   0  0  0  0  0  0  0  0  0  0  0  0
   -0.9713   -1.2846   -0.3923 C   0  0  0  0  0  0  0  0  0  0  0  0
   -1.6637   -0.1794   -1.3131 C   0  0  0  0  0  0  0  0  0  0  0  0
   -1.4454   -0.1369   -2.8155 C   0  0  0  0  0  0  0  0  0  0  0  0
   -2.2062   -0.7218   -3.7538 C   0  0  0  0  0  0  0  0  0  0  0  0
   -1.4049   -2.6738   -0.8359 C   0  0  0  0  0  0  0  0  0  0  0  0
   -2.1815   -3.3358   -0.1405 O   0  0  0  0  0  0  0  0  0  0  0  0
   -0.9267   -3.2094   -2.0256 N   0  0  0  0  0  0  0  0  0  0  0  0
   -0.0841   -2.8312   -3.0501 C   0  0  0  0  0  0  0  0  0  0  0  0
   -0.0924   -3.4085   -4.1432 O   0  0  0  0  0  0  0  0  0  0  0  0
    0.7581   -1.8016   -2.8634 N   0  0  0  0  0  0  0  0  0  0  0  0
  1  2  1  0
  2  3  1  0
  2  4  1  0
  4  5  1  0
  4  8  1  0
  5  6  1  0
  6  7  2  0
  8  9  2  0
  8 10  1  0
 10 11  1  0
 11 12  2  0
 11 13  1  0
M  END
>  <DRUGBANK_ID>  (1) 
DB13221

>  <COMMON_NAME>  (1) 
Apronalide

>  <CAS_NUMBER>  (1) 
528-92-7

>  <UNII>  (1) 
V18J24E25E

>  <SYNONYMS>  (1) 
Apronal

$$$$
