
     RDKit          3D

 32 32  0  0  1  0  0  0  0  0999 V2000
   -0.9432    1.2875    0.1279 C   0  0  0  0  0  0  0  0  0  0  0  0
   -1.6829    0.0452   -0.0806 C   0  0  0  0  0  0  0  0  0  0  0  0
   -1.0551   -1.1328   -0.4550 C   0  0  0  0  0  0  0  0  0  0  0  0
    0.2795   -1.0506   -0.5717 C   0  0  0  0  0  0  0  0  0  0  0  0
    0.8144    0.2081   -0.7171 C   0  0  0  0  0  0  0  0  0  0  0  0
    0.4033    1.3724   -0.1859 C   0  0  0  0  0  0  0  0  0  0  0  0
    1.3441    2.4771   -0.2013 N   0  0  0  0  0  0  0  0  0  0  0  0
    2.7367    2.6386   -0.4012 C   0  0  0  0  0  0  0  0  0  0  0  0
    3.2088    3.7774   -0.4775 O   0  0  0  0  0  0  0  0  0  0  0  0
    3.6615    1.6317   -0.5034 N   0  0  0  0  0  0  0  0  0  0  0  0
    3.4581    0.2941   -0.1529 C   0  0  0  0  0  0  0  0  0  0  0  0
    3.4579   -0.6744   -1.3783 C   0  0  0  0  0  0  0  0  0  0  0  0
    4.9061   -0.9989   -1.6073 C   0  0  0  0  0  0  0  0  0  0  0  0
    5.5052   -1.7900   -0.4250 C   0  0  0  0  0  0  0  0  0  0  0  0
    4.8682   -3.1656   -0.2798 C   0  0  1  0  0  0  0  0  0  0  0  0
    5.0252   -4.1028   -1.4658 C   0  0  0  0  0  0  0  0  0  0  0  0
    5.5514   -5.1988   -1.4593 O   0  0  0  0  0  0  0  0  0  0  0  0
    4.4211   -3.6120   -2.5793 O   0  0  0  0  0  0  0  0  0  0  0  0
    5.0269   -3.7415    1.0641 N   0  0  0  0  0  0  0  0  0  0  0  0
    4.2055   -4.1319    2.0615 C   0  0  0  0  0  0  0  0  0  0  0  0
    4.6861   -4.6403    3.0747 O   0  0  0  0  0  0  0  0  0  0  0  0
    2.8716   -4.0132    2.0362 N   0  0  0  0  0  0  0  0  0  0  0  0
    2.0224   -3.2587    1.1970 C   0  0  1  0  0  0  0  0  0  0  0  0
    1.0333   -4.0712    0.4060 C   0  0  0  0  0  0  0  0  0  0  0  0
   -0.1519   -4.3745    1.2865 C   0  0  0  0  0  0  0  0  0  0  0  0
   -1.0832   -3.2823    1.8204 C   0  0  0  0  0  0  0  0  0  0  0  0
   -2.2291   -3.0383    1.5040 O   0  0  0  0  0  0  0  0  0  0  0  0
   -0.5918   -2.5061    2.7605 O   0  0  0  0  0  0  0  0  0  0  0  0
    1.8650   -1.9236    1.8411 C   0  0  0  0  0  0  0  0  0  0  0  0
    2.3248   -1.0009    1.3062 O   0  0  0  0  0  0  0  0  0  0  0  0
    1.2584   -1.5300    2.9268 O   0  0  0  0  0  0  0  0  0  0  0  0
   -1.9956   -2.7714   -1.4516 I   0  0  0  0  0  0  0  0  0  0  0  0
  1  2  2  0
  1  6  1  0
  2  3  1  0
  3  4  2  0
  3 32  1  0
  4  5  1  0
  5  6  2  0
  6  7  1  0
  7  8  1  0
  8  9  2  0
  8 10  1  0
 10 11  1  0
 11 12  1  0
 12 13  1  0
 13 14  1  0
 15 14  1  6
 15 16  1  0
 15 19  1  0
 16 17  2  0
 16 18  1  0
 19 20  1  0
 20 21  2  0
 20 22  1  0
 23 22  1  0
 23 24  1  1
 23 29  1  0
 24 25  1  0
 25 26  1  0
 26 27  2  0
 26 28  1  0
 29 30  2  0
 29 31  1  0
M  ISO  1  32 123
M  END
>  <DRUGBANK_ID>  (1) 
DB12994

>  <COMMON_NAME>  (1) 
MIP-1095 I-123

>  <CAS_NUMBER>  (1) 
949575-25-1

>  <UNII>  (1) 
HD4940602J

$$$$
