548
     RDKit          3D

 13 12  0  0  0  0  0  0  0  0999 V2000
    0.9910   -0.1355   -0.2499 O   0  0  0  0  0  0  0  0  0  0  0  0
   -4.5362    5.0688    2.3725 O   0  0  0  0  0  0  0  0  0  0  0  0
    1.0888   -2.2658   -0.9059 O   0  0  0  0  0  0  0  0  0  0  0  0
   -3.3825    4.3481    0.5945 O   0  0  0  0  0  0  0  0  0  0  0  0
   -1.7101    1.4187    0.6374 C   0  0  0  0  0  0  0  0  0  0  0  0
   -1.1911    0.2697    1.5096 C   0  0  0  0  0  0  0  0  0  0  0  0
   -3.2418    1.4305    0.6213 C   0  0  0  0  0  0  0  0  0  0  0  0
   -1.5944   -1.0890    0.9272 C   0  0  0  0  0  0  0  0  0  0  0  0
   -3.8089    1.6846    2.0231 C   0  0  0  0  0  0  0  0  0  0  0  0
   -1.0960   -1.2782   -0.5067 C   0  0  0  0  0  0  0  0  0  0  0  0
   -3.3193    3.0073    2.6162 C   0  0  0  0  0  0  0  0  0  0  0  0
    0.4076   -1.3000   -0.5858 C   0  0  0  0  0  0  0  0  0  0  0  0
   -3.7324    4.1830    1.7540 C   0  0  0  0  0  0  0  0  0  0  0  0
  1 12  1  0
  2 13  1  0
  3 12  2  0
  4 13  2  0
  5  6  1  0
  5  7  1  0
  6  8  1  0
  7  9  1  0
  8 10  1  0
  9 11  1  0
 10 12  1  0
 11 13  1  0
M  END
>  <DRUGBANK_ID>  (1) 
DB00548

>  <SECONDARY_ACCESSION_NUMBERS>  (1) 
APRD00812; EXPT00598

>  <COMMON_NAME>  (1) 
Azelaic acid

>  <CAS_NUMBER>  (1) 
123-99-9

>  <UNII>  (1) 
F2VW3D43YT

>  <SYNONYMS>  (1) 
1,7-dicarboxyheptane; 1,7-Heptanedicarboxylic acid; 1,9-nonanedioic acid; Acide azélaïque; Ácido azelaico; Acidum acelaicum; Acidum azelaicum; Anchoic acid; Azelaic acid; Azelainsäure; Lepargylic acid; n-nonanedioic acid; Nonandisäure; Nonanedioic acid

$$$$
