1395
     RDKit          3D

 27 33  0  0  1  0  0  0  0  0999 V2000
   -4.4365   11.0641    2.8305 O   0  0  0  0  0  0  0  0  0  0  0  0
   -6.2430    9.9927    1.8719 O   0  0  0  0  0  0  0  0  0  0  0  0
    3.2632    6.0283    5.6565 O   0  0  0  0  0  0  0  0  0  0  0  0
   -1.8803    9.6551    3.8772 C   0  0  1  0  0  0  0  0  0  0  0  0
   -1.5463   11.2374    4.3732 C   0  0  1  0  0  0  0  0  0  0  0  0
   -2.3761   12.1954    3.3612 C   0  0  1  0  0  0  0  0  0  0  0  0
   -2.1750   10.0503    2.4959 C   0  0  1  0  0  0  0  0  0  0  0  0
   -1.0265    8.2020    3.2429 C   0  0  1  0  0  0  0  0  0  0  0  0
   -3.0805   11.2760    2.4186 C   0  0  1  0  0  0  0  0  0  0  0  0
   -2.5615   12.3116    4.8185 C   0  0  0  0  0  0  0  0  0  0  0  0
   -1.3960    6.6423    2.5496 C   0  0  1  0  0  0  0  0  0  0  0  0
    0.2645    8.3262    2.5193 C   0  0  2  0  0  0  0  0  0  0  0  0
   -0.4132    5.4576    2.6320 C   0  0  2  0  0  0  0  0  0  0  0  0
   -0.5981   10.5226    2.0250 C   0  0  0  0  0  0  0  0  0  0  0  0
   -1.6794    5.5106    3.5237 C   0  0  0  0  0  0  0  0  0  0  0  0
    1.1995    7.3018    3.1894 C   0  0  2  0  0  0  0  0  0  0  0  0
    0.5984    9.7652    2.6461 C   0  0  0  0  0  0  0  0  0  0  0  0
   -3.1812   11.5570    0.9328 C   0  0  0  0  0  0  0  0  0  0  0  0
    1.0567    5.8080    2.9527 C   0  0  0  0  0  0  0  0  0  0  0  0
   -3.0001    8.8262    2.0691 C   0  0  0  0  0  0  0  0  0  0  0  0
    0.8213    7.3003    4.7597 C   0  0  0  0  0  0  0  0  0  0  0  0
   -4.3467   10.6793    0.5007 C   0  0  0  0  0  0  0  0  0  0  0  0
    2.5545    7.6892    2.5692 C   0  0  0  0  0  0  0  0  0  0  0  0
   -5.1480   10.5904    1.7619 C   0  0  0  0  0  0  0  0  0  0  0  0
    2.0895    5.1088    3.6015 C   0  0  0  0  0  0  0  0  0  0  0  0
    0.9438    6.0160    5.5587 C   0  0  0  0  0  0  0  0  0  0  0  0
    2.2490    5.6531    5.0865 C   0  0  0  0  0  0  0  0  0  0  0  0
  1 24  1  0
  2 24  2  0
  3 27  2  0
  4  5  1  6
  4  7  1  0
  4  8  1  0
  5  6  1  0
  5 10  1  1
  6  9  1  0
  6 10  1  1
  7  9  1  0
  7 14  1  0
  7 20  1  6
  8 11  1  6
  8 12  1  0
  9  1  1  0
  9 18  1  6
 11 13  1  0
 11 15  1  1
 12 16  1  0
 12 17  1  1
 13 15  1  1
 13 19  1  0
 14 17  1  0
 16 19  1  0
 16 21  1  0
 16 23  1  1
 18 22  1  0
 19 25  2  0
 21 26  1  0
 22 24  1  0
 25 27  1  0
 26 27  1  0
M  END
>  <DRUGBANK_ID>  (1) 
DB01395

>  <COMMON_NAME>  (1) 
Drospirenone

>  <CAS_NUMBER>  (1) 
67392-87-4

>  <UNII>  (1) 
N295J34A25

>  <SYNONYMS>  (1) 
1,2-Dihydrospirorenone; 6β,7β;15β,16β-Dimethylene-3-oxo-17α-pregn-4-ene-21,17-carbolactone; Dehydrospirorenone; Drospirenona; Drospirenone; Drospirénone; Drospirenonum; DRSP

$$$$
