
     RDKit          3D

 27 29  0  0  1  0  0  0  0  0999 V2000
    1.0877    0.0523    0.0009 C   0  0  0  0  0  0  0  0  0  0  0  0
    0.5699    1.1491   -0.8886 C   0  0  0  0  0  0  0  0  0  0  0  0
   -0.1919    0.9483   -1.8279 O   0  0  0  0  0  0  0  0  0  0  0  0
    0.9308    2.5331   -0.5424 C   0  0  0  0  0  0  0  0  0  0  0  0
    2.2403    2.8460   -0.1481 C   0  0  0  0  0  0  0  0  0  0  0  0
    2.5198    4.1346    0.2576 C   0  0  0  0  0  0  0  0  0  0  0  0
    1.4649    5.0493    0.2844 C   0  0  0  0  0  0  0  0  0  0  0  0
    0.1587    4.7949   -0.2111 C   0  0  0  0  0  0  0  0  0  0  0  0
   -0.0899    3.5029   -0.6188 C   0  0  0  0  0  0  0  0  0  0  0  0
   -0.8792    5.9418   -0.3877 C   0  0  1  0  0  0  0  0  0  0  0  0
   -0.4948    7.0815    0.4409 C   0  0  1  0  0  0  0  0  0  0  0  0
    0.9518    7.1733   -0.1195 C   0  0  0  0  0  0  0  0  0  0  0  0
    1.7642    6.3048    0.7107 O   0  0  0  0  0  0  0  0  0  0  0  0
    1.3513    6.4749   -1.9833 C   0  0  0  0  0  0  0  0  0  0  0  0
    1.1351    8.7169    0.7370 C   0  0  0  0  0  0  0  0  0  0  0  0
   -1.3846    8.2008    0.1802 O   0  0  0  0  0  0  0  0  0  0  0  0
   -0.9702    6.6619   -1.7411 N   0  0  0  0  0  0  0  0  0  0  0  0
   -0.3319    8.0286   -2.3024 C   0  0  0  0  0  0  0  0  0  0  0  0
   -0.8088    8.3035   -3.3557 O   0  0  0  0  0  0  0  0  0  0  0  0
    1.3777    8.7715   -1.8527 C   0  0  0  0  0  0  0  0  0  0  0  0
    2.7608    8.0836   -1.2321 C   0  0  0  0  0  0  0  0  0  0  0  0
    3.8568    8.5251   -0.5360 C   0  0  0  0  0  0  0  0  0  0  0  0
    3.7424    9.8580   -0.4632 C   0  0  0  0  0  0  0  0  0  0  0  0
    2.7140   10.5987   -1.2510 C   0  0  0  0  0  0  0  0  0  0  0  0
    1.6058   10.0750   -2.0384 C   0  0  0  0  0  0  0  0  0  0  0  0
    2.5563   12.2612   -0.8308 Cl  0  0  0  0  0  0  0  0  0  0  0  0
    4.2371   10.3782    0.6740 F   0  0  0  0  0  0  0  0  0  0  0  0
  1  2  1  0
  2  3  2  0
  2  4  1  0
  4  5  2  0
  4  9  1  0
  5  6  1  0
  6  7  2  0
  7  8  1  0
  7 13  1  0
  8  9  2  0
  8 10  1  0
 10 11  1  0
 10 17  1  6
 11 12  1  0
 11 16  1  6
 12 13  1  0
 12 14  1  0
 12 15  1  0
 17 18  1  0
 18 19  2  0
 18 20  1  0
 20 21  2  0
 20 25  1  0
 21 22  1  0
 22 23  2  0
 23 24  1  0
 23 27  1  0
 24 25  2  0
 24 26  1  0
M  END
>  <DRUGBANK_ID>  (1) 
DB06578

>  <COMMON_NAME>  (1) 
Tonabersat

>  <CAS_NUMBER>  (1) 
175013-84-0

>  <UNII>  (1) 
2XD9773ZMN

>  <SYNONYMS>  (1) 
Tonabersat

$$$$
