
     RDKit          3D

 12 11  0  0  0  0  0  0  0  0999 V2000
    0.9964    0.0669    0.0174 C   0  0  0  0  0  0  0  0  0  0  0  0
    0.8069    1.4721    0.4228 N   0  0  0  0  0  0  0  0  0  0  0  0
   -0.2496    2.2053   -0.3267 C   0  0  0  0  0  0  0  0  0  0  0  0
   -1.6129    2.3602    0.3942 C   0  0  0  0  0  0  0  0  0  0  0  0
   -1.5093    2.9490    1.6999 O   0  0  0  0  0  0  0  0  0  0  0  0
   -0.5147    1.9401    2.6928 P   0  0  0  0  0  0  0  0  0  0  0  0
   -0.7239    2.8860    3.8696 O   0  0  0  0  0  0  0  0  0  0  0  0
   -1.7066    0.8284    2.6770 O   0  0  0  0  0  0  0  0  0  0  0  0
    0.4799    0.9312    3.6857 O   0  0  0  0  0  0  0  0  0  0  0  0
    1.6655    2.0485    1.3302 C   0  0  0  0  0  0  0  0  0  0  0  0
    2.3818    1.3640    2.1828 N   0  0  0  0  0  0  0  0  0  0  0  0
    1.4701    3.3407    1.6807 N   0  0  0  0  0  0  0  0  0  0  0  0
  1  2  1  0
  2  3  1  0
  2 10  1  0
  3  4  1  0
  4  5  1  0
  5  6  1  0
  6  7  2  0
  6  8  1  0
  6  9  1  0
 10 11  2  0
 10 12  1  0
M  END
>  <DRUGBANK_ID>  (1) 
DB13071

>  <COMMON_NAME>  (1) 
Creatinolfosfate

>  <CAS_NUMBER>  (1) 
6903-79-3

>  <UNII>  (1) 
5O564RN1QD

>  <SYNONYMS>  (1) 
COP; Creatinolfosfate

$$$$
