AHC
     RDKit          3D

 12 12  0  0  0  0  0  0  0  0999 V2000
    1.0843   -0.1066   -0.0419 C   0  0  0  0  0  0  0  0  0  0  0  0
    0.5673   -1.0797   -1.0588 C   0  0  0  0  0  0  0  0  0  0  0  0
   -0.1461   -2.0516   -0.8586 O   0  0  0  0  0  0  0  0  0  0  0  0
    0.9656   -0.7662   -2.3065 O   0  0  0  0  0  0  0  0  0  0  0  0
    0.6004   -0.4804    1.3592 C   0  0  0  0  0  0  0  0  0  0  0  0
    1.0318    0.5041    2.4171 C   0  0  0  0  0  0  0  0  0  0  0  0
    0.7406    1.8643    2.2642 C   0  0  0  0  0  0  0  0  0  0  0  0
    1.6538    0.0793    3.5968 C   0  0  0  0  0  0  0  0  0  0  0  0
    1.0581    2.7790    3.2660 C   0  0  0  0  0  0  0  0  0  0  0  0
    1.9550    1.0016    4.6064 C   0  0  0  0  0  0  0  0  0  0  0  0
    1.6405    2.3541    4.4578 C   0  0  0  0  0  0  0  0  0  0  0  0
    1.9776    3.2760    5.4319 N   0  0  0  0  0  0  0  0  0  0  0  0
  1  2  1  0
  1  5  1  0
  2  3  2  0
  2  4  1  0
  5  6  1  0
  6  7  2  0
  6  8  1  0
  7  9  1  0
  8 10  2  0
  9 11  2  0
 10 11  1  0
 11 12  1  0
M  END
>  <DRUGBANK_ID>  (1) 
DB03210

>  <SECONDARY_ACCESSION_NUMBERS>  (1) 
EXPT00463

>  <COMMON_NAME>  (1) 
4-Aminohydrocinnamic Acid

>  <UNII>  (1) 
00J8IS9IQI

$$$$
