255
     RDKit          3D

 31 34  0  0  0  0  0  0  0  0999 V2000
    1.2871   -0.4181   -0.1270 O   0  0  0  0  0  0  0  0  0  0  0  0
    2.7274   -0.4407   -0.4017 S   0  0  0  0  0  0  0  0  0  0  0  0
    3.2692   -1.7423   -0.7004 O   0  0  0  0  0  0  0  0  0  0  0  0
    3.5697    0.1166    1.1417 N   0  0  0  0  0  0  0  0  0  0  0  0
    5.0394    0.3016    1.4121 C   0  0  0  0  0  0  0  0  0  0  0  0
    5.3338    0.9369    2.8506 C   0  0  0  0  0  0  0  0  0  0  0  0
    5.7588    1.1570    0.3725 C   0  0  0  0  0  0  0  0  0  0  0  0
    5.5070   -1.1167    1.3347 C   0  0  0  0  0  0  0  0  0  0  0  0
    3.0642    0.6598   -2.0410 C   0  0  0  0  0  0  0  0  0  0  0  0
    2.2874    1.5883   -2.7107 C   0  0  0  0  0  0  0  0  0  0  0  0
    2.6582    2.5355   -3.7692 C   0  0  0  0  0  0  0  0  0  0  0  0
    3.9488    2.8333   -4.2469 C   0  0  0  0  0  0  0  0  0  0  0  0
    4.6184    1.5993   -3.9086 C   0  0  0  0  0  0  0  0  0  0  0  0
    4.1335    0.4845   -2.8765 C   0  0  0  0  0  0  0  0  0  0  0  0
    4.2854    4.4308   -4.9939 C   0  0  0  0  0  0  0  0  0  0  0  0
    4.2142    5.9147   -5.2657 C   0  0  0  0  0  0  0  0  0  0  0  0
    3.2174    7.0834   -4.8566 N   0  0  0  0  0  0  0  0  0  0  0  0
    2.3751    6.7658   -3.8273 C   0  0  0  0  0  0  0  0  0  0  0  0
    1.4929    7.4362   -2.8677 C   0  0  0  0  0  0  0  0  0  0  0  0
    1.1727    6.8254   -1.6512 C   0  0  0  0  0  0  0  0  0  0  0  0
    1.7464    5.6603   -1.3873 C   0  0  0  0  0  0  0  0  0  0  0  0
    2.6597    5.0930   -2.2503 C   0  0  0  0  0  0  0  0  0  0  0  0
    2.6081    5.5019   -3.6051 C   0  0  0  0  0  0  0  0  0  0  0  0
    3.0131    4.7313   -4.7959 C   0  0  0  0  0  0  0  0  0  0  0  0
    3.2837    4.0006   -1.7585 N   0  0  0  0  0  0  0  0  0  0  0  0
    2.7670    3.2704   -0.6936 C   0  0  0  0  0  0  0  0  0  0  0  0
    3.6809    2.9899    0.1190 N   0  0  0  0  0  0  0  0  0  0  0  0
    3.1546    2.5738    1.2688 C   0  0  0  0  0  0  0  0  0  0  0  0
    1.8643    2.0823    1.5499 C   0  0  0  0  0  0  0  0  0  0  0  0
    0.9251    2.1416    0.6123 C   0  0  0  0  0  0  0  0  0  0  0  0
    1.3410    2.8832   -0.4684 C   0  0  0  0  0  0  0  0  0  0  0  0
  2  1  2  0
  2  4  1  0
  3  2  2  0
  4  5  1  0
  5  7  1  0
  5  6  1  0
  8  5  1  0
  9  2  1  0
 10  9  2  0
 11 10  1  0
 12 11  2  0
 12 13  1  0
 13 14  2  0
 14  9  1  0
 15 12  1  0
 16 15  2  0
 17 16  1  0
 18 17  2  0
 18 23  1  0
 19 18  1  0
 20 19  2  0
 20 21  1  0
 21 22  2  0
 22 23  1  0
 22 25  1  0
 23 24  2  0
 24 15  1  0
 25 26  1  0
 26 27  2  0
 27 28  1  0
 29 28  2  0
 30 29  1  0
 31 26  1  0
 31 30  2  0
M  END
>  <DRUGBANK_ID>  (1) 
DB06933

>  <COMMON_NAME>  (1) 
N-(tert-butyl)-4-[5-(pyridin-2-ylamino)quinolin-3-yl]benzenesulfonamide

$$$$
