
     RDKit          3D

 19 20  0  0  0  0  0  0  0  0999 V2000
    1.1199    1.4525   -0.1894 C   0  0  1  0  0  0  0  0  0  0  0  0
   -0.0908    2.0044    0.3525 O   0  0  0  0  0  0  0  0  0  0  0  0
    1.2568   -0.0194    0.2439 C   0  0  1  0  0  0  0  0  0  0  0  0
    1.1806    1.5009   -1.6236 O   0  0  0  0  0  0  0  0  0  0  0  0
   -1.2632    1.3547   -0.1696 C   0  0  1  0  0  0  0  0  0  0  0  0
    0.0207   -0.8183   -0.2054 C   0  0  2  0  0  0  0  0  0  0  0  0
    2.4574   -0.6016   -0.2800 O   0  0  0  0  0  0  0  0  0  0  0  0
    1.1035    2.7310   -2.2157 C   0  0  0  0  0  0  0  0  0  0  0  0
   -1.2761   -0.1198    0.2440 C   0  0  2  0  0  0  0  0  0  0  0  0
   -2.5016    2.0857    0.3607 C   0  0  0  0  0  0  0  0  0  0  0  0
    0.0686   -2.1526    0.3197 O   0  0  0  0  0  0  0  0  0  0  0  0
    1.0389    3.9557   -1.5443 C   0  0  0  0  0  0  0  0  0  0  0  0
    1.0620    2.7096   -3.6104 C   0  0  0  0  0  0  0  0  0  0  0  0
   -2.4289   -0.7796   -0.2792 O   0  0  0  0  0  0  0  0  0  0  0  0
   -2.4770    3.4571   -0.0354 O   0  0  0  0  0  0  0  0  0  0  0  0
    0.9194    5.1468   -2.2618 C   0  0  0  0  0  0  0  0  0  0  0  0
    0.9528    3.8992   -4.3303 C   0  0  0  0  0  0  0  0  0  0  0  0
    0.8806    5.1090   -3.6487 C   0  0  0  0  0  0  0  0  0  0  0  0
    0.7735    6.2486   -4.3870 O   0  0  0  0  0  0  0  0  0  0  0  0
  1  2  1  0
  1  3  1  0
  1  4  1  6
  2  5  1  0
  3  6  1  0
  3  7  1  6
  4  8  1  0
  5  9  1  0
  5 10  1  1
  6 11  1  1
  6  9  1  0
  8 12  2  0
  8 13  1  0
  9 14  1  6
 10 15  1  0
 12 16  1  0
 13 17  2  0
 16 18  2  0
 17 18  1  0
 18 19  1  0
M  END
>  <DRUGBANK_ID>  (1) 
DB14109

>  <COMMON_NAME>  (1) 
alpha-Arbutin

>  <CAS_NUMBER>  (1) 
84380-01-8

>  <UNII>  (1) 
72VUP07IT5

>  <SYNONYMS>  (1) 
Alpha Arbutin; alpha-D-Glucopyranoside, 4-hydroxyphenyl; Î±-Arbutin

$$$$
