
     RDKit          3D

  8  7  0  0  0  0  0  0  0  0999 V2000
    1.0475   -0.1011    0.0268 C   0  0  0  0  0  0  0  0  0  0  0  0
    0.5631    1.3490    0.0736 C   0  0  0  0  0  0  0  0  0  0  0  0
    1.0748    2.1011   -1.1588 C   0  0  0  0  0  0  0  0  0  0  0  0
   -0.8593    1.3975    0.0054 O   0  0  0  0  0  0  0  0  0  0  0  0
    1.0400    2.0352    1.3644 C   0  0  0  0  0  0  0  0  0  0  0  0
    0.5121    1.3443    2.6075 C   0  0  0  0  0  0  0  0  0  0  0  0
    1.4692    0.8392    3.4198 O   0  0  0  0  0  0  0  0  0  0  0  0
   -0.6724    1.2284    2.8906 O   0  0  0  0  0  0  0  0  0  0  0  0
  1  2  1  0
  2  3  1  0
  2  4  1  0
  2  5  1  0
  5  6  1  0
  6  7  1  0
  6  8  2  0
M  END
>  <DRUGBANK_ID>  (1) 
DB15344

>  <COMMON_NAME>  (1) 
beta-Hydroxyisovaleric acid

>  <CAS_NUMBER>  (1) 
625-08-1

>  <UNII>  (1) 
3F752311CD

>  <SYNONYMS>  (1) 
beta-Hydroxy-methylbutyrate

$$$$
