
     RDKit          3D

 20 22  0  0  1  0  0  0  0  0999 V2000
    1.3691   -0.2183    0.0219 C   0  0  0  0  0  0  0  0  0  0  0  0
    0.4939   -1.3039    0.0282 C   0  0  0  0  0  0  0  0  0  0  0  0
    0.8644    1.0811    0.0077 C   0  0  0  0  0  0  0  0  0  0  0  0
   -0.8889   -1.0915    0.0077 C   0  0  0  0  0  0  0  0  0  0  0  0
   -0.5184    1.2945    0.0118 C   0  0  0  0  0  0  0  0  0  0  0  0
   -3.8385   -0.0125    0.6738 C   0  0  0  0  0  0  0  0  0  0  0  0
   -6.8289   -1.1810    0.7439 C   0  0  0  0  0  0  0  0  0  0  0  0
   -1.4056    0.2097   -0.0087 C   0  0  0  0  0  0  0  0  0  0  0  0
   -2.8313    0.4393   -0.1533 C   0  0  0  0  0  0  0  0  0  0  0  0
   -6.3571    0.2819    0.6325 C   0  0  2  0  0  0  0  0  0  0  0  0
   -7.4411    1.0680   -0.1443 C   0  0  2  0  0  0  0  0  0  0  0  0
   -7.1301    1.5668   -1.5644 C   0  0  1  0  0  0  0  0  0  0  0  0
   -5.6581    1.8097   -1.9183 C   0  0  2  0  0  0  0  0  0  0  0  0
   -4.6739    1.1451   -1.0228 C   0  0  0  0  0  0  0  0  0  0  0  0
   -3.3598    1.1541   -1.1917 N   0  0  0  0  0  0  0  0  0  0  0  0
   -5.0082    0.4270    0.0949 N   0  0  0  0  0  0  0  0  0  0  0  0
   -6.3661   -1.7737    1.9521 O   0  0  0  0  0  0  0  0  0  0  0  0
   -7.9222    2.1495    0.6696 O   0  0  0  0  0  0  0  0  0  0  0  0
   -7.7352    0.6665   -2.5110 O   0  0  0  0  0  0  0  0  0  0  0  0
   -5.3772    3.2113   -1.9030 O   0  0  0  0  0  0  0  0  0  0  0  0
  2  1  2  0
  3  1  1  0
  4  2  1  0
  5  3  2  0
  8  4  2  0
  8  5  1  0
  9  6  2  0
  9  8  1  0
 10  7  1  6
 11 10  1  0
 11 18  1  1
 12 11  1  0
 12 19  1  6
 13 12  1  0
 13 20  1  1
 14 13  1  0
 15  9  1  0
 15 14  2  0
 16  6  1  0
 16 10  1  0
 16 14  1  0
 17  7  1  0
M  END
>  <DRUGBANK_ID>  (1) 
DB02862

>  <SECONDARY_ACCESSION_NUMBERS>  (1) 
EXPT01838

>  <COMMON_NAME>  (1) 
Gluco-Phenylimidazole

$$$$
