929
     RDKit          3D

 27 27  0  0  1  0  0  0  0  0999 V2000
   -0.2552   -1.0417    1.4909 O   0  0  0  0  0  0  0  0  0  0  0  0
   -1.3636   -3.5956   -1.4272 O   0  0  0  0  0  0  0  0  0  0  0  0
    4.9624    0.5189    2.6808 O   0  0  0  0  0  0  0  0  0  0  0  0
    6.2658   -9.1381    0.8347 O   0  0  0  0  0  0  0  0  0  0  0  0
    5.9620   -7.1912   -0.1999 O   0  0  0  0  0  0  0  0  0  0  0  0
    0.8566   -3.6240   -0.4772 C   0  0  1  0  0  0  0  0  0  0  0  0
    1.3230   -2.6285    0.5960 C   0  0  2  0  0  0  0  0  0  0  0  0
    0.5625   -1.3082    0.3495 C   0  0  1  0  0  0  0  0  0  0  0  0
   -0.3188   -1.5036   -0.8740 C   0  0  0  0  0  0  0  0  0  0  0  0
    0.6663   -5.0498    0.0336 C   0  0  0  0  0  0  0  0  0  0  0  0
   -0.4293   -2.9939   -0.9332 C   0  0  0  0  0  0  0  0  0  0  0  0
    2.8122   -2.4439    0.5968 C   0  0  0  0  0  0  0  0  0  0  0  0
    1.4319   -6.0420   -0.8443 C   0  0  0  0  0  0  0  0  0  0  0  0
    2.9466   -5.8107   -0.7827 C   0  0  0  0  0  0  0  0  0  0  0  0
    3.4512   -1.8267    1.5984 C   0  0  0  0  0  0  0  0  0  0  0  0
    5.3501   -0.1697    1.4794 C   0  0  2  0  0  0  0  0  0  0  0  0
    4.9360   -1.6499    1.5948 C   0  0  0  0  0  0  0  0  0  0  0  0
    3.4843   -5.9260    0.6492 C   0  0  0  0  0  0  0  0  0  0  0  0
    6.8951   -0.0978    1.4141 C   0  0  0  0  0  0  0  0  0  0  0  0
    4.6105    0.5342    0.3289 C   0  0  0  0  0  0  0  0  0  0  0  0
    3.2833   -7.3316    1.2172 C   0  0  0  0  0  0  0  0  0  0  0  0
    7.5580   -0.8113    0.2203 C   0  0  0  0  0  0  0  0  0  0  0  0
    7.2012   -0.2554   -1.1570 C   0  0  0  0  0  0  0  0  0  0  0  0
    3.9589   -8.4034    0.3651 C   0  0  0  0  0  0  0  0  0  0  0  0
    7.4385    1.2448   -1.2427 C   0  0  0  0  0  0  0  0  0  0  0  0
    5.4630   -8.1924    0.3038 C   0  0  0  0  0  0  0  0  0  0  0  0
    5.7420  -10.3789    1.3019 C   0  0  0  0  0  0  0  0  0  0  0  0
  2 11  2  0
  3 16  1  0
  4 26  1  0
  4 27  1  0
  5 26  2  0
  6  7  1  0
  6 11  1  0
  6 10  1  1
  7  8  1  0
  7 12  1  6
  8  9  1  0
  8  1  1  1
  9 11  1  0
 10 13  1  0
 12 15  2  0
 13 14  1  0
 14 18  1  0
 15 17  1  0
 16 17  1  0
 16 19  1  0
 16 20  1  6
 18 21  1  0
 19 22  1  0
 21 24  1  0
 22 23  1  0
 23 25  1  0
 24 26  1  0
M  END
>  <DRUGBANK_ID>  (1) 
DB00929

>  <SECONDARY_ACCESSION_NUMBERS>  (1) 
APRD00037; DB05379

>  <COMMON_NAME>  (1) 
Misoprostol

>  <CAS_NUMBER>  (1) 
59122-46-2

>  <UNII>  (1) 
0E43V0BB57

>  <SYNONYMS>  (1) 
Misoprostol; Misoprostolum

$$$$
