
     RDKit          3D

 33 37  0  0  0  0  0  0  0  0999 V2000
    1.0311   -0.0803   -0.1068 C   0  0  0  0  0  0  0  0  0  0  0  0
   -2.7978   -0.7159    6.1777 C   0  0  0  0  0  0  0  0  0  0  0  0
   -3.3440   -0.5922    4.9028 C   0  0  0  0  0  0  0  0  0  0  0  0
   -1.6349   -1.4538    6.3716 C   0  0  0  0  0  0  0  0  0  0  0  0
    1.9551   -6.4275   -2.6852 C   0  0  0  0  0  0  0  0  0  0  0  0
    4.2854   -6.1451   -2.2157 C   0  0  0  0  0  0  0  0  0  0  0  0
    2.1795   -7.7671   -3.0074 C   0  0  0  0  0  0  0  0  0  0  0  0
    4.4679   -7.5325   -2.3616 C   0  0  0  0  0  0  0  0  0  0  0  0
    3.4439  -10.2133   -4.4962 C   0  0  0  0  0  0  0  0  0  0  0  0
    4.1820  -10.6326   -2.1843 C   0  0  0  0  0  0  0  0  0  0  0  0
    2.5903  -11.4915   -4.4188 C   0  0  0  0  0  0  0  0  0  0  0  0
    3.2644  -11.8706   -2.1823 C   0  0  0  0  0  0  0  0  0  0  0  0
   -0.1024   -3.1708    2.6104 C   0  0  0  0  0  0  0  0  0  0  0  0
    1.1121   -4.7224    1.2193 C   0  0  0  0  0  0  0  0  0  0  0  0
    0.6889   -3.4835    1.4847 C   0  0  0  0  0  0  0  0  0  0  0  0
    3.0078   -5.5953   -2.3008 C   0  0  0  0  0  0  0  0  0  0  0  0
    3.4381   -8.3514   -2.8399 C   0  0  0  0  0  0  0  0  0  0  0  0
   -0.5411   -1.9219    2.8013 C   0  0  0  0  0  0  0  0  0  0  0  0
   -2.6634   -1.1093    3.8060 C   0  0  0  0  0  0  0  0  0  0  0  0
   -0.8784   -1.8389    5.2733 C   0  0  0  0  0  0  0  0  0  0  0  0
   -1.3738   -1.6447    3.9711 C   0  0  0  0  0  0  0  0  0  0  0  0
    1.0720   -2.4616    0.4642 C   0  0  0  0  0  0  0  0  0  0  0  0
   -0.1639   -0.8248    1.8613 C   0  0  0  0  0  0  0  0  0  0  0  0
    2.1036   -4.0249   -0.8528 C   0  0  0  0  0  0  0  0  0  0  0  0
   -3.4739   -1.0869    2.2728 Cl  0  0  0  0  0  0  0  0  0  0  0  0
    0.7033   -2.4731    5.6062 Cl  0  0  0  0  0  0  0  0  0  0  0  0
    1.7351   -4.9974    0.0512 N   0  0  0  0  0  0  0  0  0  0  0  0
    2.7396   -4.2536   -1.9648 N   0  0  0  0  0  0  0  0  0  0  0  0
    1.7632   -2.7050   -0.6091 N   0  0  0  0  0  0  0  0  0  0  0  0
    0.6270   -1.1664    0.7675 N   0  0  0  0  0  0  0  0  0  0  0  0
    3.6290   -9.6764   -3.1396 N   0  0  0  0  0  0  0  0  0  0  0  0
   -0.5500    0.3280    2.1002 O   0  0  0  0  0  0  0  0  0  0  0  0
    3.1511  -12.4483   -3.4978 O   0  0  0  0  0  0  0  0  0  0  0  0
  3  2  2  0
  4  2  1  0
  7  5  2  0
  8  6  1  0
 11  9  1  0
 12 10  1  0
 15 13  1  0
 15 14  2  0
 16  5  1  0
 16  6  2  0
 17  7  1  0
 17  8  2  0
 18 13  2  0
 19  3  1  0
 20  4  2  0
 21 18  1  0
 21 19  2  0
 21 20  1  0
 22 15  1  0
 23 18  1  0
 25 19  1  0
 26 20  1  0
 27 14  1  0
 27 24  1  0
 28 16  1  0
 28 24  2  3
 29 22  2  0
 29 24  1  0
 30  1  1  0
 30 22  1  0
 30 23  1  0
 31  9  1  0
 31 10  1  0
 31 17  1  0
 32 23  2  0
 33 11  1  0
 33 12  1  0
M  END
>  <DRUGBANK_ID>  (1) 
DB17041

>  <COMMON_NAME>  (1) 
PD-173952

>  <CAS_NUMBER>  (1) 
305820-75-1

>  <UNII>  (1) 
85GA4ESY8J

$$$$
