W01
     RDKit          3D

 24 26  0  0  0  0  0  0  0  0999 V2000
   -0.9364    0.7468    0.2387 O   0  0  0  0  0  0  0  0  0  0  0  0
    0.3445    1.1985   -0.0287 N   0  0  0  0  0  0  0  0  0  0  0  0
    1.0910    0.0902   -0.0158 C   0  0  0  0  0  0  0  0  0  0  0  0
    2.5422    0.1301   -0.0440 C   0  0  0  0  0  0  0  0  0  0  0  0
    0.3628   -1.0759    0.1347 C   0  0  0  0  0  0  0  0  0  0  0  0
   -0.8681   -0.5780    0.4870 C   0  0  0  0  0  0  0  0  0  0  0  0
   -2.0533   -1.3587    0.5966 C   0  0  0  0  0  0  0  0  0  0  0  0
   -3.1976   -1.0308    1.5227 C   0  0  0  0  0  0  0  0  0  0  0  0
   -3.8551    0.2918    1.1315 C   0  0  0  0  0  0  0  0  0  0  0  0
   -4.7430    0.2266   -0.0341 O   0  0  0  0  0  0  0  0  0  0  0  0
   -4.2149    0.0532   -1.2999 C   0  0  0  0  0  0  0  0  0  0  0  0
   -3.7891   -1.2208   -1.7754 C   0  0  0  0  0  0  0  0  0  0  0  0
   -3.9809   -2.5716   -1.0791 C   0  0  0  0  0  0  0  0  0  0  0  0
   -2.9707   -1.2416   -2.9322 C   0  0  0  0  0  0  0  0  0  0  0  0
   -2.8390   -0.1368   -3.7782 C   0  0  0  0  0  0  0  0  0  0  0  0
   -3.4968    1.0408   -3.4333 C   0  0  0  0  0  0  0  0  0  0  0  0
   -4.1671    1.1625   -2.1913 C   0  0  0  0  0  0  0  0  0  0  0  0
   -4.8526    2.4776   -1.9155 C   0  0  0  0  0  0  0  0  0  0  0  0
   -2.1298   -0.2727   -5.0412 C   0  0  0  0  0  0  0  0  0  0  0  0
   -2.3722   -1.3302   -5.8900 N   0  0  0  0  0  0  0  0  0  0  0  0
   -1.2202    0.5872   -5.5359 N   0  0  0  0  0  0  0  0  0  0  0  0
   -0.9349   -0.0196   -6.7061 N   0  0  0  0  0  0  0  0  0  0  0  0
    0.0005    0.5267   -7.6529 C   0  0  0  0  0  0  0  0  0  0  0  0
   -1.6116   -1.1492   -6.9593 N   0  0  0  0  0  0  0  0  0  0  0  0
  1  2  1  0
  1  6  1  0
  2  3  2  0
  3  4  1  0
  3  5  1  0
  5  6  2  0
  6  7  1  0
  7  8  1  0
  8  9  1  0
  9 10  1  0
 10 11  1  0
 11 12  2  0
 11 17  1  0
 12 13  1  0
 12 14  1  0
 14 15  2  0
 15 16  1  0
 15 19  1  0
 16 17  2  0
 17 18  1  0
 19 20  1  0
 19 21  2  0
 20 24  2  0
 21 22  1  0
 22 23  1  0
 22 24  1  0
M  END
>  <DRUGBANK_ID>  (1) 
DB08713

>  <COMMON_NAME>  (1) 
2,6-DIMETHYL-1-(3-[3-METHYL-5-ISOXAZOLYL]-PROPANYL)-4-[2N-METHYL-2H-TETRAZOL-5-YL]-PHENOL

$$$$
