SLE
     RDKit          3D

 10  9  0  0  0  0  0  0  0  0999 V2000
    0.8455   -0.1527   -0.0536 C   0  0  0  0  0  0  0  0  0  0  0  0
    0.1201   -0.5015   -0.9746 O   0  0  0  0  0  0  0  0  0  0  0  0
    0.2904    0.1847    1.1232 O   0  0  0  0  0  0  0  0  0  0  0  0
    2.3659   -0.0687   -0.0753 C   0  0  1  0  0  0  0  0  0  0  0  0
    2.9176   -0.6148   -1.4027 C   0  0  0  0  0  0  0  0  0  0  0  0
    2.4644    0.3586   -2.8809 S   0  0  0  0  0  0  0  0  0  0  0  0
    2.9128    1.3472    0.2041 C   0  0  0  0  0  0  0  0  0  0  0  0
    2.5041    1.9314    1.5632 C   0  0  0  0  0  0  0  0  0  0  0  0
    2.9839    1.0509    2.7148 C   0  0  0  0  0  0  0  0  0  0  0  0
    3.0182    3.3561    1.7158 C   0  0  0  0  0  0  0  0  0  0  0  0
  1  2  2  0
  1  3  1  0
  1  4  1  0
  4  5  1  6
  4  7  1  0
  5  6  1  0
  7  8  1  0
  8  9  1  0
  8 10  1  0
M  END
>  <DRUGBANK_ID>  (1) 
DB02996

>  <SECONDARY_ACCESSION_NUMBERS>  (1) 
EXPT02916

>  <COMMON_NAME>  (1) 
2-(Thiomethylene)-4-Methylpentanoic Acid

$$$$
