181
     RDKit          3D

 20 21  0  0  0  0  0  0  0  0999 V2000
    0.6453   -0.1302   -0.1579 O   0  0  0  0  0  0  0  0  0  0  0  0
    0.5206    0.8086   -1.2082 C   0  0  0  0  0  0  0  0  0  0  0  0
    1.1172    2.1826   -0.8958 C   0  0  0  0  0  0  0  0  0  0  0  0
    2.5481    2.2184   -0.8519 O   0  0  0  0  0  0  0  0  0  0  0  0
    3.1601    1.5220    0.2400 C   0  0  0  0  0  0  0  0  0  0  0  0
    2.6903    2.0214    1.5246 N   0  0  0  0  0  0  0  0  0  0  0  0
    2.0208    1.1872    2.4050 C   0  0  0  0  0  0  0  0  0  0  0  0
    1.8303   -0.0110    2.2292 O   0  0  0  0  0  0  0  0  0  0  0  0
    1.5836    1.7917    3.5555 N   0  0  0  0  0  0  0  0  0  0  0  0
    1.5965    3.1384    3.8265 C   0  0  0  0  0  0  0  0  0  0  0  0
    1.0429    3.5768    4.8244 O   0  0  0  0  0  0  0  0  0  0  0  0
    2.8913    3.3577    1.8016 C   0  0  0  0  0  0  0  0  0  0  0  0
    2.3361    3.9925    2.8404 C   0  0  0  0  0  0  0  0  0  0  0  0
    2.3764    5.7059    3.1385 S   0  0  0  0  0  0  0  0  0  0  0  0
    3.2565    6.3624    1.7308 C   0  0  0  0  0  0  0  0  0  0  0  0
    2.7869    6.1941    0.4219 C   0  0  0  0  0  0  0  0  0  0  0  0
    3.6245    6.4667   -0.6608 C   0  0  0  0  0  0  0  0  0  0  0  0
    4.8615    7.0699   -0.4475 C   0  0  0  0  0  0  0  0  0  0  0  0
    5.2506    7.4155    0.8448 C   0  0  0  0  0  0  0  0  0  0  0  0
    4.4749    7.0166    1.9350 C   0  0  0  0  0  0  0  0  0  0  0  0
  1  2  1  0
  2  3  1  0
  3  4  1  0
  4  5  1  0
  5  6  1  0
  6  7  1  0
  6 12  1  0
  7  8  2  0
  7  9  1  0
  9 10  1  0
 10 11  2  0
 10 13  1  0
 12 13  2  0
 13 14  1  0
 14 15  1  0
 15 16  2  0
 15 20  1  0
 16 17  1  0
 17 18  2  0
 18 19  1  0
 19 20  2  0
M  END
>  <DRUGBANK_ID>  (1) 
DB06872

>  <COMMON_NAME>  (1) 
1-((2-HYDROXYETHOXY)METHYL)-5-(PHENYLTHIO)PYRIMIDINE-2,4(1H,3H)-DIONE

$$$$
