
     RDKit          3D

 16 15  0  0  0  0  0  0  0  0999 V2000
    0.4107   -0.2619   -0.5092 C   0  0  0  0  0  0  0  0  0  0  0  0
    0.8807   -1.3247   -2.5703 C   0  0  0  0  0  0  0  0  0  0  0  0
   -1.2396   -0.1569   -1.9996 C   0  0  0  0  0  0  0  0  0  0  0  0
    0.8941    1.2826   -2.2590 C   0  0  0  0  0  0  0  0  0  0  0  0
    0.4779    2.4845   -1.2181 C   0  0  0  0  0  0  0  0  0  0  0  0
    3.0871   -0.9239   -0.1842 C   0  0  0  0  0  0  0  0  0  0  0  0
    1.2247   -1.0195    1.9333 C   0  0  0  0  0  0  0  0  0  0  0  0
    2.0381   -1.8096    0.6476 C   0  0  2  0  0  0  0  0  0  0  0  0
    0.2847   -0.1293   -1.9101 N   0  0  0  0  0  0  0  0  0  0  0  0
    3.8605   -0.2226    0.7678 O   0  0  0  0  0  0  0  0  0  0  0  0
    2.8306   -2.8857    1.1483 O   0  0  0  0  0  0  0  0  0  0  0  0
   -0.2796    2.5386    2.6265 O   0  0  0  0  0  0  0  0  0  0  0  0
   -1.4846    1.3791    0.6122 O   0  0  0  0  0  0  0  0  0  0  0  0
    0.8806    2.3110    0.2632 O   0  0  0  0  0  0  0  0  0  0  0  0
    0.2675    0.1147    1.9125 O   0  0  0  0  0  0  0  0  0  0  0  0
   -0.2304    1.6292    1.3914 P   0  0  1  0  0  0  0  0  0  0  0  0
  5  4  1  0
  8  6  1  0
  8  7  1  0
  8 11  1  1
  9  1  1  0
  9  2  1  0
  9  3  1  0
  9  4  1  0
 10  6  1  0
 14  5  1  0
 15  7  1  0
 16 12  2  0
 16 13  1  6
 16 14  1  0
 16 15  1  0
M  CHG  2   9   1  13  -1
M  END
>  <DRUGBANK_ID>  (1) 
DB04660

>  <COMMON_NAME>  (1) 
Choline alfoscerate

>  <CAS_NUMBER>  (1) 
28319-77-9

>  <UNII>  (1) 
60M22SGW66

>  <SYNONYMS>  (1) 
(2R)-2,3-dihydroxypropyl 2-(trimethylammonio)ethyl phosphate; alpha-Glycerophosphorylcholine; Choline alfoscerate; Choline alphoscerate; Choline glycerophosphate; Cholini glycerophosphas; Glicerofosfato de colina; Glycerol phosphorylcholine; Glycerol-3-phosphatidylcholine; glycerol-3-phosphocholine; Glycerophosphate de choline; Glycerophosphocholine; Glycerophosphorylcholine; GPCho; L-alpha-Glycerophosphocholine; L-alpha-Glycerophosphorylcholine; sn-3-GPC; sn-Glycero-3-phosphocholine

$$$$
