Y11
     RDKit          3D

 29 31  0  0  0  0  0  0  0  0999 V2000
    0.9326    0.2399    0.3873 C   0  0  0  0  0  0  0  0  0  0  0  0
    0.6929    0.9542    2.6546 C   0  0  0  0  0  0  0  0  0  0  0  0
    0.7214    0.2871    3.9704 C   0  0  0  0  0  0  0  0  0  0  0  0
   -0.7739   -1.3257    3.0848 C   0  0  0  0  0  0  0  0  0  0  0  0
   -0.9049   -0.5483    1.7864 C   0  0  0  0  0  0  0  0  0  0  0  0
    0.0903    0.5191   -0.4083 O   0  0  0  0  0  0  0  0  0  0  0  0
   -0.4891   -0.4370    4.1916 O   0  0  0  0  0  0  0  0  0  0  0  0
    0.4611   -0.0208    1.6297 N   0  0  0  0  0  0  0  0  0  0  0  0
    2.2974    0.0530    0.1486 N   0  0  0  0  0  0  0  0  0  0  0  0
    3.0751   -0.1192   -1.1721 C   0  0  1  0  0  0  0  0  0  0  0  0
    2.3728   -0.7150   -2.4632 C   0  0  0  0  0  0  0  0  0  0  0  0
    1.3376   -1.8290   -2.2418 C   0  0  0  0  0  0  0  0  0  0  0  0
    0.6750   -1.9624   -0.8881 C   0  0  0  0  0  0  0  0  0  0  0  0
   -0.2239   -3.0944   -0.5587 C   0  0  0  0  0  0  0  0  0  0  0  0
    0.6107   -4.3005   -0.7659 C   0  0  0  0  0  0  0  0  0  0  0  0
    1.1665   -4.2811   -2.1891 C   0  0  0  0  0  0  0  0  0  0  0  0
    2.0731   -3.1012   -2.4939 C   0  0  0  0  0  0  0  0  0  0  0  0
    3.9552    1.1346   -1.4875 C   0  0  0  0  0  0  0  0  0  0  0  0
    5.1790    1.0620   -1.6176 O   0  0  0  0  0  0  0  0  0  0  0  0
    3.3648    2.3507   -1.6708 N   0  0  0  0  0  0  0  0  0  0  0  0
    1.0887    1.8023   -2.3981 C   0  0  0  0  0  0  0  0  0  0  0  0
   -0.3941    1.9660   -2.3435 C   0  0  0  0  0  0  0  0  0  0  0  0
    0.0382    4.2700   -2.1245 C   0  0  0  0  0  0  0  0  0  0  0  0
    1.5841    4.0201   -2.1338 C   0  0  0  0  0  0  0  0  0  0  0  0
   -0.7126    3.2527   -2.8940 N   0  0  0  0  0  0  0  0  0  0  0  0
   -2.1633    3.3589   -2.7063 C   0  0  0  0  0  0  0  0  0  0  0  0
    1.5592    2.6696   -0.0419 C   0  0  0  0  0  0  0  0  0  0  0  0
    1.2346    2.7059    1.1760 N   0  0  0  0  0  0  0  0  0  0  0  0
    1.9504    2.6259   -1.5101 C   0  0  0  0  0  0  0  0  0  0  0  0
  1  6  2  0
  1  8  1  0
  2  3  1  0
  4  7  1  0
  5  8  1  0
  5  4  1  0
  7  3  1  0
  8  2  1  0
  9  1  1  0
 10 18  1  0
 10  9  1  0
 10 11  1  6
 12 11  1  0
 13 12  1  0
 14 13  1  0
 15 14  1  0
 15 16  1  0
 16 17  1  0
 17 12  1  0
 18 19  2  0
 20 18  1  0
 20 29  1  0
 21 22  1  0
 23 25  1  0
 24 29  1  0
 24 23  1  0
 25 22  1  0
 25 26  1  0
 27 28  3  0
 27 29  1  0
 29 21  1  0
M  END
>  <DRUGBANK_ID>  (1) 
DB08752

>  <COMMON_NAME>  (1) 
N-[(1S)-2-[(4-cyano-1-methylpiperidin-4-yl)amino]-1-(cyclohexylmethyl)-2-oxoethyl]morpholine-4-carboxamide

$$$$
