611
     RDKit          3D

 24 28  0  0  1  0  0  0  0  0999 V2000
   -8.0668    5.3767    6.3150 O   0  0  0  0  0  0  0  0  0  0  0  0
   -1.3118    6.8602    3.2767 O   0  0  0  0  0  0  0  0  0  0  0  0
   -5.4364    3.5323    7.1509 N   0  0  0  0  0  0  0  0  0  0  0  0
   -5.2522    6.5091    7.0438 C   0  0  2  0  0  0  0  0  0  0  0  0
   -6.6896    5.7207    6.6732 C   0  0  1  0  0  0  0  0  0  0  0  0
   -6.1636    4.7642    7.7861 C   0  0  2  0  0  0  0  0  0  0  0  0
   -3.9182    5.0045    7.6962 C   0  0  0  0  0  0  0  0  0  0  0  0
   -7.2459    7.0575    7.7225 C   0  0  0  0  0  0  0  0  0  0  0  0
   -6.7391    7.6422    6.1372 C   0  0  0  0  0  0  0  0  0  0  0  0
   -3.2471    6.5344    7.0355 C   0  0  0  0  0  0  0  0  0  0  0  0
   -4.0775    3.8624    6.8429 C   0  0  0  0  0  0  0  0  0  0  0  0
   -5.3073    5.9626    8.5154 C   0  0  0  0  0  0  0  0  0  0  0  0
   -7.7859    7.1766    9.0020 C   0  0  0  0  0  0  0  0  0  0  0  0
   -6.8262    8.4408    8.0207 C   0  0  0  0  0  0  0  0  0  0  0  0
   -4.5197    6.8284    6.7783 C   0  0  0  0  0  0  0  0  0  0  0  0
   -6.0594    3.0727    5.8942 C   0  0  0  0  0  0  0  0  0  0  0  0
   -5.8948    3.8472    4.5829 C   0  0  0  0  0  0  0  0  0  0  0  0
   -4.4599    4.2286    3.9550 C   0  0  0  0  0  0  0  0  0  0  0  0
   -6.1340    5.2929    4.5585 C   0  0  0  0  0  0  0  0  0  0  0  0
   -2.1270    6.4613    5.6812 C   0  0  0  0  0  0  0  0  0  0  0  0
   -5.1987    5.4599    3.4953 C   0  0  0  0  0  0  0  0  0  0  0  0
   -4.3537    7.4540    5.2580 C   0  0  0  0  0  0  0  0  0  0  0  0
   -2.1975    6.8715    4.3158 C   0  0  0  0  0  0  0  0  0  0  0  0
   -3.3251    7.5483    4.1554 C   0  0  0  0  0  0  0  0  0  0  0  0
  2 23  1  0
  3  6  1  0
  3 11  1  0
  3 16  1  0
  4  5  1  0
  4  7  1  1
  4  8  1  0
  4 10  1  0
  5  6  1  0
  5  9  1  0
  5  1  1  6
  6 12  1  1
  7 11  1  0
  8 13  1  0
  9 14  1  0
 10 15  2  0
 10 20  1  0
 12 15  1  0
 13 14  1  0
 15 22  1  0
 16 17  1  0
 17 18  1  0
 17 19  1  0
 18 21  1  0
 19 21  1  0
 20 23  2  0
 22 24  2  0
 23 24  1  0
M  END
>  <DRUGBANK_ID>  (1) 
DB00611

>  <SECONDARY_ACCESSION_NUMBERS>  (1) 
APRD00835

>  <COMMON_NAME>  (1) 
Butorphanol

>  <CAS_NUMBER>  (1) 
42408-82-2

>  <UNII>  (1) 
QV897JC36D

>  <SYNONYMS>  (1) 
(−)-17-(cyclobutylmethyl)morphinan-3,14-diol; (−)-butorphanol; (−)-N-cyclobutylmethyl-3,14-dihydroxymorphinan; Butorfanol; Butorphanol; Butorphanolum

$$$$
