
     RDKit          3D

 22 24  0  0  0  0  0  0  0  0999 V2000
    1.3405   -0.2141    0.0153 C   0  0  0  0  0  0  0  0  0  0  0  0
    0.4561   -1.2948    0.0382 C   0  0  0  0  0  0  0  0  0  0  0  0
    0.8462    1.0896   -0.0243 C   0  0  0  0  0  0  0  0  0  0  0  0
   -0.9281   -1.0768    0.0226 C   0  0  0  0  0  0  0  0  0  0  0  0
   -0.5319    1.3171   -0.0390 C   0  0  0  0  0  0  0  0  0  0  0  0
   -6.4174    2.8893   -1.5840 C   0  0  0  0  0  0  0  0  0  0  0  0
   -5.7496    1.3124   -3.2717 C   0  0  0  0  0  0  0  0  0  0  0  0
   -7.5447    3.2390   -2.3366 C   0  0  0  0  0  0  0  0  0  0  0  0
   -6.8698    1.6726   -4.0387 C   0  0  0  0  0  0  0  0  0  0  0  0
   -6.3660    0.2928    0.6880 C   0  0  0  0  0  0  0  0  0  0  0  0
   -3.8059    0.0045    0.6172 C   0  0  0  0  0  0  0  0  0  0  0  0
   -5.5542    1.8670   -2.0011 C   0  0  0  0  0  0  0  0  0  0  0  0
   -4.9949    0.5103    0.1288 C   0  0  0  0  0  0  0  0  0  0  0  0
   -7.7707    2.6234   -3.5610 C   0  0  0  0  0  0  0  0  0  0  0  0
   -1.4177    0.2348   -0.0506 C   0  0  0  0  0  0  0  0  0  0  0  0
   -7.0771    1.5725    1.0463 C   0  0  0  0  0  0  0  0  0  0  0  0
   -4.6225    1.2446   -1.0464 C   0  0  0  0  0  0  0  0  0  0  0  0
   -9.1442    3.0658   -4.4987 Cl  0  0  0  0  0  0  0  0  0  0  0  0
   -3.2888    1.2656   -1.1945 N   0  0  0  0  0  0  0  0  0  0  0  0
   -2.8051    0.4864   -0.1883 N   0  0  0  0  0  0  0  0  0  0  0  0
   -8.1862    1.9162    0.6475 O   0  0  0  0  0  0  0  0  0  0  0  0
   -6.3783    2.3793    1.8690 O   0  0  0  0  0  0  0  0  0  0  0  0
  2  1  2  0
  3  1  1  0
  4  2  1  0
  5  3  2  0
  8  6  2  0
  9  7  1  0
 12  6  1  0
 12  7  2  0
 13 10  1  0
 13 11  2  0
 14  8  1  0
 14  9  2  0
 15  4  2  0
 15  5  1  0
 16 10  1  0
 17 12  1  0
 17 13  1  0
 18 14  1  0
 19 17  2  0
 20 11  1  0
 20 15  1  0
 20 19  1  0
 21 16  2  0
 22 16  1  0
M  END
>  <DRUGBANK_ID>  (1) 
DB13432

>  <COMMON_NAME>  (1) 
Lonazolac

>  <CAS_NUMBER>  (1) 
53808-88-1

>  <UNII>  (1) 
13097143QI

>  <SYNONYMS>  (1) 
Lonazolac; lonazolaco

$$$$
