
     RDKit          3D

 11 10  0  0  0  0  0  0  0  0999 V2000
    0.9943    0.0080    0.1695 C   0  0  0  0  0  0  0  0  0  0  0  0
    0.9943    0.5001   -2.2304 C   0  0  0  0  0  0  0  0  0  0  0  0
    0.4678    1.2581    0.8789 C   0  0  0  0  0  0  0  0  0  0  0  0
    0.4679    1.9285   -2.3906 C   0  0  0  0  0  0  0  0  0  0  0  0
    1.1802    2.3523    0.5373 F   0  0  0  0  0  0  0  0  0  0  0  0
   -0.8277    1.4883    0.5953 F   0  0  0  0  0  0  0  0  0  0  0  0
    0.5803    1.1311    2.2206 F   0  0  0  0  0  0  0  0  0  0  0  0
    1.1803    2.8000   -1.6461 F   0  0  0  0  0  0  0  0  0  0  0  0
    0.5802    2.3396   -3.6740 F   0  0  0  0  0  0  0  0  0  0  0  0
   -0.8276    2.0286   -2.0392 F   0  0  0  0  0  0  0  0  0  0  0  0
    0.4674   -0.2714   -1.1382 O   0  0  0  0  0  0  0  0  0  0  0  0
  3  1  1  0
  4  2  1  0
  5  3  1  0
  6  3  1  0
  7  3  1  0
  8  4  1  0
  9  4  1  0
 10  4  1  0
 11  1  1  0
 11  2  1  0
M  END
>  <DRUGBANK_ID>  (1) 
DB08969

>  <COMMON_NAME>  (1) 
Flurothyl

>  <CAS_NUMBER>  (1) 
333-36-8

>  <UNII>  (1) 
9Z467FG2YK

>  <SYNONYMS>  (1) 
Flurothyl; Flurotyl

$$$$
