
     RDKit          3D

 23 24  0  0  1  0  0  0  0  0999 V2000
   -0.5154   -9.1104    3.2107 C   0  0  0  0  0  0  0  0  0  0  0  0
    1.6882   -2.5874    4.2545 C   0  0  0  0  0  0  0  0  0  0  0  0
   -0.0395   -8.3630    4.4798 C   0  0  2  0  0  0  0  0  0  0  0  0
    1.1771   -3.6845    3.3040 C   0  0  2  0  0  0  0  0  0  0  0  0
   -1.1768   -7.5768    5.1495 C   0  0  2  0  0  0  0  0  0  0  0  0
   -0.6288   -6.7394    6.3210 C   0  0  1  0  0  0  0  0  0  0  0  0
    1.7249   -5.7187    1.8950 C   0  0  2  0  0  0  0  0  0  0  0  0
    1.1101   -4.9905    0.6914 C   0  0  2  0  0  0  0  0  0  0  0  0
    0.5657   -5.8846    5.8822 C   0  0  2  0  0  0  0  0  0  0  0  0
    2.2348   -4.7630    2.9876 C   0  0  2  0  0  0  0  0  0  0  0  0
    0.1170   -3.9255    1.1887 C   0  0  2  0  0  0  0  0  0  0  0  0
    1.6089   -6.7198    5.1252 C   0  0  1  0  0  0  0  0  0  0  0  0
    0.3116   -8.8309    2.0786 O   0  0  0  0  0  0  0  0  0  0  0  0
    0.7498   -2.3716    5.3083 O   0  0  0  0  0  0  0  0  0  0  0  0
   -2.1999   -8.4722    5.5886 O   0  0  0  0  0  0  0  0  0  0  0  0
   -1.6719   -5.9044    6.8464 O   0  0  0  0  0  0  0  0  0  0  0  0
    2.7567   -6.6131    1.4650 O   0  0  0  0  0  0  0  0  0  0  0  0
    0.4597   -5.9283   -0.1780 O   0  0  0  0  0  0  0  0  0  0  0  0
    1.1302   -5.1889    6.9904 O   0  0  0  0  0  0  0  0  0  0  0  0
   -0.4061   -3.1488    0.1281 O   0  0  0  0  0  0  0  0  0  0  0  0
    0.7540   -3.0319    2.0925 O   0  0  0  0  0  0  0  0  0  0  0  0
    1.0428   -7.5125    4.1006 O   0  0  0  0  0  0  0  0  0  0  0  0
    2.9796   -5.6782    4.4449 S   0  0  0  0  0  0  0  0  0  0  0  0
  3  1  1  6
  4  2  1  1
  5  3  1  0
  5 15  1  1
  6  5  1  0
  6 16  1  6
  7 17  1  6
  8  7  1  0
  8 18  1  6
  9  6  1  0
  9 19  1  1
 10  4  1  0
 10  7  1  0
 10 23  1  1
 11  8  1  0
 11 20  1  6
 12  9  1  0
 12 23  1  6
 13  1  1  0
 14  2  1  0
 21  4  1  0
 21 11  1  0
 22  3  1  0
 22 12  1  0
M  END
>  <DRUGBANK_ID>  (1) 
DB03263

>  <SECONDARY_ACCESSION_NUMBERS>  (1) 
EXPT03022

>  <COMMON_NAME>  (1) 
Thiocellobiose

$$$$
