
     RDKit          3D

 31 34  0  0  0  0  0  0  0  0999 V2000
    0.8736   -0.0646   -0.2081 F   0  0  0  0  0  0  0  0  0  0  0  0
    2.2179   -0.1182   -0.1203 C   0  0  0  0  0  0  0  0  0  0  0  0
    2.7274   -0.3668   -1.3470 F   0  0  0  0  0  0  0  0  0  0  0  0
    2.6454    1.1109    0.2191 F   0  0  0  0  0  0  0  0  0  0  0  0
    2.6460   -1.1180    0.9403 C   0  0  0  0  0  0  0  0  0  0  0  0
    4.0259   -1.7952    0.7337 C   0  0  0  0  0  0  0  0  0  0  0  0
    2.7398   -2.5774    0.6256 C   0  0  0  0  0  0  0  0  0  0  0  0
    2.1329   -0.6429    2.3110 C   0  0  0  0  0  0  0  0  0  0  0  0
    2.7970    0.3719    2.8622 C   0  0  0  0  0  0  0  0  0  0  0  0
    2.2428    1.3741    3.8220 C   0  0  0  0  0  0  0  0  0  0  0  0
    0.9840    1.4460    4.2245 C   0  0  0  0  0  0  0  0  0  0  0  0
    0.6001    2.6673    5.0044 C   0  0  0  0  0  0  0  0  0  0  0  0
   -0.5958    3.3451    4.4095 C   0  0  0  0  0  0  0  0  0  0  0  0
   -1.6717    3.2939    5.0164 O   0  0  0  0  0  0  0  0  0  0  0  0
   -0.4766    4.0685    3.2396 N   0  0  0  0  0  0  0  0  0  0  0  0
    0.6573    4.3009    2.4468 C   0  0  0  0  0  0  0  0  0  0  0  0
    1.5588    3.3945    2.0272 N   0  0  0  0  0  0  0  0  0  0  0  0
    2.5845    4.0977    1.4341 N   0  0  0  0  0  0  0  0  0  0  0  0
    3.9099    3.5323    0.9429 C   0  0  0  0  0  0  0  0  0  0  0  0
    4.9587    3.1071    2.0304 C   0  0  0  0  0  0  0  0  0  0  0  0
    6.2734    3.1196    2.0993 N   0  0  0  0  0  0  0  0  0  0  0  0
    6.8697    2.4177    3.1917 C   0  0  0  0  0  0  0  0  0  0  0  0
    6.2893    1.6011    4.1627 C   0  0  0  0  0  0  0  0  0  0  0  0
    4.9742    1.5005    4.0330 C   0  0  0  0  0  0  0  0  0  0  0  0
    4.4452    2.3214    2.9815 C   0  0  0  0  0  0  0  0  0  0  0  0
    6.9421    0.9398    5.2633 C   0  0  0  0  0  0  0  0  0  0  0  0
    7.4021    0.4364    6.1743 N   0  0  0  0  0  0  0  0  0  0  0  0
    2.2169    5.4016    1.2786 C   0  0  0  0  0  0  0  0  0  0  0  0
    0.9995    5.5630    1.9039 C   0  0  0  0  0  0  0  0  0  0  0  0
    0.2946    0.3857    3.7137 C   0  0  0  0  0  0  0  0  0  0  0  0
    0.8743   -0.6667    2.8674 C   0  0  0  0  0  0  0  0  0  0  0  0
  1  2  1  0
  2  3  1  0
  2  4  1  0
  2  5  1  0
  5  6  1  0
  5  7  1  0
  5  8  1  0
  6  7  1  0
  8  9  2  0
  8 31  1  0
  9 10  1  0
 10 11  2  0
 11 12  1  0
 11 30  1  0
 12 13  1  0
 13 14  2  0
 13 15  1  0
 15 16  1  0
 16 17  2  0
 16 29  1  0
 17 18  1  0
 18 19  1  0
 18 28  1  0
 19 20  1  0
 20 21  2  0
 20 25  1  0
 21 22  1  0
 22 23  2  0
 23 24  1  0
 23 26  1  0
 24 25  2  0
 26 27  3  0
 28 29  2  0
 30 31  2  0
M  END
>  <DRUGBANK_ID>  (1) 
DB16241

>  <COMMON_NAME>  (1) 
Apinocaltamide

>  <CAS_NUMBER>  (1) 
1838651-58-3

>  <UNII>  (1) 
3Z7U1U8Z9E

>  <SYNONYMS>  (1) 
Benzeneacetamide, N-[1-[(5-cyano-2-pyridinyl)methyl]-1H-pyrazol-3-yl]-4-[1-(trifluoromethyl)cyclopropyl]-; N-(1-((5-CYANOPYRIDIN-2-YL)METHYL)-1H-PYRAZOL-3-YL)-2-(4-(1-(TRIFLUOROMETHYL)CYCLOPROPYL)-PHENYL)ACETAMIDE; N-[1-(5-Cyano-pyridin-2-ylmethyl)-1H-pyrazol-3-yl]-2-[4-(1-trifluoromethyl-cyclopropyl-phenyl]-acetamide; N-[1-[(5-Cyano-2-pyridinyl)methyl]-1H-pyrazol-3-yl]-4-[1-(trifluoromethyl)cyclopropyl]benzeneacetamide; N-{1-[(5-cyanopyridin-2-yl)methyl]-1H-pyrazol-3-yl}-2- {4-[1-(trifluoromethyl)cyclopropyl]phenyl}acetamide

$$$$
