
     RDKit          3D

 19 20  0  0  0  0  0  0  0  0999 V2000
    1.0500   -0.0240   -0.1804 C   0  0  0  0  0  0  0  0  0  0  0  0
    0.6000   -1.0536    0.8440 C   0  0  0  0  0  0  0  0  0  0  0  0
    1.0861   -0.6748    2.2441 C   0  0  0  0  0  0  0  0  0  0  0  0
    0.5382    0.6837    2.6908 C   0  0  0  0  0  0  0  0  0  0  0  0
   -0.9946    0.7026    2.6805 C   0  0  0  0  0  0  0  0  0  0  0  0
   -1.5571   -0.2569    3.7340 C   0  0  0  0  0  0  0  0  0  0  0  0
   -1.0765    0.0212    5.0872 N   0  0  0  0  0  0  0  0  0  0  0  0
   -0.6325   -1.0763    5.8536 C   0  0  0  0  0  0  0  0  0  0  0  0
   -0.6224   -2.2211    5.3910 O   0  0  0  0  0  0  0  0  0  0  0  0
   -0.2093   -0.8178    7.1603 N   0  0  0  0  0  0  0  0  0  0  0  0
    0.2174   -1.9221    7.9979 C   0  0  0  0  0  0  0  0  0  0  0  0
   -0.2193    0.4754    7.6321 C   0  0  0  0  0  0  0  0  0  0  0  0
    0.1457    0.9143    8.8704 N   0  0  0  0  0  0  0  0  0  0  0  0
   -0.0470    2.2223    8.8327 C   0  0  0  0  0  0  0  0  0  0  0  0
   -0.5110    2.6304    7.6120 N   0  0  0  0  0  0  0  0  0  0  0  0
   -0.8184    3.9789    7.1991 C   0  0  0  0  0  0  0  0  0  0  0  0
   -0.6434    1.5063    6.8534 C   0  0  0  0  0  0  0  0  0  0  0  0
   -1.1288    1.3413    5.5416 C   0  0  0  0  0  0  0  0  0  0  0  0
   -1.5481    2.3041    4.8980 O   0  0  0  0  0  0  0  0  0  0  0  0
  1  2  1  0
  2  3  1  0
  3  4  1  0
  4  5  1  0
  5  6  1  0
  6  7  1  0
  7  8  1  0
  7 18  1  0
  8  9  2  0
  8 10  1  0
 10 11  1  0
 10 12  1  0
 12 13  1  0
 12 17  2  0
 13 14  2  0
 14 15  1  0
 15 16  1  0
 15 17  1  0
 17 18  1  0
 18 19  2  0
M  END
>  <DRUGBANK_ID>  (1) 
DB13634

>  <COMMON_NAME>  (1) 
Pentifylline

>  <CAS_NUMBER>  (1) 
1028-33-7

>  <UNII>  (1) 
MBM1C4K26S

>  <SYNONYMS>  (1) 
Pentifylline

$$$$
