
     RDKit          3D

 22 23  0  0  0  0  0  0  0  0999 V2000
   -1.9708   -0.0042   -0.0157 C   0  0  0  0  0  0  0  0  0  0  0  0
   -1.2666   -1.2262   -0.0020 C   0  0  0  0  0  0  0  0  0  0  0  0
   -3.3937    0.1036   -0.0496 N   0  0  0  0  0  0  0  0  0  0  0  0
   -1.2141    1.1771   -0.0017 C   0  0  0  0  0  0  0  0  0  0  0  0
    0.1427   -1.2807    0.0151 C   0  0  0  0  0  0  0  0  0  0  0  0
   -3.9852   -1.0020   -0.0330 N   0  0  0  0  0  0  0  0  0  0  0  0
    0.1869    1.1466    0.0111 C   0  0  0  0  0  0  0  0  0  0  0  0
    0.8600   -0.0729    0.0106 C   0  0  0  0  0  0  0  0  0  0  0  0
    0.9012   -2.5659    0.0408 C   0  0  0  0  0  0  0  0  0  0  0  0
   -5.3992   -0.8928   -0.0736 C   0  0  0  0  0  0  0  0  0  0  0  0
    2.2288    0.0100    0.0021 O   0  0  0  0  0  0  0  0  0  0  0  0
    0.1993   -3.7140    0.0582 O   0  0  0  0  0  0  0  0  0  0  0  0
    2.1271   -2.5684    0.0475 O   0  0  0  0  0  0  0  0  0  0  0  0
   -6.0799   -0.0357   -0.9594 C   0  0  0  0  0  0  0  0  0  0  0  0
   -6.1618   -1.7406    0.7407 C   0  0  0  0  0  0  0  0  0  0  0  0
   -7.4893    0.0016   -1.0171 C   0  0  0  0  0  0  0  0  0  0  0  0
   -7.5597   -1.7233    0.6948 C   0  0  0  0  0  0  0  0  0  0  0  0
   -8.2185   -0.8621   -0.1797 C   0  0  0  0  0  0  0  0  0  0  0  0
   -8.2413    0.9170   -1.9251 C   0  0  0  0  0  0  0  0  0  0  0  0
   -9.5878   -0.9385   -0.1540 O   0  0  0  0  0  0  0  0  0  0  0  0
   -7.5327    1.7423   -2.7170 O   0  0  0  0  0  0  0  0  0  0  0  0
   -9.4672    0.9149   -1.9411 O   0  0  0  0  0  0  0  0  0  0  0  0
  1  2  2  0
  1  3  1  0
  1  4  1  0
  2  5  1  0
  3  6  2  0
  4  7  2  0
  5  8  2  0
  5  9  1  0
  6 10  1  0
  7  8  1  0
  8 11  1  0
  9 12  1  0
  9 13  2  0
 10 14  2  0
 10 15  1  0
 14 16  1  0
 15 17  2  0
 16 18  2  0
 16 19  1  0
 17 18  1  0
 18 20  1  0
 19 21  1  0
 19 22  2  0
M  END
>  <DRUGBANK_ID>  (1) 
DB01250

>  <COMMON_NAME>  (1) 
Olsalazine

>  <CAS_NUMBER>  (1) 
15722-48-2

>  <UNII>  (1) 
ULS5I8J03O

>  <SYNONYMS>  (1) 
Olsalazine

$$$$
