C2M
     RDKit          3D

 17 18  0  0  0  0  0  0  0  0999 V2000
   -0.6890    1.1636    0.0048 N   0  0  0  0  0  0  0  0  0  0  0  0
   -1.2981   -0.0231    0.0071 C   0  0  0  0  0  0  0  0  0  0  0  0
   -0.6787   -1.2065    0.0062 N   0  0  0  0  0  0  0  0  0  0  0  0
    0.6689   -1.1953   -0.0010 C   0  0  0  0  0  0  0  0  0  0  0  0
    1.4133   -0.0156   -0.0155 C   0  0  0  0  0  0  0  0  0  0  0  0
    0.6652    1.1590   -0.0064 C   0  0  0  0  0  0  0  0  0  0  0  0
    2.8866   -0.0116   -0.0102 C   0  0  0  0  0  0  0  0  0  0  0  0
    3.6180   -0.5740   -1.0686 C   0  0  0  0  0  0  0  0  0  0  0  0
    5.0163   -0.5785   -1.0500 C   0  0  0  0  0  0  0  0  0  0  0  0
    5.7010    0.0153    0.0148 C   0  0  0  0  0  0  0  0  0  0  0  0
    4.9861    0.5878    1.0671 C   0  0  0  0  0  0  0  0  0  0  0  0
    3.5929    0.5487    1.0657 C   0  0  0  0  0  0  0  0  0  0  0  0
   -2.6702   -0.0173    0.0132 N   0  0  0  0  0  0  0  0  0  0  0  0
    1.3002   -2.4313   -0.1139 N   0  0  0  0  0  0  0  0  0  0  0  0
    1.3421    2.5042   -0.0289 C   0  0  0  0  0  0  0  0  0  0  0  0
    7.4237    0.0651    0.1003 Cl  0  0  0  0  0  0  0  0  0  0  0  0
    5.8323   -1.3475   -2.3632 Cl  0  0  0  0  0  0  0  0  0  0  0  0
  1  2  2  0
  1  6  1  0
  2  3  1  0
  2 13  1  0
  3  4  2  0
  4  5  1  0
  4 14  1  0
  5  6  2  0
  5  7  1  0
  6 15  1  0
  7  8  2  0
  7 12  1  0
  8  9  1  0
  9 10  2  0
  9 17  1  0
 10 11  1  0
 10 16  1  0
 11 12  2  0
M  END
>  <DRUGBANK_ID>  (1) 
DB04655

>  <COMMON_NAME>  (1) 
Metoprine

>  <CAS_NUMBER>  (1) 
7761-45-7

>  <UNII>  (1) 
2L9RKX796Q

>  <SYNONYMS>  (1) 
Metoprine

$$$$
