
     RDKit          3D

 29 32  0  0  0  0  0  0  0  0999 V2000
    1.8307    1.3724   -0.0752 C   0  0  0  0  0  0  0  0  0  0  0  0
    0.4639    1.5027   -0.0177 C   0  0  0  0  0  0  0  0  0  0  0  0
   -0.3694    0.4075    0.2553 C   0  0  0  0  0  0  0  0  0  0  0  0
    0.1009   -0.9291    0.1952 C   0  0  0  0  0  0  0  0  0  0  0  0
    1.5015   -0.9874    0.0795 C   0  0  0  0  0  0  0  0  0  0  0  0
    2.3858    0.1159    0.0198 C   0  0  0  0  0  0  0  0  0  0  0  0
    3.8942    0.0055    0.0712 C   0  0  0  0  0  0  0  0  0  0  0  0
    4.4460   -0.7099    1.3161 C   0  0  0  0  0  0  0  0  0  0  0  0
    4.1000   -2.1970    1.4169 C   0  0  0  0  0  0  0  0  0  0  0  0
    4.5189   -2.9115    0.2063 N   0  0  0  0  0  0  0  0  0  0  0  0
    4.0016   -4.2794    0.1332 C   0  0  0  0  0  0  0  0  0  0  0  0
    2.4963   -4.3568   -0.0999 C   0  0  0  0  0  0  0  0  0  0  0  0
    2.0573   -3.7462   -1.4488 C   0  0  0  0  0  0  0  0  0  0  0  0
    2.6021   -4.4720   -2.5349 O   0  0  0  0  0  0  0  0  0  0  0  0
   -0.6158   -2.3437    0.2601 C   0  0  0  0  0  0  0  0  0  0  0  0
   -0.0009   -3.3998    0.4905 O   0  0  0  0  0  0  0  0  0  0  0  0
   -1.9444   -2.5674    0.0047 N   0  0  0  0  0  0  0  0  0  0  0  0
   -2.8367   -1.4903   -0.1086 C   0  0  0  0  0  0  0  0  0  0  0  0
   -3.5957   -1.2737   -1.3736 C   0  0  0  0  0  0  0  0  0  0  0  0
   -4.9147   -1.9963   -1.1883 C   0  0  0  0  0  0  0  0  0  0  0  0
   -5.7381   -1.8370   -2.4524 C   0  0  0  0  0  0  0  0  0  0  0  0
   -6.0201   -0.3439   -2.6916 C   0  0  0  0  0  0  0  0  0  0  0  0
   -4.7077    0.4269   -2.8843 C   0  0  0  0  0  0  0  0  0  0  0  0
   -3.8645    0.2513   -1.6198 C   0  0  0  0  0  0  0  0  0  0  0  0
   -3.9273   -0.1473   -4.0772 C   0  0  0  0  0  0  0  0  0  0  0  0
   -3.6210   -1.6335   -3.8426 C   0  0  0  0  0  0  0  0  0  0  0  0
   -4.9333   -2.4098   -3.6329 C   0  0  0  0  0  0  0  0  0  0  0  0
   -2.7810   -1.7823   -2.5814 C   0  0  0  0  0  0  0  0  0  0  0  0
   -1.8474    1.0598    0.9473 Cl  0  0  0  0  0  0  0  0  0  0  0  0
  1  2  2  0
  1  6  1  0
  2  3  1  0
  3  4  2  0
  3 29  1  0
  4  5  1  0
  4 15  1  0
  5  6  2  0
  6  7  1  0
  7  8  1  0
  8  9  1  0
  9 10  1  0
 10 11  1  0
 11 12  1  0
 12 13  1  0
 13 14  1  0
 15 16  2  0
 15 17  1  0
 17 18  1  0
 18 19  1  0
 19 20  1  0
 19 28  1  0
 19 24  1  0
 20 21  1  0
 21 27  1  0
 21 22  1  0
 22 23  1  0
 23 24  1  0
 23 25  1  0
 25 26  1  0
 26 28  1  0
 26 27  1  0
M  END
>  <DRUGBANK_ID>  (1) 
DB12594

>  <COMMON_NAME>  (1) 
AZD-9056

>  <CAS_NUMBER>  (1) 
345304-65-6

>  <UNII>  (1) 
F13K378W4L

$$$$
