
     RDKit          3D

 12 12  0  0  1  0  0  0  0  0999 V2000
   -0.4684   -1.3898   -0.0702 C   0  0  0  0  0  0  0  0  0  0  0  0
   -1.3832   -0.4178   -0.0213 C   0  0  0  0  0  0  0  0  0  0  0  0
    0.4248    1.4469   -0.0230 C   0  0  0  0  0  0  0  0  0  0  0  0
    0.9933   -1.1381   -0.1482 C   0  0  2  0  0  0  0  0  0  0  0  0
    1.4629    0.3305   -0.0566 C   0  0  2  0  0  0  0  0  0  0  0  0
   -1.5601    1.5357    1.4237 C   0  0  0  0  0  0  0  0  0  0  0  0
   -1.0553    1.0420    0.0397 C   0  0  2  0  0  0  0  0  0  0  0  0
    1.4215   -1.6943   -1.3877 O   0  0  0  0  0  0  0  0  0  0  0  0
    2.2608    0.4862    1.1279 O   0  0  0  0  0  0  0  0  0  0  0  0
   -2.3530    2.4441    1.6352 O   0  0  0  0  0  0  0  0  0  0  0  0
   -0.9491    0.8970    2.4568 O   0  0  0  0  0  0  0  0  0  0  0  0
   -1.7034    1.6072   -1.0936 O   0  0  0  0  0  0  0  0  0  0  0  0
  2  1  2  0
  4  1  1  0
  4  8  1  6
  5  3  1  0
  5  4  1  0
  5  9  1  1
  7  2  1  0
  7  3  1  0
  7  6  1  0
  7 12  1  6
 10  6  2  0
 11  6  1  0
M  END
>  <DRUGBANK_ID>  (1) 
DB02801

>  <SECONDARY_ACCESSION_NUMBERS>  (1) 
EXPT01385

>  <COMMON_NAME>  (1) 
2,3-Anhydro-quinic acid

>  <CAS_NUMBER>  (1) 
227002-11-1

$$$$
