
     RDKit          3D

 22 23  0  0  0  0  0  0  0  0999 V2000
    1.1028    0.0850   -0.1911 C   0  0  0  0  0  0  0  0  0  0  0  0
    2.8967   -7.9772   -4.3760 C   0  0  0  0  0  0  0  0  0  0  0  0
   -0.4566   -5.3406    4.4479 C   0  0  0  0  0  0  0  0  0  0  0  0
    0.4914   -0.9826   -1.0878 C   0  0  0  0  0  0  0  0  0  0  0  0
    0.4775   -6.9537   -1.8837 C   0  0  0  0  0  0  0  0  0  0  0  0
    0.3185   -7.9634   -0.7393 C   0  0  0  0  0  0  0  0  0  0  0  0
    1.9361   -6.8004   -2.3329 C   0  0  0  0  0  0  0  0  0  0  0  0
    0.9152   -2.3899   -0.6773 C   0  0  0  0  0  0  0  0  0  0  0  0
    1.2227   -7.6893    0.4766 C   0  0  0  0  0  0  0  0  0  0  0  0
   -0.1788   -2.1780    1.6434 C   0  0  0  0  0  0  0  0  0  0  0  0
    2.4523   -8.0566   -2.9598 C   0  0  0  0  0  0  0  0  0  0  0  0
    0.5737   -4.1233    1.1049 C   0  0  0  0  0  0  0  0  0  0  0  0
    0.0478   -4.1544    2.3515 C   0  0  0  0  0  0  0  0  0  0  0  0
    1.1747   -5.2367    0.5214 C   0  0  0  0  0  0  0  0  0  0  0  0
    0.4072   -6.5178    2.4713 C   0  0  0  0  0  0  0  0  0  0  0  0
   -0.3707   -2.9228    2.7190 N   0  0  0  0  0  0  0  0  0  0  0  0
    0.0129   -5.3210    3.0789 N   0  0  0  0  0  0  0  0  0  0  0  0
    0.4496   -2.8517    0.6297 N   0  0  0  0  0  0  0  0  0  0  0  0
    0.8727   -6.4396    1.1477 N   0  0  0  0  0  0  0  0  0  0  0  0
    2.5364   -9.1090   -2.3264 O   0  0  0  0  0  0  0  0  0  0  0  0
    1.9063   -5.0580   -0.4465 O   0  0  0  0  0  0  0  0  0  0  0  0
    0.3635   -7.5926    3.0758 O   0  0  0  0  0  0  0  0  0  0  0  0
  4  1  1  0
  6  5  1  0
  7  5  1  0
  8  4  1  0
  9  6  1  0
 11  2  1  0
 11  7  1  0
 13 12  2  0
 14 12  1  0
 16 10  2  0
 16 13  1  0
 17  3  1  0
 17 13  1  0
 17 15  1  0
 18  8  1  0
 18 10  1  0
 18 12  1  0
 19  9  1  0
 19 14  1  0
 19 15  1  0
 20 11  2  0
 21 14  2  0
 22 15  2  0
M  END
>  <DRUGBANK_ID>  (1) 
DB06479

>  <COMMON_NAME>  (1) 
Propentofylline

>  <CAS_NUMBER>  (1) 
55242-55-2

>  <UNII>  (1) 
5RTA398U4H

>  <SYNONYMS>  (1) 
Propentofylline

$$$$
