
     RDKit          3D

 20 22  0  0  0  0  0  0  0  0999 V2000
    0.2037    4.3249   -0.5941 C   0  0  0  0  0  0  0  0  0  0  0  0
    0.6569    3.0357   -0.4149 N   0  0  0  0  0  0  0  0  0  0  0  0
   -0.9515    4.2119   -1.3492 C   0  0  0  0  0  0  0  0  0  0  0  0
    0.8034    5.4644   -0.2661 N   0  0  0  0  0  0  0  0  0  0  0  0
    2.0291    2.6098   -0.1226 C   0  0  2  0  0  0  0  0  0  0  0  0
   -0.2826    2.2116   -0.9945 C   0  0  0  0  0  0  0  0  0  0  0  0
   -1.2688    2.8907   -1.5475 N   0  0  0  0  0  0  0  0  0  0  0  0
   -1.5232    5.4191   -1.7890 C   0  0  0  0  0  0  0  0  0  0  0  0
    0.2234    6.5555   -0.7940 C   0  0  0  0  0  0  0  0  0  0  0  0
    2.3760    2.8719    1.2517 O   0  0  0  0  0  0  0  0  0  0  0  0
    3.0913    3.3010   -0.9894 C   0  0  2  0  0  0  0  0  0  0  0  0
   -0.9022    6.5856   -1.5227 N   0  0  0  0  0  0  0  0  0  0  0  0
   -2.6777    5.4625   -2.5422 N   0  0  0  0  0  0  0  0  0  0  0  0
    0.8767    7.7122   -0.6247 F   0  0  0  0  0  0  0  0  0  0  0  0
    3.4169    3.8945    1.2783 C   0  0  1  0  0  0  0  0  0  0  0  0
    3.5016    4.4948   -0.1251 C   0  0  1  0  0  0  0  0  0  0  0  0
    2.6801    3.5851   -2.3208 O   0  0  0  0  0  0  0  0  0  0  0  0
    3.0246    4.8865    2.3720 C   0  0  0  0  0  0  0  0  0  0  0  0
    4.7463    5.0827   -0.4660 O   0  0  0  0  0  0  0  0  0  0  0  0
    3.1508    4.2549    3.6506 O   0  0  0  0  0  0  0  0  0  0  0  0
  1  2  1  0
  1  3  1  0
  1  4  2  0
  2  6  1  0
  3  7  1  0
  3  8  2  0
  4  9  1  0
  5 10  1  0
  5 11  1  0
  5  2  1  6
  6  7  2  0
  8 12  1  0
  8 13  1  0
  9 14  1  0
  9 12  2  0
 10 15  1  0
 11 16  1  0
 11 17  1  6
 15 18  1  1
 15 16  1  0
 16 19  1  6
 18 20  1  0
M  END
>  <DRUGBANK_ID>  (1) 
DB01073

>  <SECONDARY_ACCESSION_NUMBERS>  (1) 
APRD00594

>  <COMMON_NAME>  (1) 
Fludarabine

>  <CAS_NUMBER>  (1) 
21679-14-1

>  <UNII>  (1) 
P2K93U8740

>  <SYNONYMS>  (1) 
2-F-ARAA; 2-fluoro ARA-A; Fludarabina; Fludarabine; Fludarabinum

$$$$
