
     RDKit          3D

 20 22  0  0  0  0  0  0  0  0999 V2000
    0.9402   -0.0039    0.2149 N   0  0  0  0  0  0  0  0  0  0  0  0
    0.2808    1.2386    0.2864 C   0  0  0  0  0  0  0  0  0  0  0  0
    0.6045    2.3457   -0.4971 C   0  0  0  0  0  0  0  0  0  0  0  0
   -0.1731    3.5378   -0.4421 C   0  0  0  0  0  0  0  0  0  0  0  0
   -1.3279    3.6039    0.3524 C   0  0  0  0  0  0  0  0  0  0  0  0
   -2.1856    4.7216    0.3955 N   0  0  0  0  0  0  0  0  0  0  0  0
   -3.2312    4.9131    1.3379 C   0  0  0  0  0  0  0  0  0  0  0  0
   -3.0956    4.6176    2.7066 C   0  0  0  0  0  0  0  0  0  0  0  0
   -4.1821    4.7240    3.5794 C   0  0  0  0  0  0  0  0  0  0  0  0
   -5.4031    5.1941    3.1043 C   0  0  0  0  0  0  0  0  0  0  0  0
   -5.5340    5.5503    1.7633 C   0  0  0  0  0  0  0  0  0  0  0  0
   -4.4591    5.3976    0.8828 C   0  0  0  0  0  0  0  0  0  0  0  0
   -1.6768    2.4668    1.0435 C   0  0  0  0  0  0  0  0  0  0  0  0
   -0.8067    1.4002    1.1405 C   0  0  0  0  0  0  0  0  0  0  0  0
    0.1391   -1.2275   -0.1282 C   0  0  0  0  0  0  0  0  0  0  0  0
   -1.0628   -1.3852    0.8094 C   0  0  0  0  0  0  0  0  0  0  0  0
   -1.8501   -2.6634    0.7362 C   0  0  0  0  0  0  0  0  0  0  0  0
   -0.9341   -3.8451    0.9260 C   0  0  0  0  0  0  0  0  0  0  0  0
    0.1967   -3.7967   -0.0971 C   0  0  0  0  0  0  0  0  0  0  0  0
    1.0163   -2.4942   -0.0179 C   0  0  0  0  0  0  0  0  0  0  0  0
  1  2  1  0
  1 15  1  0
  2  3  2  0
  2 14  1  0
  3  4  1  0
  4  5  2  0
  5  6  1  0
  5 13  1  0
  6  7  1  0
  7  8  2  0
  7 12  1  0
  8  9  1  0
  9 10  2  0
 10 11  1  0
 11 12  2  0
 13 14  2  0
 15 16  1  0
 15 20  1  0
 16 17  1  0
 17 18  1  0
 18 19  1  0
 19 20  1  0
M  END
>  <DRUGBANK_ID>  (1) 
DB14196

>  <COMMON_NAME>  (1) 
N-Cyclohexyl-N'-phenyl-1,4-phenylenediamine

>  <CAS_NUMBER>  (1) 
101-87-1

>  <UNII>  (1) 
T29JGK5V4R

>  <SYNONYMS>  (1) 
CPPD; N-Cyclohexyl-N'-phenyl-1,4-phenylenediamine; N-Cyclohexyl-N'-phenyl-p-phenylendiamine; N-cyclohexyl-N'-phenyl-p-phenylenediamine

$$$$
