QPP
     RDKit          3D

 23 26  0  0  0  0  0  0  0  0999 V2000
    0.9889   -0.1543   -1.1657 C   0  0  0  0  0  0  0  0  0  0  0  0
    0.2365   -1.2166   -0.6097 C   0  0  0  0  0  0  0  0  0  0  0  0
   -1.0693   -1.0135   -0.1891 C   0  0  0  0  0  0  0  0  0  0  0  0
   -1.5677    0.2829   -0.1916 C   0  0  0  0  0  0  0  0  0  0  0  0
   -0.7461    1.3687   -0.5908 C   0  0  0  0  0  0  0  0  0  0  0  0
    0.5428    1.1867   -1.1735 C   0  0  0  0  0  0  0  0  0  0  0  0
    1.5310    2.3281   -1.4495 C   0  0  0  0  0  0  0  0  0  0  0  0
    1.1003    3.5635   -1.1759 N   0  0  0  0  0  0  0  0  0  0  0  0
    2.8757    2.0158   -1.4292 N   0  0  0  0  0  0  0  0  0  0  0  0
    3.7938    3.0111   -1.1587 C   0  0  0  0  0  0  0  0  0  0  0  0
    5.1956    2.8167   -1.0839 C   0  0  0  0  0  0  0  0  0  0  0  0
    6.1146    3.8774   -1.1620 C   0  0  0  0  0  0  0  0  0  0  0  0
    5.6287    5.1604   -1.3077 C   0  0  0  0  0  0  0  0  0  0  0  0
    4.2553    5.3762   -1.1084 C   0  0  0  0  0  0  0  0  0  0  0  0
    3.3587    4.2659   -0.8510 C   0  0  0  0  0  0  0  0  0  0  0  0
    1.9949    4.2344   -0.4335 C   0  0  0  0  0  0  0  0  0  0  0  0
    1.7563    3.8264    1.0041 N   0  0  0  0  0  0  0  0  0  0  0  0
    2.1314    2.5575    1.4538 C   0  0  0  0  0  0  0  0  0  0  0  0
    3.4626    2.1173    1.6910 C   0  0  0  0  0  0  0  0  0  0  0  0
    3.4395    0.7415    1.5309 C   0  0  0  0  0  0  0  0  0  0  0  0
    4.4321   -0.3453    1.3597 C   0  0  0  0  0  0  0  0  0  0  0  0
    2.1166    0.4384    1.4600 N   0  0  0  0  0  0  0  0  0  0  0  0
    1.3052    1.5092    1.5580 N   0  0  0  0  0  0  0  0  0  0  0  0
  1  2  2  0
  1  6  1  0
  2  3  1  0
  3  4  2  0
  4  5  1  0
  5  6  2  0
  6  7  1  0
  7  8  2  0
  7  9  1  0
  8 16  1  0
  9 10  2  0
 10 11  1  0
 10 15  1  0
 11 12  2  0
 12 13  1  0
 13 14  2  0
 14 15  1  0
 15 16  2  0
 16 17  1  0
 17 18  1  0
 18 19  1  0
 18 23  2  0
 19 20  2  0
 20 21  1  0
 20 22  1  0
 22 23  1  0
M  END
>  <DRUGBANK_ID>  (1) 
DB08454

>  <COMMON_NAME>  (1) 
N-(5-METHYL-1H-PYRAZOL-3-YL)-2-PHENYLQUINAZOLIN-4-AMINE

$$$$
