497
     RDKit          3D

 23 27  0  0  1  0  0  0  0  0999 V2000
    0.6629   -0.6529   -0.3267 C   0  0  0  0  0  0  0  0  0  0  0  0
    0.9243    0.7028   -0.1851 C   0  0  0  0  0  0  0  0  0  0  0  0
    1.7305   -1.5636   -0.1419 C   0  0  0  0  0  0  0  0  0  0  0  0
    2.2555    1.1514   -0.0324 C   0  0  0  0  0  0  0  0  0  0  0  0
    3.0406   -1.1486   -0.0814 C   0  0  0  0  0  0  0  0  0  0  0  0
    3.3007    0.2046   -0.0253 C   0  0  0  0  0  0  0  0  0  0  0  0
   -1.1061   -1.1176   -0.5327 C   0  0  1  0  0  0  0  0  0  0  0  0
   -1.0852   -1.8497    0.6799 C   0  0  1  0  0  0  0  0  0  0  0  0
   -1.2502    0.4464    0.1926 C   0  0  1  0  0  0  0  0  0  0  0  0
    0.0396   -3.0372    1.1106 C   0  0  2  0  0  0  0  0  0  0  0  0
   -2.9424   -1.3141    0.7232 C   0  0  0  0  0  0  0  0  0  0  0  0
   -0.2204    1.4203   -0.1387 O   0  0  0  0  0  0  0  0  0  0  0  0
   -2.5222    1.0388   -0.2079 C   0  0  0  0  0  0  0  0  0  0  0  0
    1.4250   -2.9986    0.0358 C   0  0  0  0  0  0  0  0  0  0  0  0
   -0.4534   -4.4091    0.8554 N   0  0  0  0  0  0  0  0  0  0  0  0
   -3.4850   -0.0556   -0.2629 C   0  0  0  0  0  0  0  0  0  0  0  0
   -2.7541    2.2107   -0.4716 O   0  0  0  0  0  0  0  0  0  0  0  0
    2.7790    2.4023    0.1415 O   0  0  0  0  0  0  0  0  0  0  0  0
   -1.1618   -4.8837    2.0375 C   0  0  0  0  0  0  0  0  0  0  0  0
   -0.4809   -2.2562   -0.9286 O   0  0  0  0  0  0  0  0  0  0  0  0
   -1.2682   -4.5107   -0.3981 C   0  0  0  0  0  0  0  0  0  0  0  0
   -2.1720   -2.9414   -0.6931 C   0  0  0  0  0  0  0  0  0  0  0  0
    1.9146    3.5158    0.1737 C   0  0  0  0  0  0  0  0  0  0  0  0
  1  2  1  0
  1  3  2  0
  2 12  1  0
  2  4  2  0
  3 14  1  0
  3  5  1  0
  4 18  1  0
  4  6  1  0
  5  6  2  0
  7  1  1  0
  7  8  1  0
  7  9  1  0
  7 22  1  6
  8 10  1  0
  8 11  1  0
  8 20  1  1
  9 12  1  6
  9 13  1  0
 10 15  1  0
 10 14  1  6
 11 16  1  0
 13 17  2  0
 13 16  1  0
 15 19  1  0
 18 23  1  0
 21 15  1  0
 22 21  1  0
M  END
>  <DRUGBANK_ID>  (1) 
DB00497

>  <SECONDARY_ACCESSION_NUMBERS>  (1) 
APRD00387

>  <COMMON_NAME>  (1) 
Oxycodone

>  <CAS_NUMBER>  (1) 
76-42-6

>  <UNII>  (1) 
CD35PMG570

>  <SYNONYMS>  (1) 
(-)-14-Hydroxydihydrocodeinone; 4,5-Epoxy-14-hydroxy-3-methoxy-17-methylmorphinan-6-one; 4,5alpha-Epoxy-14-hydroxy-3-methoxy-17-methylmorphinan-6-one; 4,5Î±-Epoxy-14-hydroxy-3-methoxy-17-methylmorphinan-6-one; Dihydro-14-hydroxycodeinone; Dihydrohydroxycodeinone; Dihydroxycodeinone; Oxicodona; Oxycodone; Oxycodonum

$$$$
