
     RDKit          3D

  9  6  0  0  0  0  0  0  0  0999 V2000
   -0.1274    1.2520   -0.1389 Na  0  0  0  0  0 15  0  0  0  0  0  0
    1.4789   -1.5794    1.1021 Na  0  0  0  0  0 15  0  0  0  0  0  0
    1.5220    0.0481   -0.6204 O   0  0  0  0  0  0  0  0  0  0  0  0
    2.9948    0.1866   -0.2315 S   0  0  0  0  0  0  0  0  0  0  0  0
    3.5714    2.3299   -0.1122 S   0  0  0  0  0  0  0  0  0  0  0  0
    2.8614    2.6886    1.1119 O   0  0  0  0  0  0  0  0  0  0  0  0
    3.2064   -0.4878    1.1138 O   0  0  0  0  0  0  0  0  0  0  0  0
    5.0339    2.2347   -0.0484 O   0  0  0  0  0  0  0  0  0  0  0  0
    2.9670    2.8218   -1.3331 O   0  0  0  0  0  0  0  0  0  0  0  0
  3  4  1  0
  4  5  1  0
  4  7  2  0
  5  6  2  0
  5  8  1  0
  5  9  2  0
M  CHG  4   1   1   2   1   3  -1   8  -1
M  END
>  <DRUGBANK_ID>  (1) 
DB15842

>  <COMMON_NAME>  (1) 
Sodium metabisulfite

>  <CAS_NUMBER>  (1) 
7681-57-4

>  <UNII>  (1) 
4VON5FNS3C

>  <SYNONYMS>  (1) 
Disodium pentaoxodisulfate; Disodium pyrosulfite; Disodium pyrosulphite; Disulfurous acid, disodium salt; Sodium metabisulfite; Sodium metabisulphite; Sodium pyrosulfite; Sodium pyrosulphite

$$$$
