
     RDKit          3D

 31 33  0  0  0  0  0  0  0  0999 V2000
    6.1718    1.2764   -0.7997 C   0  0  0  0  0  0  0  0  0  0  0  0
    6.1027   -0.1450   -0.4201 C   0  0  0  0  0  0  0  0  0  0  0  0
    5.0166    2.1847   -0.8908 C   0  0  0  0  0  0  0  0  0  0  0  0
    7.4167    1.8204   -1.0683 C   0  0  0  0  0  0  0  0  0  0  0  0
    5.0760   -1.0249   -0.1031 O   0  0  0  0  0  0  0  0  0  0  0  0
    7.2901   -0.8876   -0.3175 C   0  0  0  0  0  0  0  0  0  0  0  0
    4.6833    3.6429   -1.0880 C   0  0  0  0  0  0  0  0  0  0  0  0
    3.9920    1.5690   -0.5867 O   0  0  0  0  0  0  0  0  0  0  0  0
    8.5531    1.0394   -0.9890 C   0  0  0  0  0  0  0  0  0  0  0  0
    7.7276    3.0931   -1.4246 O   0  0  0  0  0  0  0  0  0  0  0  0
    3.7725   -0.6011    0.2830 C   0  0  2  0  0  0  0  0  0  0  0  0
    8.4939   -0.2883   -0.6123 C   0  0  0  0  0  0  0  0  0  0  0  0
    3.6107    3.8753   -2.2246 C   0  0  0  0  0  0  0  0  0  0  0  0
    3.0469   -0.3686   -0.9253 O   0  0  0  0  0  0  0  0  0  0  0  0
    3.9459    0.3922    1.5046 C   0  0  1  0  0  0  0  0  0  0  0  0
    9.6360   -1.0198   -0.5419 O   0  0  0  0  0  0  0  0  0  0  0  0
    2.1262    3.8044   -1.8280 C   0  0  0  0  0  0  0  0  0  0  0  0
    1.7882    0.2562   -0.7246 C   0  0  1  0  0  0  0  0  0  0  0  0
    2.6790    1.0708    1.9161 C   0  0  2  0  0  0  0  0  0  0  0  0
    4.5008   -0.2915    2.6359 O   0  0  0  0  0  0  0  0  0  0  0  0
    1.6477    2.6229   -1.4765 C   0  0  0  0  0  0  0  0  0  0  0  0
    0.9755    4.5309   -1.9060 C   0  0  0  0  0  0  0  0  0  0  0  0
    1.9114    1.5299    0.7102 C   0  0  2  0  0  0  0  0  0  0  0  0
    1.1571    0.5284   -2.5302 C   0  0  0  0  0  0  0  0  0  0  0  0
    3.0110    2.2044    2.7848 O   0  0  0  0  0  0  0  0  0  0  0  0
    0.2527    2.1406   -1.0270 C   0  0  0  0  0  0  0  0  0  0  0  0
   -0.4617    4.0579   -1.5393 C   0  0  0  0  0  0  0  0  0  0  0  0
    0.7748    2.2060    1.3304 O   0  0  0  0  0  0  0  0  0  0  0  0
    1.2270   -0.5767   -3.3863 O   0  0  0  0  0  0  0  0  0  0  0  0
   -0.8422    2.8455   -1.0479 C   0  0  0  0  0  0  0  0  0  0  0  0
   -2.0169    2.2111   -0.8248 O   0  0  0  0  0  0  0  0  0  0  0  0
  1  2  1  0
  1  3  1  0
  1  4  2  0
  2  5  1  0
  2  6  2  0
  3  7  1  0
  3  8  2  0
  4  9  1  0
  4 10  1  0
  6 12  1  0
  7 13  1  0
  9 12  2  0
 11 14  1  0
 11 15  1  0
 11  5  1  6
 12 16  1  0
 13 17  1  0
 14 18  1  0
 15 19  1  0
 15 20  1  1
 17 21  2  0
 17 22  1  0
 18 23  1  0
 18 24  1  6
 19 25  1  1
 19 23  1  0
 21 26  1  0
 22 27  2  0
 23 28  1  1
 24 29  1  0
 26 30  2  0
 27 30  1  0
 30 31  1  0
M  END
>  <DRUGBANK_ID>  (1) 
DB16771

>  <COMMON_NAME>  (1) 
Phlorizin

>  <CAS_NUMBER>  (1) 
60-81-1

>  <UNII>  (1) 
CU9S17279X

>  <SYNONYMS>  (1) 
Floridzin; Phloretin 2'-glucoside; Phlorhizin; Phloridzin; Phloridzosid; Phlorizoside; Phlorrhizen; Phlorrhizin

$$$$
