
     RDKit          3D

 36 39  0  0  1  0  0  0  0  0999 V2000
    8.3797  -12.5312   -2.0014 C   0  0  0  0  0  0  0  0  0  0  0  0
    9.6193  -11.7476   -2.4034 C   0  0  0  0  0  0  0  0  0  0  0  0
    9.4351  -10.2458   -2.3618 C   0  0  0  0  0  0  0  0  0  0  0  0
    9.3247   -9.7820   -0.9381 C   0  0  0  0  0  0  0  0  0  0  0  0
   10.1841   -9.4232   -0.2203 O   0  0  0  0  0  0  0  0  0  0  0  0
    8.0051   -9.8225   -0.7230 O   0  0  0  0  0  0  0  0  0  0  0  0
    7.3041   -9.2216    0.2904 C   0  0  2  0  0  0  0  0  0  0  0  0
    6.6589   -7.6208   -0.6542 C   0  0  0  0  0  0  0  0  0  0  0  0
    5.3750   -7.3067    0.0115 C   0  0  0  0  0  0  0  0  0  0  0  0
    5.6872   -8.6090    0.5172 C   0  0  1  0  0  0  0  0  0  0  0  0
    7.3317   -8.3756    1.4231 C   0  0  1  0  0  0  0  0  0  0  0  0
    6.8478   -7.6334    2.6288 C   0  0  0  0  0  0  0  0  0  0  0  0
    5.8047   -8.3623    3.3840 C   0  0  1  0  0  0  0  0  0  0  0  0
    4.4974   -8.7087    2.4617 C   0  0  1  0  0  0  0  0  0  0  0  0
    4.6064   -9.3879    1.1262 C   0  0  1  0  0  0  0  0  0  0  0  0
    3.3884   -9.5201    0.2106 C   0  0  0  0  0  0  0  0  0  0  0  0
    2.4472  -10.4529    0.9424 C   0  0  1  0  0  0  0  0  0  0  0  0
    2.2031   -9.9256    2.3398 C   0  0  0  0  0  0  0  0  0  0  0  0
    0.9557   -9.8711    2.8368 C   0  0  0  0  0  0  0  0  0  0  0  0
    0.6950   -9.1329    4.1135 C   0  0  0  0  0  0  0  0  0  0  0  0
   -0.2838   -9.3796    4.8005 O   0  0  0  0  0  0  0  0  0  0  0  0
    1.7101   -8.1393    4.6205 C   0  0  0  0  0  0  0  0  0  0  0  0
    2.6732   -7.9768    3.7175 C   0  0  0  0  0  0  0  0  0  0  0  0
    3.3026   -9.2718    3.1997 C   0  0  2  0  0  0  0  0  0  0  0  0
    3.6568  -10.1921    4.4021 C   0  0  0  0  0  0  0  0  0  0  0  0
    1.3013  -10.5075    0.2100 F   0  0  0  0  0  0  0  0  0  0  0  0
    4.1273   -7.4402    2.0223 F   0  0  0  0  0  0  0  0  0  0  0  0
    6.6067   -9.2726    4.1409 O   0  0  0  0  0  0  0  0  0  0  0  0
    8.6748   -7.5623    1.1054 C   0  0  0  0  0  0  0  0  0  0  0  0
    6.7562  -10.8618    1.0274 C   0  0  0  0  0  0  0  0  0  0  0  0
    6.5895  -11.8381    0.2745 O   0  0  0  0  0  0  0  0  0  0  0  0
    6.1367  -11.2592    2.5620 C   0  0  0  0  0  0  0  0  0  0  0  0
    6.8226  -11.5421    3.7491 O   0  0  0  0  0  0  0  0  0  0  0  0
    7.2784  -12.7926    3.8392 C   0  0  0  0  0  0  0  0  0  0  0  0
    7.0162  -13.6791    3.0479 O   0  0  0  0  0  0  0  0  0  0  0  0
    8.2564  -12.8577    4.9612 C   0  0  0  0  0  0  0  0  0  0  0  0
  1  2  1  0
  2  3  1  0
  3  4  1  0
  4  5  2  0
  4  6  1  0
  7  6  1  6
  7  8  1  0
  7 11  1  0
  7 30  1  0
  8  9  1  0
 10  9  1  1
 10 11  1  0
 10 15  1  0
 11 12  1  0
 11 29  1  6
 12 13  1  0
 13 14  1  0
 13 28  1  6
 14 15  1  0
 14 24  1  0
 14 27  1  6
 15 16  1  6
 16 17  1  0
 17 18  1  0
 17 26  1  6
 18 19  2  0
 18 24  1  0
 19 20  1  0
 20 21  2  0
 20 22  1  0
 22 23  2  0
 23 24  1  0
 24 25  1  1
 30 31  2  0
 30 32  1  0
 32 33  1  0
 33 34  1  0
 34 35  2  0
 34 36  1  0
M  END
>  <DRUGBANK_ID>  (1) 
DB06781

>  <COMMON_NAME>  (1) 
Difluprednate

>  <CAS_NUMBER>  (1) 
23674-86-4

>  <UNII>  (1) 
S8A06QG2QE

>  <SYNONYMS>  (1) 
DFBA; Difluoroprednisolone butyrate acetate; Difluprednate

$$$$
