
     RDKit          3D

 21 24  0  0  1  0  0  0  0  0999 V2000
   -1.8454    0.0463    0.5857 C   0  0  0  0  0  0  0  0  0  0  0  0
   -0.6840   -0.3882    1.5097 C   0  0  1  0  0  0  0  0  0  0  0  0
   -1.4362   -1.9550    1.2895 C   0  0  0  0  0  0  0  0  0  0  0  0
   -0.9049   -2.2962   -0.1826 C   0  0  0  0  0  0  0  0  0  0  0  0
    0.5561   -2.6690   -0.1204 C   0  0  0  0  0  0  0  0  0  0  0  0
    1.1075   -2.2674    1.2535 C   0  0  0  0  0  0  0  0  0  0  0  0
    0.8363   -0.7456    1.4050 C   0  0  0  0  0  0  0  0  0  0  0  0
    1.8874    0.0991    1.5896 C   0  0  0  0  0  0  0  0  0  0  0  0
    1.9539    1.6409    1.7982 C   0  0  0  0  0  0  0  0  0  0  0  0
    0.6444    2.3822    1.3751 C   0  0  1  0  0  0  0  0  0  0  0  0
   -0.5803    1.2930    2.1646 C   0  0  1  0  0  0  0  0  0  0  0  0
   -1.8836    2.0793    2.0872 C   0  0  0  0  0  0  0  0  0  0  0  0
   -1.8836    3.4960    2.4800 C   0  0  0  0  0  0  0  0  0  0  0  0
   -1.0739    4.2695    1.4644 C   0  0  2  0  0  0  0  0  0  0  0  0
    0.4555    4.2325    1.5739 C   0  0  2  0  0  0  0  0  0  0  0  0
    0.4778    5.9423    0.8210 C   0  0  0  0  0  0  0  0  0  0  0  0
   -1.0027    6.5335    0.6374 C   0  0  2  0  0  0  0  0  0  0  0  0
   -1.4337    5.6978    1.7374 C   0  0  0  0  0  0  0  0  0  0  0  0
   -1.6532    6.1779    2.8898 O   0  0  0  0  0  0  0  0  0  0  0  0
   -1.5903    6.2258   -0.5464 F   0  0  0  0  0  0  0  0  0  0  0  0
   -1.2419    3.8972   -0.1004 C   0  0  0  0  0  0  0  0  0  0  0  0
  2  3  1  0
  2  7  1  0
  2 11  1  0
  2  1  1  6
  3  4  1  0
  4  5  1  0
  5  6  1  0
  6  7  1  0
  7  8  2  0
  8  9  1  0
 10  9  1  1
 10 11  1  0
 10 15  1  0
 11 12  1  6
 12 13  1  0
 13 14  1  0
 14 15  1  0
 14 18  1  0
 14 21  1  6
 15 16  1  6
 16 17  1  0
 17 18  1  0
 17 20  1  6
 18 19  2  0
M  END
>  <DRUGBANK_ID>  (1) 
DB06250

>  <COMMON_NAME>  (1) 
Fluasterone

>  <CAS_NUMBER>  (1) 
112859-71-9

>  <UNII>  (1) 
R7M5UGD04G

$$$$
