M1C
     RDKit          3D

 14 14  0  0  0  0  0  0  0  0999 V2000
   -0.2670    1.0294   -0.1736 C   0  0  0  0  0  0  0  0  0  0  0  0
    0.5942   -0.1772   -0.2195 C   0  0  0  0  0  0  0  0  0  0  0  0
   -0.8987   -0.3308   -0.3083 C   0  0  0  0  0  0  0  0  0  0  0  0
   -1.0948   -3.6996    3.2190 N   0  0  0  0  0  0  0  0  0  0  0  0
   -0.0983   -3.0871    2.2948 C   0  0  2  0  0  0  0  0  0  0  0  0
   -0.5465   -3.2518    0.7905 C   0  0  0  0  0  0  0  0  0  0  0  0
   -1.8439   -2.4257    0.5300 C   0  0  0  0  0  0  0  0  0  0  0  0
   -1.7179   -0.9569    0.7460 N   0  0  0  0  0  0  0  0  0  0  0  0
   -0.7792   -4.6287    0.5158 O   0  0  0  0  0  0  0  0  0  0  0  0
    0.4013   -2.8354   -0.1653 O   0  0  0  0  0  0  0  0  0  0  0  0
    1.2915   -3.6800    2.6269 C   0  0  0  0  0  0  0  0  0  0  0  0
    2.4973   -2.9774    1.9808 C   0  0  0  0  0  0  0  0  0  0  0  0
    2.5399   -1.4874    2.2877 C   0  0  0  0  0  0  0  0  0  0  0  0
    2.9024   -1.1614    3.7112 C   0  0  0  0  0  0  0  0  0  0  0  0
  1  2  1  0
  1  3  1  0
  2  3  1  0
  3  8  1  0
  5  4  1  1
  5  6  1  0
  5 11  1  0
  6  7  1  0
  6  9  1  0
  6 10  1  0
  7  8  1  0
 11 12  1  0
 12 13  1  0
 13 14  1  0
M  END
>  <DRUGBANK_ID>  (1) 
DB02408

>  <SECONDARY_ACCESSION_NUMBERS>  (1) 
EXPT02083

>  <COMMON_NAME>  (1) 
(3s)-3-Amino-1-(Cyclopropylamino)Heptane-2,2-Diol

$$$$
