HA3
     RDKit          3D

 26 29  0  0  0  0  0  0  0  0999 V2000
    1.3798   -0.2178   -0.0008 C   0  0  0  0  0  0  0  0  0  0  0  0
    0.5028   -1.3039    0.0207 C   0  0  0  0  0  0  0  0  0  0  0  0
   -0.8744   -1.0893    0.0028 C   0  0  0  0  0  0  0  0  0  0  0  0
   -1.3760    0.2106    0.0140 C   0  0  0  0  0  0  0  0  0  0  0  0
   -0.4996    1.2970    0.0268 C   0  0  0  0  0  0  0  0  0  0  0  0
    0.8835    1.0895   -0.0440 C   0  0  0  0  0  0  0  0  0  0  0  0
    1.7892    2.2052   -0.2828 C   0  0  0  0  0  0  0  0  0  0  0  0
    2.6377    2.4468   -1.3488 C   0  0  0  0  0  0  0  0  0  0  0  0
    3.2880    3.6483   -1.2172 N   0  0  0  0  0  0  0  0  0  0  0  0
    2.8413    4.1694   -0.0927 C   0  0  0  0  0  0  0  0  0  0  0  0
    3.2566    5.4688    0.5352 C   0  0  0  0  0  0  0  0  0  0  0  0
    1.9412    3.3149    0.5054 N   0  0  0  0  0  0  0  0  0  0  0  0
    1.3037    3.5832    1.7775 C   0  0  0  0  0  0  0  0  0  0  0  0
    2.0716    4.6525    2.5422 C   0  0  0  0  0  0  0  0  0  0  0  0
    2.3872    5.7851    1.6723 N   0  0  0  0  0  0  0  0  0  0  0  0
    1.8212    7.0519    1.7460 C   0  0  0  0  0  0  0  0  0  0  0  0
    2.0523    7.9052    0.8902 O   0  0  0  0  0  0  0  0  0  0  0  0
    0.8630    7.3011    2.8039 C   0  0  0  0  0  0  0  0  0  0  0  0
   -0.6836    7.7103    2.2747 S   0  0  0  0  0  0  0  0  0  0  0  0
    0.9361    7.2858    4.1813 C   0  0  0  0  0  0  0  0  0  0  0  0
   -0.3297    7.6125    4.7840 C   0  0  0  0  0  0  0  0  0  0  0  0
   -1.3179    7.8786    3.8429 C   0  0  0  0  0  0  0  0  0  0  0  0
   -2.7139    8.2578    4.0774 C   0  0  0  0  0  0  0  0  0  0  0  0
   -3.1673    8.3790    5.2127 O   0  0  0  0  0  0  0  0  0  0  0  0
   -3.5772    8.4878    3.0272 N   0  0  0  0  0  0  0  0  0  0  0  0
   -3.3321    8.4112    1.6516 O   0  0  0  0  0  0  0  0  0  0  0  0
  1  2  2  0
  1  6  1  0
  2  3  1  0
  3  4  2  0
  4  5  1  0
  5  6  2  0
  6  7  1  0
  7  8  2  0
  7 12  1  0
  8  9  1  0
  9 10  2  0
 10 11  1  0
 10 12  1  0
 11 15  1  0
 12 13  1  0
 13 14  1  0
 14 15  1  0
 15 16  1  0
 16 17  2  0
 16 18  1  0
 18 19  1  0
 18 20  2  0
 19 22  1  0
 20 21  1  0
 21 22  2  0
 22 23  1  0
 23 24  2  0
 23 25  1  0
 25 26  1  0
M  END
>  <DRUGBANK_ID>  (1) 
DB07879

>  <COMMON_NAME>  (1) 
N-hydroxy-5-[(3-phenyl-5,6-dihydroimidazo[1,2-a]pyrazin-7(8H)-yl)carbonyl]thiophene-2-carboxamide

$$$$
