NB1
     RDKit          3D

 16 17  0  0  0  0  0  0  0  0999 V2000
   -0.3687   -0.7573    0.5919 C   0  0  2  0  0  0  0  0  0  0  0  0
   -0.2063    0.7670    0.5894 C   0  0  1  0  0  0  0  0  0  0  0  0
    1.1818    1.3046    0.2474 C   0  0  2  0  0  0  0  0  0  0  0  0
    2.0146    0.3474   -0.6185 C   0  0  1  0  0  0  0  0  0  0  0  0
    1.9532   -1.0830   -0.0877 C   0  0  1  0  0  0  0  0  0  0  0  0
    2.6578   -1.3764    1.2649 C   0  0  0  0  0  0  0  0  0  0  0  0
   -2.1999    0.6933   -0.5077 C   0  0  0  0  0  0  0  0  0  0  0  0
   -3.4294    1.2744   -1.1548 C   0  0  0  0  0  0  0  0  0  0  0  0
   -3.1876    3.5843   -0.0352 C   0  0  0  0  0  0  0  0  0  0  0  0
   -1.1616    1.4339   -0.3030 N   0  0  0  0  0  0  0  0  0  0  0  0
    1.8328    1.6615    1.4712 O   0  0  0  0  0  0  0  0  0  0  0  0
    1.5020    0.3384   -1.9653 O   0  0  0  0  0  0  0  0  0  0  0  0
    0.5717   -1.5101   -0.1696 O   0  0  0  0  0  0  0  0  0  0  0  0
    2.9007   -0.2734    2.1256 O   0  0  0  0  0  0  0  0  0  0  0  0
   -2.0777   -0.9740   -0.0343 S   0  0  0  0  0  0  0  0  0  0  0  0
   -4.0864    2.3786   -0.3023 C   0  0  0  0  0  0  0  0  0  0  0  0
  1  2  1  0
  1 13  1  6
  1 15  1  0
  2  3  1  0
  2 10  1  6
  3  4  1  0
  3 11  1  1
  4  5  1  0
  4 12  1  6
  5 13  1  0
  5  6  1  1
  6 14  1  0
  7  8  1  0
  7 10  2  0
  7 15  1  0
  8 16  1  0
  9 16  1  0
M  END
>  <DRUGBANK_ID>  (1) 
DB08255

>  <COMMON_NAME>  (1) 
(3AR,5R,6S,7R,7AR)-5-(HYDROXYMETHYL)-2-PROPYL-5,6,7,7A-TETRAHYDRO-3AH-PYRANO[3,2-D][1,3]THIAZOLE-6,7-DIOL

$$$$
