704
     RDKit          3D

 25 30  0  0  1  0  0  0  0  0999 V2000
   -0.1140    1.4809    1.3891 O   0  0  0  0  0  0  0  0  0  0  0  0
   -1.7173   -3.0434   -0.5713 O   0  0  0  0  0  0  0  0  0  0  0  0
   -2.9062    2.2983   -0.2746 O   0  0  0  0  0  0  0  0  0  0  0  0
    3.0633    2.3206    1.2115 O   0  0  0  0  0  0  0  0  0  0  0  0
    0.7008   -0.4352   -1.6848 N   0  0  0  0  0  0  0  0  0  0  0  0
   -0.8369   -0.4715    0.0417 C   0  0  2  0  0  0  0  0  0  0  0  0
   -1.3971   -1.8510    0.2252 C   0  0  2  0  0  0  0  0  0  0  0  0
    0.0972   -1.9365   -0.7219 C   0  0  2  0  0  0  0  0  0  0  0  0
   -1.2930    0.7254    0.8763 C   0  0  2  0  0  0  0  0  0  0  0  0
   -1.3254   -0.6240   -1.7467 C   0  0  0  0  0  0  0  0  0  0  0  0
    0.7977   -0.5018    0.8364 C   0  0  0  0  0  0  0  0  0  0  0  0
   -2.9662   -1.3970    0.2309 C   0  0  0  0  0  0  0  0  0  0  0  0
   -0.3751    0.1688   -2.4186 C   0  0  0  0  0  0  0  0  0  0  0  0
    1.4038   -2.6370   -0.5391 C   0  0  0  0  0  0  0  0  0  0  0  0
    1.8976   -1.4763    0.3318 C   0  0  0  0  0  0  0  0  0  0  0  0
    1.4757    0.9351   -1.4662 C   0  0  0  0  0  0  0  0  0  0  0  0
   -3.5208   -0.0144   -0.2325 C   0  0  0  0  0  0  0  0  0  0  0  0
    0.8243    2.3377   -0.9556 C   0  0  0  0  0  0  0  0  0  0  0  0
   -2.5751    1.1259    0.0898 C   0  0  0  0  0  0  0  0  0  0  0  0
    1.0776    0.7066    1.3825 C   0  0  0  0  0  0  0  0  0  0  0  0
   -0.3165    3.1808   -1.4655 C   0  0  0  0  0  0  0  0  0  0  0  0
    1.0353    3.8010   -1.2922 C   0  0  0  0  0  0  0  0  0  0  0  0
    3.2364   -1.2033    0.3805 C   0  0  0  0  0  0  0  0  0  0  0  0
    2.5077    1.0357    1.3043 C   0  0  0  0  0  0  0  0  0  0  0  0
    3.5330    0.0845    0.8087 C   0  0  0  0  0  0  0  0  0  0  0  0
  9  1  1  6
  1 20  1  0
  3 19  2  0
  4 24  1  0
  5  8  1  0
  5 13  1  0
  5 16  1  0
  6  7  1  0
  6  9  1  0
  6 10  1  6
  6 11  1  0
  7  2  1  6
  7  8  1  0
  7 12  1  0
  8 14  1  1
  9 19  1  0
 10 13  1  0
 11 15  2  0
 11 20  1  0
 12 17  1  0
 14 15  1  0
 15 23  1  0
 16 18  1  0
 17 19  1  0
 18 21  1  0
 18 22  1  0
 20 24  2  0
 21 22  1  0
 23 25  2  0
 24 25  1  0
M  END
>  <DRUGBANK_ID>  (1) 
DB00704

>  <SECONDARY_ACCESSION_NUMBERS>  (1) 
APRD00005; DB05067

>  <COMMON_NAME>  (1) 
Naltrexone

>  <CAS_NUMBER>  (1) 
16590-41-3

>  <UNII>  (1) 
5S6W795CQM

>  <SYNONYMS>  (1) 
17-(Cyclopropylmethyl)-4,5-epoxy-3,14-dihydroxymorphinan-6-one; 17-(Cyclopropylmethyl)-4,5Î±-epoxy-3,14-dihydroxymorphinan-6-one; N-Cyclopropylmethyl-14-hydroxydihydromorphinone; N-Cyclopropylmethylnoroxymorphone; Naltrexon; Naltrexona; Naltrexone; Naltrexonum

$$$$
