
     RDKit          3D

 18 18  0  0  0  0  0  0  0  0999 V2000
    0.9705    0.0449   -0.0050 C   0  0  0  0  0  0  0  0  0  0  0  0
    2.4197   -3.5306   -3.6687 C   0  0  0  0  0  0  0  0  0  0  0  0
    0.5857    0.1536   -1.4785 C   0  0  0  0  0  0  0  0  0  0  0  0
   -0.0060   -3.0123   -5.1921 C   0  0  0  0  0  0  0  0  0  0  0  0
    0.3657   -3.0172   -6.5367 C   0  0  0  0  0  0  0  0  0  0  0  0
    0.3019   -0.6545   -5.1670 C   0  0  0  0  0  0  0  0  0  0  0  0
   -0.0149   -1.7720   -2.9260 C   0  0  0  0  0  0  0  0  0  0  0  0
    3.4132   -0.3456   -1.9751 C   0  0  0  0  0  0  0  0  0  0  0  0
    0.0516   -1.8159   -4.4478 C   0  0  0  0  0  0  0  0  0  0  0  0
    0.6160   -1.7986   -7.1343 C   0  0  0  0  0  0  0  0  0  0  0  0
    2.5091   -1.2527   -2.4470 C   0  0  0  0  0  0  0  0  0  0  0  0
    1.0246   -1.7073   -8.7964 Cl  0  0  0  0  0  0  0  0  0  0  0  0
    3.0106   -2.4122   -3.0205 N   0  0  0  0  0  0  0  0  0  0  0  0
    0.5577   -0.6134   -6.4960 N   0  0  0  0  0  0  0  0  0  0  0  0
    1.0975   -0.9791   -2.3028 N   0  0  0  0  0  0  0  0  0  0  0  0
    4.8526   -0.5355   -2.0013 N   0  0  0  0  0  0  0  0  0  0  0  0
    5.5113    0.3187   -1.3804 O   0  0  0  0  0  0  0  0  0  0  0  0
    5.3523   -1.4809   -2.6186 O   0  0  0  0  0  0  0  0  0  0  0  0
  3  1  1  0
  5  4  2  0
  9  4  1  0
  9  6  2  0
  9  7  1  0
 10  5  1  0
 11  8  2  0
 12 10  1  0
 13  2  1  0
 13 11  1  0
 14  6  1  0
 14 10  2  0
 15  3  1  0
 15  7  1  0
 15 11  1  0
 16  8  1  0
 17 16  1  0
 18 16  2  0
M  CHG  2  16   1  17  -1
M  END
>  <DRUGBANK_ID>  (1) 
DB11438

>  <COMMON_NAME>  (1) 
Nitenpyram

>  <CAS_NUMBER>  (1) 
150824-47-8

>  <UNII>  (1) 
3A837VZ81Y

>  <SYNONYMS>  (1) 
(1E)-N-((6-chloro-3-pyridinyl)methyl)-N-ethyl-N'-methyl-2-nitro-1,1-ethenediamine; (E)-nitenpyram

$$$$
