738
     RDKit          3D

 21 23  0  0  0  0  0  0  0  0999 V2000
    1.8200    0.2314   -1.0559 F   0  0  0  0  0  0  0  0  0  0  0  0
    0.6320    0.0801   -0.4761 C   0  0  0  0  0  0  0  0  0  0  0  0
   -0.0285    1.2647   -0.1951 C   0  0  0  0  0  0  0  0  0  0  0  0
   -1.3867    1.2244    0.0066 C   0  0  0  0  0  0  0  0  0  0  0  0
   -2.0253   -0.0176    0.0126 C   0  0  0  0  0  0  0  0  0  0  0  0
   -1.2822   -1.2187   -0.0211 C   0  0  0  0  0  0  0  0  0  0  0  0
    0.1072   -1.1779   -0.1939 C   0  0  0  0  0  0  0  0  0  0  0  0
    0.9681   -2.4175   -0.0506 C   0  0  0  0  0  0  0  0  0  0  0  0
    0.4064   -3.5161   -0.0175 O   0  0  0  0  0  0  0  0  0  0  0  0
    2.3707   -2.3874    0.0133 N   0  0  0  0  0  0  0  0  0  0  0  0
    3.1690   -1.2907    0.3076 C   0  0  0  0  0  0  0  0  0  0  0  0
    2.9875   -0.2509    1.1984 C   0  0  0  0  0  0  0  0  0  0  0  0
    1.9229   -0.2014    2.1501 C   0  0  0  0  0  0  0  0  0  0  0  0
    0.9519   -0.0869    2.7923 N   0  0  0  0  0  0  0  0  0  0  0  0
    4.5059   -1.0005   -0.7399 S   0  0  0  0  0  0  0  0  0  0  0  0
    4.6801    0.6135   -0.1645 C   0  0  0  0  0  0  0  0  0  0  0  0
    5.6761    1.6130   -0.6990 C   0  0  0  0  0  0  0  0  0  0  0  0
    5.8453    2.7736    0.3057 C   0  0  0  0  0  0  0  0  0  0  0  0
    4.5037    3.3141    0.8065 C   0  0  0  0  0  0  0  0  0  0  0  0
    3.6660    2.2370    1.4957 C   0  0  0  0  0  0  0  0  0  0  0  0
    3.7877    0.8882    0.8557 C   0  0  0  0  0  0  0  0  0  0  0  0
  2  1  1  0
  2  3  2  0
  4  3  1  0
  5  4  2  0
  6  7  2  0
  6  5  1  0
  7  2  1  0
  8  7  1  0
  9  8  2  0
 10  8  1  0
 11 10  1  0
 12 11  2  0
 12 13  1  0
 13 14  3  0
 15 11  1  0
 16 21  2  0
 16 15  1  0
 17 16  1  0
 18 17  1  0
 18 19  1  0
 19 20  1  0
 20 21  1  0
 21 12  1  0
M  END
>  <DRUGBANK_ID>  (1) 
DB07217

>  <COMMON_NAME>  (1) 
N-(3-cyano-4,5,6,7-tetrahydro-1-benzothien-2-yl)-2-fluorobenzamide

$$$$
