
     RDKit          3D

 11 10  0  0  1  0  0  0  0  0999 V2000
    1.0873    0.0458   -0.0515 C   0  0  0  0  0  0  0  0  0  0  0  0
    0.5509    1.4703    0.0720 C   0  0  1  0  0  0  0  0  0  0  0  0
    1.1843    2.3637   -1.0065 C   0  0  0  0  0  0  0  0  0  0  0  0
    0.6611   -0.4930   -1.2302 F   0  0  0  0  0  0  0  0  0  0  0  0
    0.5786    3.1514   -1.7257 O   0  0  0  0  0  0  0  0  0  0  0  0
    2.5174    2.2804   -1.1297 O   0  0  0  0  0  0  0  0  0  0  0  0
   -2.9099    0.6861   -0.6326 O   0  0  0  0  0  0  0  0  0  0  0  0
   -1.7525    2.3693   -1.8449 O   0  0  0  0  0  0  0  0  0  0  0  0
   -1.9927    0.2351   -2.7639 O   0  0  0  0  0  0  0  0  0  0  0  0
   -0.8999    1.4476    0.0791 O   0  0  0  0  0  0  0  0  0  0  0  0
   -1.4766    0.8077   -1.4212 P   0  0  0  0  0  0  0  0  0  0  0  0
  2  1  1  6
  2 10  1  0
  3  2  1  0
  4  1  1  0
  5  3  2  0
  6  3  1  0
 11  7  1  0
 11  8  1  0
 11  9  2  0
 11 10  1  0
M  END
>  <DRUGBANK_ID>  (1) 
DB03113

>  <SECONDARY_ACCESSION_NUMBERS>  (1) 
EXPT01475

>  <COMMON_NAME>  (1) 
3-Fluoro-2-(Phosphonooxy)Propanoic Acid

$$$$
