784
     RDKit          3D

 18 19  0  0  0  0  0  0  0  0999 V2000
    0.7799   -0.0049    0.0483 O   0  0  0  0  0  0  0  0  0  0  0  0
    0.9325    1.8230    1.3408 O   0  0  0  0  0  0  0  0  0  0  0  0
   -1.3130   -1.4824    1.0605 N   0  0  0  0  0  0  0  0  0  0  0  0
   -2.8788   -3.0958   -0.0249 C   0  0  0  0  0  0  0  0  0  0  0  0
   -1.9422   -2.7415    0.9787 C   0  0  0  0  0  0  0  0  0  0  0  0
   -3.5635   -4.3262    0.0885 C   0  0  0  0  0  0  0  0  0  0  0  0
   -1.9528   -0.2286    0.9553 C   0  0  0  0  0  0  0  0  0  0  0  0
   -1.6228   -3.6489    1.9958 C   0  0  0  0  0  0  0  0  0  0  0  0
   -3.2768   -5.1822    1.1660 C   0  0  0  0  0  0  0  0  0  0  0  0
   -3.2159   -2.1706   -1.1732 C   0  0  0  0  0  0  0  0  0  0  0  0
   -2.3089   -4.8493    2.1096 C   0  0  0  0  0  0  0  0  0  0  0  0
   -1.2394    0.9641    0.7828 C   0  0  0  0  0  0  0  0  0  0  0  0
   -4.6130   -4.7626   -0.8991 C   0  0  0  0  0  0  0  0  0  0  0  0
   -3.3540   -0.1461    1.0921 C   0  0  0  0  0  0  0  0  0  0  0  0
   -1.9294    2.1830    0.6781 C   0  0  0  0  0  0  0  0  0  0  0  0
   -4.0431    1.0392    0.8778 C   0  0  0  0  0  0  0  0  0  0  0  0
   -3.3276    2.2139    0.7075 C   0  0  0  0  0  0  0  0  0  0  0  0
    0.2371    0.9899    0.7784 C   0  0  0  0  0  0  0  0  0  0  0  0
  1 18  1  0
  2 18  2  0
  3  5  1  0
  3  7  1  0
  4  5  2  0
  4  6  1  0
  4 10  1  0
  5  8  1  0
  6  9  2  0
  6 13  1  0
  7 12  2  0
  7 14  1  0
  8 11  2  0
  9 11  1  0
 12 15  1  0
 12 18  1  0
 14 16  2  0
 15 17  2  0
 16 17  1  0
M  END
>  <DRUGBANK_ID>  (1) 
DB00784

>  <SECONDARY_ACCESSION_NUMBERS>  (1) 
APRD00730

>  <COMMON_NAME>  (1) 
Mefenamic acid

>  <CAS_NUMBER>  (1) 
61-68-7

>  <UNII>  (1) 
367589PJ2C

>  <SYNONYMS>  (1) 
Acide méfénamique; ácido mefenámico; Acidum mefenamicum; Mefenamic acid; Mefenaminsäure; N-(2,3-xylyl)-2-aminobenzoic acid; N-2,3-xylylanthranilic acid

$$$$
