
     RDKit          3D

 43 46  0  0  0  0  0  0  0  0999 V2000
    0.8962   -0.0149    0.0347 C   0  0  0  0  0  0  0  0  0  0  0  0
    0.4507   -1.1386    0.7745 O   0  0  0  0  0  0  0  0  0  0  0  0
    0.9525   -2.3969    0.5301 C   0  0  0  0  0  0  0  0  0  0  0  0
    2.2588   -2.7232    0.1300 C   0  0  0  0  0  0  0  0  0  0  0  0
    3.2260   -1.8007   -0.3315 N   0  0  0  0  0  0  0  0  0  0  0  0
    4.5627   -2.1521   -0.6354 C   0  0  0  0  0  0  0  0  0  0  0  0
    5.4592   -1.8199    0.3146 N   0  0  0  0  0  0  0  0  0  0  0  0
    6.7512   -2.0281    0.0092 C   0  0  0  0  0  0  0  0  0  0  0  0
    7.1720   -2.5141   -1.2154 C   0  0  0  0  0  0  0  0  0  0  0  0
    8.5819   -2.6874   -1.4379 C   0  0  0  0  0  0  0  0  0  0  0  0
    8.8572   -2.6097   -2.6150 O   0  0  0  0  0  0  0  0  0  0  0  0
    9.4574   -2.9747   -0.4461 O   0  0  0  0  0  0  0  0  0  0  0  0
   10.7940   -3.3699   -0.9162 C   0  0  0  0  0  0  0  0  0  0  0  0
   10.8929   -4.8753   -1.0554 C   0  0  0  0  0  0  0  0  0  0  0  0
   11.2802   -2.6749   -2.2105 C   0  0  0  0  0  0  0  0  0  0  0  0
    6.1994   -3.0827   -2.1112 C   0  0  0  0  0  0  0  0  0  0  0  0
    4.8729   -2.8564   -1.7955 N   0  0  0  0  0  0  0  0  0  0  0  0
    6.5278   -4.6114   -3.0022 C   0  0  0  0  0  0  0  0  0  0  0  0
    7.1408   -6.1456   -2.3864 C   0  0  0  0  0  0  0  0  0  0  0  0
    7.6199   -5.1403   -1.5853 N   0  0  0  0  0  0  0  0  0  0  0  0
    6.1857   -5.2018   -0.7852 C   0  0  0  0  0  0  0  0  0  0  0  0
    8.3343   -5.0488   -3.1159 C   0  0  0  0  0  0  0  0  0  0  0  0
    7.4602   -4.4169   -3.9652 C   0  0  0  0  0  0  0  0  0  0  0  0
    7.9483   -3.6557   -5.0357 C   0  0  0  0  0  0  0  0  0  0  0  0
    9.2640   -3.9583   -5.4313 C   0  0  0  0  0  0  0  0  0  0  0  0
   10.0268   -4.9148   -4.7483 C   0  0  0  0  0  0  0  0  0  0  0  0
    9.4947   -5.6426   -3.6923 C   0  0  0  0  0  0  0  0  0  0  0  0
    2.6135   -4.0566    0.1442 C   0  0  0  0  0  0  0  0  0  0  0  0
    1.7727   -5.0186    0.6860 C   0  0  0  0  0  0  0  0  0  0  0  0
    2.0937   -6.2250    0.1910 N   0  0  0  0  0  0  0  0  0  0  0  0
    1.0999   -6.9544   -0.1354 C   0  0  0  0  0  0  0  0  0  0  0  0
    1.5840   -8.1384   -0.2240 O   0  0  0  0  0  0  0  0  0  0  0  0
   -0.8562   -6.3638   -0.4774 C   0  0  0  0  0  0  0  0  0  0  0  0
   -1.6801   -5.4067   -0.7871 C   0  0  0  0  0  0  0  0  0  0  0  0
    0.4519   -4.8105    1.1917 C   0  0  0  0  0  0  0  0  0  0  0  0
    0.0433   -3.4361    0.9410 C   0  0  0  0  0  0  0  0  0  0  0  0
   -0.4993   -6.0251    1.5955 N   0  0  0  0  0  0  0  0  0  0  0  0
   -1.9752   -5.5140    1.7871 C   0  0  0  0  0  0  0  0  0  0  0  0
   -0.3896   -7.8268    0.9242 C   0  0  0  0  0  0  0  0  0  0  0  0
   -0.2451   -8.1388   -1.1891 C   0  0  0  0  0  0  0  0  0  0  0  0
    0.6454   -6.8275   -2.2032 N   0  0  0  0  0  0  0  0  0  0  0  0
    1.5221   -7.1306   -3.2554 C   0  0  0  0  0  0  0  0  0  0  0  0
    0.6245   -5.3031   -2.0936 C   0  0  0  0  0  0  0  0  0  0  0  0
  1  2  1  0
  2  3  1  0
  3  4  2  0
  3 36  1  0
  4  5  1  0
  4 28  1  0
  5  6  1  0
  6  7  2  0
  6 17  1  0
  7  8  1  0
  8  9  2  0
  9 10  1  0
  9 16  1  0
 10 11  2  0
 10 12  1  0
 12 13  1  0
 13 14  1  0
 13 15  1  0
 16 17  2  0
 16 18  1  0
 18 19  2  0
 18 23  1  0
 19 20  1  0
 20 21  1  0
 20 22  1  0
 22 23  2  0
 22 27  1  0
 23 24  1  0
 24 25  2  0
 25 26  1  0
 26 27  2  0
 28 29  2  0
 29 30  1  0
 29 35  1  0
 30 31  1  0
 31 32  2  0
 31 33  1  0
 33 34  2  0
 35 36  2  0
 35 37  1  0
 37 38  1  0
 37 39  1  0
 39 40  1  0
 40 41  1  0
 41 42  1  0
 41 43  1  0
M  END
>  <DRUGBANK_ID>  (1) 
DB16390

>  <COMMON_NAME>  (1) 
Mobocertinib

>  <CAS_NUMBER>  (1) 
1847461-43-1

>  <UNII>  (1) 
39HBQ4A67L

>  <SYNONYMS>  (1) 
Mobocertinib

$$$$
