
     RDKit          3D

 26 27  0  0  0  0  0  0  0  0999 V2000
    1.0897    0.2390   -0.4389 O   0  0  0  0  0  0  0  0  0  0  0  0
    0.0814    1.1960    3.2981 O   0  0  0  0  0  0  0  0  0  0  0  0
    3.1120   -1.0249    0.7370 O   0  0  0  0  0  0  0  0  0  0  0  0
   -0.0435   -2.0399    0.3099 O   0  0  0  0  0  0  0  0  0  0  0  0
    4.5045    1.3631    0.4028 O   0  0  0  0  0  0  0  0  0  0  0  0
    2.0861    1.4889    3.0146 O   0  0  0  0  0  0  0  0  0  0  0  0
    3.7484    0.5315    4.1294 O   0  0  0  0  0  0  0  0  0  0  0  0
    2.0334   -0.4145    4.4597 O   0  0  0  0  0  0  0  0  0  0  0  0
    0.8388    3.7732    1.9984 O   0  0  0  0  0  0  0  0  0  0  0  0
    0.2729   -2.9343    2.0782 O   0  0  0  0  0  0  0  0  0  0  0  0
    1.5482   -3.6454    6.2072 O   0  0  0  0  0  0  0  0  0  0  0  0
    1.1040   -2.6221    4.2880 N   0  0  0  0  0  0  0  0  0  0  0  0
    0.3614    0.2101    0.7227 C   0  0  1  0  0  0  0  0  0  0  0  0
    1.1678   -1.1995    1.2291 C   0  0  1  0  0  0  0  0  0  0  0  0
    1.0010   -1.3843    3.5867 C   0  0  1  0  0  0  0  0  0  0  0  0
    0.3469    1.4294    1.6750 C   0  0  1  0  0  0  0  0  0  0  0  0
    2.5241    0.1296   -0.0938 C   0  0  2  0  0  0  0  0  0  0  0  0
    3.1080    1.3824    0.6023 C   0  0  1  0  0  0  0  0  0  0  0  0
    3.1484    1.4726    2.1524 C   0  0  2  0  0  0  0  0  0  0  0  0
    3.5712    0.1610    2.7280 C   0  0  2  0  0  0  0  0  0  0  0  0
    0.7299    0.0223    4.2588 C   0  0  2  0  0  0  0  0  0  0  0  0
    2.3795   -1.1968    2.4003 C   0  0  1  0  0  0  0  0  0  0  0  0
    0.1494    2.8113    1.2033 C   0  0  0  0  0  0  0  0  0  0  0  0
    0.0726   -1.4652    2.3137 C   0  0  0  0  0  0  0  0  0  0  0  0
    1.2679   -2.5978    5.6451 C   0  0  0  0  0  0  0  0  0  0  0  0
    1.1389   -1.2834    6.4567 C   0  0  0  0  0  0  0  0  0  0  0  0
  2 16  1  0
  2 21  1  0
  3 17  1  0
  3 22  1  0
  9 23  1  0
 10 24  1  0
 11 25  2  0
 12 25  1  0
 13  1  1  6
 13 14  1  0
 13 16  1  0
 14  4  1  6
 14 15  1  0
 15 21  1  0
 15 12  1  1
 16 23  1  6
 17  1  1  1
 17 18  1  0
 18  5  1  1
 18 19  1  0
 19 20  1  0
 19  6  1  1
 20 22  1  0
 20  7  1  1
 21  8  1  6
 22 24  1  6
 25 26  1  0
M  END
>  <DRUGBANK_ID>  (1) 
DB03618

>  <SECONDARY_ACCESSION_NUMBERS>  (1) 
EXPT02354

>  <COMMON_NAME>  (1) 
2-(acetylamino)-2-deoxy-4-O-beta-D-galactopyranosyl-alpha-D-glucopyranose

$$$$
