
     RDKit          3D

 26 28  0  0  0  0  0  0  0  0999 V2000
    2.1756   -0.0963   -0.0250 C   0  0  0  0  0  0  0  0  0  0  0  0
    0.7414    0.0116    0.0183 N   0  0  0  0  0  0  0  0  0  0  0  0
   -0.1809   -0.9825   -0.1062 C   0  0  0  0  0  0  0  0  0  0  0  0
   -1.3881   -0.4640   -0.0208 N   0  0  0  0  0  0  0  0  0  0  0  0
   -1.1542    0.8701    0.0126 C   0  0  0  0  0  0  0  0  0  0  0  0
    0.1419    1.2196    0.0607 N   0  0  0  0  0  0  0  0  0  0  0  0
   -2.2952    1.8228   -0.0191 C   0  0  0  0  0  0  0  0  0  0  0  0
   -2.3649    2.6539    1.1388 O   0  0  0  0  0  0  0  0  0  0  0  0
    0.1055   -2.2578   -0.3770 N   0  0  0  0  0  0  0  0  0  0  0  0
   -1.0592   -3.1143   -0.3971 C   0  0  0  0  0  0  0  0  0  0  0  0
   -0.8180   -4.3266   -1.2863 C   0  0  0  0  0  0  0  0  0  0  0  0
    0.5144   -5.0826   -1.1249 C   0  0  0  0  0  0  0  0  0  0  0  0
    0.7008   -5.9906   -0.0172 O   0  0  0  0  0  0  0  0  0  0  0  0
    0.5209   -5.4843    1.2337 C   0  0  0  0  0  0  0  0  0  0  0  0
   -0.7172   -5.0392    1.6417 C   0  0  0  0  0  0  0  0  0  0  0  0
   -0.8551   -4.2685    2.7933 C   0  0  0  0  0  0  0  0  0  0  0  0
    0.0737   -4.4192    3.7879 C   0  0  0  0  0  0  0  0  0  0  0  0
    1.1225   -5.3036    3.5492 C   0  0  0  0  0  0  0  0  0  0  0  0
    1.4755   -5.6287    2.2200 C   0  0  0  0  0  0  0  0  0  0  0  0
    1.6134   -6.1306    4.7169 C   0  0  0  0  0  0  0  0  0  0  0  0
    1.2001   -7.5561    4.6781 N   0  0  0  0  0  0  0  0  0  0  0  0
   -0.2584   -7.7513    4.7689 C   0  0  0  0  0  0  0  0  0  0  0  0
   -0.5718   -9.2442    4.9326 C   0  0  0  0  0  0  0  0  0  0  0  0
    0.0102  -10.0710    3.7879 C   0  0  0  0  0  0  0  0  0  0  0  0
    1.4943   -9.7729    3.6099 C   0  0  0  0  0  0  0  0  0  0  0  0
    1.7190   -8.2755    3.5071 C   0  0  0  0  0  0  0  0  0  0  0  0
  1  2  1  0
  2  3  1  0
  2  6  1  0
  3  4  2  0
  3  9  1  0
  4  5  1  0
  5  6  2  0
  5  7  1  0
  7  8  1  0
  9 10  1  0
 10 11  1  0
 11 12  1  0
 12 13  1  0
 13 14  1  0
 14 15  2  0
 14 19  1  0
 15 16  1  0
 16 17  2  0
 17 18  1  0
 18 19  2  0
 18 20  1  0
 20 21  1  0
 21 22  1  0
 21 26  1  0
 22 23  1  0
 23 24  1  0
 24 25  1  0
 25 26  1  0
M  END
>  <DRUGBANK_ID>  (1) 
DB12884

>  <COMMON_NAME>  (1) 
Lavoltidine

>  <CAS_NUMBER>  (1) 
76956-02-0

>  <UNII>  (1) 
X16K5179V5

>  <SYNONYMS>  (1) 
lavoltidina; Lavoltidine; Loxtidina

$$$$
