
     RDKit          3D

 26 32  0  0  1  0  0  0  0  0999 V2000
   -1.2264    0.1467    2.0583 C   0  0  0  0  0  0  0  0  0  0  0  0
   -0.9223   -1.0170    1.1153 C   0  0  0  0  0  0  0  0  0  0  0  0
   -1.3398   -0.6654   -0.3366 C   0  0  0  0  0  0  0  0  0  0  0  0
    0.4987   -1.2810    1.1400 C   0  0  2  0  0  0  0  0  0  0  0  0
    1.3467   -0.0904    1.1278 C   0  0  1  0  0  0  0  0  0  0  0  0
    0.9326   -0.9877   -0.0727 O   0  0  0  0  0  0  0  0  0  0  0  0
    1.9564    0.9236    0.4090 C   0  0  1  0  0  0  0  0  0  0  0  0
    3.1379   -0.1385    0.4824 C   0  0  1  0  0  0  0  0  0  0  0  0
    2.3819    0.3640   -0.7987 O   0  0  0  0  0  0  0  0  0  0  0  0
    4.4855    0.4393    0.0408 C   0  0  1  0  0  0  0  0  0  0  0  0
    5.6221    1.3873    0.6668 C   0  0  0  0  0  0  0  0  0  0  0  0
    6.4277    1.4214   -0.6637 C   0  0  0  0  0  0  0  0  0  0  0  0
    7.1934    0.1827   -0.6844 C   0  0  0  0  0  0  0  0  0  0  0  0
    6.8028   -1.0943   -0.5871 C   0  0  0  0  0  0  0  0  0  0  0  0
    5.3306   -1.2448   -0.4186 C   0  0  1  0  0  0  0  0  0  0  0  0
    5.2417   -2.9012    0.2235 C   0  0  0  0  0  0  0  0  0  0  0  0
    3.7944   -3.2097    0.1599 C   0  0  2  0  0  0  0  0  0  0  0  0
    2.7285   -1.9998    0.8176 C   0  0  2  0  0  0  0  0  0  0  0  0
    1.2309   -2.3762    1.6749 C   0  0  1  0  0  0  0  0  0  0  0  0
    0.9874   -1.8536    3.0811 O   0  0  0  0  0  0  0  0  0  0  0  0
    3.5315   -2.9383    1.4883 O   0  0  0  0  0  0  0  0  0  0  0  0
    7.6820   -1.8903   -1.5327 C   0  0  0  0  0  0  0  0  0  0  0  0
    8.7891   -1.0045   -1.5405 O   0  0  0  0  0  0  0  0  0  0  0  0
    8.1086    0.0795   -1.7932 C   0  0  0  0  0  0  0  0  0  0  0  0
    7.8334    0.4746   -2.9752 O   0  0  0  0  0  0  0  0  0  0  0  0
    3.8024    2.1612   -0.5865 C   0  0  0  0  0  0  0  0  0  0  0  0
  1  2  1  0
  2  3  1  0
  4  5  1  0
  4  6  1  0
  4 19  1  0
  4  2  1  6
  5  6  1  6
  5  7  1  0
  7  8  1  0
  7  9  1  6
  8  9  1  6
  8 10  1  0
  8 18  1  0
 10 11  1  0
 10 15  1  0
 10 26  1  6
 11 12  1  0
 12 13  1  0
 13 14  2  0
 13 24  1  0
 14 22  1  0
 15 14  1  0
 15 16  1  1
 17 16  1  1
 17 18  1  0
 17 21  1  0
 18 19  1  0
 18 21  1  1
 19 20  1  6
 22 23  1  0
 23 24  1  0
 24 25  2  0
M  END
>  <DRUGBANK_ID>  (1) 
DB12025

>  <COMMON_NAME>  (1) 
Triptolide

>  <CAS_NUMBER>  (1) 
38748-32-2

>  <UNII>  (1) 
19ALD1S53J

$$$$
