
     RDKit          3D

 31 31  0  0  1  0  0  0  0  0999 V2000
   -1.0933    1.5026   -0.5402 O   0  0  0  0  0  0  0  0  0  0  0  0
   -1.7335    1.4039    0.6428 C   0  0  0  0  0  0  0  0  0  0  0  0
   -2.6064    2.1676    0.9603 O   0  0  0  0  0  0  0  0  0  0  0  0
   -1.2726    0.1975    1.4380 C   0  0  0  0  0  0  0  0  0  0  0  0
   -1.9003   -1.1390    1.0072 C   0  0  0  0  0  0  0  0  0  0  0  0
   -1.4183   -1.6017   -0.3599 C   0  0  2  0  0  0  0  0  0  0  0  0
   -1.7860   -0.7329   -1.4689 N   0  0  0  0  0  0  0  0  0  0  0  0
   -1.1933   -0.3880   -2.6266 C   0  0  0  0  0  0  0  0  0  0  0  0
   -1.7250    0.4778   -3.3204 O   0  0  0  0  0  0  0  0  0  0  0  0
   -0.0284   -0.9183   -3.0227 N   0  0  0  0  0  0  0  0  0  0  0  0
    0.8499   -1.8662   -2.3818 C   0  0  1  0  0  0  0  0  0  0  0  0
    0.7448   -3.2298   -3.0754 C   0  0  0  0  0  0  0  0  0  0  0  0
    1.4308   -3.2924   -4.4173 C   0  0  0  0  0  0  0  0  0  0  0  0
    2.9050   -2.9902   -4.2695 C   0  0  0  0  0  0  0  0  0  0  0  0
    3.5677   -3.8094   -3.1707 C   0  0  0  0  0  0  0  0  0  0  0  0
    3.6931   -5.1935   -3.5788 N   0  0  0  0  0  0  0  0  0  0  0  0
    4.8543   -5.8320   -3.9375 C   0  0  0  0  0  0  0  0  0  0  0  0
    4.8218   -6.8833   -4.5634 O   0  0  0  0  0  0  0  0  0  0  0  0
    6.1383   -5.2113   -3.5621 C   0  0  0  0  0  0  0  0  0  0  0  0
    6.3442   -4.6638   -2.2931 C   0  0  0  0  0  0  0  0  0  0  0  0
    7.5100   -3.9551   -2.0379 C   0  0  0  0  0  0  0  0  0  0  0  0
    8.4187   -3.8069   -3.0701 C   0  0  0  0  0  0  0  0  0  0  0  0
    9.4861   -3.0235   -2.8650 F   0  0  0  0  0  0  0  0  0  0  0  0
    8.2886   -4.3933   -4.2811 N   0  0  0  0  0  0  0  0  0  0  0  0
    7.1612   -5.1184   -4.4903 C   0  0  0  0  0  0  0  0  0  0  0  0
    2.1663   -1.2186   -1.8373 C   0  0  0  0  0  0  0  0  0  0  0  0
    2.4121   -1.4055   -0.5146 O   0  0  0  0  0  0  0  0  0  0  0  0
    2.9593   -0.5620   -2.4928 O   0  0  0  0  0  0  0  0  0  0  0  0
   -1.9604   -2.9993   -0.7001 C   0  0  0  0  0  0  0  0  0  0  0  0
   -1.0594   -4.0004   -0.8014 O   0  0  0  0  0  0  0  0  0  0  0  0
   -3.1467   -3.2120   -0.9091 O   0  0  0  0  0  0  0  0  0  0  0  0
  1  2  1  0
  2  3  2  0
  2  4  1  0
  4  5  1  0
  6 29  1  0
  6  7  1  0
  6  5  1  1
  7  8  1  0
  8  9  2  0
  8 10  1  0
 11 10  1  0
 11 12  1  6
 11 26  1  0
 12 13  1  0
 13 14  1  0
 14 15  1  0
 15 16  1  0
 16 17  1  0
 17 18  2  0
 17 19  1  0
 19 20  2  0
 19 25  1  0
 20 21  1  0
 21 22  2  0
 22 23  1  0
 22 24  1  0
 24 25  2  0
 26 27  1  0
 26 28  2  0
 29 30  1  0
 29 31  2  0
M  ISO  1  23  18
M  END
>  <DRUGBANK_ID>  (1) 
DB14805

>  <SECONDARY_ACCESSION_NUMBERS>  (1) 
DB16696

>  <COMMON_NAME>  (1) 
Piflufolastat F 18

>  <CAS_NUMBER>  (1) 
1207181-29-0

>  <UNII>  (1) 
3934EF02T7

>  <SYNONYMS>  (1) 
(18F)DCFPyL; [F-18]-DCFPyL; 18F-DCFPyL; DCFPyL F-18; Piflufolastat F 18; Piflufolastat F-18; PyL

$$$$
