
     RDKit          3D

 24 25  0  0  1  0  0  0  0  0999 V2000
    0.9363   -0.0636    0.0422 C   0  0  0  0  0  0  0  0  0  0  0  0
    0.4792    0.2456    1.4588 C   0  0  0  0  0  0  0  0  0  0  0  0
    0.9713    1.6255    1.8990 C   0  0  0  0  0  0  0  0  0  0  0  0
    0.4265    2.7449    1.0021 C   0  0  0  0  0  0  0  0  0  0  0  0
   -1.1096    2.7939    1.0090 C   0  0  0  0  0  0  0  0  0  0  0  0
   -1.6817    3.0145    2.4105 C   0  0  0  0  0  0  0  0  0  0  0  0
   -1.2164   10.0733    6.0312 C   0  0  0  0  0  0  0  0  0  0  0  0
   -2.3243   11.0745    6.0006 C   0  0  0  0  0  0  0  0  0  0  0  0
   -1.2046    4.3172    2.9505 C   0  0  0  0  0  0  0  0  0  0  0  0
   -1.3834    8.7691    5.8096 C   0  0  0  0  0  0  0  0  0  0  0  0
   -2.4369   11.7080    7.3751 C   0  0  0  0  0  0  0  0  0  0  0  0
   -2.0195    5.3294    3.2546 C   0  0  0  0  0  0  0  0  0  0  0  0
   -2.6551    8.1785    5.2843 C   0  0  0  0  0  0  0  0  0  0  0  0
   -1.1829   12.4822    7.7680 C   0  0  0  0  0  0  0  0  0  0  0  0
   -1.5718    7.9284    1.6322 C   0  0  0  0  0  0  0  0  0  0  0  0
   -1.4423    6.6491    3.6678 C   0  0  2  0  0  0  0  0  0  0  0  0
   -2.5295    7.7311    3.8283 C   0  0  2  0  0  0  0  0  0  0  0  0
   -0.5581    7.2859    2.5657 C   0  0  2  0  0  0  0  0  0  0  0  0
   -2.0743    8.7905    2.7770 C   0  0  1  0  0  0  0  0  0  0  0  0
   -0.9047   13.6359    6.8406 C   0  0  0  0  0  0  0  0  0  0  0  0
    0.0977    8.4949    3.1241 N   0  0  0  0  0  0  0  0  0  0  0  0
   -0.7845    9.3986    3.1840 N   0  0  0  0  0  0  0  0  0  0  0  0
   -0.9603   14.8212    7.1444 O   0  0  0  0  0  0  0  0  0  0  0  0
   -0.5826   13.2681    5.5885 O   0  0  0  0  0  0  0  0  0  0  0  0
  2  1  1  0
  3  2  1  0
  4  3  1  0
  5  4  1  0
  6  5  1  0
  8  7  1  0
  9  6  1  0
 10  7  2  0
 11  8  1  0
 12  9  2  0
 13 10  1  0
 14 11  1  0
 16 12  1  6
 17 16  1  0
 17 13  1  1
 18 15  1  0
 18 16  1  0
 19 15  1  0
 19 17  1  0
 20 14  1  0
 18 21  1  1
 19 22  1  1
 22 21  2  0
 23 20  2  0
 24 20  1  0
M  END
>  <DRUGBANK_ID>  (1) 
DB08675

>  <COMMON_NAME>  (1) 
(5Z)-7-{(1R,4S,5R,6R)-6-[(1E)-1-Octen-1-yl]-2,3-diazabicyclo[2.2.1]hept-2-en-5-yl}-5-heptenoic acid

$$$$
