
     RDKit          3D

 39 44  0  0  1  0  0  0  0  0999 V2000
    1.3038   -0.3588    0.3487 C   0  0  0  0  0  0  0  0  0  0  0  0
    0.5921   -0.1217    1.5807 C   0  0  0  0  0  0  0  0  0  0  0  0
    0.2426   -1.2196    2.3459 C   0  0  0  0  0  0  0  0  0  0  0  0
   -0.2629   -0.7278    3.5159 C   0  0  0  0  0  0  0  0  0  0  0  0
   -0.2875    0.6383    3.4306 N   0  0  0  0  0  0  0  0  0  0  0  0
    0.1544    1.0407    2.1962 C   0  0  0  0  0  0  0  0  0  0  0  0
    0.1291    2.4606    1.8840 C   0  0  0  0  0  0  0  0  0  0  0  0
   -0.2051    3.2450    2.8866 N   0  0  0  0  0  0  0  0  0  0  0  0
   -0.5808    2.7090    4.1033 C   0  0  0  0  0  0  0  0  0  0  0  0
   -0.6580    1.4556    4.4181 N   0  0  0  0  0  0  0  0  0  0  0  0
    0.4043    3.1123    0.6637 N   0  0  0  0  0  0  0  0  0  0  0  0
    0.8416    2.5582   -0.5809 C   0  0  0  0  0  0  0  0  0  0  0  0
   -0.0203    1.7026   -1.3175 C   0  0  0  0  0  0  0  0  0  0  0  0
    0.4777    0.7383   -2.2522 C   0  0  0  0  0  0  0  0  0  0  0  0
    1.8788    0.6611   -2.4493 C   0  0  0  0  0  0  0  0  0  0  0  0
    2.7443    1.5603   -1.8097 C   0  0  0  0  0  0  0  0  0  0  0  0
    2.2292    2.5345   -0.8949 C   0  0  0  0  0  0  0  0  0  0  0  0
    4.0375    1.1229   -2.1794 C   0  0  0  0  0  0  0  0  0  0  0  0
    4.0243   -0.0046   -2.8897 N   0  0  0  0  0  0  0  0  0  0  0  0
    2.7059   -0.2647   -3.0741 N   0  0  0  0  0  0  0  0  0  0  0  0
    2.3338   -1.4566   -3.8395 C   0  0  0  0  0  0  0  0  0  0  0  0
    2.5536   -1.2613   -5.3221 C   0  0  0  0  0  0  0  0  0  0  0  0
    3.8421   -1.0404   -5.8446 C   0  0  0  0  0  0  0  0  0  0  0  0
    4.0377   -0.8323   -7.2113 C   0  0  0  0  0  0  0  0  0  0  0  0
    2.9493   -0.8692   -8.0776 C   0  0  0  0  0  0  0  0  0  0  0  0
    1.6790   -1.1121   -7.5695 C   0  0  0  0  0  0  0  0  0  0  0  0
    1.4706   -1.3073   -6.2077 C   0  0  0  0  0  0  0  0  0  0  0  0
    0.6328   -1.1594   -8.4041 F   0  0  0  0  0  0  0  0  0  0  0  0
    0.4976   -2.4842    1.8824 N   0  0  0  0  0  0  0  0  0  0  0  0
    0.4217   -3.6346    2.5769 C   0  0  0  0  0  0  0  0  0  0  0  0
    0.6745   -4.7019    2.0551 O   0  0  0  0  0  0  0  0  0  0  0  0
   -0.0676   -3.4298    3.8151 O   0  0  0  0  0  0  0  0  0  0  0  0
   -0.4489   -4.5673    4.5688 C   0  0  0  0  0  0  0  0  0  0  0  0
   -1.5668   -5.4167    3.9139 C   0  0  2  0  0  0  0  0  0  0  0  0
   -1.0339   -6.8623    3.8322 C   0  0  0  0  0  0  0  0  0  0  0  0
   -1.9643   -7.7333    3.1843 O   0  0  0  0  0  0  0  0  0  0  0  0
   -2.2451   -7.2498    1.8649 C   0  0  0  0  0  0  0  0  0  0  0  0
   -2.8946   -5.8644    1.9210 C   0  0  0  0  0  0  0  0  0  0  0  0
   -2.0110   -4.9082    2.5848 N   0  0  0  0  0  0  0  0  0  0  0  0
  1  2  1  0
  2  3  1  0
  2  6  2  0
  3  4  2  0
  3 29  1  0
  4  5  1  0
  5  6  1  0
  5 10  1  0
  6  7  1  0
  7  8  2  0
  7 11  1  0
  8  9  1  0
  9 10  2  0
 11 12  1  0
 12 13  2  0
 12 17  1  0
 13 14  1  0
 14 15  2  0
 15 16  1  0
 15 20  1  0
 16 17  2  0
 16 18  1  0
 18 19  2  0
 19 20  1  0
 20 21  1  0
 21 22  1  0
 22 23  2  0
 22 27  1  0
 23 24  1  0
 24 25  2  0
 25 26  1  0
 26 27  2  0
 26 28  1  0
 29 30  1  0
 30 31  2  0
 30 32  1  0
 32 33  1  0
 34 33  1  6
 34 35  1  0
 34 39  1  0
 35 36  1  0
 36 37  1  0
 37 38  1  0
 38 39  1  0
M  END
>  <DRUGBANK_ID>  (1) 
DB12318

>  <COMMON_NAME>  (1) 
BMS-599626

>  <CAS_NUMBER>  (1) 
714971-09-2

>  <UNII>  (1) 
2252724U5N

$$$$
