1490
     RDKit          3D

 12 13  0  0  1  0  0  0  0  0999 V2000
   -0.2819    1.1208    0.1152 O   0  0  0  0  0  0  0  0  0  0  0  0
    1.0874   -0.7040   -0.1413 N   0  0  0  0  0  0  0  0  0  0  0  0
    1.9850    1.4345   -0.1618 N   0  0  0  0  0  0  0  0  0  0  0  0
   -1.1757    0.0212   -0.1125 C   0  0  0  0  0  0  0  0  0  0  0  0
   -0.2734   -1.1869    0.1046 C   0  0  0  0  0  0  0  0  0  0  0  0
   -2.4817    0.0330    0.6801 C   0  0  0  0  0  0  0  0  0  0  0  0
   -3.3920    1.0920    0.5239 C   0  0  0  0  0  0  0  0  0  0  0  0
   -2.9008   -1.0638    1.4603 C   0  0  0  0  0  0  0  0  0  0  0  0
    0.9547    0.5746   -0.0655 C   0  0  0  0  0  0  0  0  0  0  0  0
   -4.6583    1.0537    1.1289 C   0  0  0  0  0  0  0  0  0  0  0  0
   -4.1764   -1.1187    2.0307 C   0  0  0  0  0  0  0  0  0  0  0  0
   -5.0485   -0.0495    1.8846 C   0  0  0  0  0  0  0  0  0  0  0  0
  1  4  1  0
  1  9  1  0
  2  5  1  0
  2  9  2  0
  3  9  1  0
  4  5  1  0
  4  6  1  0
  6  7  2  0
  6  8  1  0
  7 10  1  0
  8 11  2  0
 10 12  2  0
 11 12  1  0
M  END
>  <DRUGBANK_ID>  (1) 
DB01490

>  <COMMON_NAME>  (1) 
Aminorex

>  <CAS_NUMBER>  (1) 
2207-50-3

>  <UNII>  (1) 
2SH16612I9

>  <SYNONYMS>  (1) 
Aminorex; Aminorexum

$$$$
