LIE
     RDKit          3D

 29 32  0  0  0  0  0  0  0  0999 V2000
   -2.0483   -0.6251    0.0088 C   0  0  0  0  0  0  0  0  0  0  0  0
    0.2023   -0.6601   -0.0015 C   0  0  0  0  0  0  0  0  0  0  0  0
    1.8816   -2.5000    0.0521 C   0  0  0  0  0  0  0  0  0  0  0  0
    2.3462    0.0223   -0.0439 C   0  0  0  0  0  0  0  0  0  0  0  0
    3.7100    0.0464   -0.0473 N   0  0  0  0  0  0  0  0  0  0  0  0
   -4.4313   -0.6270    0.0160 C   0  0  0  0  0  0  0  0  0  0  0  0
   -4.7997    0.2175   -1.0317 C   0  0  0  0  0  0  0  0  0  0  0  0
   -6.5772   -0.1537    1.0729 C   0  0  0  0  0  0  0  0  0  0  0  0
    1.4739   -3.2184    1.3273 C   0  0  0  0  0  0  0  0  0  0  0  0
    3.8681   -1.6720   -2.2804 F   0  0  0  0  0  0  0  0  0  0  0  0
    4.6470   -1.9120   -1.2157 C   0  0  0  0  0  0  0  0  0  0  0  0
    5.3063   -3.1397   -1.1425 C   0  0  0  0  0  0  0  0  0  0  0  0
    6.0748   -3.4421   -0.0224 C   0  0  0  0  0  0  0  0  0  0  0  0
    6.1858   -2.5097    1.0103 C   0  0  0  0  0  0  0  0  0  0  0  0
    5.4687   -1.3047    0.9601 C   0  0  0  0  0  0  0  0  0  0  0  0
    4.6355   -1.0176   -0.1313 C   0  0  0  0  0  0  0  0  0  0  0  0
    1.6086    1.1255   -0.0155 N   0  0  0  0  0  0  0  0  0  0  0  0
    0.2962    0.7197   -0.0036 C   0  0  0  0  0  0  0  0  0  0  0  0
   -0.9108    1.4093    0.0137 C   0  0  0  0  0  0  0  0  0  0  0  0
    1.5145   -1.0964    0.0060 N   0  0  0  0  0  0  0  0  0  0  0  0
    1.4997   -3.2390   -1.2269 C   0  0  0  0  0  0  0  0  0  0  0  0
   -0.9316   -1.3926    0.0008 N   0  0  0  0  0  0  0  0  0  0  0  0
   -2.0845    0.7268    0.0421 N   0  0  0  0  0  0  0  0  0  0  0  0
   -3.2520   -1.3400    0.0300 O   0  0  0  0  0  0  0  0  0  0  0  0
   -4.0001    0.3703   -2.0969 F   0  0  0  0  0  0  0  0  0  0  0  0
   -6.0166    0.9081   -1.0125 C   0  0  0  0  0  0  0  0  0  0  0  0
   -6.9063    0.7309    0.0470 C   0  0  0  0  0  0  0  0  0  0  0  0
   -5.3515   -0.8291    1.0462 C   0  0  0  0  0  0  0  0  0  0  0  0
   -5.0781   -1.6888    2.0387 F   0  0  0  0  0  0  0  0  0  0  0  0
  1 22  2  0
  1 23  1  0
  1 24  1  0
  2 18  2  0
  2 20  1  0
  2 22  1  0
  3  9  1  0
  3 20  1  0
  3 21  1  0
  4  5  1  0
  4 17  2  0
  4 20  1  0
  5 16  1  0
  6  7  2  0
  6 24  1  0
  6 28  1  0
  7 25  1  0
  7 26  1  0
  8 27  1  0
  8 28  2  0
 10 11  1  0
 11 12  2  0
 11 16  1  0
 12 13  1  0
 13 14  2  0
 14 15  1  0
 15 16  2  0
 17 18  1  0
 18 19  1  0
 19 23  2  0
 26 27  2  0
 28 29  1  0
M  END
>  <DRUGBANK_ID>  (1) 
DB08097

>  <COMMON_NAME>  (1) 
2-(2,6-DIFLUOROPHENOXY)-N-(2-FLUOROPHENYL)-9-ISOPROPYL-9H-PURIN-8-AMINE

$$$$
