P4O
     RDKit          3D

 26 30  0  0  0  0  0  0  0  0999 V2000
   -1.1965   -1.4399    0.0145 C   0  0  0  0  0  0  0  0  0  0  0  0
    0.0197   -0.7389    0.0079 C   0  0  0  0  0  0  0  0  0  0  0  0
    1.2570   -1.4058    0.0085 C   0  0  0  0  0  0  0  0  0  0  0  0
    2.4480   -0.6822    0.0073 C   0  0  0  0  0  0  0  0  0  0  0  0
    2.4090    0.7074   -0.0045 C   0  0  0  0  0  0  0  0  0  0  0  0
    1.1772    1.3680   -0.0110 C   0  0  0  0  0  0  0  0  0  0  0  0
   -0.0243    0.6718   -0.0015 C   0  0  0  0  0  0  0  0  0  0  0  0
   -1.1821    1.3525   -0.0025 N   0  0  0  0  0  0  0  0  0  0  0  0
   -2.3339    0.6375    0.0137 C   0  0  0  0  0  0  0  0  0  0  0  0
   -2.4114   -0.7519    0.0129 C   0  0  0  0  0  0  0  0  0  0  0  0
   -3.6945   -1.4489   -0.0354 C   0  0  0  0  0  0  0  0  0  0  0  0
   -4.5837   -1.2374   -1.0843 C   0  0  0  0  0  0  0  0  0  0  0  0
   -3.9634   -2.2975    0.9880 N   0  0  0  0  0  0  0  0  0  0  0  0
   -5.1674   -2.9129    0.9861 C   0  0  0  0  0  0  0  0  0  0  0  0
   -6.1148   -2.7405   -0.0040 C   0  0  0  0  0  0  0  0  0  0  0  0
   -5.8086   -1.8957   -1.0673 C   0  0  0  0  0  0  0  0  0  0  0  0
   -6.8093   -1.6246   -2.0825 C   0  0  0  0  0  0  0  0  0  0  0  0
   -8.0726   -1.0937   -1.9039 C   0  0  0  0  0  0  0  0  0  0  0  0
   -8.6929   -1.0090   -3.1647 C   0  0  0  0  0  0  0  0  0  0  0  0
  -10.0062   -0.5227   -3.5184 C   0  0  0  0  0  0  0  0  0  0  0  0
  -10.8124   -0.0931   -2.6988 O   0  0  0  0  0  0  0  0  0  0  0  0
  -10.3004   -0.5703   -4.8566 N   0  0  0  0  0  0  0  0  0  0  0  0
   -9.4572   -1.1135   -5.9137 C   0  0  0  0  0  0  0  0  0  0  0  0
   -8.0498   -1.6272   -5.5386 C   0  0  0  0  0  0  0  0  0  0  0  0
   -7.7957   -1.5025   -4.0865 C   0  0  0  0  0  0  0  0  0  0  0  0
   -6.6467   -1.8644   -3.4317 N   0  0  0  0  0  0  0  0  0  0  0  0
  1  2  2  0
  1 10  1  0
  2  3  1  0
  2  7  1  0
  3  4  2  0
  4  5  1  0
  5  6  2  0
  6  7  1  0
  7  8  2  0
  8  9  1  0
  9 10  2  0
 10 11  1  0
 11 12  2  0
 11 13  1  0
 12 16  1  0
 13 14  2  0
 14 15  1  0
 15 16  2  0
 16 17  1  0
 17 18  2  0
 17 26  1  0
 18 19  1  0
 19 20  1  0
 19 25  2  0
 20 21  2  0
 20 22  1  0
 22 23  1  0
 23 24  1  0
 24 25  1  0
 25 26  1  0
M  END
>  <DRUGBANK_ID>  (1) 
DB08358

>  <COMMON_NAME>  (1) 
2-(2-QUINOLIN-3-YLPYRIDIN-4-YL)-1,5,6,7-TETRAHYDRO-4H-PYRROLO[3,2-C]PYRIDIN-4-ONE

$$$$
