
     RDKit          3D

 35 39  0  0  0  0  0  0  0  0999 V2000
   -0.7964    0.2368    0.2298 O   0  0  0  0  0  0  0  0  0  0  0  0
   -0.5122   -0.7171   -0.7930 C   0  0  1  0  0  0  0  0  0  0  0  0
    0.6434   -1.5984    0.1523 C   0  0  2  0  0  0  0  0  0  0  0  0
    1.5617   -2.6459   -0.1869 O   0  0  0  0  0  0  0  0  0  0  0  0
   -0.2392   -2.2383    1.3793 C   0  0  0  0  0  0  0  0  0  0  0  0
   -1.5618   -2.9985    0.8112 C   0  0  0  0  0  0  0  0  0  0  0  0
   -0.9928   -3.4728   -0.4307 C   0  0  0  0  0  0  0  0  0  0  0  0
   -1.6673   -4.3600    1.4589 C   0  0  1  0  0  0  0  0  0  0  0  0
   -2.0165   -4.3243    3.0792 C   0  0  0  0  0  0  0  0  0  0  0  0
   -3.8253   -5.3777    3.1853 C   0  0  0  0  0  0  0  0  0  0  0  0
   -4.4196   -5.7574    1.9659 C   0  0  0  0  0  0  0  0  0  0  0  0
   -5.9886   -5.1965    0.9670 C   0  0  1  0  0  0  0  0  0  0  0  0
   -7.4179   -6.5859    0.9461 C   0  0  1  0  0  0  0  0  0  0  0  0
   -6.9145   -7.6100    2.5165 C   0  0  0  0  0  0  0  0  0  0  0  0
   -8.2782   -5.6588    0.0708 C   0  0  2  0  0  0  0  0  0  0  0  0
   -7.5912   -5.5064   -1.3117 C   0  0  0  0  0  0  0  0  0  0  0  0
   -8.5564   -4.1996    0.4958 C   0  0  0  0  0  0  0  0  0  0  0  0
   -7.6106   -3.4277    1.3742 C   0  0  0  0  0  0  0  0  0  0  0  0
   -6.3257   -4.0648    1.6949 C   0  0  1  0  0  0  0  0  0  0  0  0
   -6.3259   -5.4809    2.3013 C   0  0  0  0  0  0  0  0  0  0  0  0
   -5.6290   -6.8793    1.1919 O   0  0  0  0  0  0  0  0  0  0  0  0
   -6.5234   -5.4276    3.5282 O   0  0  0  0  0  0  0  0  0  0  0  0
   -5.2897   -2.9665    2.1668 C   0  0  0  0  0  0  0  0  0  0  0  0
   -4.1814   -3.4320    3.0190 C   0  0  0  0  0  0  0  0  0  0  0  0
   -3.3380   -5.0779    2.3003 C   0  0  1  0  0  0  0  0  0  0  0  0
   -2.2456   -6.2290    3.6661 C   0  0  0  0  0  0  0  0  0  0  0  0
   -2.8729   -4.9621    0.9006 C   0  0  2  0  0  0  0  0  0  0  0  0
   -2.5647   -6.3325    0.2807 C   0  0  0  0  0  0  0  0  0  0  0  0
   -3.8534   -4.1800    0.0408 C   0  0  0  0  0  0  0  0  0  0  0  0
   -3.7494   -3.3013   -1.0518 C   0  0  0  0  0  0  0  0  0  0  0  0
   -2.7361   -2.2661   -0.3905 C   0  0  2  0  0  0  0  0  0  0  0  0
   -1.7541   -1.4596   -1.7823 C   0  0  1  0  0  0  0  0  0  0  0  0
   -2.1008   -2.4788   -3.0434 C   0  0  0  0  0  0  0  0  0  0  0  0
   -0.2697   -1.4406   -2.7684 C   0  0  0  0  0  0  0  0  0  0  0  0
   -0.5648   -1.0759   -4.1352 O   0  0  0  0  0  0  0  0  0  0  0  0
  2 32  1  0
  2  1  1  1
  3  2  1  0
  3  4  1  6
  5  6  1  0
  5  3  1  0
  6  8  1  0
  6 31  1  0
  6  7  1  0
  8  9  1  1
  9 10  1  0
 10 11  2  0
 11 25  1  0
 12 11  1  1
 12 13  1  0
 13 15  1  0
 13 14  1  6
 15 17  1  0
 15 16  1  6
 17 18  1  0
 19 18  1  0
 19 12  1  0
 19 20  1  1
 20 22  2  0
 20 21  1  0
 23 19  1  0
 24 23  1  0
 25 27  1  0
 25 24  1  0
 25 26  1  1
 27  8  1  0
 27 28  1  6
 29 27  1  0
 30 29  1  0
 31 30  1  6
 32 31  1  0
 32 33  1  1
 32 34  1  0
 34 35  1  0
M  END
>  <DRUGBANK_ID>  (1) 
DB14054

>  <COMMON_NAME>  (1) 
Asiatic acid

>  <CAS_NUMBER>  (1) 
464-92-6

>  <UNII>  (1) 
9PA5A687X5

>  <SYNONYMS>  (1) 
Dammarolic acid

$$$$
