
     RDKit          3D

 31 33  0  0  0  0  0  0  0  0999 V2000
    2.3055    0.6214   -0.0215 C   0  0  0  0  0  0  0  0  0  0  0  0
    0.9583    0.0768    0.0447 N   0  0  0  0  0  0  0  0  0  0  0  0
   -0.1077    0.8705   -0.0331 N   0  0  0  0  0  0  0  0  0  0  0  0
   -1.1455    0.0185    0.0244 C   0  0  0  0  0  0  0  0  0  0  0  0
   -2.4980    0.6231   -0.0258 C   0  0  0  0  0  0  0  0  0  0  0  0
   -0.7656   -1.3808    0.1475 C   0  0  0  0  0  0  0  0  0  0  0  0
   -1.7196   -2.5770    0.1082 C   0  0  0  0  0  0  0  0  0  0  0  0
   -1.4263   -3.8414    0.3438 N   0  0  0  0  0  0  0  0  0  0  0  0
   -2.3927   -4.8254   -0.2346 O   0  0  0  0  0  0  0  0  0  0  0  0
   -1.8851   -6.2895   -0.2605 C   0  0  0  0  0  0  0  0  0  0  0  0
   -1.0923   -6.9385   -1.6337 C   0  0  0  0  0  0  0  0  0  0  0  0
    0.0740   -7.8341   -1.6092 C   0  0  0  0  0  0  0  0  0  0  0  0
    1.0431   -7.8881   -2.6563 C   0  0  0  0  0  0  0  0  0  0  0  0
    0.8028   -7.1937   -3.8271 C   0  0  0  0  0  0  0  0  0  0  0  0
   -0.3341   -6.3725   -3.9151 C   0  0  0  0  0  0  0  0  0  0  0  0
   -1.2563   -6.2354   -2.8506 C   0  0  0  0  0  0  0  0  0  0  0  0
    1.6580   -7.2894   -5.0350 C   0  0  0  0  0  0  0  0  0  0  0  0
    1.3538   -6.6975   -6.0413 O   0  0  0  0  0  0  0  0  0  0  0  0
    2.6979   -8.1697   -4.8834 O   0  0  0  0  0  0  0  0  0  0  0  0
    3.4539   -8.4788   -6.0838 C   0  0  0  0  0  0  0  0  0  0  0  0
    2.5414   -9.1529   -7.1189 C   0  0  0  0  0  0  0  0  0  0  0  0
    4.1288   -7.2155   -6.6316 C   0  0  0  0  0  0  0  0  0  0  0  0
    4.5604   -9.4823   -5.7101 C   0  0  0  0  0  0  0  0  0  0  0  0
    0.6353   -1.2417    0.2192 C   0  0  0  0  0  0  0  0  0  0  0  0
    1.7020   -2.0080    0.3974 O   0  0  0  0  0  0  0  0  0  0  0  0
    1.6297   -3.3231    0.1617 C   0  0  0  0  0  0  0  0  0  0  0  0
    1.1031   -3.7256   -1.0257 C   0  0  0  0  0  0  0  0  0  0  0  0
    0.6497   -4.9776   -0.9032 C   0  0  0  0  0  0  0  0  0  0  0  0
    0.9729   -5.8775    0.1420 C   0  0  0  0  0  0  0  0  0  0  0  0
    1.7117   -5.5122    1.2031 C   0  0  0  0  0  0  0  0  0  0  0  0
    1.9404   -4.1706    1.2524 C   0  0  0  0  0  0  0  0  0  0  0  0
  1  2  1  0
  2  3  1  0
  2 24  1  0
  3  4  2  0
  4  5  1  0
  4  6  1  0
  6  7  1  0
  6 24  2  0
  7  8  2  0
  8  9  1  0
  9 10  1  0
 10 11  1  0
 11 12  2  0
 11 16  1  0
 12 13  1  0
 13 14  2  0
 14 15  1  0
 14 17  1  0
 15 16  2  0
 17 18  2  0
 17 19  1  0
 19 20  1  0
 20 21  1  0
 20 22  1  0
 20 23  1  0
 24 25  1  0
 25 26  1  0
 26 27  2  0
 26 31  1  0
 27 28  1  0
 28 29  2  0
 29 30  1  0
 30 31  2  0
M  END
>  <DRUGBANK_ID>  (1) 
DB16164

>  <COMMON_NAME>  (1) 
Fenpyroximate

>  <CAS_NUMBER>  (1) 
134098-61-6

>  <UNII>  (1) 
9W557V4RYA

>  <SYNONYMS>  (1) 
Fenpryroximate; Fenpyroximate (z,e); Fujimite; Sequel

$$$$
