
     RDKit          3D

 33 35  0  0  1  0  0  0  0  0999 V2000
    4.9886    2.4978    4.7077 Cl  0  0  0  0  0  0  0  0  0  0  0  0
    0.6789   -0.4575    0.0099 S   0  0  0  0  0  0  0  0  0  0  0  0
    1.2901    5.3904    0.2293 P   0  0  1  0  0  0  0  0  0  0  0  0
    2.2814    4.1113    0.5164 O   0  0  0  0  0  0  0  0  0  0  0  0
    0.6631    4.9412   -1.1816 O   0  0  0  0  0  0  0  0  0  0  0  0
    2.5208    7.5511   -1.4658 O   0  0  0  0  0  0  0  0  0  0  0  0
    0.2251    5.5022    1.2816 O   0  0  0  0  0  0  0  0  0  0  0  0
    0.4121    0.6600    1.1524 O   0  0  0  0  0  0  0  0  0  0  0  0
    0.1303    0.1041   -1.2376 O   0  0  0  0  0  0  0  0  0  0  0  0
    0.2875   -1.7115    0.5310 O   0  0  0  0  0  0  0  0  0  0  0  0
    4.3302    5.3385    0.2792 N   0  0  0  0  0  0  0  0  0  0  0  0
    4.9293    3.9525    1.8914 N   0  0  0  0  0  0  0  0  0  0  0  0
    3.0366    6.8041    1.9803 N   0  0  0  0  0  0  0  0  0  0  0  0
    2.0457    5.6486    3.7714 N   0  0  0  0  0  0  0  0  0  0  0  0
    2.3992    3.5792    4.3882 N   0  0  0  0  0  0  0  0  0  0  0  0
    2.3041    2.7281    0.1084 C   0  0  1  0  0  0  0  0  0  0  0  0
    1.7527    2.7604   -1.3560 C   0  0  0  0  0  0  0  0  0  0  0  0
    0.4004    3.5478   -1.2969 C   0  0  0  0  0  0  0  0  0  0  0  0
    3.5641    1.8661    0.8901 C   0  0  0  0  0  0  0  0  0  0  0  0
    2.3795    7.2520   -0.1109 C   0  0  0  0  0  0  0  0  0  0  0  0
    3.5465    1.8329    2.3215 C   0  0  0  0  0  0  0  0  0  0  0  0
    4.7767    1.3383    0.3570 C   0  0  0  0  0  0  0  0  0  0  0  0
    3.0665    6.3882   -2.0173 C   0  0  0  0  0  0  0  0  0  0  0  0
    4.1840    5.6066   -1.2137 C   0  0  0  0  0  0  0  0  0  0  0  0
    4.7650    1.7549    3.1205 C   0  0  0  0  0  0  0  0  0  0  0  0
    5.9522    1.1358    1.1660 C   0  0  0  0  0  0  0  0  0  0  0  0
    3.7845    5.7505    1.6033 C   0  0  0  0  0  0  0  0  0  0  0  0
    5.9719    1.4513    2.5191 C   0  0  0  0  0  0  0  0  0  0  0  0
    3.8845    4.6845    2.4607 C   0  0  0  0  0  0  0  0  0  0  0  0
    5.0374    4.2222    0.6026 C   0  0  0  0  0  0  0  0  0  0  0  0
    2.8636    4.6107    3.5565 C   0  0  0  0  0  0  0  0  0  0  0  0
    2.1586    6.6746    2.9717 C   0  0  0  0  0  0  0  0  0  0  0  0
    2.4544   -0.4375   -0.1470 C   0  0  0  0  0  0  0  0  0  0  0  0
  1 25  1  0
  2  8  1  0
  2  9  2  0
  2 10  2  0
  2 33  1  0
  3  4  1  0
  3  5  1  0
  3 20  1  0
  3  7  2  0
  4 16  1  0
  5 18  1  0
  6 20  1  0
  6 23  1  0
 11 24  1  0
 11 27  1  0
 11 30  1  0
 12 29  1  0
 12 30  2  0
 13 27  1  0
 13 32  2  0
 14 31  2  0
 14 32  1  0
 15 31  1  0
 16 17  1  0
 16 19  1  6
 17 18  1  0
 19 21  2  0
 19 22  1  0
 21 25  1  0
 22 26  2  0
 23 24  1  0
 25 28  2  0
 26 28  1  0
 27 29  2  0
 29 31  1  0
M  END
>  <DRUGBANK_ID>  (1) 
DB05478

>  <COMMON_NAME>  (1) 
Pradefovir mesylate

>  <CAS_NUMBER>  (1) 
625095-61-6

>  <UNII>  (1) 
0D5204ZSIX

>  <SYNONYMS>  (1) 
Pradefovir mesilate; Pradefovir mesylate

$$$$
