NOX
     RDKit          3D

 24 25  0  0  0  0  0  0  0  0999 V2000
    1.4829    0.0461   -0.2657 N   0  0  0  0  0  0  0  0  0  0  0  0
    0.6653   -1.2421   -0.1860 C   0  0  0  0  0  0  0  0  0  0  0  0
   -0.7921   -1.1916   -0.5940 C   0  0  0  0  0  0  0  0  0  0  0  0
   -1.4747    0.0097    0.0591 C   0  0  0  0  0  0  0  0  0  0  0  0
   -0.7422    1.2595   -0.3982 C   0  0  0  0  0  0  0  0  0  0  0  0
    0.6675    1.2634    0.1730 C   0  0  0  0  0  0  0  0  0  0  0  0
    1.8309    0.1878   -1.5956 O   0  0  0  0  0  0  0  0  0  0  0  0
    2.8237   -0.0010    0.5150 C   0  0  0  0  0  0  0  0  0  0  0  0
    2.7651   -0.0794    2.0374 C   0  0  0  0  0  0  0  0  0  0  0  0
    2.1344   -1.3860    2.4465 C   0  0  0  0  0  0  0  0  0  0  0  0
    2.6108   -2.6743    2.2015 C   0  0  0  0  0  0  0  0  0  0  0  0
    1.8376   -3.8347    2.5482 C   0  0  0  0  0  0  0  0  0  0  0  0
    0.5540   -3.6991    3.0955 C   0  0  0  0  0  0  0  0  0  0  0  0
    0.0126   -2.4539    2.9777 C   0  0  0  0  0  0  0  0  0  0  0  0
    0.7984   -1.3262    2.7647 C   0  0  0  0  0  0  0  0  0  0  0  0
   -0.2106   -4.6860    3.7616 N   0  0  0  0  0  0  0  0  0  0  0  0
   -1.2918   -4.5578    4.6350 C   0  0  0  0  0  0  0  0  0  0  0  0
   -1.8941   -5.5926    4.9392 O   0  0  0  0  0  0  0  0  0  0  0  0
   -1.7892   -3.2231    5.2698 C   0  0  0  0  0  0  0  0  0  0  0  0
   -0.8673   -2.4791    6.2728 C   0  0  0  0  0  0  0  0  0  0  0  0
    0.3670   -1.7928    5.7126 C   0  0  0  0  0  0  0  0  0  0  0  0
   -0.1323   -0.4914    5.0584 C   0  0  0  0  0  0  0  0  0  0  0  0
    0.8477    0.4316    4.8634 O   0  0  0  0  0  0  0  0  0  0  0  0
   -1.2440   -0.3096    4.6205 O   0  0  0  0  0  0  0  0  0  0  0  0
  1  2  1  0
  1  6  1  0
  1  7  1  0
  1  8  1  0
  2  3  1  0
  3  4  1  0
  4  5  1  0
  5  6  1  0
  8  9  1  0
  9 10  1  0
 10 11  2  0
 10 15  1  0
 11 12  1  0
 12 13  2  0
 13 14  1  0
 13 16  1  0
 14 15  2  0
 16 17  1  0
 17 18  2  0
 17 19  1  0
 19 20  1  0
 20 21  1  0
 21 22  1  0
 22 23  1  0
 22 24  2  0
M  CHG  2   1   1   7  -1
M  END
>  <DRUGBANK_ID>  (1) 
DB08289

>  <COMMON_NAME>  (1) 
N-(PARA-GLUTARAMIDOPHENYL-ETHYL)-PIPERIDINIUM-N-OXIDE

$$$$
