
     RDKit          3D

 14 15  0  0  1  0  0  0  0  0999 V2000
    2.4030    5.5957   -0.9308 C   0  0  0  0  0  0  0  0  0  0  0  0
    2.8766    5.1293    0.3036 C   0  0  0  0  0  0  0  0  0  0  0  0
    2.4886    4.7922   -2.0734 C   0  0  0  0  0  0  0  0  0  0  0  0
    3.4978    3.8836    0.3969 C   0  0  0  0  0  0  0  0  0  0  0  0
    3.2049    2.4602   -2.9918 C   0  0  0  0  0  0  0  0  0  0  0  0
    4.3123    1.7990   -0.8912 C   0  0  0  0  0  0  0  0  0  0  0  0
    3.0443    3.5250   -1.9520 C   0  0  0  0  0  0  0  0  0  0  0  0
    3.6045    3.1086   -0.7451 C   0  0  0  0  0  0  0  0  0  0  0  0
    3.6655    1.2143   -2.1643 C   0  0  0  0  0  0  0  0  0  0  0  0
    2.6542    0.0636   -1.8489 C   0  0  2  0  0  0  0  0  0  0  0  0
    2.2815   -0.0661   -0.3383 C   0  0  0  0  0  0  0  0  0  0  0  0
    3.2900   -1.2199   -2.2842 N   0  0  0  0  0  0  0  0  0  0  0  0
    1.6295    0.7347    0.3207 O   0  0  0  0  0  0  0  0  0  0  0  0
    2.8744   -1.1104    0.2939 O   0  0  0  0  0  0  0  0  0  0  0  0
  2  1  2  0
  3  1  1  0
  4  2  1  0
  7  3  2  0
  7  5  1  0
  8  4  2  0
  8  6  1  0
  8  7  1  0
  9  5  1  0
  9  6  1  0
 10 12  1  1
 10 11  1  0
 10  9  1  0
 13 11  2  0
 14 11  1  0
M  END
>  <DRUGBANK_ID>  (1) 
DB04061

>  <SECONDARY_ACCESSION_NUMBERS>  (1) 
EXPT01849

>  <COMMON_NAME>  (1) 
Alpha-Amino-2-Indanacetic Acid

$$$$
