1195
     RDKit          3D

 28 29  0  0  1  0  0  0  0  0999 V2000
    2.5523    0.8373    0.8500 F   0  0  0  0  0  0  0  0  0  0  0  0
    4.5504    1.4678    0.8483 F   0  0  0  0  0  0  0  0  0  0  0  0
    4.1102   -0.6724    0.8184 F   0  0  0  0  0  0  0  0  0  0  0  0
    2.7943   -5.5110   -5.1056 F   0  0  0  0  0  0  0  0  0  0  0  0
    4.0549   -7.1662   -5.6724 F   0  0  0  0  0  0  0  0  0  0  0  0
    2.4982   -7.4360   -4.1583 F   0  0  0  0  0  0  0  0  0  0  0  0
    2.1216   -2.6060    1.0175 O   0  0  0  0  0  0  0  0  0  0  0  0
    3.4309   -0.3771   -2.4032 O   0  0  0  0  0  0  0  0  0  0  0  0
    3.9056   -5.7466   -2.3262 O   0  0  0  0  0  0  0  0  0  0  0  0
   -0.6526    0.5715   -0.9257 N   0  0  0  0  0  0  0  0  0  0  0  0
    1.3033   -0.8193   -0.1163 N   0  0  0  0  0  0  0  0  0  0  0  0
    0.4399    1.2355   -1.5428 C   0  0  0  0  0  0  0  0  0  0  0  0
    0.7905    2.6540   -1.0325 C   0  0  0  0  0  0  0  0  0  0  0  0
   -0.4757    3.4552   -1.2119 C   0  0  0  0  0  0  0  0  0  0  0  0
   -1.6544    2.6544   -0.6246 C   0  0  0  0  0  0  0  0  0  0  0  0
   -1.8433    1.2548   -1.2126 C   0  0  0  0  0  0  0  0  0  0  0  0
    1.3885    0.1788   -1.1938 C   0  0  0  0  0  0  0  0  0  0  0  0
    2.0367   -1.9779   -0.0604 C   0  0  0  0  0  0  0  0  0  0  0  0
    2.7493   -2.4892   -1.2472 C   0  0  0  0  0  0  0  0  0  0  0  0
    3.1825   -1.7108   -2.3266 C   0  0  0  0  0  0  0  0  0  0  0  0
    2.9662   -3.8731   -1.2849 C   0  0  0  0  0  0  0  0  0  0  0  0
    3.5235   -4.4416   -2.4186 C   0  0  0  0  0  0  0  0  0  0  0  0
    3.3647   -2.3231   -3.5544 C   0  0  0  0  0  0  0  0  0  0  0  0
    3.6592   -3.6625   -3.5644 C   0  0  0  0  0  0  0  0  0  0  0  0
    3.9968    0.5096   -1.3797 C   0  0  0  0  0  0  0  0  0  0  0  0
    4.4814   -6.2864   -3.5236 C   0  0  0  0  0  0  0  0  0  0  0  0
    3.7598    0.5164    0.2935 C   0  0  0  0  0  0  0  0  0  0  0  0
    3.4437   -6.5876   -4.6124 C   0  0  0  0  0  0  0  0  0  0  0  0
  1 27  1  0
  2 27  1  0
  3 27  1  0
  4 28  1  0
  5 28  1  0
  6 28  1  0
  7 18  2  0
  8 20  1  0
  8 25  1  0
  9 22  1  0
  9 26  1  0
 10 12  1  0
 10 16  1  0
 11 17  1  0
 11 18  1  0
 12 13  1  0
 12 17  1  0
 13 14  1  0
 14 15  1  0
 15 16  1  0
 18 19  1  0
 19 20  2  0
 19 21  1  0
 20 23  1  0
 21 22  2  0
 22 24  1  0
 23 24  2  0
 25 27  1  0
 26 28  1  0
M  END
>  <DRUGBANK_ID>  (1) 
DB01195

>  <SECONDARY_ACCESSION_NUMBERS>  (1) 
APRD00129

>  <COMMON_NAME>  (1) 
Flecainide

>  <CAS_NUMBER>  (1) 
54143-55-4

>  <UNII>  (1) 
K94FTS1806

>  <SYNONYMS>  (1) 
(±)-flecainide; Flecaine; Flecainida; Flecainide; Flécaïnide; Flecainidum; N-(2-Piperidinylmethyl)-2,5-bis(2,2,2-trifluoroethoxy)benzamide

$$$$
