341
     RDKit          3D

 27 29  0  0  1  0  0  0  0  0999 V2000
   -2.2246    0.0670    0.1634 Cl  0  0  0  0  0  0  0  0  0  0  0  0
    4.8340   -1.5320    4.6010 O   0  0  0  0  0  0  0  0  0  0  0  0
    5.4246   -1.8098    1.1976 O   0  0  0  0  0  0  0  0  0  0  0  0
    7.1653   -0.7568    1.9261 O   0  0  0  0  0  0  0  0  0  0  0  0
    3.4967   -0.4957    0.9084 N   0  0  0  0  0  0  0  0  0  0  0  0
    1.6852   -1.4399    3.0497 N   0  0  0  0  0  0  0  0  0  0  0  0
    3.0658   -2.0043    1.2148 C   0  0  0  0  0  0  0  0  0  0  0  0
    3.1292    0.5408    1.9145 C   0  0  0  0  0  0  0  0  0  0  0  0
    1.7609   -2.2610    1.8606 C   0  0  0  0  0  0  0  0  0  0  0  0
    1.9597    0.0169    2.8046 C   0  0  0  0  0  0  0  0  0  0  0  0
    3.6246    0.1019   -0.4446 C   0  0  0  0  0  0  0  0  0  0  0  0
    2.3260   -2.1624    4.1789 C   0  0  0  0  0  0  0  0  0  0  0  0
    2.1533    0.2692   -0.8174 C   0  0  0  0  0  0  0  0  0  0  0  0
    4.5022   -0.6350   -1.5101 C   0  0  0  0  0  0  0  0  0  0  0  0
    3.8651   -2.5657    4.3532 C   0  0  0  0  0  0  0  0  0  0  0  0
    1.4751    1.4482   -0.4716 C   0  0  0  0  0  0  0  0  0  0  0  0
    1.4377   -0.9279   -0.9919 C   0  0  0  0  0  0  0  0  0  0  0  0
    4.2755   -0.2075   -2.8116 C   0  0  0  0  0  0  0  0  0  0  0  0
    5.4552   -1.6940   -1.4049 C   0  0  0  0  0  0  0  0  0  0  0  0
    0.1033    1.3929   -0.2271 C   0  0  0  0  0  0  0  0  0  0  0  0
    0.1004   -0.9919   -0.6246 C   0  0  0  0  0  0  0  0  0  0  0  0
    4.7505   -0.9522   -3.8913 C   0  0  0  0  0  0  0  0  0  0  0  0
    5.9099   -2.4640   -2.4645 C   0  0  0  0  0  0  0  0  0  0  0  0
   -0.5673    0.1690   -0.2695 C   0  0  0  0  0  0  0  0  0  0  0  0
    5.5128   -2.1088   -3.7198 C   0  0  0  0  0  0  0  0  0  0  0  0
    5.0848   -0.7893    3.4397 C   0  0  0  0  0  0  0  0  0  0  0  0
    5.9346   -1.1023    2.1443 C   0  0  0  0  0  0  0  0  0  0  0  0
  1 24  1  0
  2 15  1  0
  2 26  1  0
  3 27  1  0
  4 27  2  0
  5  7  1  0
  5  8  1  0
  5 11  1  0
  6  9  1  0
  6 10  1  0
  6 12  1  0
  7  9  1  0
  8 10  1  0
 11 13  1  0
 11 14  1  0
 12 15  1  0
 13 16  2  0
 13 17  1  0
 14 18  2  0
 14 19  1  0
 16 20  1  0
 17 21  2  0
 18 22  1  0
 19 23  2  0
 20 24  2  0
 21 24  1  0
 22 25  2  0
 23 25  1  0
 26 27  1  0
M  END
>  <DRUGBANK_ID>  (1) 
DB00341

>  <SECONDARY_ACCESSION_NUMBERS>  (1) 
APRD00630

>  <COMMON_NAME>  (1) 
Cetirizine

>  <CAS_NUMBER>  (1) 
83881-51-0

>  <UNII>  (1) 
YO7261ME24

>  <SYNONYMS>  (1) 
Cetirizin; Cetirizina; Cetirizine; Cetirizinum

$$$$
