BPR
     RDKit          3D

 15 16  0  0  0  0  0  0  0  0999 V2000
   -1.0770    0.5040    0.1410 N   0  0  0  0  0  0  0  0  0  0  0  0
   -0.8340   -0.8920   -0.2670 C   0  0  2  0  0  0  0  0  0  0  0  0
   -1.8338   -1.8382    0.3776 C   0  0  0  0  0  0  0  0  0  0  0  0
   -1.7856   -3.0407    0.7861 O   0  0  0  0  0  0  0  0  0  0  0  0
    0.5570   -1.1300    0.2520 C   0  0  0  0  0  0  0  0  0  0  0  0
    1.3060    0.1790   -0.1410 C   0  0  0  0  0  0  0  0  0  0  0  0
    0.2260    1.2560   -0.0090 C   0  0  0  0  0  0  0  0  0  0  0  0
   -5.8965   -1.9007    2.7495 O   0  0  0  0  0  0  0  0  0  0  0  0
   -3.1152   -1.1181    0.3621 N   0  0  0  0  0  0  0  0  0  0  0  0
   -3.8231   -0.5230   -0.7865 C   0  0  0  0  0  0  0  0  0  0  0  0
   -3.9975   -0.9494    1.5782 C   0  0  1  0  0  0  0  0  0  0  0  0
   -5.0470    0.0915    1.1799 C   0  0  0  0  0  0  0  0  0  0  0  0
   -4.4910    0.6680   -0.1570 C   0  0  0  0  0  0  0  0  0  0  0  0
   -4.6220   -3.7371    1.4254 O   0  0  0  0  0  0  0  0  0  0  0  0
   -4.7004   -2.3362    1.9559 B   0  0  0  0  0  0  0  0  0  0  0  0
  1  2  1  0
  1  7  1  0
  2  5  1  0
  2  3  1  1
  3  4  2  0
  3  9  1  0
  5  6  1  0
  6  7  1  0
  8 15  1  0
  9 10  1  0
  9 11  1  0
 10 13  1  0
 11 12  1  0
 11 15  1  6
 12 13  1  0
 14 15  1  0
M  END
>  <DRUGBANK_ID>  (1) 
DB07482

>  <COMMON_NAME>  (1) 
(2R)-N-[(2R)-2-(DIHYDROXYBORYL)-1-L-PROLYLPYRROLIDIN-2-YL]-N-[(5R)-5-(DIHYDROXYBORYL)-1-L-PROLYLPYRROLIDIN-2-YL]-L-PROLINAMIDE

$$$$
