
     RDKit          3D

  9  8  0  0  0  0  0  0  0  0999 V2000
    1.0341    0.1849    0.0559 C   0  0  0  0  0  0  0  0  0  0  0  0
    0.6074    0.2553   -1.4058 C   0  0  0  0  0  0  0  0  0  0  0  0
    1.1078   -0.9465   -2.2061 C   0  0  0  0  0  0  0  0  0  0  0  0
    0.5475   -2.2766   -1.6864 C   0  0  0  0  0  0  0  0  0  0  0  0
   -0.9841   -2.3126   -1.6781 C   0  0  0  0  0  0  0  0  0  0  0  0
   -1.5456   -2.1387   -3.0808 C   0  0  0  0  0  0  0  0  0  0  0  0
   -0.2333    2.2405    0.3819 O   0  0  0  0  0  0  0  0  0  0  0  0
    0.5541    1.3053    0.9420 C   0  0  0  0  0  0  0  0  0  0  0  0
    0.8508    1.3544    2.1322 O   0  0  0  0  0  0  0  0  0  0  0  0
  1  2  1  0
  2  3  1  0
  3  4  1  0
  4  5  1  0
  5  6  1  0
  8  1  1  0
  8  7  1  0
  8  9  2  0
M  END
>  <DRUGBANK_ID>  (1) 
DB02938

>  <SECONDARY_ACCESSION_NUMBERS>  (1) 
EXPT02907

>  <COMMON_NAME>  (1) 
Heptanoic acid

>  <CAS_NUMBER>  (1) 
111-14-8

>  <UNII>  (1) 
THE3YNP39D

>  <SYNONYMS>  (1) 
Enanthic acid; Enanthylic acid; Heptanoic acid; Heptoic acid; Heptylic acid; n-Heptanoic acid; n-Heptoic acid; n-Heptylic acid; Oenanthic acid; Oenanthylic acid

$$$$
