
     RDKit          3D

 25 27  0  0  0  0  0  0  0  0999 V2000
    1.0329    0.0274   -0.0224 C   0  0  0  0  0  0  0  0  0  0  0  0
    0.5459   -0.7321    1.2206 C   0  0  0  0  0  0  0  0  0  0  0  0
   -0.9953   -0.7046    1.2271 C   0  0  0  0  0  0  0  0  0  0  0  0
    1.0085   -2.0809    1.1443 O   0  0  0  0  0  0  0  0  0  0  0  0
    0.9292   -2.7741    2.3333 C   0  0  0  0  0  0  0  0  0  0  0  0
    1.0507   -4.1604    2.2029 C   0  0  0  0  0  0  0  0  0  0  0  0
    0.9462   -5.0249    3.2883 C   0  0  0  0  0  0  0  0  0  0  0  0
    1.2100   -6.4412    3.2176 N   0  0  0  0  0  0  0  0  0  0  0  0
    1.2009   -7.3341    1.7699 S   0  0  0  0  0  0  0  0  0  0  0  0
    2.7273   -8.2296    1.9150 C   0  0  0  0  0  0  0  0  0  0  0  0
    0.1204   -8.2825    1.8555 O   0  0  0  0  0  0  0  0  0  0  0  0
    1.3664   -6.4959    0.5975 O   0  0  0  0  0  0  0  0  0  0  0  0
    0.7267   -4.4436    4.5407 C   0  0  0  0  0  0  0  0  0  0  0  0
    0.5763   -3.0485    4.6752 C   0  0  0  0  0  0  0  0  0  0  0  0
    0.7091   -2.1826    3.5819 C   0  0  0  0  0  0  0  0  0  0  0  0
    0.6585   -0.7536    3.6456 N   0  0  0  0  0  0  0  0  0  0  0  0
    1.0489   -0.0505    2.4999 C   0  0  0  0  0  0  0  0  0  0  0  0
    1.7061    0.9884    2.5107 O   0  0  0  0  0  0  0  0  0  0  0  0
    0.1452   -0.0627    4.7782 C   0  0  0  0  0  0  0  0  0  0  0  0
   -0.9132    0.8597    4.6364 C   0  0  0  0  0  0  0  0  0  0  0  0
   -1.4088    1.5530    5.7498 C   0  0  0  0  0  0  0  0  0  0  0  0
   -0.9171    1.2543    7.0128 C   0  0  0  0  0  0  0  0  0  0  0  0
   -1.3750    1.9171    8.0823 F   0  0  0  0  0  0  0  0  0  0  0  0
    0.0572    0.2832    7.1807 C   0  0  0  0  0  0  0  0  0  0  0  0
    0.6389   -0.3080    6.0603 C   0  0  0  0  0  0  0  0  0  0  0  0
  1  2  1  0
  2  3  1  0
  2  4  1  0
  2 17  1  0
  4  5  1  0
  5  6  1  0
  5 15  2  0
  6  7  2  0
  7  8  1  0
  7 13  1  0
  8  9  1  0
  9 10  1  0
  9 11  2  0
  9 12  2  0
 13 14  2  0
 14 15  1  0
 15 16  1  0
 16 17  1  0
 16 19  1  0
 17 18  2  0
 19 20  2  0
 19 25  1  0
 20 21  1  0
 21 22  2  0
 22 23  1  0
 22 24  1  0
 24 25  2  0
M  END
>  <DRUGBANK_ID>  (1) 
DB15024

>  <COMMON_NAME>  (1) 
Apararenone

>  <CAS_NUMBER>  (1) 
945966-46-1

>  <UNII>  (1) 
832663U2NB

>  <SYNONYMS>  (1) 
Apararenone

$$$$
