
     RDKit          3D

 30 33  0  0  0  0  0  0  0  0999 V2000
    3.1989    0.1316    0.0200 O   0  0  0  0  0  0  0  0  0  0  0  0
    2.1595   -4.5421   -4.6956 O   0  0  0  0  0  0  0  0  0  0  0  0
    1.4077   -4.6305    4.6344 O   0  0  0  0  0  0  0  0  0  0  0  0
    4.4858   -4.7752   -4.3836 O   0  0  0  0  0  0  0  0  0  0  0  0
    1.1170   -2.9157    6.2265 O   0  0  0  0  0  0  0  0  0  0  0  0
    1.0920    1.0929   -0.0242 N   0  0  0  0  0  0  0  0  0  0  0  0
    1.1219   -1.3100   -0.0681 C   0  0  0  0  0  0  0  0  0  0  0  0
   -0.2911   -0.7196    0.0021 C   0  0  0  0  0  0  0  0  0  0  0  0
    1.9734    0.0160   -0.0190 C   0  0  0  0  0  0  0  0  0  0  0  0
    1.3915   -2.0417   -1.3852 C   0  0  0  0  0  0  0  0  0  0  0  0
    1.3640   -2.1999    1.1689 C   0  0  0  0  0  0  0  0  0  0  0  0
   -0.2272    0.6696   -0.0131 C   0  0  0  0  0  0  0  0  0  0  0  0
   -1.5159   -1.3771    0.0705 C   0  0  0  0  0  0  0  0  0  0  0  0
    2.6736   -2.5551   -1.5906 C   0  0  0  0  0  0  0  0  0  0  0  0
    1.1606   -1.6332    2.4240 C   0  0  0  0  0  0  0  0  0  0  0  0
    0.3862   -2.3636   -2.3145 C   0  0  0  0  0  0  0  0  0  0  0  0
    1.6298   -3.5878    1.1102 C   0  0  0  0  0  0  0  0  0  0  0  0
   -1.3618    1.4500   -0.0057 C   0  0  0  0  0  0  0  0  0  0  0  0
   -2.6764   -0.6079    0.0486 C   0  0  0  0  0  0  0  0  0  0  0  0
   -2.5987    0.7947    0.0094 C   0  0  0  0  0  0  0  0  0  0  0  0
    2.9141   -3.4346   -2.6269 C   0  0  0  0  0  0  0  0  0  0  0  0
    1.1334   -2.4277    3.5548 C   0  0  0  0  0  0  0  0  0  0  0  0
    0.6318   -3.2481   -3.3659 C   0  0  0  0  0  0  0  0  0  0  0  0
    1.6048   -4.3910    2.2540 C   0  0  0  0  0  0  0  0  0  0  0  0
    1.9177   -3.7557   -3.5434 C   0  0  0  0  0  0  0  0  0  0  0  0
    1.3694   -3.7985    3.4900 C   0  0  0  0  0  0  0  0  0  0  0  0
    3.4567   -4.9326   -5.0343 C   0  0  0  0  0  0  0  0  0  0  0  0
    1.3095   -4.0879    5.9161 C   0  0  0  0  0  0  0  0  0  0  0  0
    3.5072   -5.6082   -6.3583 C   0  0  0  0  0  0  0  0  0  0  0  0
    1.4758   -5.1206    6.9729 C   0  0  0  0  0  0  0  0  0  0  0  0
  1  9  2  0
  2 25  1  0
  2 27  1  0
  3 26  1  0
  3 28  1  0
  4 27  2  0
  5 28  2  0
  6  9  1  0
  6 12  1  0
  7  8  1  0
  7  9  1  0
  7 10  1  0
  7 11  1  0
  8 12  2  0
  8 13  1  0
 10 14  2  0
 10 16  1  0
 11 15  2  0
 11 17  1  0
 12 18  1  0
 13 19  2  0
 14 21  1  0
 15 22  1  0
 16 23  2  0
 17 24  2  0
 18 20  2  0
 19 20  1  0
 21 25  2  0
 22 26  2  0
 23 25  1  0
 24 26  1  0
 27 29  1  0
 28 30  1  0
M  END
>  <DRUGBANK_ID>  (1) 
DB14627

>  <SECONDARY_ACCESSION_NUMBERS>  (1) 
DBSALT002242

>  <COMMON_NAME>  (1) 
Oxyphenisatin acetate

>  <CAS_NUMBER>  (1) 
115-33-3

>  <UNII>  (1) 
U0Y1YAL65X

>  <SYNONYMS>  (1) 
Oxyphenisatin acetate; Oxyphenisatin diacetate; Oxyphenisatine acetate

$$$$
