
     RDKit          3D

 32 35  0  0  0  0  0  0  0  0999 V2000
   -9.7500   -4.5572    3.8734 C   0  0  0  0  0  0  0  0  0  0  0  0
   -9.3029   -5.9951    4.0682 C   0  0  0  0  0  0  0  0  0  0  0  0
  -10.2253   -7.0981    3.5019 C   0  0  0  0  0  0  0  0  0  0  0  0
  -10.4798   -6.9860    2.0162 C   0  0  0  0  0  0  0  0  0  0  0  0
  -11.0970   -5.8238    1.5628 C   0  0  0  0  0  0  0  0  0  0  0  0
  -11.2727   -5.5783    0.2285 C   0  0  0  0  0  0  0  0  0  0  0  0
  -10.9506   -6.5594   -0.7224 C   0  0  0  0  0  0  0  0  0  0  0  0
  -11.2938   -6.1219   -2.1097 C   0  0  0  0  0  0  0  0  0  0  0  0
  -10.2800   -5.9089   -3.0414 O   0  0  0  0  0  0  0  0  0  0  0  0
   -9.1114   -5.3409   -2.6463 C   0  0  0  0  0  0  0  0  0  0  0  0
   -8.5492   -5.2208   -1.2746 C   0  0  0  0  0  0  0  0  0  0  0  0
   -7.2888   -4.8096   -0.9628 C   0  0  0  0  0  0  0  0  0  0  0  0
   -6.6149   -4.6255   -2.0699 C   0  0  0  0  0  0  0  0  0  0  0  0
   -7.1202   -4.9303   -3.5011 C   0  0  0  0  0  0  0  0  0  0  0  0
   -8.4104   -5.1176   -3.7976 C   0  0  0  0  0  0  0  0  0  0  0  0
   -5.6038   -3.4413   -1.6822 C   0  0  0  0  0  0  0  0  0  0  0  0
   -5.6274   -3.1396   -3.0848 C   0  0  0  0  0  0  0  0  0  0  0  0
   -5.5250   -2.5911   -0.6051 C   0  0  0  0  0  0  0  0  0  0  0  0
   -5.7091   -2.4778    1.1358 C   0  0  0  0  0  0  0  0  0  0  0  0
   -5.0534   -3.9540    1.9892 N   0  0  0  0  0  0  0  0  0  0  0  0
   -5.0414   -5.6046    1.5382 C   0  0  0  0  0  0  0  0  0  0  0  0
   -4.8959   -5.8181    3.0446 C   0  0  0  0  0  0  0  0  0  0  0  0
   -5.5972   -4.3906    3.2253 C   0  0  0  0  0  0  0  0  0  0  0  0
   -5.5914   -7.0371    3.7212 C   0  0  0  0  0  0  0  0  0  0  0  0
   -4.7761   -7.7786    4.5219 O   0  0  0  0  0  0  0  0  0  0  0  0
   -6.7562   -7.3902    3.6170 O   0  0  0  0  0  0  0  0  0  0  0  0
   -4.6461   -3.5452   -0.0828 C   0  0  0  0  0  0  0  0  0  0  0  0
   -6.5155   -4.2765    0.1834 C   0  0  0  0  0  0  0  0  0  0  0  0
  -10.2928   -7.7426   -0.3145 C   0  0  0  0  0  0  0  0  0  0  0  0
   -9.7136   -8.7112   -1.1071 O   0  0  0  0  0  0  0  0  0  0  0  0
   -9.5298   -8.4433   -2.4924 C   0  0  0  0  0  0  0  0  0  0  0  0
  -10.1199   -7.9653    1.0723 C   0  0  0  0  0  0  0  0  0  0  0  0
  1  2  1  0
  2  3  1  0
  3  4  1  0
  4  5  2  0
  4 32  1  0
  5  6  1  0
  6  7  2  0
  7  8  1  0
  7 29  1  0
  8  9  1  0
  9 10  1  0
 10 11  2  0
 10 15  1  0
 11 12  1  0
 12 13  2  0
 12 28  1  0
 13 14  1  0
 13 16  1  0
 14 15  2  0
 16 17  1  0
 16 18  2  0
 18 19  1  0
 18 27  1  0
 19 20  1  0
 20 21  1  0
 20 23  1  0
 21 22  1  0
 22 23  1  0
 22 24  1  0
 24 25  1  0
 24 26  2  0
 27 28  1  0
 29 30  1  0
 29 32  2  0
 30 31  1  0
M  END
>  <DRUGBANK_ID>  (1) 
DB16123

>  <COMMON_NAME>  (1) 
Ceralifimod

>  <CAS_NUMBER>  (1) 
891859-12-4

>  <UNII>  (1) 
BZ2O8A84A4

>  <SYNONYMS>  (1) 
Ceralifimod

$$$$
