
     RDKit          3D

 11 11  0  0  0  0  0  0  0  0999 V2000
    2.2811    0.0071    0.0122 O   0  0  0  0  0  0  0  0  0  0  0  0
    0.9183   -0.0197    0.0129 C   0  0  0  0  0  0  0  0  0  0  0  0
    0.2117   -1.2184    0.0106 C   0  0  0  0  0  0  0  0  0  0  0  0
   -1.1862   -1.1911   -0.0017 C   0  0  0  0  0  0  0  0  0  0  0  0
   -1.8780    0.0313   -0.0120 C   0  0  0  0  0  0  0  0  0  0  0  0
   -1.1423    1.2276    0.0003 C   0  0  0  0  0  0  0  0  0  0  0  0
    0.2526    1.1996    0.0133 C   0  0  0  0  0  0  0  0  0  0  0  0
   -3.3860    0.0795   -0.0404 C   0  0  0  0  0  0  0  0  0  0  0  0
   -3.9079    0.7296    1.0364 F   0  0  0  0  0  0  0  0  0  0  0  0
   -3.8654    0.7290   -1.1375 F   0  0  0  0  0  0  0  0  0  0  0  0
   -3.9709   -1.1511   -0.0520 F   0  0  0  0  0  0  0  0  0  0  0  0
  1  2  1  0
  2  3  2  0
  2  7  1  0
  3  4  1  0
  4  5  2  0
  5  6  1  0
  5  8  1  0
  6  7  2  0
  8  9  1  0
  8 10  1  0
  8 11  1  0
M  END
>  <DRUGBANK_ID>  (1) 
DB03610

>  <SECONDARY_ACCESSION_NUMBERS>  (1) 
EXPT01405

>  <COMMON_NAME>  (1) 
4-(trifluoromethyl)phenol

>  <CAS_NUMBER>  (1) 
402-45-9

>  <UNII>  (1) 
G8PMO13PO4

>  <SYNONYMS>  (1) 
4-hydroxybenzotrifluoride; 4-trifluoromethylphenol; α,α,α-trifluoro-p-cresol

$$$$
