
     RDKit          3D

 26 29  0  0  0  0  0  0  0  0999 V2000
    0.8906    0.0927   -0.1275 C   0  0  0  0  0  0  0  0  0  0  0  0
    1.3321   -0.1972    2.2681 C   0  0  0  0  0  0  0  0  0  0  0  0
    2.0826   -1.3052    2.9397 C   0  0  0  0  0  0  0  0  0  0  0  0
    3.2468   -3.5494    6.7633 C   0  0  0  0  0  0  0  0  0  0  0  0
    4.9654   -4.8454    5.4190 C   0  0  0  0  0  0  0  0  0  0  0  0
    2.9876   -2.6885    5.5382 C   0  0  0  0  0  0  0  0  0  0  0  0
    4.6578   -3.9637    4.2135 C   0  0  0  0  0  0  0  0  0  0  0  0
    1.0431   -5.3754    2.1001 C   0  0  0  0  0  0  0  0  0  0  0  0
   -0.9204   -2.3659   -0.0060 C   0  0  0  0  0  0  0  0  0  0  0  0
    0.3621   -0.5580    1.1553 C   0  0  0  0  0  0  0  0  0  0  0  0
    4.6532   -4.1406    6.7413 C   0  0  0  0  0  0  0  0  0  0  0  0
    1.6591   -2.7099    2.6649 C   0  0  0  0  0  0  0  0  0  0  0  0
    0.4021   -4.3417    1.4148 C   0  0  0  0  0  0  0  0  0  0  0  0
   -1.2872   -3.6158   -0.3381 C   0  0  0  0  0  0  0  0  0  0  0  0
    1.9996   -5.0720    3.0565 C   0  0  0  0  0  0  0  0  0  0  0  0
    0.7013   -2.9888    1.6707 C   0  0  0  0  0  0  0  0  0  0  0  0
    2.3306   -3.7462    3.3778 C   0  0  0  0  0  0  0  0  0  0  0  0
   -0.6057   -4.7096    0.3909 C   0  0  0  0  0  0  0  0  0  0  0  0
   -2.3088   -3.8255   -1.3831 C   0  0  0  0  0  0  0  0  0  0  0  0
    2.5897   -6.0927    3.6968 F   0  0  0  0  0  0  0  0  0  0  0  0
    3.3020   -3.4384    4.3242 N   0  0  0  0  0  0  0  0  0  0  0  0
    0.0528   -1.9863    0.9281 N   0  0  0  0  0  0  0  0  0  0  0  0
    5.6205   -3.1233    7.0102 O   0  0  0  0  0  0  0  0  0  0  0  0
   -0.8402   -5.8965    0.1914 O   0  0  0  0  0  0  0  0  0  0  0  0
   -2.8796   -2.9432   -2.0145 O   0  0  0  0  0  0  0  0  0  0  0  0
   -2.5832   -5.1174   -1.6115 O   0  0  0  0  0  0  0  0  0  0  0  0
  3  2  1  0
  6  4  1  0
  7  5  1  0
 10  1  1  0
 10  2  1  0
 11  4  1  0
 11  5  1  0
 12  3  1  0
 13  8  2  0
 14  9  2  0
 15  8  1  0
 16 12  2  0
 16 13  1  0
 17 12  1  0
 17 15  2  0
 18 13  1  0
 18 14  1  0
 19 14  1  0
 20 15  1  0
 21  6  1  0
 21  7  1  0
 21 17  1  0
 22  9  1  0
 22 10  1  0
 22 16  1  0
 23 11  1  0
 24 18  2  0
 25 19  2  0
 26 19  1  0
M  END
>  <DRUGBANK_ID>  (1) 
DB12447

>  <COMMON_NAME>  (1) 
Nadifloxacin

>  <CAS_NUMBER>  (1) 
124858-35-1

>  <UNII>  (1) 
6CL9Y5YZEQ

>  <SYNONYMS>  (1) 
Nadifloxacin; Nadifloxacino

$$$$
