
     RDKit          3D

 32 32  0  0  1  0  0  0  0  0999 V2000
    1.2785   -0.0506    0.3730 C   0  0  0  0  0  0  0  0  0  0  0  0
    0.3503   -8.7946   -2.0946 C   0  0  0  0  0  0  0  0  0  0  0  0
    0.4102   -1.1371    0.5365 C   0  0  0  0  0  0  0  0  0  0  0  0
    1.2847   -7.5794   -2.0431 C   0  0  0  0  0  0  0  0  0  0  0  0
   -0.5868    1.3920    0.0258 C   0  0  0  0  0  0  0  0  0  0  0  0
    3.2379   -2.1052   -1.3436 C   0  0  0  0  0  0  0  0  0  0  0  0
   -0.8529   -3.9351    0.0976 C   0  0  0  0  0  0  0  0  0  0  0  0
    0.7874    1.2016    0.0676 C   0  0  0  0  0  0  0  0  0  0  0  0
   -0.5240   -8.8788   -3.3636 C   0  0  1  0  0  0  0  0  0  0  0  0
   -0.0706   -4.1247   -1.2125 C   0  0  1  0  0  0  0  0  0  0  0  0
   -1.4613    0.2726    0.0574 C   0  0  0  0  0  0  0  0  0  0  0  0
   -0.9652   -1.0336    0.2765 C   0  0  0  0  0  0  0  0  0  0  0  0
    0.5093   -6.2901   -2.1728 C   0  0  0  0  0  0  0  0  0  0  0  0
    4.0707   -2.0640   -0.0481 C   0  0  0  0  0  0  0  0  0  0  0  0
    0.9194   -3.0120   -1.6616 C   0  0  0  0  0  0  0  0  0  0  0  0
    0.3437   -8.9160   -4.6497 C   0  0  0  0  0  0  0  0  0  0  0  0
   -1.4249  -10.0464   -3.2607 N   0  0  0  0  0  0  0  0  0  0  0  0
    2.2398   -3.1744   -1.2702 N   0  0  0  0  0  0  0  0  0  0  0  0
    0.6547   -5.4027   -1.1400 N   0  0  0  0  0  0  0  0  0  0  0  0
    1.7253    2.2862   -0.2463 N   0  0  0  0  0  0  0  0  0  0  0  0
   -2.8907    0.5729   -0.1814 N   0  0  0  0  0  0  0  0  0  0  0  0
   -0.2106   -6.0446   -3.1295 O   0  0  0  0  0  0  0  0  0  0  0  0
    5.4088   -2.0376   -0.2283 O   0  0  0  0  0  0  0  0  0  0  0  0
    3.5893   -2.0858    1.0760 O   0  0  0  0  0  0  0  0  0  0  0  0
    0.5323   -1.9732   -2.1930 O   0  0  0  0  0  0  0  0  0  0  0  0
    0.1434  -10.0116   -5.4257 O   0  0  0  0  0  0  0  0  0  0  0  0
    1.1663   -8.0795   -4.9596 O   0  0  0  0  0  0  0  0  0  0  0  0
    1.2631    3.4267   -0.3667 O   0  0  0  0  0  0  0  0  0  0  0  0
    2.9199    1.9865   -0.4048 O   0  0  0  0  0  0  0  0  0  0  0  0
   -3.2097    1.7699   -0.2101 O   0  0  0  0  0  0  0  0  0  0  0  0
   -3.7011   -0.3426   -0.3554 O   0  0  0  0  0  0  0  0  0  0  0  0
   -1.9813   -2.5127    0.2378 S   0  0  0  0  0  0  0  0  0  0  0  0
  3  1  2  0
  4  2  1  0
  8  1  1  0
  8  5  2  0
  9  2  1  0
  9 17  1  1
 10  7  1  1
 10 19  1  0
 11  5  1  0
 12  3  1  0
 12 11  2  0
 13  4  1  0
 14  6  1  0
 15 10  1  0
 16  9  1  0
 18  6  1  0
 18 15  1  0
 19 13  1  0
 20  8  1  0
 21 11  1  0
 22 13  2  0
 23 14  1  0
 24 14  2  0
 25 15  2  0
 26 16  1  0
 27 16  2  0
 28 20  1  0
 29 20  2  0
 30 21  1  0
 31 21  2  0
 32  7  1  0
 32 12  1  0
M  CHG  4  20   1  21   1  28  -1  30  -1
M  END
>  <DRUGBANK_ID>  (1) 
DB02458

>  <SECONDARY_ACCESSION_NUMBERS>  (1) 
EXPT01572; DB04412

>  <COMMON_NAME>  (1) 
S-(2,4-dinitrophenyl)glutathione

>  <CAS_NUMBER>  (1) 
26289-39-4

>  <UNII>  (1) 
HL4G8D2C8T

>  <SYNONYMS>  (1) 
dinitrophenyl-S-glutathione; DNP-S-glutathione; DNP-SGc

$$$$
