
     RDKit          3D

 17 18  0  0  0  0  0  0  0  0999 V2000
    1.0242    0.1409    0.1976 C   0  0  0  0  0  0  0  0  0  0  0  0
    0.5067   -0.8736    1.1228 N   0  0  0  0  0  0  0  0  0  0  0  0
   -0.9589   -0.8445    1.1893 C   0  0  0  0  0  0  0  0  0  0  0  0
    0.9953   -2.2243    0.7576 C   0  0  0  0  0  0  0  0  0  0  0  0
    0.5505   -2.7670   -0.5914 C   0  0  0  0  0  0  0  0  0  0  0  0
    0.7474   -4.0899   -0.9149 C   0  0  0  0  0  0  0  0  0  0  0  0
    0.1341   -4.5588   -2.0653 C   0  0  0  0  0  0  0  0  0  0  0  0
   -0.4589   -3.6715   -2.9929 C   0  0  0  0  0  0  0  0  0  0  0  0
   -0.9123   -4.0415   -4.2697 C   0  0  0  0  0  0  0  0  0  0  0  0
   -1.3726   -3.0889   -5.1796 C   0  0  0  0  0  0  0  0  0  0  0  0
   -1.4319   -1.7510   -4.8073 C   0  0  0  0  0  0  0  0  0  0  0  0
   -1.0309   -1.3691   -3.5334 C   0  0  0  0  0  0  0  0  0  0  0  0
   -0.5289   -2.3136   -2.6297 C   0  0  0  0  0  0  0  0  0  0  0  0
   -0.0857   -1.9259   -1.4417 N   0  0  0  0  0  0  0  0  0  0  0  0
   -1.0829   -0.0405   -3.1557 O   0  0  0  0  0  0  0  0  0  0  0  0
   -1.9762   -0.5809   -5.9507 Cl  0  0  0  0  0  0  0  0  0  0  0  0
   -0.8280   -5.6834   -4.8134 Cl  0  0  0  0  0  0  0  0  0  0  0  0
  1  2  1  0
  2  3  1  0
  2  4  1  0
  4  5  1  0
  5  6  2  0
  5 14  1  0
  6  7  1  0
  7  8  2  0
  8  9  1  0
  8 13  1  0
  9 10  2  0
  9 17  1  0
 10 11  1  0
 11 12  2  0
 11 16  1  0
 12 13  1  0
 12 15  1  0
 13 14  2  0
M  END
>  <DRUGBANK_ID>  (1) 
DB05565

>  <COMMON_NAME>  (1) 
PBT-1033

>  <CAS_NUMBER>  (1) 
747408-78-2

>  <UNII>  (1) 
Q7K6GJQ4O4

>  <SYNONYMS>  (1) 
5,7-dichloro-2-(dimethylaminomethyl)quinolin-8-ol; 8-quinolinol, 5,7-dichloro-2-((dimethylamino)methyl)-

$$$$
