
     RDKit          3D

 30 31  0  0  1  0  0  0  0  0999 V2000
    1.1546    0.0020    0.0116 C   0  0  0  0  0  0  0  0  0  0  0  0
    0.5776   -0.3366    1.3824 C   0  0  0  0  0  0  0  0  0  0  0  0
    1.0717    0.6565    2.4288 C   0  0  0  0  0  0  0  0  0  0  0  0
   -0.9618   -0.3714    1.3467 C   0  0  0  0  0  0  0  0  0  0  0  0
   -1.5272   -1.4033    0.3577 C   0  0  0  0  0  0  0  0  0  0  0  0
   -1.0934   -2.8322    0.6794 C   0  0  0  0  0  0  0  0  0  0  0  0
   -1.5570   -3.3052    2.0661 C   0  0  1  0  0  0  0  0  0  0  0  0
   -3.0803   -3.3096    2.1755 C   0  0  0  0  0  0  0  0  0  0  0  0
   -0.9689   -4.6850    2.3999 C   0  0  0  0  0  0  0  0  0  0  0  0
    0.5692   -4.6908    2.4365 C   0  0  0  0  0  0  0  0  0  0  0  0
    1.1465   -3.7227    3.4686 C   0  0  0  0  0  0  0  0  0  0  0  0
    0.7190   -4.0489    4.9017 C   0  0  1  0  0  0  0  0  0  0  0  0
    1.2210   -5.4329    5.2668 C   0  0  0  0  0  0  0  0  0  0  0  0
    1.2266   -2.9767    5.8784 C   0  0  0  0  0  0  0  0  0  0  0  0
    0.5888   -1.6115    5.6078 C   0  0  0  0  0  0  0  0  0  0  0  0
   -0.9488   -1.6045    5.6839 C   0  0  0  0  0  0  0  0  0  0  0  0
   -1.5362   -1.9684    7.0741 C   0  0  2  0  0  0  0  0  0  0  0  0
   -3.0699   -1.8937    6.9673 C   0  0  0  0  0  0  0  0  0  0  0  0
   -0.9400   -0.9763    8.0769 C   0  0  0  0  0  0  0  0  0  0  0  0
   -1.5151   -1.2135    9.4462 C   0  0  0  0  0  0  0  0  0  0  0  0
   -1.4568   -2.6779    9.7686 C   0  0  0  0  0  0  0  0  0  0  0  0
   -1.3006   -3.6554    8.7808 C   0  0  0  0  0  0  0  0  0  0  0  0
   -1.2107   -3.3324    7.4393 O   0  0  0  0  0  0  0  0  0  0  0  0
   -1.2236   -5.0258    9.1434 C   0  0  0  0  0  0  0  0  0  0  0  0
   -0.9307   -6.0751    8.1126 C   0  0  0  0  0  0  0  0  0  0  0  0
   -1.3487   -5.3980   10.5044 C   0  0  0  0  0  0  0  0  0  0  0  0
   -1.2660   -6.8475   10.9156 C   0  0  0  0  0  0  0  0  0  0  0  0
   -1.5554   -4.4062   11.4561 C   0  0  0  0  0  0  0  0  0  0  0  0
   -1.7144   -4.7580   12.7688 O   0  0  0  0  0  0  0  0  0  0  0  0
   -1.6067   -3.0580   11.1061 C   0  0  0  0  0  0  0  0  0  0  0  0
  1  2  1  0
  2  3  1  0
  2  4  1  0
  4  5  1  0
  5  6  1  0
  7  6  1  0
  7  8  1  6
  7  9  1  0
  9 10  1  0
 10 11  1  0
 12 11  1  0
 12 13  1  1
 12 14  1  0
 14 15  1  0
 15 16  1  0
 17 16  1  0
 17 18  1  6
 17 19  1  0
 17 23  1  0
 19 20  1  0
 20 21  1  0
 21 22  2  0
 21 30  1  0
 22 23  1  0
 22 24  1  0
 24 25  1  0
 24 26  2  0
 26 27  1  0
 26 28  1  0
 28 29  1  0
 28 30  2  0
M  END
>  <DRUGBANK_ID>  (1) 
DB15394

>  <COMMON_NAME>  (1) 
gamma-Tocopherol

>  <CAS_NUMBER>  (1) 
54-28-4

>  <UNII>  (1) 
8EF1Z1238F

>  <SYNONYMS>  (1) 
D-gamma-Tocopherol

$$$$
