303
     RDKit          3D

 29 32  0  0  0  0  0  0  0  0999 V2000
    0.9085    0.0158    0.1072 N   0  0  0  0  0  0  0  0  0  0  0  0
    0.2684    0.8557   -0.6343 C   0  0  0  0  0  0  0  0  0  0  0  0
    0.9336    1.7005   -1.4803 N   0  0  0  0  0  0  0  0  0  0  0  0
   -1.2204    0.8789   -0.5593 C   0  0  0  0  0  0  0  0  0  0  0  0
   -1.9439    1.1907   -1.6914 C   0  0  0  0  0  0  0  0  0  0  0  0
   -3.3356    1.3518   -1.6021 C   0  0  0  0  0  0  0  0  0  0  0  0
   -4.0140    1.9878   -2.6164 C   0  0  0  0  0  0  0  0  0  0  0  0
   -5.3979    1.9363   -2.6994 C   0  0  0  0  0  0  0  0  0  0  0  0
   -6.1790    1.3377   -1.7264 C   0  0  0  0  0  0  0  0  0  0  0  0
   -5.5072    0.9730   -0.5463 C   0  0  0  0  0  0  0  0  0  0  0  0
   -4.0754    0.9688   -0.4772 C   0  0  0  0  0  0  0  0  0  0  0  0
   -3.3219    0.6598    0.6647 C   0  0  0  0  0  0  0  0  0  0  0  0
   -1.9109    0.6572    0.6324 C   0  0  0  0  0  0  0  0  0  0  0  0
   -7.6834    1.2397   -1.8576 C   0  0  0  0  0  0  0  0  0  0  0  0
   -8.3476    1.1098   -0.8448 O   0  0  0  0  0  0  0  0  0  0  0  0
   -8.3463    1.4031   -3.0849 N   0  0  0  0  0  0  0  0  0  0  0  0
   -7.8296    1.4406   -4.3958 C   0  0  0  0  0  0  0  0  0  0  0  0
   -6.8382    0.5349   -4.8115 C   0  0  0  0  0  0  0  0  0  0  0  0
   -6.1178    0.7607   -5.9957 C   0  0  0  0  0  0  0  0  0  0  0  0
   -6.5423    1.7859   -6.8575 C   0  0  0  0  0  0  0  0  0  0  0  0
   -7.5415    2.6788   -6.4607 C   0  0  0  0  0  0  0  0  0  0  0  0
   -8.1953    2.5018   -5.2359 C   0  0  0  0  0  0  0  0  0  0  0  0
   -5.9009    1.8558   -8.2156 C   0  0  0  0  0  0  0  0  0  0  0  0
   -5.5508    0.4341   -8.6898 C   0  0  0  0  0  0  0  0  0  0  0  0
   -4.9073   -0.4876   -7.7566 N   0  0  0  0  0  0  0  0  0  0  0  0
   -4.8636   -0.0260   -6.3751 C   0  0  1  0  0  0  0  0  0  0  0  0
   -3.4657    0.6686   -6.1535 C   0  0  0  0  0  0  0  0  0  0  0  0
   -3.3836    2.1931   -6.3524 C   0  0  0  0  0  0  0  0  0  0  0  0
   -3.0234    0.3230   -4.7618 C   0  0  0  0  0  0  0  0  0  0  0  0
  1  2  2  0
  2  3  1  0
  2  4  1  0
  4  5  2  0
  4 13  1  0
  5  6  1  0
  6  7  2  0
  6 11  1  0
  7  8  1  0
  8  9  2  0
  9 10  1  0
  9 14  1  0
 10 11  2  0
 11 12  1  0
 12 13  2  0
 14 15  2  0
 14 16  1  0
 16 17  1  0
 17 18  2  0
 17 22  1  0
 18 19  1  0
 19 20  2  0
 19 26  1  0
 20 21  1  0
 20 23  1  0
 21 22  2  0
 23 24  1  0
 24 25  1  0
 25 26  1  0
 26 27  1  6
 27 28  1  0
 27 29  1  0
M  END
>  <DRUGBANK_ID>  (1) 
DB02705

>  <SECONDARY_ACCESSION_NUMBERS>  (1) 
EXPT00148

>  <COMMON_NAME>  (1) 
6-[N-(1-Isopropyl-1,2,3,4-Tetrahydro-7-Isoquinolinyl)Carbamyl]-2-Naphthalenecarboxamidine

$$$$
