POT
     RDKit          3D

 16 16  0  0  0  0  0  0  0  0999 V2000
    0.9538    0.3613   -0.1614 P   0  0  1  0  0  0  0  0  0  0  0  0
    1.1562    1.1672   -1.7343 C   0  0  0  0  0  0  0  0  0  0  0  0
   -0.1441    0.9423    0.6883 O   0  0  0  0  0  0  0  0  0  0  0  0
    0.8819   -1.2485   -0.1314 O   0  0  0  0  0  0  0  0  0  0  0  0
    1.0438   -2.2685   -1.1205 C   0  0  1  0  0  0  0  0  0  0  0  0
   -0.2418   -2.3444   -1.9765 C   0  0  0  0  0  0  0  0  0  0  0  0
   -0.5883   -1.0157   -2.5710 C   0  0  0  0  0  0  0  0  0  0  0  0
    2.4381   -2.1422   -1.7531 C   0  0  0  0  0  0  0  0  0  0  0  0
    3.5377   -2.6707   -0.9373 O   0  0  0  0  0  0  0  0  0  0  0  0
    2.9767   -1.4771    2.5187 C   0  0  0  0  0  0  0  0  0  0  0  0
    4.1682   -0.7893    2.7600 C   0  0  0  0  0  0  0  0  0  0  0  0
    5.1746   -0.8261    1.7989 C   0  0  0  0  0  0  0  0  0  0  0  0
    4.9804   -1.4791    0.5665 C   0  0  0  0  0  0  0  0  0  0  0  0
    3.7592   -2.1216    0.3028 C   0  0  0  0  0  0  0  0  0  0  0  0
    2.8426   -2.2186    1.3441 C   0  0  0  0  0  0  0  0  0  0  0  0
    2.6998    1.0117    0.5689 Cl  0  0  0  0  0  0  0  0  0  0  0  0
  1  3  2  0
  1 16  1  0
  1  2  1  0
  1  4  1  0
  5  4  1  0
  5  6  1  6
  5  8  1  0
  6  7  1  0
  8  9  1  0
  9 14  1  0
 10 15  2  0
 10 11  1  0
 11 12  2  0
 12 13  1  0
 13 14  2  0
 14 15  1  0
M  END
>  <DRUGBANK_ID>  (1) 
DB08419

>  <COMMON_NAME>  (1) 
(1S)-1-(PHENOXYMETHYL)PROPYL METHYLPHOSPHONOCHLORIDOATE

$$$$
