
     RDKit          3D

  8  8  0  0  0  0  0  0  0  0999 V2000
    1.0254    0.0321    0.0510 N   0  0  0  0  0  0  0  0  0  0  0  0
    0.3452   -1.0968    0.4788 C   0  0  0  0  0  0  0  0  0  0  0  0
   -1.0353   -1.0944    0.3876 N   0  0  0  0  0  0  0  0  0  0  0  0
    0.9858   -2.2534    0.9642 N   0  0  0  0  0  0  0  0  0  0  0  0
    2.1241   -2.3030    1.7184 C   0  0  0  0  0  0  0  0  0  0  0  0
    2.4215   -3.5548    1.9846 N   0  0  0  0  0  0  0  0  0  0  0  0
    1.4134   -4.2536    1.3908 C   0  0  0  0  0  0  0  0  0  0  0  0
    0.4727   -3.4991    0.8126 N   0  0  0  0  0  0  0  0  0  0  0  0
  1  2  1  0
  2  3  2  0
  2  4  1  0
  4  5  1  0
  4  8  1  0
  5  6  2  0
  6  7  1  0
  7  8  2  0
M  CHG  1   3   1
M  END
>  <DRUGBANK_ID>  (1) 
DB02048

>  <SECONDARY_ACCESSION_NUMBERS>  (1) 
EXPT03150

>  <COMMON_NAME>  (1) 
1,2,4-Triazole-Carboxamidine

$$$$
