
     RDKit          3D

 28 30  0  0  0  0  0  0  0  0999 V2000
   -1.4432    0.2748   -0.2162 C   0  0  0  0  0  0  0  0  0  0  0  0
   -1.0396   -1.1576    0.2002 C   0  0  2  0  0  0  0  0  0  0  0  0
    0.3876   -1.4501   -0.2593 C   0  0  0  0  0  0  0  0  0  0  0  0
    1.3642   -0.3960    0.2332 C   0  0  0  0  0  0  0  0  0  0  0  0
    0.9601    1.0188   -0.1912 C   0  0  1  0  0  0  0  0  0  0  0  0
   -0.4626    1.3431    0.2509 C   0  0  0  0  0  0  0  0  0  0  0  0
    1.9326    2.0438    0.4025 C   0  0  0  0  0  0  0  0  0  0  0  0
    3.3610    1.8098   -0.0863 C   0  0  0  0  0  0  0  0  0  0  0  0
    3.4488    1.8804   -1.5581 N   0  0  0  0  0  0  0  0  0  0  0  0
    4.8268    1.5585   -2.0028 C   0  0  0  0  0  0  0  0  0  0  0  0
    5.8722    2.5964   -1.5403 C   0  0  0  0  0  0  0  0  0  0  0  0
    5.4454    3.9464   -1.9226 N   0  0  0  0  0  0  0  0  0  0  0  0
    4.0807    4.3332   -1.5556 C   0  0  0  0  0  0  0  0  0  0  0  0
    3.1077    3.2409   -2.0565 C   0  0  0  0  0  0  0  0  0  0  0  0
    6.2694    4.7754   -2.6539 C   0  0  0  0  0  0  0  0  0  0  0  0
    6.7112    6.0341   -2.1874 C   0  0  0  0  0  0  0  0  0  0  0  0
    7.5992    6.8016   -2.9595 C   0  0  0  0  0  0  0  0  0  0  0  0
    8.0528    6.3310   -4.1944 C   0  0  0  0  0  0  0  0  0  0  0  0
    7.6060    5.1064   -4.6773 C   0  0  0  0  0  0  0  0  0  0  0  0
    6.7199    4.3443   -3.9154 C   0  0  0  0  0  0  0  0  0  0  0  0
    8.1900    8.3431   -2.4383 Cl  0  0  0  0  0  0  0  0  0  0  0  0
    6.2190    6.5957   -0.6135 Cl  0  0  0  0  0  0  0  0  0  0  0  0
   -2.0399   -2.0919   -0.3341 N   0  0  0  0  0  0  0  0  0  0  0  0
   -2.0018   -3.4670   -0.3234 C   0  0  0  0  0  0  0  0  0  0  0  0
   -3.1990   -4.0840   -0.6931 N   0  0  0  0  0  0  0  0  0  0  0  0
   -0.9941   -4.1086   -0.0235 O   0  0  0  0  0  0  0  0  0  0  0  0
   -3.2844   -5.5401   -0.7483 C   0  0  0  0  0  0  0  0  0  0  0  0
   -4.4282   -3.3666   -0.9889 C   0  0  0  0  0  0  0  0  0  0  0  0
  1  2  1  0
  1  6  1  0
  2  3  1  0
  2 23  1  6
  3  4  1  0
  4  5  1  0
  5  6  1  0
  5  7  1  1
  7  8  1  0
  8  9  1  0
  9 10  1  0
  9 14  1  0
 10 11  1  0
 11 12  1  0
 12 13  1  0
 12 15  1  0
 13 14  1  0
 15 16  2  0
 15 20  1  0
 16 17  1  0
 16 22  1  0
 17 18  2  0
 17 21  1  0
 18 19  1  0
 19 20  2  0
 23 24  1  0
 24 25  1  0
 24 26  2  0
 25 27  1  0
 25 28  1  0
M  END
>  <DRUGBANK_ID>  (1) 
DB06016

>  <COMMON_NAME>  (1) 
Cariprazine

>  <CAS_NUMBER>  (1) 
839712-12-8

>  <UNII>  (1) 
F6RJL8B278

>  <SYNONYMS>  (1) 
Cariprazine; trans-N-{4-[2-[4-(2,3-dichlorophenyl)piperazine-1-yl]ethyl]cyclohexyl}-N’,N’-dimethylurea hydrochloride

$$$$
