
     RDKit          3D

 39 43  0  0  0  0  0  0  0  0999 V2000
    1.7861   -0.2740    0.3620 C   0  0  0  0  0  0  0  0  0  0  0  0
    1.0934   -0.3099    1.7509 C   0  0  0  0  0  0  0  0  0  0  0  0
    1.1461    1.0400    2.3662 C   0  0  0  0  0  0  0  0  0  0  0  0
    1.8215    1.0730    3.5480 N   0  0  0  0  0  0  0  0  0  0  0  0
    1.8099    2.3185    3.9153 C   0  0  0  0  0  0  0  0  0  0  0  0
    2.3980    2.8948    5.0716 C   0  0  0  0  0  0  0  0  0  0  0  0
    2.3086    4.2184    5.2723 C   0  0  0  0  0  0  0  0  0  0  0  0
    1.6131    5.0615    4.3179 C   0  0  0  0  0  0  0  0  0  0  0  0
    1.5333    6.7474    4.6452 Cl  0  0  0  0  0  0  0  0  0  0  0  0
    1.0476    4.5201    3.2221 C   0  0  0  0  0  0  0  0  0  0  0  0
    1.1317    3.1344    3.0047 N   0  0  0  0  0  0  0  0  0  0  0  0
    0.6325    2.2998    1.9666 C   0  0  0  0  0  0  0  0  0  0  0  0
   -0.1672    2.8012    0.8060 C   0  0  0  0  0  0  0  0  0  0  0  0
   -0.3314    4.0308    0.6339 O   0  0  0  0  0  0  0  0  0  0  0  0
   -0.7955    2.0449   -0.1925 N   0  0  0  0  0  0  0  0  0  0  0  0
   -0.7161    0.6311   -0.4337 C   0  0  0  0  0  0  0  0  0  0  0  0
   -1.7933   -0.3500   -0.1574 C   0  0  0  0  0  0  0  0  0  0  0  0
   -1.5603   -1.7408    0.0231 C   0  0  0  0  0  0  0  0  0  0  0  0
   -2.6391   -2.6147    0.0080 C   0  0  0  0  0  0  0  0  0  0  0  0
   -3.9320   -2.0967   -0.0944 C   0  0  0  0  0  0  0  0  0  0  0  0
   -4.1222   -0.7153   -0.0235 C   0  0  0  0  0  0  0  0  0  0  0  0
   -3.0639    0.1542   -0.0680 C   0  0  0  0  0  0  0  0  0  0  0  0
   -5.0219   -2.9051   -0.2639 N   0  0  0  0  0  0  0  0  0  0  0  0
   -5.3080   -3.9516    0.6806 C   0  0  0  0  0  0  0  0  0  0  0  0
   -5.2712   -5.2813   -0.0455 C   0  0  0  0  0  0  0  0  0  0  0  0
   -6.1968   -5.2918   -1.2866 C   0  0  0  0  0  0  0  0  0  0  0  0
   -5.9128   -4.0559   -2.1772 C   0  0  0  0  0  0  0  0  0  0  0  0
   -5.9137   -2.7482   -1.3979 C   0  0  0  0  0  0  0  0  0  0  0  0
   -6.0073   -6.6158   -2.0205 C   0  0  0  0  0  0  0  0  0  0  0  0
   -6.1929   -7.8311   -1.3452 C   0  0  0  0  0  0  0  0  0  0  0  0
   -5.7168   -9.0246   -1.8972 C   0  0  0  0  0  0  0  0  0  0  0  0
   -5.1812   -9.0444   -3.1862 C   0  0  0  0  0  0  0  0  0  0  0  0
   -4.6759  -10.2413   -3.6084 O   0  0  0  0  0  0  0  0  0  0  0  0
   -4.0898  -10.2518   -4.9028 C   0  0  0  0  0  0  0  0  0  0  0  0
   -5.0167   -9.9824   -5.8488 F   0  0  0  0  0  0  0  0  0  0  0  0
   -3.0770   -9.3607   -5.0006 F   0  0  0  0  0  0  0  0  0  0  0  0
   -3.5858  -11.4801   -5.1496 F   0  0  0  0  0  0  0  0  0  0  0  0
   -5.1842   -7.8710   -3.9310 C   0  0  0  0  0  0  0  0  0  0  0  0
   -5.5452   -6.6668   -3.3392 C   0  0  0  0  0  0  0  0  0  0  0  0
  1  2  1  0
  2  3  1  0
  3  4  1  0
  3 12  2  0
  4  5  2  0
  5  6  1  0
  5 11  1  0
  6  7  2  0
  7  8  1  0
  8  9  1  0
  8 10  2  0
 10 11  1  0
 11 12  1  0
 12 13  1  0
 13 14  2  0
 13 15  1  0
 15 16  1  0
 16 17  1  0
 17 18  2  0
 17 22  1  0
 18 19  1  0
 19 20  2  0
 20 21  1  0
 20 23  1  0
 21 22  2  0
 23 24  1  0
 23 28  1  0
 24 25  1  0
 25 26  1  0
 26 27  1  0
 26 29  1  0
 27 28  1  0
 29 30  2  0
 29 39  1  0
 30 31  1  0
 31 32  2  0
 32 33  1  0
 32 38  1  0
 33 34  1  0
 34 35  1  0
 34 36  1  0
 34 37  1  0
 38 39  2  0
M  END
>  <DRUGBANK_ID>  (1) 
DB17754

>  <COMMON_NAME>  (1) 
Telacebec

>  <CAS_NUMBER>  (1) 
1334719-95-7

>  <UNII>  (1) 
55G92WGH3X

>  <SYNONYMS>  (1) 
6-chloro-2-ethyl-n-((4-(4-(4-(trifluoromethoxy)phenyl)-1-piperdinyl)phenyl)methyl)-imidazo(1,2-a)pyridine-3-carboxamide; Imidazo(1,2-a)pyridine-3-carboxamide, 6-chloro-2-ethyl-n-((4-(4-(4-(trifluoromethoxy)phenyl)-1-piperidinyl)phenyl)methyl)-

$$$$
