4MD
     RDKit          3D

 23 24  0  0  0  0  0  0  0  0999 V2000
    1.6915    1.2124   -0.0744 C   0  0  0  0  0  0  0  0  0  0  0  0
    0.2970    1.2063   -0.0584 C   0  0  0  0  0  0  0  0  0  0  0  0
   -0.3879   -0.0071   -0.0464 C   0  0  0  0  0  0  0  0  0  0  0  0
   -2.1080   -0.0128   -0.0009 Cl  0  0  0  0  0  0  0  0  0  0  0  0
    0.3071   -1.2154   -0.0602 C   0  0  0  0  0  0  0  0  0  0  0  0
    1.7018   -1.2119   -0.0737 C   0  0  0  0  0  0  0  0  0  0  0  0
    2.4038    0.0023   -0.0679 C   0  0  0  0  0  0  0  0  0  0  0  0
    3.9036    0.0086    0.0857 C   0  0  0  0  0  0  0  0  0  0  0  0
    4.3948   -0.6064    1.3701 N   0  0  0  0  0  0  0  0  0  0  0  0
    5.8788   -0.6606    1.3393 C   0  0  0  0  0  0  0  0  0  0  0  0
    3.7637    0.2082    2.7515 S   0  0  0  0  0  0  0  0  0  0  0  0
    4.3843    1.5123    2.7735 O   0  0  0  0  0  0  0  0  0  0  0  0
    2.3207    0.0653    2.7935 O   0  0  0  0  0  0  0  0  0  0  0  0
    4.3184   -0.6876    4.1835 C   0  0  0  0  0  0  0  0  0  0  0  0
    4.6089    0.0530    5.3361 C   0  0  0  0  0  0  0  0  0  0  0  0
    4.8062   -0.5997    6.5545 C   0  0  0  0  0  0  0  0  0  0  0  0
    4.2514   -2.0825    4.2268 C   0  0  0  0  0  0  0  0  0  0  0  0
    4.4124   -2.7326    5.4560 C   0  0  0  0  0  0  0  0  0  0  0  0
    4.7118   -1.9926    6.6111 C   0  0  0  0  0  0  0  0  0  0  0  0
    5.0095   -2.8853    8.1159 S   0  0  0  0  0  0  0  0  0  0  0  0
    3.7619   -3.4699    8.5556 O   0  0  0  0  0  0  0  0  0  0  0  0
    6.2072   -3.6645    7.9290 O   0  0  0  0  0  0  0  0  0  0  0  0
    5.3809   -1.7102    9.2682 N   0  0  0  0  0  0  0  0  0  0  0  0
  1  2  2  0
  1  7  1  0
  2  3  1  0
  3  4  1  0
  3  5  2  0
  5  6  1  0
  6  7  2  0
  7  8  1  0
  8  9  1  0
  9 10  1  0
  9 11  1  0
 11 12  2  0
 11 13  2  0
 11 14  1  0
 14 15  2  0
 14 17  1  0
 15 16  1  0
 16 19  2  0
 17 18  2  0
 18 19  1  0
 19 20  1  0
 20 21  2  0
 20 22  2  0
 20 23  1  0
M  END
>  <DRUGBANK_ID>  (1) 
DB07115

>  <COMMON_NAME>  (1) 
N-(4-chlorobenzyl)-N-methylbenzene-1,4-disulfonamide

$$$$
