
     RDKit          3D

 10 11  0  0  0  0  0  0  0  0999 V2000
   -3.1122   -0.4749    0.0056 S   0  0  0  0  0  0  0  0  0  0  0  0
   -1.4802   -0.1905    0.0079 C   0  0  0  0  0  0  0  0  0  0  0  0
   -0.5276   -1.1875    0.0041 N   0  0  0  0  0  0  0  0  0  0  0  0
    0.7973   -0.7473    0.0004 C   0  0  0  0  0  0  0  0  0  0  0  0
    1.9123   -1.5655   -0.0156 C   0  0  0  0  0  0  0  0  0  0  0  0
    3.1704   -0.9552   -0.0161 C   0  0  0  0  0  0  0  0  0  0  0  0
    3.2885    0.4452    0.0053 C   0  0  0  0  0  0  0  0  0  0  0  0
    2.1503    1.2558    0.0201 C   0  0  0  0  0  0  0  0  0  0  0  0
    0.9105    0.6424    0.0127 C   0  0  0  0  0  0  0  0  0  0  0  0
   -0.6941    1.3934    0.0146 S   0  0  0  0  0  0  0  0  0  0  0  0
  1  2  2  0
  2  3  1  0
  2 10  1  0
  3  4  1  0
  4  5  2  0
  4  9  1  0
  5  6  1  0
  6  7  2  0
  7  8  1  0
  8  9  2  0
  9 10  1  0
M  END
>  <DRUGBANK_ID>  (1) 
DB11496

>  <COMMON_NAME>  (1) 
2-mercaptobenzothiazole

>  <CAS_NUMBER>  (1) 
149-30-4

>  <UNII>  (1) 
5RLR54Z22K

>  <SYNONYMS>  (1) 
1,3-Benzothiazol-2-yl hydrosulfide; 1,3-Benzothiazol-2-yl hydrosulphide; 1,3-benzothiazole-2-thiol; 2-Benzothiazolethiol; 2-MBT; 2-Sulfanyl-1,3-benzothiazole; 2-Sulphanyl-1,3-benzothiazole; Benzothiazole-2-thiol; Benzothiazolethiol; Benzothiazolyl mercaptan; MBT; Mercaptobenzothiazole

$$$$
