MAJ
     RDKit          3D

 13 14  0  0  0  0  0  0  0  0999 V2000
   -0.9682   -1.4322   -0.0107 C   0  0  0  0  0  0  0  0  0  0  0  0
   -2.1739   -0.7212   -0.0988 C   0  0  0  0  0  0  0  0  0  0  0  0
   -2.1770    0.6875   -0.0800 C   0  0  0  0  0  0  0  0  0  0  0  0
   -0.9697    1.3973   -0.0023 C   0  0  0  0  0  0  0  0  0  0  0  0
    0.2214   -0.7129    0.0470 C   0  0  0  0  0  0  0  0  0  0  0  0
    0.2209    0.6872    0.0462 C   0  0  0  0  0  0  0  0  0  0  0  0
    1.6208    1.2243    0.1274 C   0  0  0  0  0  0  0  0  0  0  0  0
    2.4384   -0.0077   -0.2907 C   0  0  0  0  0  0  0  0  0  0  0  0
    1.6240   -1.2376    0.1428 C   0  0  0  0  0  0  0  0  0  0  0  0
   -3.7248   -1.5951   -0.1374 S   0  0  0  0  0  0  0  0  0  0  0  0
   -4.5784   -1.0623    0.8950 O   0  0  0  0  0  0  0  0  0  0  0  0
   -3.4658   -3.0144   -0.2611 O   0  0  0  0  0  0  0  0  0  0  0  0
   -4.4320   -1.1310   -1.5988 N   0  0  0  0  0  0  0  0  0  0  0  0
  1  2  2  0
  2 10  1  0
  3  2  1  0
  4  3  2  0
  5  1  1  0
  6  4  1  0
  6  5  2  0
  7  8  1  0
  7  6  1  0
  8  9  1  0
  9  5  1  0
 10 11  2  0
 10 13  1  0
 12 10  2  0
M  END
>  <DRUGBANK_ID>  (1) 
DB08165

>  <COMMON_NAME>  (1) 
indane-5-sulfonamide

>  <UNII>  (1) 
XJL3C99615

$$$$
