
     RDKit          3D

 33 37  0  0  0  0  0  0  0  0999 V2000
    0.8996   -0.1677   -0.3105 C   0  0  0  0  0  0  0  0  0  0  0  0
    3.0186    0.8231    1.5001 C   0  0  0  0  0  0  0  0  0  0  0  0
    0.9623    6.6682    0.0785 C   0  0  0  0  0  0  0  0  0  0  0  0
    0.9693    7.3918   -1.2267 C   0  0  0  0  0  0  0  0  0  0  0  0
   -0.4185    5.9507    0.0738 C   0  0  0  0  0  0  0  0  0  0  0  0
    0.2252    6.4379   -2.1877 C   0  0  0  0  0  0  0  0  0  0  0  0
   -6.0923   -0.8053   -3.8107 C   0  0  0  0  0  0  0  0  0  0  0  0
   -5.3646    0.2961   -3.3460 C   0  0  0  0  0  0  0  0  0  0  0  0
   -8.4644   -3.8824   -4.8579 C   0  0  0  0  0  0  0  0  0  0  0  0
   -6.4904   -4.5888   -6.0419 C   0  0  0  0  0  0  0  0  0  0  0  0
   -8.2613   -2.4293   -5.3510 C   0  0  0  0  0  0  0  0  0  0  0  0
   -6.2510   -3.1484   -6.5773 C   0  0  0  0  0  0  0  0  0  0  0  0
   -5.5242   -0.1509   -5.9869 C   0  0  0  0  0  0  0  0  0  0  0  0
   -1.4577    0.5996   -1.8373 C   0  0  0  0  0  0  0  0  0  0  0  0
    0.5647    1.2502   -0.5648 C   0  0  0  0  0  0  0  0  0  0  0  0
    2.5320    2.1111    0.9272 C   0  0  0  0  0  0  0  0  0  0  0  0
   -0.5507    5.3686   -1.3473 C   0  0  0  0  0  0  0  0  0  0  0  0
   -6.1771   -1.0805   -5.1717 C   0  0  0  0  0  0  0  0  0  0  0  0
   -0.6092    1.5815   -1.3896 C   0  0  0  0  0  0  0  0  0  0  0  0
   -4.7454    1.1759   -4.2344 C   0  0  0  0  0  0  0  0  0  0  0  0
    1.3364    2.2207   -0.0579 C   0  0  0  0  0  0  0  0  0  0  0  0
   -0.9580    2.8760   -1.7702 C   0  0  0  0  0  0  0  0  0  0  0  0
    0.9301    3.5777   -0.4155 C   0  0  0  0  0  0  0  0  0  0  0  0
   -2.8367    2.0784   -2.9163 C   0  0  0  0  0  0  0  0  0  0  0  0
   -7.9185   -4.9004   -5.7874 N   0  0  0  0  0  0  0  0  0  0  0  0
   -4.8558    0.9802   -5.5672 N   0  0  0  0  0  0  0  0  0  0  0  0
   -2.5379    0.8194   -2.5815 N   0  0  0  0  0  0  0  0  0  0  0  0
   -4.0007    2.2494   -3.6852 N   0  0  0  0  0  0  0  0  0  0  0  0
   -2.0746    3.1341   -2.5246 N   0  0  0  0  0  0  0  0  0  0  0  0
   -6.8395   -2.1944   -5.6328 N   0  0  0  0  0  0  0  0  0  0  0  0
   -0.0836    3.9289   -1.3059 N   0  0  0  0  0  0  0  0  0  0  0  0
    3.1970    3.0870    1.3014 O   0  0  0  0  0  0  0  0  0  0  0  0
    1.5285    4.3760    0.3061 O   0  0  0  0  0  0  0  0  0  0  0  0
  4  3  1  0
  5  3  1  0
  6  4  1  0
  8  7  2  0
 11  9  1  0
 12 10  1  0
 15  1  1  0
 16  2  1  0
 17  5  1  0
 17  6  1  0
 18  7  1  0
 18 13  2  0
 19 14  2  0
 19 15  1  0
 20  8  1  0
 21 15  2  0
 21 16  1  0
 22 19  1  0
 23 21  1  0
 25  9  1  0
 25 10  1  0
 26 13  1  0
 26 20  2  0
 27 14  1  0
 27 24  2  0
 28 20  1  0
 28 24  1  0
 29 22  2  0
 29 24  1  0
 30 11  1  0
 30 12  1  0
 30 18  1  0
 31 17  1  0
 31 22  1  0
 31 23  1  0
 32 16  2  0
 33 23  2  0
M  END
>  <DRUGBANK_ID>  (1) 
DB09073

>  <COMMON_NAME>  (1) 
Palbociclib

>  <CAS_NUMBER>  (1) 
571190-30-2

>  <UNII>  (1) 
G9ZF61LE7G

>  <SYNONYMS>  (1) 
6-acetyl-8-cyclopentyl-5-methyl-2-{[5-(piperazin-1-yl)pyridin-2-yl]amino}pyrido[2,3-d]pyrimidin-7(8H)-one; Palbociclib

$$$$
