
     RDKit          3D

  5  5  0  0  0  0  0  0  0  0999 V2000
    0.7243   -0.8964    0.0040 C   0  0  0  0  0  0  0  0  0  0  0  0
    0.0157    1.0746    0.0022 C   0  0  0  0  0  0  0  0  0  0  0  0
    1.1666    0.3391    0.0052 N   0  0  0  0  0  0  0  0  0  0  0  0
   -0.6346   -0.8923   -0.0015 N   0  0  0  0  0  0  0  0  0  0  0  0
   -1.1140    0.3621   -0.0020 N   0  0  0  0  0  0  0  0  0  0  0  0
  3  1  2  0
  3  2  1  0
  4  1  1  0
  5  2  2  0
  5  4  1  0
M  END
>  <DRUGBANK_ID>  (1) 
DB03594

>  <SECONDARY_ACCESSION_NUMBERS>  (1) 
EXPT03109

>  <COMMON_NAME>  (1) 
1,2,4-Triazole

>  <CAS_NUMBER>  (1) 
63598-71-0

>  <UNII>  (1) 
10MS0Y1RDI

$$$$
