
     RDKit          3D

 22 22  0  0  0  0  0  0  0  0999 V2000
    1.0190    0.1546   -0.0419 C   0  0  0  0  0  0  0  0  0  0  0  0
    0.5861   -1.2522   -0.4216 C   0  0  0  0  0  0  0  0  0  0  0  0
    1.0811   -2.2644    0.6125 C   0  0  0  0  0  0  0  0  0  0  0  0
    0.5174   -1.9667    2.0062 C   0  0  0  0  0  0  0  0  0  0  0  0
   -1.0150   -1.9945    1.9944 C   0  0  0  0  0  0  0  0  0  0  0  0
   -1.5172   -3.3821    1.5850 C   0  0  0  0  0  0  0  0  0  0  0  0
   -1.0145   -4.4327    2.5798 C   0  0  0  0  0  0  0  0  0  0  0  0
   -1.5302   -4.1043    3.9845 C   0  0  0  0  0  0  0  0  0  0  0  0
   -3.0618   -4.1055    3.9824 C   0  0  0  0  0  0  0  0  0  0  0  0
   -3.5723   -5.4865    3.5583 C   0  0  0  0  0  0  0  0  0  0  0  0
   -3.0607   -6.5493    4.5362 C   0  0  0  0  0  0  0  0  0  0  0  0
   -3.5582   -6.2345    5.9470 C   0  0  0  0  0  0  0  0  0  0  0  0
   -5.0863   -6.2194    5.9685 C   0  0  0  0  0  0  0  0  0  0  0  0
   -5.6485   -7.5882    5.5723 C   0  0  0  0  0  0  0  0  0  0  0  0
   -5.1889   -8.6775    6.5463 C   0  0  0  0  0  0  0  0  0  0  0  0
   -5.6451   -8.3863    7.9789 C   0  0  0  0  0  0  0  0  0  0  0  0
   -7.1275   -8.3594    8.0006 N   0  0  0  0  0  0  0  0  0  0  0  0
   -7.7892   -9.5436    7.9521 C   0  0  0  0  0  0  0  0  0  0  0  0
   -9.1561   -9.5705    7.7328 C   0  0  0  0  0  0  0  0  0  0  0  0
   -9.8605   -8.3803    7.6484 C   0  0  0  0  0  0  0  0  0  0  0  0
   -9.1869   -7.1739    7.8040 C   0  0  0  0  0  0  0  0  0  0  0  0
   -7.8063   -7.1922    7.9618 C   0  0  0  0  0  0  0  0  0  0  0  0
  1  2  1  0
  2  3  1  0
  3  4  1  0
  4  5  1  0
  5  6  1  0
  6  7  1  0
  7  8  1  0
  8  9  1  0
  9 10  1  0
 10 11  1  0
 11 12  1  0
 12 13  1  0
 13 14  1  0
 14 15  1  0
 15 16  1  0
 16 17  1  0
 17 18  2  0
 17 22  1  0
 18 19  1  0
 19 20  2  0
 20 21  1  0
 21 22  2  0
M  CHG  1  17   1
M  END
>  <DRUGBANK_ID>  (1) 
DB11073

>  <SECONDARY_ACCESSION_NUMBERS>  (1) 
DB05748

>  <COMMON_NAME>  (1) 
Cetylpyridinium

>  <CAS_NUMBER>  (1) 
7773-52-6

>  <UNII>  (1) 
CUB7JI0JV3

>  <SYNONYMS>  (1) 
1-hexadecylpyridinium

$$$$
