
     RDKit          3D

 23 24  0  0  0  0  0  0  0  0999 V2000
    1.1573    0.8994   -0.1210 C   0  0  1  0  0  0  0  0  0  0  0  0
   -0.2300    0.1854    0.0368 C   0  0  2  0  0  0  0  0  0  0  0  0
   -0.1404   -1.2185   -0.4414 C   0  0  1  0  0  0  0  0  0  0  0  0
    1.3049   -1.4591   -0.2097 C   0  0  2  0  0  0  0  0  0  0  0  0
    1.9240   -0.2113   -0.6600 O   0  0  0  0  0  0  0  0  0  0  0  0
   -1.2570    3.5052    1.8357 C   0  0  2  0  0  0  0  0  0  0  0  0
    0.2156    3.8385    1.5802 C   0  0  1  0  0  0  0  0  0  0  0  0
    0.5990    4.2723    0.1512 C   0  0  2  0  0  0  0  0  0  0  0  0
    0.1280    3.1846   -0.8394 C   0  0  2  0  0  0  0  0  0  0  0  0
   -1.2942    2.9771   -0.6558 O   0  0  0  0  0  0  0  0  0  0  0  0
   -1.7225    2.6279    0.6828 C   0  0  2  0  0  0  0  0  0  0  0  0
    0.9861    2.0027   -1.0606 O   0  0  0  0  0  0  0  0  0  0  0  0
    1.9894    4.5636    0.0011 O   0  0  0  0  0  0  0  0  0  0  0  0
    0.8922    4.4712    2.6394 O   0  0  0  0  0  0  0  0  0  0  0  0
   -2.2594    4.9001    2.1657 Cl  0  0  0  0  0  0  0  0  0  0  0  0
   -3.0460    1.8228    0.7788 C   0  0  0  0  0  0  0  0  0  0  0  0
    2.0313    1.3679    1.1158 C   0  0  0  0  0  0  0  0  0  0  0  0
   -1.0602   -2.0882    0.2041 O   0  0  0  0  0  0  0  0  0  0  0  0
    1.7434   -2.5622   -1.1389 C   0  0  0  0  0  0  0  0  0  0  0  0
   -1.2671    0.5931   -0.8716 O   0  0  0  0  0  0  0  0  0  0  0  0
    2.2153   -4.0104   -0.2443 Cl  0  0  0  0  0  0  0  0  0  0  0  0
    3.6892    0.7284    1.3442 Cl  0  0  0  0  0  0  0  0  0  0  0  0
   -3.5564    1.7996    2.1030 O   0  0  0  0  0  0  0  0  0  0  0  0
  1  2  1  0
  1 17  1  1
  1 12  1  0
  2  3  1  0
  2 20  1  6
  3  4  1  0
  3 18  1  1
  4  5  1  0
  4 19  1  6
  5  1  1  0
  6  7  1  0
  6 15  1  6
  7 14  1  1
  7  8  1  0
  8  9  1  0
  8 13  1  1
  9 12  1  1
  9 10  1  0
 10 11  1  0
 11  6  1  0
 11 16  1  6
 16 23  1  0
 17 22  1  0
 19 21  1  0
M  END
>  <DRUGBANK_ID>  (1) 
DB15049

>  <COMMON_NAME>  (1) 
Sucralose

>  <CAS_NUMBER>  (1) 
56038-13-2

>  <UNII>  (1) 
96K6UQ3ZD4

>  <SYNONYMS>  (1) 
Sucralose; Trichlorosucrose

$$$$
