
     RDKit          3D

  7  6  0  0  0  0  0  0  0  0999 V2000
    1.0307   -0.0693    0.0652 Co  0  0  0  0  0  6  0  0  0  0  0  0
    1.0307    1.4359   -1.2057 N   0  0  0  0  0  0  0  0  0  0  0  0
    1.0307   -1.3402   -1.4400 N   0  0  0  0  0  0  0  0  0  0  0  0
   -0.9393   -0.0693    0.0652 N   0  0  0  0  0  0  0  0  0  0  0  0
    1.0307   -1.5745    1.3361 N   0  0  0  0  0  0  0  0  0  0  0  0
    1.0307    1.2016    1.5705 N   0  0  0  0  0  0  0  0  0  0  0  0
    3.0007   -0.0693    0.0652 N   0  0  0  0  0  0  0  0  0  0  0  0
  1  2  1  0
  1  3  1  0
  1  4  1  0
  1  5  1  0
  1  6  1  0
  1  7  1  0
M  CHG  7   1  -3   2   1   3   1   4   1   5   1   6   1   7   1
M  END
>  <DRUGBANK_ID>  (1) 
DB03350

>  <SECONDARY_ACCESSION_NUMBERS>  (1) 
EXPT02313

>  <COMMON_NAME>  (1) 
Cobalt hexammine ion

>  <SYNONYMS>  (1) 
Cobalt Hexammine(III); hexaamminecobalt(3+)

$$$$
