
     RDKit          3D

 25 28  0  0  0  0  0  0  0  0999 V2000
    0.8549    0.0074    0.0103 C   0  0  0  0  0  0  0  0  0  0  0  0
    0.2667   -1.3482   -0.1330 C   0  0  0  0  0  0  0  0  0  0  0  0
    0.5676   -2.4813    0.6097 C   0  0  0  0  0  0  0  0  0  0  0  0
   -0.0825   -3.5497   -0.0211 C   0  0  0  0  0  0  0  0  0  0  0  0
    0.2392   -4.8948   -0.0108 O   0  0  0  0  0  0  0  0  0  0  0  0
    1.5711   -5.3259    0.5144 C   0  0  0  0  0  0  0  0  0  0  0  0
    3.0078   -4.8539   -0.1222 C   0  0  0  0  0  0  0  0  0  0  0  0
    2.8419   -3.5273   -0.6579 N   0  0  0  0  0  0  0  0  0  0  0  0
    1.9587   -3.6737   -1.8091 C   0  0  0  0  0  0  0  0  0  0  0  0
    2.5676   -3.8542   -3.1429 C   0  0  0  0  0  0  0  0  0  0  0  0
    3.2285   -2.6368   -3.4290 O   0  0  0  0  0  0  0  0  0  0  0  0
    4.2381   -2.3812   -2.4307 C   0  0  0  0  0  0  0  0  0  0  0  0
    3.7755   -2.4523   -0.9497 C   0  0  0  0  0  0  0  0  0  0  0  0
   -0.9543   -3.1019   -0.9533 N   0  0  0  0  0  0  0  0  0  0  0  0
   -0.6915   -1.7393   -1.0599 N   0  0  0  0  0  0  0  0  0  0  0  0
   -1.4148   -0.8728   -1.9509 C   0  0  0  0  0  0  0  0  0  0  0  0
   -0.8024    0.0843   -2.7748 C   0  0  0  0  0  0  0  0  0  0  0  0
   -1.5791    1.0064   -3.5097 C   0  0  0  0  0  0  0  0  0  0  0  0
   -2.9884    0.9705   -3.4267 C   0  0  0  0  0  0  0  0  0  0  0  0
   -3.7906    1.8592   -4.1820 C   0  0  0  0  0  0  0  0  0  0  0  0
   -5.1862    1.8007   -4.0829 C   0  0  0  0  0  0  0  0  0  0  0  0
   -5.7848    0.8895   -3.2273 C   0  0  0  0  0  0  0  0  0  0  0  0
   -5.0013    0.0104   -2.4714 C   0  0  0  0  0  0  0  0  0  0  0  0
   -3.5961    0.0297   -2.5891 C   0  0  0  0  0  0  0  0  0  0  0  0
   -2.8126   -0.8994   -1.8627 C   0  0  0  0  0  0  0  0  0  0  0  0
  1  2  1  0
  2  3  2  0
  2 15  1  0
  3  4  1  0
  4  5  1  0
  5  6  1  0
  6  7  1  0
  7  8  1  0
  8  9  1  0
  8 13  1  0
  9 10  1  0
 10 11  1  0
 12 11  1  0
 13 12  1  0
 14  4  2  0
 15 14  1  0
 15 16  1  0
 16 17  2  0
 16 25  1  0
 17 18  1  0
 18 19  2  0
 19 20  1  0
 20 21  2  0
 22 21  1  0
 23 22  2  0
 24 23  1  0
 24 19  1  0
 25 24  2  0
M  END
>  <DRUGBANK_ID>  (1) 
DB16881

>  <COMMON_NAME>  (1) 
E-52862

>  <CAS_NUMBER>  (1) 
878141-96-9

>  <UNII>  (1) 
ZW18DSD1H4

$$$$
