
     RDKit          3D

  8  8  0  0  1  0  0  0  0  0999 V2000
    0.8337    1.3531   -0.2294 C   0  0  0  0  0  0  0  0  0  0  0  0
   -0.7597   -1.3539    0.2460 C   0  0  0  0  0  0  0  0  0  0  0  0
    1.4481    0.0149    0.2215 C   0  0  2  0  0  0  0  0  0  0  0  0
    0.6885   -1.2387   -0.2579 C   0  0  2  0  0  0  0  0  0  0  0  0
    1.5961   -0.0391    1.6453 O   0  0  0  0  0  0  0  0  0  0  0  0
    0.7515   -1.3285   -1.6883 O   0  0  0  0  0  0  0  0  0  0  0  0
   -0.8555    1.6042    0.4003 S   0  0  0  0  0  0  0  0  0  0  0  0
   -1.7973   -0.0162   -0.4246 S   0  0  0  0  0  0  0  0  0  0  0  0
  3  1  1  0
  3  5  1  1
  4  2  1  0
  4  3  1  0
  4  6  1  6
  7  1  1  0
  8  2  1  0
  8  7  1  0
M  END
>  <DRUGBANK_ID>  (1) 
DB02693

>  <SECONDARY_ACCESSION_NUMBERS>  (1) 
EXPT01093

>  <COMMON_NAME>  (1) 
(4S,5S)-1,2-dithiane-4,5-diol

>  <UNII>  (1) 
8T052MD8AP

>  <SYNONYMS>  (1) 
oxidized dithiothreitol

$$$$
