
     RDKit          3D

 32 36  0  0  1  0  0  0  0  0999 V2000
    0.8726   -0.3718    0.4783 C   0  0  0  0  0  0  0  0  0  0  0  0
    0.5367    0.9214    1.0904 C   0  0  0  0  0  0  0  0  0  0  0  0
    1.0434    2.1139    0.6938 C   0  0  0  0  0  0  0  0  0  0  0  0
    0.7400    3.3453    1.6064 C   0  0  2  0  0  0  0  0  0  0  0  0
   -0.3701    3.0580    2.5736 N   0  0  0  0  0  0  0  0  0  0  0  0
   -0.8976    1.8088    2.7624 C   0  0  0  0  0  0  0  0  0  0  0  0
   -1.9292    1.9073    3.6489 C   0  0  0  0  0  0  0  0  0  0  0  0
   -1.9285    3.2685    3.9986 C   0  0  0  0  0  0  0  0  0  0  0  0
   -0.9710    3.9766    3.3768 N   0  0  0  0  0  0  0  0  0  0  0  0
   -0.3812    0.7761    2.1015 N   0  0  0  0  0  0  0  0  0  0  0  0
    0.4338    4.6130    0.8289 C   0  0  0  0  0  0  0  0  0  0  0  0
   -0.6771    4.6538   -0.0218 C   0  0  0  0  0  0  0  0  0  0  0  0
   -0.9533    5.7976   -0.7624 C   0  0  0  0  0  0  0  0  0  0  0  0
   -0.1181    6.9142   -0.6714 C   0  0  0  0  0  0  0  0  0  0  0  0
    1.0075    6.8821    0.1588 C   0  0  0  0  0  0  0  0  0  0  0  0
    1.2770    5.7377    0.9157 C   0  0  0  0  0  0  0  0  0  0  0  0
    2.1092    8.2096    0.2733 Cl  0  0  0  0  0  0  0  0  0  0  0  0
   -0.5413    8.2997   -1.6119 Cl  0  0  0  0  0  0  0  0  0  0  0  0
    2.0138    2.2900   -0.4847 C   0  0  0  0  0  0  0  0  0  0  0  0
    2.7520    3.2648   -0.4937 O   0  0  0  0  0  0  0  0  0  0  0  0
    2.1295    1.2911   -1.4596 N   0  0  0  0  0  0  0  0  0  0  0  0
    1.0876    0.6537   -2.2565 C   0  0  0  0  0  0  0  0  0  0  0  0
    1.5608   -0.8058   -2.3799 C   0  0  0  0  0  0  0  0  0  0  0  0
    3.0726   -0.6712   -2.4950 C   0  0  0  0  0  0  0  0  0  0  0  0
    3.4211    0.6632   -1.7767 C   0  0  1  0  0  0  0  0  0  0  0  0
    4.2961    1.5002   -2.6736 C   0  0  0  0  0  0  0  0  0  0  0  0
    3.8202    1.9577   -3.9150 C   0  0  0  0  0  0  0  0  0  0  0  0
    4.6188    2.7343   -4.7405 C   0  0  0  0  0  0  0  0  0  0  0  0
    5.9016    3.0541   -4.3267 C   0  0  0  0  0  0  0  0  0  0  0  0
    6.4057    2.5937   -3.1144 C   0  0  0  0  0  0  0  0  0  0  0  0
    5.6070    1.8066   -2.2880 C   0  0  0  0  0  0  0  0  0  0  0  0
    6.6676    3.8194   -5.1129 F   0  0  0  0  0  0  0  0  0  0  0  0
  1  2  1  0
  2  3  2  0
  2 10  1  0
  3  4  1  0
  3 19  1  0
  4  5  1  0
  4 11  1  6
  5  6  1  0
  5  9  1  0
  6  7  2  0
  6 10  1  0
  7  8  1  0
  8  9  2  0
 11 12  2  0
 11 16  1  0
 12 13  1  0
 13 14  2  0
 14 15  1  0
 14 18  1  0
 15 16  2  0
 15 17  1  0
 19 20  2  0
 19 21  1  0
 21 22  1  0
 21 25  1  0
 22 23  1  0
 23 24  1  0
 24 25  1  0
 25 26  1  6
 26 27  2  0
 26 31  1  0
 27 28  1  0
 28 29  2  0
 29 30  1  0
 29 32  1  0
 30 31  2  0
M  END
>  <DRUGBANK_ID>  (1) 
DB12067

>  <COMMON_NAME>  (1) 
BMS-394136

>  <CAS_NUMBER>  (1) 
343246-73-1

>  <UNII>  (1) 
M694U7167K

$$$$
