
     RDKit          3D

  8  8  0  0  0  0  0  0  0  0999 V2000
    0.9494    0.0217    0.0038 N   0  0  0  0  0  0  0  0  0  0  0  0
    0.4715    0.5019    1.2933 C   0  0  0  0  0  0  0  0  0  0  0  0
    0.9169    1.9139    1.5742 C   0  0  0  0  0  0  0  0  0  0  0  0
    0.2976    2.9899    0.9236 C   0  0  0  0  0  0  0  0  0  0  0  0
    0.6490    4.3046    1.2306 C   0  0  0  0  0  0  0  0  0  0  0  0
    1.6172    4.5557    2.2020 C   0  0  0  0  0  0  0  0  0  0  0  0
    2.2504    3.4949    2.8447 C   0  0  0  0  0  0  0  0  0  0  0  0
    1.9256    2.1775    2.5128 C   0  0  0  0  0  0  0  0  0  0  0  0
  1  2  1  0
  2  3  1  0
  3  4  2  0
  3  8  1  0
  4  5  1  0
  5  6  2  0
  6  7  1  0
  7  8  2  0
M  END
>  <DRUGBANK_ID>  (1) 
DB02464

>  <SECONDARY_ACCESSION_NUMBERS>  (1) 
EXPT00400

>  <COMMON_NAME>  (1) 
Benzylamine

>  <CAS_NUMBER>  (1) 
100-46-9

>  <UNII>  (1) 
A1O31ROR09

$$$$
