
     RDKit          3D

 21 22  0  0  0  0  0  0  0  0999 V2000
    0.2171    0.8372   -0.1153 C   0  0  0  0  0  0  0  0  0  0  0  0
   -0.3486   -0.4413   -0.0266 C   0  0  0  0  0  0  0  0  0  0  0  0
   -0.5393    1.9896   -0.3132 N   0  0  0  0  0  0  0  0  0  0  0  0
    1.6112    0.9333   -0.0927 C   0  0  0  0  0  0  0  0  0  0  0  0
    0.4438   -1.5949    0.0394 C   0  0  0  0  0  0  0  0  0  0  0  0
   -2.1158   -0.5995   -0.0725 S   0  0  0  0  0  0  0  0  0  0  0  0
   -1.8949    2.0078    0.1820 C   0  0  0  0  0  0  0  0  0  0  0  0
    2.4298   -0.2055   -0.0134 C   0  0  0  0  0  0  0  0  0  0  0  0
    1.8473   -1.4762    0.0262 C   0  0  0  0  0  0  0  0  0  0  0  0
   -2.5921    0.9489   -0.5109 N   0  0  0  0  0  0  0  0  0  0  0  0
   -2.5812   -0.8757    1.2630 O   0  0  0  0  0  0  0  0  0  0  0  0
   -2.4635   -1.4610   -1.1851 O   0  0  0  0  0  0  0  0  0  0  0  0
   -1.9826    1.8914    1.7102 C   0  0  0  0  0  0  0  0  0  0  0  0
    4.1223    0.1254    0.0171 Cl  0  0  0  0  0  0  0  0  0  0  0  0
    2.7992   -2.9686   -0.0991 S   0  0  0  0  0  0  0  0  0  0  0  0
   -1.2701    2.9954    2.4852 C   0  0  0  0  0  0  0  0  0  0  0  0
    2.4040   -3.8142    1.3064 N   0  0  0  0  0  0  0  0  0  0  0  0
    2.2736   -3.7314   -1.2076 O   0  0  0  0  0  0  0  0  0  0  0  0
    4.2111   -2.7192    0.0422 O   0  0  0  0  0  0  0  0  0  0  0  0
   -1.8811    4.3501    2.1709 C   0  0  0  0  0  0  0  0  0  0  0  0
   -1.3654    2.6826    3.9792 C   0  0  0  0  0  0  0  0  0  0  0  0
  1  2  2  0
  1  3  1  0
  1  4  1  0
  2  5  1  0
  2  6  1  0
  3  7  1  0
  4  8  2  0
  5  9  2  0
  6 10  1  0
  6 11  2  0
  6 12  2  0
  7 13  1  0
  7 10  1  0
  8 14  1  0
  8  9  1  0
  9 15  1  0
 13 16  1  0
 15 17  1  0
 15 18  2  0
 15 19  2  0
 16 20  1  0
 16 21  1  0
M  END
>  <DRUGBANK_ID>  (1) 
DB15861

>  <COMMON_NAME>  (1) 
Buthiazide

>  <CAS_NUMBER>  (1) 
2043-38-1

>  <UNII>  (1) 
W00SSD35VW

>  <SYNONYMS>  (1) 
Buthiazide; Butizida; Butizide; Butizidum; Isobutylhydrochlorothiazide

$$$$
