
     RDKit          3D

 21 23  0  0  1  0  0  0  0  0999 V2000
    2.3528    0.4259    0.3301 C   0  0  0  0  0  0  0  0  0  0  0  0
    0.9232    0.1348    0.5414 C   0  0  1  0  0  0  0  0  0  0  0  0
    0.1894    1.3465   -0.0524 C   0  0  0  0  0  0  0  0  0  0  0  0
   -1.2966    1.2173    0.1674 C   0  0  0  0  0  0  0  0  0  0  0  0
   -1.8096   -0.1216   -0.3965 C   0  0  2  0  0  0  0  0  0  0  0  0
   -0.9979   -1.3141    0.1973 C   0  0  0  0  0  0  0  0  0  0  0  0
    0.4665   -1.1657    0.0094 N   0  0  0  0  0  0  0  0  0  0  0  0
    1.1304   -2.2233   -0.6563 C   0  0  0  0  0  0  0  0  0  0  0  0
    0.5208   -3.2469   -0.9521 O   0  0  0  0  0  0  0  0  0  0  0  0
    2.5843   -2.2223   -1.2159 C   0  0  0  0  0  0  0  0  0  0  0  0
    3.6785   -1.4554   -1.3255 C   0  0  0  0  0  0  0  0  0  0  0  0
   -1.8939   -0.1076   -1.8725 N   0  0  0  0  0  0  0  0  0  0  0  0
   -0.8014   -0.0265   -2.7166 C   0  0  0  0  0  0  0  0  0  0  0  0
    0.0548   -1.0605   -2.7973 N   0  0  0  0  0  0  0  0  0  0  0  0
    1.2267   -0.9208   -3.4503 C   0  0  0  0  0  0  0  0  0  0  0  0
    1.7258    0.1675   -4.0294 N   0  0  0  0  0  0  0  0  0  0  0  0
    0.7706    1.0904   -4.1118 C   0  0  0  0  0  0  0  0  0  0  0  0
   -0.5054    1.0601   -3.5596 C   0  0  0  0  0  0  0  0  0  0  0  0
   -1.1514    2.2323   -4.0217 C   0  0  0  0  0  0  0  0  0  0  0  0
   -0.2734    2.8956   -4.8586 C   0  0  0  0  0  0  0  0  0  0  0  0
    0.9167    2.2230   -4.8435 N   0  0  0  0  0  0  0  0  0  0  0  0
  2  1  1  6
  2  3  1  0
  2  7  1  0
  3  4  1  0
  5  4  1  0
  5  6  1  0
  5 12  1  6
  6  7  1  0
  7  8  1  0
  8  9  2  0
  8 10  1  0
 10 11  2  0
 12 13  1  0
 13 14  2  0
 13 18  1  0
 14 15  1  0
 15 16  2  0
 16 17  1  0
 17 18  2  0
 17 21  1  0
 18 19  1  0
 19 20  2  0
 20 21  1  0
M  END
>  <DRUGBANK_ID>  (1) 
DB14924

>  <COMMON_NAME>  (1) 
Ritlecitinib

>  <CAS_NUMBER>  (1) 
1792180-81-4

>  <UNII>  (1) 
2OYE00PC25

>  <SYNONYMS>  (1) 
2-propen-1-one, 1-((2S,5R)-2-methyl-5-(7H-pyrrolo(2,3-D)pyrimidin-4-ylamino)-1-piperidinyl)-

$$$$
