CTB
     RDKit          3D

 13 13  0  0  0  0  0  0  0  0999 V2000
    1.0167    0.0354   -0.0920 B   0  0  0  0  0  0  0  0  0  0  0  0
    0.2667   -1.2627   -0.0420 O   0  0  0  0  0  0  0  0  0  0  0  0
    0.2667    1.3334   -0.1421 O   0  0  0  0  0  0  0  0  0  0  0  0
    2.6167    0.0354   -0.0920 C   0  0  0  0  0  0  0  0  0  0  0  0
    3.1067   -1.3495   -0.0386 N   0  0  0  0  0  0  0  0  0  0  0  0
    3.9519   -1.8725   -1.1218 C   0  0  0  0  0  0  0  0  0  0  0  0
    4.3755   -3.0698   -1.0756 O   0  0  0  0  0  0  0  0  0  0  0  0
    4.3191   -0.9812   -2.2970 C   0  0  0  0  0  0  0  0  0  0  0  0
    3.0524   -0.5291   -3.0052 C   0  0  0  0  0  0  0  0  0  0  0  0
    2.0832   -1.3721   -3.4976 C   0  0  0  0  0  0  0  0  0  0  0  0
    1.0418   -0.6859   -4.1314 C   0  0  0  0  0  0  0  0  0  0  0  0
    1.2209    0.6627   -4.1243 C   0  0  0  0  0  0  0  0  0  0  0  0
    2.6710    1.1211   -3.3200 S   0  0  0  0  0  0  0  0  0  0  0  0
  1  2  1  0
  1  3  1  0
  1  4  1  0
  4  5  1  0
  5  6  1  0
  6  7  2  0
  6  8  1  0
  8  9  1  0
  9 10  2  0
  9 13  1  0
 10 11  1  0
 11 12  2  0
 12 13  1  0
M  END
>  <DRUGBANK_ID>  (1) 
DB02094

>  <SECONDARY_ACCESSION_NUMBERS>  (1) 
EXPT01048

>  <COMMON_NAME>  (1) 
N-2-Thiophen-2-Yl-Acetamide Boronic Acid

>  <UNII>  (1) 
8KWZ834LZM

$$$$
