
     RDKit          3D

 30 33  0  0  0  0  0  0  0  0999 V2000
    1.2667    1.3489    0.0305 C   0  0  0  0  0  0  0  0  0  0  0  0
    0.0706    0.6248    0.0224 C   0  0  0  0  0  0  0  0  0  0  0  0
    0.0555   -0.7917    0.0004 C   0  0  0  0  0  0  0  0  0  0  0  0
    1.3331   -1.4450   -0.0781 C   0  0  0  0  0  0  0  0  0  0  0  0
    2.5492   -0.7229   -0.0080 C   0  0  0  0  0  0  0  0  0  0  0  0
    2.4737    0.6762    0.0428 C   0  0  0  0  0  0  0  0  0  0  0  0
    3.6003    1.4063    0.0262 F   0  0  0  0  0  0  0  0  0  0  0  0
    3.8359   -1.3018   -0.0277 N   0  0  0  0  0  0  0  0  0  0  0  0
    4.8260   -1.2702    1.0074 C   0  0  0  0  0  0  0  0  0  0  0  0
    5.7518   -1.9856    0.0014 C   0  0  0  0  0  0  0  0  0  0  0  0
    4.4446   -2.4095   -0.6982 C   0  0  0  0  0  0  0  0  0  0  0  0
    6.6224   -1.1145   -0.7606 O   0  0  0  0  0  0  0  0  0  0  0  0
    1.5147   -3.1507   -0.3427 Cl  0  0  0  0  0  0  0  0  0  0  0  0
   -1.2368   -1.4510    0.0192 N   0  0  0  0  0  0  0  0  0  0  0  0
   -2.3940   -0.6485   -0.0004 C   0  0  0  0  0  0  0  0  0  0  0  0
   -2.4686    0.6973   -0.0056 C   0  0  0  0  0  0  0  0  0  0  0  0
   -1.1801    1.4205    0.0076 C   0  0  0  0  0  0  0  0  0  0  0  0
   -1.0983    2.6439    0.0008 O   0  0  0  0  0  0  0  0  0  0  0  0
   -3.7850    1.3789   -0.0045 C   0  0  0  0  0  0  0  0  0  0  0  0
   -4.8748    0.8197   -0.0012 O   0  0  0  0  0  0  0  0  0  0  0  0
   -3.7053    2.7185   -0.0034 O   0  0  0  0  0  0  0  0  0  0  0  0
   -1.3910   -2.8849    0.1333 C   0  0  0  0  0  0  0  0  0  0  0  0
   -1.9157   -3.5916   -0.9649 C   0  0  0  0  0  0  0  0  0  0  0  0
   -1.8741   -4.9780   -0.9886 C   0  0  0  0  0  0  0  0  0  0  0  0
   -1.2743   -5.6331    0.0721 C   0  0  0  0  0  0  0  0  0  0  0  0
   -0.7680   -4.9041    1.1514 C   0  0  0  0  0  0  0  0  0  0  0  0
   -0.8668   -3.5497    1.2129 N   0  0  0  0  0  0  0  0  0  0  0  0
    0.0194   -5.5457    2.0956 N   0  0  0  0  0  0  0  0  0  0  0  0
   -1.1647   -6.9709    0.0462 F   0  0  0  0  0  0  0  0  0  0  0  0
   -2.3950   -2.9427   -2.0372 F   0  0  0  0  0  0  0  0  0  0  0  0
  1  2  2  0
  1  6  1  0
  2  3  1  0
  2 17  1  0
  3  4  2  0
  3 14  1  0
  4  5  1  0
  4 13  1  0
  5  6  2  0
  5  8  1  0
  6  7  1  0
  8  9  1  0
  8 11  1  0
  9 10  1  0
 10 11  1  0
 10 12  1  0
 14 15  1  0
 14 22  1  0
 15 16  2  0
 16 17  1  0
 16 19  1  0
 17 18  2  0
 19 20  2  0
 19 21  1  0
 22 23  2  0
 22 27  1  0
 23 24  1  0
 23 30  1  0
 24 25  2  0
 25 26  1  0
 25 29  1  0
 26 27  2  0
 26 28  1  0
M  END
>  <DRUGBANK_ID>  (1) 
DB11943

>  <COMMON_NAME>  (1) 
Delafloxacin

>  <CAS_NUMBER>  (1) 
189279-58-1

>  <UNII>  (1) 
6315412YVF

>  <SYNONYMS>  (1) 
Delafloxacin

$$$$
