BB1
     RDKit          3D

 23 22  0  0  0  0  0  0  0  0999 V2000
   -2.4948   -0.0121   -4.1344 C   0  0  0  0  0  0  0  0  0  0  0  0
   -1.0057    0.1444   -3.8240 C   0  0  2  0  0  0  0  0  0  0  0  0
   -0.3526   -1.2253   -3.7338 C   0  0  0  0  0  0  0  0  0  0  0  0
   -0.0250   -1.7698   -4.8005 O   0  0  0  0  0  0  0  0  0  0  0  0
   -0.2129   -1.9897   -2.6278 N   0  0  0  0  0  0  0  0  0  0  0  0
   -0.3030   -1.8408   -1.1251 C   0  0  2  0  0  0  0  0  0  0  0  0
   -0.7331    1.1570   -2.7158 C   0  0  0  0  0  0  0  0  0  0  0  0
    0.7341    1.4893   -2.5232 C   0  0  0  0  0  0  0  0  0  0  0  0
    1.4011    2.0817   -3.7525 C   0  0  0  0  0  0  0  0  0  0  0  0
    0.7438    3.3867   -4.1622 C   0  0  0  0  0  0  0  0  0  0  0  0
   -3.2887   -0.3947   -2.9839 N   0  0  0  0  0  0  0  0  0  0  0  0
   -3.9733   -1.5550   -2.7882 C   0  0  0  0  0  0  0  0  0  0  0  0
   -4.5718   -1.8098   -1.7594 O   0  0  0  0  0  0  0  0  0  0  0  0
   -3.3458    0.5542   -1.9453 O   0  0  0  0  0  0  0  0  0  0  0  0
    1.0853   -1.3734   -0.5104 C   0  0  0  0  0  0  0  0  0  0  0  0
    1.2655   -1.0248    0.8446 N   0  0  0  0  0  0  0  0  0  0  0  0
    2.6293   -0.7286    1.2636 C   0  0  0  0  0  0  0  0  0  0  0  0
    0.2896   -0.8077    1.9310 C   0  0  0  0  0  0  0  0  0  0  0  0
    2.0682   -1.3755   -1.2697 O   0  0  0  0  0  0  0  0  0  0  0  0
   -0.7253   -3.2456   -0.5467 C   0  0  0  0  0  0  0  0  0  0  0  0
   -0.9739   -3.1691    0.9426 C   0  0  0  0  0  0  0  0  0  0  0  0
   -2.0557   -3.7267   -1.1175 C   0  0  0  0  0  0  0  0  0  0  0  0
    0.3672   -4.3150   -0.7278 C   0  0  0  0  0  0  0  0  0  0  0  0
  1 11  1  0
  2  7  1  1
  2  3  1  0
  2  1  1  0
  3  4  2  0
  3  5  1  0
  6 20  1  0
  6 15  1  0
  6  5  1  6
  7  8  1  0
  8  9  1  0
  9 10  1  0
 11 12  1  0
 11 14  1  0
 12 13  2  0
 15 16  1  0
 15 19  2  0
 16 17  1  0
 16 18  1  0
 20 21  1  0
 20 22  1  0
 20 23  1  0
M  END
>  <DRUGBANK_ID>  (1) 
DB04368

>  <SECONDARY_ACCESSION_NUMBERS>  (1) 
EXPT00629

>  <COMMON_NAME>  (1) 
Bb-3497

>  <CAS_NUMBER>  (1) 
235784-88-0

$$$$
