
     RDKit          3D

 20 19  0  0  1  0  0  0  0  0999 V2000
    2.9652    0.8037   -0.7623 C   0  0  0  0  0  0  0  0  0  0  0  0
    2.7109    2.5229   -0.4296 S   0  0  0  0  0  0  0  0  0  0  0  0
    3.2073    2.7322    0.9151 O   0  0  0  0  0  0  0  0  0  0  0  0
    3.1875    3.3118   -1.5395 O   0  0  0  0  0  0  0  0  0  0  0  0
    1.0752    2.6116   -0.4183 O   0  0  0  0  0  0  0  0  0  0  0  0
    0.5211    3.9044   -0.1493 C   0  0  0  0  0  0  0  0  0  0  0  0
    0.8272    4.3841    1.2753 C   0  0  2  0  0  0  0  0  0  0  0  0
    0.2123    3.3780    2.2796 C   0  0  2  0  0  0  0  0  0  0  0  0
   -0.5248    4.0059    3.5570 C   0  0  1  0  0  0  0  0  0  0  0  0
   -0.9117    2.9233    4.5375 C   0  0  1  0  0  0  0  0  0  0  0  0
    0.3585    2.1490    4.9903 C   0  0  0  0  0  0  0  0  0  0  0  0
    1.5136    2.9889    5.3883 O   0  0  0  0  0  0  0  0  0  0  0  0
    2.6376    3.6564    4.3520 S   0  0  0  0  0  0  0  0  0  0  0  0
    3.3677    2.5964    3.6728 O   0  0  0  0  0  0  0  0  0  0  0  0
    2.1171    4.7643    3.5988 O   0  0  0  0  0  0  0  0  0  0  0  0
    3.7188    4.5329    5.4040 C   0  0  0  0  0  0  0  0  0  0  0  0
   -1.4650    3.5504    5.7165 O   0  0  0  0  0  0  0  0  0  0  0  0
    0.0192    5.0017    4.4512 O   0  0  0  0  0  0  0  0  0  0  0  0
    0.9837    2.1649    2.4238 O   0  0  0  0  0  0  0  0  0  0  0  0
    0.3543    5.7161    1.4505 O   0  0  0  0  0  0  0  0  0  0  0  0
  1  2  1  0
  2  3  2  0
  2  4  2  0
  2  5  1  0
  5  6  1  0
  7 20  1  1
  7  8  1  0
  7  6  1  0
  8 19  1  1
  8  9  1  0
  9 10  1  0
  9 18  1  1
 10 11  1  0
 10 17  1  1
 11 12  1  0
 12 13  1  0
 13 14  2  0
 13 15  2  0
 13 16  1  0
M  END
>  <DRUGBANK_ID>  (1) 
DB12097

>  <COMMON_NAME>  (1) 
Mannitol busulfan

>  <CAS_NUMBER>  (1) 
1187-00-4

>  <UNII>  (1) 
6STO1P091F

$$$$
