
     RDKit          3D

 23 26  0  0  0  0  0  0  0  0999 V2000
   -1.6125    0.6688    0.0572 C   0  0  0  0  0  0  0  0  0  0  0  0
   -1.3117   -0.6074    0.5339 C   0  0  0  0  0  0  0  0  0  0  0  0
   -2.3262   -1.5449    0.7024 C   0  0  0  0  0  0  0  0  0  0  0  0
   -3.6177   -1.1319    0.8931 C   0  0  0  0  0  0  0  0  0  0  0  0
   -3.8781    0.2276    0.8447 C   0  0  0  0  0  0  0  0  0  0  0  0
   -2.9164    1.1210    0.3451 C   0  0  0  0  0  0  0  0  0  0  0  0
    3.9950    0.2998    0.8103 C   0  0  0  0  0  0  0  0  0  0  0  0
    3.8108   -0.9931    0.3415 C   0  0  0  0  0  0  0  0  0  0  0  0
    2.5309   -1.3903   -0.0067 C   0  0  0  0  0  0  0  0  0  0  0  0
    1.4901   -0.5060    0.2779 C   0  0  0  0  0  0  0  0  0  0  0  0
    1.6816    0.8638    0.3817 C   0  0  0  0  0  0  0  0  0  0  0  0
    2.9717    1.2543    0.7496 C   0  0  0  0  0  0  0  0  0  0  0  0
    0.1820   -1.2970    1.1382 S   0  0  0  0  0  0  0  0  0  0  0  0
    0.5991    1.8950    0.1385 C   0  0  0  0  0  0  0  0  0  0  0  0
   -0.6367    1.5233   -0.7591 C   0  0  0  0  0  0  0  0  0  0  0  0
   -5.3973    0.7826    1.4131 Cl  0  0  0  0  0  0  0  0  0  0  0  0
   -0.3517    1.1381   -2.1974 N   0  0  0  0  0  0  0  0  0  0  0  0
   -1.5084    1.0190   -3.1118 C   0  0  0  0  0  0  0  0  0  0  0  0
   -2.3241   -0.2877   -2.9449 C   0  0  0  0  0  0  0  0  0  0  0  0
   -1.5125   -1.5204   -3.1023 N   0  0  0  0  0  0  0  0  0  0  0  0
   -0.2674   -1.4063   -2.3207 C   0  0  0  0  0  0  0  0  0  0  0  0
    0.4705   -0.0517   -2.4688 C   0  0  0  0  0  0  0  0  0  0  0  0
   -2.2838   -2.6838   -2.6392 C   0  0  0  0  0  0  0  0  0  0  0  0
  1  2  1  0
  1 15  1  0
  2  3  2  0
  3  4  1  0
  4  5  2  0
  5 16  1  0
  5  6  1  0
  6  1  2  0
  7  8  2  0
  8  9  1  0
  9 10  2  0
 10 13  1  0
 10 11  1  0
 11 12  2  0
 11 14  1  0
 12  7  1  0
 13  2  1  0
 14 15  1  0
 15 17  1  0
 17 18  1  0
 17 22  1  0
 18 19  1  0
 19 20  1  0
 20 21  1  0
 20 23  1  0
 21 22  1  0
M  END
>  <DRUGBANK_ID>  (1) 
DB15971

>  <COMMON_NAME>  (1) 
Clorotepine

>  <CAS_NUMBER>  (1) 
13448-22-1

>  <UNII>  (1) 
E65W20MU7A

>  <SYNONYMS>  (1) 
Clorotepina; Clorotepine; Clorotepinum; Clothepin; Octoclothepine

$$$$
