
     RDKit          3D

 20 23  0  0  0  0  0  0  0  0999 V2000
   -2.9391    1.5917   -0.0200 C   0  0  0  0  0  0  0  0  0  0  0  0
   -3.6771    0.2695   -0.2058 C   0  0  1  0  0  0  0  0  0  0  0  0
   -2.9371   -0.9338    0.4000 C   0  0  0  0  0  0  0  0  0  0  0  0
   -1.4346   -0.9170    0.2131 C   0  0  0  0  0  0  0  0  0  0  0  0
   -0.7503    0.4305    0.3383 C   0  0  2  0  0  0  0  0  0  0  0  0
   -1.5092    1.4748   -0.5078 C   0  0  0  0  0  0  0  0  0  0  0  0
    0.7296    0.4028   -0.0879 C   0  0  2  0  0  0  0  0  0  0  0  0
    1.4938   -0.9220    0.3561 C   0  0  1  0  0  0  0  0  0  0  0  0
    0.7182   -2.0874   -0.3065 C   0  0  0  0  0  0  0  0  0  0  0  0
   -0.7623   -2.0373   -0.0640 C   0  0  0  0  0  0  0  0  0  0  0  0
    2.9325   -0.8616   -0.1881 C   0  0  1  0  0  0  0  0  0  0  0  0
    3.5094    0.4969   -0.0933 C   0  0  2  0  0  0  0  0  0  0  0  0
    2.7796    1.7876   -0.2372 C   0  0  0  0  0  0  0  0  0  0  0  0
    1.4324    1.6735    0.4140 C   0  0  0  0  0  0  0  0  0  0  0  0
    4.4534    0.2050   -1.3929 C   0  0  2  0  0  0  0  0  0  0  0  0
    5.5426   -0.1940   -0.4812 C   0  0  0  0  0  0  0  0  0  0  0  0
    4.4440   -1.4875    0.0260 C   0  0  0  0  0  0  0  0  0  0  0  0
    4.5034    1.0802   -2.4372 O   0  0  0  0  0  0  0  0  0  0  0  0
    4.0309    0.4997    1.5626 C   0  0  0  0  0  0  0  0  0  0  0  0
   -4.9766    0.3682    0.3769 O   0  0  0  0  0  0  0  0  0  0  0  0
  1  2  1  0
  1  6  1  0
  2  3  1  0
  2 20  1  1
  3  4  1  0
  4  5  1  0
  4 10  2  0
  5  6  1  6
  5  7  1  0
  7 14  1  1
  8  7  1  0
  8 11  1  0
  8  9  1  6
 10  9  1  0
 11 12  1  0
 11 17  1  1
 12 13  1  0
 12 15  1  0
 12 19  1  1
 13 14  1  0
 15 18  1  1
 16 15  1  0
 17 16  1  0
M  END
>  <DRUGBANK_ID>  (1) 
DB01455

>  <COMMON_NAME>  (1) 
19-Nor-5-androstenediol

>  <CAS_NUMBER>  (1) 
25975-59-1

>  <UNII>  (1) 
5N0V272KSA

$$$$
