VIN
     RDKit          3D

 32 37  0  0  0  0  0  0  0  0999 V2000
    1.3180   -0.5835   -0.7479 C   0  0  0  0  0  0  0  0  0  0  0  0
    0.8850    0.6658   -0.2363 C   0  0  0  0  0  0  0  0  0  0  0  0
    2.6982   -0.7281   -1.1058 C   0  0  0  0  0  0  0  0  0  0  0  0
    0.2317   -1.4485   -0.3066 N   0  0  0  0  0  0  0  0  0  0  0  0
    1.8937    1.7230   -0.1061 C   0  0  0  0  0  0  0  0  0  0  0  0
   -0.5315    0.6955   -0.1160 C   0  0  0  0  0  0  0  0  0  0  0  0
    3.5160   -0.1501   -0.1104 C   0  0  0  0  0  0  0  0  0  0  0  0
    3.6432   -0.9519   -2.4312 C   0  0  0  0  0  0  0  0  0  0  0  0
   -0.9363   -0.6582   -0.2255 C   0  0  0  0  0  0  0  0  0  0  0  0
    0.1459   -2.9207   -0.0853 C   0  0  0  0  0  0  0  0  0  0  0  0
    3.2158    1.2017    0.0071 C   0  0  0  0  0  0  0  0  0  0  0  0
    2.1520    3.1324    0.0010 C   0  0  0  0  0  0  0  0  0  0  0  0
   -1.5897    1.6308    0.0258 C   0  0  0  0  0  0  0  0  0  0  0  0
    4.8669   -0.6491    0.1128 C   0  0  0  0  0  0  0  0  0  0  0  0
    4.4432   -2.1267   -1.9023 C   0  0  0  0  0  0  0  0  0  0  0  0
   -2.3137   -1.0443   -0.2252 C   0  0  0  0  0  0  0  0  0  0  0  0
   -0.5428   -3.5255    1.2181 C   0  0  0  0  0  0  0  0  0  0  0  0
    4.1666    2.2922    0.0315 C   0  0  0  0  0  0  0  0  0  0  0  0
    3.4196    3.4467    0.0810 N   0  0  0  0  0  0  0  0  0  0  0  0
   -2.9543    1.2317    0.0317 C   0  0  0  0  0  0  0  0  0  0  0  0
    5.3517   -1.5533   -0.8321 C   0  0  0  0  0  0  0  0  0  0  0  0
    5.7230   -0.1982    1.1313 C   0  0  0  0  0  0  0  0  0  0  0  0
   -3.3163   -0.0981   -0.0620 C   0  0  0  0  0  0  0  0  0  0  0  0
   -1.9382   -3.2927    1.3896 O   0  0  0  0  0  0  0  0  0  0  0  0
    5.4085    2.2982   -0.0709 O   0  0  0  0  0  0  0  0  0  0  0  0
    6.7147   -1.7268   -0.9176 C   0  0  0  0  0  0  0  0  0  0  0  0
    7.1056   -0.3453    0.9969 C   0  0  0  0  0  0  0  0  0  0  0  0
    7.6117   -1.0771   -0.0687 C   0  0  0  0  0  0  0  0  0  0  0  0
    8.9710   -1.1005   -0.2091 O   0  0  0  0  0  0  0  0  0  0  0  0
    9.5311   -1.8461   -1.3026 C   0  0  0  0  0  0  0  0  0  0  0  0
    9.1791   -1.2516   -2.6760 C   0  0  0  0  0  0  0  0  0  0  0  0
    9.2784   -3.3526   -1.1492 C   0  0  0  0  0  0  0  0  0  0  0  0
  1  2  2  0
  1  4  1  0
  2  6  1  0
  3  1  1  0
  3  8  1  0
  4 10  1  0
  5  2  1  0
  6  9  2  0
  7  3  2  0
  9  4  1  0
  9 16  1  0
 10 17  1  0
 11  5  2  0
 11  7  1  0
 12  5  1  0
 13  6  1  0
 13 20  2  0
 14  7  1  0
 14 21  2  0
 15  8  1  0
 18 11  1  0
 19 12  2  0
 19 18  1  0
 20 23  1  0
 21 15  1  0
 22 14  1  0
 23 16  2  0
 24 17  1  0
 25 18  2  0
 26 21  1  0
 27 22  2  0
 27 28  1  0
 28 26  2  0
 29 28  1  0
 30 29  1  0
 30 32  1  0
 31 30  1  0
M  END
>  <DRUGBANK_ID>  (1) 
DB08703

>  <COMMON_NAME>  (1) 
12-(2-hydroxyethyl)-2-(1-methylethoxy)-13,14-dihydronaphtho[2,1-a]pyrrolo[3,4-c]carbazol-5(12H)-one

$$$$
