PDM
     RDKit          3D

 21 22  0  0  0  0  0  0  0  0999 V2000
   -5.6516   -1.2110   -3.7863 C   0  0  0  0  0  0  0  0  0  0  0  0
   -5.6903    0.0926   -4.2896 C   0  0  0  0  0  0  0  0  0  0  0  0
   -5.2164    1.1667   -3.5143 C   0  0  0  0  0  0  0  0  0  0  0  0
   -4.7189    0.9523   -2.2266 C   0  0  0  0  0  0  0  0  0  0  0  0
   -4.8193   -0.3449   -1.7323 C   0  0  0  0  0  0  0  0  0  0  0  0
   -5.1540   -1.4305   -2.5168 C   0  0  0  0  0  0  0  0  0  0  0  0
   -3.3889    1.8174   -0.2571 C   0  0  1  0  0  0  0  0  0  0  0  0
   -2.4863    0.5655   -0.1169 C   0  0  0  0  0  0  0  0  0  0  0  0
   -2.4062   -0.0328    1.2895 C   0  0  0  0  0  0  0  0  0  0  0  0
   -3.5574   -0.9480    1.6691 C   0  0  0  0  0  0  0  0  0  0  0  0
   -5.9179   -2.6223   -5.7684 C   0  0  0  0  0  0  0  0  0  0  0  0
   -6.2113   -2.2951   -4.4729 N   0  0  0  0  0  0  0  0  0  0  0  0
   -4.0981    1.9547   -1.5136 N   0  0  0  0  0  0  0  0  0  0  0  0
   -5.1309   -2.0817   -6.5222 O   0  0  0  0  0  0  0  0  0  0  0  0
   -7.7309   -2.9815   -2.8315 O   0  0  0  0  0  0  0  0  0  0  0  0
   -4.2979    2.0054    0.7989 O   0  0  0  0  0  0  0  0  0  0  0  0
   -3.1968   -2.2103    1.9907 O   0  0  0  0  0  0  0  0  0  0  0  0
   -4.7325   -0.6019    1.6922 O   0  0  0  0  0  0  0  0  0  0  0  0
   -6.7092   -3.8479   -6.1289 C   0  0  0  0  0  0  0  0  0  0  0  0
   -7.1760   -3.0990   -3.9140 C   0  0  0  0  0  0  0  0  0  0  0  0
   -7.5266   -4.1727   -4.8946 C   0  0  0  0  0  0  0  0  0  0  0  0
  1  2  2  0
  1  6  1  0
  1 12  1  0
  2  3  1  0
  3  4  2  0
  4  5  1  0
  4 13  1  0
  5  6  2  0
  7 16  1  1
  7 13  1  0
  7  8  1  0
  8  9  1  0
  9 10  1  0
 10 17  1  0
 10 18  2  0
 11 12  1  0
 11 14  2  0
 11 19  1  0
 12 20  1  0
 15 20  2  0
 19 21  1  0
 20 21  1  0
M  END
>  <DRUGBANK_ID>  (1) 
DB08378

>  <COMMON_NAME>  (1) 
4-[4-(2,5-DIOXO-PYRROLIDIN-1-YL)-PHENYLAMINO]-4-HYDROXY-BUTYRIC ACID

$$$$
