
     RDKit          3D

 21 23  0  0  1  0  0  0  0  0999 V2000
    0.6540    0.6367   -1.3230 C   0  0  0  0  0  0  0  0  0  0  0  0
    1.4775    1.6087   -0.6561 C   0  0  0  0  0  0  0  0  0  0  0  0
    2.6363    1.3083    0.1414 C   0  0  0  0  0  0  0  0  0  0  0  0
    3.0097    0.0185    0.3873 C   0  0  0  0  0  0  0  0  0  0  0  0
    2.1600   -0.9326   -0.0849 C   0  0  0  0  0  0  0  0  0  0  0  0
    0.9481   -0.6661   -1.0192 C   0  0  0  0  0  0  0  0  0  0  0  0
   -0.8670    0.7696   -1.3803 C   0  0  0  0  0  0  0  0  0  0  0  0
   -0.8956    0.1736    0.0738 C   0  0  0  0  0  0  0  0  0  0  0  0
    0.0488   -1.6581    0.1862 C   0  0  0  0  0  0  0  0  0  0  0  0
   -0.6855   -1.6150   -1.0382 C   0  0  0  0  0  0  0  0  0  0  0  0
   -2.0545    0.3587    1.0392 N   0  0  0  0  0  0  0  0  0  0  0  0
   -1.6966   -0.8946    1.6134 C   0  0  0  0  0  0  0  0  0  0  0  0
   -1.9899   -1.8123    0.1176 C   0  0  0  0  0  0  0  0  0  0  0  0
    0.9025   -3.0654   -0.7148 C   0  0  0  0  0  0  0  0  0  0  0  0
   -0.8414   -1.8988   -2.5041 C   0  0  0  0  0  0  0  0  0  0  0  0
   -1.9017    1.5146    2.0317 C   0  0  0  0  0  0  0  0  0  0  0  0
   -0.5743    2.2716    2.0448 C   0  0  0  0  0  0  0  0  0  0  0  0
   -0.3550    3.5803    1.7943 C   0  0  0  0  0  0  0  0  0  0  0  0
    1.0393    4.1277    1.6118 C   0  0  0  0  0  0  0  0  0  0  0  0
   -1.4738    4.5645    1.6516 C   0  0  0  0  0  0  0  0  0  0  0  0
    4.0832   -0.3365    1.1375 O   0  0  0  0  0  0  0  0  0  0  0  0
  1  2  2  0
  1  7  1  0
  2  3  1  0
  3  4  2  0
  4  5  1  0
  4 21  1  0
  5  6  2  0
  6  1  1  0
  7  8  1  0
  8  9  1  0
  8 11  1  0
  9 10  1  0
  9 14  1  0
 10  6  1  0
 10 13  1  0
 10 15  1  0
 11 16  1  0
 12 11  1  0
 13 12  1  0
 16 17  1  0
 17 18  2  3
 18 19  1  0
 18 20  1  0
M  END
>  <DRUGBANK_ID>  (1) 
DB00652

>  <SECONDARY_ACCESSION_NUMBERS>  (1) 
APRD01173

>  <COMMON_NAME>  (1) 
Pentazocine

>  <CAS_NUMBER>  (1) 
359-83-1

>  <UNII>  (1) 
RP4A60D26L

>  <SYNONYMS>  (1) 
Pentazocin; Pentazocina; Pentazocine; Pentazocinum

$$$$
