
     RDKit          3D

 34 38  0  0  0  0  0  0  0  0999 V2000
    1.0219   -0.0690    0.0848 C   0  0  0  0  0  0  0  0  0  0  0  0
    4.4894   -9.6525    2.9838 C   0  0  0  0  0  0  0  0  0  0  0  0
    5.2005   -8.9018   -2.0838 C   0  0  0  0  0  0  0  0  0  0  0  0
    5.0862   -9.5778   -3.2410 C   0  0  0  0  0  0  0  0  0  0  0  0
    5.4872  -11.4272   -4.5289 C   0  0  0  0  0  0  0  0  0  0  0  0
    5.9922  -12.7217   -4.8695 C   0  0  0  0  0  0  0  0  0  0  0  0
    0.8417   -6.6981   -0.6976 C   0  0  0  0  0  0  0  0  0  0  0  0
    0.9373   -7.2731    0.5717 C   0  0  0  0  0  0  0  0  0  0  0  0
    0.1756   -4.2175   -2.2709 C   0  0  0  0  0  0  0  0  0  0  0  0
    2.6273   -3.5997   -2.0516 C   0  0  0  0  0  0  0  0  0  0  0  0
   -0.1829   -2.7581   -2.2013 C   0  0  0  0  0  0  0  0  0  0  0  0
    2.1741   -2.1394   -1.9747 C   0  0  0  0  0  0  0  0  0  0  0  0
    6.1749  -10.8541   -1.0879 C   0  0  0  0  0  0  0  0  0  0  0  0
    5.5140  -13.2266   -2.9958 C   0  0  0  0  0  0  0  0  0  0  0  0
    3.2167   -6.8271   -0.9703 C   0  0  0  0  0  0  0  0  0  0  0  0
    5.6608   -8.6560    0.3237 C   0  0  0  0  0  0  0  0  0  0  0  0
    0.5117   -1.4670   -0.2093 C   0  0  0  0  0  0  0  0  0  0  0  0
    3.7366   -8.8688    1.9752 C   0  0  0  0  0  0  0  0  0  0  0  0
    5.7297   -9.4951   -0.9491 C   0  0  0  0  0  0  0  0  0  0  0  0
    5.4484  -10.8901   -3.2969 C   0  0  0  0  0  0  0  0  0  0  0  0
    5.1676  -13.7062   -4.4894 C   0  0  0  0  0  0  0  0  0  0  0  0
    5.7656  -11.7475   -2.2751 C   0  0  0  0  0  0  0  0  0  0  0  0
    1.5944   -4.4818   -2.7626 C   0  0  0  0  0  0  0  0  0  0  0  0
    1.9733   -6.4443   -1.4551 C   0  0  0  0  0  0  0  0  0  0  0  0
    2.1626   -7.8192    0.9724 C   0  0  0  0  0  0  0  0  0  0  0  0
    3.2899   -7.6390    0.1743 C   0  0  0  0  0  0  0  0  0  0  0  0
    4.4783  -13.5701   -6.1065 C   0  0  0  0  0  0  0  0  0  0  0  0
   -0.2730   -2.0500    0.6425 N   0  0  0  0  0  0  0  0  0  0  0  0
    4.1220  -12.4226   -6.6916 N   0  0  0  0  0  0  0  0  0  0  0  0
    4.5081  -14.4440   -7.1419 N   0  0  0  0  0  0  0  0  0  0  0  0
    2.4675   -8.5367    2.0913 N   0  0  0  0  0  0  0  0  0  0  0  0
    0.8281   -2.0531   -1.4203 N   0  0  0  0  0  0  0  0  0  0  0  0
    4.2797   -8.3949    0.7917 N   0  0  0  0  0  0  0  0  0  0  0  0
    1.9429   -5.8840   -2.7079 O   0  0  0  0  0  0  0  0  0  0  0  0
  4  3  2  0
  6  5  1  0
  8  7  2  0
 11  9  1  0
 12 10  1  0
 17  1  1  0
 18  2  1  0
 19  3  1  0
 19 13  2  0
 19 16  1  0
 20  4  1  0
 20  5  2  0
 21  6  2  0
 21 14  1  0
 22 13  1  0
 22 14  2  0
 22 20  1  0
 23  9  1  0
 23 10  1  0
 24  7  1  0
 24 15  2  0
 25  8  1  0
 26 15  1  0
 26 25  2  0
 27 21  1  0
 28 17  2  0
 29 27  2  0
 30 27  1  0
 31 18  2  0
 31 25  1  0
 32 11  1  0
 32 12  1  0
 32 17  1  0
 33 16  1  0
 33 18  1  0
 33 26  1  0
 34 23  1  0
 34 24  1  0
M  CHG  1  29   1
M  END
>  <DRUGBANK_ID>  (1) 
DB03373

>  <SECONDARY_ACCESSION_NUMBERS>  (1) 
EXPT00295

>  <COMMON_NAME>  (1) 
ZK-806711

$$$$
