
     RDKit          3D

 18 18  0  0  0  0  0  0  0  0999 V2000
   -1.1640    0.6157    0.0165 C   0  0  0  0  0  0  0  0  0  0  0  0
   -0.7534   -0.8071   -0.0060 C   0  0  0  0  0  0  0  0  0  0  0  0
    0.5471   -1.1536    0.0048 C   0  0  0  0  0  0  0  0  0  0  0  0
    1.6076   -0.1122    0.0089 C   0  0  0  0  0  0  0  0  0  0  0  0
    1.2003    1.3275   -0.0630 C   0  0  0  0  0  0  0  0  0  0  0  0
   -0.1057    1.6690   -0.0443 C   0  0  0  0  0  0  0  0  0  0  0  0
    2.7835   -0.4499    0.0614 O   0  0  0  0  0  0  0  0  0  0  0  0
   -2.3522    0.9145    0.0708 O   0  0  0  0  0  0  0  0  0  0  0  0
    0.2702    4.0625   -0.1126 C   0  0  0  0  0  0  0  0  0  0  0  0
   -1.8833   -1.7947   -0.0554 C   0  0  0  0  0  0  0  0  0  0  0  0
    1.0540   -2.5803   -0.0102 C   0  0  0  0  0  0  0  0  0  0  0  0
    0.5401   -3.3769    1.1602 C   0  0  0  0  0  0  0  0  0  0  0  0
   -0.2679   -4.4509    1.0571 C   0  0  0  0  0  0  0  0  0  0  0  0
   -0.8521   -5.1056    2.2753 C   0  0  0  0  0  0  0  0  0  0  0  0
   -0.6921   -5.0130   -0.2738 C   0  0  0  0  0  0  0  0  0  0  0  0
    2.1476    2.3346   -0.1420 O   0  0  0  0  0  0  0  0  0  0  0  0
   -0.6226    2.9590   -0.0781 O   0  0  0  0  0  0  0  0  0  0  0  0
    3.5343    2.0676   -0.1746 C   0  0  0  0  0  0  0  0  0  0  0  0
  1  2  1  0
  2  3  2  0
  4  3  1  0
  5  4  1  0
  6  1  1  0
  6  5  2  0
  7  4  2  0
  8  1  2  0
  9 17  1  0
 10  2  1  0
 11  3  1  0
 12 11  1  0
 13 12  2  3
 14 13  1  0
 15 13  1  0
 16  5  1  0
 16 18  1  0
 17  6  1  0
M  END
>  <DRUGBANK_ID>  (1) 
DB08689

>  <COMMON_NAME>  (1) 
Ubiquinone Q1

>  <CAS_NUMBER>  (1) 
727-81-1

>  <UNII>  (1) 
JR17826E4G

>  <SYNONYMS>  (1) 
Coenzyme Q1; Coenzyme Q5; CoQ1; Ubiquinone 5; Ubiquinone-1

$$$$
