
     RDKit          3D

  4  3  0  0  1  0  0  0  0  0999 V2000
    0.9737    0.0738    0.0621 C   0  0  0  0  0  0  0  0  0  0  0  0
    0.3637    0.0385   -1.6629 P   0  0  1  0  0  0  0  0  0  0  0  0
    0.1668   -1.5896   -1.6188 O   0  0  0  0  0  0  0  0  0  0  0  0
   -0.9592    0.6811   -1.2498 O   0  0  0  0  0  0  0  0  0  0  0  0
  2  1  1  1
  2  3  1  0
  2  4  2  0
M  END
>  <DRUGBANK_ID>  (1) 
DB02845

>  <SECONDARY_ACCESSION_NUMBERS>  (1) 
EXPT02226; DB04390

>  <COMMON_NAME>  (1) 
Methylphosphinic Acid

>  <CAS_NUMBER>  (1) 
4206-94-4

$$$$
