AI1
     RDKit          3D

 28 30  0  0  0  0  0  0  0  0999 V2000
   -0.0754    1.6882   -0.0803 C   0  0  2  0  0  0  0  0  0  0  0  0
    0.1878    2.1745   -1.4734 O   0  0  0  0  0  0  0  0  0  0  0  0
    0.9466    0.6279    0.4689 C   0  0  2  0  0  0  0  0  0  0  0  0
    2.2881    1.0566    0.2148 O   0  0  0  0  0  0  0  0  0  0  0  0
    0.6752   -0.7499   -0.1370 C   0  0  1  0  0  0  0  0  0  0  0  0
    1.4863   -1.8381    0.2890 O   0  0  0  0  0  0  0  0  0  0  0  0
   -0.9326   -1.0637   -0.0421 C   0  0  1  0  0  0  0  0  0  0  0  0
   -1.2021   -1.4813    1.2875 O   0  0  0  0  0  0  0  0  0  0  0  0
   -1.9039    0.1958   -0.3961 C   0  0  2  0  0  0  0  0  0  0  0  0
   -1.4520    1.3508    0.3031 O   0  0  0  0  0  0  0  0  0  0  0  0
   -3.3958   -0.1327   -0.4396 C   0  0  0  0  0  0  0  0  0  0  0  0
   -4.1444    1.0136   -0.8657 O   0  0  0  0  0  0  0  0  0  0  0  0
    0.0595    1.4436   -2.6203 C   0  0  0  0  0  0  0  0  0  0  0  0
   -0.3153    0.1259   -2.6236 C   0  0  0  0  0  0  0  0  0  0  0  0
   -0.5572   -0.8324   -3.5410 C   0  0  0  0  0  0  0  0  0  0  0  0
   -0.1410   -0.4079   -4.7194 C   0  0  0  0  0  0  0  0  0  0  0  0
   -0.0566    0.9725   -4.9578 C   0  0  0  0  0  0  0  0  0  0  0  0
    0.1736    1.9021   -3.8969 C   0  0  0  0  0  0  0  0  0  0  0  0
   -0.3935    1.4417   -6.3009 C   0  0  0  0  0  0  0  0  0  0  0  0
   -0.2201    2.6502   -6.5652 O   0  0  0  0  0  0  0  0  0  0  0  0
   -0.9508    0.6146   -7.2389 N   0  0  0  0  0  0  0  0  0  0  0  0
   -1.4507   -0.7625   -7.1642 C   0  0  0  0  0  0  0  0  0  0  0  0
   -2.8852   -0.9895   -7.4663 C   0  0  0  0  0  0  0  0  0  0  0  0
   -3.6680    0.0178   -8.0016 C   0  0  0  0  0  0  0  0  0  0  0  0
   -4.9752   -0.2588   -8.3448 C   0  0  0  0  0  0  0  0  0  0  0  0
   -5.5047   -1.5323   -8.1267 C   0  0  0  0  0  0  0  0  0  0  0  0
   -4.7472   -2.5281   -7.5153 C   0  0  0  0  0  0  0  0  0  0  0  0
   -3.4482   -2.2420   -7.1366 C   0  0  0  0  0  0  0  0  0  0  0  0
  1  3  1  0
  1 10  1  0
  1  2  1  6
  2 13  1  0
  3  4  1  6
  3  5  1  0
  5  6  1  1
  5  7  1  0
  7  8  1  1
  7  9  1  0
  9 10  1  0
  9 11  1  1
 11 12  1  0
 13 14  2  0
 13 18  1  0
 14 15  1  0
 15 16  2  0
 16 17  1  0
 17 18  2  0
 17 19  1  0
 19 20  2  0
 19 21  1  0
 21 22  1  0
 22 23  1  0
 23 24  2  0
 23 28  1  0
 24 25  1  0
 25 26  2  0
 26 27  1  0
 27 28  2  0
M  END
>  <DRUGBANK_ID>  (1) 
DB03446

>  <SECONDARY_ACCESSION_NUMBERS>  (1) 
EXPT00470

>  <COMMON_NAME>  (1) 
N-Benzyl-3-(alpha-D-galactopyranosyloxy)benzamide

>  <SYNONYMS>  (1) 
BAPG; N-Benzyl-3-(Î±-D-galactopyranosyloxy)benzamide

$$$$
