
     RDKit          3D

 28 29  0  0  0  0  0  0  0  0999 V2000
    1.0296    0.0975   -0.1742 C   0  0  0  0  0  0  0  0  0  0  0  0
    0.5497   -0.1619    1.1736 N   0  0  0  0  0  0  0  0  0  0  0  0
   -0.9372   -0.0274    1.2152 C   0  0  0  0  0  0  0  0  0  0  0  0
   -1.7570   -1.0408    0.4008 C   0  0  0  0  0  0  0  0  0  0  0  0
   -1.6424   -2.3394    1.0968 C   0  0  0  0  0  0  0  0  0  0  0  0
   -2.0822   -2.3964    2.5050 C   0  0  0  0  0  0  0  0  0  0  0  0
   -3.4852   -2.7979    2.6566 C   0  0  0  0  0  0  0  0  0  0  0  0
   -3.6679   -4.1402    1.9228 C   0  0  0  0  0  0  0  0  0  0  0  0
   -3.1164   -5.3138    2.6145 O   0  0  0  0  0  0  0  0  0  0  0  0
   -1.7640   -5.5806    2.6643 C   0  0  0  0  0  0  0  0  0  0  0  0
   -0.8625   -4.9083    3.5029 C   0  0  0  0  0  0  0  0  0  0  0  0
    0.5156   -4.9486    3.2689 C   0  0  0  0  0  0  0  0  0  0  0  0
    1.0385   -6.0381    2.5997 C   0  0  0  0  0  0  0  0  0  0  0  0
    0.1227   -6.9623    2.0836 C   0  0  0  0  0  0  0  0  0  0  0  0
    0.5155   -8.1630    1.6477 F   0  0  0  0  0  0  0  0  0  0  0  0
   -1.2546   -6.6960    2.0294 C   0  0  0  0  0  0  0  0  0  0  0  0
    2.5103   -6.2108    2.6000 C   0  0  0  0  0  0  0  0  0  0  0  0
    3.2662   -5.3110    3.0285 O   0  0  0  0  0  0  0  0  0  0  0  0
    3.1204   -7.4787    2.2063 C   0  0  0  0  0  0  0  0  0  0  0  0
    2.9867   -7.9572    0.8990 C   0  0  0  0  0  0  0  0  0  0  0  0
    3.4569   -9.2301    0.5869 C   0  0  0  0  0  0  0  0  0  0  0  0
    4.0987   -9.9881    1.5674 C   0  0  0  0  0  0  0  0  0  0  0  0
    4.7717  -11.6979    1.1273 Br  0  0  0  0  0  0  0  0  0  0  0  0
    4.2560   -9.4968    2.8653 C   0  0  0  0  0  0  0  0  0  0  0  0
    3.7624   -8.2357    3.1898 C   0  0  0  0  0  0  0  0  0  0  0  0
    1.2319   -1.3981    1.6738 C   0  0  0  0  0  0  0  0  0  0  0  0
    1.2230   -2.5776    0.6759 C   0  0  0  0  0  0  0  0  0  0  0  0
    2.0191   -3.5963    0.3713 C   0  0  0  0  0  0  0  0  0  0  0  0
  1  2  1  0
  2  3  1  0
  2 26  1  0
  3  4  1  0
  4  5  1  0
  5  6  1  0
  6  7  1  0
  7  8  1  0
  8  9  1  0
  9 10  1  0
 10 11  2  0
 10 16  1  0
 11 12  1  0
 12 13  2  0
 13 14  1  0
 13 17  1  0
 14 15  1  0
 14 16  2  0
 17 18  2  0
 17 19  1  0
 19 20  2  0
 19 25  1  0
 20 21  1  0
 21 22  2  0
 22 23  1  0
 22 24  1  0
 24 25  2  0
 26 27  1  0
 27 28  2  0
M  END
>  <DRUGBANK_ID>  (1) 
DB02016

>  <SECONDARY_ACCESSION_NUMBERS>  (1) 
EXPT02749

>  <COMMON_NAME>  (1) 
R048-8071

>  <CAS_NUMBER>  (1) 
161582-11-2

>  <UNII>  (1) 
YDR69X9Q9M

$$$$
