
     RDKit          3D

 24 26  0  0  0  0  0  0  0  0999 V2000
    0.3869   -0.5119    0.2220 O   0  0  0  0  0  0  0  0  0  0  0  0
    0.3513   -1.5266   -0.7288 N   0  0  0  0  0  0  0  0  0  0  0  0
    1.3532   -2.2880   -1.2321 C   0  0  0  0  0  0  0  0  0  0  0  0
    1.0276   -3.2994   -1.8630 O   0  0  0  0  0  0  0  0  0  0  0  0
    2.8421   -1.9726   -1.0781 C   0  0  0  0  0  0  0  0  0  0  0  0
    3.3189   -0.7103   -1.8002 C   0  0  0  0  0  0  0  0  0  0  0  0
    2.7661    0.5509   -1.1660 C   0  0  0  0  0  0  0  0  0  0  0  0
    3.1283    0.6015    0.3360 C   0  0  0  0  0  0  0  0  0  0  0  0
    4.5810    0.9596    0.5563 C   0  0  0  0  0  0  0  0  0  0  0  0
    4.8889    2.2185   -0.0724 N   0  0  0  0  0  0  0  0  0  0  0  0
    4.0482    3.2869    0.2299 C   0  0  0  0  0  0  0  0  0  0  0  0
    3.0821    3.2492    0.9910 O   0  0  0  0  0  0  0  0  0  0  0  0
    4.3262    4.5577   -0.4133 C   0  0  0  0  0  0  0  0  0  0  0  0
    3.5359    5.6547   -0.0592 C   0  0  0  0  0  0  0  0  0  0  0  0
    3.8545    6.9036   -0.5521 C   0  0  0  0  0  0  0  0  0  0  0  0
    4.9294    7.0358   -1.4315 C   0  0  0  0  0  0  0  0  0  0  0  0
    5.6905    5.9198   -1.8366 C   0  0  0  0  0  0  0  0  0  0  0  0
    5.3904    4.6544   -1.3065 C   0  0  0  0  0  0  0  0  0  0  0  0
    6.1617    3.5402   -1.6684 C   0  0  0  0  0  0  0  0  0  0  0  0
    7.1977    3.6560   -2.5954 C   0  0  0  0  0  0  0  0  0  0  0  0
    7.4926    4.9053   -3.1299 C   0  0  0  0  0  0  0  0  0  0  0  0
    6.7555    6.0287   -2.7423 C   0  0  0  0  0  0  0  0  0  0  0  0
    5.9039    2.2317   -1.0303 C   0  0  0  0  0  0  0  0  0  0  0  0
    6.5624    1.2566   -1.3531 O   0  0  0  0  0  0  0  0  0  0  0  0
  1  2  1  0
  2  3  1  0
  3  4  2  0
  3  5  1  0
  5  6  1  0
  6  7  1  0
  7  8  1  0
  8  9  1  0
  9 10  1  0
 10 11  1  0
 10 23  1  0
 11 12  2  0
 11 13  1  0
 13 14  2  0
 13 18  1  0
 14 15  1  0
 15 16  2  0
 16 17  1  0
 17 18  1  0
 17 22  2  0
 18 19  2  0
 19 20  1  0
 19 23  1  0
 20 21  2  0
 21 22  1  0
 23 24  2  0
M  END
>  <DRUGBANK_ID>  (1) 
DB17053

>  <COMMON_NAME>  (1) 
Scriptaid

>  <CAS_NUMBER>  (1) 
287383-59-9

>  <UNII>  (1) 
EJQ8CD8BSV

>  <SYNONYMS>  (1) 
1h-benz(de)isoquinoline-2(3h)-hexanamide, n-hydroxy-1,3-dioxo-; N-hydroxy-1,3-dioxo-1h-benz(de)isoquinoline-2(3h)-hexan amide

$$$$
