
     RDKit          3D

 22 24  0  0  0  0  0  0  0  0999 V2000
   -1.9315    0.9321   -0.0044 C   0  0  1  0  0  0  0  0  0  0  0  0
   -2.4034   -0.4387   -0.0289 N   0  0  0  0  0  0  0  0  0  0  0  0
   -1.3954   -1.3708   -0.0007 C   0  0  0  0  0  0  0  0  0  0  0  0
   -1.5015   -2.5883    0.0012 O   0  0  0  0  0  0  0  0  0  0  0  0
   -0.1343   -0.6533    0.0130 C   0  0  0  0  0  0  0  0  0  0  0  0
   -0.4162    0.7147    0.0242 C   0  0  0  0  0  0  0  0  0  0  0  0
    0.6674    1.5884    0.0529 C   0  0  0  0  0  0  0  0  0  0  0  0
    1.9795    1.0670    0.0253 C   0  0  0  0  0  0  0  0  0  0  0  0
    2.2173   -0.3167    0.0043 C   0  0  0  0  0  0  0  0  0  0  0  0
    1.1438   -1.1976    0.0052 C   0  0  0  0  0  0  0  0  0  0  0  0
   -2.5337    1.7566   -1.1700 C   0  0  0  0  0  0  0  0  0  0  0  0
   -3.9318    1.9613   -1.3546 C   0  0  0  0  0  0  0  0  0  0  0  0
   -4.4363    2.4945   -2.5698 C   0  0  0  0  0  0  0  0  0  0  0  0
   -6.1667    2.4920   -2.9579 S   0  0  0  0  0  0  0  0  0  0  0  0
   -6.6204    3.8557   -3.0934 O   0  0  0  0  0  0  0  0  0  0  0  0
   -6.4014    1.4809   -3.9620 O   0  0  0  0  0  0  0  0  0  0  0  0
   -6.9444    1.9349   -1.5656 N   0  0  0  0  0  0  0  0  0  0  0  0
   -3.5571    2.9830   -3.5358 C   0  0  0  0  0  0  0  0  0  0  0  0
   -2.1927    2.9767   -3.2695 C   0  0  0  0  0  0  0  0  0  0  0  0
   -1.6937    2.3292   -2.1376 C   0  0  0  0  0  0  0  0  0  0  0  0
   -4.0327    3.5466   -5.0968 Cl  0  0  0  0  0  0  0  0  0  0  0  0
   -2.3403    1.4751    1.2353 O   0  0  0  0  0  0  0  0  0  0  0  0
  1 22  1  1
  2  1  1  0
  3  2  1  0
  3  5  1  0
  4  3  2  0
  5  6  2  0
  6  1  1  0
  7  6  1  0
  8  7  2  0
  9  8  1  0
 10  9  2  0
 10  5  1  0
 11  1  1  0
 12 11  2  0
 13 12  1  0
 13 18  2  0
 14 13  1  0
 15 14  2  0
 16 14  2  0
 17 14  1  0
 18 19  1  0
 19 20  2  0
 20 11  1  0
 21 18  1  0
M  END
>  <DRUGBANK_ID>  (1) 
DB08046

>  <COMMON_NAME>  (1) 
2-chloro-5-[(1S)-1-hydroxy-3-oxo-2H-isoindol-1-yl]benzenesulfonamide

>  <CAS_NUMBER>  (1) 
1441368-51-9

>  <UNII>  (1) 
0953RA202M

$$$$
