
     RDKit          3D

 24 25  0  0  1  0  0  0  0  0999 V2000
   -6.4635   -0.9056   -5.4629 C   0  0  0  0  0  0  0  0  0  0  0  0
   -5.8386    0.0880   -4.6673 O   0  0  0  0  0  0  0  0  0  0  0  0
   -4.5316    0.4681   -5.0835 C   0  0  2  0  0  0  0  0  0  0  0  0
   -4.4842    1.4136   -6.1783 O   0  0  0  0  0  0  0  0  0  0  0  0
   -3.1577    1.9973   -6.1991 C   0  0  2  0  0  0  0  0  0  0  0  0
   -2.9962    3.2319   -7.0991 C   0  0  0  0  0  0  0  0  0  0  0  0
   -3.6977    4.3418   -6.5322 O   0  0  0  0  0  0  0  0  0  0  0  0
   -2.0464    0.9355   -6.4723 C   0  0  1  0  0  0  0  0  0  0  0  0
   -0.6788    1.4036   -6.3653 O   0  0  0  0  0  0  0  0  0  0  0  0
   -0.0796    1.6233   -5.0608 C   0  0  2  0  0  0  0  0  0  0  0  0
   -0.0879    0.4402   -4.2801 O   0  0  0  0  0  0  0  0  0  0  0  0
    0.2429    0.5579   -2.8921 C   0  0  2  0  0  0  0  0  0  0  0  0
    0.0242   -0.8249   -2.2557 C   0  0  0  0  0  0  0  0  0  0  0  0
    0.7594   -1.8217   -2.9586 O   0  0  0  0  0  0  0  0  0  0  0  0
   -0.6207    1.6084   -2.1734 C   0  0  2  0  0  0  0  0  0  0  0  0
   -2.0136    1.2189   -2.1301 O   0  0  0  0  0  0  0  0  0  0  0  0
   -0.4848    2.9614   -2.8759 C   0  0  2  0  0  0  0  0  0  0  0  0
   -1.4507    3.8763   -2.3239 O   0  0  0  0  0  0  0  0  0  0  0  0
   -0.7567    2.7992   -4.3566 C   0  0  1  0  0  0  0  0  0  0  0  0
   -0.6640    4.0113   -5.0786 O   0  0  0  0  0  0  0  0  0  0  0  0
   -2.2507   -0.3802   -5.7077 C   0  0  2  0  0  0  0  0  0  0  0  0
   -1.5585   -1.4539   -6.3642 O   0  0  0  0  0  0  0  0  0  0  0  0
   -3.6876   -0.7500   -5.4759 C   0  0  1  0  0  0  0  0  0  0  0  0
   -3.7432   -1.7983   -4.4954 O   0  0  0  0  0  0  0  0  0  0  0  0
  1  2  1  0
  3  4  1  0
  3 23  1  0
  3  2  1  6
  4  5  1  0
  5  6  1  6
  5  8  1  0
  6  7  1  0
  8 21  1  0
  8  9  1  1
 10 11  1  0
 10 19  1  0
 10  9  1  6
 11 12  1  0
 12 13  1  1
 12 15  1  0
 13 14  1  0
 15 16  1  6
 15 17  1  0
 17 18  1  1
 17 19  1  0
 19 20  1  6
 21 22  1  6
 21 23  1  0
 23 24  1  1
M  END
>  <DRUGBANK_ID>  (1) 
DB04681

>  <COMMON_NAME>  (1) 
BETA-METHYLLACTOSIDE

>  <UNII>  (1) 
868YEO5270

$$$$
