PO1
     RDKit          3D

 30 33  0  0  0  0  0  0  0  0999 V2000
   -4.5930   -0.1557   -0.2300 C   0  0  0  0  0  0  0  0  0  0  0  0
   -3.9821   -1.3996   -0.0122 C   0  0  0  0  0  0  0  0  0  0  0  0
   -6.9206   -2.0713   -1.4111 O   0  0  0  0  0  0  0  0  0  0  0  0
   -7.0161   -1.2257   -0.2384 S   0  0  0  0  0  0  0  0  0  0  0  0
   -7.0287   -1.7498    1.1120 O   0  0  0  0  0  0  0  0  0  0  0  0
   -8.5632   -0.5913   -0.4199 N   0  0  0  0  0  0  0  0  0  0  0  0
   -5.9650    0.0293   -0.3695 O   0  0  0  0  0  0  0  0  0  0  0  0
   -2.6141   -1.4826    0.1906 C   0  0  0  0  0  0  0  0  0  0  0  0
   -1.7984   -0.3532    0.1662 C   0  0  0  0  0  0  0  0  0  0  0  0
   -2.3852    0.9068   -0.0793 C   0  0  0  0  0  0  0  0  0  0  0  0
   -3.7800    0.9918   -0.2961 C   0  0  0  0  0  0  0  0  0  0  0  0
   -4.7666   -2.5023   -0.0071 O   0  0  0  0  0  0  0  0  0  0  0  0
   -4.2485   -3.7930    0.2221 C   0  0  0  0  0  0  0  0  0  0  0  0
   -0.3303   -0.5054    0.5218 C   0  0  2  0  0  0  0  0  0  0  0  0
    0.4665    0.6899   -0.0271 C   0  0  1  0  0  0  0  0  0  0  0  0
   -0.1627    1.9817    0.5026 C   0  0  0  0  0  0  0  0  0  0  0  0
   -1.5356    2.1610   -0.1432 C   0  0  0  0  0  0  0  0  0  0  0  0
    0.3137   -1.8676    0.1422 C   0  0  0  0  0  0  0  0  0  0  0  0
    1.8216   -1.9466    0.4564 C   0  0  0  0  0  0  0  0  0  0  0  0
    2.5737   -0.7584   -0.1619 C   0  0  2  0  0  0  0  0  0  0  0  0
    1.9071    0.5310    0.4032 C   0  0  1  0  0  0  0  0  0  0  0  0
    2.5439   -0.8964   -1.7000 C   0  0  0  0  0  0  0  0  0  0  0  0
    4.0221   -0.5047    0.3212 C   0  0  2  0  0  0  0  0  0  0  0  0
    4.1742    1.0087    0.0402 C   0  0  0  0  0  0  0  0  0  0  0  0
    2.8228    1.6585    0.0022 C   0  0  0  0  0  0  0  0  0  0  0  0
    5.0863   -1.1942   -0.3445 O   0  0  0  0  0  0  0  0  0  0  0  0
    6.5697   -0.5251   -0.1339 S   0  0  0  0  0  0  0  0  0  0  0  0
    6.7104    0.6223   -0.9927 O   0  0  0  0  0  0  0  0  0  0  0  0
    6.8433   -0.4422    1.2866 O   0  0  0  0  0  0  0  0  0  0  0  0
    7.6856   -1.5579   -0.8021 N   0  0  0  0  0  0  0  0  0  0  0  0
  1  2  2  0
  1  7  1  0
  1 11  1  0
  2  8  1  0
  2 12  1  0
  3  4  2  0
  4  5  2  0
  4  6  1  0
  4  7  1  0
  8  9  2  0
  9 10  1  0
  9 14  1  0
 10 11  2  0
 10 17  1  0
 12 13  1  0
 14 15  1  0
 14 18  1  6
 15 16  1  1
 15 21  1  0
 16 17  1  0
 18 19  1  0
 19 20  1  0
 20 21  1  0
 20 22  1  6
 20 23  1  0
 21 25  1  6
 23 24  1  0
 23 26  1  6
 24 25  1  0
 26 27  1  0
 27 28  2  0
 27 29  2  0
 27 30  1  0
M  END
>  <DRUGBANK_ID>  (1) 
DB08416

>  <COMMON_NAME>  (1) 
(9BETA,13ALPHA,14BETA,17ALPHA)-2-METHOXYESTRA-1,3,5(10)-TRIENE-3,17-DIYL DISULFAMATE

>  <UNII>  (1) 
S57SQE6LE5

$$$$
