749
     RDKit          3D

 21 23  0  0  1  0  0  0  0  0999 V2000
   -3.2945    0.2098   -0.4888 O   0  0  0  0  0  0  0  0  0  0  0  0
   -1.8387    0.3133    3.5357 O   0  0  0  0  0  0  0  0  0  0  0  0
   -3.7414   -0.5783    2.8072 O   0  0  0  0  0  0  0  0  0  0  0  0
   -0.0051    1.6266    0.0782 N   0  0  0  0  0  0  0  0  0  0  0  0
   -2.5407    1.2271    0.2135 C   0  0  0  0  0  0  0  0  0  0  0  0
   -1.1075    0.8171    0.1188 C   0  0  0  0  0  0  0  0  0  0  0  0
   -0.6789   -0.4841    0.0473 C   0  0  0  0  0  0  0  0  0  0  0  0
   -1.6280   -1.6185    0.0084 C   0  0  0  0  0  0  0  0  0  0  0  0
   -2.7652    2.5488   -0.5920 C   0  0  0  0  0  0  0  0  0  0  0  0
   -2.9623    1.4347    1.6919 C   0  0  0  0  0  0  0  0  0  0  0  0
    0.7331   -0.4787    0.0113 C   0  0  0  0  0  0  0  0  0  0  0  0
   -3.0900   -1.1510   -0.0737 C   0  0  0  0  0  0  0  0  0  0  0  0
    1.1409    0.8571    0.0208 C   0  0  0  0  0  0  0  0  0  0  0  0
    2.4925    1.2392   -0.0278 C   0  0  0  0  0  0  0  0  0  0  0  0
   -4.2187    3.0100   -0.6209 C   0  0  0  0  0  0  0  0  0  0  0  0
    1.6973   -1.4978   -0.0342 C   0  0  0  0  0  0  0  0  0  0  0  0
   -2.8764    0.2863    2.6798 C   0  0  0  0  0  0  0  0  0  0  0  0
    2.9592    2.6711   -0.0086 C   0  0  0  0  0  0  0  0  0  0  0  0
    3.4292    0.1858   -0.0857 C   0  0  0  0  0  0  0  0  0  0  0  0
    3.0449   -1.1528   -0.0797 C   0  0  0  0  0  0  0  0  0  0  0  0
    3.8223    2.9579    1.2103 C   0  0  0  0  0  0  0  0  0  0  0  0
  1  5  1  0
  1 12  1  0
  2 17  1  0
  3 17  2  0
  4  6  1  0
  4 13  1  0
  5  6  1  0
  5  9  1  0
  5 10  1  0
  6  7  2  0
  7  8  1  0
  7 11  1  0
  8 12  1  0
  9 15  1  0
 10 17  1  0
 11 13  2  0
 11 16  1  0
 13 14  1  0
 14 18  1  0
 14 19  2  0
 16 20  2  0
 18 21  1  0
 19 20  1  0
M  END
>  <DRUGBANK_ID>  (1) 
DB00749

>  <SECONDARY_ACCESSION_NUMBERS>  (1) 
APRD00067

>  <COMMON_NAME>  (1) 
Etodolac

>  <CAS_NUMBER>  (1) 
41340-25-4

>  <UNII>  (1) 
2M36281008

>  <SYNONYMS>  (1) 
(±)-1,8-diethyl-1,3,4,9-tetrahydropyrano(3,4-b)indole-1-acetic acid; (1,8-Diethyl-1,3,4,9-tetrahydro-pyrano[3,4-b]indol-1-yl)-acetic acid; 1,3,4,9-tetrahydro-1,8-diethylpyrano(3,4-b)indole-1-acetic acid; 1,8-diethyl-1,3,4,9-tetrahydropyrano(3,4-b)indole-1-acetic acid; 1,8-diethyl-1,3,4,9-tetrahydropyrano[3,4-b]indol-1-ylacetic acid; Étodolac; Etodolac; Etodolaco; Etodolacum; Etodolic acid; Etodolsäure

$$$$
