
     RDKit          3D

 35 39  0  0  0  0  0  0  0  0999 V2000
    0.8182    1.5739    0.6844 C   0  0  0  0  0  0  0  0  0  0  0  0
    2.1829    1.5356    1.6284 C   0  0  1  0  0  0  0  0  0  0  0  0
   -0.3984   -1.0227    1.8481 C   0  0  0  0  0  0  0  0  0  0  0  0
   -0.5052    0.6604    1.2959 C   0  0  0  0  0  0  0  0  0  0  0  0
    2.0814    0.1685    2.4015 C   0  0  2  0  0  0  0  0  0  0  0  0
    0.8538   -0.7851    2.7780 C   0  0  2  0  0  0  0  0  0  0  0  0
    1.5179   -3.3470    2.6224 C   0  0  0  0  0  0  0  0  0  0  0  0
    0.8230   -3.6446    1.3337 C   0  0  0  0  0  0  0  0  0  0  0  0
   -0.6292   -2.4799    1.3510 C   0  0  0  0  0  0  0  0  0  0  0  0
    1.4414   -2.0850    2.2698 C   0  0  0  0  0  0  0  0  0  0  0  0
    4.4875   -0.3281    2.2713 C   0  0  0  0  0  0  0  0  0  0  0  0
    3.3362   -0.3108    3.2545 C   0  0  2  0  0  0  0  0  0  0  0  0
    3.9496    0.5854   -0.4904 C   0  0  0  0  0  0  0  0  0  0  0  0
    5.3196    0.6095   -1.1252 C   0  0  1  0  0  0  0  0  0  0  0  0
    6.0958    0.9628    0.5911 C   0  0  2  0  0  0  0  0  0  0  0  0
    1.4787   -4.0134    0.3519 O   0  0  0  0  0  0  0  0  0  0  0  0
    2.2304   -0.4671    0.7267 Cl  0  0  0  0  0  0  0  0  0  0  0  0
    4.8595    1.0700    1.6037 C   0  0  2  0  0  0  0  0  0  0  0  0
    4.9511    2.1123    2.6976 C   0  0  0  0  0  0  0  0  0  0  0  0
    3.7256    1.5503    0.7095 C   0  0  2  0  0  0  0  0  0  0  0  0
    0.4605   -0.4330    4.2325 C   0  0  0  0  0  0  0  0  0  0  0  0
    3.2250   -1.6249    3.8624 O   0  0  0  0  0  0  0  0  0  0  0  0
    4.3330   -0.3613   -2.3500 C   0  0  0  0  0  0  0  0  0  0  0  0
    7.5395    1.8430    0.8731 C   0  0  0  0  0  0  0  0  0  0  0  0
    8.2361    2.0993    2.5452 C   0  0  0  0  0  0  0  0  0  0  0  0
    8.2270    2.0423   -0.1417 O   0  0  0  0  0  0  0  0  0  0  0  0
    9.7772    1.1237    3.4428 Cl  0  0  0  0  0  0  0  0  0  0  0  0
    6.8215   -0.1841    1.1630 O   0  0  0  0  0  0  0  0  0  0  0  0
    8.0954   -0.3126    1.7492 C   0  0  0  0  0  0  0  0  0  0  0  0
    9.1221   -0.0833    1.2530 O   0  0  0  0  0  0  0  0  0  0  0  0
    7.7143   -0.9621    3.0180 C   0  0  0  0  0  0  0  0  0  0  0  0
    7.4195   -0.3856    4.2566 O   0  0  0  0  0  0  0  0  0  0  0  0
    6.9755   -2.0864    2.8686 C   0  0  0  0  0  0  0  0  0  0  0  0
    6.3502   -2.3518    4.0778 C   0  0  0  0  0  0  0  0  0  0  0  0
    6.7149   -1.3489    4.9487 C   0  0  0  0  0  0  0  0  0  0  0  0
  2  1  1  6
  2  5  1  0
  3  4  1  0
  4  1  1  0
  5 12  1  0
  5  6  1  0
  5 17  1  6
  6  3  1  0
  6 10  1  0
  6 21  1  1
  7  8  1  0
  7 10  2  0
  8  9  1  0
  8 16  2  0
  9  3  2  0
 11 12  1  0
 12 22  1  6
 13 14  1  0
 14 23  1  6
 15 14  1  0
 15 24  1  0
 15 28  1  1
 18 11  1  0
 18 15  1  0
 18 19  1  1
 20  2  1  0
 20 13  1  6
 20 18  1  0
 24 25  1  0
 24 26  2  0
 25 27  1  0
 28 29  1  0
 29 30  2  0
 29 31  1  0
 31 33  2  0
 32 31  1  0
 32 35  1  0
 33 34  1  0
 34 35  2  0
M  END
>  <DRUGBANK_ID>  (1) 
DB14512

>  <SECONDARY_ACCESSION_NUMBERS>  (1) 
DBSALT002454

>  <COMMON_NAME>  (1) 
Mometasone furoate

>  <CAS_NUMBER>  (1) 
83919-23-7

>  <UNII>  (1) 
04201GDN4R

>  <SYNONYMS>  (1) 
Mometasone furoate; Mometasone furoate anhydrous

$$$$
