
     RDKit          3D

 31 32  0  0  0  0  0  0  0  0999 V2000
    1.0314   -0.0276    0.0497 C   0  0  0  0  0  0  0  0  0  0  0  0
    0.4798   -1.2349   -0.4566 O   0  0  0  0  0  0  0  0  0  0  0  0
    0.8021   -1.4776   -1.7725 C   0  0  0  0  0  0  0  0  0  0  0  0
    2.1050   -1.3124   -2.2696 C   0  0  0  0  0  0  0  0  0  0  0  0
    2.4311   -1.7431   -3.5631 C   0  0  0  0  0  0  0  0  0  0  0  0
    1.4834   -2.4330   -4.3232 C   0  0  0  0  0  0  0  0  0  0  0  0
    0.2089   -2.6105   -3.7854 C   0  0  0  0  0  0  0  0  0  0  0  0
   -0.1907   -2.0764   -2.5638 C   0  0  0  0  0  0  0  0  0  0  0  0
   -1.4872   -2.2430   -2.1011 N   0  0  0  0  0  0  0  0  0  0  0  0
   -2.6033   -2.6063   -2.9819 C   0  0  0  0  0  0  0  0  0  0  0  0
   -3.4592   -3.6600   -2.3190 C   0  0  0  0  0  0  0  0  0  0  0  0
   -4.6776   -3.5969   -2.1472 O   0  0  0  0  0  0  0  0  0  0  0  0
   -2.7656   -4.7513   -1.9361 O   0  0  0  0  0  0  0  0  0  0  0  0
    1.7955   -2.9724   -5.6904 C   0  0  0  0  0  0  0  0  0  0  0  0
    1.4122   -4.7120   -5.8648 S   0  0  0  0  0  0  0  0  0  0  0  0
   -0.0097   -4.9292   -5.7416 O   0  0  0  0  0  0  0  0  0  0  0  0
    2.0624   -5.1481   -7.1002 O   0  0  0  0  0  0  0  0  0  0  0  0
    2.1840   -5.5201   -4.5289 C   0  0  0  0  0  0  0  0  0  0  0  0
    3.3883   -5.1555   -4.0547 C   0  0  0  0  0  0  0  0  0  0  0  0
    4.2203   -5.9728   -3.1340 C   0  0  0  0  0  0  0  0  0  0  0  0
    4.9504   -7.0860   -3.6086 C   0  0  0  0  0  0  0  0  0  0  0  0
    5.9055   -7.6995   -2.7745 C   0  0  0  0  0  0  0  0  0  0  0  0
    6.2011   -7.2167   -1.5040 C   0  0  0  0  0  0  0  0  0  0  0  0
    5.5130   -6.1109   -1.0424 C   0  0  0  0  0  0  0  0  0  0  0  0
    4.4696   -5.5574   -1.7948 C   0  0  0  0  0  0  0  0  0  0  0  0
    3.7747   -4.6594   -1.0241 O   0  0  0  0  0  0  0  0  0  0  0  0
    2.5367   -4.2471   -1.5398 C   0  0  0  0  0  0  0  0  0  0  0  0
    7.1046   -7.7517   -0.6295 O   0  0  0  0  0  0  0  0  0  0  0  0
    7.6930   -8.9880   -1.0175 C   0  0  0  0  0  0  0  0  0  0  0  0
    4.9279   -7.7048   -4.8393 O   0  0  0  0  0  0  0  0  0  0  0  0
    3.9362   -7.3543   -5.7832 C   0  0  0  0  0  0  0  0  0  0  0  0
  1  2  1  0
  2  3  1  0
  3  4  2  0
  3  8  1  0
  4  5  1  0
  5  6  2  0
  6  7  1  0
  6 14  1  0
  7  8  2  0
  8  9  1  0
  9 10  1  0
 10 11  1  0
 11 12  2  0
 11 13  1  0
 14 15  1  0
 15 16  2  0
 15 17  2  0
 15 18  1  0
 18 19  2  0
 19 20  1  0
 20 21  2  0
 20 25  1  0
 21 22  1  0
 21 30  1  0
 22 23  2  0
 23 24  1  0
 23 28  1  0
 24 25  2  0
 25 26  1  0
 26 27  1  0
 28 29  1  0
 30 31  1  0
M  END
>  <DRUGBANK_ID>  (1) 
DB12146

>  <COMMON_NAME>  (1) 
Rigosertib

>  <CAS_NUMBER>  (1) 
592542-59-1

>  <UNII>  (1) 
67DOW7F9GL

>  <SYNONYMS>  (1) 
Rigosertib

$$$$
