
     RDKit          3D

 19 21  0  0  0  0  0  0  0  0999 V2000
    1.5338    1.0774    0.0389 N   0  0  0  0  0  0  0  0  0  0  0  0
    0.2328    0.6331    0.0355 C   0  0  0  0  0  0  0  0  0  0  0  0
    2.0098    2.4522   -0.0464 C   0  0  2  0  0  0  0  0  0  0  0  0
    2.3397   -0.0314    0.0238 C   0  0  0  0  0  0  0  0  0  0  0  0
    0.3160   -0.7575    0.0213 C   0  0  0  0  0  0  0  0  0  0  0  0
   -0.9944    1.2624    0.0258 C   0  0  0  0  0  0  0  0  0  0  0  0
    1.5224    3.2281    1.0677 O   0  0  0  0  0  0  0  0  0  0  0  0
    1.5757    3.1862   -1.3127 C   0  0  1  0  0  0  0  0  0  0  0  0
    1.6419   -1.1491    0.0187 N   0  0  0  0  0  0  0  0  0  0  0  0
   -0.8862   -1.5092    0.0012 C   0  0  0  0  0  0  0  0  0  0  0  0
   -2.1183    0.4683    0.0054 C   0  0  0  0  0  0  0  0  0  0  0  0
    1.2514    4.5818    0.6222 C   0  0  1  0  0  0  0  0  0  0  0  0
    1.5963    4.6442   -0.8693 C   0  0  1  0  0  0  0  0  0  0  0  0
    2.4212    2.9251   -2.4272 O   0  0  0  0  0  0  0  0  0  0  0  0
   -2.0854   -0.8753   -0.0060 N   0  0  0  0  0  0  0  0  0  0  0  0
   -0.9165   -2.8836   -0.0246 N   0  0  0  0  0  0  0  0  0  0  0  0
   -0.1965    4.9900    0.9585 C   0  0  0  0  0  0  0  0  0  0  0  0
    2.9014    5.2004   -1.0849 O   0  0  0  0  0  0  0  0  0  0  0  0
   -1.2072    4.3280    0.2180 O   0  0  0  0  0  0  0  0  0  0  0  0
  1  2  1  0
  1  4  1  0
  2  5  2  0
  2  6  1  0
  3  1  1  6
  3  7  1  0
  3  8  1  0
  4  9  2  0
  5 10  1  0
  5  9  1  0
  6 11  2  0
  7 12  1  0
  8 13  1  0
  8 14  1  6
 10 15  2  0
 10 16  1  0
 11 15  1  0
 12 13  1  0
 12 17  1  6
 13 18  1  1
 17 19  1  0
M  END
>  <DRUGBANK_ID>  (1) 
DB04546

>  <SECONDARY_ACCESSION_NUMBERS>  (1) 
EXPT00425

>  <COMMON_NAME>  (1) 
3-Deazaadenosine

>  <CAS_NUMBER>  (1) 
6736-58-9

>  <UNII>  (1) 
037V4520IY

>  <SYNONYMS>  (1) 
3-deaza-adenosine; Deaza-Ado

$$$$
