
     RDKit          3D

 39 43  0  0  1  0  0  0  0  0999 V2000
    0.9197   -0.2609    0.1611 C   0  0  0  0  0  0  0  0  0  0  0  0
    0.4497   -0.0744   -1.2867 C   0  0  0  0  0  0  0  0  0  0  0  0
    0.7140   -1.3044   -2.1460 C   0  0  0  0  0  0  0  0  0  0  0  0
   -1.0941    0.1470   -1.3718 C   0  0  0  0  0  0  0  0  0  0  0  0
   -1.5772    1.2695   -0.4995 C   0  0  0  0  0  0  0  0  0  0  0  0
   -1.9858    0.9708    0.7998 C   0  0  0  0  0  0  0  0  0  0  0  0
   -2.1871    1.9918    1.7151 C   0  0  0  0  0  0  0  0  0  0  0  0
   -1.9789    3.3271    1.3560 C   0  0  0  0  0  0  0  0  0  0  0  0
   -1.5628    3.6225    0.0522 C   0  0  0  0  0  0  0  0  0  0  0  0
   -1.4294    2.6025   -0.8922 C   0  0  0  0  0  0  0  0  0  0  0  0
   -2.1952    4.4080    2.1923 O   0  0  0  0  0  0  0  0  0  0  0  0
   -2.6252    4.1604    3.4848 C   0  0  0  0  0  0  0  0  0  0  0  0
   -1.8059    3.4679    4.3671 C   0  0  0  0  0  0  0  0  0  0  0  0
   -2.2710    3.1970    5.6513 C   0  0  0  0  0  0  0  0  0  0  0  0
   -3.5121    3.6840    6.0539 C   0  0  0  0  0  0  0  0  0  0  0  0
   -4.2422    4.4175    5.1198 C   0  0  0  0  0  0  0  0  0  0  0  0
   -3.8278    4.6628    3.8416 N   0  0  0  0  0  0  0  0  0  0  0  0
   -4.0765    3.4712    7.4200 C   0  0  0  0  0  0  0  0  0  0  0  0
   -5.1429    3.9228    7.7455 O   0  0  0  0  0  0  0  0  0  0  0  0
   -3.3244    2.7314    8.3112 N   0  0  0  0  0  0  0  0  0  0  0  0
    1.2403    1.0452   -1.7716 N   0  0  0  0  0  0  0  0  0  0  0  0
    2.7242    0.8495   -1.7524 C   0  0  0  0  0  0  0  0  0  0  0  0
    3.2974    0.0833   -2.9185 C   0  0  1  0  0  0  0  0  0  0  0  0
    2.5832    0.5335   -4.1966 C   0  0  0  0  0  0  0  0  0  0  0  0
    2.8875    1.8693   -4.5769 O   0  0  0  0  0  0  0  0  0  0  0  0
    2.5881    3.0278   -3.9482 C   0  0  0  0  0  0  0  0  0  0  0  0
    2.4354    3.4559   -2.6352 C   0  0  0  0  0  0  0  0  0  0  0  0
    2.5485    4.7338   -2.1406 C   0  0  0  0  0  0  0  0  0  0  0  0
    2.5640    5.7737   -3.0306 C   0  0  0  0  0  0  0  0  0  0  0  0
    2.4986    5.4153   -4.3901 C   0  0  0  0  0  0  0  0  0  0  0  0
    2.3925    4.0938   -4.7900 C   0  0  0  0  0  0  0  0  0  0  0  0
    1.7163    4.1263   -6.0089 C   0  0  0  0  0  0  0  0  0  0  0  0
    0.7636    3.2741   -6.5780 C   0  0  0  0  0  0  0  0  0  0  0  0
    0.4213    3.4409   -7.8999 C   0  0  0  0  0  0  0  0  0  0  0  0
    1.1798    4.3193   -8.6643 C   0  0  0  0  0  0  0  0  0  0  0  0
    2.0743    5.2588   -8.0690 C   0  0  0  0  0  0  0  0  0  0  0  0
    2.1695    5.2538   -6.6603 C   0  0  0  0  0  0  0  0  0  0  0  0
    2.5498    6.0979   -5.6046 N   0  0  0  0  0  0  0  0  0  0  0  0
    4.7104    0.3073   -3.0070 O   0  0  0  0  0  0  0  0  0  0  0  0
  1  2  1  0
  2  3  1  0
  2  4  1  0
  2 21  1  0
  4  5  1  0
  5  6  2  0
  5 10  1  0
  6  7  1  0
  7  8  2  0
  8  9  1  0
  8 11  1  0
  9 10  2  0
 11 12  1  0
 12 13  2  0
 12 17  1  0
 13 14  1  0
 14 15  2  0
 15 16  1  0
 15 18  1  0
 16 17  2  0
 18 19  2  0
 18 20  1  0
 21 22  1  0
 22 23  1  0
 23 24  1  0
 23 39  1  6
 24 25  1  0
 25 26  1  0
 26 27  2  0
 26 31  1  0
 27 28  1  0
 28 29  2  0
 29 30  1  0
 30 31  2  0
 30 38  1  0
 31 32  1  0
 32 33  2  0
 32 37  1  0
 33 34  1  0
 34 35  2  0
 35 36  1  0
 36 37  2  0
 37 38  1  0
M  END
>  <DRUGBANK_ID>  (1) 
DB12858

>  <COMMON_NAME>  (1) 
LY-377604

>  <CAS_NUMBER>  (1) 
204592-94-9

>  <UNII>  (1) 
OCC6TB3P6K

$$$$
