
     RDKit          3D

 17 18  0  0  0  0  0  0  0  0999 V2000
   -0.7893   -0.9668   -0.1187 N   0  0  0  0  0  0  0  0  0  0  0  0
   -1.5799   -2.0071   -0.6635 C   0  0  0  0  0  0  0  0  0  0  0  0
    0.5947   -1.0795    0.0464 C   0  0  0  0  0  0  0  0  0  0  0  0
   -1.1763    0.3682   -0.2308 N   0  0  0  0  0  0  0  0  0  0  0  0
   -1.6386   -3.2331    0.0025 C   0  0  0  0  0  0  0  0  0  0  0  0
   -2.3591   -1.8259   -1.8173 C   0  0  0  0  0  0  0  0  0  0  0  0
    1.1423    0.3350    0.0592 C   0  0  0  0  0  0  0  0  0  0  0  0
    1.2707   -2.0999    0.1042 O   0  0  0  0  0  0  0  0  0  0  0  0
   -0.0684    1.1900   -0.1997 C   0  0  0  0  0  0  0  0  0  0  0  0
   -2.5016   -4.2417   -0.4366 C   0  0  0  0  0  0  0  0  0  0  0  0
   -3.2273   -2.8374   -2.2536 C   0  0  0  0  0  0  0  0  0  0  0  0
    1.8173    0.6812    1.3917 C   0  0  0  0  0  0  0  0  0  0  0  0
   -0.0828    2.4068   -0.3456 O   0  0  0  0  0  0  0  0  0  0  0  0
   -3.2931   -4.0475   -1.5661 C   0  0  0  0  0  0  0  0  0  0  0  0
    3.0878   -0.1468    1.6439 C   0  0  0  0  0  0  0  0  0  0  0  0
    4.1388    0.0208    0.5435 C   0  0  0  0  0  0  0  0  0  0  0  0
    4.6246    1.4590    0.4576 C   0  0  0  0  0  0  0  0  0  0  0  0
  1  2  1  0
  1  3  1  0
  1  4  1  0
  2  5  2  0
  2  6  1  0
  3  7  1  0
  3  8  2  0
  4  9  1  0
  5 10  1  0
  6 11  2  0
  7 12  1  0
  7  9  1  0
  9 13  2  0
 10 14  2  0
 11 14  1  0
 12 15  1  0
 15 16  1  0
 16 17  1  0
M  END
>  <DRUGBANK_ID>  (1) 
DB13629

>  <COMMON_NAME>  (1) 
Mofebutazone

>  <CAS_NUMBER>  (1) 
2210-63-1

>  <UNII>  (1) 
SPW36WUI5Z

>  <SYNONYMS>  (1) 
Mofebutazona; Mofebutazone; Mofebutazonum

$$$$
