
     RDKit          3D

 13 13  0  0  0  0  0  0  0  0999 V2000
    1.1245   -0.0137    0.0371 C   0  0  0  0  0  0  0  0  0  0  0  0
   -3.3299    1.9553    2.1362 C   0  0  0  0  0  0  0  0  0  0  0  0
   -4.0833    2.5626    3.1452 C   0  0  0  0  0  0  0  0  0  0  0  0
   -1.9772    0.8297    3.8149 C   0  0  0  0  0  0  0  0  0  0  0  0
   -0.9031    1.3074    0.2936 C   0  0  0  0  0  0  0  0  0  0  0  0
   -2.2704    1.1065    2.4760 C   0  0  0  0  0  0  0  0  0  0  0  0
   -3.7737    2.3043    4.4792 C   0  0  0  0  0  0  0  0  0  0  0  0
   -2.7313    1.4376    4.8069 C   0  0  0  0  0  0  0  0  0  0  0  0
   -1.4728    0.4468    1.4250 C   0  0  0  0  0  0  0  0  0  0  0  0
    0.5705    1.3149    0.2783 N   0  0  0  0  0  0  0  0  0  0  0  0
   -4.4711    2.8809    5.5039 O   0  0  0  0  0  0  0  0  0  0  0  0
   -2.4283    1.1701    6.1113 O   0  0  0  0  0  0  0  0  0  0  0  0
   -1.2948   -0.7680    1.5233 O   0  0  0  0  0  0  0  0  0  0  0  0
  3  2  2  0
  6  2  1  0
  6  4  2  0
  7  3  1  0
  8  4  1  0
  8  7  2  0
  9  5  1  0
  9  6  1  0
 10  1  1  0
 10  5  1  0
 11  7  1  0
 12  8  1  0
 13  9  2  0
M  END
>  <DRUGBANK_ID>  (1) 
DB13394

>  <COMMON_NAME>  (1) 
Adrenalone

>  <CAS_NUMBER>  (1) 
99-45-6

>  <UNII>  (1) 
EGU41QL329

>  <SYNONYMS>  (1) 
3',4'-dihydroxy-2-(methylamino)acetophenone; 4-Methylaminoacetocatechol; Adrenalona; Adrenalone; Adrenone

$$$$
