
     RDKit          3D

 29 32  0  0  0  0  0  0  0  0999 V2000
    0.7015   -0.2223    0.1954 C   0  0  0  0  0  0  0  0  0  0  0  0
    0.0795   -1.0332   -0.8454 N   0  0  0  0  0  0  0  0  0  0  0  0
   -1.3553   -1.0159   -0.8076 C   0  0  0  0  0  0  0  0  0  0  0  0
    0.4700   -0.7479   -2.2150 C   0  0  0  0  0  0  0  0  0  0  0  0
    0.4092    0.6817   -2.7891 C   0  0  0  0  0  0  0  0  0  0  0  0
    1.1482    1.8063   -2.0544 C   0  0  0  0  0  0  0  0  0  0  0  0
    2.5998    1.8104   -2.0456 O   0  0  0  0  0  0  0  0  0  0  0  0
    3.3125    0.6779   -1.7677 C   0  0  0  0  0  0  0  0  0  0  0  0
    3.2768   -0.4743   -2.5160 C   0  0  0  0  0  0  0  0  0  0  0  0
    3.6231   -1.7199   -1.9463 C   0  0  0  0  0  0  0  0  0  0  0  0
    4.4558   -1.6884   -0.8440 C   0  0  0  0  0  0  0  0  0  0  0  0
    4.8463   -0.4905   -0.2601 C   0  0  0  0  0  0  0  0  0  0  0  0
    4.2194    0.6930   -0.7250 C   0  0  0  0  0  0  0  0  0  0  0  0
    5.8278   -0.8887    0.6857 C   0  0  0  0  0  0  0  0  0  0  0  0
    5.9932   -2.2338    0.7139 N   0  0  0  0  0  0  0  0  0  0  0  0
    5.0995   -2.6880   -0.1738 N   0  0  0  0  0  0  0  0  0  0  0  0
    6.8298    0.1865    1.6398 S   0  0  0  0  0  0  0  0  0  0  0  0
    6.5109   -0.1455    3.0276 O   0  0  0  0  0  0  0  0  0  0  0  0
    8.1419   -0.0495    1.0963 O   0  0  0  0  0  0  0  0  0  0  0  0
    6.3028    1.8874    1.3931 C   0  0  0  0  0  0  0  0  0  0  0  0
    4.9956    2.2109    1.8210 C   0  0  0  0  0  0  0  0  0  0  0  0
    4.4457    3.4616    1.5349 C   0  0  0  0  0  0  0  0  0  0  0  0
    5.2254    4.4319    0.9127 C   0  0  0  0  0  0  0  0  0  0  0  0
    6.5666    4.1772    0.5852 C   0  0  0  0  0  0  0  0  0  0  0  0
    7.1295    2.8853    0.8007 C   0  0  0  0  0  0  0  0  0  0  0  0
    8.4813    2.7214    0.4212 C   0  0  0  0  0  0  0  0  0  0  0  0
    9.2529    3.7609   -0.0928 C   0  0  0  0  0  0  0  0  0  0  0  0
    8.6931    5.0115   -0.2715 C   0  0  0  0  0  0  0  0  0  0  0  0
    7.3541    5.2154    0.0528 C   0  0  0  0  0  0  0  0  0  0  0  0
  1  2  1  0
  2  3  1  0
  2  4  1  0
  4  5  1  0
  5  6  1  0
  6  7  1  0
  7  8  1  0
  8  9  2  0
  8 13  1  0
  9 10  1  0
 10 11  2  0
 11 12  1  0
 11 16  1  0
 12 13  2  0
 12 14  1  0
 14 15  2  0
 14 17  1  0
 15 16  1  0
 17 18  2  0
 17 19  2  0
 17 20  1  0
 20 21  2  0
 20 25  1  0
 21 22  1  0
 22 23  2  0
 23 24  1  0
 24 25  2  0
 24 29  1  0
 25 26  1  0
 26 27  2  0
 27 28  1  0
 28 29  2  0
M  END
>  <DRUGBANK_ID>  (1) 
DB12229

>  <COMMON_NAME>  (1) 
Cerlapirdine

>  <CAS_NUMBER>  (1) 
925448-93-7

>  <UNII>  (1) 
EK40PJ0V49

>  <SYNONYMS>  (1) 
Cerlapirdine

$$$$
