
     RDKit          3D

 12 12  0  0  1  0  0  0  0  0999 V2000
   -1.3850   -0.3986    0.0054 C   0  0  0  0  0  0  0  0  0  0  0  0
   -0.8552   -2.8234    0.0087 C   0  0  0  0  0  0  0  0  0  0  0  0
   -0.4603   -1.3737    0.0081 C   0  0  0  0  0  0  0  0  0  0  0  0
   -1.0869    1.0548   -0.0247 C   0  0  1  0  0  0  0  0  0  0  0  0
    1.0047   -1.0888   -0.0466 C   0  0  2  0  0  0  0  0  0  0  0  0
    0.3990    1.4837    0.0123 C   0  0  1  0  0  0  0  0  0  0  0  0
    1.4686    0.3799    0.0326 C   0  0  1  0  0  0  0  0  0  0  0  0
   -1.6289   -3.1048    1.1664 O   0  0  0  0  0  0  0  0  0  0  0  0
   -1.7345    1.5654   -1.1914 O   0  0  0  0  0  0  0  0  0  0  0  0
    1.4716   -1.6421   -1.2835 O   0  0  0  0  0  0  0  0  0  0  0  0
    0.7420    2.3691   -1.0773 O   0  0  0  0  0  0  0  0  0  0  0  0
    2.2549    0.5609    1.2312 O   0  0  0  0  0  0  0  0  0  0  0  0
  3  1  2  0
  3  2  1  0
  4  1  1  0
  4  9  1  6
  5  3  1  0
  5 10  1  6
  6  4  1  0
  6 11  1  6
  7  5  1  0
  7  6  1  0
  7 12  1  1
  8  2  1  0
M  END
>  <DRUGBANK_ID>  (1) 
DB03092

>  <SECONDARY_ACCESSION_NUMBERS>  (1) 
EXPT01756

>  <COMMON_NAME>  (1) 
5-Hydroxymethyl-Chonduritol

>  <UNII>  (1) 
J5344DZ89S

$$$$
