
     RDKit          3D

 20 22  0  0  0  0  0  0  0  0999 V2000
    0.9060    0.0736    0.0402 C   0  0  0  0  0  0  0  0  0  0  0  0
    0.2945    1.3101    0.4220 O   0  0  0  0  0  0  0  0  0  0  0  0
    0.7030    1.7772    1.6405 C   0  0  0  0  0  0  0  0  0  0  0  0
    1.9593    1.5210    2.1491 C   0  0  0  0  0  0  0  0  0  0  0  0
    2.3020    1.9872    3.4039 C   0  0  0  0  0  0  0  0  0  0  0  0
    1.5721    3.0109    4.0257 C   0  0  0  0  0  0  0  0  0  0  0  0
    0.2888    3.2694    3.5227 C   0  0  0  0  0  0  0  0  0  0  0  0
   -0.1658    2.5930    2.3722 C   0  0  0  0  0  0  0  0  0  0  0  0
    2.3567    4.0700    4.7664 C   0  0  0  0  0  0  0  0  0  0  0  0
    2.8708    4.8739    3.8058 C   0  0  0  0  0  0  0  0  0  0  0  0
    4.0814    4.5344    3.1344 O   0  0  0  0  0  0  0  0  0  0  0  0
    4.8581    3.5351    3.7038 C   0  0  0  0  0  0  0  0  0  0  0  0
    4.6880    3.2043    5.0493 C   0  0  0  0  0  0  0  0  0  0  0  0
    5.4383    2.2064    5.6717 C   0  0  0  0  0  0  0  0  0  0  0  0
    6.3393    1.4712    4.9020 C   0  0  0  0  0  0  0  0  0  0  0  0
    6.4069    1.6980    3.5242 C   0  0  0  0  0  0  0  0  0  0  0  0
    7.1472    0.8729    2.7256 O   0  0  0  0  0  0  0  0  0  0  0  0
    5.6918    2.7388    2.9168 C   0  0  0  0  0  0  0  0  0  0  0  0
    3.5137    3.8074    5.7009 C   0  0  0  0  0  0  0  0  0  0  0  0
    3.5557    4.1764    6.8501 O   0  0  0  0  0  0  0  0  0  0  0  0
  1  2  1  0
  2  3  1  0
  3  4  2  0
  3  8  1  0
  4  5  1  0
  5  6  2  0
  6  7  1  0
  6  9  1  0
  7  8  2  0
  9 10  2  0
  9 19  1  0
 10 11  1  0
 11 12  1  0
 12 13  2  0
 12 18  1  0
 13 14  1  0
 13 19  1  0
 14 15  2  0
 15 16  1  0
 16 17  1  0
 16 18  2  0
 19 20  2  0
M  END
>  <DRUGBANK_ID>  (1) 
DB15335

>  <COMMON_NAME>  (1) 
Formononetin

>  <CAS_NUMBER>  (1) 
485-72-3

>  <UNII>  (1) 
295DQC67BJ

$$$$
