
     RDKit          3D

 11 11  0  0  1  0  0  0  0  0999 V2000
    1.0868   -0.0027   -0.1068 O   0  0  0  0  0  0  0  0  0  0  0  0
    0.6119    1.1828    0.5299 C   0  0  0  0  0  0  0  0  0  0  0  0
    1.1101    1.2172    1.9799 C   0  0  1  0  0  0  0  0  0  0  0  0
    2.5427    1.2856    1.9755 O   0  0  0  0  0  0  0  0  0  0  0  0
    0.5333    2.4180    2.7428 C   0  0  0  0  0  0  0  0  0  0  0  0
   -0.9780    2.4183    2.8275 C   0  0  0  0  0  0  0  0  0  0  0  0
   -1.7041    1.2211    2.9138 C   0  0  0  0  0  0  0  0  0  0  0  0
   -3.0927    1.2198    2.9892 C   0  0  0  0  0  0  0  0  0  0  0  0
   -3.7776    2.4303    3.0387 C   0  0  0  0  0  0  0  0  0  0  0  0
   -3.0734    3.6296    2.9840 C   0  0  0  0  0  0  0  0  0  0  0  0
   -1.6823    3.6311    2.8513 C   0  0  0  0  0  0  0  0  0  0  0  0
  1  2  1  0
  2  3  1  0
  3  4  1  6
  3  5  1  0
  5  6  1  0
  6  7  2  0
  6 11  1  0
  7  8  1  0
  8  9  2  0
  9 10  1  0
 10 11  2  0
M  END
>  <DRUGBANK_ID>  (1) 
DB02803

>  <SECONDARY_ACCESSION_NUMBERS>  (1) 
EXPT02644

>  <COMMON_NAME>  (1) 
3-Phenyl-1,2-Propandiol

>  <UNII>  (1) 
6PQ7U3G5W6

$$$$
