
     RDKit          3D

 14 14  0  0  1  0  0  0  0  0999 V2000
    0.9335    0.2606   -0.1055 N   0  0  0  0  0  0  0  0  0  0  0  0
    0.4233    0.0972   -1.4934 C   0  0  1  0  0  0  0  0  0  0  0  0
    0.9638   -1.2149   -2.0983 C   0  0  0  0  0  0  0  0  0  0  0  0
    0.6309   -2.5232   -1.3966 C   0  0  0  0  0  0  0  0  0  0  0  0
    1.3026   -3.6940   -1.7741 C   0  0  0  0  0  0  0  0  0  0  0  0
    0.8688   -4.9307   -1.2839 C   0  0  0  0  0  0  0  0  0  0  0  0
    1.4751   -6.0962   -1.6447 O   0  0  0  0  0  0  0  0  0  0  0  0
   -0.1975   -5.0321   -0.3972 C   0  0  0  0  0  0  0  0  0  0  0  0
   -0.7848   -3.8790    0.0788 C   0  0  0  0  0  0  0  0  0  0  0  0
   -0.3430   -2.6568   -0.3922 C   0  0  0  0  0  0  0  0  0  0  0  0
   -0.8029   -1.5991    0.2830 F   0  0  0  0  0  0  0  0  0  0  0  0
   -1.1326    0.2386   -1.6617 C   0  0  0  0  0  0  0  0  0  0  0  0
   -1.5471    1.4068   -2.2007 O   0  0  0  0  0  0  0  0  0  0  0  0
   -1.9847   -0.6224   -1.4383 O   0  0  0  0  0  0  0  0  0  0  0  0
  2  1  1  1
  2  3  1  0
  2 12  1  0
  3  4  1  0
  4  5  2  0
  4 10  1  0
  5  6  1  0
  6  7  1  0
  6  8  2  0
  8  9  1  0
  9 10  2  0
 10 11  1  0
 12 13  1  0
 12 14  2  0
M  ISO  1  11  18
M  END
>  <DRUGBANK_ID>  (1) 
DB17621

>  <COMMON_NAME>  (1) 
6-[18F]-Fluoro-L-m-tyrosine

>  <CAS_NUMBER>  (1) 
128592-98-3

>  <UNII>  (1) 
QKU5EC2X53

>  <SYNONYMS>  (1) 
(2s)-2-amino-3-(2-(18f)fluoranyl-5-hydroxyphenyl)propanoic acid; [18F]FMT; 2-fluoro-5-hydroxy-l-phenylalanine F-18; 6-(18f) fluoro-l-m-tyrosine; 6-[18F] Fluoro-L-M-Tyrosine; 6-[18F]-Fluoro-L-m-tyrosine; 6-[18F]Fluoro-l-m-tyrosine; 6-[18F]FMT; 6-fluoro-l-m-tyrosine F-18; L-phenylalanine, 2-fluoro-5-hydroxy-F-18

$$$$
