
     RDKit          3D

 31 33  0  0  0  0  0  0  0  0999 V2000
   -0.7142    1.2253   -0.0238 C   0  0  0  0  0  0  0  0  0  0  0  0
   -1.3763   -0.0046    0.0184 N   0  0  0  0  0  0  0  0  0  0  0  0
   -0.7048   -1.2140    0.0423 C   0  0  0  0  0  0  0  0  0  0  0  0
    0.6555   -1.1414    0.0256 N   0  0  0  0  0  0  0  0  0  0  0  0
    1.3835   -0.0006   -0.0007 C   0  0  0  0  0  0  0  0  0  0  0  0
    0.6736    1.1729   -0.0152 N   0  0  0  0  0  0  0  0  0  0  0  0
   -1.3058    2.3085   -0.0288 O   0  0  0  0  0  0  0  0  0  0  0  0
   -1.2308   -2.3263    0.0343 O   0  0  0  0  0  0  0  0  0  0  0  0
    2.6161   -0.0606   -0.0087 O   0  0  0  0  0  0  0  0  0  0  0  0
   -2.8056   -0.0133    0.0097 C   0  0  0  0  0  0  0  0  0  0  0  0
   -3.4990    0.6380   -1.0104 C   0  0  0  0  0  0  0  0  0  0  0  0
   -5.6539    0.0367   -0.0450 C   0  0  0  0  0  0  0  0  0  0  0  0
   -3.5397   -0.6424    1.0148 C   0  0  0  0  0  0  0  0  0  0  0  0
   -4.9083    0.6886   -1.0477 C   0  0  0  0  0  0  0  0  0  0  0  0
   -4.9456   -0.6074    0.9916 C   0  0  0  0  0  0  0  0  0  0  0  0
   -5.4787    1.4434   -2.2088 C   0  0  0  0  0  0  0  0  0  0  0  0
   -7.0370   -0.0296    0.1030 O   0  0  0  0  0  0  0  0  0  0  0  0
   -7.8843    0.4065   -0.8901 C   0  0  0  0  0  0  0  0  0  0  0  0
   -7.8828   -0.1610   -2.1664 C   0  0  0  0  0  0  0  0  0  0  0  0
   -8.5775    0.4578   -3.2175 C   0  0  0  0  0  0  0  0  0  0  0  0
   -9.4284    1.5287   -2.9449 C   0  0  0  0  0  0  0  0  0  0  0  0
   -9.5432    2.0115   -1.6334 C   0  0  0  0  0  0  0  0  0  0  0  0
   -8.7577    1.4605   -0.6106 C   0  0  0  0  0  0  0  0  0  0  0  0
  -10.4489    2.2943   -4.2022 S   0  0  0  0  0  0  0  0  0  0  0  0
  -11.8117    1.9318   -3.8389 O   0  0  0  0  0  0  0  0  0  0  0  0
  -10.0562    3.6964   -4.2244 O   0  0  0  0  0  0  0  0  0  0  0  0
  -10.0045    1.5108   -5.7768 C   0  0  0  0  0  0  0  0  0  0  0  0
   -8.6964    1.7166   -6.1113 F   0  0  0  0  0  0  0  0  0  0  0  0
  -10.1783    0.1566   -5.7563 F   0  0  0  0  0  0  0  0  0  0  0  0
  -10.7444    1.9721   -6.8254 F   0  0  0  0  0  0  0  0  0  0  0  0
    1.4342    2.4108   -0.0027 C   0  0  0  0  0  0  0  0  0  0  0  0
  1  2  1  0
  1  6  1  0
  1  7  2  0
  2  3  1  0
  2 10  1  0
  3  4  1  0
  3  8  2  0
  4  5  1  0
  5  6  1  0
  5  9  2  0
  6 31  1  0
 10 11  2  0
 10 13  1  0
 11 14  1  0
 12 14  2  0
 12 15  1  0
 12 17  1  0
 13 15  2  0
 14 16  1  0
 17 18  1  0
 18 19  2  0
 18 23  1  0
 19 20  1  0
 20 21  2  0
 21 22  1  0
 21 24  1  0
 22 23  2  0
 24 25  2  0
 24 26  2  0
 24 27  1  0
 27 28  1  0
 27 29  1  0
 27 30  1  0
M  END
>  <DRUGBANK_ID>  (1) 
DB11452

>  <COMMON_NAME>  (1) 
Ponazuril

>  <CAS_NUMBER>  (1) 
69004-04-2

>  <UNII>  (1) 
JPW84AS66U

>  <SYNONYMS>  (1) 
Ponazuril

$$$$
