
     RDKit          3D

 21 24  0  0  0  0  0  0  0  0999 V2000
    0.7411   -0.3662   -0.0032 C   0  0  0  0  0  0  0  0  0  0  0  0
    1.4480   -1.5632   -0.0023 O   0  0  0  0  0  0  0  0  0  0  0  0
    2.8380   -1.5089    0.0342 C   0  0  0  0  0  0  0  0  0  0  0  0
    1.3978    0.8684   -0.0033 C   0  0  0  0  0  0  0  0  0  0  0  0
    3.5541   -0.3753    0.0125 C   0  0  0  0  0  0  0  0  0  0  0  0
    2.8611    0.9103   -0.0026 C   0  0  0  0  0  0  0  0  0  0  0  0
   -0.6784   -0.3949   -0.0026 C   0  0  0  0  0  0  0  0  0  0  0  0
    0.6901    2.0722   -0.0014 C   0  0  0  0  0  0  0  0  0  0  0  0
    3.5716   -2.7934    0.0598 C   0  0  0  0  0  0  0  0  0  0  0  0
    3.4896    1.9652   -0.0041 O   0  0  0  0  0  0  0  0  0  0  0  0
   -1.3909    0.8397   -0.0016 C   0  0  0  0  0  0  0  0  0  0  0  0
   -0.6981    2.0552   -0.0004 C   0  0  0  0  0  0  0  0  0  0  0  0
   -1.4382   -1.5836   -0.0011 C   0  0  0  0  0  0  0  0  0  0  0  0
    4.5242   -3.0376    1.0663 C   0  0  0  0  0  0  0  0  0  0  0  0
    3.4381   -3.7365   -0.9665 C   0  0  0  0  0  0  0  0  0  0  0  0
   -2.7929    0.8528   -0.0014 C   0  0  0  0  0  0  0  0  0  0  0  0
   -2.8380   -1.5526    0.0015 C   0  0  0  0  0  0  0  0  0  0  0  0
    5.4094   -4.1159    0.9747 C   0  0  0  0  0  0  0  0  0  0  0  0
    4.2567   -4.8746   -0.9979 C   0  0  0  0  0  0  0  0  0  0  0  0
   -3.5139   -0.3370   -0.0000 C   0  0  0  0  0  0  0  0  0  0  0  0
    5.2790   -5.0327   -0.0629 C   0  0  0  0  0  0  0  0  0  0  0  0
  2  1  1  0
  3  2  1  0
  4  1  2  0
  5  3  2  0
  6  4  1  0
  6  5  1  0
  7  1  1  0
  8  4  1  0
  9  3  1  0
 10  6  2  0
 11  7  2  0
 12  8  2  0
 12 11  1  0
 13  7  1  0
 14  9  2  0
 15  9  1  0
 16 11  1  0
 17 13  2  0
 18 14  1  0
 19 15  2  0
 20 16  2  0
 20 17  1  0
 21 18  2  0
 21 19  1  0
M  END
>  <DRUGBANK_ID>  (1) 
DB07453

>  <COMMON_NAME>  (1) 
alpha-Naphthoflavone

>  <CAS_NUMBER>  (1) 
604-59-1

>  <UNII>  (1) 
FML65D8PY5

>  <SYNONYMS>  (1) 
2-phenyl-4H-naphtho(1,2-b)pyran-4-one; 7,8-benzoflavone; Î±-naphthylflavone

$$$$
