
     RDKit          3D

 36 38  0  0  0  0  0  0  0  0999 V2000
    5.1711   -5.7469   12.8426 C   0  0  2  0  0  0  0  0  0  0  0  0
    3.8335   -5.9739   11.9841 C   0  0  1  0  0  0  0  0  0  0  0  0
    4.1018   -4.9943   10.7504 C   0  0  2  0  0  0  0  0  0  0  0  0
    3.8598   -5.4415    9.2915 C   0  0  2  0  0  0  0  0  0  0  0  0
    3.2488   -4.3706    8.4587 C   0  0  0  0  0  0  0  0  0  0  0  0
    4.0956   -4.4442    7.2157 C   0  0  0  0  0  0  0  0  0  0  0  0
    4.3263   -5.7920    6.5536 C   0  0  0  0  0  0  0  0  0  0  0  0
    3.4282   -6.9838    6.8826 C   0  0  1  0  0  0  0  0  0  0  0  0
    3.3800   -6.8386    8.7537 C   0  0  1  0  0  0  0  0  0  0  0  0
    4.2605   -7.7753    9.8773 C   0  0  2  0  0  0  0  0  0  0  0  0
    3.6847   -7.4432   11.3972 C   0  0  0  0  0  0  0  0  0  0  0  0
    5.7020   -7.8718    9.6664 O   0  0  0  0  0  0  0  0  0  0  0  0
    2.3849   -6.8717    5.3222 C   0  0  0  0  0  0  0  0  0  0  0  0
    2.9156   -6.5614    4.0763 C   0  0  0  0  0  0  0  0  0  0  0  0
    3.4836   -5.2611    4.5484 C   0  0  0  0  0  0  0  0  0  0  0  0
    2.9461   -4.2163    4.5196 O   0  0  0  0  0  0  0  0  0  0  0  0
    4.7490   -5.6543    5.2898 C   0  0  0  0  0  0  0  0  0  0  0  0
    4.2148   -8.3608    6.8925 C   0  0  0  0  0  0  0  0  0  0  0  0
    5.7664   -4.6972   10.7952 C   0  0  0  0  0  0  0  0  0  0  0  0
    6.1448   -5.7974   11.7500 C   0  0  1  0  0  0  0  0  0  0  0  0
    7.3110   -6.5948   12.0202 O   0  0  0  0  0  0  0  0  0  0  0  0
    7.0668   -7.0227   13.3890 C   0  0  0  0  0  0  0  0  0  0  0  0
    5.6424   -6.9077   13.5293 O   0  0  0  0  0  0  0  0  0  0  0  0
    7.4839   -8.3361   14.0503 C   0  0  0  0  0  0  0  0  0  0  0  0
    8.0940   -6.1940   14.1410 C   0  0  0  0  0  0  0  0  0  0  0  0
    2.6998   -5.6038   13.0172 C   0  0  0  0  0  0  0  0  0  0  0  0
    5.2275   -4.1524   13.2160 C   0  0  0  0  0  0  0  0  0  0  0  0
    4.4118   -3.2817   12.8668 O   0  0  0  0  0  0  0  0  0  0  0  0
    6.5387   -3.6562   13.6987 C   0  0  0  0  0  0  0  0  0  0  0  0
    6.8722   -4.5605   14.7085 O   0  0  0  0  0  0  0  0  0  0  0  0
    5.6207   -4.4306   15.8959 P   0  0  0  0  0  0  0  0  0  0  0  0
    4.8557   -5.5636   15.2455 O   0  0  0  0  0  0  0  0  0  0  0  0
    6.7401   -4.7083   16.9149 O   0  0  0  0  0  0  0  0  0  0  0  0
    4.3693   -4.3008   17.0833 O   0  0  0  0  0  0  0  0  0  0  0  0
    0.1149   -0.9796    2.0619 Na  0  0  0  0  0 15  0  0  0  0  0  0
    1.8040    0.8939   -2.0270 Na  0  0  0  0  0 15  0  0  0  0  0  0
  1 23  1  0
  1 27  1  1
  2 26  1  1
  2  1  1  0
  3  2  1  0
  3 19  1  6
  4  3  1  0
  4  9  1  0
  4  5  1  1
  6  5  1  0
  7  6  1  0
  7  8  1  0
  8  9  1  0
  8 18  1  1
  9 10  1  1
 10 11  1  0
 10 12  1  1
 11  2  1  0
 13  8  1  0
 14 13  2  0
 15 14  1  0
 16 15  2  0
 17 15  1  0
 17  7  2  0
 20 19  1  1
 20  1  1  0
 20 21  1  0
 21 22  1  0
 22 23  1  0
 24 22  1  0
 25 22  1  0
 28 27  2  0
 29 27  1  0
 30 29  1  0
 30 31  1  0
 31 32  2  0
 31 33  1  0
 31 34  1  0
M  CHG  4  33  -1  34  -1  35   1  36   1
M  END
>  <DRUGBANK_ID>  (1) 
DB15835

>  <COMMON_NAME>  (1) 
Desonide sodium phosphate

>  <CAS_NUMBER>  (1) 
94087-98-6

>  <UNII>  (1) 
36H4OGY275

$$$$
