ZMA
     RDKit          3D

 25 28  0  0  0  0  0  0  0  0999 V2000
   -1.2055   -1.1667    0.0088 C   0  0  0  0  0  0  0  0  0  0  0  0
    0.1976   -1.2251    0.0194 C   0  0  0  0  0  0  0  0  0  0  0  0
    0.9361   -0.0449    0.0141 C   0  0  0  0  0  0  0  0  0  0  0  0
    2.2982   -0.0308    0.0355 O   0  0  0  0  0  0  0  0  0  0  0  0
    0.3007    1.1823   -0.0410 C   0  0  0  0  0  0  0  0  0  0  0  0
   -1.0852    1.2319   -0.1228 C   0  0  0  0  0  0  0  0  0  0  0  0
   -1.8661    0.0720   -0.0348 C   0  0  0  0  0  0  0  0  0  0  0  0
   -3.3801    0.1859   -0.0173 C   0  0  0  0  0  0  0  0  0  0  0  0
   -3.9574    0.9997    1.1766 C   0  0  0  0  0  0  0  0  0  0  0  0
   -3.6009    2.4201    1.0794 N   0  0  0  0  0  0  0  0  0  0  0  0
   -4.4564    3.5007    1.0787 C   0  0  0  0  0  0  0  0  0  0  0  0
   -4.2053    4.5737    0.3487 N   0  0  0  0  0  0  0  0  0  0  0  0
   -5.5414    3.3900    1.9130 N   0  0  0  0  0  0  0  0  0  0  0  0
   -6.3557    4.4010    2.0314 C   0  0  0  0  0  0  0  0  0  0  0  0
   -7.4189    4.3700    2.8743 N   0  0  0  0  0  0  0  0  0  0  0  0
   -6.1400    5.5375    1.2666 N   0  0  0  0  0  0  0  0  0  0  0  0
   -6.9123    6.6424    1.3248 N   0  0  0  0  0  0  0  0  0  0  0  0
   -5.1190    5.6117    0.3787 C   0  0  0  0  0  0  0  0  0  0  0  0
   -5.3035    6.7470   -0.3057 N   0  0  0  0  0  0  0  0  0  0  0  0
   -6.4094    7.3689    0.3102 C   0  0  0  0  0  0  0  0  0  0  0  0
   -7.0777    8.7204   -0.0329 C   0  0  0  0  0  0  0  0  0  0  0  0
   -7.4564    9.6846    0.9023 C   0  0  0  0  0  0  0  0  0  0  0  0
   -8.1716   10.7121    0.2288 C   0  0  0  0  0  0  0  0  0  0  0  0
   -8.2490   10.3043   -1.0795 C   0  0  0  0  0  0  0  0  0  0  0  0
   -7.5536    9.1390   -1.2643 O   0  0  0  0  0  0  0  0  0  0  0  0
  1  2  2  0
  2  3  1  0
  3  4  1  0
  5  3  2  0
  6  5  1  0
  7  1  1  0
  7  6  2  0
  8  7  1  0
  9  8  1  0
 10  9  1  0
 11 10  1  0
 11 13  1  0
 12 11  2  0
 14 13  2  0
 14 15  1  0
 16 14  1  0
 17 16  1  0
 18 12  1  0
 18 16  1  0
 19 18  2  0
 20 17  2  0
 20 19  1  0
 21 20  1  0
 22 21  2  0
 23 22  1  0
 23 24  2  0
 24 25  1  0
 25 21  1  0
M  END
>  <DRUGBANK_ID>  (1) 
DB08770

>  <COMMON_NAME>  (1) 
4-{2-[(7-amino-2-furan-2-yl[1,2,4]triazolo[1,5-a][1,3,5]triazin-5-yl)amino]ethyl}phenol

>  <UNII>  (1) 
5NIC36BO71

$$$$
