
     RDKit          3D

 26 29  0  0  1  0  0  0  0  0999 V2000
    1.1158    0.2896    2.5853 C   0  0  0  0  0  0  0  0  0  0  0  0
    0.4964   -0.3281    1.3260 C   0  0  1  0  0  0  0  0  0  0  0  0
    0.9721   -1.7611    1.2008 C   0  0  0  0  0  0  0  0  0  0  0  0
   -0.0333   -2.8395    1.4321 C   0  0  0  0  0  0  0  0  0  0  0  0
   -1.4700   -2.4876    1.5855 C   0  0  0  0  0  0  0  0  0  0  0  0
   -2.3924   -3.5645    1.7641 C   0  0  0  0  0  0  0  0  0  0  0  0
   -1.9328   -4.8735    1.8633 N   0  0  0  0  0  0  0  0  0  0  0  0
   -2.3518   -5.9381    0.9561 C   0  0  0  0  0  0  0  0  0  0  0  0
   -1.0861   -6.5827    0.3667 C   0  0  0  0  0  0  0  0  0  0  0  0
   -0.1012   -7.0248    1.4583 C   0  0  0  0  0  0  0  0  0  0  0  0
   -0.5827   -8.1852    2.1305 O   0  0  0  0  0  0  0  0  0  0  0  0
    0.1805   -5.9240    2.4757 C   0  0  0  0  0  0  0  0  0  0  0  0
   -1.1155   -5.2923    3.0006 C   0  0  0  0  0  0  0  0  0  0  0  0
   -3.7514   -3.2348    1.8415 C   0  0  0  0  0  0  0  0  0  0  0  0
   -4.6704   -4.1980    2.0107 F   0  0  0  0  0  0  0  0  0  0  0  0
   -4.1852   -1.9134    1.7888 C   0  0  0  0  0  0  0  0  0  0  0  0
   -3.2527   -0.8833    1.6271 C   0  0  0  0  0  0  0  0  0  0  0  0
   -1.8741   -1.1453    1.5152 C   0  0  0  0  0  0  0  0  0  0  0  0
   -0.9679   -0.0849    1.3188 N   0  0  0  0  0  0  0  0  0  0  0  0
   -1.4660    1.2192    1.2680 C   0  0  0  0  0  0  0  0  0  0  0  0
   -2.7502    1.5951    1.3771 C   0  0  0  0  0  0  0  0  0  0  0  0
   -3.1163    3.0261    1.3144 C   0  0  0  0  0  0  0  0  0  0  0  0
   -4.4374    3.2830    1.4218 O   0  0  0  0  0  0  0  0  0  0  0  0
   -2.2917    3.9257    1.1742 O   0  0  0  0  0  0  0  0  0  0  0  0
   -3.7386    0.5157    1.5647 C   0  0  0  0  0  0  0  0  0  0  0  0
   -4.9331    0.7895    1.6650 O   0  0  0  0  0  0  0  0  0  0  0  0
  2  3  1  0
  2 19  1  0
  2  1  1  1
  3  4  1  0
  4  5  1  0
  5  6  1  0
  5 18  2  0
  6  7  1  0
  6 14  2  0
  7  8  1  0
  7 13  1  0
  8  9  1  0
  9 10  1  0
 10 11  1  0
 10 12  1  0
 12 13  1  0
 14 15  1  0
 14 16  1  0
 16 17  2  0
 17 18  1  0
 17 25  1  0
 18 19  1  0
 19 20  1  0
 20 21  2  0
 21 22  1  0
 21 25  1  0
 22 23  1  0
 22 24  2  0
 25 26  2  0
M  END
>  <DRUGBANK_ID>  (1) 
DB16219

>  <COMMON_NAME>  (1) 
Levonadifloxacin

>  <CAS_NUMBER>  (1) 
154357-42-3

>  <UNII>  (1) 
8WHH66L098

>  <SYNONYMS>  (1) 
(s)-(-)-nadifloxacin; Levonadifloxacin; Nadifloxacin, (s)-; Wck 771 free base; Wck-771 free base; Wck771 free base

$$$$
