
     RDKit          3D

 13 13  0  0  0  0  0  0  0  0999 V2000
    0.9313   -0.0383    0.0251 C   0  0  0  0  0  0  0  0  0  0  0  0
    2.4369   -0.0227    0.1076 C   0  0  0  0  0  0  0  0  0  0  0  0
    0.3034   -0.2988   -1.1517 N   0  0  0  0  0  0  0  0  0  0  0  0
    0.2122    0.1989    1.0789 N   0  0  0  0  0  0  0  0  0  0  0  0
    0.9149   -0.5551   -2.4329 C   0  0  0  0  0  0  0  0  0  0  0  0
    0.5978   -1.9527   -2.8964 C   0  0  0  0  0  0  0  0  0  0  0  0
    1.4529   -2.9997   -2.5230 C   0  0  0  0  0  0  0  0  0  0  0  0
   -0.5539   -2.2487   -3.6377 C   0  0  0  0  0  0  0  0  0  0  0  0
    1.1686   -4.3257   -2.8649 C   0  0  0  0  0  0  0  0  0  0  0  0
   -0.8585   -3.5723   -3.9641 C   0  0  0  0  0  0  0  0  0  0  0  0
    0.0097   -4.6013   -3.6004 C   0  0  0  0  0  0  0  0  0  0  0  0
    2.0680   -5.4361   -2.3938 C   0  0  0  0  0  0  0  0  0  0  0  0
    1.3349   -6.3601   -1.5380 N   0  0  0  0  0  0  0  0  0  0  0  0
  2  1  1  0
  3  1  1  0
  4  1  2  0
  5  3  1  0
  6  5  1  0
  7  6  2  0
  8  6  1  0
  9  7  1  0
 10  8  2  0
 11  9  2  0
 11 10  1  0
 12  9  1  0
 13 12  1  0
M  END
>  <DRUGBANK_ID>  (1) 
DB02044

>  <SECONDARY_ACCESSION_NUMBERS>  (1) 
EXPT00036

>  <COMMON_NAME>  (1) 
N-[3-(aminomethyl)benzyl]acetamidine

>  <UNII>  (1) 
M1VB8VP8OH

$$$$
