
     RDKit          3D

 22 22  0  0  1  0  0  0  0  0999 V2000
    1.6137   -0.7787   -0.0842 C   0  0  0  0  0  0  0  0  0  0  0  0
    0.0191   -2.7779    0.1282 C   0  0  0  0  0  0  0  0  0  0  0  0
    0.1696   -1.2704    0.0595 C   0  0  2  0  0  0  0  0  0  0  0  0
    1.4846    0.6501   -0.6114 C   0  0  1  0  0  0  0  0  0  0  0  0
   -0.6580   -0.4922   -0.9356 C   0  0  2  0  0  0  0  0  0  0  0  0
   -0.0531    0.9155   -0.7288 C   0  0  1  0  0  0  0  0  0  0  0  0
   -2.0291   -0.5511   -0.5521 O   0  0  0  0  0  0  0  0  0  0  0  0
   -0.6378    1.5061    0.4436 O   0  0  0  0  0  0  0  0  0  0  0  0
    0.7961   -4.0850    2.5041 O   0  0  0  0  0  0  0  0  0  0  0  0
    0.8048   -1.7289    2.4343 O   0  0  0  0  0  0  0  0  0  0  0  0
    0.2388   -2.7067    4.2927 O   0  0  0  0  0  0  0  0  0  0  0  0
    2.6478    3.5374    3.8897 O   0  0  0  0  0  0  0  0  0  0  0  0
    1.1379    2.6552    5.5064 O   0  0  0  0  0  0  0  0  0  0  0  0
    3.4694    2.1831    5.5231 O   0  0  0  0  0  0  0  0  0  0  0  0
    3.2008    1.6397    2.2663 O   0  0  0  0  0  0  0  0  0  0  0  0
    1.3687    3.2089    1.4779 O   0  0  0  0  0  0  0  0  0  0  0  0
   -0.8488   -3.0911    1.2240 O   0  0  0  0  0  0  0  0  0  0  0  0
    2.2660    1.5497    0.1909 O   0  0  0  0  0  0  0  0  0  0  0  0
    0.9956    1.9241    3.3874 O   0  0  0  0  0  0  0  0  0  0  0  0
   -0.2749   -2.8883    2.8434 P   0  0  0  0  0  0  0  0  0  0  0  0
    2.3010    2.0607    4.5144 P   0  0  0  0  0  0  0  0  0  0  0  0
    1.6308    1.7369    1.7892 P   0  0  1  0  0  0  0  0  0  0  0  0
  3  1  1  0
  3  2  1  6
  4  1  1  0
  4 18  1  1
  5  3  1  0
  5  7  1  1
  6  4  1  0
  6  5  1  0
  6  8  1  1
 17  2  1  0
 20  9  1  0
 20 10  1  0
 20 11  2  0
 20 17  1  0
 21 12  1  0
 21 13  1  0
 21 14  2  0
 21 19  1  0
 22 15  1  1
 22 16  2  0
 22 18  1  0
 22 19  1  0
M  END
>  <DRUGBANK_ID>  (1) 
DB03942

>  <SECONDARY_ACCESSION_NUMBERS>  (1) 
EXPT02523

>  <COMMON_NAME>  (1) 
Carboxylic PRPP

>  <SYNONYMS>  (1) 
CPRPP

$$$$
