
     RDKit          3D

 21 22  0  0  0  0  0  0  0  0999 V2000
    1.2744    0.2989    0.1606 C   0  0  0  0  0  0  0  0  0  0  0  0
    1.3139   -1.8588   -0.8730 C   0  0  0  0  0  0  0  0  0  0  0  0
   -2.2165   -3.1753   -3.8922 C   0  0  0  0  0  0  0  0  0  0  0  0
   -1.1851   -2.5621   -2.0544 C   0  0  0  0  0  0  0  0  0  0  0  0
    2.8508   -3.9526   -4.3500 C   0  0  0  0  0  0  0  0  0  0  0  0
    3.0558   -2.6743   -3.8057 C   0  0  0  0  0  0  0  0  0  0  0  0
    0.6351   -3.2867   -5.0134 C   0  0  0  0  0  0  0  0  0  0  0  0
   -0.0386    0.1777   -3.5887 C   0  0  0  0  0  0  0  0  0  0  0  0
   -0.9250   -0.0551   -0.8427 C   0  0  0  0  0  0  0  0  0  0  0  0
    1.6436   -4.2425   -4.9754 C   0  0  0  0  0  0  0  0  0  0  0  0
    0.7792   -2.0694   -4.3368 C   0  0  0  0  0  0  0  0  0  0  0  0
    2.0339   -1.7037   -3.8024 C   0  0  0  0  0  0  0  0  0  0  0  0
   -0.4861   -1.2545   -4.1004 C   0  0  1  0  0  0  0  0  0  0  0  0
    1.0726    0.1887   -2.4945 C   0  0  1  0  0  0  0  0  0  0  0  0
    0.6651   -0.3728   -1.0678 C   0  0  0  0  0  0  0  0  0  0  0  0
    2.2207   -0.5197   -3.0897 N   0  0  0  0  0  0  0  0  0  0  0  0
   -1.5862   -1.9982   -3.3248 N   0  0  0  0  0  0  0  0  0  0  0  0
    1.3589   -5.5585   -5.5541 N   0  0  0  0  0  0  0  0  0  0  0  0
   -1.2211    1.3405   -0.7944 O   0  0  0  0  0  0  0  0  0  0  0  0
    0.2322   -5.7773   -5.9866 O   0  0  0  0  0  0  0  0  0  0  0  0
    2.2971   -6.3898   -5.5641 O   0  0  0  0  0  0  0  0  0  0  0  0
  6  5  2  0
 10  5  1  0
 10  7  2  0
 11  7  1  0
 12  6  1  0
 12 11  2  0
 13  8  1  0
 13 11  1  0
 13 17  1  1
 14  8  1  0
 14 15  1  1
 14 16  1  0
 15  1  1  0
 15  2  1  0
 15  9  1  0
 16 12  1  0
 17  3  1  0
 17  4  1  0
 18 10  1  0
 19  9  1  0
 20 18  1  0
 21 18  2  0
M  CHG  2  18   1  20  -1
M  END
>  <DRUGBANK_ID>  (1) 
DB13938

>  <COMMON_NAME>  (1) 
S-40503

>  <CAS_NUMBER>  (1) 
404920-28-1

>  <UNII>  (1) 
TBF49WHM83

>  <SYNONYMS>  (1) 
2-(4-(Dimethylamino)-6-nitro-1,2,3,4-tetrahydroquinolin-2-yl)-2-methylpropan-1-ol

$$$$
