
     RDKit          3D

 31 34  0  0  0  0  0  0  0  0999 V2000
    1.3715   -1.3251   -0.0374 C   0  0  0  0  0  0  0  0  0  0  0  0
    0.0105   -1.0636    0.0298 C   0  0  0  0  0  0  0  0  0  0  0  0
   -0.4384    0.2747    0.0275 C   0  0  0  0  0  0  0  0  0  0  0  0
    2.0484   -2.6840   -0.0417 C   0  0  2  0  0  0  0  0  0  0  0  0
   -0.8398   -2.1384    0.0784 O   0  0  0  0  0  0  0  0  0  0  0  0
   -1.8945    0.5099    0.0050 C   0  0  0  0  0  0  0  0  0  0  0  0
    1.5391   -3.9436   -0.5461 O   0  0  0  0  0  0  0  0  0  0  0  0
   -2.1915   -1.8946   -0.0254 C   0  0  0  0  0  0  0  0  0  0  0  0
    2.7785   -2.9761    1.2984 C   0  0  1  0  0  0  0  0  0  0  0  0
   -2.7492   -0.6776   -0.0599 C   0  0  0  0  0  0  0  0  0  0  0  0
    4.0459   -3.7604    0.9474 C   0  0  2  0  0  0  0  0  0  0  0  0
    2.2625   -0.2122   -0.0951 C   0  0  0  0  0  0  0  0  0  0  0  0
    0.4786    1.3443    0.0020 C   0  0  0  0  0  0  0  0  0  0  0  0
    3.6809   -5.0282    0.1683 C   0  0  1  0  0  0  0  0  0  0  0  0
    2.7160   -4.7110   -0.9943 C   0  0  1  0  0  0  0  0  0  0  0  0
    1.8402    1.1027   -0.0526 C   0  0  0  0  0  0  0  0  0  0  0  0
   -3.0371   -3.0897   -0.0984 C   0  0  0  0  0  0  0  0  0  0  0  0
   -2.4236    1.6213    0.0073 O   0  0  0  0  0  0  0  0  0  0  0  0
    3.1484   -1.8286    2.0675 O   0  0  0  0  0  0  0  0  0  0  0  0
   -3.8746   -3.2820   -1.2052 C   0  0  0  0  0  0  0  0  0  0  0  0
   -3.0478   -4.0301    0.9411 C   0  0  0  0  0  0  0  0  0  0  0  0
    4.7867   -4.0907    2.1261 O   0  0  0  0  0  0  0  0  0  0  0  0
    3.6191   -0.4660   -0.1492 O   0  0  0  0  0  0  0  0  0  0  0  0
    0.0579    2.6430    0.0142 O   0  0  0  0  0  0  0  0  0  0  0  0
    4.8645   -5.6769   -0.3087 O   0  0  0  0  0  0  0  0  0  0  0  0
   -4.7570   -5.2850   -0.2061 C   0  0  0  0  0  0  0  0  0  0  0  0
   -3.9144   -5.1284    0.8913 C   0  0  0  0  0  0  0  0  0  0  0  0
   -4.7340   -4.3769   -1.2565 C   0  0  0  0  0  0  0  0  0  0  0  0
    2.3370   -5.9982   -1.7213 C   0  0  0  0  0  0  0  0  0  0  0  0
   -5.6382   -6.3206   -0.3024 O   0  0  0  0  0  0  0  0  0  0  0  0
    1.5032   -5.6962   -2.8336 O   0  0  0  0  0  0  0  0  0  0  0  0
  2  1  2  0
  3  2  1  0
  3 13  2  0
  4  1  1  1
  5  2  1  0
  6  3  1  0
  6 10  1  0
  7  4  1  0
  8  5  1  0
  9  4  1  0
  9 19  1  6
 10  8  2  0
 11  9  1  0
 11 22  1  1
 12  1  1  0
 13 16  1  0
 14 11  1  0
 14 25  1  6
 15  7  1  0
 15 29  1  1
 15 14  1  0
 16 12  2  0
 17  8  1  0
 18  6  2  0
 20 17  2  0
 21 17  1  0
 23 12  1  0
 24 13  1  0
 26 27  1  0
 27 21  2  0
 28 20  1  0
 28 26  2  0
 30 26  1  0
 31 29  1  0
M  END
>  <DRUGBANK_ID>  (1) 
DB16836

>  <COMMON_NAME>  (1) 
Vitexin

>  <CAS_NUMBER>  (1) 
3681-93-4

>  <UNII>  (1) 
9VP70K75OK

>  <SYNONYMS>  (1) 
Apigenin 8-C-glucoside

$$$$
