
     RDKit          3D

 22 25  0  0  0  0  0  0  0  0999 V2000
    1.0827   -0.1402    2.0183 N   0  0  0  0  0  0  0  0  0  0  0  0
    1.3872   -1.4447    1.3952 C   0  0  0  0  0  0  0  0  0  0  0  0
    0.3923    0.7531    1.0504 C   0  0  1  0  0  0  0  0  0  0  0  0
    0.1159   -2.1588    1.0369 C   0  0  0  0  0  0  0  0  0  0  0  0
   -0.9582    1.3614    1.3630 C   0  0  1  0  0  0  0  0  0  0  0  0
    0.2433    2.2449    1.2219 C   0  0  0  0  0  0  0  0  0  0  0  0
   -0.5909   -3.0796    1.9974 C   0  0  0  0  0  0  0  0  0  0  0  0
    0.1009   -3.6428    0.7828 C   0  0  0  0  0  0  0  0  0  0  0  0
   -2.1119    1.2664    0.3558 C   0  0  0  0  0  0  0  0  0  0  0  0
   -2.8474    0.1162    0.1894 C   0  0  0  0  0  0  0  0  0  0  0  0
   -2.7935    2.5584   -0.5130 S   0  0  0  0  0  0  0  0  0  0  0  0
   -3.9854    0.2640   -0.6939 C   0  0  0  0  0  0  0  0  0  0  0  0
   -4.0737    1.5733   -1.1241 C   0  0  0  0  0  0  0  0  0  0  0  0
   -4.8686   -0.8600   -1.0151 C   0  0  0  0  0  0  0  0  0  0  0  0
   -5.9052   -0.6636   -1.9176 N   0  0  0  0  0  0  0  0  0  0  0  0
   -4.6353   -1.9457   -0.4826 O   0  0  0  0  0  0  0  0  0  0  0  0
   -6.8742   -1.7115   -2.3120 C   0  0  0  0  0  0  0  0  0  0  0  0
   -6.3519   -3.1362   -2.1037 C   0  0  0  0  0  0  0  0  0  0  0  0
   -7.3023   -1.5351   -3.7793 C   0  0  0  0  0  0  0  0  0  0  0  0
   -7.2698   -4.1930   -2.6700 C   0  0  0  0  0  0  0  0  0  0  0  0
   -8.1858   -2.6923   -4.2390 C   0  0  0  0  0  0  0  0  0  0  0  0
   -7.5349   -3.9439   -4.0432 O   0  0  0  0  0  0  0  0  0  0  0  0
  1  2  1  0
  2  4  1  0
  3  5  1  0
  3  6  1  0
  3  1  1  1
  4  7  1  0
  4  8  1  0
  5  6  1  0
  5  9  1  6
  7  8  1  0
  9 10  2  0
  9 11  1  0
 10 12  1  0
 11 13  1  0
 12 13  2  0
 12 14  1  0
 14 15  1  0
 14 16  2  0
 15 17  1  0
 17 18  1  0
 17 19  1  0
 18 20  1  0
 19 21  1  0
 20 22  1  0
 21 22  1  0
M  END
>  <DRUGBANK_ID>  (1) 
DB16939

>  <COMMON_NAME>  (1) 
TAK-418 free base

>  <CAS_NUMBER>  (1) 
1818252-52-6

>  <UNII>  (1) 
N9N6RK0CBN

>  <SYNONYMS>  (1) 
5-((1R,2R)-2-((Cyclopropylmethyl)amino)cyclopropyl)-N-(tetrahydro-2H-pyran-4-yl)thiophene-3-carboxamide

$$$$
