
     RDKit          3D

 13 13  0  0  0  0  0  0  0  0999 V2000
    2.7190    0.9042    0.0375 C   0  0  0  0  0  0  0  0  0  0  0  0
    1.2437    0.6416    0.0272 C   0  0  0  0  0  0  0  0  0  0  0  0
    0.2767    1.5765    0.0574 C   0  0  0  0  0  0  0  0  0  0  0  0
    0.5570    3.0652    0.0311 C   0  0  0  0  0  0  0  0  0  0  0  0
    0.0376    3.7621   -1.2311 C   0  0  0  0  0  0  0  0  0  0  0  0
   -1.4779    3.7492   -1.3621 C   0  0  0  0  0  0  0  0  0  0  0  0
   -2.1108    4.2573   -0.1949 O   0  0  0  0  0  0  0  0  0  0  0  0
   -1.0421    1.1809    0.1259 N   0  0  0  0  0  0  0  0  0  0  0  0
   -1.4801   -0.1077    0.0515 C   0  0  0  0  0  0  0  0  0  0  0  0
   -2.6734   -0.3799    0.0491 O   0  0  0  0  0  0  0  0  0  0  0  0
   -0.5075   -1.0523   -0.0196 N   0  0  0  0  0  0  0  0  0  0  0  0
    0.8314   -0.7942    0.0010 C   0  0  0  0  0  0  0  0  0  0  0  0
    1.6610   -1.7014   -0.0086 O   0  0  0  0  0  0  0  0  0  0  0  0
  1  2  1  0
  2  3  2  0
  2 12  1  0
  3  4  1  0
  3  8  1  0
  4  5  1  0
  5  6  1  0
  6  7  1  0
  8  9  1  0
  9 10  2  0
  9 11  1  0
 11 12  1  0
 12 13  2  0
M  END
>  <DRUGBANK_ID>  (1) 
DB04139

>  <SECONDARY_ACCESSION_NUMBERS>  (1) 
EXPT01776

>  <COMMON_NAME>  (1) 
6-Hydroxypropylthymine

>  <UNII>  (1) 
E5AK9SKZ52

>  <SYNONYMS>  (1) 
6â€“(3-hydroxypropyl)thymine

$$$$
