
     RDKit          3D

 15 15  0  0  0  0  0  0  0  0999 V2000
    0.8701   -0.1863   -0.0711 O   0  0  0  0  0  0  0  0  0  0  0  0
    2.0872   -0.2018   -0.1833 C   0  0  0  0  0  0  0  0  0  0  0  0
    2.8230   -1.2253    0.3285 O   0  0  0  0  0  0  0  0  0  0  0  0
    2.9249    0.9277   -0.8348 C   0  0  1  0  0  0  0  0  0  0  0  0
    2.6383    0.9406   -2.2755 N   0  0  0  0  0  0  0  0  0  0  0  0
    2.5955    2.2944   -0.1840 C   0  0  0  0  0  0  0  0  0  0  0  0
    2.9653    2.3959    1.2831 C   0  0  0  0  0  0  0  0  0  0  0  0
    3.3322    1.3676    2.0600 C   0  0  0  0  0  0  0  0  0  0  0  0
    3.6391    3.8814    3.2210 C   0  0  0  0  0  0  0  0  0  0  0  0
    3.9915    2.8219    3.9572 C   0  0  0  0  0  0  0  0  0  0  0  0
    4.6618    2.9449    5.1550 O   0  0  0  0  0  0  0  0  0  0  0  0
    2.9455    3.7400    1.9187 C   0  0  0  0  0  0  0  0  0  0  0  0
    2.4283    4.7096    1.3737 O   0  0  0  0  0  0  0  0  0  0  0  0
    3.6904    1.4705    3.4673 C   0  0  0  0  0  0  0  0  0  0  0  0
    3.8328    0.4688    4.1642 O   0  0  0  0  0  0  0  0  0  0  0  0
  2  1  2  0
  3  2  1  0
  4  2  1  0
  4  5  1  6
  6  4  1  0
  7  6  1  0
  8  7  2  0
  9 12  1  0
 10  9  2  0
 11 10  1  0
 12  7  1  0
 12 13  2  0
 14  8  1  0
 14 10  1  0
 14 15  2  0
M  END
>  <DRUGBANK_ID>  (1) 
DB04334

>  <SECONDARY_ACCESSION_NUMBERS>  (1) 
EXPT03094

>  <COMMON_NAME>  (1) 
6-hydroxydopa quinone

>  <CAS_NUMBER>  (1) 
64192-68-3

>  <UNII>  (1) 
PAG3GKA51Y

>  <SYNONYMS>  (1) 
(S)-Î±-amino-4-hydroxy-3,6-dioxo-1,4-cyclohexadiene-1-propanoic acid; 6-Hydroxyphenylalanine-3,4-dione; L-topaquinone; Topa quinone; Topaquinone

$$$$
