
     RDKit          3D

 35 41  0  0  0  0  0  0  0  0999 V2000
    3.5587   -1.0644    1.3144 C   0  0  2  0  0  0  0  0  0  0  0  0
    4.5607   -0.4659    0.4438 C   0  0  0  0  0  0  0  0  0  0  0  0
    5.8451    0.0103    0.9949 C   0  0  0  0  0  0  0  0  0  0  0  0
    6.7179   -1.0886    1.5656 C   0  0  0  0  0  0  0  0  0  0  0  0
    6.1435   -1.6376    2.8539 C   0  0  0  0  0  0  0  0  0  0  0  0
    4.7544   -1.9932    2.5722 C   0  0  1  0  0  0  0  0  0  0  0  0
    0.5502   -6.6938   -0.8223 C   0  0  0  0  0  0  0  0  0  0  0  0
    1.1333   -7.4616    0.3977 C   0  0  0  0  0  0  0  0  0  0  0  0
    1.8395   -6.4582    1.1795 C   0  0  1  0  0  0  0  0  0  0  0  0
    2.9825   -6.0218    0.4468 C   0  0  0  0  0  0  0  0  0  0  0  0
    2.9801   -5.8643   -1.1589 C   0  0  1  0  0  0  0  0  0  0  0  0
    1.5018   -5.6798   -1.1932 C   0  0  2  0  0  0  0  0  0  0  0  0
    4.1365   -5.5729   -0.0006 C   0  0  0  0  0  0  0  0  0  0  0  0
    2.8141   -4.2401   -0.1437 N   0  0  0  0  0  0  0  0  0  0  0  0
    3.2450   -4.4787   -1.4037 C   0  0  0  0  0  0  0  0  0  0  0  0
    3.8543   -3.8793   -2.2691 O   0  0  0  0  0  0  0  0  0  0  0  0
    4.6269   -6.7647    0.1525 O   0  0  0  0  0  0  0  0  0  0  0  0
    1.1141   -5.2981    0.6766 C   0  0  0  0  0  0  0  0  0  0  0  0
    1.9105   -2.4657    0.5793 C   0  0  0  0  0  0  0  0  0  0  0  0
    4.0870   -2.8871    3.8579 C   0  0  0  0  0  0  0  0  0  0  0  0
    2.7888   -3.6514    3.7247 N   0  0  0  0  0  0  0  0  0  0  0  0
    3.2635   -4.5308    2.6107 C   0  0  0  0  0  0  0  0  0  0  0  0
    4.2467   -3.8021    1.1673 C   0  0  0  0  0  0  0  0  0  0  0  0
    3.5488   -2.6029    0.4032 N   0  0  0  0  0  0  0  0  0  0  0  0
    2.4367   -2.1410    2.1797 C   0  0  0  0  0  0  0  0  0  0  0  0
    1.6944   -2.7887    3.1973 C   0  0  0  0  0  0  0  0  0  0  0  0
    2.4646   -2.5321   -1.1605 C   0  0  0  0  0  0  0  0  0  0  0  0
    2.4638   -1.6428   -2.1637 C   0  0  0  0  0  0  0  0  0  0  0  0
    1.8858   -2.1099   -3.3289 C   0  0  0  0  0  0  0  0  0  0  0  0
    0.8772   -3.4300   -3.0493 S   0  0  0  0  0  0  0  0  0  0  0  0
    1.1076   -3.1943   -1.3753 N   0  0  0  0  0  0  0  0  0  0  0  0
    3.2828   -0.6032   -2.1385 C   0  0  0  0  0  0  0  0  0  0  0  0
    3.6044    0.0803   -3.2048 C   0  0  0  0  0  0  0  0  0  0  0  0
    3.0250   -0.3538   -4.3588 C   0  0  0  0  0  0  0  0  0  0  0  0
    2.2056   -1.4807   -4.4837 C   0  0  0  0  0  0  0  0  0  0  0  0
  1  2  1  0
  1  6  1  0
  1 19  1  6
  2  3  1  0
  3  4  1  0
  4  5  1  0
  5  6  1  0
  6 20  1  1
  7  8  1  0
 12  7  1  1
  9  8  1  6
  9 10  1  0
  9 18  1  0
 10 11  1  0
 10 13  1  0
 11 12  1  0
 11 15  1  1
 12 18  1  0
 13 14  1  0
 13 17  2  0
 14 15  1  0
 14 19  1  0
 15 16  2  0
 20 21  1  0
 21 22  1  0
 21 26  1  0
 22 23  1  0
 23 24  1  0
 24 25  1  0
 24 27  1  0
 25 26  1  0
 27 28  1  0
 27 31  2  0
 28 29  2  0
 28 32  1  0
 29 30  1  0
 29 35  1  0
 30 31  1  0
 32 33  2  0
 33 34  1  0
 34 35  2  0
M  END
>  <DRUGBANK_ID>  (1) 
DB08815

>  <COMMON_NAME>  (1) 
Lurasidone

>  <CAS_NUMBER>  (1) 
367514-87-2

>  <UNII>  (1) 
22IC88528T

>  <SYNONYMS>  (1) 
Lurasidona; Lurasidone; Lurasidonum

$$$$
