C11
     RDKit          3D

 18 17  0  0  0  0  0  0  0  0999 V2000
    0.9624    0.0669   -0.0641 C   0  0  0  0  0  0  0  0  0  0  0  0
    0.3326   -1.4055   -0.2863 C   0  0  0  0  0  0  0  0  0  0  0  0
    0.9176   -2.4133    0.7321 C   0  0  0  0  0  0  0  0  0  0  0  0
    0.4128   -2.1734    2.1493 C   0  0  0  0  0  0  0  0  0  0  0  0
   -1.1110   -2.0351    2.1508 C   0  0  0  0  0  0  0  0  0  0  0  0
   -1.6829   -3.3973    1.7761 C   0  0  0  0  0  0  0  0  0  0  0  0
   -1.1875   -4.4126    2.8122 C   0  0  0  0  0  0  0  0  0  0  0  0
   -1.6200   -3.9634    4.2151 C   0  0  0  0  0  0  0  0  0  0  0  0
   -3.1469   -3.9183    4.3000 C   0  0  0  0  0  0  0  0  0  0  0  0
   -3.7449   -5.2824    3.9530 C   0  0  0  0  0  0  0  0  0  0  0  0
   -3.2233   -6.3409    4.9120 C   0  0  0  0  0  0  0  0  0  0  0  0
    0.3524    0.5761    1.5844 P   0  0  1  0  0  0  0  0  0  0  0  0
    1.7670    0.5434    2.1944 O   0  0  0  0  0  0  0  0  0  0  0  0
    0.2847    2.1489    0.9935 O   0  0  0  0  0  0  0  0  0  0  0  0
    0.7097    2.5689   -0.3343 C   0  0  0  0  0  0  0  0  0  0  0  0
    2.2181    2.3718   -0.8776 C   0  0  0  0  0  0  0  0  0  0  0  0
    3.0826    1.0472   -0.9712 C   0  0  0  0  0  0  0  0  0  0  0  0
    2.6783   -0.0620   -2.0399 C   0  0  0  0  0  0  0  0  0  0  0  0
  1  2  1  0
 12  1  1  6
  2  3  1  0
  3  4  1  0
  4  5  1  0
  5  6  1  0
  6  7  1  0
  7  8  1  0
  8  9  1  0
  9 10  1  0
 10 11  1  0
 12 13  2  0
 12 14  1  0
 14 15  1  0
 15 16  1  0
 16 17  1  0
 17 18  1  0
M  END
>  <DRUGBANK_ID>  (1) 
DB02457

>  <SECONDARY_ACCESSION_NUMBERS>  (1) 
EXPT00797

>  <COMMON_NAME>  (1) 
Undecyl-Phosphinic Acid Butyl Ester

$$$$
