
     RDKit          3D

 26 29  0  0  1  0  0  0  0  0999 V2000
   -0.6787   -0.8725   -0.4611 C   0  0  0  0  0  0  0  0  0  0  0  0
   -1.3889    0.2674   -0.7819 C   0  0  0  0  0  0  0  0  0  0  0  0
   -0.8024    1.5309   -1.5145 C   0  0  0  0  0  0  0  0  0  0  0  0
    0.5377    1.6838   -2.0886 C   0  0  0  0  0  0  0  0  0  0  0  0
    1.2848    0.3988   -1.3972 C   0  0  0  0  0  0  0  0  0  0  0  0
    0.6560   -0.7382   -0.6185 C   0  0  0  0  0  0  0  0  0  0  0  0
    0.5782    2.1255   -3.7778 O   0  0  0  0  0  0  0  0  0  0  0  0
    0.6854    3.4416   -5.0567 C   0  0  2  0  0  0  0  0  0  0  0  0
    0.9590    4.9300   -4.6869 C   0  0  0  0  0  0  0  0  0  0  0  0
    2.1112    4.9210   -3.8923 N   0  0  0  0  0  0  0  0  0  0  0  0
    3.1299    5.8456   -3.9395 C   0  0  0  0  0  0  0  0  0  0  0  0
    4.1955    5.4311   -3.0507 C   0  0  0  0  0  0  0  0  0  0  0  0
    5.2935    6.2019   -2.6637 C   0  0  0  0  0  0  0  0  0  0  0  0
    6.0795    5.5836   -1.7819 N   0  0  0  0  0  0  0  0  0  0  0  0
    5.4951    4.3792   -1.5994 N   0  0  0  0  0  0  0  0  0  0  0  0
    4.3571    4.2328   -2.3891 C   0  0  0  0  0  0  0  0  0  0  0  0
    5.9059    3.3598   -0.7565 C   0  0  0  0  0  0  0  0  0  0  0  0
    5.2216    2.2184   -0.7003 C   0  0  0  0  0  0  0  0  0  0  0  0
    4.0997    2.0990   -1.6692 C   0  0  0  0  0  0  0  0  0  0  0  0
    3.6571    3.0546   -2.4368 N   0  0  0  0  0  0  0  0  0  0  0  0
    2.7724    0.3501   -0.7499 C   0  0  2  0  0  0  0  0  0  0  0  0
    3.5674    0.8667   -1.8057 N   0  0  0  0  0  0  0  0  0  0  0  0
    3.1401    6.8590   -4.5764 O   0  0  0  0  0  0  0  0  0  0  0  0
   -0.1466    3.8893   -6.6113 C   0  0  0  0  0  0  0  0  0  0  0  0
    3.5233   -1.0201   -0.3619 C   0  0  0  0  0  0  0  0  0  0  0  0
   -1.1943   -1.9910    0.0883 F   0  0  0  0  0  0  0  0  0  0  0  0
  1  6  2  0
  1 26  1  0
  2  1  1  0
  3  2  2  0
  4  3  1  0
  4  7  1  0
  5  4  2  0
  5 21  1  0
  6  5  1  0
  7  8  1  0
  8  9  1  0
  8 24  1  1
  9 10  1  0
 10 11  1  0
 11 12  1  0
 11 23  2  0
 12 16  2  0
 13 12  1  0
 13 14  2  0
 14 15  1  0
 15 17  1  0
 16 15  1  0
 16 20  1  0
 18 17  2  0
 19 18  1  0
 20 19  2  0
 21 22  1  0
 21 25  1  6
 22 19  1  0
M  END
>  <DRUGBANK_ID>  (1) 
DB16826

>  <COMMON_NAME>  (1) 
Repotrectinib

>  <CAS_NUMBER>  (1) 
1802220-02-5

>  <UNII>  (1) 
08O3FQ4UNP

>  <SYNONYMS>  (1) 
(3R,6S,)-45-FLUORO-3,6-DIMETHYL-5-OXA-2,8-DIAZA-1(5,3)-PYRAZOLO(1,5-A)PYRIMIDINA-4(1,2)-BENZENANONAPHAN-9-ONE; (7S,13R)-11-Fluoro-7,13-Dimethyl-6,7,13,14-Tetrahydro-1,15-Ethenopyrazolo[4,3-F][1,4,8,10]Benzoxatriazacyclotridecin-4(5H)-One; 1,15-ETHENO-1H-PYRAZOLO(4,3-F)(1,4,8,10)BENZOXATRIAZACYCLOTRIDECIN-4(5H)-ONE, 11-FLUORO-6,7,13,14-TETRAHYDRO-7,13-DIMETHYL-, (7S,13R)-; Repotrectinib

$$$$
