
     RDKit          3D

 23 25  0  0  0  0  0  0  0  0999 V2000
    1.0221    0.0058    0.0294 C   0  0  0  0  0  0  0  0  0  0  0  0
    0.4535    0.4508    1.3859 C   0  0  0  0  0  0  0  0  0  0  0  0
    1.1300    1.7799    1.7205 C   0  0  0  0  0  0  0  0  0  0  0  0
   -1.0230    0.4431    1.4462 N   0  0  0  0  0  0  0  0  0  0  0  0
   -1.8314   -0.7077    1.4633 C   0  0  0  0  0  0  0  0  0  0  0  0
   -3.1034   -0.3619    1.4871 N   0  0  0  0  0  0  0  0  0  0  0  0
   -3.1664    1.0313    1.4733 C   0  0  0  0  0  0  0  0  0  0  0  0
   -4.2522    1.9644    1.4654 C   0  0  0  0  0  0  0  0  0  0  0  0
   -4.0027    3.3723    1.4511 C   0  0  0  0  0  0  0  0  0  0  0  0
   -5.3543    4.7344    1.4565 Br  0  0  0  0  0  0  0  0  0  0  0  0
   -2.6805    3.8220    1.4422 C   0  0  0  0  0  0  0  0  0  0  0  0
   -2.1342    5.6569    1.4349 Br  0  0  0  0  0  0  0  0  0  0  0  0
   -1.6253    2.9204    1.4447 C   0  0  0  0  0  0  0  0  0  0  0  0
   -1.8660    1.5416    1.4567 C   0  0  0  0  0  0  0  0  0  0  0  0
   -5.6080    1.4033    1.4686 N   0  0  0  0  0  0  0  0  0  0  0  0
   -5.7470    0.1689    1.4619 O   0  0  0  0  0  0  0  0  0  0  0  0
   -6.5715    2.1677    1.4748 O   0  0  0  0  0  0  0  0  0  0  0  0
   -1.1970   -2.0727    1.3552 C   0  0  0  0  0  0  0  0  0  0  0  0
   -0.4103   -2.4960    2.5973 C   0  0  0  0  0  0  0  0  0  0  0  0
    0.7855   -3.3381    2.1560 C   0  0  0  0  0  0  0  0  0  0  0  0
    0.3223   -4.5200    1.4323 N   0  0  0  0  0  0  0  0  0  0  0  0
   -0.4877   -4.1600    0.2586 C   0  0  0  0  0  0  0  0  0  0  0  0
   -1.7417   -3.3070    0.6418 C   0  0  0  0  0  0  0  0  0  0  0  0
  1  2  1  0
  2  3  1  0
  2  4  1  0
  4  5  1  0
  4 14  1  0
  5  6  2  0
  5 18  1  0
  6  7  1  0
  7  8  1  0
  7 14  2  0
  8  9  2  0
  8 15  1  0
  9 10  1  0
  9 11  1  0
 11 12  1  0
 11 13  2  0
 13 14  1  0
 15 16  1  0
 15 17  2  0
 18 19  1  0
 18 23  1  0
 19 20  1  0
 20 21  1  0
 21 22  1  0
 22 23  1  0
M  CHG  2  15   1  16  -1
M  END
>  <DRUGBANK_ID>  (1) 
DB18082

>  <COMMON_NAME>  (1) 
SEL-24

>  <CAS_NUMBER>  (1) 
1616359-00-2

>  <UNII>  (1) 
9M7X64VTLI

>  <SYNONYMS>  (1) 
1h-benzimidazole, 5,6-dibromo-1-(1-methylethyl)-4-nitro-2-(4-piperidinyl)-; 5,6-dibromo-1-(1-methylethyl)-4-nitro-2-(4-piperidinyl)-1h-benzimidazole; 5,6-dibromo-4-nitro-2-(piperidin-4-yl)-1-(propan-2-yl)-1h-1,3-benzimidazole; Pim/flt3 kinase inhibitor sel24; Sel-24 free base

$$$$
