
     RDKit          3D

 17 18  0  0  0  0  0  0  0  0999 V2000
   -1.2234   -1.2243    0.0027 C   0  0  0  0  0  0  0  0  0  0  0  0
   -1.1674    1.1951    0.0028 C   0  0  0  0  0  0  0  0  0  0  0  0
    0.1806   -1.2401    0.0181 C   0  0  0  0  0  0  0  0  0  0  0  0
    0.2255    1.1775    0.0202 C   0  0  0  0  0  0  0  0  0  0  0  0
   -1.9044   -0.0041   -0.0208 C   0  0  0  0  0  0  0  0  0  0  0  0
    0.8907   -0.0392    0.0168 C   0  0  0  0  0  0  0  0  0  0  0  0
   -3.3785    0.1101   -0.1381 C   0  0  0  0  0  0  0  0  0  0  0  0
    2.2532    0.0023    0.0085 O   0  0  0  0  0  0  0  0  0  0  0  0
   -3.8758    1.2122   -0.3533 O   0  0  0  0  0  0  0  0  0  0  0  0
   -4.0484   -1.0659   -0.0247 O   0  0  0  0  0  0  0  0  0  0  0  0
   -5.5025   -1.0081   -0.0935 C   0  0  0  0  0  0  0  0  0  0  0  0
   -6.0709   -0.3423    1.1387 C   0  0  0  0  0  0  0  0  0  0  0  0
   -6.3711   -1.0785    2.2884 C   0  0  0  0  0  0  0  0  0  0  0  0
   -6.5935   -0.4182    3.4988 C   0  0  0  0  0  0  0  0  0  0  0  0
   -6.4791    0.9705    3.5736 C   0  0  0  0  0  0  0  0  0  0  0  0
   -6.2163    1.7068    2.4264 C   0  0  0  0  0  0  0  0  0  0  0  0
   -6.1172    1.0569    1.2035 C   0  0  0  0  0  0  0  0  0  0  0  0
  1  3  2  0
  1  5  1  0
  2  4  1  0
  2  5  2  0
  3  6  1  0
  4  6  2  0
  5  7  1  0
  6  8  1  0
  7  9  2  0
  7 10  1  0
 10 11  1  0
 11 12  1  0
 12 13  2  0
 12 17  1  0
 13 14  1  0
 14 15  2  0
 15 16  1  0
 16 17  2  0
M  END
>  <DRUGBANK_ID>  (1) 
DB14176

>  <COMMON_NAME>  (1) 
Benzylparaben

>  <CAS_NUMBER>  (1) 
94-18-8

>  <UNII>  (1) 
8Y41DYV4VG

>  <SYNONYMS>  (1) 
Benzyl 4-hydroxybenzoate; Benzyl p-hydroxybenzoate; Benzyl parahydroxybenzoate; p-Hydroxybenzoic acid benzyl ester; Phenylmethyl 4-hydroxybenzoate

$$$$
