186
     RDKit          3D

 21 23  0  0  1  0  0  0  0  0999 V2000
    1.0737   -0.1118   -0.0023 Cl  0  0  0  0  0  0  0  0  0  0  0  0
    5.2926    1.4202    3.2051 Cl  0  0  0  0  0  0  0  0  0  0  0  0
    6.4540    1.5282   -2.4777 O   0  0  0  0  0  0  0  0  0  0  0  0
    9.0644    0.4793   -0.5377 O   0  0  0  0  0  0  0  0  0  0  0  0
    6.9869   -0.1731    0.0228 N   0  0  0  0  0  0  0  0  0  0  0  0
    6.5893    2.8195   -0.4004 N   0  0  0  0  0  0  0  0  0  0  0  0
    4.8740    1.1157    0.0996 C   0  0  0  0  0  0  0  0  0  0  0  0
    5.5523    2.4342    0.2601 C   0  0  0  0  0  0  0  0  0  0  0  0
    5.5893   -0.0919    0.0312 C   0  0  0  0  0  0  0  0  0  0  0  0
    4.9791    3.3700    1.2729 C   0  0  0  0  0  0  0  0  0  0  0  0
    7.2336    1.9105   -1.3539 C   0  0  0  0  0  0  0  0  0  0  0  0
    3.4714    1.1027    0.0925 C   0  0  0  0  0  0  0  0  0  0  0  0
    7.8486    0.7138   -0.5730 C   0  0  0  0  0  0  0  0  0  0  0  0
    4.8897   -1.2996   -0.0483 C   0  0  0  0  0  0  0  0  0  0  0  0
    2.7919   -0.1058   -0.0003 C   0  0  0  0  0  0  0  0  0  0  0  0
    3.4937   -1.3043   -0.0871 C   0  0  0  0  0  0  0  0  0  0  0  0
    4.7731    2.9541    2.5969 C   0  0  0  0  0  0  0  0  0  0  0  0
    4.6201    4.6713    0.8870 C   0  0  0  0  0  0  0  0  0  0  0  0
    4.1683    3.8164    3.5093 C   0  0  0  0  0  0  0  0  0  0  0  0
    4.1243    5.5645    1.8424 C   0  0  0  0  0  0  0  0  0  0  0  0
    3.8941    5.1340    3.1492 C   0  0  0  0  0  0  0  0  0  0  0  0
  1 15  1  0
  2 17  1  0
  3 11  1  0
  4 13  2  0
  5  9  1  0
  5 13  1  0
  6  8  2  0
  6 11  1  0
  7  8  1  0
  7  9  2  0
  7 12  1  0
  8 10  1  0
  9 14  1  0
 10 17  2  0
 10 18  1  0
 11 13  1  0
 12 15  2  0
 14 16  2  0
 15 16  1  0
 17 19  1  0
 18 20  2  0
 19 21  2  0
 20 21  1  0
M  END
>  <DRUGBANK_ID>  (1) 
DB00186

>  <SECONDARY_ACCESSION_NUMBERS>  (1) 
APRD00116

>  <COMMON_NAME>  (1) 
Lorazepam

>  <CAS_NUMBER>  (1) 
846-49-1

>  <UNII>  (1) 
O26FZP769L

>  <SYNONYMS>  (1) 
Loracepam; Lorazepam; o-Chlorooxazepam; o-Chloroxazepam

$$$$
