D3G
     RDKit          3D

 13 14  0  0  0  0  0  0  0  0999 V2000
    1.4329    0.0228   -0.0458 C   0  0  0  0  0  0  0  0  0  0  0  0
    0.6867    1.2006   -0.0200 C   0  0  0  0  0  0  0  0  0  0  0  0
   -0.6930    1.0989   -0.0176 C   0  0  0  0  0  0  0  0  0  0  0  0
   -1.3564   -0.0780   -0.0373 N   0  0  0  0  0  0  0  0  0  0  0  0
   -0.6000   -1.2092   -0.0674 C   0  0  0  0  0  0  0  0  0  0  0  0
    0.7887   -1.2203   -0.0757 C   0  0  0  0  0  0  0  0  0  0  0  0
    1.5609   -2.4459    0.0449 C   0  0  0  0  0  0  0  0  0  0  0  0
    2.4633   -2.8530    1.0017 C   0  0  0  0  0  0  0  0  0  0  0  0
    2.9394   -4.1160    0.6017 C   0  0  0  0  0  0  0  0  0  0  0  0
    2.3054   -4.4210   -0.5860 C   0  0  0  0  0  0  0  0  0  0  0  0
    1.4506   -3.4001   -0.9336 O   0  0  0  0  0  0  0  0  0  0  0  0
    2.4498   -5.6053   -1.4807 C   0  0  0  0  0  0  0  0  0  0  0  0
    1.2182   -6.3754   -1.6037 N   0  0  0  0  0  0  0  0  0  0  0  0
  1  2  2  0
  1  6  1  0
  2  3  1  0
  3  4  2  0
  4  5  1  0
  5  6  2  0
  6  7  1  0
  7  8  2  0
  7 11  1  0
  8  9  1  0
  9 10  2  0
 10 11  1  0
 10 12  1  0
 12 13  1  0
M  END
>  <DRUGBANK_ID>  (1) 
DB07621

>  <COMMON_NAME>  (1) 
(5-(PYRIDIN-3-YL)FURAN-2-YL)METHANAMINE

>  <UNII>  (1) 
7S869EMF45

$$$$
