BDL
     RDKit          3D

 24 25  0  0  0  0  0  0  0  0999 V2000
    1.0021   -0.0933   -0.1508 O   0  0  0  0  0  0  0  0  0  0  0  0
    2.2149    0.0081   -0.0269 C   0  0  0  0  0  0  0  0  0  0  0  0
    2.9642    0.5357   -1.0251 O   0  0  0  0  0  0  0  0  0  0  0  0
    2.9953   -0.4256    1.2222 C   0  0  1  0  0  0  0  0  0  0  0  0
    2.5398    0.4039    2.4272 C   0  0  0  0  0  0  0  0  0  0  0  0
    1.0462    0.2552    2.8060 C   0  0  0  0  0  0  0  0  0  0  0  0
    0.5227   -1.1632    3.0647 C   0  0  0  0  0  0  0  0  0  0  0  0
    0.7485    1.0876    4.0432 C   0  0  0  0  0  0  0  0  0  0  0  0
    2.9159   -1.8741    1.4848 N   0  0  0  0  0  0  0  0  0  0  0  0
    3.5924   -2.6007    2.8501 S   0  0  0  0  0  0  0  0  0  0  0  0
    3.3465   -1.8405    4.0580 O   0  0  0  0  0  0  0  0  0  0  0  0
    3.2302   -3.9935    2.7782 O   0  0  0  0  0  0  0  0  0  0  0  0
    5.3137   -2.4302    2.5412 C   0  0  0  0  0  0  0  0  0  0  0  0
    5.8849   -1.1501    2.5471 C   0  0  0  0  0  0  0  0  0  0  0  0
    7.2497   -0.9978    2.3731 C   0  0  0  0  0  0  0  0  0  0  0  0
    6.0966   -3.5668    2.4388 C   0  0  0  0  0  0  0  0  0  0  0  0
    7.4729   -3.4078    2.3689 C   0  0  0  0  0  0  0  0  0  0  0  0
    8.0593   -2.1300    2.2718 C   0  0  0  0  0  0  0  0  0  0  0  0
    9.4983   -2.0069    2.0665 C   0  0  0  0  0  0  0  0  0  0  0  0
   10.3004   -1.3010    2.9713 C   0  0  0  0  0  0  0  0  0  0  0  0
   11.6842   -1.2721    2.8109 C   0  0  0  0  0  0  0  0  0  0  0  0
   12.2781   -1.9569    1.7520 C   0  0  0  0  0  0  0  0  0  0  0  0
   11.4911   -2.6619    0.8454 C   0  0  0  0  0  0  0  0  0  0  0  0
   10.1057   -2.6457    0.9745 C   0  0  0  0  0  0  0  0  0  0  0  0
  1  2  2  0
  2  3  1  0
  2  4  1  0
  4  5  1  1
  4  9  1  0
  5  6  1  0
  6  7  1  0
  6  8  1  0
  9 10  1  0
 10 11  2  0
 10 12  2  0
 10 13  1  0
 13 14  2  0
 13 16  1  0
 14 15  1  0
 15 18  2  0
 16 17  2  0
 17 18  1  0
 18 19  1  0
 19 20  2  0
 19 24  1  0
 20 21  1  0
 21 22  2  0
 22 23  1  0
 23 24  2  0
M  END
>  <DRUGBANK_ID>  (1) 
DB07446

>  <COMMON_NAME>  (1) 
N-(biphenyl-4-ylsulfonyl)-D-leucine

$$$$
