L18
     RDKit          3D

 19 20  0  0  0  0  0  0  0  0999 V2000
   -1.3556    0.1247   -3.8830 C   0  0  1  0  0  0  0  0  0  0  0  0
   -1.6036    1.6245   -4.0773 C   0  0  0  0  0  0  0  0  0  0  0  0
   -1.8935   -0.5809   -5.1592 C   0  0  0  0  0  0  0  0  0  0  0  0
   -1.3148   -0.0930   -6.5204 C   0  0  1  0  0  0  0  0  0  0  0  0
    0.1880   -0.3043   -6.7675 C   0  0  0  0  0  0  0  0  0  0  0  0
   -1.7930   -2.0367   -8.0401 C   0  0  0  0  0  0  0  0  0  0  0  0
   -2.3368   -2.5449   -9.2181 C   0  0  0  0  0  0  0  0  0  0  0  0
   -3.1953   -1.7513   -9.9711 C   0  0  0  0  0  0  0  0  0  0  0  0
   -3.5545   -0.4772   -9.5471 C   0  0  0  0  0  0  0  0  0  0  0  0
   -3.0140    0.0343   -8.3655 C   0  0  0  0  0  0  0  0  0  0  0  0
   -2.0847   -0.7306   -7.6536 C   0  0  0  0  0  0  0  0  0  0  0  0
    2.9533    0.8011   -3.8379 C   0  0  0  0  0  0  0  0  0  0  0  0
    2.6947    2.2991   -3.6588 C   0  0  0  0  0  0  0  0  0  0  0  0
    1.2340    2.5398   -3.3611 C   0  0  0  0  0  0  0  0  0  0  0  0
    0.7983    1.6825   -2.1595 C   0  0  0  0  0  0  0  0  0  0  0  0
    0.9740    0.1941   -2.4598 C   0  0  1  0  0  0  0  0  0  0  0  0
    0.0840   -0.3647   -3.5988 C   0  0  0  0  0  0  0  0  0  0  0  0
    2.7599   -1.4260   -2.9343 C   0  0  0  0  0  0  0  0  0  0  0  0
    2.4287   -0.0175   -2.7241 N   0  0  0  0  0  0  0  0  0  0  0  0
  1 17  1  0
  1  3  1  0
  1  2  1  6
  3  4  1  0
  4  5  1  6
  4 11  1  0
  6  7  2  0
  6 11  1  0
  7  8  1  0
  8  9  2  0
  9 10  1  0
 10 11  2  0
 12 13  1  0
 12 19  1  0
 13 14  1  0
 14 15  1  0
 15 16  1  0
 16 19  1  0
 16 17  1  6
 18 19  1  0
M  END
>  <DRUGBANK_ID>  (1) 
DB08071

>  <COMMON_NAME>  (1) 
(2S)-1-methyl-2-[(2S,4R)-2-methyl-4-phenylpentyl]piperidine

$$$$
