
     RDKit          3D

 39 42  0  0  0  0  0  0  0  0999 V2000
   -1.1491    0.8238   -0.0747 O   0  0  0  0  0  0  0  0  0  0  0  0
    0.3209    2.1008   -1.5324 O   0  0  0  0  0  0  0  0  0  0  0  0
    1.6917   -1.8151   -0.1128 O   0  0  0  0  0  0  0  0  0  0  0  0
   -0.9567   -1.5802    0.8734 O   0  0  0  0  0  0  0  0  0  0  0  0
    2.4137    1.0282    0.0847 O   0  0  0  0  0  0  0  0  0  0  0  0
   -1.2777    3.3242    5.3386 O   0  0  0  0  0  0  0  0  0  0  0  0
   -3.3435    0.8644    0.3310 O   0  0  0  0  0  0  0  0  0  0  0  0
   -3.9083   -0.0256   -1.9304 O   0  0  0  0  0  0  0  0  0  0  0  0
   -3.5243    6.9269   -1.3475 O   0  0  0  0  0  0  0  0  0  0  0  0
    0.6262    4.8434   -5.5794 O   0  0  0  0  0  0  0  0  0  0  0  0
   -0.7518    6.5282   -5.3029 O   0  0  0  0  0  0  0  0  0  0  0  0
   -2.7064    5.0620    3.5033 N   0  0  0  0  0  0  0  0  0  0  0  0
   -5.0799    2.9565    0.2928 N   0  0  0  0  0  0  0  0  0  0  0  0
   -3.4066    5.6156    0.4551 N   0  0  0  0  0  0  0  0  0  0  0  0
   -0.2894    5.4158   -4.9869 N   0  0  0  0  0  0  0  0  0  0  0  0
    0.8436   -0.7772   -0.5710 C   0  0  1  0  0  0  0  0  0  0  0  0
   -0.5963   -1.3068   -0.5042 C   0  0  2  0  0  0  0  0  0  0  0  0
   -3.1479    4.4246    1.1902 C   0  0  0  0  0  0  0  0  0  0  0  0
    1.0959    0.5187    0.2419 C   0  0  2  0  0  0  0  0  0  0  0  0
   -1.4493   -0.2187   -1.0662 C   0  0  1  0  0  0  0  0  0  0  0  0
   -2.1474    4.5084    2.2833 C   0  0  0  0  0  0  0  0  0  0  0  0
   -4.2629    3.4056    1.4484 C   0  0  0  0  0  0  0  0  0  0  0  0
    0.0697    1.5566   -0.2018 C   0  0  2  0  0  0  0  0  0  0  0  0
   -1.5170    5.5250    4.2334 C   0  0  0  0  0  0  0  0  0  0  0  0
   -3.3904    4.0519    4.3526 C   0  0  0  0  0  0  0  0  0  0  0  0
   -5.5969    1.6006    0.6097 C   0  0  0  0  0  0  0  0  0  0  0  0
   -4.2360    2.8645   -0.8865 C   0  0  0  0  0  0  0  0  0  0  0  0
   -2.9254   -0.8467   -1.2692 C   0  0  0  0  0  0  0  0  0  0  0  0
   -0.5969    4.3275    4.5656 C   0  0  0  0  0  0  0  0  0  0  0  0
   -2.4892    2.8664    4.7205 C   0  0  0  0  0  0  0  0  0  0  0  0
   -4.5231    0.6216    1.0429 C   0  0  0  0  0  0  0  0  0  0  0  0
   -3.0871    2.0033   -0.5097 C   0  0  0  0  0  0  0  0  0  0  0  0
   -2.9427    5.9549   -0.8040 C   0  0  0  0  0  0  0  0  0  0  0  0
   -0.3093    3.2489   -1.9770 C   0  0  0  0  0  0  0  0  0  0  0  0
   -1.8772    5.1860   -1.6317 C   0  0  0  0  0  0  0  0  0  0  0  0
   -1.0302    4.1383   -1.1707 C   0  0  0  0  0  0  0  0  0  0  0  0
   -0.1881    3.5994   -3.3100 C   0  0  0  0  0  0  0  0  0  0  0  0
   -1.7335    5.5105   -2.9772 C   0  0  0  0  0  0  0  0  0  0  0  0
   -0.8048    4.7936   -3.7610 C   0  0  0  0  0  0  0  0  0  0  0  0
  1 20  1  0
  1 23  1  0
  2 34  1  0
  6 29  1  0
  6 30  1  0
  7 31  1  0
  7 32  1  0
  8 28  1  0
  9 33  2  0
 10 15  1  0
 11 15  2  0
 12 21  1  0
 12 24  1  0
 12 25  1  0
 13 22  1  0
 13 26  1  0
 13 27  1  0
 14 18  1  0
 14 33  1  0
 15 39  1  0
 16  3  1  1
 16 17  1  0
 16 19  1  0
 17  4  1  1
 17 20  1  0
 18 21  1  0
 18 22  1  0
 19  5  1  6
 19 23  1  0
 20 28  1  1
 23  2  1  6
 24 29  1  0
 25 30  1  0
 26 31  1  0
 27 32  1  0
 33 35  1  0
 34 36  2  0
 34 37  1  0
 35 36  1  0
 35 38  2  0
 37 39  2  0
 38 39  1  0
M  CHG  2  10  -1  15   1
M  END
>  <DRUGBANK_ID>  (1) 
DB04040

>  <SECONDARY_ACCESSION_NUMBERS>  (1) 
EXPT00072

>  <COMMON_NAME>  (1) 
N-[1,3-Di(4-morpholinyl)-2-propanyl]-3-(Î±-D-galactopyranosyloxy)-5-nitrobenzamide

$$$$
