
     RDKit          3D

 31 33  0  0  0  0  0  0  0  0999 V2000
    0.9499   -0.0307    0.3405 S   0  0  0  0  0  0  0  0  0  0  0  0
    4.0095   -1.7477   -4.5469 S   0  0  0  0  0  0  0  0  0  0  0  0
    1.6317    3.2129   -0.5477 O   0  0  0  0  0  0  0  0  0  0  0  0
    0.2651    5.9746   -2.3370 O   0  0  0  0  0  0  0  0  0  0  0  0
   -1.4177    4.2362   -1.4499 O   0  0  0  0  0  0  0  0  0  0  0  0
    0.3427    0.3531   -1.1204 O   0  0  0  0  0  0  0  0  0  0  0  0
    0.3915   -1.2830    0.7276 O   0  0  0  0  0  0  0  0  0  0  0  0
    0.7522    1.1120    1.2267 O   0  0  0  0  0  0  0  0  0  0  0  0
    4.5492   -1.0021   -0.5414 O   0  0  0  0  0  0  0  0  0  0  0  0
    3.5236    4.6872   -1.1694 N   0  0  0  0  0  0  0  0  0  0  0  0
    4.4189    6.7539   -1.7369 N   0  0  0  0  0  0  0  0  0  0  0  0
    4.9542    3.3746   -3.1719 N   0  0  0  0  0  0  0  0  0  0  0  0
    3.8472    4.7507   -4.7040 N   0  0  0  0  0  0  0  0  0  0  0  0
    2.6449    6.6540   -3.8419 N   0  0  0  0  0  0  0  0  0  0  0  0
    2.5808   -0.1181    0.1079 N   0  0  0  0  0  0  0  0  0  0  0  0
    1.7920   -3.0228   -0.5850 N   0  0  0  0  0  0  0  0  0  0  0  0
    1.9714    4.4649   -1.1523 C   0  0  1  0  0  0  0  0  0  0  0  0
    0.8901    4.6772   -2.2941 C   0  0  1  0  0  0  0  0  0  0  0  0
   -0.2356    3.6629   -2.0459 C   0  0  1  0  0  0  0  0  0  0  0  0
    0.4269    2.6752   -1.1346 C   0  0  1  0  0  0  0  0  0  0  0  0
    4.6701    4.4586   -2.1966 C   0  0  1  0  0  0  0  0  0  0  0  0
    0.8664    1.4392   -1.8666 C   0  0  0  0  0  0  0  0  0  0  0  0
    3.8200    6.0217   -0.8441 C   0  0  0  0  0  0  0  0  0  0  0  0
    4.5667    5.8516   -2.7818 C   0  0  0  0  0  0  0  0  0  0  0  0
    3.7528    5.8303   -3.8644 C   0  0  0  0  0  0  0  0  0  0  0  0
    4.5999    3.6645   -4.3775 C   0  0  0  0  0  0  0  0  0  0  0  0
    2.6149   -2.1578   -1.4154 C   0  0  2  0  0  0  0  0  0  0  0  0
    3.3233   -1.0790   -0.5796 C   0  0  0  0  0  0  0  0  0  0  0  0
    1.9377   -1.6184   -2.6691 C   0  0  0  0  0  0  0  0  0  0  0  0
    2.8516   -0.7563   -3.5398 C   0  0  0  0  0  0  0  0  0  0  0  0
    5.1328   -2.4924   -3.3175 C   0  0  0  0  0  0  0  0  0  0  0  0
  1  6  1  0
  1  7  2  0
  1  8  2  0
  1 15  1  0
  2 30  1  0
  2 31  1  0
  3 17  1  0
  3 20  1  0
  6 22  1  0
  9 28  2  0
 10 21  1  0
 10 23  1  0
 11 23  2  0
 11 24  1  0
 21 12  1  6
 12 26  2  0
 13 25  1  0
 13 26  1  0
 14 25  1  0
 15 28  1  0
 17 18  1  0
 17 10  1  6
 18  4  1  1
 18 19  1  0
 19  5  1  1
 19 20  1  0
 20 22  1  6
 21 24  1  0
 24 25  2  0
 27 16  1  1
 27 28  1  0
 27 29  1  0
 29 30  1  0
M  END
>  <DRUGBANK_ID>  (1) 
DB02229

>  <SECONDARY_ACCESSION_NUMBERS>  (1) 
EXPT02239

>  <COMMON_NAME>  (1) 
5'-O-[(L-methionyl)-sulphamoyl]adenosine

$$$$
