
     RDKit          3D

 17 18  0  0  0  0  0  0  0  0999 V2000
    0.9127   -0.0956    0.0974 O   0  0  0  0  0  0  0  0  0  0  0  0
    1.0280    1.7332    1.3725 O   0  0  0  0  0  0  0  0  0  0  0  0
   -1.1784    0.9060    0.7322 C   0  0  2  0  0  0  0  0  0  0  0  0
   -1.8765   -0.3236    1.2974 C   0  0  0  0  0  0  0  0  0  0  0  0
   -3.4066   -2.5444    2.1225 C   0  0  0  0  0  0  0  0  0  0  0  0
   -3.1840   -0.5475    0.8442 C   0  0  0  0  0  0  0  0  0  0  0  0
   -1.3653   -1.2030    2.2637 C   0  0  0  0  0  0  0  0  0  0  0  0
   -3.9113   -1.6615    1.1847 C   0  0  0  0  0  0  0  0  0  0  0  0
   -2.1200   -2.3253    2.6459 C   0  0  0  0  0  0  0  0  0  0  0  0
   -1.5559    1.1697   -0.7510 C   0  0  0  0  0  0  0  0  0  0  0  0
   -4.2688   -3.6181    2.5865 C   0  0  0  0  0  0  0  0  0  0  0  0
    0.3330    0.8973    0.8008 C   0  0  0  0  0  0  0  0  0  0  0  0
   -4.7867   -4.5532    1.6807 C   0  0  0  0  0  0  0  0  0  0  0  0
   -4.6299   -3.6962    3.9371 C   0  0  0  0  0  0  0  0  0  0  0  0
   -5.5921   -5.5924    2.1301 C   0  0  0  0  0  0  0  0  0  0  0  0
   -5.3909   -4.7654    4.3947 C   0  0  0  0  0  0  0  0  0  0  0  0
   -5.8814   -5.7046    3.4888 C   0  0  0  0  0  0  0  0  0  0  0  0
  1 12  1  0
  2 12  2  0
  3 12  1  0
  3 10  1  6
  3  4  1  0
  4  6  2  0
  4  7  1  0
  5  8  2  0
  5  9  1  0
  5 11  1  0
  6  8  1  0
  7  9  2  0
 11 13  2  0
 11 14  1  0
 13 15  1  0
 14 16  2  0
 15 17  2  0
 16 17  1  0
M  END
>  <DRUGBANK_ID>  (1) 
DB02047

>  <SECONDARY_ACCESSION_NUMBERS>  (1) 
EXPT00679

>  <COMMON_NAME>  (1) 
(+)-2-(4-biphenyl)propionic acid

>  <CAS_NUMBER>  (1) 
10532-14-6

>  <UNII>  (1) 
E4ZV1V9C3W

>  <SYNONYMS>  (1) 
(2S)-2-(4-Biphenylyl)propanoic acid; 2-(1,1'-biphenyl-4-yl)propanoic acid

$$$$
