347
     RDKit          3D

 10 10  0  0  0  0  0  0  0  0999 V2000
   -0.6952   -0.9236    0.0079 O   0  0  0  0  0  0  0  0  0  0  0  0
    2.3000    0.8452    0.1326 O   0  0  0  0  0  0  0  0  0  0  0  0
   -2.1181    0.8006    0.4627 O   0  0  0  0  0  0  0  0  0  0  0  0
    0.0433    1.1457   -0.2440 N   0  0  0  0  0  0  0  0  0  0  0  0
    0.7319   -1.0263    0.1121 C   0  0  0  0  0  0  0  0  0  0  0  0
    1.1610    0.4236    0.0099 C   0  0  0  0  0  0  0  0  0  0  0  0
    1.0333   -1.6934    1.4402 C   0  0  0  0  0  0  0  0  0  0  0  0
    1.3647   -1.8233   -1.0256 C   0  0  0  0  0  0  0  0  0  0  0  0
   -1.0220    0.4001    0.0945 C   0  0  0  0  0  0  0  0  0  0  0  0
    0.0020    2.5313   -0.6528 C   0  0  0  0  0  0  0  0  0  0  0  0
  1  5  1  0
  1  9  1  0
  2  6  2  0
  3  9  2  0
  4  6  1  0
  4  9  1  0
  4 10  1  0
  5  6  1  0
  5  7  1  0
  5  8  1  0
M  END
>  <DRUGBANK_ID>  (1) 
DB00347

>  <SECONDARY_ACCESSION_NUMBERS>  (1) 
APRD00315

>  <COMMON_NAME>  (1) 
Trimethadione

>  <CAS_NUMBER>  (1) 
127-48-0

>  <UNII>  (1) 
R7GV3H6FQ4

>  <SYNONYMS>  (1) 
Trimetadiona; Trimethadion; Trimethadione; Trim√©thadione; Trimethadionum; Trimethinum; Troxidone

$$$$
