
     RDKit          3D

 11 10  0  0  1  0  0  0  0  0999 V2000
    1.1267    0.0099   -0.0839 C   0  0  0  0  0  0  0  0  0  0  0  0
    1.0525    1.4650    1.9753 C   0  0  0  0  0  0  0  0  0  0  0  0
    0.5353    0.1583    1.3248 C   0  0  1  0  0  0  0  0  0  0  0  0
    0.5511    2.7172    1.2958 C   0  0  0  0  0  0  0  0  0  0  0  0
   -1.0119    0.0910    1.3354 C   0  0  1  0  0  0  0  0  0  0  0  0
   -1.5730   -1.2079    0.7216 C   0  0  0  0  0  0  0  0  0  0  0  0
   -1.4824    0.2081    2.7394 N   0  0  0  0  0  0  0  0  0  0  0  0
   -0.2032    3.5538    1.7721 O   0  0  0  0  0  0  0  0  0  0  0  0
    1.0060    2.8564    0.0365 O   0  0  0  0  0  0  0  0  0  0  0  0
   -2.2137   -2.0670    1.3107 O   0  0  0  0  0  0  0  0  0  0  0  0
   -1.3194   -1.3333   -0.5956 O   0  0  0  0  0  0  0  0  0  0  0  0
  3  1  1  6
  3  2  1  0
  4  2  1  0
  5  3  1  0
  5  7  1  1
  6  5  1  0
  8  4  2  0
  9  4  1  0
 10  6  2  0
 11  6  1  0
M  END
>  <DRUGBANK_ID>  (1) 
DB01898

>  <SECONDARY_ACCESSION_NUMBERS>  (1) 
EXPT02151

>  <COMMON_NAME>  (1) 
(2S,3S)-2-azanyl-3-methyl-pentanedioic acid

>  <SYNONYMS>  (1) 
(3S)-3-methyl-L-glutamic acid

$$$$
