
     RDKit          3D

 32 34  0  0  0  0  0  0  0  0999 V2000
    1.0845   -0.1886   -0.0189 C   0  0  0  0  0  0  0  0  0  0  0  0
    0.5946    0.5600   -1.2109 N   0  0  0  0  0  0  0  0  0  0  0  0
    1.0289   -0.1204   -2.4740 C   0  0  0  0  0  0  0  0  0  0  0  0
   -0.9328    0.6820   -1.1961 C   0  0  0  0  0  0  0  0  0  0  0  0
   -1.5250    1.3634    0.0482 C   0  0  0  0  0  0  0  0  0  0  0  0
   -1.0416    2.7305    0.2454 N   0  0  0  0  0  0  0  0  0  0  0  0
   -1.9490    3.7964    0.0961 C   0  0  0  0  0  0  0  0  0  0  0  0
   -3.0832    3.7974    0.8987 C   0  0  0  0  0  0  0  0  0  0  0  0
   -3.9619    4.8737    0.8805 C   0  0  0  0  0  0  0  0  0  0  0  0
   -3.7655    6.0061    0.0568 C   0  0  0  0  0  0  0  0  0  0  0  0
   -2.6047    6.0318   -0.7982 C   0  0  0  0  0  0  0  0  0  0  0  0
   -1.7376    4.9164   -0.7642 C   0  0  0  0  0  0  0  0  0  0  0  0
   -0.5536    4.8974   -1.6457 C   0  0  0  0  0  0  0  0  0  0  0  0
    0.1895    3.9580   -1.5937 O   0  0  0  0  0  0  0  0  0  0  0  0
   -0.2504    5.9638   -2.6017 C   0  0  0  0  0  0  0  0  0  0  0  0
    0.8691    5.9220   -3.4311 C   0  0  0  0  0  0  0  0  0  0  0  0
    1.1544    6.9715   -4.3069 C   0  0  0  0  0  0  0  0  0  0  0  0
    0.3151    8.0728   -4.3862 C   0  0  0  0  0  0  0  0  0  0  0  0
   -0.8001    8.1114   -3.5857 C   0  0  0  0  0  0  0  0  0  0  0  0
   -1.0701    7.0539   -2.6801 C   0  0  0  0  0  0  0  0  0  0  0  0
   -2.1593    7.1658   -1.7464 C   0  0  0  0  0  0  0  0  0  0  0  0
   -2.5648    8.3211   -1.8422 O   0  0  0  0  0  0  0  0  0  0  0  0
   -1.5763    9.2377   -3.7435 O   0  0  0  0  0  0  0  0  0  0  0  0
    1.6961    4.8434   -3.3925 O   0  0  0  0  0  0  0  0  0  0  0  0
   -4.6865    7.0378    0.3296 N   0  0  0  0  0  0  0  0  0  0  0  0
   -4.7587    8.1752   -0.5392 C   0  0  0  0  0  0  0  0  0  0  0  0
   -5.8497    8.2935   -1.5614 C   0  0  0  0  0  0  0  0  0  0  0  0
   -7.1244    8.5449   -0.8712 N   0  0  0  0  0  0  0  0  0  0  0  0
   -6.9916    9.8241   -0.0850 C   0  0  0  0  0  0  0  0  0  0  0  0
   -8.2059    8.6638   -1.8891 C   0  0  0  0  0  0  0  0  0  0  0  0
   -7.4040    7.4829   -0.0440 O   0  0  0  0  0  0  0  0  0  0  0  0
    1.2306    1.7533   -1.1751 O   0  0  0  0  0  0  0  0  0  0  0  0
  1  2  1  0
  2  3  1  0
  2  4  1  0
  2 32  1  0
  4  5  1  0
  5  6  1  0
  6  7  1  0
  7  8  2  0
  7 12  1  0
  8  9  1  0
  9 10  2  0
 10 11  1  0
 10 25  1  0
 11 12  2  0
 11 21  1  0
 12 13  1  0
 13 14  2  0
 13 15  1  0
 15 16  2  0
 15 20  1  0
 16 17  1  0
 16 24  1  0
 17 18  2  0
 18 19  1  0
 19 20  2  0
 19 23  1  0
 20 21  1  0
 21 22  2  0
 25 26  1  0
 26 27  1  0
 27 28  1  0
 28 29  1  0
 28 30  1  0
 28 31  1  0
M  CHG  4   2   1  28   1  31  -1  32  -1
M  END
>  <DRUGBANK_ID>  (1) 
DB04975

>  <COMMON_NAME>  (1) 
Banoxantrone

>  <CAS_NUMBER>  (1) 
136470-65-0

>  <UNII>  (1) 
W5H7E45YT3

>  <SYNONYMS>  (1) 
Banoxantrone

$$$$
