
     RDKit          3D

  6  5  0  0  0  0  0  0  0  0999 V2000
    1.0618    0.0417    0.0659 C   0  0  0  0  0  0  0  0  0  0  0  0
    0.5535    0.1292    1.4883 C   0  0  0  0  0  0  0  0  0  0  0  0
    0.6294    1.1003   -0.6745 F   0  0  0  0  0  0  0  0  0  0  0  0
    0.9900    1.2467    2.1093 F   0  0  0  0  0  0  0  0  0  0  0  0
   -0.7962    0.1190    1.5403 F   0  0  0  0  0  0  0  0  0  0  0  0
    0.9920   -0.9299    2.2111 F   0  0  0  0  0  0  0  0  0  0  0  0
  2  1  1  0
  3  1  1  0
  4  2  1  0
  5  2  1  0
  6  2  1  0
M  END
>  <DRUGBANK_ID>  (1) 
DB13116

>  <COMMON_NAME>  (1) 
Norflurane

>  <CAS_NUMBER>  (1) 
811-97-2

>  <UNII>  (1) 
DH9E53K1Y8

>  <SYNONYMS>  (1) 
1,1,1,2 Tetrafluoroethane; Norflurane; Tetrafluoroethane

$$$$
