
     RDKit          3D

 18 20  0  0  1  0  0  0  0  0999 V2000
    0.1045    0.7814   -0.1491 C   0  0  1  0  0  0  0  0  0  0  0  0
    0.8323   -0.4934    0.1344 C   0  0  1  0  0  0  0  0  0  0  0  0
   -0.6560   -0.5084   -0.0801 C   0  0  0  0  0  0  0  0  0  0  0  0
    0.0066    1.7910    0.9004 N   0  0  0  0  0  0  0  0  0  0  0  0
    1.8230   -1.0060   -0.8632 C   0  0  0  0  0  0  0  0  0  0  0  0
    3.0440   -0.3404   -1.0418 C   0  0  0  0  0  0  0  0  0  0  0  0
    4.0772   -0.9045   -1.7890 C   0  0  0  0  0  0  0  0  0  0  0  0
    3.8924   -2.1554   -2.3777 C   0  0  0  0  0  0  0  0  0  0  0  0
    2.6749   -2.8111   -2.2487 C   0  0  0  0  0  0  0  0  0  0  0  0
    1.6336   -2.2283   -1.5254 C   0  0  0  0  0  0  0  0  0  0  0  0
   -1.0559    2.7153    0.5710 C   0  0  0  0  0  0  0  0  0  0  0  0
   -2.9873    2.4321    2.2492 C   0  0  0  0  0  0  0  0  0  0  0  0
   -2.4815    2.1624    0.8258 C   0  0  1  0  0  0  0  0  0  0  0  0
   -3.4139    2.8258   -0.1902 C   0  0  0  0  0  0  0  0  0  0  0  0
   -3.3783    4.3376    0.0061 C   0  0  0  0  0  0  0  0  0  0  0  0
   -3.7534    4.7158    1.4479 C   0  0  1  0  0  0  0  0  0  0  0  0
   -3.0062    3.9302    2.5460 C   0  0  0  0  0  0  0  0  0  0  0  0
   -3.5396    6.1494    1.6200 N   0  0  0  0  0  0  0  0  0  0  0  0
  1  2  1  0
  1  3  1  0
  1  4  1  1
  2  3  1  0
  2  5  1  6
  4 11  1  0
  5  6  2  0
  5 10  1  0
  6  7  1  0
  7  8  2  0
  8  9  1  0
  9 10  2  0
 13 11  1  1
 12 13  1  0
 12 17  1  0
 13 14  1  0
 14 15  1  0
 15 16  1  0
 16 17  1  0
 16 18  1  1
M  END
>  <DRUGBANK_ID>  (1) 
DB16848

>  <COMMON_NAME>  (1) 
ORY-1001

>  <CAS_NUMBER>  (1) 
1401966-39-9

>  <UNII>  (1) 
XC0UT08SNJ

>  <SYNONYMS>  (1) 
Iadademstat

$$$$
