
     RDKit          3D

 19 18  0  0  0  0  0  0  0  0999 V2000
    0.8485   -0.1592   -0.3895 S   0  0  0  0  0  0  0  0  0  0  0  0
    0.1580   -1.3311    0.5007 O   0  0  0  0  0  0  0  0  0  0  0  0
    0.3055    1.2917    0.1960 O   0  0  0  0  0  0  0  0  0  0  0  0
    0.2717   -0.3475   -1.7128 O   0  0  0  0  0  0  0  0  0  0  0  0
    2.2599   -0.3082   -0.1949 O   0  0  0  0  0  0  0  0  0  0  0  0
    0.8468    2.1133    1.2648 C   0  0  0  0  0  0  0  0  0  0  0  0
    0.4127    1.6209    2.6619 C   0  0  0  0  0  0  0  0  0  0  0  0
    2.3516    2.3773    1.2199 C   0  0  0  0  0  0  0  0  0  0  0  0
    2.8281    3.1344    0.0282 C   0  0  0  0  0  0  0  0  0  0  0  0
    0.9381    0.2175    2.8813 C   0  0  0  0  0  0  0  0  0  0  0  0
    2.4137    4.5883    0.0918 C   0  0  0  0  0  0  0  0  0  0  0  0
    2.9276    5.2736    1.3659 C   0  0  0  0  0  0  0  0  0  0  0  0
    2.9064    5.2645   -1.1873 C   0  0  0  0  0  0  0  0  0  0  0  0
    0.8097    4.5697   -2.4529 C   0  0  0  0  0  0  0  0  0  0  0  0
    2.3383    4.6003   -2.4478 C   0  0  0  0  0  0  0  0  0  0  0  0
    2.4348   -0.0680    2.8747 C   0  0  0  0  0  0  0  0  0  0  0  0
    0.2756   -0.6201    3.9333 C   0  0  0  0  0  0  0  0  0  0  0  0
    4.4442    5.2428    1.4579 C   0  0  0  0  0  0  0  0  0  0  0  0
    0.2534    5.9816   -2.3795 C   0  0  0  0  0  0  0  0  0  0  0  0
  2  1  1  0
  3  1  1  0
  4  1  2  0
  5  1  2  0
  6  3  1  0
  7  6  1  0
  8  6  1  0
  9  8  1  0
 10  7  1  0
 11  9  1  0
 12 11  1  0
 13 11  1  0
 14 15  1  0
 15 13  1  0
 16 10  1  0
 17 10  1  0
 18 12  1  0
 19 14  1  0
M  END
>  <DRUGBANK_ID>  (1) 
DB11328

>  <COMMON_NAME>  (1) 
Tetradecyl hydrogen sulfate (ester)

>  <CAS_NUMBER>  (1) 
300-52-7

>  <UNII>  (1) 
6326W0DRHY

>  <SYNONYMS>  (1) 
7-Ethyl-2-methyl-4-undecanol sulfate; Tetradecyl hydrogen sulfate

$$$$
