M03
     RDKit          3D

 24 27  0  0  0  0  0  0  0  0999 V2000
    1.3783   -0.0025    0.2992 N   0  0  0  0  0  0  0  0  0  0  0  0
    0.8093    1.2635   -0.1168 C   0  0  0  0  0  0  0  0  0  0  0  0
   -0.6801    1.2927    0.1947 C   0  0  0  0  0  0  0  0  0  0  0  0
   -1.4799    0.0356   -0.2650 C   0  0  0  0  0  0  0  0  0  0  0  0
   -2.8603    0.0809    0.5132 C   0  0  0  0  0  0  0  0  0  0  0  0
   -3.6697    1.2746    0.2279 N   0  0  0  0  0  0  0  0  0  0  0  0
   -0.7199   -1.2449    0.2167 C   0  0  0  0  0  0  0  0  0  0  0  0
    0.7807   -1.2623   -0.1149 C   0  0  0  0  0  0  0  0  0  0  0  0
   -1.6842    0.0063   -1.8072 C   0  0  0  0  0  0  0  0  0  0  0  0
   -0.6020    0.0129   -2.7046 C   0  0  0  0  0  0  0  0  0  0  0  0
   -0.7661    0.0411   -4.0885 C   0  0  0  0  0  0  0  0  0  0  0  0
   -2.0393    0.0661   -4.6243 C   0  0  0  0  0  0  0  0  0  0  0  0
   -2.2452    0.1343   -6.3258 Cl  0  0  0  0  0  0  0  0  0  0  0  0
   -3.1404    0.0351   -3.7832 C   0  0  0  0  0  0  0  0  0  0  0  0
   -2.9611   -0.0117   -2.3966 C   0  0  0  0  0  0  0  0  0  0  0  0
    2.4648   -0.0305    1.1428 C   0  0  0  0  0  0  0  0  0  0  0  0
    3.5752   -0.7152    0.7672 N   0  0  0  0  0  0  0  0  0  0  0  0
    4.6288   -0.7563    1.6069 C   0  0  0  0  0  0  0  0  0  0  0  0
    4.7246   -0.2562    2.8503 N   0  0  0  0  0  0  0  0  0  0  0  0
    3.6023    0.3925    3.1929 C   0  0  0  0  0  0  0  0  0  0  0  0
    3.3906    0.9775    4.4132 N   0  0  0  0  0  0  0  0  0  0  0  0
    2.1632    1.5886    4.4246 C   0  0  0  0  0  0  0  0  0  0  0  0
    1.5748    1.3609    3.2004 C   0  0  0  0  0  0  0  0  0  0  0  0
    2.4739    0.5801    2.4150 C   0  0  0  0  0  0  0  0  0  0  0  0
  1  2  1  0
  1  8  1  0
  1 16  1  0
  2  3  1  0
  3  4  1  0
  4  5  1  0
  4  7  1  0
  4  9  1  0
  5  6  1  0
  7  8  1  0
  9 10  2  0
  9 15  1  0
 10 11  1  0
 11 12  2  0
 12 13  1  0
 12 14  1  0
 14 15  2  0
 16 17  2  0
 16 24  1  0
 17 18  1  0
 18 19  2  0
 19 20  1  0
 20 21  1  0
 20 24  2  0
 21 22  1  0
 22 23  2  0
 23 24  1  0
M  END
>  <DRUGBANK_ID>  (1) 
DB08148

>  <COMMON_NAME>  (1) 
1-[4-(4-chlorophenyl)-1-(7H-pyrrolo[2,3-d]pyrimidin-4-yl)piperidin-4-yl]methanamine

$$$$
