N5I
     RDKit          3D

 24 26  0  0  0  0  0  0  0  0999 V2000
    1.0325   -0.0646    0.0690 O   0  0  0  0  0  0  0  0  0  0  0  0
    2.0783  -11.6185   -0.3961 O   0  0  0  0  0  0  0  0  0  0  0  0
    1.1116  -10.8810   -0.2397 N   0  0  0  0  0  0  0  0  0  0  0  0
    0.1058  -11.1694    0.4538 O   0  0  0  0  0  0  0  0  0  0  0  0
    1.1080   -9.5761   -0.9154 C   0  0  0  0  0  0  0  0  0  0  0  0
    2.2139   -9.2242   -1.7055 C   0  0  0  0  0  0  0  0  0  0  0  0
    2.2175   -7.9909   -2.3922 C   0  0  0  0  0  0  0  0  0  0  0  0
    0.0256   -8.7131   -0.7837 C   0  0  0  0  0  0  0  0  0  0  0  0
    0.0051   -7.4923   -1.4814 C   0  0  0  0  0  0  0  0  0  0  0  0
    1.0993   -7.1461   -2.3205 C   0  0  0  0  0  0  0  0  0  0  0  0
    1.3786   -6.0740   -3.1879 N   0  0  0  0  0  0  0  0  0  0  0  0
    2.6812   -6.1494   -3.6059 C   0  0  0  0  0  0  0  0  0  0  0  0
    3.1891   -7.3546   -3.2060 C   0  0  0  0  0  0  0  0  0  0  0  0
    0.5140   -4.9516   -3.5755 C   0  0  2  0  0  0  0  0  0  0  0  0
    1.2589   -3.8086   -4.1321 O   0  0  0  0  0  0  0  0  0  0  0  0
    0.7483   -2.5439   -3.5953 C   0  0  1  0  0  0  0  0  0  0  0  0
   -0.4684   -2.9441   -2.8286 C   0  0  1  0  0  0  0  0  0  0  0  0
   -1.8139   -2.8372   -3.2223 O   0  0  0  0  0  0  0  0  0  0  0  0
   -0.0626   -4.3757   -2.3819 C   0  0  0  0  0  0  0  0  0  0  0  0
    1.7774   -1.7407   -2.6401 C   0  0  0  0  0  0  0  0  0  0  0  0
    1.7842   -1.9896   -1.2171 O   0  0  0  0  0  0  0  0  0  0  0  0
    0.4558   -1.6533   -0.3007 P   0  0  0  0  0  0  0  0  0  0  0  0
   -0.1209   -3.2419   -0.6704 O   0  0  0  0  0  0  0  0  0  0  0  0
    0.6643   -2.0576    1.1487 O   0  0  0  0  0  0  0  0  0  0  0  0
  1 22  1  0
  2  3  2  0
  3  4  1  0
  3  5  1  0
  5  8  2  0
  5  6  1  0
  6  7  2  0
  7 10  1  0
  7 13  1  0
  8  9  1  0
  9 10  2  0
 10 11  1  0
 11 12  1  0
 12 13  2  0
 14 19  1  0
 14 15  1  0
 14 11  1  1
 15 16  1  0
 16 17  1  0
 16 20  1  1
 17 18  1  6
 17 19  1  0
 20 21  1  0
 21 22  1  0
 22 24  2  0
 22 23  1  0
M  CHG  2   3   1   4  -1
M  END
>  <DRUGBANK_ID>  (1) 
DB08245

>  <COMMON_NAME>  (1) 
1-(2-DEOXY-5-O-PHOSPHONO-BETA-D-ERYTHRO-PENTOFURANOSYL)-5-NITRO-1H-INDOLE

$$$$
