
     RDKit          3D

 10  9  0  0  1  0  0  0  0  0999 V2000
    0.8771    0.1902    0.0374 N   0  0  0  0  0  0  0  0  0  0  0  0
    0.1935    0.9020    0.9772 C   0  0  0  0  0  0  0  0  0  0  0  0
    3.9486    1.0983    1.2632 C   0  0  0  0  0  0  0  0  0  0  0  0
    3.3014    1.8116    0.3182 O   0  0  0  0  0  0  0  0  0  0  0  0
    3.0287    0.1527    2.0668 C   0  0  2  0  0  0  0  0  0  0  0  0
    1.9469    0.9106    2.8467 C   0  0  0  0  0  0  0  0  0  0  0  0
    0.9924    1.7336    1.9707 C   0  0  0  0  0  0  0  0  0  0  0  0
    5.1604    1.2190    1.3963 O   0  0  0  0  0  0  0  0  0  0  0  0
    3.8283   -0.6930    2.9748 N   0  0  0  0  0  0  0  0  0  0  0  0
   -1.0322    0.8566    0.9984 O   0  0  0  0  0  0  0  0  0  0  0  0
  1  2  1  0
  3  8  2  0
  4  3  1  0
  5  3  1  0
  5  9  1  1
  6  5  1  0
  7  2  1  0
  7  6  1  0
 10  2  2  0
M  END
>  <DRUGBANK_ID>  (1) 
DB00130

>  <SECONDARY_ACCESSION_NUMBERS>  (1) 
NUTR00026

>  <COMMON_NAME>  (1) 
L-Glutamine

>  <CAS_NUMBER>  (1) 
56-85-9

>  <UNII>  (1) 
0RH81L854J

>  <SYNONYMS>  (1) 
(2S)-2-amino-4-carbamoylbutanoic acid; (2S)-2,5-diamino-5-oxopentanoic acid; (S)-2,5-diamino-5-oxopentanoic acid; Glutamic acid 5-amide; Glutamic acid amide; Glutamina; Glutamine; L-(+)-glutamine; L-2-aminoglutaramic acid; L-glutamic acid γ-amide; L-Glutamin; L-Glutamine; L-Glutaminsäure-5-amid; Levoglutamide; Q

$$$$
