BBL
     RDKit          3D

 16 16  0  0  0  0  0  0  0  0999 V2000
   -1.1023   -1.6351    0.4661 O   0  0  0  0  0  0  0  0  0  0  0  0
   -1.7719   -1.2805   -0.6547 C   0  0  0  0  0  0  0  0  0  0  0  0
   -2.6781   -1.9803   -1.0795 O   0  0  0  0  0  0  0  0  0  0  0  0
   -1.2804    0.0343   -1.2673 C   0  0  2  0  0  0  0  0  0  0  0  0
    0.2466    0.0568   -1.2776 C   0  0  0  0  0  0  0  0  0  0  0  0
   -1.8100    1.1994   -0.5659 N   0  0  0  0  0  0  0  0  0  0  0  0
   -2.5649    2.2133   -1.0776 C   0  0  0  0  0  0  0  0  0  0  0  0
   -2.9007    3.1563   -0.3660 O   0  0  0  0  0  0  0  0  0  0  0  0
   -2.8712    2.0679   -2.3918 O   0  0  0  0  0  0  0  0  0  0  0  0
   -3.7180    3.0854   -2.9814 C   0  0  0  0  0  0  0  0  0  0  0  0
   -5.0865    3.1362   -2.3447 C   0  0  0  0  0  0  0  0  0  0  0  0
   -5.7333    1.9443   -1.9922 C   0  0  0  0  0  0  0  0  0  0  0  0
   -6.8985    1.9731   -1.2315 C   0  0  0  0  0  0  0  0  0  0  0  0
   -7.4362    3.1938   -0.8299 C   0  0  0  0  0  0  0  0  0  0  0  0
   -6.8189    4.3867   -1.2045 C   0  0  0  0  0  0  0  0  0  0  0  0
   -5.6766    4.3620   -2.0057 C   0  0  0  0  0  0  0  0  0  0  0  0
  1  2  1  0
  2  3  2  0
  4  6  1  0
  4  5  1  1
  4  2  1  0
  6  7  1  0
  7  8  2  0
  7  9  1  0
  9 10  1  0
 10 11  1  0
 11 12  2  0
 11 16  1  0
 12 13  1  0
 13 14  2  0
 14 15  1  0
 15 16  2  0
M  END
>  <DRUGBANK_ID>  (1) 
DB04634

>  <COMMON_NAME>  (1) 
N-BENZYLOXYCARBONYL-L-SERINE-BETALACTONE

>  <UNII>  (1) 
PUL5J6PUL2

$$$$
