
     RDKit          3D

 16 19  0  0  1  0  0  0  0  0999 V2000
    3.4990    1.0941   -0.0595 C   0  0  0  0  0  0  0  0  0  0  0  0
    2.2510    1.5068   -0.4677 C   0  0  0  0  0  0  0  0  0  0  0  0
    1.2732    0.5501   -0.4601 C   0  0  0  0  0  0  0  0  0  0  0  0
    1.4801   -0.7220    0.0102 C   0  0  0  0  0  0  0  0  0  0  0  0
    2.6679   -1.1704    0.4149 N   0  0  0  0  0  0  0  0  0  0  0  0
    3.6615   -0.2383    0.3432 C   0  0  0  0  0  0  0  0  0  0  0  0
    0.3032   -1.4763    0.0646 O   0  0  0  0  0  0  0  0  0  0  0  0
   -0.7366   -0.4863   -0.2069 C   0  0  1  0  0  0  0  0  0  0  0  0
   -0.0821    0.6985   -0.9483 C   0  0  0  0  0  0  0  0  0  0  0  0
   -2.1970   -1.2688   -1.1117 C   0  0  0  0  0  0  0  0  0  0  0  0
   -3.6786   -0.3589   -0.8871 N   0  0  0  0  0  0  0  0  0  0  0  0
   -4.1484    0.5293    0.5024 C   0  0  0  0  0  0  0  0  0  0  0  0
   -2.6158    1.3081    1.3855 C   0  0  0  0  0  0  0  0  0  0  0  0
   -1.2633    0.2569    1.1868 C   0  0  0  0  0  0  0  0  0  0  0  0
   -2.3864   -0.5496    0.9313 C   0  0  0  0  0  0  0  0  0  0  0  0
   -2.6997    0.5691   -0.6745 C   0  0  0  0  0  0  0  0  0  0  0  0
  1  2  2  0
  1  6  1  0
  2  3  1  0
  3  4  2  0
  3  9  1  0
  4  5  1  0
  4  7  1  0
  5  6  2  0
  8  7  1  0
  8  9  1  6
  8 10  1  0
  8 14  1  0
 10 11  1  0
 11 12  1  0
 11 16  1  0
 12 13  1  0
 13 14  1  0
 14 15  1  0
 15 16  1  0
M  END
>  <DRUGBANK_ID>  (1) 
DB12145

>  <COMMON_NAME>  (1) 
AZD-0328

>  <CAS_NUMBER>  (1) 
220099-91-2

>  <UNII>  (1) 
2B218X5QIY

$$$$
