PFH
     RDKit          3D

 30 34  0  0  0  0  0  0  0  0999 V2000
    1.2514   -1.3902   -0.1247 C   0  0  0  0  0  0  0  0  0  0  0  0
   -1.2509    1.3849   -0.3352 C   0  0  0  0  0  0  0  0  0  0  0  0
    0.0586    0.6924   -0.4976 C   0  0  0  0  0  0  0  0  0  0  0  0
   -2.2352   -0.6520    0.0106 C   0  0  0  0  0  0  0  0  0  0  0  0
    0.5676    4.2807    1.8402 C   0  0  0  0  0  0  0  0  0  0  0  0
   -2.0691    4.9348    0.6132 C   0  0  0  0  0  0  0  0  0  0  0  0
   -0.7795    3.8053   -1.0639 C   0  0  0  0  0  0  0  0  0  0  0  0
   -2.3256    3.4075    0.7319 C   0  0  0  0  0  0  0  0  0  0  0  0
    0.9522    2.0518    3.5867 C   0  0  0  0  0  0  0  0  0  0  0  0
    4.9521    1.3298    0.0322 C   0  0  0  0  0  0  0  0  0  0  0  0
    3.5701    1.5302   -0.1230 O   0  0  0  0  0  0  0  0  0  0  0  0
    2.6334    0.5454   -0.3220 C   0  0  0  0  0  0  0  0  0  0  0  0
    2.5566   -0.8217   -0.1203 C   0  0  0  0  0  0  0  0  0  0  0  0
    3.4931   -1.8024    0.0902 O   0  0  0  0  0  0  0  0  0  0  0  0
    4.8540   -1.4556    0.0453 C   0  0  0  0  0  0  0  0  0  0  0  0
    1.4202    1.1890   -0.6998 C   0  0  0  0  0  0  0  0  0  0  0  0
    0.0371   -0.6797   -0.2397 C   0  0  0  0  0  0  0  0  0  0  0  0
   -1.0971   -1.3560   -0.0418 N   0  0  0  0  0  0  0  0  0  0  0  0
   -2.3618    0.6749   -0.0655 N   0  0  0  0  0  0  0  0  0  0  0  0
   -1.4686    2.7602   -0.3114 N   0  0  0  0  0  0  0  0  0  0  0  0
   -0.7256    5.0312   -0.0940 C   0  0  2  0  0  0  0  0  0  0  0  0
    0.3573    5.2258    0.8771 O   0  0  0  0  0  0  0  0  0  0  0  0
    0.7684    2.9881    1.4576 C   0  0  0  0  0  0  0  0  0  0  0  0
    0.9209    1.8740    2.2675 C   0  0  0  0  0  0  0  0  0  0  0  0
    1.1109    0.9201    4.3862 C   0  0  0  0  0  0  0  0  0  0  0  0
    0.8050    3.3805    4.0784 C   0  0  0  0  0  0  0  0  0  0  0  0
    0.6361    4.4910    3.1858 C   0  0  0  0  0  0  0  0  0  0  0  0
    0.8078    3.4993    5.4486 C   0  0  0  0  0  0  0  0  0  0  0  0
    0.9632    2.3708    6.2734 C   0  0  0  0  0  0  0  0  0  0  0  0
    1.1187    1.0832    5.7460 C   0  0  0  0  0  0  0  0  0  0  0  0
  1 13  2  0
  1 17  1  0
  2  3  1  0
  2 20  1  0
  2 19  2  0
  3 16  1  0
  3 17  2  0
  4 18  2  0
  4 19  1  0
  5 27  1  0
  5 23  2  0
  5 22  1  0
  6 21  1  0
  6  8  1  0
  7 21  1  0
  7 20  1  0
  8 20  1  0
  9 25  1  0
  9 26  1  0
  9 24  2  0
 10 11  1  0
 11 12  1  0
 12 13  1  0
 12 16  2  0
 13 14  1  0
 14 15  1  0
 17 18  1  0
 21 22  1  1
 23 24  1  0
 25 30  2  0
 26 28  1  0
 26 27  2  0
 28 29  2  0
 29 30  1  0
M  END
>  <DRUGBANK_ID>  (1) 
DB08389

>  <COMMON_NAME>  (1) 
6,7-DIMETHOXY-4-[(3R)-3-(2-NAPHTHYLOXY)PYRROLIDIN-1-YL]QUINAZOLINE

$$$$
