ADD
     RDKit          3D

 24 24  0  0  0  0  0  0  0  0999 V2000
    5.0657   -9.0616   -1.9579 C   0  0  0  0  0  0  0  0  0  0  0  0
    5.7093   -8.4494   -2.7626 O   0  0  0  0  0  0  0  0  0  0  0  0
    4.7127  -10.3377   -2.1903 O   0  0  0  0  0  0  0  0  0  0  0  0
    4.5039   -8.5646   -0.6572 C   0  0  1  0  0  0  0  0  0  0  0  0
    5.2663   -7.3014   -0.5031 C   0  0  0  0  0  0  0  0  0  0  0  0
    2.9703   -8.4294   -0.8000 C   0  0  1  0  0  0  0  0  0  0  0  0
    2.3716   -9.7561   -0.7451 N   0  0  0  0  0  0  0  0  0  0  0  0
    2.2454   -7.7323    0.3023 C   0  0  0  0  0  0  0  0  0  0  0  0
    2.5245   -6.2577    0.2792 C   0  0  0  0  0  0  0  0  0  0  0  0
    2.2780   -5.1994   -0.7662 C   0  0  1  0  0  0  0  0  0  0  0  0
    0.7414   -5.1069   -0.7964 C   0  0  0  0  0  0  0  0  0  0  0  0
    2.8279   -3.7453   -0.4174 C   0  0  0  0  0  0  0  0  0  0  0  0
    4.3526   -3.4537   -0.1740 C   0  0  2  0  0  0  0  0  0  0  0  0
    4.8594   -3.2096   -1.6112 C   0  0  0  0  0  0  0  0  0  0  0  0
    5.0827   -4.5687    0.6005 C   0  0  1  0  0  0  0  0  0  0  0  0
    6.5315   -4.6966    0.4594 O   0  0  0  0  0  0  0  0  0  0  0  0
    7.1193   -4.8245   -0.8514 C   0  0  0  0  0  0  0  0  0  0  0  0
    4.6273   -4.9897    2.1771 C   0  0  0  0  0  0  0  0  0  0  0  0
    3.1444   -5.0814    2.7529 C   0  0  0  0  0  0  0  0  0  0  0  0
    2.4903   -6.3281    3.0552 C   0  0  0  0  0  0  0  0  0  0  0  0
    1.0580   -6.4753    2.9320 C   0  0  0  0  0  0  0  0  0  0  0  0
    0.2654   -5.3590    2.6595 C   0  0  0  0  0  0  0  0  0  0  0  0
    0.8884   -4.1070    2.5986 C   0  0  0  0  0  0  0  0  0  0  0  0
    2.3027   -3.9705    2.6582 C   0  0  0  0  0  0  0  0  0  0  0  0
  1  2  2  0
  1  3  1  0
  1  4  1  0
  4  5  1  6
  4  6  1  0
  6  7  1  1
  6  8  1  0
  8  9  1  0
  9 10  1  0
 10 11  1  1
 10 12  1  0
 13 15  1  0
 13 14  1  6
 13 12  1  0
 15 16  1  0
 15 18  1  1
 16 17  1  0
 18 19  1  0
 19 20  2  0
 19 24  1  0
 20 21  1  0
 21 22  2  0
 22 23  1  0
 23 24  2  0
M  END
>  <DRUGBANK_ID>  (1) 
DB02506

>  <SECONDARY_ACCESSION_NUMBERS>  (1) 
EXPT00428

>  <COMMON_NAME>  (1) 
2,6,8-Trimethyl-3-Amino-9-Benzyl-9-Methoxynonanoic Acid

$$$$
