
     RDKit          3D

 23 26  0  0  0  0  0  0  0  0999 V2000
    0.9165    0.1560   -0.0223 O   0  0  0  0  0  0  0  0  0  0  0  0
    2.1451    0.0882   -0.0233 C   0  0  0  0  0  0  0  0  0  0  0  0
    2.9556    1.2085   -0.0109 N   0  0  0  0  0  0  0  0  0  0  0  0
    4.3509    1.1573   -0.0373 C   0  0  0  0  0  0  0  0  0  0  0  0
    5.0609    2.5137   -0.0268 C   0  0  0  0  0  0  0  0  0  0  0  0
    5.9392    2.6870    1.1921 C   0  0  0  0  0  0  0  0  0  0  0  0
    6.9799    1.8350    1.3433 N   0  0  0  0  0  0  0  0  0  0  0  0
    7.6746    1.8805    2.4996 C   0  0  0  0  0  0  0  0  0  0  0  0
    7.3286    2.6909    3.5634 C   0  0  0  0  0  0  0  0  0  0  0  0
    6.2560    3.5560    3.3980 C   0  0  0  0  0  0  0  0  0  0  0  0
    5.6326    3.6414    2.1566 C   0  0  0  0  0  0  0  0  0  0  0  0
    5.0202    0.0363   -0.0935 N   0  0  0  0  0  0  0  0  0  0  0  0
    4.2525   -1.0818   -0.0702 C   0  0  0  0  0  0  0  0  0  0  0  0
    2.8821   -1.1344   -0.0384 C   0  0  0  0  0  0  0  0  0  0  0  0
    2.5515   -2.4903   -0.0298 C   0  0  0  0  0  0  0  0  0  0  0  0
    3.6379   -3.2734   -0.0385 N   0  0  0  0  0  0  0  0  0  0  0  0
    4.6765   -2.3917   -0.0565 N   0  0  0  0  0  0  0  0  0  0  0  0
    6.0452   -2.9059   -0.0351 C   0  0  0  0  0  0  0  0  0  0  0  0
    6.7899   -2.4691    1.2283 C   0  0  0  0  0  0  0  0  0  0  0  0
    8.2611   -2.8428    1.1709 C   0  0  0  0  0  0  0  0  0  0  0  0
    8.8669   -2.3672   -0.0275 O   0  0  0  0  0  0  0  0  0  0  0  0
    8.2782   -2.9357   -1.1937 C   0  0  0  0  0  0  0  0  0  0  0  0
    6.8136   -2.5455   -1.3081 C   0  0  0  0  0  0  0  0  0  0  0  0
  1  2  2  0
  2  3  1  0
  2 14  1  0
  3  4  1  0
  4  5  1  0
  4 12  2  0
  5  6  1  0
  6  7  2  0
  6 11  1  0
  7  8  1  0
  8  9  2  0
  9 10  1  0
 10 11  2  0
 12 13  1  0
 13 14  2  0
 13 17  1  0
 14 15  1  0
 15 16  2  0
 16 17  1  0
 17 18  1  0
 18 19  1  0
 18 23  1  0
 19 20  1  0
 20 21  1  0
 21 22  1  0
 22 23  1  0
M  END
>  <DRUGBANK_ID>  (1) 
DB16274

>  <COMMON_NAME>  (1) 
Osoresnontrine

>  <CAS_NUMBER>  (1) 
1189767-28-9

>  <UNII>  (1) 
O9OC34WOAY

>  <SYNONYMS>  (1) 
Osoresnontrine

$$$$
