
     RDKit          3D

 16 16  0  0  0  0  0  0  0  0999 V2000
    0.9247   -0.0923   -0.1471 O   0  0  0  0  0  0  0  0  0  0  0  0
    0.9991    1.2704   -1.9311 O   0  0  0  0  0  0  0  0  0  0  0  0
   -1.3962    1.9075    2.6512 O   0  0  0  0  0  0  0  0  0  0  0  0
    1.0542    2.7597    0.2670 O   0  0  0  0  0  0  0  0  0  0  0  0
   -1.4742    1.1694    0.5673 N   0  0  0  0  0  0  0  0  0  0  0  0
    0.3910    2.3593    1.4245 N   0  0  0  0  0  0  0  0  0  0  0  0
   -1.1383    0.9351   -0.8498 C   0  0  2  0  0  0  0  0  0  0  0  0
   -1.8745   -0.3033   -1.3986 C   0  0  0  0  0  0  0  0  0  0  0  0
   -1.4099   -0.8472   -2.7383 C   0  0  0  0  0  0  0  0  0  0  0  0
    0.3494    0.7253   -1.0557 C   0  0  0  0  0  0  0  0  0  0  0  0
   -0.1331   -1.4225   -2.8931 C   0  0  0  0  0  0  0  0  0  0  0  0
   -2.2862   -0.9010   -3.8228 C   0  0  0  0  0  0  0  0  0  0  0  0
    0.2687   -2.0164   -4.0829 C   0  0  0  0  0  0  0  0  0  0  0  0
   -1.9212   -1.5933   -4.9813 C   0  0  0  0  0  0  0  0  0  0  0  0
   -0.8425    1.8383    1.5613 C   0  0  0  0  0  0  0  0  0  0  0  0
   -0.6403   -2.1288   -5.1205 C   0  0  0  0  0  0  0  0  0  0  0  0
  1 10  1  0
  2 10  2  0
  3 15  2  0
  4  6  1  0
  5 15  1  0
  6 15  1  0
  7 10  1  0
  7  8  1  1
  7  5  1  0
  8  9  1  0
  9 11  2  0
  9 12  1  0
 11 13  1  0
 12 14  2  0
 13 16  2  0
 14 16  1  0
M  END
>  <DRUGBANK_ID>  (1) 
DB04316

>  <SECONDARY_ACCESSION_NUMBERS>  (1) 
EXPT01884

>  <COMMON_NAME>  (1) 
D-[(N-Hydroxyamino)Carbonyl]Phenylalanine

$$$$
