
     RDKit          3D

 14 14  0  0  0  0  0  0  0  0999 V2000
    0.9878   -0.1359    0.0666 C   0  0  0  0  0  0  0  0  0  0  0  0
    1.3282    2.1022   -0.8878 C   0  0  0  0  0  0  0  0  0  0  0  0
   -1.1906    3.8389   -0.5809 C   0  0  0  0  0  0  0  0  0  0  0  0
   -4.2799    2.1942    2.7266 C   0  0  0  0  0  0  0  0  0  0  0  0
   -3.1496    0.3715    1.6265 C   0  0  0  0  0  0  0  0  0  0  0  0
   -4.7521    1.3007    3.6933 C   0  0  0  0  0  0  0  0  0  0  0  0
   -3.5086   -0.4900    2.6518 C   0  0  0  0  0  0  0  0  0  0  0  0
   -3.0097    2.6487    0.5780 C   0  0  0  0  0  0  0  0  0  0  0  0
    0.6056    1.3435    0.2189 C   0  0  0  0  0  0  0  0  0  0  0  0
   -1.4605    2.7653    0.4739 C   0  0  0  0  0  0  0  0  0  0  0  0
   -3.4937    1.7313    1.6715 C   0  0  0  0  0  0  0  0  0  0  0  0
   -4.3520   -0.0403    3.6514 C   0  0  0  0  0  0  0  0  0  0  0  0
   -5.0705   -1.3983    5.0434 I   0  0  0  0  0  0  0  0  0  0  0  0
   -0.8460    1.4704    0.1294 N   0  0  0  0  0  0  0  0  0  0  0  0
  6  4  2  0
  7  5  1  0
  9  1  1  0
  9  2  1  0
 10  3  1  0
 10  8  1  0
 11  4  1  0
 11  5  2  0
 11  8  1  0
 12  6  1  0
 12  7  2  0
 13 12  1  0
 14  9  1  0
 14 10  1  0
M  ISO  1  13 123
M  END
>  <DRUGBANK_ID>  (1) 
DB09480

>  <COMMON_NAME>  (1) 
Iofetamine I-123

>  <CAS_NUMBER>  (1) 
75917-92-9

>  <UNII>  (1) 
LV23B78IJC

>  <SYNONYMS>  (1) 
Iodine iofetamine (123I); Iofetamine (123 I); Iofetamine (123I); Iofetamine I 123; Iofetamine, I-123

$$$$
