
     RDKit          3D

 26 28  0  0  0  0  0  0  0  0999 V2000
    1.1741   -0.0069    0.0043 C   0  0  0  0  0  0  0  0  0  0  0  0
    0.6424   -0.5770    1.3268 C   0  0  0  0  0  0  0  0  0  0  0  0
    0.5194   -2.1107    1.2528 C   0  0  0  0  0  0  0  0  0  0  0  0
   -0.5687   -2.5316    0.2837 C   0  0  0  0  0  0  0  0  0  0  0  0
   -0.4096   -3.3619   -0.5945 O   0  0  0  0  0  0  0  0  0  0  0  0
   -1.7445   -1.8820    0.5623 N   0  0  0  0  0  0  0  0  0  0  0  0
   -1.6871   -0.5007    0.5202 C   0  0  0  0  0  0  0  0  0  0  0  0
   -2.3280    0.2394   -0.2001 O   0  0  0  0  0  0  0  0  0  0  0  0
   -0.7375    0.0128    1.5828 C   0  0  0  0  0  0  0  0  0  0  0  0
   -2.9965   -2.6183    0.6333 C   0  0  0  0  0  0  0  0  0  0  0  0
   -3.6113   -2.4159    2.0457 C   0  0  0  0  0  0  0  0  0  0  0  0
   -3.9676   -0.9709    2.3491 C   0  0  0  0  0  0  0  0  0  0  0  0
   -4.8082   -0.4125    1.2380 C   0  0  0  0  0  0  0  0  0  0  0  0
   -6.1942   -0.8748    1.3330 N   0  0  0  0  0  0  0  0  0  0  0  0
   -6.7506   -1.0932   -0.0379 C   0  0  0  0  0  0  0  0  0  0  0  0
   -6.6381    0.1568   -0.9368 C   0  0  0  0  0  0  0  0  0  0  0  0
   -7.1602    1.3192   -0.2418 N   0  0  0  0  0  0  0  0  0  0  0  0
   -6.8143    1.5753    1.1408 C   0  0  0  0  0  0  0  0  0  0  0  0
   -6.9371    0.2529    1.9531 C   0  0  0  0  0  0  0  0  0  0  0  0
   -8.1261    2.0992   -0.7780 C   0  0  0  0  0  0  0  0  0  0  0  0
   -7.9040    3.4225   -0.7792 N   0  0  0  0  0  0  0  0  0  0  0  0
   -8.8602    4.1983   -1.3020 C   0  0  0  0  0  0  0  0  0  0  0  0
  -10.0563    3.7064   -1.7543 C   0  0  0  0  0  0  0  0  0  0  0  0
  -10.2090    2.3450   -1.6610 C   0  0  0  0  0  0  0  0  0  0  0  0
   -9.2524    1.5201   -1.2093 N   0  0  0  0  0  0  0  0  0  0  0  0
    1.5603   -0.1872    2.4883 C   0  0  0  0  0  0  0  0  0  0  0  0
  1  2  1  0
  2  3  1  0
  2  9  1  0
  2 26  1  0
  3  4  1  0
  4  5  2  0
  4  6  1  0
  6  7  1  0
  6 10  1  0
  7  8  2  0
  7  9  1  0
 10 11  1  0
 11 12  1  0
 12 13  1  0
 13 14  1  0
 14 15  1  0
 14 19  1  0
 15 16  1  0
 16 17  1  0
 17 18  1  0
 17 20  1  0
 18 19  1  0
 20 21  2  0
 20 25  1  0
 21 22  1  0
 22 23  2  0
 23 24  1  0
 24 25  2  0
M  END
>  <DRUGBANK_ID>  (1) 
DB12184

>  <COMMON_NAME>  (1) 
Gepirone

>  <CAS_NUMBER>  (1) 
83928-76-1

>  <UNII>  (1) 
JW5Y7B8Z18

>  <SYNONYMS>  (1) 
Gepirone

$$$$
