
     RDKit          3D

 13 13  0  0  0  0  0  0  0  0999 V2000
    0.8268    0.2426   -0.0790 C   0  0  0  0  0  0  0  0  0  0  0  0
    0.3019    0.0612    1.3582 C   0  0  0  0  0  0  0  0  0  0  0  0
    1.0742    0.7964    2.3639 N   0  0  0  0  0  0  0  0  0  0  0  0
    0.5533    0.5097    3.7093 C   0  0  0  0  0  0  0  0  0  0  0  0
    2.5429    0.5643    2.3087 C   0  0  0  0  0  0  0  0  0  0  0  0
    3.0571   -0.8139    2.6766 C   0  0  0  0  0  0  0  0  0  0  0  0
    4.0500   -0.9075    3.6451 C   0  0  0  0  0  0  0  0  0  0  0  0
    4.5029   -2.0682    4.1616 N   0  0  0  0  0  0  0  0  0  0  0  0
    3.8814   -3.1722    3.7342 C   0  0  0  0  0  0  0  0  0  0  0  0
    4.3036   -4.5273    4.1688 C   0  0  0  0  0  0  0  0  0  0  0  0
    2.9161   -3.1901    2.8183 N   0  0  0  0  0  0  0  0  0  0  0  0
    2.6218   -2.0448    2.2291 C   0  0  0  0  0  0  0  0  0  0  0  0
    1.9536   -2.3303    1.0663 N   0  0  0  0  0  0  0  0  0  0  0  0
  1  2  1  0
  2  3  1  0
  3  4  1  0
  3  5  1  0
  5  6  1  0
  6  7  2  0
  6 12  1  0
  7  8  1  0
  8  9  2  0
  9 10  1  0
  9 11  1  0
 11 12  2  0
 12 13  1  0
M  END
>  <DRUGBANK_ID>  (1) 
DB03653

>  <SECONDARY_ACCESSION_NUMBERS>  (1) 
EXPT03273

>  <COMMON_NAME>  (1) 
5-{[Ethyl(Methyl)Amino]Methyl}-2-Methyl-5,6-Dihydropyrimidin-4-Amine

$$$$
