
     RDKit          3D

 17 18  0  0  0  0  0  0  0  0999 V2000
    1.6376   -0.5714   -0.1855 C   0  0  0  0  0  0  0  0  0  0  0  0
    0.2842   -1.1347    0.1626 C   0  0  0  0  0  0  0  0  0  0  0  0
   -0.6975   -0.2938   -0.7530 C   0  0  2  0  0  0  0  0  0  0  0  0
   -0.0299    1.0077   -1.4536 C   0  0  0  0  0  0  0  0  0  0  0  0
    0.4122    1.6616   -0.2619 N   0  0  0  0  0  0  0  0  0  0  0  0
    1.4891    0.8721    0.4017 C   0  0  2  0  0  0  0  0  0  0  0  0
   -0.8938    1.7104    0.3914 C   0  0  0  0  0  0  0  0  0  0  0  0
   -1.4898    0.4065    0.2604 N   0  0  0  0  0  0  0  0  0  0  0  0
    2.8089    1.4835    0.8651 C   0  0  0  0  0  0  0  0  0  0  0  0
    3.6182    2.0709    0.1642 O   0  0  0  0  0  0  0  0  0  0  0  0
    3.0097    1.2759    2.2187 N   0  0  0  0  0  0  0  0  0  0  0  0
   -1.4601    2.7540    0.5975 O   0  0  0  0  0  0  0  0  0  0  0  0
   -2.9023    0.3860    0.0931 O   0  0  0  0  0  0  0  0  0  0  0  0
   -3.7683    0.8230    1.4472 S   0  0  0  0  0  0  0  0  0  0  0  0
   -3.1114   -0.0665    2.6301 O   0  0  0  0  0  0  0  0  0  0  0  0
   -3.5776    2.1961    1.7846 O   0  0  0  0  0  0  0  0  0  0  0  0
   -5.1222    0.2919    1.3030 O   0  0  0  0  0  0  0  0  0  0  0  0
  1  2  1  0
  3  2  1  1
  3  4  1  0
  3  8  1  0
  4  5  1  0
  5  6  1  0
  5  7  1  0
  6  1  1  0
  6  9  1  6
  7  8  1  0
  7 12  2  0
  8 13  1  0
  9 10  2  0
  9 11  1  0
 13 14  1  0
 14 15  1  0
 14 16  2  0
 14 17  2  0
M  END
>  <DRUGBANK_ID>  (1) 
DB09060

>  <COMMON_NAME>  (1) 
Avibactam

>  <CAS_NUMBER>  (1) 
1192500-31-4

>  <UNII>  (1) 
7352665165

>  <SYNONYMS>  (1) 
Avibactam

$$$$
