
     RDKit          3D

 39 44  0  0  1  0  0  0  0  0999 V2000
    9.6273   -8.7876   -0.7701 F   0  0  0  0  0  0  0  0  0  0  0  0
   10.1822   -7.9024   -1.6076 C   0  0  0  0  0  0  0  0  0  0  0  0
   11.5044   -8.0755   -1.9995 C   0  0  0  0  0  0  0  0  0  0  0  0
   12.1107   -7.1372   -2.8428 C   0  0  0  0  0  0  0  0  0  0  0  0
   13.4788   -7.3837   -3.4361 C   0  0  0  0  0  0  0  0  0  0  0  0
   13.5871   -7.7616   -4.8610 N   0  0  0  0  0  0  0  0  0  0  0  0
   13.2506   -6.6737   -5.8009 C   0  0  0  0  0  0  0  0  0  0  0  0
   12.5859   -7.7355   -6.7165 C   0  0  0  0  0  0  0  0  0  0  0  0
   12.4516   -8.5615   -5.4113 C   0  0  0  0  0  0  0  0  0  0  0  0
   11.3354   -7.4102   -7.4547 N   0  0  0  0  0  0  0  0  0  0  0  0
   11.5669   -6.2887   -8.3898 C   0  0  0  0  0  0  0  0  0  0  0  0
   11.5704   -4.9200   -7.6949 C   0  0  0  0  0  0  0  0  0  0  0  0
   10.3413   -4.7056   -6.9895 O   0  0  0  0  0  0  0  0  0  0  0  0
   10.0339   -5.7912   -6.1123 C   0  0  0  0  0  0  0  0  0  0  0  0
   10.0688   -7.1705   -6.7482 C   0  0  0  0  0  0  0  0  0  0  0  0
   11.3956   -5.9876   -3.1743 C   0  0  0  0  0  0  0  0  0  0  0  0
   10.0440   -5.8935   -2.9061 C   0  0  0  0  0  0  0  0  0  0  0  0
    9.4377   -6.8316   -2.0828 C   0  0  0  0  0  0  0  0  0  0  0  0
    7.9986   -6.6464   -1.7541 C   0  0  0  0  0  0  0  0  0  0  0  0
    7.8084   -5.2735   -1.2896 N   0  0  0  0  0  0  0  0  0  0  0  0
    6.8658   -4.4198   -1.8125 C   0  0  0  0  0  0  0  0  0  0  0  0
    7.1825   -3.0690   -2.0132 C   0  0  0  0  0  0  0  0  0  0  0  0
    6.2733   -2.1726   -2.6212 C   0  0  0  0  0  0  0  0  0  0  0  0
    5.0031   -2.5984   -3.0271 C   0  0  0  0  0  0  0  0  0  0  0  0
    4.6892   -3.9249   -2.8084 C   0  0  0  0  0  0  0  0  0  0  0  0
    3.4485   -4.6855   -3.0315 C   0  0  0  0  0  0  0  0  0  0  0  0
    2.4777   -4.2513   -3.6210 O   0  0  0  0  0  0  0  0  0  0  0  0
    3.6455   -5.9291   -2.4978 N   0  0  0  0  0  0  0  0  0  0  0  0
    2.6784   -7.0251   -2.3809 C   0  0  1  0  0  0  0  0  0  0  0  0
    2.0296   -7.3673   -3.7202 C   0  0  0  0  0  0  0  0  0  0  0  0
    1.2690   -8.6777   -3.6297 C   0  0  0  0  0  0  0  0  0  0  0  0
    2.1985   -9.8016   -3.2466 C   0  0  0  0  0  0  0  0  0  0  0  0
    2.0209  -10.9594   -3.6099 O   0  0  0  0  0  0  0  0  0  0  0  0
    3.1879   -9.4701   -2.3623 N   0  0  0  0  0  0  0  0  0  0  0  0
    3.2393   -8.2920   -1.6630 C   0  0  0  0  0  0  0  0  0  0  0  0
    3.6922   -8.2790   -0.5182 O   0  0  0  0  0  0  0  0  0  0  0  0
    4.9531   -6.0944   -2.1624 C   0  0  0  0  0  0  0  0  0  0  0  0
    5.5042   -7.1390   -1.9194 O   0  0  0  0  0  0  0  0  0  0  0  0
    5.6067   -4.7973   -2.2481 C   0  0  0  0  0  0  0  0  0  0  0  0
  1  2  1  0
  2  3  2  0
  2 18  1  0
  3  4  1  0
  4  5  1  0
  4 16  2  0
  5  6  1  0
  6  7  1  0
  6  9  1  0
  7  8  1  0
  8  9  1  0
  8 10  1  0
 10 11  1  0
 10 15  1  0
 11 12  1  0
 12 13  1  0
 13 14  1  0
 14 15  1  0
 16 17  1  0
 17 18  2  0
 18 19  1  0
 19 20  1  0
 20 21  1  0
 21 22  2  0
 21 39  1  0
 22 23  1  0
 23 24  2  0
 24 25  1  0
 25 26  1  0
 25 39  2  0
 26 27  2  0
 26 28  1  0
 28 37  1  0
 29 30  1  0
 29 35  1  0
 29 28  1  6
 30 31  1  0
 31 32  1  0
 32 33  2  0
 32 34  1  0
 34 35  1  0
 35 36  2  0
 37 38  2  0
 37 39  1  0
M  END
>  <DRUGBANK_ID>  (1) 
DB18115

>  <COMMON_NAME>  (1) 
Golcadomide

>  <CAS_NUMBER>  (1) 
2379572-34-4

>  <UNII>  (1) 
29HLR8Z5BR

>  <SYNONYMS>  (1) 
2-[(3S)-2,6-dioxopiperidin-3-yl]-4-{[(2-fluoro-4-{[3-(morpholin-4-yl)azetidin-1-yl]methyl} phenyl) methyl]amino}-1H-isoindole-1,3(2H)-dione

$$$$
