DC8
     RDKit          3D

 23 26  0  0  0  0  0  0  0  0999 V2000
   -0.8748   -0.8656    0.0061 C   0  0  0  0  0  0  0  0  0  0  0  0
    1.1347   -1.9194    0.7244 C   0  0  1  0  0  0  0  0  0  0  0  0
    1.8830   -0.5949    0.5010 C   0  0  1  0  0  0  0  0  0  0  0  0
    2.2701   -0.3431   -0.9643 C   0  0  0  0  0  0  0  0  0  0  0  0
    0.9961    0.6008    0.8603 C   0  0  2  0  0  0  0  0  0  0  0  0
   -0.4364    0.3781    0.4616 C   0  0  0  0  0  0  0  0  0  0  0  0
    3.2646   -3.2800    1.0558 C   0  0  0  0  0  0  0  0  0  0  0  0
    4.1902   -4.2276    0.6105 C   0  0  0  0  0  0  0  0  0  0  0  0
    3.8641   -5.0705   -0.4391 C   0  0  0  0  0  0  0  0  0  0  0  0
    2.6112   -5.0044   -1.0388 C   0  0  0  0  0  0  0  0  0  0  0  0
   -2.6502    1.2809    0.0714 C   0  0  0  0  0  0  0  0  0  0  0  0
   -3.0740    0.0603   -0.4349 C   0  0  0  0  0  0  0  0  0  0  0  0
   -2.1806   -1.0152   -0.4671 C   0  0  0  0  0  0  0  0  0  0  0  0
   -0.0719   -1.9712   -0.0628 O   0  0  0  0  0  0  0  0  0  0  0  0
    2.3537    1.1635   -1.0801 C   0  0  0  0  0  0  0  0  0  0  0  0
    1.8074    1.5783   -2.2438 F   0  0  0  0  0  0  0  0  0  0  0  0
    3.6460    1.5662   -1.0802 F   0  0  0  0  0  0  0  0  0  0  0  0
    1.6357    1.7761    0.1086 C   0  0  0  0  0  0  0  0  0  0  0  0
   -1.3495    1.4421    0.5253 C   0  0  0  0  0  0  0  0  0  0  0  0
    2.0397   -3.1049    0.3819 C   0  0  0  0  0  0  0  0  0  0  0  0
    4.8094   -5.9536   -0.8703 O   0  0  0  0  0  0  0  0  0  0  0  0
    1.7187   -4.0022   -0.6477 C   0  0  0  0  0  0  0  0  0  0  0  0
   -3.4692    2.3676    0.1331 O   0  0  0  0  0  0  0  0  0  0  0  0
  1 13  1  0
  1 14  1  0
  1  6  2  0
  2 14  1  0
  2 20  1  6
  2  3  1  0
  3  5  1  0
  3  4  1  6
  4 15  1  0
  5  6  1  0
  5 18  1  6
  6 19  1  0
  7 20  2  0
  7  8  1  0
  8  9  2  0
  9 10  1  0
  9 21  1  0
 10 22  2  0
 11 12  1  0
 11 23  1  0
 11 19  2  0
 12 13  2  0
 15 18  1  0
 15 17  1  0
 15 16  1  0
 20 22  1  0
M  END
>  <DRUGBANK_ID>  (1) 
DB07638

>  <COMMON_NAME>  (1) 
(3AS,4R,9BR)-2,2-DIFLUORO-4-(4-HYDROXYPHENYL)-1,2,3,3A,4,9B-HEXAHYDROCYCLOPENTA[C]CHROMEN-8-OL

$$$$
