
     RDKit          3D

 15 16  0  0  0  0  0  0  0  0999 V2000
   -0.8645    1.0058    1.1572 C   0  0  0  0  0  0  0  0  0  0  0  0
    1.0735    1.2139   -0.1666 C   0  0  0  0  0  0  0  0  0  0  0  0
   -1.0104    0.7416   -1.2015 C   0  0  0  0  0  0  0  0  0  0  0  0
    0.7641   -0.6923    1.2546 C   0  0  0  0  0  0  0  0  0  0  0  0
    0.6132   -0.9896   -1.1205 C   0  0  0  0  0  0  0  0  0  0  0  0
   -1.5410    0.3017    0.0747 N   0  0  0  0  0  0  0  0  0  0  0  0
    0.4498    0.4852   -1.3144 N   0  0  0  0  0  0  0  0  0  0  0  0
    0.5546    0.7416    1.0961 N   0  0  0  0  0  0  0  0  0  0  0  0
   -1.3119   -1.1294    0.2339 C   0  0  0  0  0  0  0  0  0  0  0  0
    0.1051   -1.4047    0.1672 N   0  0  0  0  0  0  0  0  0  0  0  0
    1.0165    0.9394   -2.6555 C   0  0  0  0  0  0  0  0  0  0  0  0
    2.4723    0.7075   -2.8893 C   0  0  0  0  0  0  0  0  0  0  0  0
    2.9748   -0.1162   -3.8308 C   0  0  0  0  0  0  0  0  0  0  0  0
    4.6522   -0.4248   -3.9907 Cl  0  0  0  0  0  0  0  0  0  0  0  0
    4.1309   -0.8538   -0.0531 Cl  0  0  0  0  0  0  0  0  0  0  0  0
  1  8  1  0
  4 10  1  0
  4  8  1  0
  5  7  1  0
  5 10  1  0
  6  1  1  0
  6  3  1  0
  6  9  1  0
  7  3  1  0
  7  2  1  0
  7 11  1  0
  8  2  1  0
 10  9  1  0
 11 12  1  0
 12 13  2  3
 13 14  1  0
M  CHG  2   7   1  15  -1
M  END
>  <DRUGBANK_ID>  (1) 
DB14198

>  <COMMON_NAME>  (1) 
Quaternium-15

>  <CAS_NUMBER>  (1) 
4080-31-3

>  <UNII>  (1) 
E40U03LEM0

>  <SYNONYMS>  (1) 
1-(3-Chloroallyl)-3,5,7-triaza-1-azoniaadamantane chloride; 3,5,7-Triaza-1-azoniaadamantane, 1-(3-chloroallyl)-, chloride; 3,5,7-Triaza-1-azoniatricyclo(3.3.1.13,7)decane, 1-(3-chloro-2-propen-1-yl)-, chloride (1:1); Methenamine 3-chloroallylochloride; N-(3-Chloroallyl)hexaminium chloride; Quaternium 15

$$$$
