
     RDKit          3D

 15 16  0  0  1  0  0  0  0  0999 V2000
    1.0127   -0.0634    0.0819 C   0  0  0  0  0  0  0  0  0  0  0  0
    0.6302   -0.5160    1.3774 O   0  0  0  0  0  0  0  0  0  0  0  0
    0.9340   -1.7958    1.6943 C   0  0  0  0  0  0  0  0  0  0  0  0
    1.5913   -2.5492    0.9824 O   0  0  0  0  0  0  0  0  0  0  0  0
    0.2943   -2.2447    2.9993 C   0  0  1  0  0  0  0  0  0  0  0  0
   -0.1574   -1.1279    3.9878 C   0  0  2  0  0  0  0  0  0  0  0  0
   -1.1472   -1.8910    4.8798 C   0  0  0  0  0  0  0  0  0  0  0  0
   -2.0371   -2.3120    3.6961 C   0  0  2  0  0  0  0  0  0  0  0  0
   -1.0128   -3.0819    2.8193 C   0  0  1  0  0  0  0  0  0  0  0  0
   -1.4487   -3.3496    1.3881 C   0  0  0  0  0  0  0  0  0  0  0  0
   -1.5877   -4.4797    0.9310 O   0  0  0  0  0  0  0  0  0  0  0  0
   -1.6499   -2.2071    0.6855 O   0  0  0  0  0  0  0  0  0  0  0  0
   -1.9884   -2.3710   -0.6909 C   0  0  0  0  0  0  0  0  0  0  0  0
   -2.2811   -0.9382    3.1222 C   0  0  0  0  0  0  0  0  0  0  0  0
   -1.1669   -0.2211    3.3215 C   0  0  0  0  0  0  0  0  0  0  0  0
  1  2  1  0
  2  3  1  0
  3  4  2  0
  5  3  1  6
  5  6  1  0
  5  9  1  0
  6  7  1  0
  6 15  1  6
  8  7  1  0
  8  9  1  0
  8 14  1  6
  9 10  1  6
 10 11  2  0
 10 12  1  0
 12 13  1  0
 14 15  2  0
M  END
>  <DRUGBANK_ID>  (1) 
DB13204

>  <COMMON_NAME>  (1) 
Dimethyl carbate

>  <CAS_NUMBER>  (1) 
39589-98-5

>  <UNII>  (1) 
BN2PH0TQOD

>  <SYNONYMS>  (1) 
Dimethylcarbate

$$$$
