
     RDKit          3D

  5  4  0  0  0  0  0  0  0  0999 V2000
    1.0239   -0.0442   -0.0538 O   0  0  0  0  0  0  0  0  0  0  0  0
    0.5709   -0.3247    1.2673 C   0  0  0  0  0  0  0  0  0  0  0  0
    1.0473   -1.6821    1.7022 C   0  0  0  0  0  0  0  0  0  0  0  0
    2.1172   -1.7193    3.2345 Br  0  0  0  0  0  0  0  0  0  0  0  0
    0.7323   -2.8086    1.0460 C   0  0  0  0  0  0  0  0  0  0  0  0
  1  2  1  0
  2  3  1  0
  3  4  1  0
  3  5  2  0
M  END
>  <DRUGBANK_ID>  (1) 
DB04320

>  <SECONDARY_ACCESSION_NUMBERS>  (1) 
EXPT00755

>  <COMMON_NAME>  (1) 
2-Bromo-2-Propene-1-Ol

$$$$
