984
     RDKit          3D

 30 34  0  0  1  0  0  0  0  0999 V2000
    1.5699   -0.2431    1.1194 O   0  0  0  0  0  0  0  0  0  0  0  0
   -5.6123   -7.7254   -2.0499 O   0  0  0  0  0  0  0  0  0  0  0  0
    0.0577    1.4562    0.8826 O   0  0  0  0  0  0  0  0  0  0  0  0
   -0.1605   -3.4827    0.9922 C   0  0  2  0  0  0  0  0  0  0  0  0
    1.2401   -3.0174    0.5151 C   0  0  2  0  0  0  0  0  0  0  0  0
   -1.1022   -3.8946   -0.0568 C   0  0  1  0  0  0  0  0  0  0  0  0
   -0.7911   -5.3472   -0.3229 C   0  0  2  0  0  0  0  0  0  0  0  0
    1.7919   -4.4910    0.2242 C   0  0  0  0  0  0  0  0  0  0  0  0
    1.6224   -1.7372    1.4880 C   0  0  2  0  0  0  0  0  0  0  0  0
   -0.8117   -2.3514    1.6151 C   0  0  0  0  0  0  0  0  0  0  0  0
    0.7540   -5.1793   -0.9304 C   0  0  0  0  0  0  0  0  0  0  0  0
   -2.2759   -6.0567   -0.7514 C   0  0  2  0  0  0  0  0  0  0  0  0
    0.3563   -1.7436    2.1895 C   0  0  0  0  0  0  0  0  0  0  0  0
   -2.5378   -3.7999    0.3469 C   0  0  0  0  0  0  0  0  0  0  0  0
    1.3968   -2.1995   -0.7196 C   0  0  0  0  0  0  0  0  0  0  0  0
   -3.3143   -3.9264   -1.0050 C   0  0  0  0  0  0  0  0  0  0  0  0
   -3.0221   -5.2750   -1.7752 C   0  0  0  0  0  0  0  0  0  0  0  0
   -3.8518   -6.1497    0.2527 C   0  0  0  0  0  0  0  0  0  0  0  0
   -5.2857   -5.9493   -0.5484 C   0  0  0  0  0  0  0  0  0  0  0  0
   -3.7676   -6.2057   -2.4673 C   0  0  0  0  0  0  0  0  0  0  0  0
   -5.0349   -6.7234   -1.7780 C   0  0  0  0  0  0  0  0  0  0  0  0
    0.7113    0.7424    1.6484 C   0  0  0  0  0  0  0  0  0  0  0  0
    0.6347    0.9822    3.2380 C   0  0  0  0  0  0  0  0  0  0  0  0
   -0.2067    0.1005    4.3252 C   0  0  0  0  0  0  0  0  0  0  0  0
    0.3433   -1.3403    4.8205 C   0  0  0  0  0  0  0  0  0  0  0  0
   -0.5052   -2.4930    4.6540 C   0  0  0  0  0  0  0  0  0  0  0  0
    1.7431   -1.5991    4.8550 C   0  0  0  0  0  0  0  0  0  0  0  0
    0.0496   -3.7892    4.2772 C   0  0  0  0  0  0  0  0  0  0  0  0
    2.2879   -2.8674    4.4353 C   0  0  0  0  0  0  0  0  0  0  0  0
    1.4492   -3.9491    4.0930 C   0  0  0  0  0  0  0  0  0  0  0  0
  1 22  1  0
  2 21  2  0
  3 22  2  0
  4  5  1  0
  4  6  1  0
  4 10  1  6
  5  8  1  0
  5  9  1  0
  5 15  1  6
  6  7  1  0
  6 14  1  1
  7 11  1  6
  7 12  1  0
  8 11  1  0
  9  1  1  6
  9 13  1  0
 10 13  1  0
 12 17  1  0
 12 18  1  1
 14 16  1  0
 16 17  1  0
 17 20  2  0
 18 19  1  0
 19 21  1  0
 20 21  1  0
 22 23  1  0
 23 24  1  0
 24 25  1  0
 25 26  2  0
 25 27  1  0
 26 28  1  0
 27 29  2  0
 28 30  2  0
 29 30  1  0
M  END
>  <DRUGBANK_ID>  (1) 
DB00984

>  <SECONDARY_ACCESSION_NUMBERS>  (1) 
APRD00134

>  <COMMON_NAME>  (1) 
Nandrolone phenpropionate

>  <CAS_NUMBER>  (1) 
62-90-8

>  <UNII>  (1) 
KF7Z9K2T3W

>  <SYNONYMS>  (1) 
19NTPP; Nadrolone phenylpropionate; Nandrolon phenylpropionate; Nandrolone phenpropionate; Nandrolone phenylpionate; Nandrolone phenylpropionate; Norandrolone phenyl propionate; Norandrostenolone phenylpropionate; Nortestosterone phenylpropionate; NPP; NTPP

$$$$
