
     RDKit          3D

 15 14  0  0  0  0  0  0  0  0999 V2000
    0.9508   -0.0504   -0.3589 C   0  0  0  0  0  0  0  0  0  0  0  0
    0.3225   -1.2562   -0.0330 N   0  0  0  0  0  0  0  0  0  0  0  0
   -1.1711   -1.3332   -0.0671 C   0  0  0  0  0  0  0  0  0  0  0  0
   -1.7334   -2.1656   -1.2489 C   0  0  0  0  0  0  0  0  0  0  0  0
   -2.4174   -3.1645   -0.8951 O   0  0  0  0  0  0  0  0  0  0  0  0
   -1.3302   -1.8020   -2.3863 O   0  0  0  0  0  0  0  0  0  0  0  0
    0.3252    0.9832   -0.2734 O   0  0  0  0  0  0  0  0  0  0  0  0
    2.4689   -0.0415   -0.3929 C   0  0  0  0  0  0  0  0  0  0  0  0
    3.2276    1.1527   -0.3503 C   0  0  0  0  0  0  0  0  0  0  0  0
    2.4684    3.1277   -0.2839 I   0  0  0  0  0  0  0  0  0  0  0  0
    4.6331    1.1028   -0.2794 C   0  0  0  0  0  0  0  0  0  0  0  0
    5.3038   -0.1110   -0.3586 C   0  0  0  0  0  0  0  0  0  0  0  0
    4.5767   -1.2906   -0.3300 C   0  0  0  0  0  0  0  0  0  0  0  0
    3.1785   -1.2544   -0.2744 C   0  0  0  0  0  0  0  0  0  0  0  0
    1.1167   -0.4620    2.1258 Na  0  0  0  0  0 15  0  0  0  0  0  0
  1  2  1  0
  1  7  2  0
  1  8  1  0
  2  3  1  0
  3  4  1  0
  4  5  1  0
  4  6  2  0
  8  9  2  0
  8 14  1  0
  9 10  1  0
  9 11  1  0
 11 12  2  0
 13 12  1  0
 14 13  2  0
M  CHG  2   5  -1  15   1
M  ISO  1  10 131
M  END
>  <DRUGBANK_ID>  (1) 
DB09382

>  <COMMON_NAME>  (1) 
Iodohippurate sodium I-131

>  <CAS_NUMBER>  (1) 
881-17-4

>  <UNII>  (1) 
9BRV734R3E

>  <SYNONYMS>  (1) 
Iodohippurate sodium I 131; Iodohippurate sodium I131; Sodium iodohippurate (131 I); Sodium iodohippurate (131I)

$$$$
