89I
     RDKit          3D

 30 33  0  0  0  0  0  0  0  0999 V2000
   -0.6698    1.0304    0.0003 C   0  0  0  0  0  0  0  0  0  0  0  0
   -1.4088   -0.1013    0.0052 N   0  0  0  0  0  0  0  0  0  0  0  0
   -0.7095   -1.2546    0.0094 C   0  0  0  0  0  0  0  0  0  0  0  0
    0.6942   -1.2634    0.0004 C   0  0  0  0  0  0  0  0  0  0  0  0
    1.3463   -0.0218   -0.0121 C   0  0  0  0  0  0  0  0  0  0  0  0
    0.6720    1.1313   -0.0055 N   0  0  0  0  0  0  0  0  0  0  0  0
    1.4510   -2.5033   -0.0142 C   0  0  0  0  0  0  0  0  0  0  0  0
    1.2821   -3.3981   -1.0617 C   0  0  0  0  0  0  0  0  0  0  0  0
    1.8248   -4.6698   -0.9715 C   0  0  0  0  0  0  0  0  0  0  0  0
    2.6850   -5.0450    0.0689 C   0  0  0  0  0  0  0  0  0  0  0  0
    3.0149   -4.0403    0.9934 C   0  0  0  0  0  0  0  0  0  0  0  0
    2.3495   -2.8189    1.0052 C   0  0  0  0  0  0  0  0  0  0  0  0
   -4.1321   -5.0272   -0.2241 C   0  0  0  0  0  0  0  0  0  0  0  0
   -4.7958   -6.2254   -0.4326 N   0  0  0  0  0  0  0  0  0  0  0  0
   -4.1237   -7.3915   -0.2962 C   0  0  0  0  0  0  0  0  0  0  0  0
   -2.7849   -7.3299    0.0905 C   0  0  0  0  0  0  0  0  0  0  0  0
   -2.0938   -6.0862    0.1674 C   0  0  0  0  0  0  0  0  0  0  0  0
   -2.7675   -4.8756   -0.0011 C   0  0  0  0  0  0  0  0  0  0  0  0
   -5.3402   -8.9469   -1.8221 C   0  0  0  0  0  0  0  0  0  0  0  0
   -6.6744   -9.7072   -1.6349 C   0  0  0  0  0  0  0  0  0  0  0  0
   -6.5122  -10.8593   -0.7823 O   0  0  0  0  0  0  0  0  0  0  0  0
   -6.0116  -10.4489    0.5038 C   0  0  0  0  0  0  0  0  0  0  0  0
   -4.6361   -9.7557    0.3762 C   0  0  0  0  0  0  0  0  0  0  0  0
   -4.7925   -8.5861   -0.4966 N   0  0  0  0  0  0  0  0  0  0  0  0
   -1.5147   -2.4919    0.0371 C   0  0  0  0  0  0  0  0  0  0  0  0
   -2.1035   -3.5676    0.0412 C   0  0  0  0  0  0  0  0  0  0  0  0
    3.1836   -6.3308    0.1808 N   0  0  0  0  0  0  0  0  0  0  0  0
    2.7570   -7.4252   -0.6811 C   0  0  0  0  0  0  0  0  0  0  0  0
    4.0614   -6.6803    1.2915 C   0  0  0  0  0  0  0  0  0  0  0  0
    2.7306    0.0698    0.0352 N   0  0  0  0  0  0  0  0  0  0  0  0
  1  2  2  0
  1  6  1  0
  2  3  1  0
  3 25  1  0
  3  4  2  0
  4  7  1  0
  4  5  1  0
  5 30  1  0
  5  6  2  0
  7 12  1  0
  7  8  2  0
  8  9  1  0
  9 10  2  0
 10 27  1  0
 10 11  1  0
 11 12  2  0
 13 14  2  0
 13 18  1  0
 14 15  1  0
 15 24  1  0
 15 16  2  0
 16 17  1  0
 17 18  2  0
 18 26  1  0
 19 20  1  0
 19 24  1  0
 20 21  1  0
 21 22  1  0
 22 23  1  0
 23 24  1  0
 25 26  3  0
 27 28  1  0
 27 29  1  0
M  END
>  <DRUGBANK_ID>  (1) 
DB07280

>  <COMMON_NAME>  (1) 
5-[4-(DIMETHYLAMINO)PHENYL]-6-[(6-MORPHOLIN-4-YLPYRIDIN-3-YL)ETHYNYL]PYRIMIDIN-4-AMINE

$$$$
