
     RDKit          3D

 27 27  0  0  0  0  0  0  0  0999 V2000
   -1.5324   -1.7565   -0.0066 C   0  0  0  0  0  0  0  0  0  0  0  0
   -1.2850    1.9032    3.8213 C   0  0  0  0  0  0  0  0  0  0  0  0
   -0.8637    2.4454    2.6797 C   0  0  0  0  0  0  0  0  0  0  0  0
   -2.1981    0.7155    3.8730 C   0  0  0  0  0  0  0  0  0  0  0  0
    1.8921   -0.4366   -0.0642 C   0  0  0  0  0  0  0  0  0  0  0  0
    0.2663    3.0083    0.0475 C   0  0  0  0  0  0  0  0  0  0  0  0
    3.0247    1.7896    0.0430 C   0  0  0  0  0  0  0  0  0  0  0  0
   -0.3982   -0.7701   -0.0669 C   0  0  0  0  0  0  0  0  0  0  0  0
    1.7688    0.9544   -0.0561 C   0  0  0  0  0  0  0  0  0  0  0  0
    0.4657    1.5044   -0.0663 C   0  0  0  0  0  0  0  0  0  0  0  0
    0.2061    3.4615    2.4435 C   0  0  0  0  0  0  0  0  0  0  0  0
   -0.6245    0.6076   -0.1333 C   0  0  0  0  0  0  0  0  0  0  0  0
    0.8514    4.2449    3.6521 C   0  0  0  0  0  0  0  0  0  0  0  0
    0.8488   -1.2919   -0.0137 N   0  0  0  0  0  0  0  0  0  0  0  0
    0.7685    3.6351    1.2817 N   0  0  0  0  0  0  0  0  0  0  0  0
   -1.9349    1.0076   -0.1748 O   0  0  0  0  0  0  0  0  0  0  0  0
    1.9090    4.8575    3.5200 O   0  0  0  0  0  0  0  0  0  0  0  0
    0.3328    4.0017    4.8564 O   0  0  0  0  0  0  0  0  0  0  0  0
   -0.1276    0.0062    4.8479 O   0  0  0  0  0  0  0  0  0  0  0  0
   -2.2402   -0.0678    6.1511 O   0  0  0  0  0  0  0  0  0  0  0  0
   -1.0579   -1.9716    5.5738 O   0  0  0  0  0  0  0  0  0  0  0  0
    2.8301    0.1850    2.8607 O   0  0  0  0  0  0  0  0  0  0  0  0
    4.1875    2.1518    3.3675 O   0  0  0  0  0  0  0  0  0  0  0  0
    1.8856    2.0631    3.8928 O   0  0  0  0  0  0  0  0  0  0  0  0
    3.7437    1.5233    1.2464 O   0  0  0  0  0  0  0  0  0  0  0  0
   -1.5805   -0.7400    4.7943 P   0  0  0  0  0  0  0  0  0  0  0  0
    2.7632    1.8082    2.6429 P   0  0  0  0  0  0  0  0  0  0  0  0
  3  2  2  0
  4  2  1  0
  8  1  1  0
  9  5  2  0
  9  7  1  0
 10  6  1  0
 10  9  1  0
 11  3  1  0
 12  8  1  0
 12 10  2  0
 13 11  1  0
 14  5  1  0
 14  8  2  0
 15  6  1  0
 15 11  2  0
 16 12  1  0
 17 13  2  0
 18 13  1  0
 25  7  1  0
 26  4  1  0
 26 19  1  0
 26 20  1  0
 26 21  2  0
 27 22  1  0
 27 23  1  0
 27 24  2  0
 27 25  1  0
M  END
>  <DRUGBANK_ID>  (1) 
DB02328

>  <SECONDARY_ACCESSION_NUMBERS>  (1) 
EXPT01727

>  <COMMON_NAME>  (1) 
2-[(3-Hydroxy-2-Methyl-5-Phosphonooxymethyl-Pyridin-4-Ylmethyl)-Imino]-5-Phosphono-Pent-3-Enoic Acid

$$$$
