
     RDKit          3D

 26 28  0  0  0  0  0  0  0  0999 V2000
   -0.9930    1.0688    0.0141 N   0  0  0  0  0  0  0  0  0  0  0  0
   -2.0653    0.2212    0.0168 C   0  0  0  0  0  0  0  0  0  0  0  0
   -1.7621   -1.2313    0.0145 C   0  0  0  0  0  0  0  0  0  0  0  0
   -0.5046   -1.7015    0.1235 C   0  0  0  0  0  0  0  0  0  0  0  0
    0.5966   -0.7269    0.3092 C   0  0  0  0  0  0  0  0  0  0  0  0
    1.9222   -1.1084    0.5533 C   0  0  0  0  0  0  0  0  0  0  0  0
    2.9741   -0.2150    0.3458 C   0  0  0  0  0  0  0  0  0  0  0  0
    2.7010    1.1227    0.0952 C   0  0  0  0  0  0  0  0  0  0  0  0
    1.3767    1.5613    0.0478 C   0  0  0  0  0  0  0  0  0  0  0  0
    0.3329    0.6351    0.1242 C   0  0  0  0  0  0  0  0  0  0  0  0
    1.8893   -3.1059   -1.5342 C   0  0  0  0  0  0  0  0  0  0  0  0
    0.4981   -3.6893   -1.2553 C   0  0  0  0  0  0  0  0  0  0  0  0
   -0.2061   -3.1833    0.0289 C   0  0  0  0  0  0  0  0  0  0  0  0
    2.9552   -3.5579   -1.1356 O   0  0  0  0  0  0  0  0  0  0  0  0
    1.8335   -1.9032   -2.1504 O   0  0  0  0  0  0  0  0  0  0  0  0
   -3.2231    0.6231   -0.0117 O   0  0  0  0  0  0  0  0  0  0  0  0
    0.6379   -5.1529   -1.1664 N   0  0  0  0  0  0  0  0  0  0  0  0
    0.2733   -5.9413   -2.2388 C   0  0  0  0  0  0  0  0  0  0  0  0
    0.5736   -7.3920   -2.1345 C   0  0  0  0  0  0  0  0  0  0  0  0
    0.3600   -8.1046   -0.9494 C   0  0  0  0  0  0  0  0  0  0  0  0
    0.6008   -9.4830   -0.9163 C   0  0  0  0  0  0  0  0  0  0  0  0
    1.0559  -10.1406   -2.0606 C   0  0  0  0  0  0  0  0  0  0  0  0
    1.2528   -9.4377   -3.2477 C   0  0  0  0  0  0  0  0  0  0  0  0
    1.0047   -8.0630   -3.2868 C   0  0  0  0  0  0  0  0  0  0  0  0
   -0.2571   -5.5047   -3.2427 O   0  0  0  0  0  0  0  0  0  0  0  0
    1.3739  -11.8307   -2.0054 Cl  0  0  0  0  0  0  0  0  0  0  0  0
  1  2  1  0
  1 10  1  0
  2  3  1  0
  2 16  2  0
  3  4  2  0
  4  5  1  0
  4 13  1  0
  5  6  1  0
  5 10  2  0
  6  7  2  0
  7  8  1  0
  8  9  2  0
  9 10  1  0
 11 12  1  0
 11 14  2  0
 11 15  1  0
 12 13  1  0
 12 17  1  0
 17 18  1  0
 18 19  1  0
 18 25  2  0
 19 20  2  0
 19 24  1  0
 20 21  1  0
 21 22  2  0
 22 23  1  0
 22 26  1  0
 23 24  2  0
M  END
>  <DRUGBANK_ID>  (1) 
DB11656

>  <COMMON_NAME>  (1) 
Rebamipide

>  <CAS_NUMBER>  (1) 
90098-04-7

>  <UNII>  (1) 
LR583V32ZR

>  <SYNONYMS>  (1) 
Rebamipida; Rebamipide; RÃ©bamipide; Rebamipidum

$$$$
