
     RDKit          3D

 12 12  0  0  0  0  0  0  0  0999 V2000
    0.5153   -0.7010    0.0037 C   0  0  0  0  0  0  0  0  0  0  0  0
    0.5465    0.6941   -0.0036 C   0  0  0  0  0  0  0  0  0  0  0  0
   -0.6216    1.4223   -0.0746 C   0  0  0  0  0  0  0  0  0  0  0  0
   -1.8317    0.7447   -0.1756 C   0  0  0  0  0  0  0  0  0  0  0  0
   -1.9010   -0.6592   -0.0756 C   0  0  0  0  0  0  0  0  0  0  0  0
   -0.7023   -1.3844   -0.0119 C   0  0  0  0  0  0  0  0  0  0  0  0
    1.7144   -1.3578    0.0283 O   0  0  0  0  0  0  0  0  0  0  0  0
    1.7328    1.3678    0.0276 O   0  0  0  0  0  0  0  0  0  0  0  0
   -3.2527   -1.3511   -0.0409 C   0  0  0  0  0  0  0  0  0  0  0  0
   -4.1129   -1.0308    1.2092 C   0  0  0  0  0  0  0  0  0  0  0  0
   -4.4467    0.3955    1.3110 N   0  0  0  0  0  0  0  0  0  0  0  0
   -5.2339    0.7165    2.4868 C   0  0  0  0  0  0  0  0  0  0  0  0
  1  7  1  0
  1  2  2  0
  2  3  1  0
  2  8  1  0
  3  4  2  0
  4  5  1  0
  5  9  1  0
  5  6  2  0
  6  1  1  0
  9 10  1  0
 10 11  1  0
 11 12  1  0
M  END
>  <DRUGBANK_ID>  (1) 
DB13917

>  <COMMON_NAME>  (1) 
Deoxyepinephrine

>  <CAS_NUMBER>  (1) 
501-15-5

>  <UNII>  (1) 
R7339QLN1C

>  <SYNONYMS>  (1) 
1-(3,4-dihydroxyphenyl)-2-methylaminoethane; 3,4-dihydroxy-N-methylphenethylamine; 4-(2-methylamino-ethyl)-benzene-1,2-diol; 4-(2-methylaminoethyl)pyrocatechol; Deoxyephinephrine; Desoxyepinephrine; Epinin; Epinine; Epyamine; N-methyl-3,4-dihydroxyphenethylamine; N-methyldopamine

$$$$
