232
     RDKit          3D

 20 21  0  0  1  0  0  0  0  0999 V2000
    1.1588   -0.5749    0.3335 Cl  0  0  0  0  0  0  0  0  0  0  0  0
    8.6090    3.9027    3.0774 Cl  0  0  0  0  0  0  0  0  0  0  0  0
    2.9331    3.8558    0.5955 S   0  0  0  0  0  0  0  0  0  0  0  0
    6.7548    6.8056    2.7263 S   0  0  0  0  0  0  0  0  0  0  0  0
    2.8757    4.8954   -0.4170 O   0  0  0  0  0  0  0  0  0  0  0  0
    2.0201    3.8361    1.7118 O   0  0  0  0  0  0  0  0  0  0  0  0
    6.8900    7.5737    1.5100 O   0  0  0  0  0  0  0  0  0  0  0  0
    5.8726    7.2231    3.7917 O   0  0  0  0  0  0  0  0  0  0  0  0
    2.8165    2.3691   -0.1981 N   0  0  0  0  0  0  0  0  0  0  0  0
    4.7124    1.4393    0.8895 N   0  0  0  0  0  0  0  0  0  0  0  0
    8.2847    6.7308    3.3771 N   0  0  0  0  0  0  0  0  0  0  0  0
    3.2537    1.2751    0.6984 C   0  0  0  0  0  0  0  0  0  0  0  0
    4.5351    3.8458    1.2534 C   0  0  0  0  0  0  0  0  0  0  0  0
    5.2379    2.6499    1.3353 C   0  0  0  0  0  0  0  0  0  0  0  0
    2.8998   -0.1343    0.1368 C   0  0  0  0  0  0  0  0  0  0  0  0
    5.0249    5.0826    1.6801 C   0  0  0  0  0  0  0  0  0  0  0  0
    1.4511    2.2658   -0.7481 C   0  0  0  0  0  0  0  0  0  0  0  0
    6.5067    2.7526    1.9196 C   0  0  0  0  0  0  0  0  0  0  0  0
    6.2864    5.1670    2.2555 C   0  0  0  0  0  0  0  0  0  0  0  0
    7.0323    3.9941    2.3831 C   0  0  0  0  0  0  0  0  0  0  0  0
  1 15  1  0
  2 20  1  0
  3  5  2  0
  3  6  2  0
  3  9  1  0
  3 13  1  0
  4  7  2  0
  4  8  2  0
  4 11  1  0
  4 19  1  0
  9 12  1  0
  9 17  1  0
 10 12  1  0
 10 14  1  0
 12 15  1  0
 13 14  2  0
 13 16  1  0
 14 18  1  0
 16 19  2  0
 18 20  2  0
 19 20  1  0
M  END
>  <DRUGBANK_ID>  (1) 
DB00232

>  <SECONDARY_ACCESSION_NUMBERS>  (1) 
APRD01104

>  <COMMON_NAME>  (1) 
Methyclothiazide

>  <CAS_NUMBER>  (1) 
135-07-9

>  <UNII>  (1) 
L3H46UAC61

>  <SYNONYMS>  (1) 
Methyclothiazide

$$$$
