RS2
     RDKit          3D

 27 29  0  0  0  0  0  0  0  0999 V2000
    1.3657   -0.2049    0.0054 C   0  0  0  0  0  0  0  0  0  0  0  0
    0.5241   -1.3182    0.0024 C   0  0  0  0  0  0  0  0  0  0  0  0
   -0.8548   -1.1483   -0.0506 C   0  0  0  0  0  0  0  0  0  0  0  0
   -1.3918    0.1322   -0.0738 C   0  0  0  0  0  0  0  0  0  0  0  0
   -0.5643    1.2503    0.0423 C   0  0  0  0  0  0  0  0  0  0  0  0
    0.8229    1.0832    0.0050 C   0  0  0  0  0  0  0  0  0  0  0  0
   -1.0358    2.5346    0.2035 O   0  0  0  0  0  0  0  0  0  0  0  0
   -2.3644    2.7166    0.5233 C   0  0  0  0  0  0  0  0  0  0  0  0
   -3.0204    2.0791    1.5895 C   0  0  0  0  0  0  0  0  0  0  0  0
   -4.3847    2.3024    1.8208 C   0  0  0  0  0  0  0  0  0  0  0  0
   -5.0768    3.2026    1.0099 C   0  0  0  0  0  0  0  0  0  0  0  0
   -4.4156    3.8263   -0.0582 C   0  0  0  0  0  0  0  0  0  0  0  0
   -3.0618    3.6001   -0.2883 C   0  0  0  0  0  0  0  0  0  0  0  0
   -6.8437    3.4176    1.2041 S   0  0  0  0  0  0  0  0  0  0  0  0
   -7.1752    5.1666    1.6387 C   0  0  0  0  0  0  0  0  0  0  0  0
   -7.3923    3.1583   -0.1068 O   0  0  0  0  0  0  0  0  0  0  0  0
   -7.2462    2.6004    2.3427 O   0  0  0  0  0  0  0  0  0  0  0  0
   -8.7249    5.3498    1.7017 C   0  0  0  0  0  0  0  0  0  0  0  0
   -9.5468    4.9632    0.4688 C   0  0  0  0  0  0  0  0  0  0  0  0
  -10.3830    4.0617    0.5540 O   0  0  0  0  0  0  0  0  0  0  0  0
   -9.4111    5.6125   -0.7145 N   0  0  0  0  0  0  0  0  0  0  0  0
   -8.7961    6.8441   -0.9322 O   0  0  0  0  0  0  0  0  0  0  0  0
   -6.5055    6.0997    0.6223 C   0  0  0  0  0  0  0  0  0  0  0  0
   -6.6108    7.5732    0.9933 C   0  0  0  0  0  0  0  0  0  0  0  0
   -5.9795    7.7604    2.2523 O   0  0  0  0  0  0  0  0  0  0  0  0
   -6.6495    7.0317    3.2844 C   0  0  0  0  0  0  0  0  0  0  0  0
   -6.5635    5.5243    3.0195 C   0  0  0  0  0  0  0  0  0  0  0  0
  1  2  2  0
  1  6  1  0
  2  3  1  0
  3  4  2  0
  4  5  1  0
  5  6  2  0
  5  7  1  0
  7  8  1  0
  8  9  2  0
  8 13  1  0
  9 10  1  0
 10 11  2  0
 11 12  1  0
 11 14  1  0
 12 13  2  0
 14 15  1  0
 14 16  2  0
 14 17  2  0
 15 18  1  0
 15 23  1  0
 15 27  1  0
 18 19  1  0
 19 20  2  0
 19 21  1  0
 21 22  1  0
 23 24  1  0
 24 25  1  0
 25 26  1  0
 26 27  1  0
M  END
>  <DRUGBANK_ID>  (1) 
DB08491

>  <COMMON_NAME>  (1) 
N-HYDROXY-2-[4-(4-PHENOXY-BENZENESULFONYL)-TETRAHYDRO-PYRAN-4-YL]-ACETAMIDE

$$$$
