
     RDKit          3D

 20 19  0  0  0  0  0  0  0  0999 V2000
   -0.9635    2.7702   -1.3323 C   0  0  0  0  0  0  0  0  0  0  0  0
    0.5060    2.7339   -1.6308 C   0  0  0  0  0  0  0  0  0  0  0  0
    4.0283    7.2948    1.1151 C   0  0  0  0  0  0  0  0  0  0  0  0
    3.3065    7.3830   -0.2032 C   0  0  0  0  0  0  0  0  0  0  0  0
    3.5510    6.1511   -1.0757 C   0  0  0  0  0  0  0  0  0  0  0  0
    2.9886    4.8767   -0.4416 C   0  0  0  0  0  0  0  0  0  0  0  0
    1.4889    5.0316   -0.1557 C   0  0  0  0  0  0  0  0  0  0  0  0
    0.7094    5.2130   -1.4631 C   0  0  0  0  0  0  0  0  0  0  0  0
    0.9104    4.0010   -2.3653 C   0  0  0  0  0  0  0  0  0  0  0  0
    4.9484    8.0198    1.4716 O   0  0  0  0  0  0  0  0  0  0  0  0
    3.5874    6.3097    1.9181 O   0  0  0  0  0  0  0  0  0  0  0  0
   -1.8247    1.8988   -1.8509 C   0  0  0  0  0  0  0  0  0  0  0  0
   -1.3760    0.7903   -2.7228 C   0  0  0  0  0  0  0  0  0  0  0  0
   -1.7821   -0.5061   -2.1347 C   0  0  0  0  0  0  0  0  0  0  0  0
   -2.5557   -1.3652   -2.7955 C   0  0  0  0  0  0  0  0  0  0  0  0
   -3.0432   -1.1169   -4.1931 C   0  0  0  0  0  0  0  0  0  0  0  0
   -2.4869   -2.1654   -5.1429 C   0  0  0  0  0  0  0  0  0  0  0  0
   -3.0292   -3.5521   -4.8087 C   0  0  0  0  0  0  0  0  0  0  0  0
   -4.5603   -3.5796   -4.8069 C   0  0  0  0  0  0  0  0  0  0  0  0
   -5.1154   -3.2008   -6.1714 C   0  0  0  0  0  0  0  0  0  0  0  0
  2  1  1  0
  3 10  2  0
  3 11  1  0
  3  4  1  0
  4  5  1  0
  5  6  1  0
  6  7  1  0
  7  8  1  0
  8  9  1  0
  9  2  1  0
 12  1  2  0
 13 12  1  0
 14 13  1  0
 15 14  2  0
 16 15  1  0
 17 16  1  0
 18 17  1  0
 19 18  1  0
 20 19  1  0
M  END
>  <DRUGBANK_ID>  (1) 
DB14104

>  <COMMON_NAME>  (1) 
Linoleic acid

>  <CAS_NUMBER>  (1) 
60-33-3

>  <UNII>  (1) 
9KJL21T0QJ

>  <SYNONYMS>  (1) 
(9Z,12Z)-Octadecadienoic acid; (Z,Z)-9,12-octadecadienoic acid; 9-cis,12-cis-Octadecadienoic acid; 9Z,12Z-octadecadienoic acid; acide cis-linoléique; acide linoléique; ácido linoleico; all-cis-9,12-octadecadienoic acid; C18:2 9c, 12c omega6 todos cis-9,12-octadienoico; cis,cis-9,12-octadecadienoic acid; cis,cis-linoleic acid; LA; Linolic acid

$$$$
