RS1
     RDKit          3D

 28 30  0  0  0  0  0  0  0  0999 V2000
    0.2841    1.2160   -0.0204 C   0  0  0  0  0  0  0  0  0  0  0  0
   -0.3746   -0.0103   -0.0065 C   0  0  0  0  0  0  0  0  0  0  0  0
    0.3540   -1.1975   -0.0050 C   0  0  0  0  0  0  0  0  0  0  0  0
    1.7552   -1.1508   -0.0051 C   0  0  0  0  0  0  0  0  0  0  0  0
    2.4282    0.0818   -0.0249 C   0  0  0  0  0  0  0  0  0  0  0  0
    1.6806    1.2604   -0.0428 C   0  0  0  0  0  0  0  0  0  0  0  0
    3.8060    0.0236   -0.0967 O   0  0  0  0  0  0  0  0  0  0  0  0
    4.5675    1.1631    0.0510 C   0  0  0  0  0  0  0  0  0  0  0  0
    4.5448    1.9333    1.2109 C   0  0  0  0  0  0  0  0  0  0  0  0
    5.4572    2.9922    1.3732 C   0  0  0  0  0  0  0  0  0  0  0  0
    6.2859    3.3830    0.3117 C   0  0  0  0  0  0  0  0  0  0  0  0
    6.3504    2.5777   -0.8259 C   0  0  0  0  0  0  0  0  0  0  0  0
    5.5012    1.4639   -0.9456 C   0  0  0  0  0  0  0  0  0  0  0  0
    7.0776    5.0094    0.2436 S   0  0  0  0  0  0  0  0  0  0  0  0
    8.4742    4.7753    0.5755 O   0  0  0  0  0  0  0  0  0  0  0  0
    6.7272    5.6320   -1.0144 O   0  0  0  0  0  0  0  0  0  0  0  0
    6.3896    6.0171    1.5481 C   0  0  0  0  0  0  0  0  0  0  0  0
    4.8625    6.3715    1.5247 C   0  0  0  0  0  0  0  0  0  0  0  0
    4.0341    5.4243    0.6326 C   0  0  0  0  0  0  0  0  0  0  0  0
    2.6247    5.8099    0.2898 C   0  0  0  0  0  0  0  0  0  0  0  0
    2.6179    7.1039   -0.2675 O   0  0  0  0  0  0  0  0  0  0  0  0
    3.1563    8.0680    0.6327 C   0  0  0  0  0  0  0  0  0  0  0  0
    4.6358    7.7946    0.9547 C   0  0  0  0  0  0  0  0  0  0  0  0
    4.2510    6.3141    2.9660 C   0  0  0  0  0  0  0  0  0  0  0  0
    5.0568    6.0891    4.0513 N   0  0  0  0  0  0  0  0  0  0  0  0
    3.0414    6.4512    3.1711 O   0  0  0  0  0  0  0  0  0  0  0  0
    4.4072    6.0151    5.3070 O   0  0  0  0  0  0  0  0  0  0  0  0
   -2.0942   -0.0488   -0.0029 Cl  0  0  0  0  0  0  0  0  0  0  0  0
  1  2  2  0
  1  6  1  0
  2  3  1  0
  2 28  1  0
  3  4  2  0
  4  5  1  0
  5  6  2  0
  5  7  1  0
  7  8  1  0
  8  9  2  0
  8 13  1  0
  9 10  1  0
 10 11  2  0
 11 12  1  0
 11 14  1  0
 12 13  2  0
 14 15  2  0
 14 16  2  0
 14 17  1  0
 17 18  1  0
 18 19  1  0
 18 23  1  0
 18 24  1  0
 19 20  1  0
 20 21  1  0
 21 22  1  0
 22 23  1  0
 24 25  1  0
 24 26  2  0
 25 27  1  0
M  END
>  <DRUGBANK_ID>  (1) 
DB08490

>  <SECONDARY_ACCESSION_NUMBERS>  (1) 
DB12372

>  <COMMON_NAME>  (1) 
CTS-1027

>  <CAS_NUMBER>  (1) 
193022-04-7

>  <UNII>  (1) 
2QD3F58224

>  <SYNONYMS>  (1) 
2H-PYRAN-4-CARBOXAMIDE, 4-(((4-(4-CHLOROPHENOXY)PHENYL)SULFONYL)METHYL)TETRAHYDRO-N-HYDROXY-; 4-(((4-(4-CHLOROPHENOXY)PHENYL)SULFONYL)-METHYL) TETRAHYDRO-N-HYDROXY-2H-PYRAN-4-CARBOXAMIDE; 4-(4-(4-CHLORO-PHENOXY)-BENZENESULFONYLMETHYL )-TETRAHYDRO-PYRAN-4-CARBOXYLIC ACID HYDROXYAMIDE; 4-(4-(4-CHLORO-PHENOXY)-BENZENESULFONYLMETHYL)-TETRAHYDRO-PYRAN-4-CARBOXYLIC ACID HYDROXYAMIDE; 4-[[[4-(4-Chlorophenoxy)phenyl]sulfonyl]-methyl] tetrahydro-N-hydroxy-2H-pyran-4-carboxamide

$$$$
