ZZ2
     RDKit          3D

 13 13  0  0  0  0  0  0  0  0999 V2000
    2.1992   -1.1071   -0.1687 N   0  0  0  0  0  0  0  0  0  0  0  0
    1.0988   -0.3639    0.1732 C   0  0  0  0  0  0  0  0  0  0  0  0
    1.2339    0.9547    0.3851 N   0  0  0  0  0  0  0  0  0  0  0  0
    0.1112    1.6619    0.6258 C   0  0  0  0  0  0  0  0  0  0  0  0
   -1.1247    1.0567    0.7778 C   0  0  0  0  0  0  0  0  0  0  0  0
   -1.1738   -0.2942    0.4692 C   0  0  0  0  0  0  0  0  0  0  0  0
   -2.4947   -0.9633    0.1963 C   0  0  0  0  0  0  0  0  0  0  0  0
   -0.0743   -1.0127    0.1958 N   0  0  0  0  0  0  0  0  0  0  0  0
    0.2508    3.0062    0.3324 O   0  0  0  0  0  0  0  0  0  0  0  0
   -0.9047    3.8200    0.0501 C   0  0  0  0  0  0  0  0  0  0  0  0
   -1.6369    3.6866   -1.3195 C   0  0  0  0  0  0  0  0  0  0  0  0
   -2.1344    2.3895   -1.6470 O   0  0  0  0  0  0  0  0  0  0  0  0
   -1.1066    1.5484   -2.1593 C   0  0  0  0  0  0  0  0  0  0  0  0
  1  2  1  0
  2  3  2  0
  2  8  1  0
  3  4  1  0
  4  5  2  0
  4  9  1  0
  5  6  1  0
  6  7  1  0
  6  8  2  0
  9 10  1  0
 10 11  1  0
 11 12  1  0
 12 13  1  0
M  END
>  <DRUGBANK_ID>  (1) 
DB08786

>  <COMMON_NAME>  (1) 
4-(2-methoxyethoxy)-6-methylpyrimidin-2-amine

$$$$
