
     RDKit          3D

 22 25  0  0  0  0  0  0  0  0999 V2000
    1.0284   -0.0574   -0.0582 C   0  0  0  0  0  0  0  0  0  0  0  0
    3.9834    1.1599   -8.1498 C   0  0  0  0  0  0  0  0  0  0  0  0
    5.1674    1.4963   -7.4929 C   0  0  0  0  0  0  0  0  0  0  0  0
    2.8703    0.7475   -7.4168 C   0  0  0  0  0  0  0  0  0  0  0  0
    5.2487    1.4085   -6.1019 C   0  0  0  0  0  0  0  0  0  0  0  0
    1.2469    2.7250   -4.5536 C   0  0  0  0  0  0  0  0  0  0  0  0
   -0.0222   -1.2706   -4.7993 C   0  0  0  0  0  0  0  0  0  0  0  0
    0.5183   -0.7557   -1.2612 C   0  0  0  0  0  0  0  0  0  0  0  0
    2.9464    0.6774   -6.0199 C   0  0  0  0  0  0  0  0  0  0  0  0
    1.1913    1.2989   -4.3462 C   0  0  0  0  0  0  0  0  0  0  0  0
    4.1425    0.9907   -5.3599 C   0  0  0  0  0  0  0  0  0  0  0  0
    0.7892    3.4212   -3.4660 C   0  0  0  0  0  0  0  0  0  0  0  0
    0.1716   -1.3596   -3.3308 C   0  0  0  0  0  0  0  0  0  0  0  0
    1.7188    0.2989   -5.2792 C   0  0  0  0  0  0  0  0  0  0  0  0
    0.6958    1.0227   -3.0829 C   0  0  0  0  0  0  0  0  0  0  0  0
    0.7278    5.2909   -3.4002 Br  0  0  0  0  0  0  0  0  0  0  0  0
    4.3350    0.8574   -3.6470 Cl  0  0  0  0  0  0  0  0  0  0  0  0
    1.1943   -0.8519   -5.4950 N   0  0  0  0  0  0  0  0  0  0  0  0
    0.2017   -2.0367   -1.2766 N   0  0  0  0  0  0  0  0  0  0  0  0
   -0.0207   -2.4130   -2.5688 N   0  0  0  0  0  0  0  0  0  0  0  0
    0.4758   -0.2537   -2.5559 N   0  0  0  0  0  0  0  0  0  0  0  0
    0.3106    2.4149   -2.1948 S   0  0  0  0  0  0  0  0  0  0  0  0
  3  2  2  0
  4  2  1  0
  5  3  1  0
  8  1  1  0
  9  4  2  0
 10  6  1  0
 11  5  2  0
 11  9  1  0
 12  6  2  0
 13  7  1  0
 14  9  1  0
 14 10  1  0
 15 10  2  0
 16 12  1  0
 17 11  1  0
 18  7  1  0
 18 14  2  0
 19  8  2  0
 20 13  2  0
 20 19  1  0
 21  8  1  0
 21 13  1  0
 21 15  1  0
 22 12  1  0
 22 15  1  0
M  END
>  <DRUGBANK_ID>  (1) 
DB09017

>  <COMMON_NAME>  (1) 
Brotizolam

>  <CAS_NUMBER>  (1) 
57801-81-7

>  <UNII>  (1) 
5XZM1R3DKF

>  <SYNONYMS>  (1) 
Brotizolam; Brotizolamum

$$$$
