
     RDKit          3D

 35 39  0  0  0  0  0  0  0  0999 V2000
   -5.0218   -0.6366   -0.5998 C   0  0  0  0  0  0  0  0  0  0  0  0
   -5.1055    0.8686   -0.3145 C   0  0  2  0  0  0  0  0  0  0  0  0
   -3.7841    1.5981   -0.6603 C   0  0  0  0  0  0  0  0  0  0  0  0
   -3.8108   -1.3601    0.0509 C   0  0  1  0  0  0  0  0  0  0  0  0
   -2.4908   -0.6461   -0.2538 C   0  0  0  0  0  0  0  0  0  0  0  0
   -2.4785    0.7694   -0.4560 C   0  0  0  0  0  0  0  0  0  0  0  0
   -1.2343    1.4257   -0.3092 C   0  0  0  0  0  0  0  0  0  0  0  0
   -1.2633   -1.3559   -0.1257 C   0  0  0  0  0  0  0  0  0  0  0  0
   -0.0296   -0.6789   -0.1040 C   0  0  0  0  0  0  0  0  0  0  0  0
   -0.0177    0.7168   -0.1576 C   0  0  0  0  0  0  0  0  0  0  0  0
    1.2794    1.4450   -0.0587 C   0  0  0  0  0  0  0  0  0  0  0  0
    1.2451   -1.4291    0.0160 C   0  0  0  0  0  0  0  0  0  0  0  0
    2.5268   -0.7021    0.0228 C   0  0  0  0  0  0  0  0  0  0  0  0
    2.5374    0.6860   -0.0109 C   0  0  0  0  0  0  0  0  0  0  0  0
    3.7541    1.3824   -0.0243 C   0  0  0  0  0  0  0  0  0  0  0  0
    4.9583    0.6839   -0.0084 C   0  0  0  0  0  0  0  0  0  0  0  0
    4.9501   -0.7093    0.0262 C   0  0  0  0  0  0  0  0  0  0  0  0
    3.7379   -1.4047    0.0443 C   0  0  0  0  0  0  0  0  0  0  0  0
   -5.0370    0.9953    1.0824 N   0  0  0  0  0  0  0  0  0  0  0  0
   -6.5708    1.4798   -0.4688 C   0  0  0  0  0  0  0  0  0  0  0  0
   -7.2620    1.2241   -1.4224 O   0  0  0  0  0  0  0  0  0  0  0  0
   -7.1810    2.2458    0.7756 C   0  0  0  0  0  0  0  0  0  0  0  0
   -4.0270   -1.7857    1.4375 O   0  0  0  0  0  0  0  0  0  0  0  0
   -3.9668   -0.9948    2.6616 C   0  0  1  0  0  0  0  0  0  0  0  0
   -2.6976   -0.1382    2.7669 C   0  0  0  0  0  0  0  0  0  0  0  0
   -2.7855    1.0943    3.6482 C   0  0  1  0  0  0  0  0  0  0  0  0
   -4.0568    1.9119    3.4299 C   0  0  1  0  0  0  0  0  0  0  0  0
   -5.2554    0.9582    3.6419 C   0  0  0  0  0  0  0  0  0  0  0  0
   -5.2203   -0.3329    2.9662 O   0  0  0  0  0  0  0  0  0  0  0  0
   -4.1572    3.0330    4.3047 O   0  0  0  0  0  0  0  0  0  0  0  0
   -2.7590    0.6538    4.9970 O   0  0  0  0  0  0  0  0  0  0  0  0
   -1.3277   -2.7219    0.0232 O   0  0  0  0  0  0  0  0  0  0  0  0
   -1.1755    2.7878   -0.1984 O   0  0  0  0  0  0  0  0  0  0  0  0
    1.2274   -2.6548    0.0904 O   0  0  0  0  0  0  0  0  0  0  0  0
    1.3600    2.6667   -0.0382 O   0  0  0  0  0  0  0  0  0  0  0  0
  1  2  1  0
  1  4  1  0
  2  3  1  0
  2 20  1  0
  2 19  1  1
  3  6  1  0
  4 23  1  1
  5  4  1  0
  5  6  2  0
  5  8  1  0
  6  7  1  0
  7 33  1  0
  7 10  2  0
  8 32  1  0
  9  8  2  0
  9 10  1  0
  9 12  1  0
 10 11  1  0
 11 14  1  0
 11 35  2  0
 12 34  2  0
 13 12  1  0
 13 14  2  0
 13 18  1  0
 14 15  1  0
 15 16  2  0
 16 17  1  0
 17 18  2  0
 20 21  2  0
 20 22  1  0
 24 23  1  6
 24 25  1  0
 24 29  1  0
 25 26  1  0
 26 27  1  0
 26 31  1  1
 27 28  1  0
 27 30  1  1
 28 29  1  0
M  END
>  <DRUGBANK_ID>  (1) 
DB06263

>  <COMMON_NAME>  (1) 
Amrubicin

>  <CAS_NUMBER>  (1) 
110267-81-7

>  <UNII>  (1) 
93N13LB4Z2

>  <SYNONYMS>  (1) 
Amrubicin

$$$$
