
     RDKit          3D

 30 32  0  0  0  0  0  0  0  0999 V2000
    3.1230    0.0019   -0.0135 Cl  0  0  0  0  0  0  0  0  0  0  0  0
   -3.1109    0.0447    0.0015 Cl  0  0  0  0  0  0  0  0  0  0  0  0
    3.6919   -5.6448    6.3582 O   0  0  0  0  0  0  0  0  0  0  0  0
    2.8940   -2.8917    5.1878 O   0  0  0  0  0  0  0  0  0  0  0  0
    4.4920   -1.6347    8.3048 N   0  0  0  0  0  0  0  0  0  0  0  0
    0.5636   -6.6614    2.0140 N   0  0  0  0  0  0  0  0  0  0  0  0
    1.3805   -2.4933   -0.0979 N   0  0  0  0  0  0  0  0  0  0  0  0
    0.9931   -4.5757    0.9766 N   0  0  0  0  0  0  0  0  0  0  0  0
   -0.5982   -6.1169    0.1019 N   0  0  0  0  0  0  0  0  0  0  0  0
    3.7542   -3.0975    6.3210 C   0  0  1  0  0  0  0  0  0  0  0  0
    3.5064   -1.8712    7.2328 C   0  0  0  0  0  0  0  0  0  0  0  0
    3.5028   -4.4341    7.0741 C   0  0  0  0  0  0  0  0  0  0  0  0
    4.2041   -0.3623    8.9658 C   0  0  0  0  0  0  0  0  0  0  0  0
    4.5144   -2.6707    9.3326 C   0  0  0  0  0  0  0  0  0  0  0  0
    2.7257   -5.9900    5.4765 C   0  0  0  0  0  0  0  0  0  0  0  0
    1.5555   -5.2696    5.2686 C   0  0  0  0  0  0  0  0  0  0  0  0
    3.0735   -7.0503    4.6520 C   0  0  0  0  0  0  0  0  0  0  0  0
    1.2568   -6.4407    3.1976 C   0  0  0  0  0  0  0  0  0  0  0  0
    0.8709   -5.4351    4.0810 C   0  0  0  0  0  0  0  0  0  0  0  0
    2.3245   -7.2821    3.5131 C   0  0  0  0  0  0  0  0  0  0  0  0
    0.3025   -5.7399    1.0248 C   0  0  0  0  0  0  0  0  0  0  0  0
    0.7576   -3.7586   -0.0484 C   0  0  0  0  0  0  0  0  0  0  0  0
    0.6922   -1.2487    0.0203 C   0  0  0  0  0  0  0  0  0  0  0  0
   -0.1250   -4.0932   -1.0565 C   0  0  0  0  0  0  0  0  0  0  0  0
    1.3946   -0.0287    0.0130 C   0  0  0  0  0  0  0  0  0  0  0  0
   -0.7148   -1.1864    0.0338 C   0  0  0  0  0  0  0  0  0  0  0  0
   -0.7817   -5.2894   -0.9267 C   0  0  0  0  0  0  0  0  0  0  0  0
   -1.3904    0.0324    0.0284 C   0  0  0  0  0  0  0  0  0  0  0  0
    0.7129    1.1963    0.0232 C   0  0  0  0  0  0  0  0  0  0  0  0
   -0.6829    1.2263    0.0257 C   0  0  0  0  0  0  0  0  0  0  0  0
  1 25  1  0
  2 28  1  0
  3 12  1  0
  3 15  1  0
  5 11  1  0
  5 13  1  0
  5 14  1  0
  6 18  1  0
  6 21  1  0
  7 22  1  0
  7 23  1  0
  8 21  2  0
  8 22  1  0
  9 21  1  0
  9 27  2  0
 10  4  1  6
 10 11  1  0
 10 12  1  0
 15 16  2  0
 15 17  1  0
 16 19  1  0
 17 20  2  0
 18 19  2  0
 18 20  1  0
 22 24  2  0
 23 25  2  0
 23 26  1  0
 24 27  1  0
 25 29  1  0
 26 28  2  0
 28 30  1  0
 29 30  2  0
M  END
>  <DRUGBANK_ID>  (1) 
DB07755

>  <COMMON_NAME>  (1) 
(2S)-1-[4-({4-[(2,5-Dichlorophenyl)amino]-2-pyrimidinyl}amino)phenoxy]-3-(dimethylamino)-2-propanol

$$$$
