ABW
     RDKit          3D

 21 21  0  0  0  0  0  0  0  0999 V2000
   -1.1777   -0.7186   -0.2699 C   0  0  1  0  0  0  0  0  0  0  0  0
    0.2383   -1.1856    0.0234 C   0  0  1  0  0  0  0  0  0  0  0  0
    1.0614   -0.0019   -0.1258 O   0  0  0  0  0  0  0  0  0  0  0  0
    0.2977    1.1988   -0.2307 C   0  0  2  0  0  0  0  0  0  0  0  0
   -1.1317    0.7697    0.0626 C   0  0  0  0  0  0  0  0  0  0  0  0
    0.5071    1.9431   -1.5791 C   0  0  0  0  0  0  0  0  0  0  0  0
    0.9017    3.2317   -1.4940 O   0  0  0  0  0  0  0  0  0  0  0  0
    0.3531    1.4643   -2.6940 O   0  0  0  0  0  0  0  0  0  0  0  0
   -0.4197   -3.0922    1.5790 N   0  0  0  0  0  0  0  0  0  0  0  0
    0.0673   -4.3411    1.9277 C   0  0  0  0  0  0  0  0  0  0  0  0
   -0.9394   -5.4469    2.0047 C   0  0  0  0  0  0  0  0  0  0  0  0
    1.2390   -4.6207    2.1614 O   0  0  0  0  0  0  0  0  0  0  0  0
    0.3953   -1.8475    1.4458 C   0  0  1  0  0  0  0  0  0  0  0  0
    1.8772   -2.1082    1.7887 C   0  0  0  0  0  0  0  0  0  0  0  0
    2.8333   -0.9241    1.7857 C   0  0  0  0  0  0  0  0  0  0  0  0
    2.3762    0.1275    2.7877 C   0  0  0  0  0  0  0  0  0  0  0  0
    4.2470   -1.4078    2.0771 C   0  0  0  0  0  0  0  0  0  0  0  0
   -1.6143   -1.0687   -1.6882 C   0  0  0  0  0  0  0  0  0  0  0  0
   -2.6799   -1.6190   -1.9344 O   0  0  0  0  0  0  0  0  0  0  0  0
   -0.7107   -0.7025   -2.6152 O   0  0  0  0  0  0  0  0  0  0  0  0
   -1.1098   -0.6803   -3.9942 C   0  0  0  0  0  0  0  0  0  0  0  0
  1  2  1  0
  1  5  1  0
  1 18  1  6
  2  3  1  1
  2 13  1  0
  3  4  1  0
  4  5  1  0
  4  6  1  6
  6  7  1  0
  6  8  2  0
  9 10  1  0
 10 11  1  0
 10 12  2  0
 13  9  1  0
 13 14  1  6
 14 15  1  0
 15 16  1  0
 15 17  1  0
 18 19  2  0
 18 20  1  0
 20 21  1  0
M  END
>  <DRUGBANK_ID>  (1) 
DB03257

>  <SECONDARY_ACCESSION_NUMBERS>  (1) 
EXPT00403

>  <COMMON_NAME>  (1) 
5-[1-(Acetylamino)-3-Methylbutyl]-2,5-Anhydro-3,4-Dideoxy-4-(Methoxycarbonyl)Pentonic Acid

$$$$
