GVR
     RDKit          3D

 30 33  0  0  0  0  0  0  0  0999 V2000
    1.0594   -0.2057   -0.2201 O   0  0  0  0  0  0  0  0  0  0  0  0
    2.2842   -0.1155   -0.1026 C   0  0  0  0  0  0  0  0  0  0  0  0
    2.9896    0.3046   -1.1843 N   0  0  0  0  0  0  0  0  0  0  0  0
    4.3728    0.4317   -1.3215 O   0  0  0  0  0  0  0  0  0  0  0  0
    3.0099   -0.4477    1.2134 C   0  0  1  0  0  0  0  0  0  0  0  0
    2.5498    0.5145    2.3178 C   0  0  0  0  0  0  0  0  0  0  0  0
    1.0886    0.4072    2.6803 C   0  0  0  0  0  0  0  0  0  0  0  0
    0.3310    1.5705    2.7504 C   0  0  0  0  0  0  0  0  0  0  0  0
   -1.0432    1.4908    2.9652 C   0  0  0  0  0  0  0  0  0  0  0  0
   -1.6932    0.2462    3.0594 C   0  0  0  0  0  0  0  0  0  0  0  0
   -3.0785    0.1347    3.2107 C   0  0  0  0  0  0  0  0  0  0  0  0
   -0.9364   -0.9328    3.0130 C   0  0  0  0  0  0  0  0  0  0  0  0
   -1.5557   -2.1939    3.0707 C   0  0  0  0  0  0  0  0  0  0  0  0
   -2.9351   -2.2852    3.2065 C   0  0  0  0  0  0  0  0  0  0  0  0
   -3.6924   -1.1198    3.2898 C   0  0  0  0  0  0  0  0  0  0  0  0
    0.4446   -0.8225    2.9058 C   0  0  0  0  0  0  0  0  0  0  0  0
    2.8972   -1.8796    1.5808 N   0  0  0  0  0  0  0  0  0  0  0  0
    3.5950   -2.4490    3.0204 S   0  0  0  0  0  0  0  0  0  0  0  0
    3.3030   -1.5761    4.1259 O   0  0  0  0  0  0  0  0  0  0  0  0
    3.2390   -3.8534    3.0926 O   0  0  0  0  0  0  0  0  0  0  0  0
    5.3260   -2.3095    2.6881 C   0  0  0  0  0  0  0  0  0  0  0  0
    6.0708   -3.4680    2.5318 C   0  0  0  0  0  0  0  0  0  0  0  0
    7.4341   -3.3665    2.2741 C   0  0  0  0  0  0  0  0  0  0  0  0
    8.0559   -2.1144    2.1327 C   0  0  0  0  0  0  0  0  0  0  0  0
    9.4189   -2.0191    1.8205 C   0  0  0  0  0  0  0  0  0  0  0  0
    7.3026   -0.9326    2.3083 C   0  0  0  0  0  0  0  0  0  0  0  0
    5.9407   -1.0463    2.6275 C   0  0  0  0  0  0  0  0  0  0  0  0
    7.9372    0.3158    2.1568 C   0  0  0  0  0  0  0  0  0  0  0  0
    9.2946    0.3905    1.8353 C   0  0  0  0  0  0  0  0  0  0  0  0
   10.0347   -0.7761    1.6714 C   0  0  0  0  0  0  0  0  0  0  0  0
  1  2  2  0
  2  3  1  0
  2  5  1  0
  3  4  1  0
  5  6  1  1
  5 17  1  0
  6  7  1  0
  7  8  2  0
  7 16  1  0
  8  9  1  0
  9 10  2  0
 10 11  1  0
 10 12  1  0
 11 15  2  0
 12 13  1  0
 12 16  2  0
 13 14  2  0
 14 15  1  0
 17 18  1  0
 18 19  2  0
 18 20  2  0
 18 21  1  0
 21 22  2  0
 21 27  1  0
 22 23  1  0
 23 24  2  0
 24 25  1  0
 24 26  1  0
 25 30  2  0
 26 27  2  0
 26 28  1  0
 28 29  2  0
 29 30  1  0
M  END
>  <DRUGBANK_ID>  (1) 
DB07861

>  <COMMON_NAME>  (1) 
(2R)-N-hydroxy-3-naphthalen-2-yl-2-[(naphthalen-2-ylsulfonyl)amino]propanamide

$$$$
