
     RDKit          3D

 40 43  0  0  0  0  0  0  0  0999 V2000
    1.0137   -0.1227    0.0647 C   0  0  0  0  0  0  0  0  0  0  0  0
    0.6579    0.8933   -0.9846 C   0  0  0  0  0  0  0  0  0  0  0  0
    1.1648    0.4199   -2.2373 O   0  0  0  0  0  0  0  0  0  0  0  0
    2.4605    0.5479   -2.5674 C   0  0  0  0  0  0  0  0  0  0  0  0
    3.3483    0.9096   -1.7916 O   0  0  0  0  0  0  0  0  0  0  0  0
    2.7222    0.2572   -3.9015 N   0  0  0  0  0  0  0  0  0  0  0  0
    1.8798    0.0159   -4.9872 C   0  0  0  0  0  0  0  0  0  0  0  0
    2.3669   -0.2702   -6.1452 N   0  0  0  0  0  0  0  0  0  0  0  0
    0.4155    0.1389   -4.8494 C   0  0  0  0  0  0  0  0  0  0  0  0
   -0.1036    1.2962   -4.2780 C   0  0  0  0  0  0  0  0  0  0  0  0
   -1.4625    1.4090   -4.0589 C   0  0  0  0  0  0  0  0  0  0  0  0
   -2.3381    0.4297   -4.5194 C   0  0  0  0  0  0  0  0  0  0  0  0
   -1.8297   -0.6607   -5.2290 C   0  0  0  0  0  0  0  0  0  0  0  0
   -0.4465   -0.8389   -5.3493 C   0  0  0  0  0  0  0  0  0  0  0  0
   -3.6879    0.4263   -4.2847 O   0  0  0  0  0  0  0  0  0  0  0  0
   -4.1822    1.4242   -3.3781 C   0  0  0  0  0  0  0  0  0  0  0  0
   -3.5833    1.3510   -1.9837 C   0  0  0  0  0  0  0  0  0  0  0  0
   -3.3074    2.5376   -1.2785 C   0  0  0  0  0  0  0  0  0  0  0  0
   -2.7751    2.4930    0.0106 C   0  0  0  0  0  0  0  0  0  0  0  0
   -2.5594    1.2611    0.6291 C   0  0  0  0  0  0  0  0  0  0  0  0
   -2.9000    0.0660   -0.0372 C   0  0  0  0  0  0  0  0  0  0  0  0
   -3.3242    0.1126   -1.3755 C   0  0  0  0  0  0  0  0  0  0  0  0
   -3.1250   -1.1927    0.7762 C   0  0  0  0  0  0  0  0  0  0  0  0
   -4.4703   -1.7244    0.7480 O   0  0  0  0  0  0  0  0  0  0  0  0
   -5.4972   -0.9374    1.1915 C   0  0  0  0  0  0  0  0  0  0  0  0
   -5.6356    0.4052    0.8985 C   0  0  0  0  0  0  0  0  0  0  0  0
   -6.7124    1.1582    1.3035 C   0  0  0  0  0  0  0  0  0  0  0  0
   -7.7852    0.5689    1.9508 C   0  0  0  0  0  0  0  0  0  0  0  0
   -7.7031   -0.8159    2.1849 C   0  0  0  0  0  0  0  0  0  0  0  0
   -6.5482   -1.5478    1.8603 C   0  0  0  0  0  0  0  0  0  0  0  0
   -8.9725    1.4176    2.4253 C   0  0  0  0  0  0  0  0  0  0  0  0
  -10.2830    0.8830    1.8072 C   0  0  0  0  0  0  0  0  0  0  0  0
   -9.0553    1.2508    3.9600 C   0  0  0  0  0  0  0  0  0  0  0  0
   -8.8552    2.9081    2.0181 C   0  0  0  0  0  0  0  0  0  0  0  0
   -8.8186    3.2458    0.6445 C   0  0  0  0  0  0  0  0  0  0  0  0
   -8.6506    4.5588    0.2188 C   0  0  0  0  0  0  0  0  0  0  0  0
   -8.6004    5.5672    1.1681 C   0  0  0  0  0  0  0  0  0  0  0  0
   -8.6883    5.2773    2.5228 C   0  0  0  0  0  0  0  0  0  0  0  0
   -8.7451    3.9512    2.9495 C   0  0  0  0  0  0  0  0  0  0  0  0
   -8.4369    6.8707    0.8091 O   0  0  0  0  0  0  0  0  0  0  0  0
  1  2  1  0
  2  3  1  0
  3  4  1  0
  4  5  2  0
  4  6  1  0
  6  7  1  0
  7  8  2  0
  7  9  1  0
  9 10  2  0
  9 14  1  0
 10 11  1  0
 11 12  2  0
 12 13  1  0
 12 15  1  0
 13 14  2  0
 15 16  1  0
 16 17  1  0
 17 18  2  0
 17 22  1  0
 18 19  1  0
 19 20  2  0
 20 21  1  0
 21 22  2  0
 21 23  1  0
 23 24  1  0
 24 25  1  0
 25 26  2  0
 25 30  1  0
 26 27  1  0
 27 28  2  0
 28 29  1  0
 28 31  1  0
 29 30  2  0
 31 32  1  0
 31 33  1  0
 31 34  1  0
 34 35  2  0
 34 39  1  0
 35 36  1  0
 36 37  2  0
 37 38  1  0
 37 40  1  0
 38 39  2  0
M  END
>  <DRUGBANK_ID>  (1) 
DB06248

>  <COMMON_NAME>  (1) 
Amelubant

>  <CAS_NUMBER>  (1) 
346735-24-8

>  <UNII>  (1) 
E0018IF0K4

>  <SYNONYMS>  (1) 
Amelubant; Carbamic acid, N-[[4-[[3-[[4-[1-(4-hydroxyphenyl)-1-methylethyl]phenoxy]methyl]phenyl]methoxy]phenyl]iminomethyl]-, ethyl ester

$$$$
