
     RDKit          3D

 23 16  0  0  0  0  0  0  0  0999 V2000
    1.0969    0.0069   -0.0236 O   0  0  0  0  0  0  0  0  0  0  0  0
    1.0616   -0.0631   -0.0472 O   0  0  0  0  0  0  0  0  0  0  0  0
    2.4816   -0.0631   -0.0472 C   0  0  0  0  0  0  0  0  0  0  0  0
    3.2416   -1.3638    0.1554 C   0  0  0  0  0  0  0  0  0  0  0  0
    4.1154   -1.6344   -1.0585 C   0  0  1  0  0  0  0  0  0  0  0  0
    5.1032   -0.4928   -1.2363 C   0  0  0  0  0  0  0  0  0  0  0  0
    6.4993   -0.7492   -1.1964 O   0  0  0  0  0  0  0  0  0  0  0  0
    4.6796    0.6911   -1.4207 O   0  0  0  0  0  0  0  0  0  0  0  0
    4.8504   -2.8922   -0.8626 N   0  0  0  0  0  0  0  0  0  0  0  0
    3.1170    1.0244   -0.2166 O   0  0  0  0  0  0  0  0  0  0  0  0
    1.0849   -0.0315   -0.0424 K   0  0  0  0  0 15  0  0  0  0  0  0
    0.9566   -0.0613   -0.0660 H   0  0  0  0  0  0  0  0  0  0  0  0
    1.0917    0.0099   -0.0386 O   0  0  0  0  0  0  0  0  0  0  0  0
    2.5117    0.0099   -0.0386 C   0  0  0  0  0  0  0  0  0  0  0  0
    3.2717    0.1179    1.2733 C   0  0  0  0  0  0  0  0  0  0  0  0
    4.1456   -1.1123    1.4554 C   0  0  1  0  0  0  0  0  0  0  0  0
    5.1333   -1.2072    0.3040 C   0  0  0  0  0  0  0  0  0  0  0  0
    6.5294   -1.1859    0.5626 O   0  0  0  0  0  0  0  0  0  0  0  0
    4.7097   -1.3055   -0.8902 O   0  0  0  0  0  0  0  0  0  0  0  0
    4.8806   -1.0078    2.7242 N   0  0  0  0  0  0  0  0  0  0  0  0
    3.1472   -0.0805   -1.1355 O   0  0  0  0  0  0  0  0  0  0  0  0
    0.9638   -0.0609   -0.0705 H   0  0  0  0  0  0  0  0  0  0  0  0
    0.9560   -0.0657   -0.0612 K   0  0  0  0  0 15  0  0  0  0  0  0
  3  2  1  0
  3 10  2  0
  4  3  1  0
  5  4  1  0
  5  9  1  1
  6  5  1  0
  6  8  2  0
  7  6  1  0
 14 13  1  0
 14 21  2  0
 15 14  1  0
 16 15  1  0
 16 20  1  1
 17 16  1  0
 17 19  2  0
 18 17  1  0
M  CHG  8   2  -1   7  -1  11   1  12   1  13  -1  18  -1  22   1  23   1
M  END
>  <DRUGBANK_ID>  (1) 
DB15819

>  <COMMON_NAME>  (1) 
Potassium aspartate

>  <CAS_NUMBER>  (1) 
7259-25-8

>  <UNII>  (1) 
OC4598NZEQ

>  <SYNONYMS>  (1) 
Aspartate potassium; L-aspartate potassium; Monopotassium aspartate hemihydrate; Potassium aspartate; Potassium aspartate hemihydrate; Potassium hydrogen aspartate hemihydrate

$$$$
