
     RDKit          3D

 19 19  0  0  0  0  0  0  0  0999 V2000
    0.8523    0.0901   -0.0997 C   0  0  0  0  0  0  0  0  0  0  0  0
    0.4170   -1.2110   -0.7449 C   0  0  0  0  0  0  0  0  0  0  0  0
    0.9274   -2.4420    0.0181 C   0  0  0  0  0  0  0  0  0  0  0  0
    0.4054   -2.5367    1.3810 O   0  0  0  0  0  0  0  0  0  0  0  0
    0.9320   -1.7321    2.3648 C   0  0  0  0  0  0  0  0  0  0  0  0
    1.9034   -0.9919    2.2029 O   0  0  0  0  0  0  0  0  0  0  0  0
    0.2936   -1.9547    3.6484 C   0  0  0  0  0  0  0  0  0  0  0  0
    0.2844   -3.1106    4.3920 C   0  0  0  0  0  0  0  0  0  0  0  0
   -0.2535   -2.9426    5.6934 C   0  0  0  0  0  0  0  0  0  0  0  0
   -0.7561   -1.6855    5.9398 C   0  0  0  0  0  0  0  0  0  0  0  0
   -0.4095   -0.6669    4.5654 S   0  0  0  0  0  0  0  0  0  0  0  0
   -1.4988   -1.1754    7.0922 C   0  0  0  0  0  0  0  0  0  0  0  0
   -2.1821   -0.1503    7.0790 O   0  0  0  0  0  0  0  0  0  0  0  0
   -1.3533   -1.9718    8.2047 O   0  0  0  0  0  0  0  0  0  0  0  0
   -1.9966   -1.6148    9.4598 C   0  0  0  0  0  0  0  0  0  0  0  0
   -1.1980   -0.5702   10.2479 C   0  0  0  0  0  0  0  0  0  0  0  0
   -1.0650    0.7346    9.4874 C   0  0  0  0  0  0  0  0  0  0  0  0
   -0.3105   -3.9408    6.5920 O   0  0  0  0  0  0  0  0  0  0  0  0
    0.7944   -4.2840    3.9660 O   0  0  0  0  0  0  0  0  0  0  0  0
  1  2  1  0
  2  3  1  0
  3  4  1  0
  4  5  1  0
  5  6  2  0
  5  7  1  0
  7  8  2  0
  7 11  1  0
  8  9  1  0
  8 19  1  0
  9 10  2  0
  9 18  1  0
 10 11  1  0
 10 12  1  0
 12 13  2  0
 12 14  1  0
 14 15  1  0
 15 16  1  0
 16 17  1  0
M  END
>  <DRUGBANK_ID>  (1) 
DB13632

>  <COMMON_NAME>  (1) 
Protiofate

>  <CAS_NUMBER>  (1) 
58416-00-5

>  <UNII>  (1) 
FIP88CI9Y3

>  <SYNONYMS>  (1) 
Protiofate

$$$$
