
     RDKit          3D

  5  4  0  0  0  0  0  0  0  0999 V2000
    1.0946   -0.0311    0.0092 Cr  0  0  0  0  0  6  0  0  0  0  0  0
    0.4112   -1.7590   -0.8568 O   0  0  0  0  0  0  0  0  0  0  0  0
    0.4112    0.0828    1.9386 O   0  0  0  0  0  0  0  0  0  0  0  0
    0.4830    1.4133   -0.9425 O   0  0  0  0  0  0  0  0  0  0  0  0
    2.9293   -0.0311    0.0092 O   0  0  0  0  0  0  0  0  0  0  0  0
  1  2  1  0
  1  3  1  0
  1  4  2  0
  1  5  2  0
M  CHG  2   2  -1   3  -1
M  ISO  1   1  51
M  END
>  <DRUGBANK_ID>  (1) 
DB14537

>  <COMMON_NAME>  (1) 
Chromate ion Cr-51

>  <UNII>  (1) 
SVU4HTP02M

$$$$
