
     RDKit          3D

 28 30  0  0  0  0  0  0  0  0999 V2000
   -1.4550    0.4472   -0.4754 C   0  0  0  0  0  0  0  0  0  0  0  0
   -0.9807   -0.9077   -0.0227 C   0  0  0  0  0  0  0  0  0  0  0  0
    0.4498   -1.2859   -0.3660 C   0  0  0  0  0  0  0  0  0  0  0  0
    1.4363   -0.2367    0.2134 C   0  0  0  0  0  0  0  0  0  0  0  0
    0.9727    1.1157   -0.3863 C   0  0  0  0  0  0  0  0  0  0  0  0
   -0.4720    1.4879    0.0174 C   0  0  0  0  0  0  0  0  0  0  0  0
    1.5424   -0.2828    1.7165 N   0  0  0  0  0  0  0  0  0  0  0  0
    1.9474   -1.4838    2.2945 C   0  0  0  0  0  0  0  0  0  0  0  0
    2.2890   -2.4616    1.6254 O   0  0  0  0  0  0  0  0  0  0  0  0
    1.9598   -1.5763    3.7857 C   0  0  0  0  0  0  0  0  0  0  0  0
    1.6423   -0.3490    4.5497 C   0  0  0  0  0  0  0  0  0  0  0  0
    1.6727   -0.3717    5.7816 O   0  0  0  0  0  0  0  0  0  0  0  0
    1.2922    0.7687    3.8244 N   0  0  0  0  0  0  0  0  0  0  0  0
    1.4472    0.8860    2.4609 C   0  0  0  0  0  0  0  0  0  0  0  0
    1.4796    2.0164    1.9783 O   0  0  0  0  0  0  0  0  0  0  0  0
    0.9395    2.0014    4.5476 C   0  0  0  0  0  0  0  0  0  0  0  0
    2.1597    2.5424    5.2958 C   0  0  0  0  0  0  0  0  0  0  0  0
    1.8118    3.7570    6.1343 C   0  0  0  0  0  0  0  0  0  0  0  0
    0.6318    3.4622    7.0547 C   0  0  0  0  0  0  0  0  0  0  0  0
   -0.6030    3.0316    6.2684 C   0  0  0  0  0  0  0  0  0  0  0  0
   -0.3108    1.8068    5.4160 C   0  0  0  0  0  0  0  0  0  0  0  0
    1.0991   -2.7081    4.3024 C   0  0  0  0  0  0  0  0  0  0  0  0
    1.5869   -3.6811    4.8795 O   0  0  0  0  0  0  0  0  0  0  0  0
   -0.2614   -2.6357    4.2048 N   0  0  0  0  0  0  0  0  0  0  0  0
   -1.1040   -1.6842    3.5049 C   0  0  0  0  0  0  0  0  0  0  0  0
   -1.8895   -2.3669    2.4004 C   0  0  0  0  0  0  0  0  0  0  0  0
   -2.9733   -1.9844    1.9646 O   0  0  0  0  0  0  0  0  0  0  0  0
   -1.1279   -3.2436    1.7062 O   0  0  0  0  0  0  0  0  0  0  0  0
  1  2  1  0
  1  6  1  0
  2  3  1  0
  3  4  1  0
  4  5  1  0
  4  7  1  0
  5  6  1  0
  7  8  1  0
  7 14  1  0
  8  9  2  0
  8 10  1  0
 10 11  1  0
 10 22  1  0
 11 12  2  0
 11 13  1  0
 13 14  1  0
 13 16  1  0
 14 15  2  0
 16 17  1  0
 16 21  1  0
 17 18  1  0
 18 19  1  0
 19 20  1  0
 20 21  1  0
 22 23  2  0
 22 24  1  0
 24 25  1  0
 25 26  1  0
 26 27  2  0
 26 28  1  0
M  END
>  <DRUGBANK_ID>  (1) 
DB11682

>  <COMMON_NAME>  (1) 
Daprodustat

>  <CAS_NUMBER>  (1) 
960539-70-2

>  <UNII>  (1) 
JVR38ZM64B

>  <SYNONYMS>  (1) 
Daprodustat; Glycine, N-((1,3-dicyclohexylhexahydro-2,4,6-trioxo-5-pyrimidinyl)carbonyl)-

$$$$
