
     RDKit          3D

 38 42  0  0  1  0  0  0  0  0999 V2000
    2.3368   -0.0397    0.0008 C   0  0  0  0  0  0  0  0  0  0  0  0
    1.6403   -1.1580   -0.0381 N   0  0  0  0  0  0  0  0  0  0  0  0
    0.3199   -0.7675   -0.0348 C   0  0  0  0  0  0  0  0  0  0  0  0
    0.2566    0.5942    0.0160 C   0  0  0  0  0  0  0  0  0  0  0  0
    1.5405    1.0869    0.0467 N   0  0  0  0  0  0  0  0  0  0  0  0
    2.1318    2.4242    0.1246 C   0  0  1  0  0  0  0  0  0  0  0  0
    2.0017    3.3047   -1.1017 C   0  0  0  0  0  0  0  0  0  0  0  0
    1.7585    4.6826   -0.4922 C   0  0  1  0  0  0  0  0  0  0  0  0
    1.1301    4.4378    0.9128 C   0  0  2  0  0  0  0  0  0  0  0  0
    1.5912    3.1143    1.2627 O   0  0  0  0  0  0  0  0  0  0  0  0
   -0.4129    4.4284    1.1779 C   0  0  0  0  0  0  0  0  0  0  0  0
   -1.1106    3.4409    0.4053 O   0  0  0  0  0  0  0  0  0  0  0  0
   -0.7086    3.5083   -1.2760 P   0  0  2  0  0  0  0  0  0  0  0  0
   -2.1869    3.1863   -1.4201 O   0  0  0  0  0  0  0  0  0  0  0  0
   -0.9019    5.1450   -1.3028 O   0  0  0  0  0  0  0  0  0  0  0  0
   -0.3067    3.5757   -2.9573 O   0  0  0  0  0  0  0  0  0  0  0  0
   -1.4245    3.9213   -3.8078 C   0  0  1  0  0  0  0  0  0  0  0  0
   -1.0043    3.9402   -5.2613 C   0  0  0  0  0  0  0  0  0  0  0  0
   -1.2268    2.4978   -5.7126 C   0  0  1  0  0  0  0  0  0  0  0  0
   -2.1881    1.9354   -4.8512 O   0  0  0  0  0  0  0  0  0  0  0  0
   -2.5017    2.8290   -3.7977 C   0  0  2  0  0  0  0  0  0  0  0  0
   -3.9298    3.4060   -3.8720 C   0  0  0  0  0  0  0  0  0  0  0  0
   -4.7197    2.9915   -2.7488 O   0  0  0  0  0  0  0  0  0  0  0  0
   -1.6600    2.3515   -7.0916 N   0  0  0  0  0  0  0  0  0  0  0  0
   -0.8563    2.7698   -8.0999 C   0  0  0  0  0  0  0  0  0  0  0  0
   -1.1467    2.6641   -9.3463 N   0  0  0  0  0  0  0  0  0  0  0  0
   -2.3314    2.0773   -9.6452 C   0  0  0  0  0  0  0  0  0  0  0  0
   -3.1417    1.6259   -8.7606 N   0  0  0  0  0  0  0  0  0  0  0  0
   -2.8458    1.7292   -7.4382 C   0  0  0  0  0  0  0  0  0  0  0  0
   -3.6570    1.2828   -6.6375 O   0  0  0  0  0  0  0  0  0  0  0  0
   -2.6898    1.9581  -10.9367 N   0  0  0  0  0  0  0  0  0  0  0  0
    3.0171    5.3430   -0.3629 O   0  0  0  0  0  0  0  0  0  0  0  0
   -0.9466    1.1697    0.0712 N   0  0  0  0  0  0  0  0  0  0  0  0
   -2.1026    0.4366    0.0436 C   0  0  0  0  0  0  0  0  0  0  0  0
   -2.1399   -0.8499   -0.0209 N   0  0  0  0  0  0  0  0  0  0  0  0
   -0.9318   -1.5770   -0.0279 C   0  0  0  0  0  0  0  0  0  0  0  0
   -0.9130   -2.7857   -0.0107 O   0  0  0  0  0  0  0  0  0  0  0  0
   -3.2092    1.2298    0.1657 N   0  0  0  0  0  0  0  0  0  0  0  0
  1  2  2  0
  1  5  1  0
  2  3  1  0
  3  4  2  0
  3 36  1  0
  4  5  1  0
  4 33  1  0
  6  5  1  6
  6  7  1  0
  6 10  1  0
  7  8  1  0
  8  9  1  0
  8 32  1  1
  9 10  1  0
  9 11  1  6
 11 12  1  0
 12 13  1  0
 13 14  2  0
 13 15  1  6
 13 16  1  0
 17 16  1  1
 17 18  1  0
 17 21  1  0
 18 19  1  0
 19 20  1  0
 19 24  1  6
 20 21  1  0
 21 22  1  6
 22 23  1  0
 24 25  1  0
 24 29  1  0
 25 26  2  0
 26 27  1  0
 27 28  2  0
 27 31  1  0
 28 29  1  0
 29 30  2  0
 33 34  1  0
 34 35  2  0
 34 38  1  0
 35 36  1  0
 36 37  2  0
M  END
>  <DRUGBANK_ID>  (1) 
DB11918

>  <COMMON_NAME>  (1) 
Guadecitabine

>  <CAS_NUMBER>  (1) 
929901-49-5

>  <UNII>  (1) 
2KT4YN1DP7

>  <SYNONYMS>  (1) 
Guadecitabine

$$$$
