CDY
     RDKit          3D

 18 20  0  0  0  0  0  0  0  0999 V2000
    0.9682    0.0073    0.0512 O   0  0  0  0  0  0  0  0  0  0  0  0
    0.5413   -1.1692    0.7338 C   0  0  0  0  0  0  0  0  0  0  0  0
    1.0381   -2.4134   -0.0061 C   0  0  1  0  0  0  0  0  0  0  0  0
    1.3630   -3.4564    0.9283 O   0  0  0  0  0  0  0  0  0  0  0  0
    0.0227   -2.9909   -0.9819 C   0  0  0  0  0  0  0  0  0  0  0  0
    0.3616   -4.4617   -0.9627 C   0  0  0  0  0  0  0  0  0  0  0  0
    0.7871   -4.6898    0.4827 C   0  0  2  0  0  0  0  0  0  0  0  0
   -0.3037   -5.1016    1.3585 N   0  0  0  0  0  0  0  0  0  0  0  0
   -1.0144   -6.2649    1.1671 C   0  0  0  0  0  0  0  0  0  0  0  0
   -1.9397   -6.4426    2.0827 N   0  0  0  0  0  0  0  0  0  0  0  0
   -1.8083   -5.3613    2.9232 C   0  0  0  0  0  0  0  0  0  0  0  0
   -0.7934   -4.5125    2.4975 C   0  0  0  0  0  0  0  0  0  0  0  0
   -0.4123   -3.3745    3.0998 N   0  0  0  0  0  0  0  0  0  0  0  0
   -1.1432   -3.1441    4.2084 C   0  0  0  0  0  0  0  0  0  0  0  0
   -0.7389   -1.7210    5.0709 Cl  0  0  0  0  0  0  0  0  0  0  0  0
   -2.1524   -3.8670    4.7323 N   0  0  0  0  0  0  0  0  0  0  0  0
   -2.5051   -4.9968    4.0887 C   0  0  0  0  0  0  0  0  0  0  0  0
   -3.5369   -5.7558    4.5940 N   0  0  0  0  0  0  0  0  0  0  0  0
  1  2  1  0
  3  2  1  1
  3  4  1  0
  3  5  1  0
  4  7  1  0
  5  6  1  0
  6  7  1  0
  7  8  1  1
  8  9  1  0
  8 12  1  0
  9 10  2  0
 10 11  1  0
 11 12  2  0
 11 17  1  0
 12 13  1  0
 13 14  2  0
 14 15  1  0
 14 16  1  0
 16 17  2  0
 17 18  1  0
M  END
>  <DRUGBANK_ID>  (1) 
DB02103

>  <SECONDARY_ACCESSION_NUMBERS>  (1) 
EXPT00881

>  <COMMON_NAME>  (1) 
2-Chlorodideoxyadenosine

>  <CAS_NUMBER>  (1) 
114849-58-0

$$$$
