LNQ
     RDKit          3D

 21 21  0  0  0  0  0  0  0  0999 V2000
    0.7427   -0.3690    0.1638 C   0  0  0  0  0  0  0  0  0  0  0  0
    0.1666    0.7801    1.0413 C   0  0  0  0  0  0  0  0  0  0  0  0
    0.1850    2.3187    0.6596 C   0  0  0  0  0  0  0  0  0  0  0  0
   -0.0155    2.6938   -0.6817 O   0  0  0  0  0  0  0  0  0  0  0  0
    0.7454    1.9132   -1.6304 C   0  0  0  0  0  0  0  0  0  0  0  0
    2.2498    1.4097   -1.4117 C   0  0  0  0  0  0  0  0  0  0  0  0
    2.7352    1.2391   -0.0712 O   0  0  0  0  0  0  0  0  0  0  0  0
    2.8695    2.2360    0.9807 C   0  0  0  0  0  0  0  0  0  0  0  0
    2.9428    3.8496    0.7427 C   0  0  0  0  0  0  0  0  0  0  0  0
    2.6163    4.5748   -0.4602 O   0  0  0  0  0  0  0  0  0  0  0  0
    3.1122    4.0008   -1.6417 C   0  0  0  0  0  0  0  0  0  0  0  0
    4.6075    3.4737   -1.6568 C   0  0  0  0  0  0  0  0  0  0  0  0
    5.3494    2.7452   -0.4644 C   0  0  0  0  0  0  0  0  0  0  0  0
    5.0331    1.3379   -0.4113 N   0  0  0  0  0  0  0  0  0  0  0  0
    5.7125    0.2861   -0.0896 C   0  0  0  0  0  0  0  0  0  0  0  0
    6.8196    0.0578    0.8113 C   0  0  0  0  0  0  0  0  0  0  0  0
    6.8223   -1.3354    0.3198 C   0  0  0  0  0  0  0  0  0  0  0  0
    5.5924   -1.0317   -0.4365 C   0  0  0  0  0  0  0  0  0  0  0  0
    7.4518    0.7087    1.6380 O   0  0  0  0  0  0  0  0  0  0  0  0
    7.6078   -2.2650    0.4512 O   0  0  0  0  0  0  0  0  0  0  0  0
    4.8069   -1.7480   -1.2185 N   0  0  0  0  0  0  0  0  0  0  0  0
  1  2  1  0
  2  3  1  0
  3  4  1  0
  4  5  1  0
  5  6  1  0
  6  7  1  0
  7  8  1  0
  8  9  1  0
  9 10  1  0
 10 11  1  0
 11 12  1  0
 12 13  1  0
 13 14  1  0
 14 15  1  0
 15 16  1  0
 15 18  2  0
 16 17  1  0
 16 19  2  0
 17 18  1  0
 17 20  2  0
 18 21  1  0
M  END
>  <DRUGBANK_ID>  (1) 
DB03077

>  <SECONDARY_ACCESSION_NUMBERS>  (1) 
EXPT02049

>  <COMMON_NAME>  (1) 
3-Amino-4-{3-[2-(2-Propoxy-Ethoxy)-Ethoxy]-Propylamino}-Cyclobut-3-Ene-1,2-Dione

$$$$
