C02
     RDKit          3D

 30 33  0  0  0  0  0  0  0  0999 V2000
    1.0437   -0.0026    0.0994 N   0  0  0  0  0  0  0  0  0  0  0  0
    0.3904   -1.0733    0.4057 C   0  0  0  0  0  0  0  0  0  0  0  0
    1.0363   -2.2464    0.6702 N   0  0  0  0  0  0  0  0  0  0  0  0
   -1.0883   -0.9655    0.5025 C   0  0  0  0  0  0  0  0  0  0  0  0
   -1.7747   -0.1548   -0.4111 C   0  0  0  0  0  0  0  0  0  0  0  0
   -3.1695   -0.0700   -0.3914 C   0  0  0  0  0  0  0  0  0  0  0  0
   -3.8877   -0.8116    0.5591 C   0  0  0  0  0  0  0  0  0  0  0  0
   -3.1774   -1.5865    1.5108 C   0  0  0  0  0  0  0  0  0  0  0  0
   -1.7861   -1.6660    1.4810 C   0  0  0  0  0  0  0  0  0  0  0  0
   -5.2884   -1.3226    0.1909 C   0  0  0  0  0  0  0  0  0  0  0  0
   -5.0236   -2.7387   -0.3824 C   0  0  0  0  0  0  0  0  0  0  0  0
   -3.7713   -3.0523   -0.7406 N   0  0  0  0  0  0  0  0  0  0  0  0
   -3.7918   -2.6665   -2.0498 C   0  0  0  0  0  0  0  0  0  0  0  0
   -5.0581   -2.9620   -2.5288 C   0  0  0  0  0  0  0  0  0  0  0  0
   -5.7554   -3.3521   -1.3887 N   0  0  0  0  0  0  0  0  0  0  0  0
   -6.1948   -4.7378   -1.3133 C   0  0  0  0  0  0  0  0  0  0  0  0
   -5.3140   -3.0642   -3.8774 C   0  0  0  0  0  0  0  0  0  0  0  0
   -4.3151   -2.5580   -4.7207 C   0  0  0  0  0  0  0  0  0  0  0  0
   -3.1554   -1.9207   -4.2433 C   0  0  0  0  0  0  0  0  0  0  0  0
   -2.8303   -2.1029   -2.9033 C   0  0  0  0  0  0  0  0  0  0  0  0
   -2.2609   -1.3674   -5.2294 N   0  0  0  0  0  0  0  0  0  0  0  0
   -1.0839   -0.1910   -4.8616 S   0  0  0  0  0  0  0  0  0  0  0  0
    0.3279   -0.8284   -5.7299 C   0  0  0  0  0  0  0  0  0  0  0  0
    1.3310    0.0599   -6.1225 C   0  0  0  0  0  0  0  0  0  0  0  0
    2.5009   -0.4419   -6.6885 C   0  0  0  0  0  0  0  0  0  0  0  0
    2.6677   -1.8197   -6.8420 C   0  0  0  0  0  0  0  0  0  0  0  0
    1.6696   -2.7017   -6.4256 C   0  0  0  0  0  0  0  0  0  0  0  0
    0.4765   -2.2077   -5.9048 C   0  0  0  0  0  0  0  0  0  0  0  0
   -1.4856    1.0338   -5.5407 O   0  0  0  0  0  0  0  0  0  0  0  0
   -0.6922   -0.1974   -3.4852 O   0  0  0  0  0  0  0  0  0  0  0  0
  1  2  2  0
  2  3  1  0
  2  4  1  0
  4  5  2  0
  4  9  1  0
  5  6  1  0
  6  7  2  0
  7  8  1  0
  7 10  1  0
  8  9  2  0
 10 11  1  0
 11 12  2  0
 11 15  1  0
 12 13  1  0
 13 14  2  0
 13 20  1  0
 14 15  1  0
 14 17  1  0
 15 16  1  0
 17 18  2  0
 18 19  1  0
 19 20  2  0
 19 21  1  0
 21 22  1  0
 22 23  1  0
 22 29  2  0
 22 30  2  0
 23 24  2  0
 23 28  1  0
 24 25  1  0
 25 26  2  0
 26 27  1  0
 27 28  2  0
M  END
>  <DRUGBANK_ID>  (1) 
DB07508

>  <COMMON_NAME>  (1) 
4-(5-BENZENESULFONYLAMINO-1-METHYL-1H-BENZOIMIDAZOL-2-YLMETHYL)-BENZAMIDINE

$$$$
