
     RDKit          3D

 24 25  0  0  0  0  0  0  0  0999 V2000
    1.3361   -0.1623   -0.3983 C   0  0  0  0  0  0  0  0  0  0  0  0
    0.8749   -0.5102    1.0068 C   0  0  0  0  0  0  0  0  0  0  0  0
    1.3281    0.4480    2.1770 C   0  0  0  0  0  0  0  0  0  0  0  0
    0.2300    1.5127    2.6213 C   0  0  0  0  0  0  0  0  0  0  0  0
   -0.4630    1.9844    1.3059 C   0  0  0  0  0  0  0  0  0  0  0  0
    0.5377    2.8655    0.4958 C   0  0  0  0  0  0  0  0  0  0  0  0
    0.6299    4.2336    1.1446 C   0  0  0  0  0  0  0  0  0  0  0  0
    1.2504    3.9476    2.5190 C   0  0  0  0  0  0  0  0  0  0  0  0
    0.5528    2.8916    3.3170 C   0  0  0  0  0  0  0  0  0  0  0  0
   -0.6779    5.0004    1.1812 C   0  0  0  0  0  0  0  0  0  0  0  0
   -0.2674    6.4691    1.1465 C   0  0  0  0  0  0  0  0  0  0  0  0
    0.8871    6.5064    0.2845 N   0  0  0  0  0  0  0  0  0  0  0  0
    1.4865    5.1786    0.3211 C   0  0  0  0  0  0  0  0  0  0  0  0
    1.8629    7.5797    0.5045 C   0  0  0  0  0  0  0  0  0  0  0  0
    2.6523    7.6530    1.8363 C   0  0  0  0  0  0  0  0  0  0  0  0
    3.6182    6.5167    2.2953 C   0  0  0  0  0  0  0  0  0  0  0  0
    4.7699    6.0270    1.5105 N   0  0  0  0  0  0  0  0  0  0  0  0
    5.5068    4.9157    2.1382 C   0  0  0  0  0  0  0  0  0  0  0  0
    4.8298    3.5538    2.1720 C   0  0  0  0  0  0  0  0  0  0  0  0
    4.7420    5.9324    0.0491 C   0  0  0  0  0  0  0  0  0  0  0  0
    4.1781    4.6961   -0.6718 C   0  0  0  0  0  0  0  0  0  0  0  0
   -0.4603    0.9029    3.8931 C   0  0  0  0  0  0  0  0  0  0  0  0
   -1.3437   -0.3147    3.9003 C   0  0  0  0  0  0  0  0  0  0  0  0
   -0.7005   -1.6355    3.5540 C   0  0  0  0  0  0  0  0  0  0  0  0
  1  2  1  0
  2  3  1  0
  3  4  1  0
  4  5  1  0
  4  9  1  0
  4 22  1  0
  5  6  1  0
  6  7  1  0
  7  8  1  0
  7 10  1  0
  7 13  1  0
  8  9  1  0
 10 11  1  0
 11 12  1  0
 12 13  1  0
 12 14  1  0
 14 15  1  0
 15 16  1  0
 16 17  1  0
 17 18  1  0
 17 20  1  0
 18 19  1  0
 20 21  1  0
 22 23  1  0
 23 24  1  0
M  END
>  <DRUGBANK_ID>  (1) 
DB05513

>  <COMMON_NAME>  (1) 
Atiprimod

>  <CAS_NUMBER>  (1) 
123018-47-3

>  <UNII>  (1) 
MG7D3QD743

>  <SYNONYMS>  (1) 
Atiprimod; Azaspirane; N,N-Diethyl-8,8-dipropyl-2-azaspiro(4.5)decane-2-propanamine

$$$$
