1143
     RDKit          3D

 12 11  0  0  0  0  0  0  0  0999 V2000
    0.9428   -0.0306   -0.0761 S   0  0  0  0  0  0  0  0  0  0  0  0
    0.2361    0.8612    1.7127 P   0  0  0  0  0  0  0  0  0  0  0  0
    1.8011    0.9364    2.1877 O   0  0  0  0  0  0  0  0  0  0  0  0
    0.1391    2.2640    0.8715 O   0  0  0  0  0  0  0  0  0  0  0  0
   -0.2800    1.5125    3.0192 O   0  0  0  0  0  0  0  0  0  0  0  0
    2.9014    0.1150   -2.5226 N   0  0  0  0  0  0  0  0  0  0  0  0
    0.6371   -1.2407   -5.0521 N   0  0  0  0  0  0  0  0  0  0  0  0
    3.3208   -0.5580   -3.7510 C   0  0  0  0  0  0  0  0  0  0  0  0
    2.7261   -1.9597   -3.9481 C   0  0  0  0  0  0  0  0  0  0  0  0
    3.3224   -0.6173   -1.3244 C   0  0  0  0  0  0  0  0  0  0  0  0
    2.7667    0.0216   -0.0581 C   0  0  0  0  0  0  0  0  0  0  0  0
    1.1965   -1.9998   -3.9406 C   0  0  0  0  0  0  0  0  0  0  0  0
  1  2  1  0
  1 11  1  0
  2  3  1  0
  2  4  1  0
  2  5  2  0
  6  8  1  0
  6 10  1  0
  7 12  1  0
  8  9  1  0
  9 12  1  0
 10 11  1  0
M  END
>  <DRUGBANK_ID>  (1) 
DB01143

>  <SECONDARY_ACCESSION_NUMBERS>  (1) 
APRD00021

>  <COMMON_NAME>  (1) 
Amifostine

>  <CAS_NUMBER>  (1) 
20537-88-6

>  <UNII>  (1) 
ILA426L95O

>  <SYNONYMS>  (1) 
Amifostina; Amifostine; Amifostine anhydrous; Amifostinum; Aminopropylaminoethyl thiophosphate; Ethiofos

$$$$
