
     RDKit          3D

 13 13  0  0  1  0  0  0  0  0999 V2000
   -0.9314    0.7881    1.2421 C   0  0  0  0  0  0  0  0  0  0  0  0
    0.4369    1.1609    0.6724 C   0  0  1  0  0  0  0  0  0  0  0  0
    0.3407    2.2968   -0.3505 C   0  0  0  0  0  0  0  0  0  0  0  0
    0.6734    3.6265    0.3805 C   0  0  0  0  0  0  0  0  0  0  0  0
    1.0218    3.1870    1.8290 C   0  0  0  0  0  0  0  0  0  0  0  0
    1.4022    1.7048    1.7369 C   0  0  2  0  0  0  0  0  0  0  0  0
    2.8665    1.5282    1.3358 C   0  0  0  0  0  0  0  0  0  0  0  0
    1.8847    4.3353   -0.2855 C   0  0  0  0  0  0  0  0  0  0  0  0
    1.6215    4.7902   -1.7028 C   0  0  0  0  0  0  0  0  0  0  0  0
    1.6203    5.9499   -2.0898 O   0  0  0  0  0  0  0  0  0  0  0  0
    1.3609    3.7857   -2.5570 O   0  0  0  0  0  0  0  0  0  0  0  0
   -0.5187    4.6176    0.3851 C   0  0  0  0  0  0  0  0  0  0  0  0
   -1.7340    4.0501    0.9582 N   0  0  0  0  0  0  0  0  0  0  0  0
  2  3  1  0
  2  6  1  0
  2  1  1  1
  3  4  1  0
  4  5  1  0
  4  8  1  0
  4 12  1  0
  5  6  1  0
  6  7  1  6
  8  9  1  0
  9 10  2  0
  9 11  1  0
 12 13  1  0
M  END
>  <DRUGBANK_ID>  (1) 
DB12032

>  <COMMON_NAME>  (1) 
Atagabalin

>  <CAS_NUMBER>  (1) 
223445-75-8

>  <UNII>  (1) 
JT7957Q2FB

>  <SYNONYMS>  (1) 
Atagabalin

$$$$
