SD8
     RDKit          3D

 26 29  0  0  0  0  0  0  0  0999 V2000
    2.4342   -0.7905    0.0191 C   0  0  0  0  0  0  0  0  0  0  0  0
    2.6501    0.7116    0.0114 C   0  0  0  0  0  0  0  0  0  0  0  0
   -0.0765    0.7278    0.0048 C   0  0  0  0  0  0  0  0  0  0  0  0
   -1.3305    1.3646   -0.0008 C   0  0  0  0  0  0  0  0  0  0  0  0
   -2.5039    0.6297   -0.0032 C   0  0  0  0  0  0  0  0  0  0  0  0
   -2.4242   -0.7563   -0.0010 C   0  0  0  0  0  0  0  0  0  0  0  0
   -1.1685   -1.3964   -0.0070 C   0  0  0  0  0  0  0  0  0  0  0  0
    0.0384   -0.6678   -0.0093 C   0  0  0  0  0  0  0  0  0  0  0  0
    4.7279   -1.4159    0.9763 C   0  0  0  0  0  0  0  0  0  0  0  0
    6.0973   -1.0985    0.3173 C   0  0  0  0  0  0  0  0  0  0  0  0
    5.3052   -2.0973   -1.7903 C   0  0  0  0  0  0  0  0  0  0  0  0
    3.9471   -2.4629   -1.1088 C   0  0  0  0  0  0  0  0  0  0  0  0
    7.4897   -2.8107   -0.8182 C   0  0  0  0  0  0  0  0  0  0  0  0
    9.6005   -3.9160   -1.4081 C   0  0  0  0  0  0  0  0  0  0  0  0
    9.0651   -4.3141   -0.1947 C   0  0  0  0  0  0  0  0  0  0  0  0
    9.7283   -5.3458    0.6292 C   0  0  0  0  0  0  0  0  0  0  0  0
    9.6540   -6.7313    2.5804 C   0  0  0  0  0  0  0  0  0  0  0  0
    9.7333   -8.0926    1.9022 C   0  0  0  0  0  0  0  0  0  0  0  0
    1.2678   -1.3828   -0.0235 N   0  0  0  0  0  0  0  0  0  0  0  0
    3.6355   -1.5222   -0.0205 N   0  0  0  0  0  0  0  0  0  0  0  0
    6.3858   -2.0052   -0.7963 N   0  0  0  0  0  0  0  0  0  0  0  0
    7.8752   -3.6299    0.1462 N   0  0  0  0  0  0  0  0  0  0  0  0
   10.8159   -5.8325    0.3080 O   0  0  0  0  0  0  0  0  0  0  0  0
    9.0381   -5.7243    1.7458 O   0  0  0  0  0  0  0  0  0  0  0  0
    1.2863    1.8397    0.0560 S   0  0  0  0  0  0  0  0  0  0  0  0
    8.5902   -2.7649   -2.1638 S   0  0  0  0  0  0  0  0  0  0  0  0
  1  2  1  0
  1 19  2  0
  1 20  1  0
  2 25  1  0
  3  4  2  0
  3  8  1  0
  3 25  1  0
  4  5  1  0
  5  6  2  0
  6  7  1  0
  7  8  2  0
  8 19  1  0
  9 10  1  0
  9 20  1  0
 10 21  1  0
 11 12  1  0
 11 21  1  0
 12 20  1  0
 13 21  1  0
 13 22  2  0
 13 26  1  0
 14 15  2  0
 14 26  1  0
 15 16  1  0
 15 22  1  0
 16 23  2  0
 16 24  1  0
 17 18  1  0
 17 24  1  0
M  END
>  <DRUGBANK_ID>  (1) 
DB08540

>  <COMMON_NAME>  (1) 
2-[4-(2H-1,4-BENZOTHIAZINE-3-YL)-PIPERAZINE-1-LY]-1,3-THIAZOLE-4-CARBOXYLIC ACID ETHYLESTER

$$$$
