Structure #1
     RDKit          3D

 29 30  0  0  0  0  0  0  0  0999 V2000
    1.0874   -0.1801   -0.1366 C   0  0  0  0  0  0  0  0  0  0  0  0
   -0.8186   -3.9310    3.9891 C   0  0  0  0  0  0  0  0  0  0  0  0
    5.0851   -5.1848    4.6808 C   0  0  0  0  0  0  0  0  0  0  0  0
    0.4127    2.2534    1.8691 C   0  0  0  0  0  0  0  0  0  0  0  0
   -1.0665    2.6119    2.1298 C   0  0  0  0  0  0  0  0  0  0  0  0
    3.3470   -3.8485    1.6318 C   0  0  0  0  0  0  0  0  0  0  0  0
    1.0032   -2.8351    1.4199 C   0  0  0  0  0  0  0  0  0  0  0  0
    0.7828   -0.2904    1.2954 C   0  0  0  0  0  0  0  0  0  0  0  0
   -0.3784   -2.4765    4.2534 C   0  0  0  0  0  0  0  0  0  0  0  0
    4.0948   -4.7805    3.6465 C   0  0  0  0  0  0  0  0  0  0  0  0
    2.1633   -3.5197    2.1707 C   0  0  0  0  0  0  0  0  0  0  0  0
    0.6554    0.7896    2.1444 C   0  0  0  0  0  0  0  0  0  0  0  0
    2.2378   -3.8140    3.5244 C   0  0  0  0  0  0  0  0  0  0  0  0
    0.1883   -1.4108    3.1824 C   0  0  0  0  0  0  0  0  0  0  0  0
    2.0325   -2.8297    4.4449 N   0  0  0  0  0  0  0  0  0  0  0  0
    4.3757   -4.3807    2.3754 N   0  0  0  0  0  0  0  0  0  0  0  0
    2.9360   -4.7101    4.1755 N   0  0  0  0  0  0  0  0  0  0  0  0
    0.6422   -1.5297    1.9516 N   0  0  0  0  0  0  0  0  0  0  0  0
    0.0191   -2.3143    5.4299 O   0  0  0  0  0  0  0  0  0  0  0  0
   -2.2099   -2.3681    5.6916 O   0  0  0  0  0  0  0  0  0  0  0  0
   -0.4896   -0.0593    6.0613 O   0  0  0  0  0  0  0  0  0  0  0  0
   -2.0670   -0.9029    7.3951 O   0  0  0  0  0  0  0  0  0  0  0  0
   -3.7438    0.9007    3.8393 O   0  0  0  0  0  0  0  0  0  0  0  0
   -2.3394    0.1107    1.8053 O   0  0  0  0  0  0  0  0  0  0  0  0
   -1.5166    1.9819    3.3705 O   0  0  0  0  0  0  0  0  0  0  0  0
   -1.6930   -0.6774    4.1460 O   0  0  0  0  0  0  0  0  0  0  0  0
   -1.8903   -0.7964    5.8606 P   0  0  0  0  0  0  0  0  0  0  0  0
   -2.3108    0.5588    3.2368 P   0  0  0  0  0  0  0  0  0  0  0  0
    0.9530    0.1539    3.7122 S   0  0  0  0  0  0  0  0  0  0  0  0
  1  8  1  0
  2  9  1  0
  3 10  1  0
  4  5  1  0
  4 12  1  0
  5 25  1  0
  6 11  2  0
  6 16  1  0
  7 11  1  0
  7 18  1  0
  8 12  2  0
  8 18  1  0
  9 14  1  0
  9 19  2  0
 10 16  2  0
 10 17  1  0
 11 13  1  0
 12 29  1  0
 13 15  1  0
 13 17  2  0
 14 18  2  0
 14 29  1  0
 20 27  1  0
 21 27  1  0
 22 27  2  0
 23 28  1  0
 24 28  2  0
 25 28  1  0
 26 27  1  0
 26 28  1  0
M  CHG  1  18   1
M  END
>  <DRUGBANK_ID>  (1) 
DB02410

>  <SECONDARY_ACCESSION_NUMBERS>  (1) 
EXPT01790

>  <COMMON_NAME>  (1) 
2-Acetyl-3-[(4-Amino-2-Methyl-5-Pyrimidinyl)Methyl]-4-Methyl-5-(4,6,6-Trihydroxy-3,5-Dioxa-4,6-Diphosphahex-1-Yl)Thiazolium Inner Salt P,P'-Dioxide

$$$$
