
     RDKit          3D

 17 19  0  0  0  0  0  0  0  0999 V2000
   -0.2492   -0.6456    0.0248 N   0  0  0  0  0  0  0  0  0  0  0  0
    0.9417   -1.4821   -0.1668 C   0  0  0  0  0  0  0  0  0  0  0  0
   -0.2271    0.7302    0.0648 C   0  0  0  0  0  0  0  0  0  0  0  0
   -1.5556   -1.0424    0.0128 C   0  0  0  0  0  0  0  0  0  0  0  0
    1.1371   -1.8684   -1.6383 C   0  0  0  0  0  0  0  0  0  0  0  0
    2.1750   -0.7138    0.3596 C   0  0  0  0  0  0  0  0  0  0  0  0
    1.0369    1.5134    0.0941 C   0  0  0  0  0  0  0  0  0  0  0  0
   -1.5528    1.0985    0.0769 C   0  0  0  0  0  0  0  0  0  0  0  0
   -2.3658   -0.0065    0.0337 N   0  0  0  0  0  0  0  0  0  0  0  0
    2.2079   -2.6983   -2.0153 C   0  0  0  0  0  0  0  0  0  0  0  0
    0.3136   -1.3545   -2.6574 C   0  0  0  0  0  0  0  0  0  0  0  0
    2.2485    0.6680   -0.3041 C   0  0  0  0  0  0  0  0  0  0  0  0
    2.4360   -2.9997   -3.3627 C   0  0  0  0  0  0  0  0  0  0  0  0
    0.5271   -1.6686   -3.9959 C   0  0  0  0  0  0  0  0  0  0  0  0
    1.5801   -2.5057   -4.3509 C   0  0  0  0  0  0  0  0  0  0  0  0
    1.7531   -2.8888   -5.7200 C   0  0  0  0  0  0  0  0  0  0  0  0
    1.8724   -3.2234   -6.8228 N   0  0  0  0  0  0  0  0  0  0  0  0
  1  2  1  0
  1  3  1  0
  1  4  1  0
  2  5  1  0
  2  6  1  0
  3  7  1  0
  3  8  2  0
  4  9  2  0
  5 10  2  0
  5 11  1  0
  6 12  1  0
  7 12  1  0
  8  9  1  0
 10 13  1  0
 11 14  2  0
 13 15  2  0
 14 15  1  0
 15 16  1  0
 16 17  3  0
M  END
>  <DRUGBANK_ID>  (1) 
DB16832

>  <COMMON_NAME>  (1) 
Fadrozole

>  <CAS_NUMBER>  (1) 
102676-47-1

>  <UNII>  (1) 
H3988M64PU

>  <SYNONYMS>  (1) 
Fadrozole

$$$$
