
     RDKit          3D

 18 19  0  0  0  0  0  0  0  0999 V2000
    2.5288    1.1114   -0.0101 C   0  0  0  0  0  0  0  0  0  0  0  0
    1.2160    0.3687    0.0382 C   0  0  0  0  0  0  0  0  0  0  0  0
   -0.0495    1.0028    0.1996 C   0  0  0  0  0  0  0  0  0  0  0  0
   -1.1076    0.1345    0.5550 C   0  0  0  0  0  0  0  0  0  0  0  0
   -0.9988   -1.2555    0.3297 C   0  0  0  0  0  0  0  0  0  0  0  0
    0.1949   -1.8526    0.0350 C   0  0  0  0  0  0  0  0  0  0  0  0
    1.3139   -1.0481   -0.0138 C   0  0  0  0  0  0  0  0  0  0  0  0
   -2.4423    0.4676    1.1526 C   0  0  0  0  0  0  0  0  0  0  0  0
   -0.1242    2.4262    0.0131 N   0  0  0  0  0  0  0  0  0  0  0  0
   -1.1424    3.3376   -0.2089 C   0  0  0  0  0  0  0  0  0  0  0  0
   -0.8734    4.5413   -0.0742 O   0  0  0  0  0  0  0  0  0  0  0  0
   -2.5999    2.9010   -0.4416 C   0  0  0  0  0  0  0  0  0  0  0  0
   -2.7711    1.8430   -1.5661 N   0  0  0  0  0  0  0  0  0  0  0  0
   -3.1846    0.4019   -1.6119 C   0  0  0  0  0  0  0  0  0  0  0  0
   -2.5266   -0.1468   -2.8571 C   0  0  0  0  0  0  0  0  0  0  0  0
   -2.6967    1.0274   -3.7756 C   0  0  0  0  0  0  0  0  0  0  0  0
   -2.4727    2.2079   -2.8634 C   0  0  0  0  0  0  0  0  0  0  0  0
   -2.0973    3.3372   -3.2198 O   0  0  0  0  0  0  0  0  0  0  0  0
  1  2  1  0
  2  3  2  0
  3  9  1  0
  3  4  1  0
  4  5  2  0
  4  8  1  0
  5  6  1  0
  6  7  2  0
  7  2  1  0
  9 10  1  0
 10 11  2  0
 10 12  1  0
 12 13  1  0
 13 14  1  0
 14 15  1  0
 15 16  1  0
 16 17  1  0
 17 13  1  0
 17 18  2  0
M  END
>  <DRUGBANK_ID>  (1) 
DB13082

>  <COMMON_NAME>  (1) 
Nefiracetam

>  <CAS_NUMBER>  (1) 
77191-36-7

>  <UNII>  (1) 
1JK12GX30N

>  <SYNONYMS>  (1) 
Nefiracetam; Nefiracetamum

$$$$
