
     RDKit          3D

 20 19  0  0  1  0  0  0  0  0999 V2000
    1.0454    2.4240   -0.9476 C   0  0  0  0  0  0  0  0  0  0  0  0
    0.5647    1.4551    0.1243 C   0  0  2  0  0  0  0  0  0  0  0  0
    1.2032    0.1501   -0.0678 N   0  0  0  0  0  0  0  0  0  0  0  0
   -0.9882    1.3823    0.1275 C   0  0  1  0  0  0  0  0  0  0  0  0
   -1.4986    0.5070    1.2865 C   0  0  0  0  0  0  0  0  0  0  0  0
   -1.0118    0.9641    2.6763 C   0  0  0  0  0  0  0  0  0  0  0  0
   -1.5116    2.3521    3.0937 C   0  0  0  0  0  0  0  0  0  0  0  0
   -3.0434    2.4356    3.0877 C   0  0  0  0  0  0  0  0  0  0  0  0
   -3.6301    1.5020    4.1445 C   0  0  0  0  0  0  0  0  0  0  0  0
   -3.1153    1.8508    5.5295 C   0  0  0  0  0  0  0  0  0  0  0  0
   -4.0696    2.2277    6.3985 O   0  0  0  0  0  0  0  0  0  0  0  0
   -1.9429    1.7989    5.8694 O   0  0  0  0  0  0  0  0  0  0  0  0
   -1.5370    2.7147    0.2261 N   0  0  0  0  0  0  0  0  0  0  0  0
   -2.3523    3.4396   -0.5444 C   0  0  0  0  0  0  0  0  0  0  0  0
   -2.5691    4.5736   -0.1515 O   0  0  0  0  0  0  0  0  0  0  0  0
   -2.7020    2.8817   -1.7112 O   0  0  0  0  0  0  0  0  0  0  0  0
   -3.6966    3.6921   -2.8717 P   0  0  0  0  0  0  0  0  0  0  0  0
   -4.8929    2.7296   -2.2964 O   0  0  0  0  0  0  0  0  0  0  0  0
   -3.9562    4.9534   -1.8696 O   0  0  0  0  0  0  0  0  0  0  0  0
   -4.5868    4.4174   -3.9104 O   0  0  0  0  0  0  0  0  0  0  0  0
  2  4  1  0
  2  3  1  0
  2  1  1  6
  4  5  1  1
  4 13  1  0
  5  6  1  0
  6  7  1  0
  7  8  1  0
  8  9  1  0
  9 10  1  0
 10 11  1  0
 10 12  2  0
 13 14  1  0
 14 15  2  0
 14 16  1  0
 16 17  1  0
 17 18  1  0
 17 19  1  0
 17 20  2  0
M  END
>  <DRUGBANK_ID>  (1) 
DB02927

>  <SECONDARY_ACCESSION_NUMBERS>  (1) 
EXPT01262

>  <COMMON_NAME>  (1) 
Mixed Carbamic Phosphoric Acid Anhydride of 7,8-Diaminononanic Acid

$$$$
