
     RDKit          3D

 28 30  0  0  0  0  0  0  0  0999 V2000
    0.9356    0.1004    0.2326 C   0  0  0  0  0  0  0  0  0  0  0  0
    0.5725    1.5505    0.0069 C   0  0  0  0  0  0  0  0  0  0  0  0
    1.0552    2.1056   -1.3024 C   0  0  0  0  0  0  0  0  0  0  0  0
    1.5740    1.5745   -2.4868 C   0  0  0  0  0  0  0  0  0  0  0  0
    1.9366    0.1819   -2.7776 C   0  0  0  0  0  0  0  0  0  0  0  0
    1.9866   -0.7581   -1.9843 O   0  0  0  0  0  0  0  0  0  0  0  0
    2.3486   -0.2353   -4.1101 C   0  0  0  0  0  0  0  0  0  0  0  0
    3.6040    0.1482   -4.5837 C   0  0  0  0  0  0  0  0  0  0  0  0
    3.9955   -0.2748   -5.8462 C   0  0  0  0  0  0  0  0  0  0  0  0
    5.6219    0.3901   -6.5505 Br  0  0  0  0  0  0  0  0  0  0  0  0
    3.1761   -1.1327   -6.5909 C   0  0  0  0  0  0  0  0  0  0  0  0
    3.5631   -1.5574   -7.8330 O   0  0  0  0  0  0  0  0  0  0  0  0
    1.9492   -1.5621   -6.0708 C   0  0  0  0  0  0  0  0  0  0  0  0
    0.8167   -2.7414   -7.0288 Br  0  0  0  0  0  0  0  0  0  0  0  0
    1.5292   -1.1157   -4.8223 C   0  0  0  0  0  0  0  0  0  0  0  0
    1.6660    2.6996   -3.3797 C   0  0  0  0  0  0  0  0  0  0  0  0
    1.2818    3.8342   -2.6768 C   0  0  0  0  0  0  0  0  0  0  0  0
    0.9154    3.4718   -1.4151 O   0  0  0  0  0  0  0  0  0  0  0  0
    1.2536    5.1257   -3.2313 C   0  0  0  0  0  0  0  0  0  0  0  0
    1.6758    5.2411   -4.5725 C   0  0  0  0  0  0  0  0  0  0  0  0
    2.1357    4.1369   -5.2715 C   0  0  0  0  0  0  0  0  0  0  0  0
    2.0513    2.8708   -4.7170 C   0  0  0  0  0  0  0  0  0  0  0  0
    1.5465    6.8111   -5.4038 S   0  0  0  0  0  0  0  0  0  0  0  0
    0.1505    7.1949   -5.3782 O   0  0  0  0  0  0  0  0  0  0  0  0
    2.5756    7.6567   -4.8388 O   0  0  0  0  0  0  0  0  0  0  0  0
    1.9481    6.5460   -7.0723 N   0  0  0  0  0  0  0  0  0  0  0  0
    1.0370    5.6494   -7.8365 C   0  0  0  0  0  0  0  0  0  0  0  0
    2.0439    7.8447   -7.8064 C   0  0  0  0  0  0  0  0  0  0  0  0
  1  2  1  0
  2  3  1  0
  3  4  2  0
  3 18  1  0
  4  5  1  0
  4 16  1  0
  5  6  2  0
  5  7  1  0
  7  8  2  0
  7 15  1  0
  8  9  1  0
  9 10  1  0
  9 11  2  0
 11 12  1  0
 11 13  1  0
 13 14  1  0
 13 15  2  0
 16 17  2  0
 16 22  1  0
 17 18  1  0
 17 19  1  0
 19 20  2  0
 20 21  1  0
 20 23  1  0
 21 22  2  0
 23 24  2  0
 23 25  2  0
 23 26  1  0
 26 27  1  0
 26 28  1  0
M  END
>  <DRUGBANK_ID>  (1) 
DB04142

>  <SECONDARY_ACCESSION_NUMBERS>  (1) 
EXPT00631

>  <COMMON_NAME>  (1) 
3-(3,5-Dibromo-4-Hydroxy-Benzoyl)-2-Ethyl-Benzofuran-6-Sulfonic Acid Dimethylamide

$$$$
