
     RDKit          3D

 37 43  0  0  1  0  0  0  0  0999 V2000
    0.8051   -0.0735   -0.2919 C   0  0  0  0  0  0  0  0  0  0  0  0
    0.4169    0.8299   -1.4258 C   0  0  0  0  0  0  0  0  0  0  0  0
   -0.1508    0.6668   -2.6524 C   0  0  0  0  0  0  0  0  0  0  0  0
   -0.2665    1.8872   -3.3291 N   0  0  0  0  0  0  0  0  0  0  0  0
   -0.6685    2.4074   -4.5443 C   0  0  0  0  0  0  0  0  0  0  0  0
   -0.3779    3.7766   -4.4567 C   0  0  0  0  0  0  0  0  0  0  0  0
   -0.4105    4.8763   -5.4437 C   0  0  0  0  0  0  0  0  0  0  0  0
    0.4286    4.6461   -6.6814 C   0  0  0  0  0  0  0  0  0  0  0  0
   -0.0561    4.8563   -7.7833 O   0  0  0  0  0  0  0  0  0  0  0  0
    1.7865    4.4049   -6.5183 N   0  0  0  0  0  0  0  0  0  0  0  0
    2.4972    3.6506   -5.4858 C   0  0  0  0  0  0  0  0  0  0  0  0
    3.3792    4.5437   -4.6171 C   0  0  0  0  0  0  0  0  0  0  0  0
    4.4007    5.2064   -5.5304 C   0  0  0  0  0  0  0  0  0  0  0  0
    5.6934    4.4378   -5.9078 C   0  0  0  0  0  0  0  0  0  0  0  0
    6.4975    5.6662   -5.6529 N   0  0  0  0  0  0  0  0  0  0  0  0
    5.4111    6.1708   -4.7938 C   0  0  0  0  0  0  0  0  0  0  0  0
    6.8295    6.5083   -6.8331 C   0  0  2  0  0  0  0  0  0  0  0  0
    5.8542    7.5183   -7.5298 C   0  0  0  0  0  0  0  0  0  0  0  0
    5.8572    7.2468   -9.0500 C   0  0  0  0  0  0  0  0  0  0  0  0
    6.7448    6.0506   -9.2077 C   0  0  0  0  0  0  0  0  0  0  0  0
    7.3372    5.6818   -8.0030 C   0  0  0  0  0  0  0  0  0  0  0  0
    8.2327    4.6148   -7.9605 C   0  0  0  0  0  0  0  0  0  0  0  0
    8.4990    3.8896   -9.1309 C   0  0  0  0  0  0  0  0  0  0  0  0
    7.8902    4.2303  -10.3554 C   0  0  0  0  0  0  0  0  0  0  0  0
    7.0018    5.3289  -10.3750 C   0  0  0  0  0  0  0  0  0  0  0  0
    8.1769    3.4724  -11.5885 C   0  0  0  0  0  0  0  0  0  0  0  0
    8.7662    4.0762  -12.6885 C   0  0  0  0  0  0  0  0  0  0  0  0
    8.9071    3.3099  -13.8312 C   0  0  0  0  0  0  0  0  0  0  0  0
    9.4919    3.8830  -15.0868 C   0  0  0  0  0  0  0  0  0  0  0  0
    8.5009    2.0270  -13.8877 N   0  0  0  0  0  0  0  0  0  0  0  0
    7.9590    1.5270  -12.7668 C   0  0  0  0  0  0  0  0  0  0  0  0
    7.7843    2.1805  -11.6069 N   0  0  0  0  0  0  0  0  0  0  0  0
    3.6996    5.7653   -6.7710 C   0  0  0  0  0  0  0  0  0  0  0  0
    2.6617    4.9612   -7.4925 C   0  0  0  0  0  0  0  0  0  0  0  0
    0.1459    4.0949   -3.2293 N   0  0  0  0  0  0  0  0  0  0  0  0
    0.1894    2.9569   -2.6183 C   0  0  0  0  0  0  0  0  0  0  0  0
    0.8060    2.5391   -1.0805 S   0  0  0  0  0  0  0  0  0  0  0  0
  1  2  1  0
  2  3  2  0
  2 37  1  0
  3  4  1  0
  4  5  1  0
  4 36  1  0
  5  6  2  0
  6  7  1  0
  6 35  1  0
  7  8  1  0
  8  9  2  0
  8 10  1  0
 10 11  1  0
 10 34  1  0
 11 12  1  0
 12 13  1  0
 13 14  1  0
 13 16  1  0
 13 33  1  0
 14 15  1  0
 15 16  1  0
 17 15  1  1
 17 18  1  0
 17 21  1  0
 18 19  1  0
 19 20  1  0
 20 21  2  0
 20 25  1  0
 21 22  1  0
 22 23  2  0
 23 24  1  0
 24 25  2  0
 24 26  1  0
 26 27  2  0
 26 32  1  0
 27 28  1  0
 28 29  1  0
 28 30  2  0
 30 31  1  0
 31 32  2  0
 33 34  1  0
 35 36  2  0
 36 37  1  0
M  END
>  <DRUGBANK_ID>  (1) 
DB14870

>  <COMMON_NAME>  (1) 
PF-5190457

>  <CAS_NUMBER>  (1) 
1334782-79-4

>  <UNII>  (1) 
FF33NL9U5G

$$$$
