
     RDKit          3D

 29 32  0  0  1  0  0  0  0  0999 V2000
    3.4758   -0.2796    0.0040 Cl  0  0  0  0  0  0  0  0  0  0  0  0
   -2.8252   -3.7875    1.6829 O   0  0  0  0  0  0  0  0  0  0  0  0
   -5.7432    0.2209   -3.0689 O   0  0  0  0  0  0  0  0  0  0  0  0
   -3.3397   -2.6826   -0.3716 N   0  0  0  0  0  0  0  0  0  0  0  0
   -1.0113   -1.8236   -0.2013 N   0  0  0  0  0  0  0  0  0  0  0  0
    1.0408   -0.9127   -0.0700 N   0  0  0  0  0  0  0  0  0  0  0  0
   -4.6108   -2.6430   -1.2249 C   0  0  0  0  0  0  0  0  0  0  0  0
   -5.7172   -1.5070   -1.3854 C   0  0  0  0  0  0  0  0  0  0  0  0
   -5.3549   -3.8833   -0.6763 C   0  0  0  0  0  0  0  0  0  0  0  0
   -4.7164   -4.3898    0.4508 C   0  0  0  0  0  0  0  0  0  0  0  0
   -3.4565   -3.6564    0.6729 C   0  0  0  0  0  0  0  0  0  0  0  0
   -5.4440   -0.1034   -1.9178 C   0  0  0  0  0  0  0  0  0  0  0  0
   -4.6473    0.8397   -1.0808 C   0  0  0  0  0  0  0  0  0  0  0  0
   -5.0594    1.0238    0.5570 C   0  0  0  0  0  0  0  0  0  0  0  0
   -5.4520   -0.2106    1.5774 C   0  0  0  0  0  0  0  0  0  0  0  0
   -2.3095   -1.6628   -0.2188 C   0  0  0  0  0  0  0  0  0  0  0  0
   -6.4918   -4.5452   -1.1367 C   0  0  0  0  0  0  0  0  0  0  0  0
   -5.2114   -5.4479    1.2101 C   0  0  0  0  0  0  0  0  0  0  0  0
   -6.9560   -5.6833   -0.4464 C   0  0  0  0  0  0  0  0  0  0  0  0
   -6.3341   -6.1210    0.7325 C   0  0  0  0  0  0  0  0  0  0  0  0
   -4.4621   -1.2520    2.1346 C   0  0  0  0  0  0  0  0  0  0  0  0
   -6.0453    0.2007    2.8920 C   0  0  0  0  0  0  0  0  0  0  0  0
   -2.6946   -0.4015    0.1333 C   0  0  0  0  0  0  0  0  0  0  0  0
   -2.0066    0.8045    0.1890 C   0  0  0  0  0  0  0  0  0  0  0  0
   -0.2357   -0.7168   -0.0715 C   0  0  0  0  0  0  0  0  0  0  0  0
   -0.7045    0.6369    0.0330 C   0  0  0  0  0  0  0  0  0  0  0  0
    0.1008    1.7693    0.0188 C   0  0  0  0  0  0  0  0  0  0  0  0
    1.4403    1.5054   -0.0028 C   0  0  0  0  0  0  0  0  0  0  0  0
    1.8337    0.1692   -0.0208 C   0  0  0  0  0  0  0  0  0  0  0  0
  1 29  1  0
  2 11  2  0
  3 12  2  0
  4  7  1  0
  4 11  1  0
  4 16  1  0
  5 16  2  0
  5 25  1  0
  6 25  2  0
  6 29  1  0
  7  8  1  0
  7  9  1  0
  8 12  1  0
  9 10  2  0
  9 17  1  0
 10 11  1  0
 10 18  1  0
 12 13  1  0
 13 14  1  0
 14 15  1  0
 15 21  1  0
 15 22  1  0
 16 23  1  0
 17 19  2  0
 18 20  2  0
 19 20  1  0
 23 24  2  0
 24 26  1  0
 25 26  1  0
 26 27  2  0
 27 28  1  0
 28 29  2  0
M  END
>  <DRUGBANK_ID>  (1) 
DB04903

>  <COMMON_NAME>  (1) 
Pagoclone

>  <CAS_NUMBER>  (1) 
133737-32-3

>  <UNII>  (1) 
38VAG2SA33

>  <SYNONYMS>  (1) 
Pagoclone

$$$$
