
     RDKit          3D

 32 36  0  0  0  0  0  0  0  0999 V2000
    1.0620    0.1346    0.0508 C   0  0  0  0  0  0  0  0  0  0  0  0
    0.5874   -1.3160    0.1795 C   0  0  0  0  0  0  0  0  0  0  0  0
    1.0676   -1.8818    1.5249 C   0  0  0  0  0  0  0  0  0  0  0  0
   -0.8489   -1.2825    0.1732 O   0  0  0  0  0  0  0  0  0  0  0  0
    1.0391   -2.2155   -0.9710 C   0  0  0  0  0  0  0  0  0  0  0  0
    1.6105   -1.7003   -2.1424 C   0  0  0  0  0  0  0  0  0  0  0  0
    1.9090   -2.5496   -3.2057 C   0  0  0  0  0  0  0  0  0  0  0  0
    2.3502   -1.9955   -4.4423 N   0  0  0  0  0  0  0  0  0  0  0  0
    2.7058   -2.8003   -5.5471 C   0  0  0  0  0  0  0  0  0  0  0  0
    1.6821   -3.5078   -6.1573 C   0  0  0  0  0  0  0  0  0  0  0  0
    1.9618   -4.4348   -7.1468 C   0  0  0  0  0  0  0  0  0  0  0  0
    0.9893   -5.1665   -7.7885 O   0  0  0  0  0  0  0  0  0  0  0  0
   -0.3222   -5.0046   -7.4710 C   0  0  0  0  0  0  0  0  0  0  0  0
   -1.0700   -3.8669   -7.6041 C   0  0  0  0  0  0  0  0  0  0  0  0
   -2.2809   -4.1625   -7.0484 N   0  0  0  0  0  0  0  0  0  0  0  0
   -2.3700   -5.4320   -6.5974 N   0  0  0  0  0  0  0  0  0  0  0  0
   -1.1737   -5.9668   -6.8824 C   0  0  0  0  0  0  0  0  0  0  0  0
   -0.8331   -7.3659   -6.4646 C   0  0  0  0  0  0  0  0  0  0  0  0
    0.2878   -7.3339   -5.4155 C   0  0  0  0  0  0  0  0  0  0  0  0
    0.7936   -8.7219   -5.0850 C   0  0  0  0  0  0  0  0  0  0  0  0
    1.1824   -9.4081   -6.2727 O   0  0  0  0  0  0  0  0  0  0  0  0
    0.0887   -9.5930   -7.1700 C   0  0  0  0  0  0  0  0  0  0  0  0
   -0.4403   -8.2515   -7.6555 C   0  0  0  0  0  0  0  0  0  0  0  0
   -3.4294   -3.2855   -6.9672 C   0  0  0  0  0  0  0  0  0  0  0  0
   -3.9393   -2.6274   -8.2404 C   0  0  0  0  0  0  0  0  0  0  0  0
   -3.4567   -1.7755   -7.1166 C   0  0  0  0  0  0  0  0  0  0  0  0
    3.2895   -4.6797   -7.4668 C   0  0  0  0  0  0  0  0  0  0  0  0
    4.2581   -3.9145   -6.8304 C   0  0  0  0  0  0  0  0  0  0  0  0
    3.9944   -2.9595   -5.9007 N   0  0  0  0  0  0  0  0  0  0  0  0
    1.6303   -3.9091   -3.0415 C   0  0  0  0  0  0  0  0  0  0  0  0
    1.0871   -4.3550   -1.8541 C   0  0  0  0  0  0  0  0  0  0  0  0
    0.7921   -3.5449   -0.8254 N   0  0  0  0  0  0  0  0  0  0  0  0
  1  2  1  0
  2  3  1  0
  2  4  1  0
  2  5  1  0
  5  6  2  0
  5 32  1  0
  6  7  1  0
  7  8  1  0
  7 30  2  0
  8  9  1  0
  9 10  2  0
  9 29  1  0
 10 11  1  0
 11 12  1  0
 11 27  2  0
 12 13  1  0
 13 14  2  0
 13 17  1  0
 14 15  1  0
 15 16  1  0
 15 24  1  0
 16 17  2  0
 17 18  1  0
 18 19  1  0
 18 23  1  0
 19 20  1  0
 20 21  1  0
 21 22  1  0
 22 23  1  0
 24 25  1  0
 24 26  1  0
 25 26  1  0
 27 28  1  0
 28 29  2  0
 30 31  1  0
 31 32  2  0
M  END
>  <DRUGBANK_ID>  (1) 
DB16064

>  <COMMON_NAME>  (1) 
LY-3200882

>  <CAS_NUMBER>  (1) 
1898283-02-7

>  <UNII>  (1) 
19HY34R6UN

$$$$
