
     RDKit          3D

 23 26  0  0  0  0  0  0  0  0999 V2000
   -1.4678   -1.8889    0.7433 C   0  0  0  0  0  0  0  0  0  0  0  0
   -2.3242   -0.8272    0.0812 C   0  0  0  0  0  0  0  0  0  0  0  0
   -2.1810    0.5150    0.4759 C   0  0  0  0  0  0  0  0  0  0  0  0
   -1.0975    0.9272    1.2720 N   0  0  0  0  0  0  0  0  0  0  0  0
   -0.1835   -1.7949    0.9242 N   0  0  0  0  0  0  0  0  0  0  0  0
    0.2263    0.6449    0.8810 C   0  0  0  0  0  0  0  0  0  0  0  0
    0.6007   -0.6757    0.5616 C   0  0  0  0  0  0  0  0  0  0  0  0
   -3.0294    1.4863   -0.0920 C   0  0  0  0  0  0  0  0  0  0  0  0
   -4.0183    1.1312   -1.0137 C   0  0  0  0  0  0  0  0  0  0  0  0
   -4.1596   -0.1951   -1.3935 C   0  0  0  0  0  0  0  0  0  0  0  0
   -3.3144   -1.1602   -0.8509 C   0  0  0  0  0  0  0  0  0  0  0  0
    1.8744   -0.9180    0.0407 C   0  0  0  0  0  0  0  0  0  0  0  0
    2.7675    0.1334   -0.1667 C   0  0  0  0  0  0  0  0  0  0  0  0
    2.4032    1.4418    0.1394 C   0  0  0  0  0  0  0  0  0  0  0  0
    1.1279    1.7001    0.6479 C   0  0  0  0  0  0  0  0  0  0  0  0
   -2.0792   -3.0367    1.2593 N   0  0  0  0  0  0  0  0  0  0  0  0
   -2.0120   -3.3291    2.7031 C   0  0  0  0  0  0  0  0  0  0  0  0
   -1.7484   -4.8327    2.9527 C   0  0  0  0  0  0  0  0  0  0  0  0
   -2.7598   -5.6781    2.2749 N   0  0  0  0  0  0  0  0  0  0  0  0
   -2.6668   -5.4066    0.8304 C   0  0  0  0  0  0  0  0  0  0  0  0
   -2.9482   -3.9319    0.5051 C   0  0  0  0  0  0  0  0  0  0  0  0
    4.3414   -0.1894   -0.7862 Cl  0  0  0  0  0  0  0  0  0  0  0  0
   -2.5369   -7.0944    2.5376 C   0  0  0  0  0  0  0  0  0  0  0  0
  1  5  2  0
  1  2  1  0
  1 16  1  0
  2  3  2  0
  2 11  1  0
  3  4  1  0
  3  8  1  0
  4  6  1  0
  5  7  1  0
  6  7  2  0
  6 15  1  0
  7 12  1  0
  8  9  2  0
  9 10  1  0
 10 11  2  0
 12 13  2  0
 13 14  1  0
 13 22  1  0
 14 15  2  0
 16 17  1  0
 16 21  1  0
 17 18  1  0
 18 19  1  0
 19 20  1  0
 19 23  1  0
 20 21  1  0
M  END
>  <DRUGBANK_ID>  (1) 
DB00363

>  <SECONDARY_ACCESSION_NUMBERS>  (1) 
APRD00470

>  <COMMON_NAME>  (1) 
Clozapine

>  <CAS_NUMBER>  (1) 
5786-21-0

>  <UNII>  (1) 
J60AR2IKIC

>  <SYNONYMS>  (1) 
Clozapin; Clozapina; Clozapine; Clozapinum

$$$$
