
     RDKit          3D

 30 32  0  0  0  0  0  0  0  0999 V2000
   -2.5408   -0.4993   -0.0348 C   0  0  0  0  0  0  0  0  0  0  0  0
   -1.0736   -0.2507   -0.1023 C   0  0  0  0  0  0  0  0  0  0  0  0
   -0.0290   -1.1415    0.0290 C   0  0  0  0  0  0  0  0  0  0  0  0
    1.4653   -0.2582    0.0883 S   0  0  0  0  0  0  0  0  0  0  0  0
    0.5856    1.2023   -0.0944 C   0  0  0  0  0  0  0  0  0  0  0  0
   -0.6687    1.0206   -0.3775 N   0  0  0  0  0  0  0  0  0  0  0  0
    1.1885    2.4234    0.0758 N   0  0  0  0  0  0  0  0  0  0  0  0
    0.5688    3.6522   -0.0194 C   0  0  0  0  0  0  0  0  0  0  0  0
    1.2976    4.6301   -0.2074 O   0  0  0  0  0  0  0  0  0  0  0  0
   -0.7976    3.7875    0.0947 N   0  0  0  0  0  0  0  0  0  0  0  0
   -1.6928    3.0093    0.9225 C   0  0  0  0  0  0  0  0  0  0  0  0
   -2.8424    2.7130   -0.0306 C   0  0  0  0  0  0  0  0  0  0  0  0
   -3.0303    4.0301   -0.7465 C   0  0  0  0  0  0  0  0  0  0  0  0
   -1.6211    4.6897   -0.7472 C   0  0  1  0  0  0  0  0  0  0  0  0
   -1.6580    6.1626   -0.2650 C   0  0  0  0  0  0  0  0  0  0  0  0
   -0.6674    6.8990   -0.2541 O   0  0  0  0  0  0  0  0  0  0  0  0
   -2.8274    6.6898    0.2082 N   0  0  0  0  0  0  0  0  0  0  0  0
   -0.1613   -2.5927    0.0573 C   0  0  0  0  0  0  0  0  0  0  0  0
   -0.9028   -3.1937   -0.9710 C   0  0  0  0  0  0  0  0  0  0  0  0
   -1.1812   -4.5565   -0.9582 C   0  0  0  0  0  0  0  0  0  0  0  0
   -0.7441   -5.3247    0.0688 N   0  0  0  0  0  0  0  0  0  0  0  0
   -0.0448   -4.7259    1.0676 C   0  0  0  0  0  0  0  0  0  0  0  0
    0.2657   -3.3769    1.1108 C   0  0  0  0  0  0  0  0  0  0  0  0
   -1.9576   -5.2490   -2.0843 C   0  0  0  0  0  0  0  0  0  0  0  0
   -1.0393   -6.2874   -2.7544 C   0  0  0  0  0  0  0  0  0  0  0  0
   -3.1930   -5.9707   -1.5117 C   0  0  0  0  0  0  0  0  0  0  0  0
   -2.4376   -4.2661   -3.1616 C   0  0  0  0  0  0  0  0  0  0  0  0
   -3.2741   -3.3305   -2.6475 F   0  0  0  0  0  0  0  0  0  0  0  0
   -1.4049   -3.6086   -3.7418 F   0  0  0  0  0  0  0  0  0  0  0  0
   -3.1102   -4.8873   -4.1566 F   0  0  0  0  0  0  0  0  0  0  0  0
  1  2  1  0
  2  3  2  0
  3  4  1  0
  3 18  1  0
  4  5  1  0
  5  6  2  0
  5  7  1  0
  6  2  1  0
  7  8  1  0
  8  9  2  0
  8 10  1  0
 10 11  1  0
 11 12  1  0
 12 13  1  0
 13 14  1  0
 14 10  1  0
 14 15  1  1
 15 16  2  0
 15 17  1  0
 18 19  2  0
 19 20  1  0
 20 21  2  0
 20 24  1  0
 21 22  1  0
 22 23  2  0
 23 18  1  0
 24 25  1  0
 24 26  1  0
 24 27  1  0
 27 28  1  0
 27 29  1  0
 27 30  1  0
M  END
>  <DRUGBANK_ID>  (1) 
DB12015

>  <COMMON_NAME>  (1) 
Alpelisib

>  <CAS_NUMBER>  (1) 
1217486-61-7

>  <UNII>  (1) 
08W5N2C97Q

>  <SYNONYMS>  (1) 
Alpelisib

$$$$
