
     RDKit          3D

 10 10  0  0  0  0  0  0  0  0999 V2000
    2.3395    0.0025   -0.0446 N   0  0  0  0  0  0  0  0  0  0  0  0
    0.9574   -0.0081    0.0071 C   0  0  0  0  0  0  0  0  0  0  0  0
    0.2380    1.1874   -0.0055 C   0  0  0  0  0  0  0  0  0  0  0  0
   -1.1559    1.1756    0.0041 C   0  0  0  0  0  0  0  0  0  0  0  0
   -1.8397   -0.0415    0.0047 C   0  0  0  0  0  0  0  0  0  0  0  0
   -1.1365   -1.2578   -0.0028 C   0  0  0  0  0  0  0  0  0  0  0  0
    0.2644   -1.2243   -0.0010 C   0  0  0  0  0  0  0  0  0  0  0  0
   -1.9349   -2.5209   -0.0169 C   0  0  0  0  0  0  0  0  0  0  0  0
   -1.2509   -3.6830   -0.0266 O   0  0  0  0  0  0  0  0  0  0  0  0
   -3.1592   -2.5091   -0.0210 O   0  0  0  0  0  0  0  0  0  0  0  0
  1  2  1  0
  2  3  2  0
  2  7  1  0
  3  4  1  0
  4  5  2  0
  5  6  1  0
  6  7  2  0
  6  8  1  0
  8  9  1  0
  8 10  2  0
M  END
>  <DRUGBANK_ID>  (1) 
DB02054

>  <SECONDARY_ACCESSION_NUMBERS>  (1) 
EXPT01542

>  <COMMON_NAME>  (1) 
Gabaculine

>  <CAS_NUMBER>  (1) 
87980-11-8

>  <UNII>  (1) 
G2X3B3O37U

$$$$
