AAF
     RDKit          3D

 29 31  0  0  0  0  0  0  0  0999 V2000
    1.1412    0.0782   -0.0011 C   0  0  0  0  0  0  0  0  0  0  0  0
    0.3110    1.3509    0.1693 C   0  0  2  0  0  0  0  0  0  0  0  0
    0.4680    2.4080   -0.8932 C   0  0  0  0  0  0  0  0  0  0  0  0
   -0.1667    3.6270   -0.2590 C   0  0  0  0  0  0  0  0  0  0  0  0
    0.0571    3.4369    1.2184 C   0  0  2  0  0  0  0  0  0  0  0  0
    1.1105    4.3923    1.7079 C   0  0  0  0  0  0  0  0  0  0  0  0
    0.4874   -0.9591   -0.1661 O   0  0  0  0  0  0  0  0  0  0  0  0
    0.5109    2.0408    1.4452 N   0  0  0  0  0  0  0  0  0  0  0  0
    2.5319    0.0751    0.0228 N   0  0  0  0  0  0  0  0  0  0  0  0
    3.3259   -1.1801   -0.0917 C   0  0  1  0  0  0  0  0  0  0  0  0
    4.5413   -0.8415    0.7586 C   0  0  0  0  0  0  0  0  0  0  0  0
    4.8120    0.6304    0.4825 C   0  0  0  0  0  0  0  0  0  0  0  0
    3.4372    1.2112    0.1707 C   0  0  0  0  0  0  0  0  0  0  0  0
    2.5652   -2.4461    0.3727 C   0  0  0  0  0  0  0  0  0  0  0  0
    0.8093    5.7935    1.8393 N   0  0  0  0  0  0  0  0  0  0  0  0
    0.7848    6.5525    2.9669 C   0  0  0  0  0  0  0  0  0  0  0  0
    0.3738    7.7110    2.8733 O   0  0  0  0  0  0  0  0  0  0  0  0
    3.2358   -3.7331    0.5601 N   0  0  0  0  0  0  0  0  0  0  0  0
    1.1189    6.0463    4.1949 N   0  0  0  0  0  0  0  0  0  0  0  0
    1.8075    4.8658    4.5613 C   0  0  0  0  0  0  0  0  0  0  0  0
    2.9173    4.4198    3.8228 C   0  0  0  0  0  0  0  0  0  0  0  0
    3.3221    3.0741    3.8753 C   0  0  0  0  0  0  0  0  0  0  0  0
    2.7727    2.2150    4.8273 C   0  0  0  0  0  0  0  0  0  0  0  0
    1.7941    2.7251    5.7014 C   0  0  0  0  0  0  0  0  0  0  0  0
    1.2679    4.0225    5.5351 C   0  0  0  0  0  0  0  0  0  0  0  0
    3.1736    0.7744    4.9600 C   0  0  0  0  0  0  0  0  0  0  0  0
    2.7565    0.0608    5.8470 O   0  0  0  0  0  0  0  0  0  0  0  0
    4.0589    0.3876    3.9949 O   0  0  0  0  0  0  0  0  0  0  0  0
    4.5149   -0.9681    4.1583 C   0  0  0  0  0  0  0  0  0  0  0  0
  1  7  2  0
  1  9  1  0
  2  1  1  6
  2  3  1  0
  2  8  1  0
  3  4  1  0
  4  5  1  0
  5  6  1  6
  5  8  1  0
  6 15  1  0
  9 10  1  0
  9 13  1  0
 10 11  1  0
 10 14  1  1
 11 12  1  0
 12 13  1  0
 14 18  1  0
 15 16  1  0
 16 17  2  0
 16 19  1  0
 19 20  1  0
 20 21  2  0
 20 25  1  0
 21 22  1  0
 22 23  2  0
 23 24  1  0
 23 26  1  0
 24 25  2  0
 26 27  2  0
 26 28  1  0
 28 29  1  0
M  END
>  <DRUGBANK_ID>  (1) 
DB07328

>  <COMMON_NAME>  (1) 
METHYL 4-{[({[(2R,5S)-5-{[(2S)-2-(AMINOMETHYL)PYRROLIDIN-1-YL]CARBONYL}PYRROLIDIN-2-YL]METHYL}AMINO)CARBONYL]AMINO}BENZOATE

$$$$
