PST
     RDKit          3D

 21 22  0  0  0  0  0  0  0  0999 V2000
    0.9271   -0.0462    0.0505 P   0  0  0  0  0  0  0  0  0  0  0  0
    0.8989    0.8322   -1.2984 O   0  0  0  0  0  0  0  0  0  0  0  0
    0.7873   -1.6595    0.1452 O   0  0  0  0  0  0  0  0  0  0  0  0
   -0.9703   -0.0462    0.0505 S   0  0  0  0  0  0  0  0  0  0  0  0
    2.6571   -0.0462    0.0505 O   0  0  0  0  0  0  0  0  0  0  0  0
    3.2794    0.3079   -1.2690 C   0  0  0  0  0  0  0  0  0  0  0  0
    2.8406   -0.5480   -2.5766 C   0  0  1  0  0  0  0  0  0  0  0  0
    3.9478   -1.1719   -3.2473 O   0  0  0  0  0  0  0  0  0  0  0  0
    2.0198   -1.7482   -2.2310 C   0  0  1  0  0  0  0  0  0  0  0  0
    0.8289   -2.0765   -2.8773 O   0  0  0  0  0  0  0  0  0  0  0  0
    2.9051   -2.8717   -1.8745 C   0  0  0  0  0  0  0  0  0  0  0  0
    3.8949   -2.5982   -2.9614 C   0  0  2  0  0  0  0  0  0  0  0  0
    5.2072   -3.0496   -2.6157 N   0  0  0  0  0  0  0  0  0  0  0  0
    5.8328   -2.4857   -1.5159 C   0  0  0  0  0  0  0  0  0  0  0  0
    5.3562   -1.6378   -0.7710 O   0  0  0  0  0  0  0  0  0  0  0  0
    7.0801   -2.9470   -1.2494 N   0  0  0  0  0  0  0  0  0  0  0  0
    7.8394   -3.6216   -2.1423 C   0  0  0  0  0  0  0  0  0  0  0  0
    9.0615   -3.7376   -1.9973 O   0  0  0  0  0  0  0  0  0  0  0  0
    7.1293   -4.2212   -3.2921 C   0  0  0  0  0  0  0  0  0  0  0  0
    7.9242   -5.0203   -4.2566 C   0  0  0  0  0  0  0  0  0  0  0  0
    5.8258   -3.9628   -3.4283 C   0  0  0  0  0  0  0  0  0  0  0  0
  1  2  1  0
  1  3  1  0
  1  4  2  0
  1  5  1  0
  5  6  1  0
  7  6  1  1
  7  8  1  0
  7  9  1  0
  8 12  1  0
  9 10  1  6
  9 11  1  0
 11 12  1  0
 12 13  1  1
 13 14  1  0
 13 21  1  0
 14 15  2  0
 14 16  1  0
 16 17  1  0
 17 18  2  0
 17 19  1  0
 19 20  1  0
 19 21  2  0
M  END
>  <DRUGBANK_ID>  (1) 
DB08432

>  <COMMON_NAME>  (1) 
THYMIDINE-5'-THIOPHOSPHATE

$$$$
