
     RDKit          3D

 35 39  0  0  1  0  0  0  0  0999 V2000
    2.1998    0.0708   -0.0147 C   0  0  0  0  0  0  0  0  0  0  0  0
    0.7596    0.0097    0.0037 N   0  0  0  0  0  0  0  0  0  0  0  0
   -0.0763    1.0899    0.0107 C   0  0  0  0  0  0  0  0  0  0  0  0
   -1.3389    0.7373   -0.0212 N   0  0  0  0  0  0  0  0  0  0  0  0
   -1.3170   -0.6229   -0.0523 C   0  0  0  0  0  0  0  0  0  0  0  0
   -0.0215   -1.1183   -0.0192 C   0  0  0  0  0  0  0  0  0  0  0  0
    0.4465   -2.5459    0.0126 C   0  0  1  0  0  0  0  0  0  0  0  0
   -0.0064   -3.1844    1.3273 C   0  0  0  0  0  0  0  0  0  0  0  0
   -1.3775   -3.3148    1.5940 C   0  0  0  0  0  0  0  0  0  0  0  0
   -1.8104   -3.7754    2.8181 C   0  0  0  0  0  0  0  0  0  0  0  0
   -0.9107   -4.2334    3.7619 C   0  0  0  0  0  0  0  0  0  0  0  0
    0.4492   -4.1686    3.5033 C   0  0  0  0  0  0  0  0  0  0  0  0
    0.9002   -3.6289    2.2998 C   0  0  0  0  0  0  0  0  0  0  0  0
   -1.4894   -4.8589    5.2506 Cl  0  0  0  0  0  0  0  0  0  0  0  0
    0.0198   -3.2980   -1.2379 C   0  0  0  0  0  0  0  0  0  0  0  0
    0.3100   -2.8129   -2.5137 C   0  0  0  0  0  0  0  0  0  0  0  0
   -0.0287   -3.5609   -3.6372 C   0  0  0  0  0  0  0  0  0  0  0  0
   -0.6867   -4.7951   -3.5107 C   0  0  0  0  0  0  0  0  0  0  0  0
   -1.0255   -5.2649   -2.2456 C   0  0  0  0  0  0  0  0  0  0  0  0
   -0.6307   -4.5277   -1.1402 C   0  0  0  0  0  0  0  0  0  0  0  0
   -1.7544   -6.5288   -2.0386 C   0  0  0  0  0  0  0  0  0  0  0  0
   -2.0448   -7.2408   -3.1373 C   0  0  0  0  0  0  0  0  0  0  0  0
   -1.6230   -6.8279   -4.5004 C   0  0  0  0  0  0  0  0  0  0  0  0
   -1.8544   -7.5918   -5.4351 O   0  0  0  0  0  0  0  0  0  0  0  0
   -0.9872   -5.6033   -4.6323 N   0  0  0  0  0  0  0  0  0  0  0  0
   -0.5752   -5.1563   -5.9483 C   0  0  0  0  0  0  0  0  0  0  0  0
   -2.1526   -7.0698   -0.7104 C   0  0  0  0  0  0  0  0  0  0  0  0
   -1.6257   -8.2892   -0.2681 C   0  0  0  0  0  0  0  0  0  0  0  0
   -1.8851   -8.7412    1.0266 C   0  0  0  0  0  0  0  0  0  0  0  0
   -2.6555   -7.9720    1.8999 C   0  0  0  0  0  0  0  0  0  0  0  0
   -3.2038   -6.7658    1.4717 C   0  0  0  0  0  0  0  0  0  0  0  0
   -2.9497   -6.3142    0.1718 C   0  0  0  0  0  0  0  0  0  0  0  0
   -4.0077   -5.9907    2.3757 C   0  0  0  0  0  0  0  0  0  0  0  0
   -4.5999   -5.2858    3.1407 C   0  0  0  0  0  0  0  0  0  0  0  0
    1.8757   -2.5716   -0.0340 O   0  0  0  0  0  0  0  0  0  0  0  0
  1  2  1  0
  2  3  1  0
  2  6  1  0
  3  4  2  0
  4  5  1  0
  5  6  2  0
  7  6  1  0
  7  8  1  0
  7 15  1  0
  7 35  1  1
  8  9  2  0
  8 13  1  0
  9 10  1  0
 10 11  2  0
 11 12  1  0
 11 14  1  0
 12 13  2  0
 15 16  2  0
 15 20  1  0
 16 17  1  0
 17 18  2  0
 18 19  1  0
 18 25  1  0
 19 20  2  0
 19 21  1  0
 21 22  2  0
 21 27  1  0
 22 23  1  0
 23 24  2  0
 23 25  1  0
 25 26  1  0
 27 28  2  0
 27 32  1  0
 28 29  1  0
 29 30  2  0
 30 31  1  0
 31 32  2  0
 31 33  1  0
 33 34  3  0
M  END
>  <DRUGBANK_ID>  (1) 
DB12640

>  <COMMON_NAME>  (1) 
CP-609754

>  <CAS_NUMBER>  (1) 
1190094-64-4

>  <UNII>  (1) 
L0S47W9GPY

$$$$
