
     RDKit          3D

 16 16  0  0  1  0  0  0  0  0999 V2000
    0.8057   -2.0841   -4.7583 C   0  0  0  0  0  0  0  0  0  0  0  0
    2.1777   -1.7246   -5.3141 C   0  0  0  0  0  0  0  0  0  0  0  0
    2.8063   -0.7043   -4.5089 O   0  0  0  0  0  0  0  0  0  0  0  0
    2.1882    0.4984   -4.5886 C   0  0  0  0  0  0  0  0  0  0  0  0
    1.1994    0.7256   -5.2947 O   0  0  0  0  0  0  0  0  0  0  0  0
    2.8354    1.6145   -3.7585 C   0  0  2  0  0  0  0  0  0  0  0  0
    2.3452    1.5799   -2.2818 C   0  0  0  0  0  0  0  0  0  0  0  0
    2.6241    2.8274   -1.4396 C   0  0  0  0  0  0  0  0  0  0  0  0
    3.0089    2.7167   -0.0956 C   0  0  0  0  0  0  0  0  0  0  0  0
    3.2598    3.8665    0.6734 C   0  0  0  0  0  0  0  0  0  0  0  0
    3.1312    5.1294    0.1085 C   0  0  0  0  0  0  0  0  0  0  0  0
    2.7361    5.2629   -1.2057 C   0  0  0  0  0  0  0  0  0  0  0  0
    2.4485    4.1302   -1.9469 C   0  0  0  0  0  0  0  0  0  0  0  0
    2.6267    6.5097   -1.7575 O   0  0  0  0  0  0  0  0  0  0  0  0
    3.3766    6.2425    0.8566 O   0  0  0  0  0  0  0  0  0  0  0  0
    2.4225    2.8678   -4.4492 N   0  0  0  0  0  0  0  0  0  0  0  0
  1  2  1  0
  2  3  1  0
  3  4  1  0
  4  5  2  0
  6 16  1  6
  6  7  1  0
  6  4  1  0
  7  8  1  0
  8  9  2  0
  8 13  1  0
  9 10  1  0
 10 11  2  0
 11 12  1  0
 11 15  1  0
 12 13  2  0
 12 14  1  0
M  END
>  <DRUGBANK_ID>  (1) 
DB06535

>  <COMMON_NAME>  (1) 
Etilevodopa

>  <CAS_NUMBER>  (1) 
37178-37-3

>  <UNII>  (1) 
895X917GYE

>  <SYNONYMS>  (1) 
Etilevodopa

$$$$
