OAC
     RDKit          3D

 13 13  0  0  0  0  0  0  0  0999 V2000
    0.7835   -0.3469    0.0280 O   0  0  0  0  0  0  0  0  0  0  0  0
    1.9879   -0.0645   -0.0549 C   0  0  0  0  0  0  0  0  0  0  0  0
    3.0476   -1.0541    0.5376 C   0  0  1  0  0  0  0  0  0  0  0  0
    3.9776   -1.8190   -0.4591 C   0  0  0  0  0  0  0  0  0  0  0  0
    3.8321   -0.6203    1.7982 C   0  0  0  0  0  0  0  0  0  0  0  0
    5.0811   -0.9711   -1.0579 C   0  0  0  0  0  0  0  0  0  0  0  0
    4.9992    0.4068   -0.8740 C   0  0  0  0  0  0  0  0  0  0  0  0
    5.7220    1.3693   -1.5360 C   0  0  0  0  0  0  0  0  0  0  0  0
    6.8020    0.9399   -2.2520 C   0  0  0  0  0  0  0  0  0  0  0  0
    7.0718   -0.4342   -2.3175 C   0  0  0  0  0  0  0  0  0  0  0  0
    6.1943   -1.3890   -1.7672 C   0  0  0  0  0  0  0  0  0  0  0  0
    6.5446   -2.6979   -1.9116 O   0  0  0  0  0  0  0  0  0  0  0  0
    2.2624    1.1054   -0.6454 O   0  0  0  0  0  0  0  0  0  0  0  0
  1  2  2  0
  2  3  1  0
  2 13  1  0
  3  4  1  0
  3  5  1  1
  4  6  1  0
  6  7  2  0
  6 11  1  0
  7  8  1  0
  8  9  2  0
  9 10  1  0
 10 11  2  0
 11 12  1  0
M  END
>  <DRUGBANK_ID>  (1) 
DB01662

>  <SECONDARY_ACCESSION_NUMBERS>  (1) 
EXPT02407

>  <COMMON_NAME>  (1) 
Trans-O-Hydroxy-Alpha-Methyl Cinnamate

$$$$
