
     RDKit          3D

 28 30  0  0  0  0  0  0  0  0999 V2000
    1.3790   -0.2358   -0.0315 C   0  0  0  0  0  0  0  0  0  0  0  0
    0.5047   -1.3197   -0.0139 C   0  0  0  0  0  0  0  0  0  0  0  0
   -0.8733   -1.1088   -0.0429 C   0  0  0  0  0  0  0  0  0  0  0  0
   -1.3808    0.1870   -0.0350 C   0  0  0  0  0  0  0  0  0  0  0  0
   -0.5086    1.2769    0.0223 C   0  0  0  0  0  0  0  0  0  0  0  0
    0.8732    1.0605   -0.0648 C   0  0  0  0  0  0  0  0  0  0  0  0
   -1.0450    2.6451    0.3422 C   0  0  0  0  0  0  0  0  0  0  0  0
   -0.5322    3.1005    1.6929 C   0  0  0  0  0  0  0  0  0  0  0  0
    0.2159    4.2457    1.6677 N   0  0  0  0  0  0  0  0  0  0  0  0
   -0.7295    2.4953    2.7447 O   0  0  0  0  0  0  0  0  0  0  0  0
    0.8626    4.6969    2.9080 C   0  0  1  0  0  0  0  0  0  0  0  0
    2.0359    3.8621    3.4705 C   0  0  2  0  0  0  0  0  0  0  0  0
    1.9150    5.7713    2.6903 C   0  0  0  0  0  0  0  0  0  0  0  0
    2.8437    5.0880    3.4085 N   0  0  0  0  0  0  0  0  0  0  0  0
    2.0040    6.7569    1.9840 O   0  0  0  0  0  0  0  0  0  0  0  0
    2.9788    2.7257    2.4088 S   0  0  0  0  0  0  0  0  0  0  0  0
    4.2283    5.0452    2.9789 C   0  0  2  0  0  0  0  0  0  0  0  0
    4.5869    3.5508    2.8453 C   0  0  0  0  0  0  0  0  0  0  0  0
    5.2567    5.8015    3.8347 C   0  0  0  0  0  0  0  0  0  0  0  0
    4.9628    6.2172    5.0843 O   0  0  0  0  0  0  0  0  0  0  0  0
    6.4089    5.9371    3.4160 O   0  0  0  0  0  0  0  0  0  0  0  0
    3.6739    6.1713    5.7212 C   0  0  0  0  0  0  0  0  0  0  0  0
    2.6447    6.9628    5.1012 O   0  0  0  0  0  0  0  0  0  0  0  0
    2.9360    8.2715    4.8991 C   0  0  0  0  0  0  0  0  0  0  0  0
    3.9214    8.8350    5.3506 O   0  0  0  0  0  0  0  0  0  0  0  0
    1.9056    8.9604    4.0424 C   0  0  0  0  0  0  0  0  0  0  0  0
    5.5590    3.2608    1.7047 C   0  0  0  0  0  0  0  0  0  0  0  0
    5.0892    2.9428    4.1617 C   0  0  0  0  0  0  0  0  0  0  0  0
  1  2  2  0
  2  3  1  0
  3  4  2  0
  4  5  1  0
  5  6  2  0
  5  7  1  0
  6  1  1  0
  7  8  1  0
  8  9  1  0
  8 10  2  0
 11  9  1  6
 11 12  1  0
 11 13  1  0
 12 16  1  6
 13 14  1  0
 13 15  2  0
 14 12  1  0
 14 17  1  0
 16 18  1  0
 17 18  1  0
 17 19  1  1
 19 20  1  0
 19 21  2  0
 20 22  1  0
 22 23  1  0
 23 24  1  0
 24 25  2  0
 24 26  1  0
 27 18  1  0
 28 18  1  0
M  END
>  <DRUGBANK_ID>  (1) 
DB13739

>  <COMMON_NAME>  (1) 
Penamecillin

>  <CAS_NUMBER>  (1) 
983-85-7

>  <UNII>  (1) 
H0P1YE5581

>  <SYNONYMS>  (1) 
Acetoxymethyl benzylpenicillanate; Benzylpenicillin acetoxymethyl ester; Penamecilina; Penamecillin; Pénamécilline; Penamecillinum

$$$$
