41A
     RDKit          3D

 18 20  0  0  0  0  0  0  0  0999 V2000
    1.0885   -0.0167    0.0526 C   0  0  0  0  0  0  0  0  0  0  0  0
    0.5395    0.2059    1.4814 C   0  0  0  0  0  0  0  0  0  0  0  0
    1.3838   -0.6859    2.4265 C   0  0  0  0  0  0  0  0  0  0  0  0
    0.5381    1.7809    1.8244 C   0  0  0  0  0  0  0  0  0  0  0  0
   -0.6600    2.5145    1.1064 C   0  0  0  0  0  0  0  0  0  0  0  0
   -1.6785    1.7636    0.5637 C   0  0  0  0  0  0  0  0  0  0  0  0
   -1.7851    0.3421    0.5764 C   0  0  0  0  0  0  0  0  0  0  0  0
   -0.9051   -0.3354    1.5833 C   0  0  0  0  0  0  0  0  0  0  0  0
   -2.5351   -0.3120   -0.1615 O   0  0  0  0  0  0  0  0  0  0  0  0
   -2.8531    2.6816   -0.2003 S   0  0  0  0  0  0  0  0  0  0  0  0
   -2.0566    4.1495    0.2480 C   0  0  0  0  0  0  0  0  0  0  0  0
   -2.7237    5.3283   -0.0641 N   0  0  0  0  0  0  0  0  0  0  0  0
   -4.1898    5.4688    0.1944 C   0  0  0  0  0  0  0  0  0  0  0  0
   -5.0511    5.6552   -1.0761 C   0  0  0  0  0  0  0  0  0  0  0  0
   -4.5534    6.7263   -1.8833 O   0  0  0  0  0  0  0  0  0  0  0  0
   -3.2145    6.4175   -2.2967 C   0  0  0  0  0  0  0  0  0  0  0  0
   -2.2423    6.2775   -1.0884 C   0  0  0  0  0  0  0  0  0  0  0  0
   -0.8842    3.9238    0.8833 N   0  0  0  0  0  0  0  0  0  0  0  0
  1  2  1  0
  2  3  1  0
  2  4  1  0
  2  8  1  0
  4  5  1  0
  5  6  2  0
  5 18  1  0
  6  7  1  0
  6 10  1  0
  7  8  1  0
  7  9  2  0
 10 11  1  0
 11 12  1  0
 11 18  2  0
 12 13  1  0
 12 17  1  0
 13 14  1  0
 14 15  1  0
 15 16  1  0
 16 17  1  0
M  END
>  <DRUGBANK_ID>  (1) 
DB07073

>  <COMMON_NAME>  (1) 
5,5-dimethyl-2-morpholin-4-yl-5,6-dihydro-1,3-benzothiazol-7(4H)-one

>  <UNII>  (1) 
QDN0FW2IO9

$$$$
