
     RDKit          3D

 35 38  0  0  1  0  0  0  0  0999 V2000
    3.9143   -0.2435   -0.1228 C   0  0  0  0  0  0  0  0  0  0  0  0
    3.7335   -1.6399   -0.6665 C   0  0  0  0  0  0  0  0  0  0  0  0
    2.2326   -1.7411   -0.3926 C   0  0  0  0  0  0  0  0  0  0  0  0
    4.2215   -1.9842   -2.0786 N   0  0  0  0  0  0  0  0  0  0  0  0
    4.7400   -1.0110   -2.9925 C   0  0  0  0  0  0  0  0  0  0  0  0
    5.1457    0.2544   -2.5907 C   0  0  0  0  0  0  0  0  0  0  0  0
    6.1689    0.9091   -3.2285 C   0  0  0  0  0  0  0  0  0  0  0  0
    6.3942    0.6010   -4.5446 C   0  0  0  0  0  0  0  0  0  0  0  0
    5.7884   -0.5192   -5.1072 C   0  0  0  0  0  0  0  0  0  0  0  0
    5.1054   -1.4144   -4.2863 C   0  0  0  0  0  0  0  0  0  0  0  0
    4.8240   -2.7639   -4.7737 C   0  0  0  0  0  0  0  0  0  0  0  0
    4.6327   -3.7582   -3.8893 C   0  0  0  0  0  0  0  0  0  0  0  0
    4.6787   -3.3366   -2.3856 C   0  0  0  0  0  0  0  0  0  0  0  0
    4.8778   -4.1704   -1.5107 O   0  0  0  0  0  0  0  0  0  0  0  0
    4.0228   -5.0717   -4.4795 C   0  0  0  0  0  0  0  0  0  0  0  0
    4.1589   -5.3369   -5.6810 O   0  0  0  0  0  0  0  0  0  0  0  0
    3.1440   -5.8957   -3.8041 N   0  0  0  0  0  0  0  0  0  0  0  0
    2.4464   -5.6221   -2.5715 C   0  0  1  0  0  0  0  0  0  0  0  0
    2.2041   -4.1280   -2.4710 C   0  0  0  0  0  0  0  0  0  0  0  0
    0.9672   -3.4404   -2.8967 C   0  0  1  0  0  0  0  0  0  0  0  0
    0.7703   -3.7871   -4.3557 C   0  0  0  0  0  0  0  0  0  0  0  0
    0.0520   -5.1245   -4.2579 C   0  0  0  0  0  0  0  0  0  0  0  0
   -0.0852   -5.4393   -2.7429 C   0  0  1  0  0  0  0  0  0  0  0  0
    1.1096   -6.3645   -2.3788 C   0  0  0  0  0  0  0  0  0  0  0  0
   -0.0672   -4.0828   -2.1646 N   0  0  0  0  0  0  0  0  0  0  0  0
    0.0810   -3.9383   -0.7084 C   0  0  0  0  0  0  0  0  0  0  0  0
    0.8960   -4.9749    0.1979 C   0  0  2  0  0  0  0  0  0  0  0  0
    0.8479   -4.7586    1.6753 C   0  0  0  0  0  0  0  0  0  0  0  0
   -0.3381   -5.4518    2.2499 N   0  0  0  0  0  0  0  0  0  0  0  0
   -0.1648   -5.3851    3.6970 C   0  0  0  0  0  0  0  0  0  0  0  0
   -1.8034   -4.9181    1.5911 S   0  0  0  0  0  0  0  0  0  0  0  0
   -1.8673   -3.5119    1.8364 O   0  0  0  0  0  0  0  0  0  0  0  0
   -1.9442   -5.4954    0.2466 O   0  0  0  0  0  0  0  0  0  0  0  0
   -3.0920   -5.7362    2.4161 C   0  0  0  0  0  0  0  0  0  0  0  0
    2.2867   -5.2498   -0.0053 O   0  0  0  0  0  0  0  0  0  0  0  0
  1  2  1  0
  2  3  1  0
  2  4  1  0
  4  5  1  0
  4 13  1  0
  5  6  2  0
  5 10  1  0
  6  7  1  0
  7  8  2  0
  8  9  1  0
  9 10  2  0
 10 11  1  0
 11 12  2  0
 12 13  1  0
 12 15  1  0
 13 14  2  0
 15 16  2  0
 15 17  1  0
 18 17  1  6
 18 19  1  0
 18 24  1  0
 20 19  1  1
 20 21  1  0
 20 25  1  0
 21 22  1  0
 23 22  1  6
 23 24  1  0
 23 25  1  0
 25 26  1  0
 27 35  1  6
 27 28  1  0
 27 26  1  0
 28 29  1  0
 29 30  1  0
 29 31  1  0
 31 32  2  0
 31 33  2  0
 31 34  1  0
M  END
>  <DRUGBANK_ID>  (1) 
DB12702

>  <SECONDARY_ACCESSION_NUMBERS>  (1) 
DB05655

>  <COMMON_NAME>  (1) 
Velusetrag

>  <CAS_NUMBER>  (1) 
866933-46-2

>  <UNII>  (1) 
J4VNV64ARB

>  <SYNONYMS>  (1) 
Velusetrag

$$$$
