
     RDKit          3D

 35 37  0  0  0  0  0  0  0  0999 V2000
    1.1052   -1.2627   -0.2854 C   0  0  0  0  0  0  0  0  0  0  0  0
    0.4047   -1.0020    1.2359 C   0  0  0  0  0  0  0  0  0  0  0  0
    0.0200    0.5217    2.2893 C   0  0  0  0  0  0  0  0  0  0  0  0
   -0.0865    2.0672    2.2970 C   0  0  0  0  0  0  0  0  0  0  0  0
   -1.4324    2.3018    2.2356 C   0  0  0  0  0  0  0  0  0  0  0  0
   -2.4021    1.2739    2.2757 O   0  0  0  0  0  0  0  0  0  0  0  0
   -2.3172   -0.2158    2.1652 C   0  0  0  0  0  0  0  0  0  0  0  0
   -1.6893    3.6516    1.9731 C   0  0  0  0  0  0  0  0  0  0  0  0
   -0.6526    4.6860    1.9069 C   0  0  0  0  0  0  0  0  0  0  0  0
    0.6865    4.4686    2.2330 C   0  0  0  0  0  0  0  0  0  0  0  0
    1.0553    3.1568    2.4537 C   0  0  0  0  0  0  0  0  0  0  0  0
    2.4006    3.1569    2.9229 O   0  0  0  0  0  0  0  0  0  0  0  0
    3.4446    2.1481    2.9916 C   0  0  0  0  0  0  0  0  0  0  0  0
    3.3000    1.0229    4.0165 C   0  0  0  0  0  0  0  0  0  0  0  0
    1.9669    0.5057    3.8293 C   0  0  0  0  0  0  0  0  0  0  0  0
    2.1776   -0.0154    2.2138 O   0  0  0  0  0  0  0  0  0  0  0  0
    1.9300    0.8915    0.8047 C   0  0  0  0  0  0  0  0  0  0  0  0
    3.2126    0.7784    0.3757 C   0  0  0  0  0  0  0  0  0  0  0  0
    3.4679    1.5505   -0.6936 C   0  0  0  0  0  0  0  0  0  0  0  0
    2.4656    1.9093   -1.6224 C   0  0  0  0  0  0  0  0  0  0  0  0
    2.8535    2.4854   -2.9118 C   0  0  0  0  0  0  0  0  0  0  0  0
    2.6354    1.3668   -3.9003 C   0  0  0  0  0  0  0  0  0  0  0  0
    1.2795    0.6534   -3.7311 C   0  0  0  0  0  0  0  0  0  0  0  0
    0.4450    1.3079   -2.7601 O   0  0  0  0  0  0  0  0  0  0  0  0
    1.1299    1.5784   -1.5477 C   0  0  0  0  0  0  0  0  0  0  0  0
    0.6808    1.2569   -0.2752 C   0  0  0  0  0  0  0  0  0  0  0  0
   -0.8852    0.9019   -0.4337 C   0  0  0  0  0  0  0  0  0  0  0  0
   -1.9095    1.9998   -0.7391 C   0  0  0  0  0  0  0  0  0  0  0  0
   -1.8056    2.5835   -2.0933 C   0  0  0  0  0  0  0  0  0  0  0  0
    0.9582    0.0041   -5.1585 C   0  0  0  0  0  0  0  0  0  0  0  0
    0.4530   -1.2706   -5.0451 O   0  0  0  0  0  0  0  0  0  0  0  0
    1.2766    0.4382   -6.2278 O   0  0  0  0  0  0  0  0  0  0  0  0
   -3.0783    3.9066    1.5026 C   0  0  0  0  0  0  0  0  0  0  0  0
   -3.4737    5.2881    1.1281 C   0  0  0  0  0  0  0  0  0  0  0  0
   -3.8951    3.0230    1.3747 O   0  0  0  0  0  0  0  0  0  0  0  0
  1  2  1  0
  2  3  1  0
  3  4  1  0
  4  5  2  0
  4 11  1  0
  5  6  1  0
  5  8  1  0
  6  7  1  0
  8  9  2  0
  8 33  1  0
  9 10  1  0
 10 11  2  0
 11 12  1  0
 12 13  1  0
 13 14  1  0
 14 15  1  0
 15 16  1  0
 16 17  1  0
 17 18  2  0
 17 26  1  0
 18 19  1  0
 19 20  2  0
 20 21  1  0
 20 25  1  0
 21 22  1  0
 22 23  1  0
 23 24  1  0
 23 30  1  0
 24 25  1  0
 25 26  2  0
 26 27  1  0
 27 28  1  0
 28 29  1  0
 30 31  1  0
 30 32  2  0
 33 34  1  0
 33 35  2  0
M  END
>  <DRUGBANK_ID>  (1) 
DB17101

>  <COMMON_NAME>  (1) 
SC 41930

>  <CAS_NUMBER>  (1) 
120072-59-5

>  <UNII>  (1) 
EVH7O0422T

>  <SYNONYMS>  (1) 
(+/-)-7-(3-(4-acetyl-3-methoxy-2-propylphenoxy)propoxy)-3,4-dihydro-8-propyl-2h-1-benzopyran-2-carboxylic acid; 2h-1-benzopyran-2-carboxylic acid, 7-(3-(4-acetyl-3-methoxy-2-propylphenoxy)propoxy)-3,4-dihydro-8-propyl-; 7-(3-(4-acetyl-3-methoxy-2-propyl-phenoxy)propoxyl-3,4-dihydro-8-propyl-2h-1-benzopyran-2-carboxylic acid

$$$$
