
     RDKit          3D

 26 27  0  0  0  0  0  0  0  0999 V2000
    0.9990   -0.1739   -0.0461 O   0  0  0  0  0  0  0  0  0  0  0  0
   -1.2788    0.6118    1.6520 O   0  0  0  0  0  0  0  0  0  0  0  0
    0.2001    5.1344   -2.6487 O   0  0  0  0  0  0  0  0  0  0  0  0
    2.5653   -0.9908   -7.4475 O   0  0  0  0  0  0  0  0  0  0  0  0
    1.8529    3.7154   -3.1886 N   0  0  0  0  0  0  0  0  0  0  0  0
    4.8775    1.2347   -7.6062 N   0  0  0  0  0  0  0  0  0  0  0  0
    0.1413    3.1008   -1.4312 C   0  0  0  0  0  0  0  0  0  0  0  0
    0.3352    1.0198   -0.1491 C   0  0  0  0  0  0  0  0  0  0  0  0
   -0.7148    1.3943    0.6758 C   0  0  0  0  0  0  0  0  0  0  0  0
    0.6099    1.8058   -1.2516 C   0  0  0  0  0  0  0  0  0  0  0  0
    0.7227    4.0190   -2.4632 C   0  0  0  0  0  0  0  0  0  0  0  0
   -0.8946    3.5015   -0.5884 C   0  0  0  0  0  0  0  0  0  0  0  0
   -1.3197    2.6504    0.4564 C   0  0  0  0  0  0  0  0  0  0  0  0
    2.5895    1.5188   -4.1513 C   0  0  0  0  0  0  0  0  0  0  0  0
    2.7661    2.5936   -3.0990 C   0  0  0  0  0  0  0  0  0  0  0  0
    2.5498   -0.5145   -6.1406 C   0  0  0  0  0  0  0  0  0  0  0  0
    3.7332    0.7724   -4.4658 C   0  0  0  0  0  0  0  0  0  0  0  0
    1.3839    1.1668   -4.7889 C   0  0  0  0  0  0  0  0  0  0  0  0
    3.7121   -0.2650   -5.4096 C   0  0  0  0  0  0  0  0  0  0  0  0
    1.3550    0.1317   -5.7552 C   0  0  0  0  0  0  0  0  0  0  0  0
    2.4263   -0.0695   -0.0074 C   0  0  0  0  0  0  0  0  0  0  0  0
   -0.7794   -0.7260    1.7401 C   0  0  0  0  0  0  0  0  0  0  0  0
    3.8278   -1.0703   -8.1681 C   0  0  0  0  0  0  0  0  0  0  0  0
    4.5850    0.2427   -8.6509 C   0  0  0  0  0  0  0  0  0  0  0  0
    5.8796    2.2463   -7.8915 C   0  0  0  0  0  0  0  0  0  0  0  0
    3.6671    1.9910   -7.2970 C   0  0  0  0  0  0  0  0  0  0  0  0
  1  8  1  0
  1 21  1  0
  2  9  1  0
  2 22  1  0
  3 11  2  0
  4 16  1  0
  4 23  1  0
  5 11  1  0
  5 15  1  0
  6 24  1  0
  6 25  1  0
  6 26  1  0
  7 10  2  0
  7 11  1  0
  7 12  1  0
  8  9  2  0
  8 10  1  0
  9 13  1  0
 12 13  2  0
 14 15  1  0
 14 17  2  0
 14 18  1  0
 16 19  2  0
 16 20  1  0
 17 19  1  0
 18 20  2  0
 23 24  1  0
M  END
>  <DRUGBANK_ID>  (1) 
DB04924

>  <COMMON_NAME>  (1) 
Itopride

>  <CAS_NUMBER>  (1) 
122898-67-3

>  <UNII>  (1) 
81BMQ80QRL

>  <SYNONYMS>  (1) 
Itopride; N-(p-(2-(Dimethylamino)ethoxy)benzyl)veratramide

$$$$
