
     RDKit          3D

 35 38  0  0  0  0  0  0  0  0999 V2000
    1.3425   -0.0521   -1.0001 C   0  0  0  0  0  0  0  0  0  0  0  0
    0.6840   -1.3069   -1.5318 C   0  0  0  0  0  0  0  0  0  0  0  0
    0.8433   -2.6813   -0.7536 C   0  0  0  0  0  0  0  0  0  0  0  0
    0.0642   -3.2054    0.5404 C   0  0  0  0  0  0  0  0  0  0  0  0
   -1.3389   -3.0009    0.9185 N   0  0  0  0  0  0  0  0  0  0  0  0
   -1.6267   -3.0844    2.4360 C   0  0  0  0  0  0  0  0  0  0  0  0
   -1.2861   -1.9964    3.6183 C   0  0  0  0  0  0  0  0  0  0  0  0
   -1.9163   -0.5298    3.6780 C   0  0  0  0  0  0  0  0  0  0  0  0
   -3.3676   -0.5342    3.2700 C   0  0  0  0  0  0  0  0  0  0  0  0
   -1.6413   -1.6704    0.4374 C   0  0  0  0  0  0  0  0  0  0  0  0
   -0.7145   -0.5165    1.0350 C   0  0  0  0  0  0  0  0  0  0  0  0
    0.7312   -0.3024    1.9290 C   0  0  0  0  0  0  0  0  0  0  0  0
    1.3563    0.9529    1.9239 C   0  0  0  0  0  0  0  0  0  0  0  0
    0.8740    2.3328    1.7461 C   0  0  0  0  0  0  0  0  0  0  0  0
    1.9843    3.1982    1.5948 C   0  0  0  0  0  0  0  0  0  0  0  0
    1.8047    4.5699    1.4782 C   0  0  0  0  0  0  0  0  0  0  0  0
    0.4990    5.0819    1.4661 C   0  0  0  0  0  0  0  0  0  0  0  0
   -0.6071    4.2423    1.5547 C   0  0  0  0  0  0  0  0  0  0  0  0
   -0.4134    2.8766    1.7482 C   0  0  0  0  0  0  0  0  0  0  0  0
    0.2379    6.7823    1.4194 Cl  0  0  0  0  0  0  0  0  0  0  0  0
    3.2218    2.3480    1.6172 C   0  0  0  0  0  0  0  0  0  0  0  0
    4.4817    2.7366    1.4271 C   0  0  0  0  0  0  0  0  0  0  0  0
    5.6756    1.8409    1.3435 C   0  0  0  0  0  0  0  0  0  0  0  0
    5.8181    0.9184    0.2815 C   0  0  0  0  0  0  0  0  0  0  0  0
    6.6802   -0.1888    0.4153 C   0  0  0  0  0  0  0  0  0  0  0  0
    7.5278   -0.2741    1.5159 C   0  0  0  0  0  0  0  0  0  0  0  0
    7.5193    0.7308    2.4821 C   0  0  0  0  0  0  0  0  0  0  0  0
    6.5538    1.7488    2.4289 C   0  0  0  0  0  0  0  0  0  0  0  0
    8.5300   -1.6582    1.7264 Cl  0  0  0  0  0  0  0  0  0  0  0  0
    2.7771    0.9463    1.8552 C   0  0  0  0  0  0  0  0  0  0  0  0
    3.5464   -0.2137    1.8361 C   0  0  0  0  0  0  0  0  0  0  0  0
    2.9543   -1.4246    2.0059 C   0  0  0  0  0  0  0  0  0  0  0  0
    1.6171   -1.4046    2.2828 C   0  0  0  0  0  0  0  0  0  0  0  0
    3.8355   -2.8827    1.7381 Cl  0  0  0  0  0  0  0  0  0  0  0  0
   -1.4267    0.6568    0.6788 O   0  0  0  0  0  0  0  0  0  0  0  0
  1  2  1  0
  2  3  1  0
  3  4  1  0
  4  5  1  0
  5  6  1  0
  5 10  1  0
  6  7  1  0
  7  8  1  0
  8  9  1  0
 10 11  1  0
 11 12  1  0
 11 35  1  0
 12 13  2  0
 12 33  1  0
 13 14  1  0
 13 30  1  0
 14 15  2  0
 14 19  1  0
 15 16  1  0
 15 21  1  0
 16 17  2  0
 17 18  1  0
 17 20  1  0
 18 19  2  0
 21 22  2  0
 21 30  1  0
 22 23  1  0
 23 24  2  0
 23 28  1  0
 24 25  1  0
 25 26  2  0
 26 27  1  0
 26 29  1  0
 27 28  2  0
 30 31  2  0
 31 32  1  0
 32 33  2  0
 32 34  1  0
M  END
>  <DRUGBANK_ID>  (1) 
DB06708

>  <COMMON_NAME>  (1) 
Lumefantrine

>  <CAS_NUMBER>  (1) 
82186-77-4

>  <UNII>  (1) 
F38R0JR742

>  <SYNONYMS>  (1) 
(±)-2,7-Dichloro-9-((Z)-p-chlorobenzylidene)-α-((dibutylamino)methyl)fluorene-4-methanol; 2-Dibutylamino-1-[2,7-dichloro-9-(4-chloro-benzylidene)-9H-fluoren-4-yl]-ethanol; 2-Dibutylamino-1-{2,7-dichloro-9-[1-(4-chloro-phenyl)-meth-(Z)-ylidene]-9H-fluoren-4-yl}-ethanol; Benflumetol; dl-Benflumelol; Lumefantrine

$$$$
