
     RDKit          3D

 41 45  0  0  0  0  0  0  0  0999 V2000
   -5.8755   -8.8301    4.9410 C   0  0  0  0  0  0  0  0  0  0  0  0
   -5.1128   -8.6169    6.0946 C   0  0  0  0  0  0  0  0  0  0  0  0
   -6.8594   -9.7794    4.8456 O   0  0  0  0  0  0  0  0  0  0  0  0
   -5.6684   -8.0175    3.8312 C   0  0  0  0  0  0  0  0  0  0  0  0
   -5.3202   -9.4513    7.2678 C   0  0  0  0  0  0  0  0  0  0  0  0
   -4.1657   -7.6114    6.1605 C   0  0  0  0  0  0  0  0  0  0  0  0
   -6.6939  -10.8744    5.7607 C   0  0  1  0  0  0  0  0  0  0  0  0
   -4.6660   -7.0474    3.8871 C   0  0  0  0  0  0  0  0  0  0  0  0
   -6.4517  -10.4004    7.1896 C   0  0  0  0  0  0  0  0  0  0  0  0
   -4.6497   -9.2926    8.2741 O   0  0  0  0  0  0  0  0  0  0  0  0
   -3.9205   -6.8653    5.0451 C   0  0  0  0  0  0  0  0  0  0  0  0
   -3.4308   -7.2807    7.2599 O   0  0  0  0  0  0  0  0  0  0  0  0
   -7.9262  -11.7720    5.6932 C   0  0  0  0  0  0  0  0  0  0  0  0
   -4.4566   -6.3218    2.7624 O   0  0  0  0  0  0  0  0  0  0  0  0
   -8.3356  -12.3277    4.4710 C   0  0  0  0  0  0  0  0  0  0  0  0
   -8.6322  -12.1391    6.8552 C   0  0  0  0  0  0  0  0  0  0  0  0
   -3.5472   -5.2279    2.8446 C   0  0  1  0  0  0  0  0  0  0  0  0
   -9.3622  -13.2807    4.4326 C   0  0  0  0  0  0  0  0  0  0  0  0
   -9.6473  -13.0845    6.8192 C   0  0  0  0  0  0  0  0  0  0  0  0
   -4.0198   -4.0529    3.7598 C   0  0  2  0  0  0  0  0  0  0  0  0
   -2.2258   -5.6397    3.1179 O   0  0  0  0  0  0  0  0  0  0  0  0
   -9.9893  -13.6675    5.6141 C   0  0  0  0  0  0  0  0  0  0  0  0
   -5.3630   -3.6123    3.5377 O   0  0  0  0  0  0  0  0  0  0  0  0
   -2.9999   -2.9114    3.7408 C   0  0  2  0  0  0  0  0  0  0  0  0
   -1.2995   -4.5911    2.8651 C   0  0  1  0  0  0  0  0  0  0  0  0
  -10.9494  -14.6323    5.6531 O   0  0  0  0  0  0  0  0  0  0  0  0
   -5.6373   -2.8307    2.3827 C   0  0  1  0  0  0  0  0  0  0  0  0
   -1.5580   -3.4176    3.8179 C   0  0  1  0  0  0  0  0  0  0  0  0
   -3.2619   -2.0024    4.8217 O   0  0  0  0  0  0  0  0  0  0  0  0
    0.0737   -5.2192    3.0611 C   0  0  0  0  0  0  0  0  0  0  0  0
   -5.4735   -3.6047    1.0636 C   0  0  1  0  0  0  0  0  0  0  0  0
   -6.9898   -2.3716    2.4580 O   0  0  0  0  0  0  0  0  0  0  0  0
   -0.6503   -2.3581    3.5167 O   0  0  0  0  0  0  0  0  0  0  0  0
    0.2832   -5.5667    4.4282 O   0  0  0  0  0  0  0  0  0  0  0  0
   -6.4232   -4.8092    1.0826 C   0  0  1  0  0  0  0  0  0  0  0  0
   -5.6631   -2.8056   -0.1093 O   0  0  0  0  0  0  0  0  0  0  0  0
   -7.9309   -3.4479    2.5308 C   0  0  2  0  0  0  0  0  0  0  0  0
   -7.8620   -4.3354    1.2734 C   0  0  2  0  0  0  0  0  0  0  0  0
   -6.2449   -5.5918   -0.0952 O   0  0  0  0  0  0  0  0  0  0  0  0
   -9.2968   -2.8097    2.6733 C   0  0  0  0  0  0  0  0  0  0  0  0
   -8.7553   -5.4429    1.3841 O   0  0  0  0  0  0  0  0  0  0  0  0
  1  2  2  0
  1  3  1  0
  1  4  1  0
  2  5  1  0
  2  6  1  0
  3  7  1  0
  4  8  2  0
  5  9  1  0
  5 10  2  0
  6 11  2  0
  6 12  1  0
  7  9  1  0
  7 13  1  1
  8 14  1  0
  8 11  1  0
 13 15  2  0
 13 16  1  0
 15 18  1  0
 16 19  2  0
 17 14  1  1
 17 20  1  0
 17 21  1  0
 18 22  2  0
 19 22  1  0
 20 23  1  6
 20 24  1  0
 21 25  1  0
 22 26  1  0
 24 28  1  0
 24 29  1  1
 25 28  1  0
 25 30  1  1
 27 31  1  0
 27 32  1  0
 27 23  1  1
 28 33  1  6
 30 34  1  0
 31 35  1  0
 31 36  1  6
 32 37  1  0
 35 38  1  0
 35 39  1  6
 37 40  1  6
 37 38  1  0
 38 41  1  1
M  END
>  <DRUGBANK_ID>  (1) 
DB16859

>  <COMMON_NAME>  (1) 
Naringin

>  <CAS_NUMBER>  (1) 
10236-47-2

>  <UNII>  (1) 
N7TD9J649B

>  <SYNONYMS>  (1) 
Aurantiin; Naringoside

$$$$
