KCP
     RDKit          3D

 23 24  0  0  0  0  0  0  0  0999 V2000
    0.3346    1.6465   -0.6540 S   0  0  0  0  0  0  0  0  0  0  0  0
   -1.2035    1.0715   -0.0179 C   0  0  0  0  0  0  0  0  0  0  0  0
   -1.4896   -0.4077   -0.0109 C   0  0  0  0  0  0  0  0  0  0  0  0
   -2.9779   -0.5376    0.0306 C   0  0  0  0  0  0  0  0  0  0  0  0
   -0.5307   -1.3591   -0.0341 C   0  0  0  0  0  0  0  0  0  0  0  0
   -0.7066   -2.8883   -0.0202 C   0  0  0  0  0  0  0  0  0  0  0  0
   -1.9118   -3.4767   -0.0135 O   0  0  0  0  0  0  0  0  0  0  0  0
    0.2924   -3.6096   -0.0136 O   0  0  0  0  0  0  0  0  0  0  0  0
    0.8150   -0.9620   -0.0767 N   0  0  0  0  0  0  0  0  0  0  0  0
    1.4175    0.3696   -0.0210 C   0  0  2  0  0  0  0  0  0  0  0  0
    2.1369    0.6902    1.3268 C   0  0  1  0  0  0  0  0  0  0  0  0
    2.0385    2.1349    1.8157 C   0  0  0  0  0  0  0  0  0  0  0  0
    1.5496    2.5231    2.8555 O   0  0  0  0  0  0  0  0  0  0  0  0
    2.6084    3.0075    0.9483 O   0  0  0  0  0  0  0  0  0  0  0  0
    1.8320   -0.2695    2.3907 N   0  0  0  0  0  0  0  0  0  0  0  0
    2.6543   -1.2493    2.8717 C   0  0  0  0  0  0  0  0  0  0  0  0
    2.2288   -1.9868    3.7624 O   0  0  0  0  0  0  0  0  0  0  0  0
    4.0949   -1.3550    2.3600 C   0  0  0  0  0  0  0  0  0  0  0  0
    4.1690   -1.8147    0.9228 C   0  0  0  0  0  0  0  0  0  0  0  0
    4.0102   -3.0984    0.4410 C   0  0  0  0  0  0  0  0  0  0  0  0
    4.0059   -3.1531   -0.9835 C   0  0  0  0  0  0  0  0  0  0  0  0
    4.1681   -1.9102   -1.5505 C   0  0  0  0  0  0  0  0  0  0  0  0
    4.6486   -0.7744   -0.3689 S   0  0  0  0  0  0  0  0  0  0  0  0
  1  2  1  0
  1 10  1  0
  2  3  1  0
  3  4  1  0
  3  5  2  0
  5  6  1  0
  5  9  1  0
  6  7  1  0
  6  8  2  0
 10  9  1  1
 10 11  1  0
 11 12  1  0
 11 15  1  1
 12 13  2  0
 12 14  1  0
 15 16  1  0
 16 17  2  0
 16 18  1  0
 18 19  1  0
 19 20  2  0
 19 23  1  0
 20 21  1  0
 21 22  2  0
 22 23  1  0
M  END
>  <DRUGBANK_ID>  (1) 
DB02247

>  <SECONDARY_ACCESSION_NUMBERS>  (1) 
EXPT01964; EXPT00890

>  <COMMON_NAME>  (1) 
Hydrolyzed Cephalothin

$$$$
