
     RDKit          3D

 13 13  0  0  0  0  0  0  0  0999 V2000
   -1.3894    0.0065    0.7604 C   0  0  0  0  0  0  0  0  0  0  0  0
   -0.5014   -0.0152    2.0122 C   0  0  0  0  0  0  0  0  0  0  0  0
   -1.2953    1.2713   -0.0981 C   0  0  0  0  0  0  0  0  0  0  0  0
   -1.2792   -1.2222   -0.0512 N   0  0  0  0  0  0  0  0  0  0  0  0
   -0.6240    1.1237    2.8976 N   0  0  0  0  0  0  0  0  0  0  0  0
    0.0471    1.5737   -0.7768 C   0  0  0  0  0  0  0  0  0  0  0  0
   -0.0090   -1.5366   -0.7094 C   0  0  0  0  0  0  0  0  0  0  0  0
   -0.1723    1.0776    4.1747 C   0  0  0  0  0  0  0  0  0  0  0  0
    1.3095    1.3657    0.0610 C   0  0  0  0  0  0  0  0  0  0  0  0
    1.2714   -1.3782    0.1099 C   0  0  0  0  0  0  0  0  0  0  0  0
    0.1037    2.1211    4.8535 N   0  0  0  0  0  0  0  0  0  0  0  0
   -0.0771   -0.1412    4.7357 N   0  0  0  0  0  0  0  0  0  0  0  0
    2.0034   -0.0190   -0.0967 C   0  0  0  0  0  0  0  0  0  0  0  0
  1  2  1  0
  1  3  1  0
  1  4  1  0
  2  5  1  0
  3  6  1  0
  4  7  1  0
  5  8  1  0
  6  9  1  0
  7 10  1  0
  8 11  2  0
  8 12  1  0
  9 13  1  0
 10 13  1  0
M  END
>  <DRUGBANK_ID>  (1) 
DB13604

>  <COMMON_NAME>  (1) 
Guanazodine

>  <CAS_NUMBER>  (1) 
32059-15-7

>  <UNII>  (1) 
7N05KQ38YI

>  <SYNONYMS>  (1) 
Guanazodine

$$$$
