S2D
     RDKit          3D

 14 14  0  0  0  0  0  0  0  0999 V2000
    4.8240   -0.4308   -2.9017 O   0  0  0  0  0  0  0  0  0  0  0  0
    3.8909   -0.4655   -3.7005 C   0  0  0  0  0  0  0  0  0  0  0  0
    4.1479   -0.0254   -5.0853 C   0  0  0  0  0  0  0  0  0  0  0  0
    5.3938   -0.3571   -5.6303 C   0  0  0  0  0  0  0  0  0  0  0  0
    5.6651   -0.0873   -6.9670 C   0  0  0  0  0  0  0  0  0  0  0  0
    4.6929    0.5223   -7.7576 C   0  0  0  0  0  0  0  0  0  0  0  0
    3.4625    0.8892   -7.2048 C   0  0  0  0  0  0  0  0  0  0  0  0
    3.2011    0.6575   -5.8526 C   0  0  0  0  0  0  0  0  0  0  0  0
    2.6270   -0.9412   -3.4160 N   0  0  0  0  0  0  0  0  0  0  0  0
    2.2806   -1.5340   -2.1152 C   0  0  2  0  0  0  0  0  0  0  0  0
    2.9345   -0.7926   -0.9521 C   0  0  0  0  0  0  0  0  0  0  0  0
    2.5809   -3.0383   -2.0353 C   0  0  0  0  0  0  0  0  0  0  0  0
    1.7670   -3.9095   -1.7509 O   0  0  0  0  0  0  0  0  0  0  0  0
    3.8697   -3.3634   -2.2529 O   0  0  0  0  0  0  0  0  0  0  0  0
  1  2  2  0
  2  3  1  0
  2  9  1  0
  3  4  2  0
  3  8  1  0
  4  5  1  0
  5  6  2  0
  6  7  1  0
  7  8  2  0
 10 12  1  0
 10 11  1  1
 10  9  1  0
 12 13  2  0
 12 14  1  0
M  END
>  <DRUGBANK_ID>  (1) 
DB08508

>  <COMMON_NAME>  (1) 
N-BENZOYL-D-ALANINE

$$$$
