
     RDKit          3D

 24 26  0  0  1  0  0  0  0  0999 V2000
    0.2606   -0.0716    0.0723 C   0  0  0  0  0  0  0  0  0  0  0  0
    0.1923    1.0480    1.0717 C   0  0  0  0  0  0  0  0  0  0  0  0
    1.0139    2.2916    1.0613 N   0  0  0  0  0  0  0  0  0  0  0  0
    0.4447    3.1688    2.0895 C   0  0  0  0  0  0  0  0  0  0  0  0
    0.7503    2.7233    3.5169 C   0  0  0  0  0  0  0  0  0  0  0  0
    2.5017    2.4076    1.1412 C   0  0  0  0  0  0  0  0  0  0  0  0
    3.3054    1.6144    2.1792 C   0  0  0  0  0  0  0  0  0  0  0  0
    2.9114    0.1638    2.3067 C   0  0  0  0  0  0  0  0  0  0  0  0
    3.2335   -0.6386    1.1396 O   0  0  0  0  0  0  0  0  0  0  0  0
    3.0341   -0.2797   -0.1706 C   0  0  0  0  0  0  0  0  0  0  0  0
    2.6662    0.7602   -0.6559 O   0  0  0  0  0  0  0  0  0  0  0  0
    3.3251   -1.3321   -1.1709 C   0  0  2  0  0  0  0  0  0  0  0  0
    3.8888   -2.6292   -0.6071 C   0  0  0  0  0  0  0  0  0  0  0  0
    5.2939   -2.6280   -1.2308 C   0  0  2  0  0  0  0  0  0  0  0  0
    6.1853   -1.6697   -0.4193 C   0  0  0  0  0  0  0  0  0  0  0  0
    5.6549   -0.2871   -0.7975 C   0  0  0  0  0  0  0  0  0  0  0  0
    4.5597   -0.6412   -1.8432 C   0  0  1  0  0  0  0  0  0  0  0  0
    5.1428   -1.8436   -2.5402 C   0  0  0  0  0  0  0  0  0  0  0  0
    2.1187   -1.5692   -2.1265 C   0  0  0  0  0  0  0  0  0  0  0  0
    0.9840   -2.2836   -1.6912 C   0  0  0  0  0  0  0  0  0  0  0  0
   -0.1942   -2.3180   -2.4496 C   0  0  0  0  0  0  0  0  0  0  0  0
   -0.2369   -1.7150   -3.7010 C   0  0  0  0  0  0  0  0  0  0  0  0
    0.8834   -1.0450   -4.1753 C   0  0  0  0  0  0  0  0  0  0  0  0
    2.0466   -0.9821   -3.4031 C   0  0  0  0  0  0  0  0  0  0  0  0
  1  2  1  0
  2  3  1  0
  3  4  1  0
  3  6  1  0
  4  5  1  0
  6  7  1  0
  7  8  1  0
  8  9  1  0
  9 10  1  0
 10 11  2  0
 12 10  1  1
 12 13  1  0
 12 17  1  0
 12 19  1  0
 14 13  1  1
 14 15  1  0
 14 18  1  0
 15 16  1  0
 17 16  1  1
 17 18  1  0
 19 20  2  0
 19 24  1  0
 20 21  1  0
 21 22  2  0
 22 23  1  0
 23 24  2  0
M  END
>  <DRUGBANK_ID>  (1) 
DB13619

>  <COMMON_NAME>  (1) 
Bornaprine

>  <CAS_NUMBER>  (1) 
20448-86-6

>  <UNII>  (1) 
9M363FGA7J

>  <SYNONYMS>  (1) 
Bornaprine

$$$$
