
     RDKit          3D

 21 24  0  0  0  0  0  0  0  0999 V2000
    0.6359   -0.8963   -0.2938 C   0  0  0  0  0  0  0  0  0  0  0  0
    1.1123   -2.2008   -0.9379 C   0  0  2  0  0  0  0  0  0  0  0  0
    1.2827   -2.2186   -2.4874 C   0  0  0  0  0  0  0  0  0  0  0  0
    0.8150   -0.9541   -3.2479 C   0  0  1  0  0  0  0  0  0  0  0  0
    1.1435    0.2716   -2.3844 C   0  0  2  0  0  0  0  0  0  0  0  0
    0.2755    0.0926   -1.1290 C   0  0  0  0  0  0  0  0  0  0  0  0
    0.7342    1.5568   -3.1109 C   0  0  2  0  0  0  0  0  0  0  0  0
    1.5034    1.7200   -4.4877 C   0  0  1  0  0  0  0  0  0  0  0  0
    1.1584    0.4916   -5.3617 C   0  0  0  0  0  0  0  0  0  0  0  0
    1.4531   -0.8459   -4.6459 C   0  0  0  0  0  0  0  0  0  0  0  0
    1.1552    3.0921   -5.1227 C   0  0  1  0  0  0  0  0  0  0  0  0
    1.1702    4.1204   -4.0809 C   0  0  2  0  0  0  0  0  0  0  0  0
    0.4349    3.9914   -2.7929 C   0  0  0  0  0  0  0  0  0  0  0  0
    0.8982    2.7359   -2.1351 C   0  0  0  0  0  0  0  0  0  0  0  0
    0.4558    5.2067   -5.0252 C   0  0  2  0  0  0  0  0  0  0  0  0
    1.7904    5.7778   -5.2200 C   0  0  0  0  0  0  0  0  0  0  0  0
    2.1980    4.1388   -5.9904 C   0  0  0  0  0  0  0  0  0  0  0  0
   -0.8588    5.4519   -4.8338 O   0  0  0  0  0  0  0  0  0  0  0  0
    2.9082    4.1556   -3.6464 C   0  0  0  0  0  0  0  0  0  0  0  0
    2.6812    0.3086   -2.0723 C   0  0  0  0  0  0  0  0  0  0  0  0
    0.4447   -3.3749   -0.5069 O   0  0  0  0  0  0  0  0  0  0  0  0
  1  2  1  0
  1  6  2  0
  2  3  1  0
  2 21  1  6
  4  3  1  1
  4  5  1  0
  4 10  1  0
  5  6  1  0
  5  7  1  0
  5 20  1  1
  7 14  1  1
  8  7  1  0
  8 11  1  0
  8  9  1  6
 10  9  1  0
 11 12  1  0
 11 17  1  6
 12 13  1  0
 12 15  1  0
 12 19  1  1
 13 14  1  0
 15 18  1  1
 16 15  1  0
 17 16  1  0
M  END
>  <DRUGBANK_ID>  (1) 
DB01503

>  <COMMON_NAME>  (1) 
1-Androstenediol

>  <CAS_NUMBER>  (1) 
5323-27-3

>  <UNII>  (1) 
V7W74907I7

$$$$
