32326
     RDKit          3D

 19 21  0  0  1  0  0  0  0  0999 V2000
    1.8402   -0.0661    0.0181 O   0  0  0  0  0  0  0  0  0  0  0  0
   -1.5873   -1.4103    0.0725 O   0  0  0  0  0  0  0  0  0  0  0  0
   -1.3542    1.6151   -0.1724 O   0  0  0  0  0  0  0  0  0  0  0  0
    2.8965    2.4826    0.8420 O   0  0  0  0  0  0  0  0  0  0  0  0
    1.0886   -1.8750    1.3379 N   0  0  0  0  0  0  0  0  0  0  0  0
    1.6859   -2.2151    3.4603 N   0  0  0  0  0  0  0  0  0  0  0  0
   -0.3826   -3.7907    1.0166 N   0  0  0  0  0  0  0  0  0  0  0  0
   -0.6360   -5.0745    3.0628 N   0  0  0  0  0  0  0  0  0  0  0  0
    0.4676   -4.5399    5.0664 N   0  0  0  0  0  0  0  0  0  0  0  0
   -0.4399   -0.6662   -0.2977 C   0  0  2  0  0  0  0  0  0  0  0  0
    0.9551   -1.2240    0.0436 C   0  0  1  0  0  0  0  0  0  0  0  0
   -0.4010    0.7042    0.3562 C   0  0  1  0  0  0  0  0  0  0  0  0
    1.0310    1.1376    0.0754 C   0  0  1  0  0  0  0  0  0  0  0  0
    1.5647    2.0818    1.1537 C   0  0  0  0  0  0  0  0  0  0  0  0
    0.4566   -3.0278    1.7293 C   0  0  0  0  0  0  0  0  0  0  0  0
    1.8569   -1.4611    2.3951 C   0  0  0  0  0  0  0  0  0  0  0  0
    0.8099   -3.1977    3.0592 C   0  0  0  0  0  0  0  0  0  0  0  0
    0.2230   -4.2781    3.7371 C   0  0  0  0  0  0  0  0  0  0  0  0
   -0.8859   -4.7954    1.7651 C   0  0  0  0  0  0  0  0  0  0  0  0
  1 11  1  0
  1 13  1  0
  4 14  1  0
  5 15  1  0
  5 16  1  0
  6 16  2  0
  6 17  1  0
  7 15  1  0
  7 19  2  0
  8 18  2  0
  8 19  1  0
  9 18  1  0
 10  2  1  1
 10 11  1  0
 10 12  1  0
 11  5  1  1
 12  3  1  6
 12 13  1  0
 13 14  1  1
 15 17  2  0
 17 18  1  0
M  END
>  <DRUGBANK_ID>  (1) 
DB00194

>  <SECONDARY_ACCESSION_NUMBERS>  (1) 
APRD00333; EXPT02753

>  <COMMON_NAME>  (1) 
Vidarabine

>  <CAS_NUMBER>  (1) 
24356-66-9

>  <UNII>  (1) 
3XQD2MEW34

>  <SYNONYMS>  (1) 
9-beta-D-arabinofuranosyl-9H-purin-6-amine; 9-beta-D-arabinofuranosyl-adenine; 9-beta-D-Arabinofuranosyladenine; 9-β-D-arabinofuranosyl-9H-purin-6-amine; 9-β-D-arabinofuranosyladenine; Spongoadenosine; Vidarabine; Vidarabinum

$$$$
