
     RDKit          3D

 39 41  0  0  0  0  0  0  0  0999 V2000
   -0.5496    1.5781   -0.2446 C   0  0  0  0  0  0  0  0  0  0  0  0
   -0.8716    3.1897    0.0362 C   0  0  0  0  0  0  0  0  0  0  0  0
   -2.1845    3.9638   -0.9767 P   0  0  2  0  0  0  0  0  0  0  0  0
   -1.0922    4.6279   -1.9772 O   0  0  0  0  0  0  0  0  0  0  0  0
    0.2643    4.3836   -1.8484 C   0  0  2  0  0  0  0  0  0  0  0  0
    0.2364    3.0149   -2.3975 O   0  0  0  0  0  0  0  0  0  0  0  0
    0.2334    2.5104   -3.6824 C   0  0  0  0  0  0  0  0  0  0  0  0
    0.6073    3.4785   -4.7649 C   0  0  0  0  0  0  0  0  0  0  0  0
    2.0100    3.4131   -5.3644 C   0  0  0  0  0  0  0  0  0  0  0  0
    0.0484    1.3125   -3.9059 O   0  0  0  0  0  0  0  0  0  0  0  0
    0.8383    4.8834   -0.1712 C   0  0  0  0  0  0  0  0  0  0  0  0
    1.9262    4.1553    0.6822 C   0  0  0  0  0  0  0  0  0  0  0  0
    0.3830    6.2621    0.1674 C   0  0  0  0  0  0  0  0  0  0  0  0
   -3.0618    2.3846   -1.2355 C   0  0  0  0  0  0  0  0  0  0  0  0
   -4.4758    2.4762   -0.5777 C   0  0  0  0  0  0  0  0  0  0  0  0
   -5.4491    3.4306   -1.2827 C   0  0  0  0  0  0  0  0  0  0  0  0
   -5.4803    3.1453   -2.8000 C   0  0  0  0  0  0  0  0  0  0  0  0
   -6.0877    1.7824   -2.9972 C   0  0  0  0  0  0  0  0  0  0  0  0
   -5.2954    0.6633   -3.2948 C   0  0  0  0  0  0  0  0  0  0  0  0
   -5.8467   -0.6127   -3.2464 C   0  0  0  0  0  0  0  0  0  0  0  0
   -7.1841   -0.7733   -2.8903 C   0  0  0  0  0  0  0  0  0  0  0  0
   -7.9662    0.3351   -2.5695 C   0  0  0  0  0  0  0  0  0  0  0  0
   -7.4336    1.6120   -2.6677 C   0  0  0  0  0  0  0  0  0  0  0  0
   -3.2954    4.6187   -1.8337 O   0  0  0  0  0  0  0  0  0  0  0  0
   -1.2592    0.7144    0.2934 O   0  0  0  0  0  0  0  0  0  0  0  0
    0.6655    1.1553   -0.9526 N   0  0  0  0  0  0  0  0  0  0  0  0
    0.7974   -0.2618   -1.2282 C   0  0  0  0  0  0  0  0  0  0  0  0
    2.2175   -0.5753   -0.7528 C   0  0  2  0  0  0  0  0  0  0  0  0
    2.3217   -0.7412    0.7740 C   0  0  0  0  0  0  0  0  0  0  0  0
    1.5566   -2.0068    1.1379 C   0  0  0  0  0  0  0  0  0  0  0  0
    1.5142   -2.2225    2.6332 C   0  0  0  0  0  0  0  0  0  0  0  0
    0.9151   -1.0200    3.3550 C   0  0  0  0  0  0  0  0  0  0  0  0
    1.7263    0.2341    3.0843 C   0  0  0  0  0  0  0  0  0  0  0  0
    1.8358    0.4592    1.6014 C   0  0  0  0  0  0  0  0  0  0  0  0
    3.0345    0.5955   -1.2177 C   0  0  0  0  0  0  0  0  0  0  0  0
    2.0755    1.7847   -1.2118 C   0  0  1  0  0  0  0  0  0  0  0  0
    2.6407    2.5407   -2.4067 C   0  0  0  0  0  0  0  0  0  0  0  0
    2.9087    3.8537   -2.3391 O   0  0  0  0  0  0  0  0  0  0  0  0
    2.8631    1.9380   -3.4849 O   0  0  0  0  0  0  0  0  0  0  0  0
  1  2  1  0
  1 25  2  0
  1 26  1  0
  2  3  1  0
  3  4  1  0
  3 14  1  0
  3 24  2  0
  5 11  1  0
  5  6  1  1
  5  4  1  0
  6  7  1  0
  7  8  1  0
  7 10  2  0
  8  9  1  0
 11 12  1  0
 11 13  1  0
 14 15  1  0
 15 16  1  0
 16 17  1  0
 17 18  1  0
 18 19  2  0
 18 23  1  0
 19 20  1  0
 20 21  2  0
 22 21  1  0
 23 22  2  0
 26 27  1  0
 26 36  1  0
 27 28  1  0
 28 29  1  1
 28 35  1  0
 29 30  1  0
 29 34  1  0
 30 31  1  0
 31 32  1  0
 33 32  1  0
 34 33  1  0
 36 35  1  0
 36 37  1  6
 37 38  1  0
 37 39  2  0
M  END
>  <DRUGBANK_ID>  (1) 
DB00492

>  <SECONDARY_ACCESSION_NUMBERS>  (1) 
APRD00526

>  <COMMON_NAME>  (1) 
Fosinopril

>  <CAS_NUMBER>  (1) 
98048-97-6

>  <UNII>  (1) 
R43D2573WO

>  <SYNONYMS>  (1) 
Fosenopril; Fosinopril

$$$$
