
     RDKit          3D

 17 18  0  0  1  0  0  0  0  0999 V2000
    0.8948   -0.0361    0.1625 N   0  0  0  0  0  0  0  0  0  0  0  0
    0.2441    0.9031    0.9139 C   0  0  0  0  0  0  0  0  0  0  0  0
    0.6939    2.1175    0.9217 N   0  0  0  0  0  0  0  0  0  0  0  0
    0.0936    3.0291    1.7553 C   0  0  0  0  0  0  0  0  0  0  0  0
    0.1890    4.2372    1.5225 O   0  0  0  0  0  0  0  0  0  0  0  0
   -0.6175    2.5279    2.8587 N   0  0  0  0  0  0  0  0  0  0  0  0
   -1.0528    1.2158    2.8541 C   0  0  0  0  0  0  0  0  0  0  0  0
   -0.8478    0.4426    1.7896 C   0  0  0  0  0  0  0  0  0  0  0  0
   -1.2127    3.4559    3.8164 C   0  0  2  0  0  0  0  0  0  0  0  0
   -2.5593    4.4189    3.0648 S   0  0  0  0  0  0  0  0  0  0  0  0
   -2.0729    5.9893    3.8537 C   0  0  2  0  0  0  0  0  0  0  0  0
   -1.5463    6.9781    2.8113 C   0  0  0  0  0  0  0  0  0  0  0  0
   -2.5066    7.2020    1.7838 O   0  0  0  0  0  0  0  0  0  0  0  0
   -1.0075    5.6692    4.9111 C   0  0  1  0  0  0  0  0  0  0  0  0
   -1.5938    5.4905    6.2010 O   0  0  0  0  0  0  0  0  0  0  0  0
   -0.2411    4.4151    4.5177 C   0  0  2  0  0  0  0  0  0  0  0  0
    0.8175    4.7902    3.7630 F   0  0  0  0  0  0  0  0  0  0  0  0
  1  2  1  0
  2  3  2  0
  2  8  1  0
  3  4  1  0
  4  5  2  0
  4  6  1  0
  6  7  1  0
  7  8  2  0
  9  6  1  6
  9 10  1  0
 11 10  1  0
 11 12  1  6
 12 13  1  0
 14 11  1  0
 14 16  1  0
 14 15  1  1
 16  9  1  0
 16 17  1  6
M  END
>  <DRUGBANK_ID>  (1) 
DB16071

>  <COMMON_NAME>  (1) 
4'-Thio-fac

>  <CAS_NUMBER>  (1) 
184302-49-6

>  <UNII>  (1) 
R5B1HX1HUY

>  <SYNONYMS>  (1) 
4-Amino-1-[(2R,3S,4S,5R)-3-Fluoro-4-Hydroxy-5-(Hydroxymethyl)Tetrahydrothiophen-2-Yl] Pyrimidin-2(1H)-One

$$$$
