LL2
     RDKit          3D

 13 14  0  0  0  0  0  0  0  0999 V2000
    1.3853   -0.2335   -0.0101 C   0  0  0  0  0  0  0  0  0  0  0  0
    0.5123   -1.3258    0.0183 C   0  0  0  0  0  0  0  0  0  0  0  0
   -0.8680   -1.1266    0.0055 C   0  0  0  0  0  0  0  0  0  0  0  0
   -1.3782    0.1625    0.0635 C   0  0  0  0  0  0  0  0  0  0  0  0
   -0.5053    1.2439    0.1225 C   0  0  0  0  0  0  0  0  0  0  0  0
    0.8792    1.0707   -0.0357 C   0  0  0  0  0  0  0  0  0  0  0  0
    1.7845    2.2608   -0.3119 C   0  0  0  0  0  0  0  0  0  0  0  0
    1.3775    3.0252   -1.5517 C   0  0  0  0  0  0  0  0  0  0  0  0
    2.4460    3.3252   -2.8661 S   0  0  0  0  0  0  0  0  0  0  0  0
    0.1610    3.6132   -1.8473 C   0  0  0  0  0  0  0  0  0  0  0  0
    0.0597    4.2577   -3.0538 N   0  0  0  0  0  0  0  0  0  0  0  0
    1.1996    4.1925   -3.6783 C   0  0  0  0  0  0  0  0  0  0  0  0
    1.3734    4.7787   -4.8686 N   0  0  0  0  0  0  0  0  0  0  0  0
  1  2  2  0
  1  6  1  0
  2  3  1  0
  3  4  2  0
  4  5  1  0
  5  6  2  0
  6  7  1  0
  7  8  1  0
  8  9  1  0
  8 10  2  0
  9 12  1  0
 10 11  1  0
 11 12  2  0
 12 13  1  0
M  END
>  <DRUGBANK_ID>  (1) 
DB08114

>  <COMMON_NAME>  (1) 
5-benzyl-1,3-thiazol-2-amine

>  <UNII>  (1) 
80LHQ4O8WW

$$$$
