
     RDKit          3D

 12 11  0  0  0  0  0  0  0  0999 V2000
    0.9498    0.0585    0.0489 C   0  0  0  0  0  0  0  0  0  0  0  0
    0.5253   -0.9613    1.0509 C   0  0  0  0  0  0  0  0  0  0  0  0
   -0.4270   -0.5305    2.1481 C   0  0  0  0  0  0  0  0  0  0  0  0
   -1.7541   -1.2770    2.0524 C   0  0  0  0  0  0  0  0  0  0  0  0
   -1.5732   -2.7914    2.2005 C   0  0  0  0  0  0  0  0  0  0  0  0
   -0.8970   -3.1414    3.5312 C   0  0  0  0  0  0  0  0  0  0  0  0
   -1.7753   -2.7071    4.7079 C   0  0  0  0  0  0  0  0  0  0  0  0
   -3.1319   -3.4195    4.6572 C   0  0  0  0  0  0  0  0  0  0  0  0
   -2.9608   -4.9406    4.7509 C   0  0  0  0  0  0  0  0  0  0  0  0
   -2.2607   -5.3465    6.0488 C   0  0  0  0  0  0  0  0  0  0  0  0
   -3.0723   -4.8975    7.2532 C   0  0  0  0  0  0  0  0  0  0  0  0
    0.9556   -2.1178    0.9582 O   0  0  0  0  0  0  0  0  0  0  0  0
  2  1  1  0
  3  2  1  0
  4  3  1  0
  5  4  1  0
  6  5  1  0
  7  6  1  0
  8  7  1  0
  9  8  1  0
 10  9  1  0
 11 10  1  0
 12  2  2  0
M  END
>  <DRUGBANK_ID>  (1) 
DB08688

>  <COMMON_NAME>  (1) 
2-Undecanone

>  <CAS_NUMBER>  (1) 
112-12-9

>  <UNII>  (1) 
YV5DSO8CY9

>  <SYNONYMS>  (1) 
2-hendecanone; Methyl nonyl ketone; Rue ketone; Undecan-2-one

$$$$
