49U
     RDKit          3D

 27 29  0  0  0  0  0  0  0  0999 V2000
    1.5726   -0.0179    0.6544 O   0  0  0  0  0  0  0  0  0  0  0  0
    2.7422   -0.1439    0.3646 C   0  0  0  0  0  0  0  0  0  0  0  0
    3.3861   -0.8984    1.2572 N   0  0  0  0  0  0  0  0  0  0  0  0
    2.5153   -1.4116    2.3023 C   0  0  0  0  0  0  0  0  0  0  0  0
    2.7390   -2.8621    2.3895 C   0  0  0  0  0  0  0  0  0  0  0  0
    1.9548   -3.7902    1.6945 C   0  0  0  0  0  0  0  0  0  0  0  0
    2.2009   -5.1409    1.8836 C   0  0  0  0  0  0  0  0  0  0  0  0
    3.2971   -5.5412    2.6620 C   0  0  0  0  0  0  0  0  0  0  0  0
    3.6863   -6.9739    2.7776 C   0  0  0  0  0  0  0  0  0  0  0  0
    3.0542   -7.9400    2.1901 N   0  0  0  0  0  0  0  0  0  0  0  0
    4.7677   -7.3410    3.5101 N   0  0  0  0  0  0  0  0  0  0  0  0
    4.0882   -4.5790    3.3083 C   0  0  0  0  0  0  0  0  0  0  0  0
    3.8115   -3.2436    3.1697 C   0  0  0  0  0  0  0  0  0  0  0  0
    3.3677    0.5307   -0.8664 C   0  0  2  0  0  0  0  0  0  0  0  0
    4.8110    0.2429   -1.1580 C   0  0  0  0  0  0  0  0  0  0  0  0
    5.1757    1.3608   -2.1290 C   0  0  0  0  0  0  0  0  0  0  0  0
    4.2745    2.5451   -1.7529 C   0  0  0  0  0  0  0  0  0  0  0  0
    3.2433    2.0005   -0.8764 N   0  0  0  0  0  0  0  0  0  0  0  0
    2.2415    2.8409   -0.3819 C   0  0  0  0  0  0  0  0  0  0  0  0
    2.3947    4.0691   -0.4343 O   0  0  0  0  0  0  0  0  0  0  0  0
    0.9794    2.3161    0.3381 C   0  0  0  0  0  0  0  0  0  0  0  0
   -0.1246    1.5577   -0.5310 C   0  0  0  0  0  0  0  0  0  0  0  0
    0.3380    0.3982   -1.4420 C   0  0  0  0  0  0  0  0  0  0  0  0
    0.4462    0.4809   -2.9480 C   0  0  0  0  0  0  0  0  0  0  0  0
    0.9342   -0.9217   -3.3794 C   0  0  0  0  0  0  0  0  0  0  0  0
    0.8066   -1.8653   -2.1852 C   0  0  0  0  0  0  0  0  0  0  0  0
    0.0300   -1.0831   -1.1300 C   0  0  0  0  0  0  0  0  0  0  0  0
  2  1  2  0
  3  2  1  0
  4  3  1  0
  4  5  1  0
  5 13  1  0
  6  5  2  0
  6  7  1  0
  7  8  2  0
  8 12  1  0
  8  9  1  0
  9 10  2  0
 11  9  1  0
 13 12  2  0
 14  2  1  1
 14 18  1  0
 15 16  1  0
 15 14  1  0
 16 17  1  0
 17 18  1  0
 18 19  1  0
 19 20  2  0
 19 21  1  0
 21 22  1  0
 23 22  1  0
 23 24  1  0
 25 24  1  0
 26 25  1  0
 27 23  1  0
 27 26  1  0
M  END
>  <DRUGBANK_ID>  (1) 
DB07095

>  <COMMON_NAME>  (1) 
(S)-N-(4-carbamimidoylbenzyl)-1-(3-cyclopentylpropanoyl)pyrrolidine-2-carboxamide

$$$$
