
     RDKit          3D

 26 28  0  0  1  0  0  0  0  0999 V2000
   -2.3387   -0.2357    0.3111 C   0  0  0  0  0  0  0  0  0  0  0  0
   -0.8983   -0.1140    0.3746 N   0  0  0  0  0  0  0  0  0  0  0  0
   -0.2650   -1.3189   -0.1464 C   0  0  0  0  0  0  0  0  0  0  0  0
    1.2110   -1.3012    0.2286 C   0  0  0  0  0  0  0  0  0  0  0  0
    1.9170   -0.0393   -0.2622 C   0  0  0  0  0  0  0  0  0  0  0  0
    1.1472    1.2010    0.1886 C   0  0  0  0  0  0  0  0  0  0  0  0
   -0.3438    1.1110   -0.2411 C   0  0  1  0  0  0  0  0  0  0  0  0
   -0.4452    1.1860   -1.7998 C   0  0  0  0  0  0  0  0  0  0  0  0
   -1.8611    1.2254   -2.4353 C   0  0  0  0  0  0  0  0  0  0  0  0
   -2.6403    2.3812   -1.8635 C   0  0  0  0  0  0  0  0  0  0  0  0
   -3.6873    2.2351   -0.9136 C   0  0  0  0  0  0  0  0  0  0  0  0
   -4.1145    3.3055   -0.1348 C   0  0  0  0  0  0  0  0  0  0  0  0
   -3.4067    4.4685   -0.2290 C   0  0  0  0  0  0  0  0  0  0  0  0
   -2.2275    4.4685   -0.9694 C   0  0  0  0  0  0  0  0  0  0  0  0
   -2.0751    3.6302   -2.0439 C   0  0  0  0  0  0  0  0  0  0  0  0
   -1.3550    3.9489   -3.2273 N   0  0  0  0  0  0  0  0  0  0  0  0
   -0.9881    5.1255   -3.8564 C   0  0  0  0  0  0  0  0  0  0  0  0
   -0.4114    5.0623   -4.9243 O   0  0  0  0  0  0  0  0  0  0  0  0
   -1.2148    6.4713   -3.2457 C   0  0  0  0  0  0  0  0  0  0  0  0
   -2.2266    6.6802   -2.4087 C   0  0  0  0  0  0  0  0  0  0  0  0
   -2.4926    7.7375   -1.4370 C   0  0  0  0  0  0  0  0  0  0  0  0
   -3.0928    8.8302   -2.0130 C   0  0  0  0  0  0  0  0  0  0  0  0
   -3.7285    9.7578   -1.2115 C   0  0  0  0  0  0  0  0  0  0  0  0
   -3.7858    9.5899    0.1739 C   0  0  0  0  0  0  0  0  0  0  0  0
   -3.1828    8.4938    0.7768 C   0  0  0  0  0  0  0  0  0  0  0  0
   -2.4791    7.5948   -0.0237 C   0  0  0  0  0  0  0  0  0  0  0  0
  1  2  1  0
  2  3  1  0
  2  7  1  0
  3  4  1  0
  4  5  1  0
  5  6  1  0
  6  7  1  0
  7  8  1  6
  8  9  1  0
  9 10  1  0
 10 11  2  0
 10 15  1  0
 11 12  1  0
 12 13  2  0
 13 14  1  0
 14 15  2  0
 15 16  1  0
 16 17  1  0
 17 18  2  0
 17 19  1  0
 19 20  2  0
 20 21  1  0
 21 22  2  0
 21 26  1  0
 22 23  1  0
 23 24  2  0
 24 25  1  0
 25 26  2  0
M  END
>  <DRUGBANK_ID>  (1) 
DB11686

>  <COMMON_NAME>  (1) 
Iferanserin

>  <CAS_NUMBER>  (1) 
58754-46-4

>  <UNII>  (1) 
NWR3BEB8PA

>  <SYNONYMS>  (1) 
Iferanserin

$$$$
