LZB
     RDKit          3D

 16 17  0  0  0  0  0  0  0  0999 V2000
    1.0219    0.0490    0.0581 C   0  0  0  0  0  0  0  0  0  0  0  0
    0.5227    1.4139    0.5039 C   0  0  0  0  0  0  0  0  0  0  0  0
    1.0222    2.5039   -0.4312 C   0  0  0  0  0  0  0  0  0  0  0  0
   -0.9401    1.4319    0.5753 N   0  0  0  0  0  0  0  0  0  0  0  0
   -1.6441    1.6846    1.7519 C   0  0  0  0  0  0  0  0  0  0  0  0
   -1.2558    2.6900    2.5535 C   0  0  0  0  0  0  0  0  0  0  0  0
   -1.9871    2.8953    3.8188 C   0  0  0  0  0  0  0  0  0  0  0  0
   -1.4677    4.1754    4.8509 Cl  0  0  0  0  0  0  0  0  0  0  0  0
   -2.9914    2.1805    4.2266 N   0  0  0  0  0  0  0  0  0  0  0  0
   -3.3940    1.1629    3.4002 C   0  0  0  0  0  0  0  0  0  0  0  0
   -4.3950    0.2254    3.5298 C   0  0  0  0  0  0  0  0  0  0  0  0
   -5.3115    0.0901    4.6087 C   0  0  0  0  0  0  0  0  0  0  0  0
   -6.0861   -0.0576    5.4662 N   0  0  0  0  0  0  0  0  0  0  0  0
   -4.3170   -0.5630    2.3749 C   0  0  0  0  0  0  0  0  0  0  0  0
   -3.3461   -0.1749    1.5414 N   0  0  0  0  0  0  0  0  0  0  0  0
   -2.7620    0.8962    2.1640 N   0  0  0  0  0  0  0  0  0  0  0  0
  1  2  1  0
  2  3  1  0
  2  4  1  0
  4  5  1  0
  5  6  2  0
  5 16  1  0
  6  7  1  0
  7  8  1  0
  7  9  2  0
  9 10  1  0
 10 11  2  0
 10 16  1  0
 11 12  1  0
 11 14  1  0
 12 13  3  0
 14 15  2  0
 15 16  1  0
M  END
>  <DRUGBANK_ID>  (1) 
DB08139

>  <COMMON_NAME>  (1) 
5-chloro-7-[(1-methylethyl)amino]pyrazolo[1,5-a]pyrimidine-3-carbonitrile

>  <UNII>  (1) 
LW4J8Q7HMC

$$$$
