PU1
     RDKit          3D

 30 32  0  0  0  0  0  0  0  0999 V2000
   -2.1931   -0.2908    0.0119 Cl  0  0  0  0  0  0  0  0  0  0  0  0
   -0.4598   -0.0923   -0.0562 C   0  0  0  0  0  0  0  0  0  0  0  0
    0.1834    1.1772   -0.0225 C   0  0  0  0  0  0  0  0  0  0  0  0
   -0.4467    2.3947   -0.0207 O   0  0  0  0  0  0  0  0  0  0  0  0
   -1.8491    2.5107   -0.0549 C   0  0  0  0  0  0  0  0  0  0  0  0
    1.6063    1.2590   -0.0029 C   0  0  0  0  0  0  0  0  0  0  0  0
    2.3300    2.4292   -0.0020 O   0  0  0  0  0  0  0  0  0  0  0  0
    1.7035    3.6982   -0.0280 C   0  0  0  0  0  0  0  0  0  0  0  0
    2.3681    0.0715    0.0162 C   0  0  0  0  0  0  0  0  0  0  0  0
    3.7484   -0.0300    0.0563 O   0  0  0  0  0  0  0  0  0  0  0  0
    4.5276    1.1713    0.0690 C   0  0  0  0  0  0  0  0  0  0  0  0
    1.6962   -1.1765   -0.0268 C   0  0  0  0  0  0  0  0  0  0  0  0
    0.2805   -1.2851   -0.1184 C   0  0  0  0  0  0  0  0  0  0  0  0
   -0.4485   -2.6533   -0.2538 C   0  0  0  0  0  0  0  0  0  0  0  0
   -0.0333   -3.4609   -1.4633 C   0  0  0  0  0  0  0  0  0  0  0  0
    1.2530   -3.6978   -1.5738 N   0  0  0  0  0  0  0  0  0  0  0  0
    1.4249   -4.5152   -2.6254 C   0  0  0  0  0  0  0  0  0  0  0  0
    2.6266   -5.0366   -3.1170 C   0  0  0  0  0  0  0  0  0  0  0  0
    3.8200   -4.7321   -2.5012 N   0  0  0  0  0  0  0  0  0  0  0  0
    0.2263   -4.8571   -3.2164 C   0  0  0  0  0  0  0  0  0  0  0  0
    0.1585   -5.7156   -4.2637 N   0  0  0  0  0  0  0  0  0  0  0  0
    1.3903   -6.1232   -4.7023 C   0  0  0  0  0  0  0  0  0  0  0  0
    2.6011   -5.8339   -4.1881 N   0  0  0  0  0  0  0  0  0  0  0  0
   -0.7546   -4.1122   -2.5026 N   0  0  0  0  0  0  0  0  0  0  0  0
   -2.2118   -4.0643   -2.7563 C   0  0  0  0  0  0  0  0  0  0  0  0
   -2.7024   -3.5265   -4.1316 C   0  0  0  0  0  0  0  0  0  0  0  0
   -2.2480   -4.3900   -5.3022 C   0  0  0  0  0  0  0  0  0  0  0  0
   -2.7710   -5.7612   -5.1994 C   0  0  0  0  0  0  0  0  0  0  0  0
   -3.1902   -6.8885   -5.0780 C   0  0  0  0  0  0  0  0  0  0  0  0
    1.4237   -6.9040   -5.7985 F   0  0  0  0  0  0  0  0  0  0  0  0
  1  2  1  0
  2  3  2  0
  2 13  1  0
  3  4  1  0
  3  6  1  0
  4  5  1  0
  6  7  1  0
  6  9  2  0
  7  8  1  0
  9 10  1  0
  9 12  1  0
 10 11  1  0
 12 13  2  0
 13 14  1  0
 14 15  1  0
 15 16  2  0
 15 24  1  0
 16 17  1  0
 17 18  2  0
 17 20  1  0
 18 19  1  0
 18 23  1  0
 20 21  2  0
 20 24  1  0
 21 22  1  0
 22 23  2  0
 22 30  1  0
 24 25  1  0
 25 26  1  0
 26 27  1  0
 27 28  1  0
 28 29  3  0
M  END
>  <DRUGBANK_ID>  (1) 
DB02550

>  <SECONDARY_ACCESSION_NUMBERS>  (1) 
EXPT02692

>  <COMMON_NAME>  (1) 
8-(2-Chloro-3,4,5-Trimethoxy-Benzyl)-2-Fluoro-9-Pent-4-Ylnyl-9h-Purin-6-Ylamine

$$$$
