
     RDKit          3D

 19 20  0  0  0  0  0  0  0  0999 V2000
    5.0580    2.1528    2.5208 N   0  0  0  0  0  0  0  0  0  0  0  0
    5.9176    2.1345    4.5134 C   0  0  0  0  0  0  0  0  0  0  0  0
    5.4056    1.3088    3.5297 C   0  0  0  0  0  0  0  0  0  0  0  0
    5.8896    3.4495    4.1449 N   0  0  0  0  0  0  0  0  0  0  0  0
    5.5732    3.3788    2.8948 C   0  0  0  0  0  0  0  0  0  0  0  0
    0.5782    4.5794    0.8193 P   0  0  0  0  0  0  0  0  0  0  0  0
    6.4648    1.5555    5.6467 C   0  0  0  0  0  0  0  0  0  0  0  0
    5.3564   -0.0366    3.5594 N   0  0  0  0  0  0  0  0  0  0  0  0
    6.5012    0.2080    5.7150 N   0  0  0  0  0  0  0  0  0  0  0  0
    4.2901    1.8467    1.3185 C   0  0  0  0  0  0  0  0  0  0  0  0
    5.9539   -0.4880    4.6850 C   0  0  0  0  0  0  0  0  0  0  0  0
    1.6237    3.7530   -0.4349 C   0  0  0  0  0  0  0  0  0  0  0  0
    2.2877    2.5457    0.0322 O   0  0  0  0  0  0  0  0  0  0  0  0
    7.0217    2.3451    6.6291 N   0  0  0  0  0  0  0  0  0  0  0  0
    3.0624    2.7593    1.2231 C   0  0  2  0  0  0  0  0  0  0  0  0
    3.5749    4.1813    1.2819 C   0  0  0  0  0  0  0  0  0  0  0  0
    0.5804    3.3589    1.8751 O   0  0  0  0  0  0  0  0  0  0  0  0
    1.3909    5.8458    1.0192 O   0  0  0  0  0  0  0  0  0  0  0  0
   -0.4101    5.3606    2.0050 O   0  0  0  0  0  0  0  0  0  0  0  0
  3  1  1  0
  3  2  2  0
  4  2  1  0
  5  1  1  0
  5  4  2  0
  6 17  1  0
  6 18  2  0
  6 19  1  0
  7  2  1  0
  8  3  1  0
  9  7  2  0
 10  1  1  0
 11  8  2  0
 11  9  1  0
 12  6  1  0
 13 12  1  0
 14  7  1  0
 15 16  1  6
 15 13  1  0
 15 10  1  0
M  END
>  <DRUGBANK_ID>  (1) 
DB14126

>  <COMMON_NAME>  (1) 
Tenofovir

>  <CAS_NUMBER>  (1) 
147127-20-6

>  <UNII>  (1) 
W4HFE001U5

>  <SYNONYMS>  (1) 
(R)-PMPA; Anhydrous tenofovir; Tenofovir; Tenofovir (anh.); Tenofovir (anhydrous); Tenofovir anhydrous

$$$$
