
     RDKit          3D

 23 25  0  0  0  0  0  0  0  0999 V2000
   -1.2591   -1.0505    0.2603 C   0  0  0  0  0  0  0  0  0  0  0  0
   -2.4013   -1.8620    0.1160 C   0  0  0  0  0  0  0  0  0  0  0  0
   -3.5884   -1.3591   -0.4132 C   0  0  0  0  0  0  0  0  0  0  0  0
   -3.6535   -0.0399   -0.8445 C   0  0  0  0  0  0  0  0  0  0  0  0
   -2.5650    0.8038   -0.6656 C   0  0  0  0  0  0  0  0  0  0  0  0
   -1.4116    0.3015   -0.0690 C   0  0  0  0  0  0  0  0  0  0  0  0
   -0.0587    1.3769    0.2267 S   0  0  0  0  0  0  0  0  0  0  0  0
    0.0365   -1.5947    0.5648 N   0  0  0  0  0  0  0  0  0  0  0  0
    2.4298   -1.4979   -0.2643 C   0  0  0  0  0  0  0  0  0  0  0  0
    1.2083   -0.9423    0.0796 C   0  0  0  0  0  0  0  0  0  0  0  0
    1.3204    0.4078   -0.1889 C   0  0  0  0  0  0  0  0  0  0  0  0
    2.4859    1.0433   -0.7436 C   0  0  0  0  0  0  0  0  0  0  0  0
    3.6374    0.3307   -1.0611 C   0  0  0  0  0  0  0  0  0  0  0  0
    3.5928   -0.9938   -0.8453 C   0  0  0  0  0  0  0  0  0  0  0  0
   -0.1150    2.4577   -0.7212 O   0  0  0  0  0  0  0  0  0  0  0  0
   -0.0007    1.6329    1.6689 O   0  0  0  0  0  0  0  0  0  0  0  0
   -0.0986   -2.7596    1.5681 C   0  0  0  0  0  0  0  0  0  0  0  0
    0.6085   -4.0870    1.2582 C   0  0  0  0  0  0  0  0  0  0  0  0
    2.0974   -3.9624    1.0469 C   0  0  0  0  0  0  0  0  0  0  0  0
    0.5200   -5.1897    2.2917 C   0  0  0  0  0  0  0  0  0  0  0  0
    2.8972   -3.2709    2.1415 N   0  0  0  0  0  0  0  0  0  0  0  0
    4.3108   -2.9904    1.8500 C   0  0  0  0  0  0  0  0  0  0  0  0
    2.4105   -2.0689    2.8526 C   0  0  0  0  0  0  0  0  0  0  0  0
  1  2  2  0
  1  8  1  0
  2  3  1  0
  3  4  2  0
  4  5  1  0
  5  6  2  0
  6  1  1  0
  6  7  1  0
  7 11  1  0
  7 15  2  0
  7 16  2  0
  8 17  1  0
  9 10  1  0
 10 11  2  0
 10  8  1  0
 11 12  1  0
 12 13  2  0
 13 14  1  0
 14  9  2  0
 17 18  1  0
 18 19  1  0
 18 20  1  0
 19 21  1  0
 21 22  1  0
 21 23  1  0
M  END
>  <DRUGBANK_ID>  (1) 
DB13820

>  <COMMON_NAME>  (1) 
Oxomemazine

>  <CAS_NUMBER>  (1) 
3689-50-7

>  <UNII>  (1) 
305MB38V1C

>  <SYNONYMS>  (1) 
Oxomemazine

$$$$
