
     RDKit          3D

 22 25  0  0  0  0  0  0  0  0999 V2000
    1.3132   -1.2390   -0.4127 C   0  0  0  0  0  0  0  0  0  0  0  0
    1.8200   -0.0795   -1.0114 C   0  0  0  0  0  0  0  0  0  0  0  0
    1.3662    1.3253   -0.6788 C   0  0  0  0  0  0  0  0  0  0  0  0
    0.0550    1.3432   -0.2208 C   0  0  0  0  0  0  0  0  0  0  0  0
   -0.6168    0.0840   -0.0286 C   0  0  0  0  0  0  0  0  0  0  0  0
    0.0155   -1.1773   -0.0258 C   0  0  0  0  0  0  0  0  0  0  0  0
   -2.3248    0.0611    0.1806 Cl  0  0  0  0  0  0  0  0  0  0  0  0
    2.5918    2.7169   -0.4131 C   0  0  0  0  0  0  0  0  0  0  0  0
    3.6283    3.2844    1.0435 C   0  0  0  0  0  0  0  0  0  0  0  0
    4.9582    2.6355    1.3551 C   0  0  0  0  0  0  0  0  0  0  0  0
    5.3089    2.1407    2.6221 C   0  0  0  0  0  0  0  0  0  0  0  0
    4.8748    2.9715    3.6064 C   0  0  0  0  0  0  0  0  0  0  0  0
    3.8789    3.9130    3.3279 C   0  0  0  0  0  0  0  0  0  0  0  0
    3.1069    3.9997    2.1216 C   0  0  0  0  0  0  0  0  0  0  0  0
    3.9165    4.6734    4.4683 N   0  0  0  0  0  0  0  0  0  0  0  0
    4.9047    4.2042    5.2912 C   0  0  0  0  0  0  0  0  0  0  0  0
    5.4075    3.0820    4.8545 N   0  0  0  0  0  0  0  0  0  0  0  0
    3.4611    1.5984   -0.2830 N   0  0  0  0  0  0  0  0  0  0  0  0
    3.2504    0.8257    0.8725 C   0  0  0  0  0  0  0  0  0  0  0  0
    4.2060   -0.1343    0.7259 C   0  0  0  0  0  0  0  0  0  0  0  0
    4.9366    0.0620   -0.4539 N   0  0  0  0  0  0  0  0  0  0  0  0
    4.4546    1.1441   -1.0609 C   0  0  0  0  0  0  0  0  0  0  0  0
  1  2  2  0
  1  6  1  0
  2  3  1  0
  3  4  2  0
  3  8  1  0
  4  5  1  0
  5  6  2  0
  5  7  1  0
  8  9  1  0
  8 18  1  0
  9 10  2  0
  9 14  1  0
 10 11  1  0
 11 12  2  0
 12 13  1  0
 12 17  1  0
 13 14  2  0
 13 15  1  0
 15 16  1  0
 16 17  2  0
 18 19  1  0
 18 22  1  0
 19 20  2  0
 20 21  1  0
 21 22  2  0
M  END
>  <DRUGBANK_ID>  (1) 
DB13066

>  <COMMON_NAME>  (1) 
Liarozole

>  <CAS_NUMBER>  (1) 
115575-11-6

>  <UNII>  (1) 
K0Q29TGV9Y

$$$$
