
     RDKit          3D

 32 33  0  0  1  0  0  0  0  0999 V2000
    0.7956   -0.0258   -0.3302 C   0  0  0  0  0  0  0  0  0  0  0  0
   -0.1610   -0.3820    0.7600 C   0  0  0  0  0  0  0  0  0  0  0  0
   -0.8625    0.3702    1.3557 O   0  0  0  0  0  0  0  0  0  0  0  0
    0.1031   -1.6295    1.1437 O   0  0  0  0  0  0  0  0  0  0  0  0
    0.0035   -1.8377    2.5427 C   0  0  0  0  0  0  0  0  0  0  0  0
    0.6083   -0.7185    3.8527 C   0  0  1  0  0  0  0  0  0  0  0  0
    1.9724   -0.5109    4.1437 O   0  0  0  0  0  0  0  0  0  0  0  0
    2.5362   -0.2416    5.3785 C   0  0  1  0  0  0  0  0  0  0  0  0
    3.9490   -0.5907    5.4456 O   0  0  0  0  0  0  0  0  0  0  0  0
    4.7725   -0.4620    4.2959 C   0  0  0  0  0  0  0  0  0  0  0  0
    4.5099   -1.5557    3.1941 C   0  0  0  0  0  0  0  0  0  0  0  0
    3.0112   -1.7973    2.8022 N   0  0  0  0  0  0  0  0  0  0  0  0
    2.8069   -0.1339    2.2246 C   0  0  0  0  0  0  0  0  0  0  0  0
    2.8470   -2.5452    1.5598 C   0  0  0  0  0  0  0  0  0  0  0  0
    2.2378   -2.6714    4.2941 C   0  0  0  0  0  0  0  0  0  0  0  0
    1.5494   -3.9862    4.5038 C   0  0  0  0  0  0  0  0  0  0  0  0
    0.5366   -2.9730    4.7243 C   0  0  0  0  0  0  0  0  0  0  0  0
    2.2757    1.1861    5.5410 C   0  0  2  0  0  0  0  0  0  0  0  0
    2.5059    1.6022    6.8929 O   0  0  0  0  0  0  0  0  0  0  0  0
    3.1643    0.9795    7.8937 C   0  0  0  0  0  0  0  0  0  0  0  0
    3.3669   -0.5273    8.0417 C   0  0  0  0  0  0  0  0  0  0  0  0
    3.5235    1.6879    8.8323 O   0  0  0  0  0  0  0  0  0  0  0  0
    0.7998    1.4634    5.0541 C   0  0  1  0  0  0  0  0  0  0  0  0
    0.6645    2.8323    4.6225 O   0  0  0  0  0  0  0  0  0  0  0  0
    1.1216    3.4066    3.4865 C   0  0  0  0  0  0  0  0  0  0  0  0
    2.4283    3.0296    2.8441 C   0  0  0  0  0  0  0  0  0  0  0  0
    0.4964    4.3434    3.0038 O   0  0  0  0  0  0  0  0  0  0  0  0
    0.0701    0.6216    3.9509 C   0  0  2  0  0  0  0  0  0  0  0  0
   -1.3553    0.4850    4.0510 O   0  0  0  0  0  0  0  0  0  0  0  0
   -2.0913   -0.1782    4.9534 C   0  0  0  0  0  0  0  0  0  0  0  0
   -1.5163   -0.6200    6.2652 C   0  0  0  0  0  0  0  0  0  0  0  0
   -3.2940   -0.4048    4.7014 O   0  0  0  0  0  0  0  0  0  0  0  0
  1  2  1  0
  2  3  2  0
  2  4  1  0
  4  5  1  0
  6  5  1  6
  6  7  1  0
  8  7  1  0
  8  9  1  6
  9 10  1  0
 10 11  1  0
 11 12  1  0
 12 13  1  0
 12 14  1  0
 12 15  1  0
 15 16  1  0
 15 17  1  0
 16 17  1  0
 18  8  1  0
 18 23  1  0
 18 19  1  1
 19 20  1  0
 20 21  1  0
 20 22  2  0
 23 28  1  0
 23 24  1  6
 24 25  1  0
 25 26  1  0
 25 27  2  0
 28  6  1  0
 28 29  1  1
 29 30  1  0
 30 31  1  0
 30 32  2  0
M  CHG  1  12   1
M  END
>  <DRUGBANK_ID>  (1) 
DB18308

>  <COMMON_NAME>  (1) 
N,N-dimethyl-N-(2-(((2R,3R,4S,5R,6R)-3,4,5-tris(acetyloxy)-6-((acetyloxy)methyl)oxan-2-yl)oxy)ethyl)cyclopropylammonium

>  <CAS_NUMBER>  (1) 
2440155-89-3

>  <UNII>  (1) 
J6QN4FZ2UG

$$$$
