
     RDKit          3D

 19 19  0  0  0  0  0  0  0  0999 V2000
   -1.1094   -0.1276    0.0061 N   0  0  0  0  0  0  0  0  0  0  0  0
   -0.6310    1.1642    0.0972 C   0  0  0  0  0  0  0  0  0  0  0  0
   -0.3288   -1.2601    0.0924 C   0  0  0  0  0  0  0  0  0  0  0  0
    0.8652    1.3619    0.3508 C   0  0  0  0  0  0  0  0  0  0  0  0
    1.0150   -1.0698    0.2146 N   0  0  0  0  0  0  0  0  0  0  0  0
    1.6604    0.1128    0.0101 C   0  0  0  0  0  0  0  0  0  0  0  0
   -1.4160    2.1142    0.0702 O   0  0  0  0  0  0  0  0  0  0  0  0
   -0.7739   -2.3990    0.0294 O   0  0  0  0  0  0  0  0  0  0  0  0
    2.8458    0.1098   -0.3140 O   0  0  0  0  0  0  0  0  0  0  0  0
    1.0515    1.6058    1.8717 C   0  0  0  0  0  0  0  0  0  0  0  0
   -2.5364   -0.3082   -0.2178 C   0  0  0  0  0  0  0  0  0  0  0  0
    2.4868    1.8767    2.2605 C   0  0  0  0  0  0  0  0  0  0  0  0
    2.9249    3.0364    2.7635 C   0  0  0  0  0  0  0  0  0  0  0  0
    1.3989    2.5619   -0.4736 C   0  0  0  0  0  0  0  0  0  0  0  0
    1.1944    2.2712   -1.9515 C   0  0  0  0  0  0  0  0  0  0  0  0
    0.7332    3.9159   -0.1447 C   0  0  0  0  0  0  0  0  0  0  0  0
    1.0189    2.0218   -3.2192 C   0  0  0  0  0  0  0  0  0  0  0  0
    0.8143    1.7311   -4.6970 C   0  0  0  0  0  0  0  0  0  0  0  0
    1.1683    0.2840   -4.9895 C   0  0  0  0  0  0  0  0  0  0  0  0
  2  1  1  0
  3  1  1  0
  4  2  1  0
  4 14  1  0
  5  3  1  0
  6  5  1  0
  6  4  1  0
  7  2  2  0
  8  3  2  0
  9  6  2  0
 10  4  1  0
 11  1  1  0
 12 10  1  0
 13 12  2  0
 14 15  1  0
 14 16  1  0
 15 17  3  0
 17 18  1  0
 18 19  1  0
M  END
>  <DRUGBANK_ID>  (1) 
DB00474

>  <SECONDARY_ACCESSION_NUMBERS>  (1) 
APRD00058

>  <COMMON_NAME>  (1) 
Methohexital

>  <CAS_NUMBER>  (1) 
151-83-7

>  <UNII>  (1) 
E5B8ND5IPE

>  <SYNONYMS>  (1) 
(±)-5-allyl-1-methyl-5-(1-methyl-2-pentynyl)barbituric acid; 5-allyl-1-methyl-5-(1-methyl-2-pentynyl)-2,4,6(1H,3H,5H)-pyrimidinetrione; 5-Allyl-1-methyl-5-(1-methyl-pent-2-ynyl)-pyrimidine-2,4,6-trione; 5-Allyl-5-(3-hexyn-2-yl)-1-methylbarbituric acid; Methohexital; Methohexitalum; Methohexitone; Metohexital; α-DL-1-methyl-5-allyl-5-(1'-methylpentyn-2-yl)barbituric acid

$$$$
