KTP
     RDKit          3D

 27 30  0  0  0  0  0  0  0  0999 V2000
    1.0457   -0.0330    0.0826 P   0  0  0  0  0  0  0  0  0  0  0  0
    1.0123   -1.5367   -0.0472 O   0  0  0  0  0  0  0  0  0  0  0  0
   -0.7158    2.8803    1.4896 O   0  0  0  0  0  0  0  0  0  0  0  0
    1.0122    1.1053    1.5471 C   0  0  1  0  0  0  0  0  0  0  0  0
    0.3061    2.4128    1.0129 C   0  0  0  0  0  0  0  0  0  0  0  0
   -0.6843   -0.0330    0.0826 O   0  0  0  0  0  0  0  0  0  0  0  0
    2.7757   -0.0330    0.0826 O   0  0  0  0  0  0  0  0  0  0  0  0
    0.8683    3.2100   -0.1351 C   0  0  0  0  0  0  0  0  0  0  0  0
    0.7793    4.6128   -0.0485 C   0  0  0  0  0  0  0  0  0  0  0  0
    1.0531    5.4337   -1.1632 C   0  0  0  0  0  0  0  0  0  0  0  0
    0.9197    6.8316   -1.1192 C   0  0  0  0  0  0  0  0  0  0  0  0
    1.1540    7.6066   -2.2592 C   0  0  0  0  0  0  0  0  0  0  0  0
    1.5229    6.9990   -3.4562 C   0  0  0  0  0  0  0  0  0  0  0  0
    1.6655    5.6160   -3.5167 C   0  0  0  0  0  0  0  0  0  0  0  0
    1.4415    4.8316   -2.3794 C   0  0  0  0  0  0  0  0  0  0  0  0
    1.5744    3.4475   -2.4475 C   0  0  0  0  0  0  0  0  0  0  0  0
    1.2764    2.6484   -1.3446 C   0  0  0  0  0  0  0  0  0  0  0  0
   -0.2780    1.2905    3.7394 C   0  0  0  0  0  0  0  0  0  0  0  0
    0.4326    0.4941    2.8307 C   0  0  0  0  0  0  0  0  0  0  0  0
    0.5985   -0.9029    3.1241 C   0  0  0  0  0  0  0  0  0  0  0  0
    1.4210   -1.7908    2.4098 C   0  0  0  0  0  0  0  0  0  0  0  0
    1.2930   -3.1727    2.4349 C   0  0  0  0  0  0  0  0  0  0  0  0
    0.5873   -3.7295    3.4658 C   0  0  0  0  0  0  0  0  0  0  0  0
   -0.0354   -2.8827    4.3855 C   0  0  0  0  0  0  0  0  0  0  0  0
   -0.0803   -1.4802    4.2029 C   0  0  0  0  0  0  0  0  0  0  0  0
   -0.7653   -0.6408    5.0901 C   0  0  0  0  0  0  0  0  0  0  0  0
   -0.8640    0.7293    4.8630 C   0  0  0  0  0  0  0  0  0  0  0  0
  1  2  2  0
  1  6  1  0
  1  7  1  0
  3  5  2  0
  4  1  1  0
  4  5  1  6
  4 19  1  0
  5  8  1  0
  8  9  2  0
  8 17  1  0
  9 10  1  0
 10 11  2  0
 10 15  1  0
 11 12  1  0
 12 13  2  0
 13 14  1  0
 14 15  2  0
 15 16  1  0
 16 17  2  0
 18 19  2  0
 18 27  1  0
 19 20  1  0
 20 21  2  0
 20 25  1  0
 21 22  1  0
 22 23  2  0
 23 24  1  0
 24 25  2  0
 25 26  1  0
 26 27  2  0
M  END
>  <DRUGBANK_ID>  (1) 
DB02360

>  <SECONDARY_ACCESSION_NUMBERS>  (1) 
EXPT01984

>  <COMMON_NAME>  (1) 
Bis-Napthyl Beta-Ketophosphonic Acid

$$$$
