
     RDKit          3D

 37 39  0  0  0  0  0  0  0  0999 V2000
   -1.5406    1.2580    0.1566 O   0  0  0  0  0  0  0  0  0  0  0  0
   -0.1149    2.9358    0.9492 O   0  0  0  0  0  0  0  0  0  0  0  0
   -1.1216   -1.4385    0.8806 O   0  0  0  0  0  0  0  0  0  0  0  0
    1.3908   -1.6868   -0.2804 O   0  0  0  0  0  0  0  0  0  0  0  0
    2.1555    1.0974    0.0273 O   0  0  0  0  0  0  0  0  0  0  0  0
   -4.0234    1.0659   -1.0482 O   0  0  0  0  0  0  0  0  0  0  0  0
    1.4259    0.6916    6.2992 O   0  0  0  0  0  0  0  0  0  0  0  0
   -2.1766    5.5330    4.6454 O   0  0  0  0  0  0  0  0  0  0  0  0
   -1.3860    4.6176    6.4791 O   0  0  0  0  0  0  0  0  0  0  0  0
    4.7481   -1.7603    2.2278 N   0  0  0  0  0  0  0  0  0  0  0  0
    3.7633   -3.4451    4.5693 N   0  0  0  0  0  0  0  0  0  0  0  0
    2.6166    0.5735    4.4322 N   0  0  0  0  0  0  0  0  0  0  0  0
    4.8186   -6.5599    2.6242 N   0  0  0  0  0  0  0  0  0  0  0  0
   -1.5798    4.6414    5.2559 N   0  0  0  0  0  0  0  0  0  0  0  0
   -0.9236   -0.9998   -0.4806 C   0  0  2  0  0  0  0  0  0  0  0  0
    0.5396   -0.5985   -0.6713 C   0  0  1  0  0  0  0  0  0  0  0  0
   -1.7889    0.2204   -0.8054 C   0  0  1  0  0  0  0  0  0  0  0  0
    0.8288    0.6234    0.1982 C   0  0  2  0  0  0  0  0  0  0  0  0
    3.3493   -2.0378    2.5279 C   0  0  0  0  0  0  0  0  0  0  0  0
    5.4877   -2.8628    2.7549 C   0  0  0  0  0  0  0  0  0  0  0  0
    3.1605   -2.2202    4.0664 C   0  0  0  0  0  0  0  0  0  0  0  0
    5.1992   -3.3782    4.2049 C   0  0  0  0  0  0  0  0  0  0  0  0
   -0.2166    1.7758    0.0680 C   0  0  1  0  0  0  0  0  0  0  0  0
    5.1847   -0.4929    2.7518 C   0  0  0  0  0  0  0  0  0  0  0  0
    2.9522   -4.5981    4.1685 C   0  0  0  0  0  0  0  0  0  0  0  0
   -3.2714   -0.1021   -0.7238 C   0  0  0  0  0  0  0  0  0  0  0  0
    4.1393    0.5219    2.4058 C   0  0  0  0  0  0  0  0  0  0  0  0
    2.8302   -5.0250    2.6916 C   0  0  0  0  0  0  0  0  0  0  0  0
    2.7580    0.3772    3.0193 C   0  0  0  0  0  0  0  0  0  0  0  0
    4.1184   -5.4598    1.9959 C   0  0  0  0  0  0  0  0  0  0  0  0
   -0.3478    2.8013    2.2897 C   0  0  0  0  0  0  0  0  0  0  0  0
    0.3751    1.9134    3.0245 C   0  0  0  0  0  0  0  0  0  0  0  0
    0.4978    1.7875    4.4049 C   0  0  0  0  0  0  0  0  0  0  0  0
    1.5058    0.9672    5.0763 C   0  0  0  0  0  0  0  0  0  0  0  0
   -1.0964    3.6510    3.0424 C   0  0  0  0  0  0  0  0  0  0  0  0
   -1.0153    3.5686    4.4666 C   0  0  0  0  0  0  0  0  0  0  0  0
   -0.2694    2.6107    5.1591 C   0  0  0  0  0  0  0  0  0  0  0  0
  1 17  1  0
  1 23  1  0
  2 31  1  0
  6 26  1  0
  7 34  2  0
  8 14  1  0
  9 14  2  0
 10 19  1  0
 10 20  1  0
 10 24  1  0
 11 21  1  0
 11 22  1  0
 11 25  1  0
 12 29  1  0
 12 34  1  0
 13 30  1  0
 14 36  1  0
 15  3  1  1
 15 16  1  0
 15 17  1  0
 16  4  1  1
 16 18  1  0
 17 26  1  1
 18  5  1  6
 18 23  1  0
 19 21  1  0
 20 22  1  0
 23  2  1  1
 24 27  1  0
 25 28  1  0
 27 29  1  0
 28 30  1  0
 31 32  2  0
 31 35  1  0
 32 33  1  0
 33 34  1  0
 33 37  2  0
 35 36  2  0
 36 37  1  0
M  CHG  2   8  -1  14   1
M  END
>  <DRUGBANK_ID>  (1) 
DB04073

>  <SECONDARY_ACCESSION_NUMBERS>  (1) 
EXPT00043

>  <COMMON_NAME>  (1) 
N-{3-[4-(3-amino-propyl)-piperazin-1-yl]-propyl}-3-nitro-5-(galactopyranosyl)-beta-benzamide

$$$$
