
     RDKit          3D

 18 18  0  0  0  0  0  0  0  0999 V2000
    1.1008    1.4489    0.1971 C   0  0  1  0  0  0  0  0  0  0  0  0
    1.2792   -0.0591    0.4125 C   0  0  2  0  0  0  0  0  0  0  0  0
    2.4656   -0.5531   -0.2338 O   0  0  0  0  0  0  0  0  0  0  0  0
    0.0369   -0.8014   -0.1314 C   0  0  1  0  0  0  0  0  0  0  0  0
    0.0433   -2.1599    0.3296 O   0  0  0  0  0  0  0  0  0  0  0  0
   -1.2677   -0.1010    0.2924 C   0  0  2  0  0  0  0  0  0  0  0  0
   -2.4122   -0.7355   -0.2788 O   0  0  0  0  0  0  0  0  0  0  0  0
   -1.2222    1.3956   -0.0469 C   0  0  2  0  0  0  0  0  0  0  0  0
   -0.1103    2.0115    0.6792 O   0  0  0  0  0  0  0  0  0  0  0  0
   -2.5056    2.1002    0.3770 C   0  0  0  0  0  0  0  0  0  0  0  0
   -2.4706    3.4645   -0.0419 O   0  0  0  0  0  0  0  0  0  0  0  0
    2.2385    2.2886    0.3695 N   0  0  0  0  0  0  0  0  0  0  0  0
    3.0269    2.7562   -0.6303 C   0  0  0  0  0  0  0  0  0  0  0  0
    4.0583    3.3909   -0.3253 O   0  0  0  0  0  0  0  0  0  0  0  0
    2.7313    2.5908   -1.9928 N   0  0  0  0  0  0  0  0  0  0  0  0
    1.8050    1.9045   -2.8227 C   0  0  0  0  0  0  0  0  0  0  0  0
    1.8566    2.1400   -4.2884 C   0  0  0  0  0  0  0  0  0  0  0  0
    0.9595    1.0555   -2.5254 O   0  0  0  0  0  0  0  0  0  0  0  0
  1  2  1  0
  1  9  1  0
  1 12  1  1
  2  3  1  6
  2  4  1  0
  4  5  1  1
  4  6  1  0
  6  7  1  6
  6  8  1  0
  8  9  1  0
  8 10  1  1
 10 11  1  0
 13 12  1  0
 13 14  2  0
 13 15  1  0
 16 15  1  0
 16 17  1  0
 16 18  2  0
M  END
>  <DRUGBANK_ID>  (1) 
DB03218

>  <SECONDARY_ACCESSION_NUMBERS>  (1) 
EXPT00600

>  <COMMON_NAME>  (1) 
N-acetyl-N'-beta-D-glucopyranosyl urea

$$$$
