
     RDKit          3D

 25 26  0  0  0  0  0  0  0  0999 V2000
    1.4585   -0.3630    0.8518 C   0  0  0  0  0  0  0  0  0  0  0  0
    1.0406    1.0306    2.6755 C   0  0  0  0  0  0  0  0  0  0  0  0
    0.2060    2.1288   -0.7433 C   0  0  0  0  0  0  0  0  0  0  0  0
   -0.8451    1.2767   -0.3825 C   0  0  0  0  0  0  0  0  0  0  0  0
   -0.8080   -1.8793    5.5692 C   0  0  0  0  0  0  0  0  0  0  0  0
    1.5369   -2.3953    5.8225 C   0  0  0  0  0  0  0  0  0  0  0  0
   -0.5147   -1.7868    4.2592 C   0  0  0  0  0  0  0  0  0  0  0  0
    1.8083   -2.1453    4.4864 C   0  0  0  0  0  0  0  0  0  0  0  0
    1.1307    1.5137   -1.5249 C   0  0  0  0  0  0  0  0  0  0  0  0
   -3.7985   -0.1491    0.0674 C   0  0  0  0  0  0  0  0  0  0  0  0
   -3.4455    0.8921    1.1725 C   0  0  0  0  0  0  0  0  0  0  0  0
   -0.0092   -0.6303   -1.5144 C   0  0  0  0  0  0  0  0  0  0  0  0
   -1.0355   -0.1807   -0.7150 C   0  0  0  0  0  0  0  0  0  0  0  0
    0.2419   -2.2270    6.3604 C   0  0  0  0  0  0  0  0  0  0  0  0
    0.7441   -1.7802    3.7291 C   0  0  0  0  0  0  0  0  0  0  0  0
   -1.8177   -1.4396    0.0015 C   0  0  0  0  0  0  0  0  0  0  0  0
   -1.3818   -0.0818    2.1399 C   0  0  0  0  0  0  0  0  0  0  0  0
    0.4380   -0.2428    2.0341 C   0  0  0  0  0  0  0  0  0  0  0  0
   -0.1162   -2.5240    7.9983 Cl  0  0  0  0  0  0  0  0  0  0  0  0
    1.0218    0.1967   -1.9645 N   0  0  0  0  0  0  0  0  0  0  0  0
   -1.2200   -2.4415    0.3995 O   0  0  0  0  0  0  0  0  0  0  0  0
   -2.2425   -0.8948    2.5533 O   0  0  0  0  0  0  0  0  0  0  0  0
   -3.1614   -1.3936    0.2337 O   0  0  0  0  0  0  0  0  0  0  0  0
   -2.0378    0.9900    1.6648 O   0  0  0  0  0  0  0  0  0  0  0  0
    0.9392   -1.5106    2.4547 O   0  0  0  0  0  0  0  0  0  0  0  0
  4  3  2  0
  7  5  2  0
  8  6  1  0
  9  3  1  0
 11 10  1  0
 13  4  1  0
 13 12  2  0
 14  5  1  0
 14  6  2  0
 15  7  1  0
 15  8  2  0
 16 13  1  0
 18  1  1  0
 18  2  1  0
 18 17  1  0
 19 14  1  0
 20  9  2  0
 20 12  1  0
 21 16  2  0
 22 17  2  0
 23 10  1  0
 23 16  1  0
 24 11  1  0
 24 17  1  0
 25 15  1  0
 25 18  1  0
M  END
>  <DRUGBANK_ID>  (1) 
DB08983

>  <COMMON_NAME>  (1) 
Etofibrate

>  <CAS_NUMBER>  (1) 
31637-97-5

>  <UNII>  (1) 
23TF67G79M

>  <SYNONYMS>  (1) 
Etofibrate; Etofibrato; Etofibratum

$$$$
