CS4
     RDKit          3D

 19 19  0  0  0  0  0  0  0  0999 V2000
    0.1690   -2.6532   -3.9852 O   0  0  0  0  0  0  0  0  0  0  0  0
    0.5901   -2.4050   -2.7208 C   0  0  0  0  0  0  0  0  0  0  0  0
    0.9605   -0.9348   -2.4725 C   0  0  1  0  0  0  0  0  0  0  0  0
    0.7397   -0.1123   -3.6771 N   0  0  0  0  0  0  0  0  0  0  0  0
    0.1205   -0.4291   -1.2889 C   0  0  0  0  0  0  0  0  0  0  0  0
    0.0189    1.4076   -1.0713 S   0  0  0  0  0  0  0  0  0  0  0  0
    1.7596    1.9653   -1.2499 C   0  0  0  0  0  0  0  0  0  0  0  0
    2.6629    1.6345   -0.0715 C   0  0  0  0  0  0  0  0  0  0  0  0
    2.9608    0.1646    0.1063 C   0  0  0  0  0  0  0  0  0  0  0  0
    2.1815   -0.6406    0.6172 O   0  0  0  0  0  0  0  0  0  0  0  0
    4.2898   -0.3808   -0.1452 C   0  0  0  0  0  0  0  0  0  0  0  0
    4.4536   -1.5640   -0.8804 C   0  0  0  0  0  0  0  0  0  0  0  0
    5.3092    0.1191    0.6553 C   0  0  0  0  0  0  0  0  0  0  0  0
    6.5099   -0.5734    0.7270 C   0  0  0  0  0  0  0  0  0  0  0  0
    6.6961   -1.7494   -0.0114 C   0  0  0  0  0  0  0  0  0  0  0  0
    8.2043   -2.5665    0.1661 Cl  0  0  0  0  0  0  0  0  0  0  0  0
    5.6723   -2.2375   -0.8316 C   0  0  0  0  0  0  0  0  0  0  0  0
    5.8385   -3.6755   -1.7748 Cl  0  0  0  0  0  0  0  0  0  0  0  0
    0.6580   -3.2886   -1.8793 O   0  0  0  0  0  0  0  0  0  0  0  0
  1  2  1  0
  2 19  2  0
  3  4  1  6
  3  5  1  0
  3  2  1  0
  5  6  1  0
  6  7  1  0
  7  8  1  0
  8  9  1  0
  9 11  1  0
  9 10  2  0
 11 13  2  0
 11 12  1  0
 12 17  2  0
 13 14  1  0
 14 15  2  0
 15 16  1  0
 15 17  1  0
 17 18  1  0
M  END
>  <DRUGBANK_ID>  (1) 
DB07590

>  <COMMON_NAME>  (1) 
S-[3-(3,4-DICHLOROPHENYL)-3-OXOPROPYL]-L-CYSTEINE

$$$$
