
     RDKit          3D

 20 20  0  0  0  0  0  0  0  0999 V2000
    3.0807    0.2357   -1.3020 O   0  0  0  0  0  0  0  0  0  0  0  0
    4.5176    0.0683   -1.5282 C   0  0  0  0  0  0  0  0  0  0  0  0
    5.0802   -1.2295   -0.9772 C   0  0  0  0  0  0  0  0  0  0  0  0
    4.6121   -2.5719   -1.5217 C   0  0  0  0  0  0  0  0  0  0  0  0
    5.3457    1.2839   -1.0098 C   0  0  0  0  0  0  0  0  0  0  0  0
    5.3351    1.3476    0.4686 C   0  0  0  0  0  0  0  0  0  0  0  0
    3.4428   -1.3893    1.9727 C   0  0  2  0  0  0  0  0  0  0  0  0
    2.5359   -1.3067    0.6865 C   0  0  2  0  0  0  0  0  0  0  0  0
    2.3477    0.0753   -0.0235 C   0  0  1  0  0  0  0  0  0  0  0  0
    2.3921    1.2820    0.9341 C   0  0  0  0  0  0  0  0  0  0  0  0
    3.0294    1.2356    2.1488 C   0  0  0  0  0  0  0  0  0  0  0  0
    3.6447   -0.0466    2.7019 C   0  0  0  0  0  0  0  0  0  0  0  0
    3.6136    2.5508    2.6409 C   0  0  0  0  0  0  0  0  0  0  0  0
    4.6180    2.4394    3.5473 O   0  0  0  0  0  0  0  0  0  0  0  0
    3.3782    3.6363    2.1330 O   0  0  0  0  0  0  0  0  0  0  0  0
    4.7141   -2.1841    1.8334 N   0  0  0  0  0  0  0  0  0  0  0  0
    1.2610   -1.9329    0.9556 N   0  0  0  0  0  0  0  0  0  0  0  0
    0.3808   -1.2815    1.7791 C   0  0  0  0  0  0  0  0  0  0  0  0
   -0.9237   -1.9556    1.9376 C   0  0  0  0  0  0  0  0  0  0  0  0
    0.6016   -0.2380    2.3401 O   0  0  0  0  0  0  0  0  0  0  0  0
  2  1  1  0
  3  2  1  0
  4  3  1  0
  5  2  1  0
  6  5  1  0
  7 16  1  6
  8  7  1  0
  8 17  1  1
  9  8  1  0
  9  1  1  6
 10  9  1  0
 11 10  2  0
 12  7  1  0
 12 11  1  0
 13 11  1  0
 14 13  1  0
 15 13  2  0
 18 17  1  0
 19 18  1  0
 20 18  2  0
M  END
>  <DRUGBANK_ID>  (1) 
DB02600

>  <SECONDARY_ACCESSION_NUMBERS>  (1) 
EXPT01528

>  <COMMON_NAME>  (1) 
Oseltamivir acid

>  <CAS_NUMBER>  (1) 
187227-45-8

>  <UNII>  (1) 
K6106LV5Q8

>  <SYNONYMS>  (1) 
Oseltamivir carboxylate; Oseltamivir free acid

$$$$
