
     RDKit          3D

 24 26  0  0  0  0  0  0  0  0999 V2000
   -3.4898    0.0782    0.1198 C   0  0  0  0  0  0  0  0  0  0  0  0
   -2.0367   -0.2755    0.0432 C   0  0  0  0  0  0  0  0  0  0  0  0
   -1.0661    0.8406   -0.0133 C   0  0  0  0  0  0  0  0  0  0  0  0
   -1.4238    2.0148   -0.0763 O   0  0  0  0  0  0  0  0  0  0  0  0
    0.3590    0.4943    0.0168 C   0  0  0  0  0  0  0  0  0  0  0  0
    1.3233    1.5031    0.0435 C   0  0  0  0  0  0  0  0  0  0  0  0
    2.6759    1.1723    0.0813 C   0  0  0  0  0  0  0  0  0  0  0  0
    3.0766   -0.1666    0.0717 C   0  0  0  0  0  0  0  0  0  0  0  0
    2.1002   -1.1916    0.0261 C   0  0  0  0  0  0  0  0  0  0  0  0
    0.7332   -0.8442    0.0204 C   0  0  0  0  0  0  0  0  0  0  0  0
   -0.2015   -1.8542    0.0083 O   0  0  0  0  0  0  0  0  0  0  0  0
   -1.5479   -1.5310    0.0467 C   0  0  0  0  0  0  0  0  0  0  0  0
   -2.4359   -2.7120    0.0685 C   0  0  0  0  0  0  0  0  0  0  0  0
   -3.3691   -2.9115   -0.9614 C   0  0  0  0  0  0  0  0  0  0  0  0
   -4.2231   -4.0133   -0.9560 C   0  0  0  0  0  0  0  0  0  0  0  0
   -4.1140   -4.9654    0.0517 C   0  0  0  0  0  0  0  0  0  0  0  0
   -3.1641   -4.8043    1.0604 C   0  0  0  0  0  0  0  0  0  0  0  0
   -2.3585   -3.6606    1.0956 C   0  0  0  0  0  0  0  0  0  0  0  0
    2.5105   -2.6491   -0.0880 C   0  0  0  0  0  0  0  0  0  0  0  0
    3.2780   -2.9374   -1.3145 N   0  0  0  0  0  0  0  0  0  0  0  0
    3.6833   -4.3394   -1.3343 C   0  0  0  0  0  0  0  0  0  0  0  0
    2.5135   -2.6105   -2.5172 C   0  0  0  0  0  0  0  0  0  0  0  0
    4.3886   -0.5663    0.0959 O   0  0  0  0  0  0  0  0  0  0  0  0
    5.3866    0.4465    0.0854 C   0  0  0  0  0  0  0  0  0  0  0  0
  1  2  1  0
  2  3  1  0
  2 12  2  0
  3  4  2  0
  3  5  1  0
  5  6  2  0
  5 10  1  0
  6  7  1  0
  7  8  2  0
  8  9  1  0
  8 23  1  0
  9 10  2  0
  9 19  1  0
 10 11  1  0
 11 12  1  0
 12 13  1  0
 13 14  2  0
 13 18  1  0
 14 15  1  0
 15 16  2  0
 16 17  1  0
 17 18  2  0
 19 20  1  0
 20 21  1  0
 20 22  1  0
 23 24  1  0
M  END
>  <DRUGBANK_ID>  (1) 
DB13482

>  <COMMON_NAME>  (1) 
Dimefline

>  <CAS_NUMBER>  (1) 
1165-48-6

>  <UNII>  (1) 
9WII5M0DU3

>  <SYNONYMS>  (1) 
Dimefline

$$$$
