
     RDKit          3D

 34 36  0  0  0  0  0  0  0  0999 V2000
   -1.1501   -0.5985   -0.1298 C   0  0  0  0  0  0  0  0  0  0  0  0
    0.0590   -1.3254   -0.2012 C   0  0  0  0  0  0  0  0  0  0  0  0
    1.2380   -0.5903   -0.2614 C   0  0  0  0  0  0  0  0  0  0  0  0
    1.1008    0.8000   -0.2336 C   0  0  0  0  0  0  0  0  0  0  0  0
   -0.0063    1.4211   -0.3536 O   0  0  0  0  0  0  0  0  0  0  0  0
   -1.0977    0.7864   -0.1693 C   0  0  0  0  0  0  0  0  0  0  0  0
   -2.3331    1.5034   -0.0760 C   0  0  0  0  0  0  0  0  0  0  0  0
   -3.6417    0.8856    0.0186 C   0  0  0  0  0  0  0  0  0  0  0  0
   -3.6600   -0.5130    0.0144 C   0  0  0  0  0  0  0  0  0  0  0  0
   -2.4265   -1.1974   -0.0109 C   0  0  0  0  0  0  0  0  0  0  0  0
    2.5360   -1.1672   -0.2261 C   0  0  0  0  0  0  0  0  0  0  0  0
    3.7017   -0.3983   -0.0849 C   0  0  0  0  0  0  0  0  0  0  0  0
    3.5832    1.0016   -0.0205 C   0  0  0  0  0  0  0  0  0  0  0  0
    2.2779    1.5589   -0.1067 C   0  0  0  0  0  0  0  0  0  0  0  0
    4.9945   -1.1718    0.0629 C   0  0  0  0  0  0  0  0  0  0  0  0
   -4.8046   -1.4948    0.0528 C   0  0  0  0  0  0  0  0  0  0  0  0
   -4.7614    1.7081    0.1061 N   0  0  0  0  0  0  0  0  0  0  0  0
   -6.1790    1.3580    0.1269 C   0  0  0  0  0  0  0  0  0  0  0  0
   -6.8491    1.6250    1.4586 C   0  0  0  0  0  0  0  0  0  0  0  0
    4.7139    1.7869    0.1314 N   0  0  0  0  0  0  0  0  0  0  0  0
    4.7433    3.2340    0.1916 C   0  0  0  0  0  0  0  0  0  0  0  0
    5.3789    3.6916    1.4898 C   0  0  0  0  0  0  0  0  0  0  0  0
    0.0444   -2.8005   -0.1293 C   0  0  0  0  0  0  0  0  0  0  0  0
   -0.1929   -5.5653    0.2705 C   0  0  0  0  0  0  0  0  0  0  0  0
    0.5905   -4.8413    1.1323 C   0  0  0  0  0  0  0  0  0  0  0  0
    0.6374   -3.4585    0.9828 C   0  0  0  0  0  0  0  0  0  0  0  0
   -0.6689   -3.5628   -1.0700 C   0  0  0  0  0  0  0  0  0  0  0  0
   -0.9314   -4.8918   -0.6968 C   0  0  0  0  0  0  0  0  0  0  0  0
   -1.0565   -2.8961   -2.4121 C   0  0  0  0  0  0  0  0  0  0  0  0
   -1.6200   -3.5916   -3.4318 O   0  0  0  0  0  0  0  0  0  0  0  0
   -1.8130   -4.9983   -3.4584 C   0  0  0  0  0  0  0  0  0  0  0  0
   -0.8065   -1.7267   -2.6389 O   0  0  0  0  0  0  0  0  0  0  0  0
    0.3427    0.0755    3.0212 Cl  0  0  0  0  0  0  0  0  0  0  0  0
   -0.4768   -5.7370   -3.3823 C   0  0  0  0  0  0  0  0  0  0  0  0
  1  2  1  0
  1  6  2  0
  1 10  1  0
  2  3  2  0
  2 23  1  0
  3  4  1  0
  4  5  2  0
  5  6  1  0
  6  7  1  0
  7  8  2  0
  8  9  1  0
  8 17  1  0
  9 10  2  0
  9 16  1  0
 11  3  1  0
 11 12  2  0
 12 13  1  0
 12 15  1  0
 13 14  2  0
 13 20  1  0
 14  4  1  0
 17 18  1  0
 18 19  1  0
 20 21  1  0
 21 22  1  0
 23 27  1  0
 24 25  2  0
 24 28  1  0
 25 26  1  0
 26 23  2  0
 27 28  2  0
 27 29  1  0
 29 30  1  0
 29 32  2  0
 30 31  1  0
 31 34  1  0
M  CHG  2   5   1  33  -1
M  END
>  <DRUGBANK_ID>  (1) 
DB03825

>  <SECONDARY_ACCESSION_NUMBERS>  (1) 
EXPT02782

>  <COMMON_NAME>  (1) 
Rhodamine 6G

>  <CAS_NUMBER>  (1) 
989-38-8

>  <UNII>  (1) 
037VRW83CF

>  <SYNONYMS>  (1) 
Basic red 1; Calcozine rhodamine 6GX; CI basic red 1; R6G

$$$$
