
     RDKit          3D

 23 25  0  0  0  0  0  0  0  0999 V2000
    0.6537    0.4855   -0.0125 C   0  0  0  0  0  0  0  0  0  0  0  0
    0.0295   -0.1378    1.1465 N   0  0  0  0  0  0  0  0  0  0  0  0
   -1.3939   -0.0212    1.2014 C   0  0  0  0  0  0  0  0  0  0  0  0
    0.3630   -1.5244    1.3879 C   0  0  0  0  0  0  0  0  0  0  0  0
    0.3177   -2.6967    0.4279 C   0  0  0  0  0  0  0  0  0  0  0  0
    1.2595   -2.5008   -0.7719 C   0  0  0  0  0  0  0  0  0  0  0  0
    2.7112   -2.5062   -0.5705 O   0  0  0  0  0  0  0  0  0  0  0  0
    3.3407   -1.6000    0.2514 C   0  0  0  0  0  0  0  0  0  0  0  0
    4.1131   -0.6469   -0.3141 N   0  0  0  0  0  0  0  0  0  0  0  0
    4.5254    0.1339    0.7534 N   0  0  0  0  0  0  0  0  0  0  0  0
    5.4428    1.2809    0.5611 C   0  0  0  0  0  0  0  0  0  0  0  0
    4.8518    2.6662    0.8209 C   0  0  0  0  0  0  0  0  0  0  0  0
    4.3102    3.0521    2.0523 C   0  0  0  0  0  0  0  0  0  0  0  0
    3.5591    4.2041    2.2430 C   0  0  0  0  0  0  0  0  0  0  0  0
    3.5503    5.1538    1.2494 C   0  0  0  0  0  0  0  0  0  0  0  0
    4.2894    4.9216    0.0906 C   0  0  0  0  0  0  0  0  0  0  0  0
    4.8874    3.6705   -0.1494 C   0  0  0  0  0  0  0  0  0  0  0  0
    4.0389   -0.3284    1.9619 C   0  0  0  0  0  0  0  0  0  0  0  0
    4.0809    0.1821    3.2839 C   0  0  0  0  0  0  0  0  0  0  0  0
    3.1041   -0.2418    4.1802 C   0  0  0  0  0  0  0  0  0  0  0  0
    2.4466   -1.4121    3.9332 C   0  0  0  0  0  0  0  0  0  0  0  0
    2.7739   -2.1918    2.7978 C   0  0  0  0  0  0  0  0  0  0  0  0
    3.4047   -1.5160    1.6974 C   0  0  0  0  0  0  0  0  0  0  0  0
  1  2  1  0
  2  3  1  0
  2  4  1  0
  4  5  1  0
  5  6  1  0
  6  7  1  0
  7  8  1  0
  8  9  2  0
  8 23  1  0
  9 10  1  0
 10 11  1  0
 10 18  1  0
 11 12  1  0
 12 13  2  0
 12 17  1  0
 13 14  1  0
 14 15  2  0
 15 16  1  0
 16 17  2  0
 18 19  1  0
 18 23  2  0
 19 20  2  0
 20 21  1  0
 21 22  2  0
 22 23  1  0
M  END
>  <DRUGBANK_ID>  (1) 
DB09084

>  <COMMON_NAME>  (1) 
Benzydamine

>  <CAS_NUMBER>  (1) 
642-72-8

>  <UNII>  (1) 
4O21U048EF

>  <SYNONYMS>  (1) 
Bencidamina; Benzydamine; Benzydaminum

$$$$
