
     RDKit          3D

 23 23  0  0  0  0  0  0  0  0999 V2000
    0.1447    8.7776    6.0386 C   0  0  0  0  0  0  0  0  0  0  0  0
    0.5970    8.0511    7.3076 C   0  0  0  0  0  0  0  0  0  0  0  0
    0.7537    8.8143    8.4357 N   0  0  0  0  0  0  0  0  0  0  0  0
    0.5527   10.1539    8.5019 C   0  0  0  0  0  0  0  0  0  0  0  0
    0.1622   10.7451    7.3465 N   0  0  0  0  0  0  0  0  0  0  0  0
   -0.0389   10.1084    6.1517 C   0  0  0  0  0  0  0  0  0  0  0  0
   -0.4611   11.0809    5.0990 C   0  0  0  0  0  0  0  0  0  0  0  0
    0.7075   10.8089    9.5259 O   0  0  0  0  0  0  0  0  0  0  0  0
    0.8186    6.8431    7.3473 O   0  0  0  0  0  0  0  0  0  0  0  0
   -0.0132    8.0125    4.8003 C   0  0  0  0  0  0  0  0  0  0  0  0
   -0.4545    8.4377    3.6007 C   0  0  0  0  0  0  0  0  0  0  0  0
   -0.4806    7.7108    2.3471 C   0  0  0  0  0  0  0  0  0  0  0  0
   -1.1289    8.2813    1.2726 N   0  0  0  0  0  0  0  0  0  0  0  0
   -1.3715    7.4666    0.0627 C   0  0  2  0  0  0  0  0  0  0  0  0
   -0.4871    6.1884   -0.0090 C   0  0  0  0  0  0  0  0  0  0  0  0
   -0.9232    4.5703    0.7161 S   0  0  0  0  0  0  0  0  0  0  0  0
    0.3571    3.6662    0.6033 O   0  0  0  0  0  0  0  0  0  0  0  0
   -1.4523    4.6670    2.4446 C   0  0  0  0  0  0  0  0  0  0  0  0
   -0.4733    4.6677    3.9863 S   0  0  0  0  0  0  0  0  0  0  0  0
    1.2756    4.6025    3.4763 C   0  0  0  0  0  0  0  0  0  0  0  0
   -1.0425    8.3249   -1.2017 C   0  0  0  0  0  0  0  0  0  0  0  0
   -1.4532    7.6833   -2.4061 O   0  0  0  0  0  0  0  0  0  0  0  0
    0.1593    6.7124    2.2797 O   0  0  0  0  0  0  0  0  0  0  0  0
  2  1  1  0
  3  2  1  0
  4  3  1  0
  4  5  1  0
  5  6  1  0
  6  1  2  0
  7  6  1  0
  8  4  2  0
  9  2  2  0
 10  1  1  0
 11 10  2  0
 12 11  1  0
 13 12  1  0
 14 21  1  6
 14 15  1  0
 14 13  1  0
 16 15  1  0
 16 17  1  1
 18 16  1  0
 19 18  1  0
 20 19  1  0
 22 21  1  0
 23 12  2  0
M  CHG  2  16   1  17  -1
M  END
>  <DRUGBANK_ID>  (1) 
DB04222

>  <SECONDARY_ACCESSION_NUMBERS>  (1) 
EXPT02949

>  <COMMON_NAME>  (1) 
Sparsomycin

>  <CAS_NUMBER>  (1) 
1404-64-4

>  <UNII>  (1) 
6C940P63E7

>  <SYNONYMS>  (1) 
Esparsomicina; Sparsomycin; Sparsomycine; Sparsomycinum

$$$$
