
     RDKit          3D

 31 35  0  0  0  0  0  0  0  0999 V2000
    2.8213    0.7847    0.1037 C   0  0  0  0  0  0  0  0  0  0  0  0
    3.0625   -0.5613   -0.0322 C   0  0  0  0  0  0  0  0  0  0  0  0
    1.9675   -1.4745   -0.0244 C   0  0  0  0  0  0  0  0  0  0  0  0
    1.5116    1.0863    0.3988 C   0  0  0  0  0  0  0  0  0  0  0  0
    0.3898    0.2916    0.1999 C   0  0  0  0  0  0  0  0  0  0  0  0
    0.6224   -1.0463    0.0242 C   0  0  0  0  0  0  0  0  0  0  0  0
   -1.8023   -1.4209   -0.0363 C   0  0  0  0  0  0  0  0  0  0  0  0
   -2.0495    0.0377    0.0170 C   0  0  0  0  0  0  0  0  0  0  0  0
   -0.9259    0.8020    0.1818 N   0  0  0  0  0  0  0  0  0  0  0  0
   -3.1631    0.5135   -0.0388 O   0  0  0  0  0  0  0  0  0  0  0  0
    3.8076    1.7287   -0.0308 O   0  0  0  0  0  0  0  0  0  0  0  0
    3.5101    3.1620   -0.0579 C   0  0  0  0  0  0  0  0  0  0  0  0
    2.7844    3.7175   -1.3154 C   0  0  0  0  0  0  0  0  0  0  0  0
    1.3288    3.2783   -1.4816 C   0  0  0  0  0  0  0  0  0  0  0  0
    0.4592    3.6979   -0.2922 C   0  0  0  0  0  0  0  0  0  0  0  0
    0.4119    5.0581    0.0617 N   0  0  0  0  0  0  0  0  0  0  0  0
   -0.1533    5.9389   -0.9366 C   0  0  0  0  0  0  0  0  0  0  0  0
    0.3049    7.3286   -0.5024 C   0  0  0  0  0  0  0  0  0  0  0  0
   -0.1004    7.5763    0.8838 N   0  0  0  0  0  0  0  0  0  0  0  0
    0.2933    6.5847    1.8832 C   0  0  0  0  0  0  0  0  0  0  0  0
   -0.2005    5.2357    1.4010 C   0  0  0  0  0  0  0  0  0  0  0  0
   -0.8488    8.6544    1.2577 C   0  0  0  0  0  0  0  0  0  0  0  0
   -0.3490    9.5444    2.2435 C   0  0  0  0  0  0  0  0  0  0  0  0
   -1.1152   10.6475    2.6101 C   0  0  0  0  0  0  0  0  0  0  0  0
   -2.3808   10.8826    2.0422 C   0  0  0  0  0  0  0  0  0  0  0  0
   -2.8672    9.9915    1.0848 C   0  0  0  0  0  0  0  0  0  0  0  0
   -2.1068    8.8999    0.6900 C   0  0  0  0  0  0  0  0  0  0  0  0
   -0.5547   -1.9192   -0.0217 C   0  0  0  0  0  0  0  0  0  0  0  0
    0.9063    9.5217    2.9481 C   0  0  0  0  0  0  0  0  0  0  0  0
    1.0581   10.5745    3.8110 C   0  0  0  0  0  0  0  0  0  0  0  0
   -0.2976   11.6062    3.7878 S   0  0  0  0  0  0  0  0  0  0  0  0
  1 11  1  0
  1  2  2  0
  2  3  1  0
  3  6  2  0
  4  1  1  0
  5  4  2  0
  5  6  1  0
  6 28  1  0
  7  8  1  0
  8  9  1  0
  8 10  2  0
  9  5  1  0
 11 12  1  0
 12 13  1  0
 13 14  1  0
 14 15  1  0
 15 16  1  0
 16 17  1  0
 17 18  1  0
 18 19  1  0
 19 20  1  0
 19 22  1  0
 20 21  1  0
 21 16  1  0
 22 23  2  0
 23 24  1  0
 23 29  1  0
 24 25  2  0
 24 31  1  0
 25 26  1  0
 26 27  2  0
 27 22  1  0
 28  7  2  0
 29 30  2  0
 30 31  1  0
M  END
>  <DRUGBANK_ID>  (1) 
DB09128

>  <COMMON_NAME>  (1) 
Brexpiprazole

>  <CAS_NUMBER>  (1) 
913611-97-9

>  <UNII>  (1) 
2J3YBM1K8C

>  <SYNONYMS>  (1) 
Brexpiprazole; Lu-AF41156

$$$$
