ESX
     RDKit          3D

 12 13  0  0  0  0  0  0  0  0999 V2000
    1.0696   -0.0007   -0.0144 C   0  0  0  0  0  0  0  0  0  0  0  0
    0.3832    0.6935    1.0582 C   0  0  0  0  0  0  0  0  0  0  0  0
    0.3800   -0.6298   -0.9403 N   0  0  0  0  0  0  0  0  0  0  0  0
    2.3821    0.0134   -0.0183 N   0  0  0  0  0  0  0  0  0  0  0  0
    0.8186    2.2563    1.5868 S   0  0  0  0  0  0  0  0  0  0  0  0
   -0.3571    2.2550    2.8476 C   0  0  0  0  0  0  0  0  0  0  0  0
   -1.0831    1.0605    2.8556 C   0  0  0  0  0  0  0  0  0  0  0  0
   -0.6487    0.1722    1.8069 C   0  0  0  0  0  0  0  0  0  0  0  0
   -0.6066    3.2755    3.7890 C   0  0  0  0  0  0  0  0  0  0  0  0
   -1.5999    3.0815    4.7529 C   0  0  0  0  0  0  0  0  0  0  0  0
   -2.3314    1.9033    4.7826 C   0  0  0  0  0  0  0  0  0  0  0  0
   -2.0815    0.8941    3.8469 C   0  0  0  0  0  0  0  0  0  0  0  0
  1  2  1  0
  1  3  1  0
  1  4  2  0
  2  5  1  0
  2  8  2  0
  5  6  1  0
  6  7  2  0
  6  9  1  0
  7  8  1  0
  7 12  1  0
  9 10  2  0
 10 11  1  0
 11 12  2  0
M  CHG  1   4   1
M  END
>  <DRUGBANK_ID>  (1) 
DB04446

>  <SECONDARY_ACCESSION_NUMBERS>  (1) 
EXPT01365

>  <COMMON_NAME>  (1) 
Benzo[B]Thiophene-2-Carboxamidine

$$$$
