
     RDKit          3D

 25 28  0  0  1  0  0  0  0  0999 V2000
   -0.8427  -28.2513  -14.8825 C   0  0  0  0  0  0  0  0  0  0  0  0
   -3.7202  -20.4927  -16.2824 C   0  0  0  0  0  0  0  0  0  0  0  0
   -2.6894  -26.2782  -13.4568 C   0  0  0  0  0  0  0  0  0  0  0  0
   -6.1308  -18.2812  -13.5451 C   0  0  0  0  0  0  0  0  0  0  0  0
   -1.6741  -21.7564  -14.1776 C   0  0  0  0  0  0  0  0  0  0  0  0
   -2.7553  -23.9343  -13.2734 C   0  0  0  0  0  0  0  0  0  0  0  0
   -4.4025  -18.7937  -13.9568 C   0  0  0  0  0  0  0  0  0  0  0  0
   -0.9502  -23.1293  -13.1487 C   0  0  0  0  0  0  0  0  0  0  0  0
   -1.4392  -24.2679  -14.8093 C   0  0  0  0  0  0  0  0  0  0  0  0
   -6.3234  -19.6574  -15.4243 C   0  0  0  0  0  0  0  0  0  0  0  0
   -5.4266  -22.9782  -14.5589 C   0  0  0  0  0  0  0  0  0  0  0  0
   -1.1646  -26.8589  -15.4204 C   0  0  0  0  0  0  0  0  0  0  0  0
   -7.0601  -19.1648  -14.2918 C   0  0  0  0  0  0  0  0  0  0  0  0
   -3.9438  -22.8938  -14.7325 C   0  0  1  0  0  0  0  0  0  0  0  0
   -3.3056  -21.5710  -14.0481 C   0  0  2  0  0  0  0  0  0  0  0  0
   -3.4631  -24.2703  -14.4006 C   0  0  1  0  0  0  0  0  0  0  0  0
   -5.6110  -20.6476  -14.8483 C   0  0  0  0  0  0  0  0  0  0  0  0
   -6.2094  -21.9036  -14.5448 C   0  0  0  0  0  0  0  0  0  0  0  0
   -4.1183  -20.3650  -14.7262 C   0  0  2  0  0  0  0  0  0  0  0  0
   -1.9125  -24.8506  -13.7011 C   0  0  2  0  0  0  0  0  0  0  0  0
   -0.8438  -25.5739  -14.4648 C   0  0  2  0  0  0  0  0  0  0  0  0
   -7.9105  -22.1729  -14.4952 Cl  0  0  0  0  0  0  0  0  0  0  0  0
   -1.8404  -26.7828  -16.4551 O   0  0  0  0  0  0  0  0  0  0  0  0
   -8.3412  -19.2272  -14.3089 O   0  0  0  0  0  0  0  0  0  0  0  0
    0.1073  -25.6907  -13.4240 O   0  0  0  0  0  0  0  0  0  0  0  0
  7  4  1  0
  8  5  1  0
  9  6  1  0
 12  1  1  0
 13  4  1  0
 13 10  1  0
 14 11  1  1
 15  5  1  6
 15 14  1  0
 16  6  1  1
 16 14  1  0
 17 10  2  0
 18 11  2  0
 18 17  1  0
 19  7  1  0
 19 15  1  0
 19 17  1  0
 19  2  1  6
 20  8  1  0
 20 16  1  0
 20  3  1  1
 21  9  1  0
 21 20  1  0
 21 25  1  1
 21 12  1  0
 22 18  1  0
 23 12  2  0
 24 13  2  0
M  END
>  <DRUGBANK_ID>  (1) 
DB13528

>  <COMMON_NAME>  (1) 
Chlormadinone

>  <CAS_NUMBER>  (1) 
1961-77-9

>  <UNII>  (1) 
SDS4N642GG

>  <SYNONYMS>  (1) 
Chlormadinone

$$$$
