
     RDKit          3D

 32 34  0  0  0  0  0  0  0  0999 V2000
   -0.5869    4.2719    1.3095 P   0  0  0  0  0  0  0  0  0  0  0  0
    4.1405    0.5617    2.4331 P   0  0  1  0  0  0  0  0  0  0  0  0
    4.8846   -2.1352    2.8255 P   0  0  0  0  0  0  0  0  0  0  0  0
    2.7366    2.9199    1.2481 O   0  0  0  0  0  0  0  0  0  0  0  0
   -0.4172    3.0757    0.1997 O   0  0  0  0  0  0  0  0  0  0  0  0
    2.0447    5.3345   -0.5174 O   0  0  0  0  0  0  0  0  0  0  0  0
    2.4921    0.1552    2.7654 O   0  0  0  0  0  0  0  0  0  0  0  0
   -0.7945    5.5166    0.2851 O   0  0  0  0  0  0  0  0  0  0  0  0
    1.1128    4.5530    1.1520 O   0  0  0  0  0  0  0  0  0  0  0  0
   -2.1081    4.0202    1.4505 O   0  0  0  0  0  0  0  0  0  0  0  0
    4.3620   -0.9695    1.6590 O   0  0  0  0  0  0  0  0  0  0  0  0
    3.7979    1.2513    1.0877 O   0  0  0  0  0  0  0  0  0  0  0  0
    5.6159    0.9255    2.1357 O   0  0  0  0  0  0  0  0  0  0  0  0
    5.4975    2.3554   -5.4286 O   0  0  0  0  0  0  0  0  0  0  0  0
    3.5100   -1.8473    3.6505 O   0  0  0  0  0  0  0  0  0  0  0  0
    4.2656   -3.2319    1.7782 O   0  0  0  0  0  0  0  0  0  0  0  0
    5.3524   -3.1785    3.8696 O   0  0  0  0  0  0  0  0  0  0  0  0
    3.8018    2.7420   -1.2294 N   0  0  0  0  0  0  0  0  0  0  0  0
    3.5227    4.6587   -2.7782 N   0  0  0  0  0  0  0  0  0  0  0  0
    4.9119    1.4258   -2.6315 N   0  0  0  0  0  0  0  0  0  0  0  0
    4.3453    4.3088   -4.9700 N   0  0  0  0  0  0  0  0  0  0  0  0
    3.2019    6.2341   -4.3959 N   0  0  0  0  0  0  0  0  0  0  0  0
    0.8842    2.6350   -0.0652 C   0  0  1  0  0  0  0  0  0  0  0  0
    1.8123    3.8644   -0.7374 C   0  0  2  0  0  0  0  0  0  0  0  0
    3.1074    3.4220   -0.1533 C   0  0  1  0  0  0  0  0  0  0  0  0
    1.5137    2.0932    1.2492 C   0  0  1  0  0  0  0  0  0  0  0  0
    1.6167    0.5077    1.5865 C   0  0  0  0  0  0  0  0  0  0  0  0
    3.9501    3.4291   -2.4165 C   0  0  0  0  0  0  0  0  0  0  0  0
    4.4316    1.5554   -1.4099 C   0  0  0  0  0  0  0  0  0  0  0  0
    4.6058    2.5994   -3.2707 C   0  0  0  0  0  0  0  0  0  0  0  0
    4.8614    3.0572   -4.6252 C   0  0  0  0  0  0  0  0  0  0  0  0
    3.7188    5.0258   -4.0786 C   0  0  0  0  0  0  0  0  0  0  0  0
  1  5  1  0
  1  8  1  0
  1  9  1  0
  1 10  2  0
  2  7  1  0
  2 11  1  0
  2 12  1  6
  2 13  2  0
  3 11  1  0
  3 15  1  0
  3 16  1  0
  3 17  2  0
  4 25  1  0
  4 26  1  0
  7 27  1  0
 14 31  2  0
 18 28  1  0
 18 29  1  0
 19 28  1  0
 19 32  1  0
 20 29  2  0
 20 30  1  0
 21 31  1  0
 21 32  2  0
 22 32  1  0
 23 24  1  0
 23 26  1  0
 23  5  1  1
 24  6  1  1
 24 25  1  0
 25 18  1  6
 26 27  1  6
 28 30  2  0
 30 31  1  0
M  END
>  <DRUGBANK_ID>  (1) 
DB04121

>  <SECONDARY_ACCESSION_NUMBERS>  (1) 
EXPT01529

>  <COMMON_NAME>  (1) 
Guanosine-3'-monophosphate-5'-diphosphate

>  <SYNONYMS>  (1) 
Guanosine 3'-(dihydrogen phosphate) 5'-(trihydrogen diphosphate)

$$$$
