
     RDKit          3D

 27 26  0  0  1  0  0  0  0  0999 V2000
    5.3255    2.7382    7.2971 C   0  0  0  0  0  0  0  0  0  0  0  0
    3.9408    2.9892    6.7986 C   0  0  0  0  0  0  0  0  0  0  0  0
    3.7287    3.0269    5.3039 C   0  0  0  0  0  0  0  0  0  0  0  0
    2.9201    3.1372    7.6650 C   0  0  0  0  0  0  0  0  0  0  0  0
    3.0039    3.2729    9.1763 C   0  0  0  0  0  0  0  0  0  0  0  0
    2.6533    4.6693    9.7700 C   0  0  0  0  0  0  0  0  0  0  0  0
    1.1968    5.0789    9.6065 C   0  0  0  0  0  0  0  0  0  0  0  0
    0.3050    5.3276   10.7663 C   0  0  0  0  0  0  0  0  0  0  0  0
    0.7296    5.2360    8.3810 C   0  0  0  0  0  0  0  0  0  0  0  0
   -0.6053    5.5827    7.8336 C   0  0  0  0  0  0  0  0  0  0  0  0
   -0.4838    6.8456    6.9759 C   0  0  0  0  0  0  0  0  0  0  0  0
    0.3506    6.7435    5.6992 C   0  0  0  0  0  0  0  0  0  0  0  0
   -0.2442    7.0097    4.5540 C   0  0  0  0  0  0  0  0  0  0  0  0
    0.2788    6.7355    3.1923 C   0  0  0  0  0  0  0  0  0  0  0  0
   -0.4924    5.6570    2.7996 O   0  0  0  0  0  0  0  0  0  0  0  0
   -2.0327    5.9413    2.5811 P   0  0  2  0  0  0  0  0  0  0  0  0
   -1.9319    6.6477    1.1466 O   0  0  0  0  0  0  0  0  0  0  0  0
   -2.8325    6.8398    3.4705 O   0  0  0  0  0  0  0  0  0  0  0  0
   -2.5623    4.4436    2.6850 O   0  0  0  0  0  0  0  0  0  0  0  0
   -4.2522    4.2985    2.3443 P   0  0  0  0  0  0  0  0  0  0  0  0
   -4.1475    5.5369    1.2927 O   0  0  0  0  0  0  0  0  0  0  0  0
   -3.7829    3.1245    1.3031 O   0  0  0  0  0  0  0  0  0  0  0  0
   -5.7647    4.1687    2.0394 O   0  0  0  0  0  0  0  0  0  0  0  0
    1.7895    6.3530    5.7061 C   0  0  0  0  0  0  0  0  0  0  0  0
    2.4643    6.9654    6.6972 F   0  0  0  0  0  0  0  0  0  0  0  0
    1.8793    5.0170    5.8164 F   0  0  0  0  0  0  0  0  0  0  0  0
    2.4745    6.6511    4.5734 F   0  0  0  0  0  0  0  0  0  0  0  0
  1  2  1  0
  2  3  1  0
  2  4  2  3
  4  5  1  0
  5  6  1  0
  6  7  1  0
  7  8  1  0
  7  9  2  0
  9 10  1  0
 10 11  1  0
 11 12  1  0
 12 13  2  0
 12 24  1  0
 13 14  1  0
 14 15  1  0
 16 18  2  0
 16 19  1  0
 16 17  1  0
 16 15  1  0
 19 20  1  0
 20 21  1  0
 20 22  1  0
 20 23  2  0
 24 25  1  0
 24 26  1  0
 24 27  1  0
M  END
>  <DRUGBANK_ID>  (1) 
DB02808

>  <SECONDARY_ACCESSION_NUMBERS>  (1) 
EXPT01427

>  <COMMON_NAME>  (1) 
Trifluorofurnesyl Diphosphate

$$$$
