
     RDKit          3D

 19 20  0  0  0  0  0  0  0  0999 V2000
    1.7550   -0.6660   -0.8335 C   0  0  0  0  0  0  0  0  0  0  0  0
   -0.7847   -0.7234   -1.6871 C   0  0  0  0  0  0  0  0  0  0  0  0
   -0.2510    0.5417    3.2391 C   0  0  0  0  0  0  0  0  0  0  0  0
    5.1921    3.4729   -3.9282 C   0  0  0  0  0  0  0  0  0  0  0  0
   -0.1177   -0.2790    2.1843 C   0  0  0  0  0  0  0  0  0  0  0  0
   -0.2578    1.9233    2.9970 C   0  0  0  0  0  0  0  0  0  0  0  0
    4.7363    2.1894   -3.7459 C   0  0  0  0  0  0  0  0  0  0  0  0
    4.2890    4.5274   -3.8231 C   0  0  0  0  0  0  0  0  0  0  0  0
   -0.0735    0.3001    0.9142 C   0  0  0  0  0  0  0  0  0  0  0  0
   -0.0380    2.4685    1.6966 C   0  0  0  0  0  0  0  0  0  0  0  0
    3.3838    1.9778   -3.4806 C   0  0  0  0  0  0  0  0  0  0  0  0
    2.9569    4.3020   -3.4310 C   0  0  0  0  0  0  0  0  0  0  0  0
    0.8972    0.5465   -2.5986 C   0  0  0  0  0  0  0  0  0  0  0  0
    0.1042    1.6599    0.5923 C   0  0  0  0  0  0  0  0  0  0  0  0
    2.4766    3.0126   -3.2019 C   0  0  0  0  0  0  0  0  0  0  0  0
    0.5064    1.9281   -2.0001 C   0  0  0  0  0  0  0  0  0  0  0  0
    0.6841   -0.7049   -1.8972 N   0  0  0  0  0  0  0  0  0  0  0  0
    0.6276    2.2380   -0.5585 O   0  0  0  0  0  0  0  0  0  0  0  0
    1.1455    2.9617   -2.8530 O   0  0  0  0  0  0  0  0  0  0  0  0
  5  3  2  0
  6  3  1  0
  7  4  2  0
  8  4  1  0
  9  5  1  0
 10  6  2  0
 11  7  1  0
 12  8  2  0
 14  9  2  0
 14 10  1  0
 15 11  2  0
 15 12  1  0
 16 13  1  0
 17  1  1  0
 17  2  1  0
 17 13  1  0
 18 14  1  0
 18 16  1  0
 19 15  1  0
 19 16  1  0
M  END
>  <DRUGBANK_ID>  (1) 
DB13219

>  <COMMON_NAME>  (1) 
Medifoxamine

>  <CAS_NUMBER>  (1) 
32359-34-5

>  <UNII>  (1) 
KWU7C2A1NT

>  <SYNONYMS>  (1) 
Medifoxamine

$$$$
