
     RDKit          3D

 23 24  0  0  0  0  0  0  0  0999 V2000
    0.1713    2.1216    0.8264 O   0  0  0  0  0  0  0  0  0  0  0  0
   -1.1313    1.5745    0.6986 C   0  0  1  0  0  0  0  0  0  0  0  0
   -1.2520    0.1021    1.1576 C   0  0  2  0  0  0  0  0  0  0  0  0
   -0.1324   -0.7563    0.5652 C   0  0  1  0  0  0  0  0  0  0  0  0
    1.2490   -0.0500    0.5313 C   0  0  2  0  0  0  0  0  0  0  0  0
    1.0914    1.3704   -0.0563 C   0  0  1  0  0  0  0  0  0  0  0  0
    0.8989    1.4980   -1.5020 O   0  0  0  0  0  0  0  0  0  0  0  0
    2.3176   -0.7898   -0.0706 O   0  0  0  0  0  0  0  0  0  0  0  0
   -0.0955   -2.1164    0.9953 O   0  0  0  0  0  0  0  0  0  0  0  0
   -2.5213   -0.5074    0.8510 O   0  0  0  0  0  0  0  0  0  0  0  0
   -2.4307    2.3396    0.9744 C   0  0  0  0  0  0  0  0  0  0  0  0
   -2.4062    3.7070    0.6210 O   0  0  0  0  0  0  0  0  0  0  0  0
   -2.3248    0.3109   -3.1280 O   0  0  0  0  0  0  0  0  0  0  0  0
   -1.4743    1.1855   -2.3827 C   0  0  1  0  0  0  0  0  0  0  0  0
    0.0241    0.7587   -2.4182 C   0  0  2  0  0  0  0  0  0  0  0  0
    0.2767   -0.7671   -2.4978 C   0  0  1  0  0  0  0  0  0  0  0  0
   -0.9493   -1.6866   -2.8242 C   0  0  2  0  0  0  0  0  0  0  0  0
   -2.2799   -0.9804   -2.4890 C   0  0  2  0  0  0  0  0  0  0  0  0
   -3.4771   -1.6877   -2.7167 O   0  0  0  0  0  0  0  0  0  0  0  0
   -0.8256   -2.9280   -2.0974 O   0  0  0  0  0  0  0  0  0  0  0  0
    1.4977   -1.0460   -3.2141 O   0  0  0  0  0  0  0  0  0  0  0  0
   -1.5648    2.7141   -2.6424 C   0  0  0  0  0  0  0  0  0  0  0  0
   -2.8027    3.3096   -2.2740 O   0  0  0  0  0  0  0  0  0  0  0  0
  1  2  1  0
  1  6  1  0
  2  3  1  0
  2 11  1  1
  3  4  1  0
  3 10  1  6
  4  5  1  0
  4  9  1  1
  5  6  1  0
  5  8  1  6
  6  7  1  6
 11 12  1  0
 13 14  1  0
 13 18  1  0
 14 15  1  0
 14 22  1  6
 15 16  1  0
 15  7  1  1
 16 17  1  0
 16 21  1  6
 17 18  1  0
 17 20  1  1
 18 19  1  6
 22 23  1  0
M  END
>  <DRUGBANK_ID>  (1) 
DB03323

>  <SECONDARY_ACCESSION_NUMBERS>  (1) 
EXPT02111

>  <COMMON_NAME>  (1) 
Maltose

>  <CAS_NUMBER>  (1) 
69-79-4

>  <UNII>  (1) 
66Y63L379N

>  <SYNONYMS>  (1) 
D-(+)-maltose; Maltose anhydrous

$$$$
