
     RDKit          3D

  9  8  0  0  0  0  0  0  0  0999 V2000
    0.9579    0.0294    0.1277 C   0  0  0  0  0  0  0  0  0  0  0  0
    0.5105    0.3086    1.4572 O   0  0  0  0  0  0  0  0  0  0  0  0
    0.4686    1.1018   -0.8401 C   0  0  0  0  0  0  0  0  0  0  0  0
    0.7984   -0.5407    2.4730 C   0  0  0  0  0  0  0  0  0  0  0  0
    0.9198    0.7901   -2.2723 C   0  0  0  0  0  0  0  0  0  0  0  0
    1.6568   -1.7501    2.2056 C   0  0  0  0  0  0  0  0  0  0  0  0
    0.3752   -0.3184    3.6076 O   0  0  0  0  0  0  0  0  0  0  0  0
    0.4036   -0.5584   -2.7879 C   0  0  0  0  0  0  0  0  0  0  0  0
   -1.1167   -0.6135   -2.7908 C   0  0  0  0  0  0  0  0  0  0  0  0
  1  2  1  0
  1  3  1  0
  2  4  1  0
  3  5  1  0
  4  6  1  0
  4  7  2  0
  5  8  1  0
  8  9  1  0
M  END
>  <DRUGBANK_ID>  (1) 
DB15927

>  <COMMON_NAME>  (1) 
Amyl acetate

>  <CAS_NUMBER>  (1) 
628-63-7

>  <UNII>  (1) 
92Q24NH7AS

>  <SYNONYMS>  (1) 
Acetate d'amyle; Acetic acid, amyl ester; Acetic acid, pentyl ester; Amylazetat; Amylester kyseliny octove; N-Amyl acetate; Octan amylu; Pentyl acetate

$$$$
