
     RDKit          3D

 16 15  0  0  0  0  0  0  0  0999 V2000
   -0.9497    1.3722    1.2804 P   0  0  0  0  0  0  0  0  0  0  0  0
   -0.8085    4.6847   -2.6677 O   0  0  0  0  0  0  0  0  0  0  0  0
   -1.6467    1.5198   -1.2107 O   0  0  0  0  0  0  0  0  0  0  0  0
   -0.0692    2.7080    0.9336 O   0  0  0  0  0  0  0  0  0  0  0  0
   -0.2577    1.7423   -3.8908 O   0  0  0  0  0  0  0  0  0  0  0  0
   -2.4814    3.3798   -5.8029 O   0  0  0  0  0  0  0  0  0  0  0  0
   -0.0584    0.6272    2.4139 O   0  0  0  0  0  0  0  0  0  0  0  0
    0.0491    0.5501    0.1317 O   0  0  0  0  0  0  0  0  0  0  0  0
   -1.8436    2.1079    2.3084 O   0  0  0  0  0  0  0  0  0  0  0  0
    0.7807    4.2341   -4.6251 O   0  0  0  0  0  0  0  0  0  0  0  0
   -0.4156    4.1821   -5.3643 N   0  0  0  0  0  0  0  0  0  0  0  0
   -1.5084    3.4554   -2.5137 C   0  0  2  0  0  0  0  0  0  0  0  0
   -0.8725    2.7203   -1.3519 C   0  0  1  0  0  0  0  0  0  0  0  0
   -1.4442    2.5509   -3.7920 C   0  0  1  0  0  0  0  0  0  0  0  0
   -0.7663    3.5059   -0.0380 C   0  0  0  0  0  0  0  0  0  0  0  0
   -1.4857    3.3943   -5.0604 C   0  0  0  0  0  0  0  0  0  0  0  0
  1  4  1  0
  1  7  1  0
  1  8  1  0
  1  9  2  0
  4 15  1  0
  6 16  2  0
 10 11  1  0
 11 16  1  0
 12  2  1  6
 12 13  1  0
 13  3  1  1
 13 15  1  0
 14 16  1  0
 14 12  1  0
 14  5  1  1
M  END
>  <DRUGBANK_ID>  (1) 
DB02093

>  <SECONDARY_ACCESSION_NUMBERS>  (1) 
EXPT02496

>  <COMMON_NAME>  (1) 
5-phospho-D-arabinohydroxamic acid

>  <SYNONYMS>  (1) 
(2R,3R,4S)-2,3,4-Trihydroxy-5-(hydroxyamino)-5-oxopentyl dihydrogen phosphate

$$$$
