4821
     RDKit          3D

 18 20  0  0  1  0  0  0  0  0999 V2000
   -2.4439    0.6435   -0.3684 N   0  0  0  0  0  0  0  0  0  0  0  0
    1.2701    2.8389    0.3619 N   0  0  0  0  0  0  0  0  0  0  0  0
   -1.1933   -1.5032   -0.0570 C   0  0  0  0  0  0  0  0  0  0  0  0
   -2.4107   -0.6296    0.3645 C   0  0  0  0  0  0  0  0  0  0  0  0
    0.0831   -0.6616   -0.1910 C   0  0  0  0  0  0  0  0  0  0  0  0
   -1.2923    1.4591    0.0556 C   0  0  0  0  0  0  0  0  0  0  0  0
    0.0410    0.7471   -0.0615 C   0  0  0  0  0  0  0  0  0  0  0  0
   -1.0880   -2.6690    0.9461 C   0  0  0  0  0  0  0  0  0  0  0  0
    1.2476    1.4777    0.0080 C   0  0  0  0  0  0  0  0  0  0  0  0
    1.3223   -1.3034   -0.3685 C   0  0  0  0  0  0  0  0  0  0  0  0
   -3.6890    1.3661   -0.1175 C   0  0  0  0  0  0  0  0  0  0  0  0
    2.4644    0.7795   -0.0086 C   0  0  0  0  0  0  0  0  0  0  0  0
   -2.0658   -3.6719    0.9781 C   0  0  0  0  0  0  0  0  0  0  0  0
   -0.0646   -2.7224    1.9130 C   0  0  0  0  0  0  0  0  0  0  0  0
    2.5057   -0.5974   -0.2098 C   0  0  0  0  0  0  0  0  0  0  0  0
   -1.9988   -4.7013    1.9281 C   0  0  0  0  0  0  0  0  0  0  0  0
   -0.0445   -3.6975    2.9058 C   0  0  0  0  0  0  0  0  0  0  0  0
   -0.9979   -4.6969    2.9006 C   0  0  0  0  0  0  0  0  0  0  0  0
  1  4  1  0
  1  6  1  0
  1 11  1  0
  2  9  1  0
  3  4  1  0
  3  5  1  0
  3  8  1  0
  5  7  2  0
  5 10  1  0
  6  7  1  0
  7  9  1  0
  8 13  2  0
  8 14  1  0
  9 12  2  0
 10 15  2  0
 12 15  1  0
 13 16  1  0
 14 17  2  0
 16 18  2  0
 17 18  1  0
M  END
>  <DRUGBANK_ID>  (1) 
DB04821

>  <COMMON_NAME>  (1) 
Nomifensine

>  <CAS_NUMBER>  (1) 
24526-64-5

>  <UNII>  (1) 
1LGS5JRP31

>  <SYNONYMS>  (1) 
(+-)-nomifensin; (+-)-nomifensine; 2-Methyl-4-phenyl-1,2,3,4-tetrahydro-isoquinolin-8-ylamine; 8-Amino-2-methyl-4-phenyl-1,2,3,4-tetrahydroisoquinoline; D,L-nomifensine; Nomifensin; Nomifensina; Nomifensine; Nomifensinum

$$$$
