559
     RDKit          3D

 39 42  0  0  0  0  0  0  0  0999 V2000
    0.9212   -0.0247   -0.9255 S   0  0  0  0  0  0  0  0  0  0  0  0
    0.2755    0.7568    0.0694 O   0  0  0  0  0  0  0  0  0  0  0  0
    0.5569    0.2924   -2.3057 O   0  0  0  0  0  0  0  0  0  0  0  0
    2.3115   -1.7868    1.9616 O   0  0  0  0  0  0  0  0  0  0  0  0
    4.3335   -3.7318    1.6314 O   0  0  0  0  0  0  0  0  0  0  0  0
   -0.4849   -2.2486    2.6129 O   0  0  0  0  0  0  0  0  0  0  0  0
    4.2554   -0.7989    1.5546 O   0  0  0  0  0  0  0  0  0  0  0  0
    0.4440   -1.6231   -0.5867 N   0  0  0  0  0  0  0  0  0  0  0  0
    1.1999   -3.7014   -0.9976 N   0  0  0  0  0  0  0  0  0  0  0  0
    3.0595   -4.7560    0.0482 N   0  0  0  0  0  0  0  0  0  0  0  0
    1.6705   -5.6284   -3.0684 N   0  0  0  0  0  0  0  0  0  0  0  0
    1.6243   -7.1446   -1.2183 N   0  0  0  0  0  0  0  0  0  0  0  0
    7.0817    0.0306   -0.2596 C   0  0  0  0  0  0  0  0  0  0  0  0
    5.5714    0.1252   -0.5366 C   0  0  0  0  0  0  0  0  0  0  0  0
    7.6608    0.7135   -1.4959 C   0  0  0  0  0  0  0  0  0  0  0  0
    7.5521    0.7620    1.0219 C   0  0  0  0  0  0  0  0  0  0  0  0
    7.6774   -1.4149   -0.2080 C   0  0  0  0  0  0  0  0  0  0  0  0
    4.8784   -0.9976   -0.9878 C   0  0  0  0  0  0  0  0  0  0  0  0
    4.8148    1.3091   -0.3676 C   0  0  0  0  0  0  0  0  0  0  0  0
    2.7203    0.1407   -0.8519 C   0  0  0  0  0  0  0  0  0  0  0  0
    3.5021   -0.9551   -1.2178 C   0  0  0  0  0  0  0  0  0  0  0  0
    3.3932    1.3022   -0.4406 C   0  0  0  0  0  0  0  0  0  0  0  0
    1.3597   -2.6358   -0.2000 C   0  0  0  0  0  0  0  0  0  0  0  0
    2.2331   -2.6418    0.8855 C   0  0  0  0  0  0  0  0  0  0  0  0
    3.1615   -3.6997    0.8930 C   0  0  0  0  0  0  0  0  0  0  0  0
    2.0321   -4.7524   -0.8355 C   0  0  0  0  0  0  0  0  0  0  0  0
    1.4579   -0.7678    2.2788 C   0  0  0  0  0  0  0  0  0  0  0  0
    1.8039   -5.9107   -1.7480 C   0  0  0  0  0  0  0  0  0  0  0  0
    4.6570   -2.8372    2.7292 C   0  0  0  0  0  0  0  0  0  0  0  0
    0.1312   -1.0175    2.5718 C   0  0  0  0  0  0  0  0  0  0  0  0
    1.9751    0.5713    2.3308 C   0  0  0  0  0  0  0  0  0  0  0  0
   -0.6959    0.1157    2.7094 C   0  0  0  0  0  0  0  0  0  0  0  0
    5.1749   -1.4701    2.3200 C   0  0  0  0  0  0  0  0  0  0  0  0
    1.1427    1.6860    2.4427 C   0  0  0  0  0  0  0  0  0  0  0  0
   -0.2125    1.4479    2.6071 C   0  0  0  0  0  0  0  0  0  0  0  0
    1.3505   -6.6484   -3.8839 C   0  0  0  0  0  0  0  0  0  0  0  0
    1.2968   -8.1252   -2.0881 C   0  0  0  0  0  0  0  0  0  0  0  0
    1.1505   -7.9327   -3.4430 C   0  0  0  0  0  0  0  0  0  0  0  0
    0.2765   -3.4630    2.5795 C   0  0  0  0  0  0  0  0  0  0  0  0
  1  2  2  0
  1  3  2  0
  1  8  1  0
  1 20  1  0
  4 24  1  0
  4 27  1  0
  5 25  1  0
  5 29  1  0
  6 30  1  0
  6 39  1  0
  7 33  1  0
  8 23  1  0
  9 23  2  0
  9 26  1  0
 10 25  1  0
 10 26  2  0
 11 28  2  0
 11 36  1  0
 12 28  1  0
 12 37  2  0
 13 14  1  0
 13 15  1  0
 13 16  1  0
 13 17  1  0
 14 18  2  0
 14 19  1  0
 18 21  1  0
 19 22  2  0
 20 21  2  0
 20 22  1  0
 23 24  1  0
 24 25  2  0
 26 28  1  0
 27 30  2  0
 27 31  1  0
 29 33  1  0
 30 32  1  0
 31 34  2  0
 32 35  2  0
 34 35  1  0
 36 38  2  0
 37 38  1  0
M  END
>  <DRUGBANK_ID>  (1) 
DB00559

>  <SECONDARY_ACCESSION_NUMBERS>  (1) 
APRD00829

>  <COMMON_NAME>  (1) 
Bosentan

>  <CAS_NUMBER>  (1) 
147536-97-8

>  <UNII>  (1) 
XUL93R30K2

>  <SYNONYMS>  (1) 
4-(1,1-Dimethylethyl)-N-(6-(2-hydroxyethoxy)-5-(2-methoxyphenoxy)-(2,2'-bipyrimidin)-4-yl) benzenesulfornamide; bosent√°n; Bosentan; bosentan anhydrous; bosentanum; p-tert-Butyl-N-(6-(2-hydroxyethoxy)-5-(o-methoxyphenoxy)-2-(2-pyrimidinyl)-4-pyrimidinyl)benzenesulfonamide

$$$$
