
     RDKit          3D

 18 18  0  0  0  0  0  0  0  0999 V2000
   -1.9729   -0.9259    0.1366 Cl  0  0  0  0  0  0  0  0  0  0  0  0
    4.4198   -0.5625    1.1489 F   0  0  0  0  0  0  0  0  0  0  0  0
    4.4770   -0.5663   -1.0204 F   0  0  0  0  0  0  0  0  0  0  0  0
    4.4365    1.3235    0.0614 F   0  0  0  0  0  0  0  0  0  0  0  0
   -0.5288    2.3315    0.0240 N   0  0  0  0  0  0  0  0  0  0  0  0
   -2.3935    3.7878   -0.0486 N   0  0  0  0  0  0  0  0  0  0  0  0
   -2.7297    1.6030   -0.2513 N   0  0  0  0  0  0  0  0  0  0  0  0
   -0.4238    5.0542   -0.1239 N   0  0  0  0  0  0  0  0  0  0  0  0
   -2.4352    6.0633   -0.1159 N   0  0  0  0  0  0  0  0  0  0  0  0
    2.4150    0.0110    0.0096 C   0  0  0  0  0  0  0  0  0  0  0  0
    1.5675    1.1494   -0.0017 C   0  0  0  0  0  0  0  0  0  0  0  0
    0.1451    1.0503    0.0018 C   0  0  0  0  0  0  0  0  0  0  0  0
    1.8558   -1.2634   -0.0092 C   0  0  0  0  0  0  0  0  0  0  0  0
   -0.3526   -0.2942    0.0183 C   0  0  0  0  0  0  0  0  0  0  0  0
    0.4939   -1.4058   -0.0172 C   0  0  0  0  0  0  0  0  0  0  0  0
    3.9195    0.0698    0.0488 C   0  0  0  0  0  0  0  0  0  0  0  0
   -1.8093    2.5577   -0.0793 C   0  0  0  0  0  0  0  0  0  0  0  0
   -1.7478    4.9076   -0.0893 C   0  0  0  0  0  0  0  0  0  0  0  0
  1 14  1  0
  2 16  1  0
  3 16  1  0
  4 16  1  0
  5 12  1  0
  5 17  2  0
  6 17  1  0
  6 18  2  0
  7 17  1  0
  8 18  1  0
  9 18  1  0
 10 11  2  0
 10 13  1  0
 10 16  1  0
 11 12  1  0
 12 14  2  0
 13 15  2  0
 14 15  1  0
M  END
>  <DRUGBANK_ID>  (1) 
DB08478

>  <COMMON_NAME>  (1) 
N-[2-Chloro-5-(trifluoromethyl)phenyl]imidodicarbonimidic diamide

>  <SYNONYMS>  (1) 
2-[2-Chloro-5-(trifluoromethyl)phenyl]-1-(diaminomethylene)guanidine

$$$$
