
     RDKit          3D

 10  9  0  0  0  0  0  0  0  0999 V2000
    0.7302    0.0893    0.2343 O   0  0  0  0  0  0  0  0  0  0  0  0
    0.5666   -0.3271    1.5975 C   0  0  0  0  0  0  0  0  0  0  0  0
    1.3795   -1.5621    2.0712 C   0  0  0  0  0  0  0  0  0  0  0  0
    2.7414   -1.5985    1.6982 O   0  0  0  0  0  0  0  0  0  0  0  0
    3.0482   -1.4303    0.3075 C   0  0  0  0  0  0  0  0  0  0  0  0
    2.4323   -2.1975   -0.9402 C   0  0  0  0  0  0  0  0  0  0  0  0
    1.0545   -2.4741   -1.2259 O   0  0  0  0  0  0  0  0  0  0  0  0
    0.2871   -3.0727   -0.2022 C   0  0  0  0  0  0  0  0  0  0  0  0
    0.8653   -4.3697    0.4255 C   0  0  0  0  0  0  0  0  0  0  0  0
    2.2586   -4.3750    0.7673 O   0  0  0  0  0  0  0  0  0  0  0  0
  1  2  1  0
  2  3  1  0
  3  4  1  0
  4  5  1  0
  5  6  1  0
  6  7  1  0
  7  8  1  0
  8  9  1  0
  9 10  1  0
M  END
>  <DRUGBANK_ID>  (1) 
DB02327

>  <SECONDARY_ACCESSION_NUMBERS>  (1) 
EXPT02598

>  <COMMON_NAME>  (1) 
Triethylene glycol

>  <CAS_NUMBER>  (1) 
112-27-6

>  <UNII>  (1) 
3P5SU53360

$$$$
