
     RDKit          3D

 24 22  0  0  0  0  0  0  0  0999 V2000
    0.4661    0.3998    0.2453 C   0  0  0  0  0  0  0  0  0  0  0  0
   -0.3195   -0.7132   -0.4539 C   0  0  0  0  0  0  0  0  0  0  0  0
    0.3652   -0.1113    1.6398 C   0  0  0  0  0  0  0  0  0  0  0  0
    0.2987   -2.3520    0.0309 C   0  0  0  0  0  0  0  0  0  0  0  0
    1.0051    0.8650    2.5523 C   0  0  0  0  0  0  0  0  0  0  0  0
   -0.3182   -3.4630   -0.0207 C   0  0  0  0  0  0  0  0  0  0  0  0
    0.4875    2.2456    2.1538 C   0  0  0  0  0  0  0  0  0  0  0  0
   -1.7106   -3.2157   -0.3603 C   0  0  0  0  0  0  0  0  0  0  0  0
   -1.0578    2.2531    2.1364 C   0  0  0  0  0  0  0  0  0  0  0  0
   -2.0925   -4.0519   -1.5298 C   0  0  0  0  0  0  0  0  0  0  0  0
   -1.6063    1.8500    3.5017 C   0  0  0  0  0  0  0  0  0  0  0  0
   -1.8322   -5.4968   -1.1423 C   0  0  0  0  0  0  0  0  0  0  0  0
   -1.0690    2.7878    4.5629 C   0  0  0  0  0  0  0  0  0  0  0  0
   -2.4402   -5.7402    0.2536 C   0  0  0  0  0  0  0  0  0  0  0  0
   -2.0047    3.5061    5.2053 O   0  0  0  0  0  0  0  0  0  0  0  0
    0.1145    2.9228    4.8341 O   0  0  0  0  0  0  0  0  0  0  0  0
   -3.9382   -5.4248    0.2045 C   0  0  0  0  0  0  0  0  0  0  0  0
   -4.6021   -6.3305   -0.8301 C   0  0  0  0  0  0  0  0  0  0  0  0
   -4.3631   -7.7973   -0.4774 C   0  0  0  0  0  0  0  0  0  0  0  0
   -4.9498   -8.0991    0.8907 C   0  0  0  0  0  0  0  0  0  0  0  0
    2.9419   -1.3766   -0.7472 O   0  0  0  0  0  0  0  0  0  0  0  0
    1.8166   -1.4317   -1.6623 C   0  0  0  0  0  0  0  0  0  0  0  0
    1.6643   -0.6665   -2.9107 C   0  0  0  0  0  0  0  0  0  0  0  0
    3.0508   -0.4739   -2.9490 N   0  0  0  0  0  0  0  0  0  0  0  0
  1  2  1  0
  1  3  1  0
  2  4  1  0
  3  5  1  0
  4  6  2  0
  5  7  1  0
  6  8  1  0
  7  9  1  0
  8 10  1  0
  9 11  1  0
 10 12  1  0
 11 13  1  0
 12 14  1  0
 13 15  1  0
 13 16  2  0
 14 17  1  0
 17 18  1  0
 18 19  1  0
 19 20  1  0
 21 22  1  0
 22 23  1  0
 23 24  1  0
M  END
>  <DRUGBANK_ID>  (1) 
DB06689

>  <COMMON_NAME>  (1) 
Ethanolamine oleate

>  <CAS_NUMBER>  (1) 
2272-11-9

>  <UNII>  (1) 
U4RY8MRX7C

>  <SYNONYMS>  (1) 
Ethamolin; Ethanolamine oleate; Monoethanolamine oleate; Monoethanolamini oleas; Oldamin; Oleate de monoethanolamine; Oleato de monoetanolaminio

$$$$
