
     RDKit          3D

 27 29  0  0  0  0  0  0  0  0999 V2000
    0.8848   -0.0339    0.2359 C   0  0  0  0  0  0  0  0  0  0  0  0
    0.5001   -1.3923    0.3651 O   0  0  0  0  0  0  0  0  0  0  0  0
    1.3657   -2.3798   -0.0268 C   0  0  0  0  0  0  0  0  0  0  0  0
    2.6427   -2.2619   -0.5828 C   0  0  0  0  0  0  0  0  0  0  0  0
    3.3372   -1.1228   -0.8808 O   0  0  0  0  0  0  0  0  0  0  0  0
    3.3723   -3.4136   -0.8796 C   0  0  0  0  0  0  0  0  0  0  0  0
    2.8453   -4.6906   -0.6726 C   0  0  0  0  0  0  0  0  0  0  0  0
    1.5550   -4.8553   -0.1755 C   0  0  0  0  0  0  0  0  0  0  0  0
    0.8439   -3.6861    0.1856 C   0  0  0  0  0  0  0  0  0  0  0  0
    0.9461   -6.2129   -0.1163 C   0  0  0  0  0  0  0  0  0  0  0  0
   -0.1184   -6.5115   -0.8636 C   0  0  0  0  0  0  0  0  0  0  0  0
   -0.7625   -7.8419   -0.7741 C   0  0  0  0  0  0  0  0  0  0  0  0
   -1.8753   -8.0610   -1.1943 O   0  0  0  0  0  0  0  0  0  0  0  0
    0.0544   -8.8945   -0.1647 C   0  0  0  0  0  0  0  0  0  0  0  0
   -0.4103  -10.2023    0.0092 C   0  0  0  0  0  0  0  0  0  0  0  0
   -1.6670  -10.6282   -0.3189 O   0  0  0  0  0  0  0  0  0  0  0  0
    0.4241  -11.1507    0.5797 C   0  0  0  0  0  0  0  0  0  0  0  0
    1.7319  -10.8079    0.9038 C   0  0  0  0  0  0  0  0  0  0  0  0
    2.4623  -11.8227    1.4477 O   0  0  0  0  0  0  0  0  0  0  0  0
    2.2257   -9.5063    0.7113 C   0  0  0  0  0  0  0  0  0  0  0  0
    3.6394   -9.0877    1.0145 C   0  0  0  0  0  0  0  0  0  0  0  0
    3.9379   -9.2275    2.4724 C   0  0  0  0  0  0  0  0  0  0  0  0
    4.8766  -10.0577    2.9575 C   0  0  0  0  0  0  0  0  0  0  0  0
    5.0620  -10.2235    4.4338 C   0  0  0  0  0  0  0  0  0  0  0  0
    5.7624  -10.8694    2.0480 C   0  0  0  0  0  0  0  0  0  0  0  0
    1.3432   -8.5393    0.2314 C   0  0  0  0  0  0  0  0  0  0  0  0
    1.7973   -7.2344    0.2695 O   0  0  0  0  0  0  0  0  0  0  0  0
  1  2  1  0
  2  3  1  0
  3  4  2  0
  3  9  1  0
  4  5  1  0
  4  6  1  0
  6  7  2  0
  7  8  1  0
  8  9  2  0
  8 10  1  0
 10 11  2  0
 10 27  1  0
 11 12  1  0
 12 13  2  0
 12 14  1  0
 14 15  2  0
 14 26  1  0
 15 16  1  0
 15 17  1  0
 17 18  2  0
 18 19  1  0
 18 20  1  0
 20 21  1  0
 20 26  2  0
 21 22  1  0
 22 23  2  3
 23 24  1  0
 23 25  1  0
 26 27  1  0
M  END
>  <DRUGBANK_ID>  (1) 
DB17263

>  <COMMON_NAME>  (1) 
Caflanone

>  <CAS_NUMBER>  (1) 
199167-23-2

>  <UNII>  (1) 
PH8V5N670E

>  <SYNONYMS>  (1) 
4h-1-benzopyran-4-one, 5,7-dihydroxy-2-(4-hydroxy-3-methoxyphenyl)-8-(3-methyl-2-buten-1-yl)-

$$$$
