
     RDKit          3D

 18 17  0  0  0  0  0  0  0  0999 V2000
    1.0865    0.0729    0.1675 C   0  0  0  0  0  0  0  0  0  0  0  0
    0.6725    1.4606   -0.2944 C   0  0  0  0  0  0  0  0  0  0  0  0
    1.1671    1.7281   -1.7166 C   0  0  0  0  0  0  0  0  0  0  0  0
    0.5885    0.7221   -2.7168 C   0  0  0  0  0  0  0  0  0  0  0  0
   -0.9426    0.7686   -2.7161 C   0  0  0  0  0  0  0  0  0  0  0  0
   -1.4296    2.1612   -3.1298 C   0  0  0  0  0  0  0  0  0  0  0  0
   -0.9398    2.4831   -4.5450 C   0  0  0  0  0  0  0  0  0  0  0  0
   -1.4726    1.4268   -5.5168 C   0  0  0  0  0  0  0  0  0  0  0  0
   -3.0054    1.4177   -5.4554 C   0  0  0  0  0  0  0  0  0  0  0  0
   -3.5386    2.7861   -5.8856 C   0  0  0  0  0  0  0  0  0  0  0  0
   -3.0429    3.0900   -7.2956 C   0  0  0  0  0  0  0  0  0  0  0  0
   -3.5459    1.9923   -8.2356 C   0  0  0  0  0  0  0  0  0  0  0  0
   -5.0542    2.0878   -8.4082 C   0  0  0  0  0  0  0  0  0  0  0  0
   -5.5431    3.4733   -8.8433 C   0  0  0  0  0  0  0  0  0  0  0  0
   -5.0643    3.8966  -10.2489 N   0  0  0  0  0  0  0  0  0  0  0  0
   -5.5670    2.8799  -11.2571 C   0  0  0  0  0  0  0  0  0  0  0  0
   -5.6698    5.2691  -10.5389 C   0  0  0  0  0  0  0  0  0  0  0  0
   -3.5581    4.0962  -10.4225 C   0  0  0  0  0  0  0  0  0  0  0  0
  1  2  1  0
  2  3  1  0
  3  4  1  0
  4  5  1  0
  5  6  1  0
  6  7  1  0
  7  8  1  0
  8  9  1  0
  9 10  1  0
 10 11  1  0
 11 12  1  0
 12 13  1  0
 13 14  1  0
 14 15  1  0
 15 16  1  0
 15 17  1  0
 15 18  1  0
M  CHG  1  15   1
M  END
>  <DRUGBANK_ID>  (1) 
DB17342

>  <COMMON_NAME>  (1) 
Trimethyltetradecylammonium

>  <CAS_NUMBER>  (1) 
10182-92-0

>  <UNII>  (1) 
Y3IR7RCT6J

>  <SYNONYMS>  (1) 
1-tetradecanaminium, n,n,n-trimethyl-; Ammonium, trimethyltetradecyl-; Myristyltrimethylammonium; Tetradecyltrimethylammonium; Tetradonium; Tetradonium cation; Tetradonium ion

$$$$
