
     RDKit          3D

 12 13  0  0  1  0  0  0  0  0999 V2000
    1.1534    0.0606   -0.0025 O   0  0  0  0  0  0  0  0  0  0  0  0
    2.3932    0.0168    0.0086 N   0  0  0  0  0  0  0  0  0  0  0  0
    3.0838   -0.5486    0.8643 O   0  0  0  0  0  0  0  0  0  0  0  0
    3.0938    0.7108   -1.0602 C   0  0  0  0  0  0  0  0  0  0  0  0
    2.6700    1.9887   -1.4240 C   0  0  0  0  0  0  0  0  0  0  0  0
    3.3566    2.6703   -2.4319 C   0  0  0  0  0  0  0  0  0  0  0  0
    4.4703    2.0999   -3.0793 C   0  0  0  0  0  0  0  0  0  0  0  0
    4.8970    0.8287   -2.6420 C   0  0  0  0  0  0  0  0  0  0  0  0
    4.1965    0.1108   -1.6692 C   0  0  0  0  0  0  0  0  0  0  0  0
    5.1469    2.7397   -4.2682 C   0  0  2  0  0  0  0  0  0  0  0  0
    5.7906    4.1000   -4.2046 C   0  0  0  0  0  0  0  0  0  0  0  0
    4.5271    3.9029   -4.8487 O   0  0  0  0  0  0  0  0  0  0  0  0
  1  2  1  0
  2  3  2  0
  2  4  1  0
  4  5  2  0
  4  9  1  0
  5  6  1  0
  6  7  2  0
  7  8  1  0
  8  9  2  0
 10  7  1  1
 10 11  1  0
 10 12  1  0
 11 12  1  0
M  CHG  2   1  -1   2   1
M  END
>  <DRUGBANK_ID>  (1) 
DB04777

>  <COMMON_NAME>  (1) 
(R)-4-Nitrostyrene oxide

>  <CAS_NUMBER>  (1) 
78038-43-4

>  <SYNONYMS>  (1) 
(2R)-2-(4-nitrophenyl)oxirane

$$$$
