
     RDKit          3D

 10  9  0  0  0  0  0  0  0  0999 V2000
    1.0370    0.1303    0.0772 C   0  0  0  0  0  0  0  0  0  0  0  0
    0.5642    0.5255   -1.3292 C   0  0  0  0  0  0  0  0  0  0  0  0
    0.1950    3.4450    0.7789 O   0  0  0  0  0  0  0  0  0  0  0  0
    1.0858   -0.4054   -2.4114 C   0  0  0  0  0  0  0  0  0  0  0  0
    1.1164    2.4707    0.9632 C   0  0  0  0  0  0  0  0  0  0  0  0
    2.3193    2.7054    0.9152 O   0  0  0  0  0  0  0  0  0  0  0  0
    0.5301    1.0687    1.1737 C   0  0  1  0  0  0  0  0  0  0  0  0
   -0.9452    1.0624    1.2136 N   0  0  0  0  0  0  0  0  0  0  0  0
    0.5971   -1.8219   -2.2309 C   0  0  0  0  0  0  0  0  0  0  0  0
    0.9103   -2.5429   -1.2889 O   0  0  0  0  0  0  0  0  0  0  0  0
  1  2  1  0
  2  4  1  0
  4  9  1  0
  5  3  1  0
  5  6  2  0
  7  1  1  0
  7  5  1  0
  7  8  1  6
  9 10  2  0
M  END
>  <DRUGBANK_ID>  (1) 
DB02571

>  <SECONDARY_ACCESSION_NUMBERS>  (1) 
EXPT01240

>  <COMMON_NAME>  (1) 
Allysine

>  <CAS_NUMBER>  (1) 
6665-12-9

>  <UNII>  (1) 
425I4Y24YZ

>  <SYNONYMS>  (1) 
2-Amino-5-formylvaleric acid; 2-Amino-6-oxo-hexanoic acid; 2-Aminoadipate semialdehyde; 6-Oxo-L-norleucine; L-Allysine

$$$$
