
     RDKit          3D

 24 25  0  0  0  0  0  0  0  0999 V2000
    0.9590    0.0694    0.0169 F   0  0  0  0  0  0  0  0  0  0  0  0
    2.7432    1.3076   -0.1409 F   0  0  0  0  0  0  0  0  0  0  0  0
    2.7475   -0.4584    1.1303 F   0  0  0  0  0  0  0  0  0  0  0  0
    2.4848   -5.0971   -1.0056 F   0  0  0  0  0  0  0  0  0  0  0  0
    0.9604   -4.5724   -2.4648 F   0  0  0  0  0  0  0  0  0  0  0  0
    2.9043   -5.2886   -3.1308 F   0  0  0  0  0  0  0  0  0  0  0  0
   10.4045   -0.9754   -7.4023 O   0  0  0  0  0  0  0  0  0  0  0  0
    8.5456   -2.1081   -6.9142 O   0  0  0  0  0  0  0  0  0  0  0  0
    7.3866   -0.4189   -4.5114 N   0  0  0  0  0  0  0  0  0  0  0  0
    6.6615   -0.6086   -3.3859 N   0  0  0  0  0  0  0  0  0  0  0  0
    4.3521   -1.3733   -2.9812 C   0  0  0  0  0  0  0  0  0  0  0  0
    5.4595   -1.0065   -3.8453 C   0  0  0  0  0  0  0  0  0  0  0  0
    8.7956   -0.0663   -4.4597 C   0  0  0  0  0  0  0  0  0  0  0  0
    2.7875   -0.8526   -1.2041 C   0  0  0  0  0  0  0  0  0  0  0  0
    2.7958   -3.0756   -2.2117 C   0  0  0  0  0  0  0  0  0  0  0  0
    3.8314   -2.6708   -3.0590 C   0  0  0  0  0  0  0  0  0  0  0  0
    3.8004   -0.4508   -2.0861 C   0  0  0  0  0  0  0  0  0  0  0  0
    5.4337   -1.0456   -5.2552 C   0  0  0  0  0  0  0  0  0  0  0  0
    6.6331   -0.5167   -5.6415 C   0  0  0  0  0  0  0  0  0  0  0  0
    2.2746   -2.1557   -1.2954 C   0  0  0  0  0  0  0  0  0  0  0  0
    9.7500   -1.0997   -5.0718 C   0  0  0  0  0  0  0  0  0  0  0  0
    2.3166    0.0198   -0.0713 C   0  0  0  0  0  0  0  0  0  0  0  0
    2.2944   -4.4936   -2.2112 C   0  0  0  0  0  0  0  0  0  0  0  0
    9.4932   -1.4371   -6.5247 C   0  0  0  0  0  0  0  0  0  0  0  0
  1 22  1  0
  2 22  1  0
  3 22  1  0
  4 23  1  0
  5 23  1  0
  6 23  1  0
  7 24  1  0
  8 24  2  0
  9 10  1  0
  9 13  1  0
  9 19  1  0
 10 12  2  0
 11 12  1  0
 11 16  2  0
 11 17  1  0
 12 18  1  0
 13 21  1  0
 14 17  2  0
 14 20  1  0
 14 22  1  0
 15 16  1  0
 15 20  2  0
 15 23  1  0
 18 19  2  0
 21 24  1  0
M  END
>  <DRUGBANK_ID>  (1) 
DB16734

>  <COMMON_NAME>  (1) 
STG-001

>  <UNII>  (1) 
IK88NC17OD

$$$$
