
     RDKit          3D

 17 18  0  0  1  0  0  0  0  0999 V2000
    3.3200    2.4778   -1.7974 C   0  0  0  0  0  0  0  0  0  0  0  0
    4.6420    2.3986   -1.9807 C   0  0  0  0  0  0  0  0  0  0  0  0
    5.4210    1.6113   -1.0110 C   0  0  0  0  0  0  0  0  0  0  0  0
    6.6506    1.5205   -1.0461 O   0  0  0  0  0  0  0  0  0  0  0  0
    4.6728    0.9402   -0.0795 N   0  0  0  0  0  0  0  0  0  0  0  0
    3.3804    1.2564    0.2794 C   0  0  0  0  0  0  0  0  0  0  0  0
    2.9060    0.8417    1.3332 O   0  0  0  0  0  0  0  0  0  0  0  0
    2.7023    2.0799   -0.6067 N   0  0  0  0  0  0  0  0  0  0  0  0
    1.3378    2.5668   -0.2864 C   0  0  1  0  0  0  0  0  0  0  0  0
    1.0431    3.2343    1.0750 C   0  0  0  0  0  0  0  0  0  0  0  0
    1.0010    4.7323    0.8166 C   0  0  1  0  0  0  0  0  0  0  0  0
    1.3808    4.8754   -0.6339 C   0  0  2  0  0  0  0  0  0  0  0  0
    1.0094    3.6051   -1.2296 O   0  0  0  0  0  0  0  0  0  0  0  0
    2.8828    5.2337   -0.7681 C   0  0  0  0  0  0  0  0  0  0  0  0
    3.7668    4.5117    0.0965 O   0  0  0  0  0  0  0  0  0  0  0  0
   -0.2697    5.1903    0.9864 F   0  0  0  0  0  0  0  0  0  0  0  0
    5.4487    3.2868   -3.2098 Cl  0  0  0  0  0  0  0  0  0  0  0  0
  1  2  2  0
  1  8  1  0
  2  3  1  0
  2 17  1  0
  3  4  2  0
  3  5  1  0
  5  6  1  0
  6  7  2  0
  6  8  1  0
  9 10  1  0
  9 13  1  0
  9  8  1  1
 10 11  1  0
 11 12  1  0
 11 16  1  6
 12 13  1  0
 12 14  1  1
 14 15  1  0
M  END
>  <DRUGBANK_ID>  (1) 
DB12894

>  <COMMON_NAME>  (1) 
Raluridine

>  <CAS_NUMBER>  (1) 
119644-22-3

>  <UNII>  (1) 
9D65NWY2K0

>  <SYNONYMS>  (1) 
Raluridine

$$$$
