B78
     RDKit          3D

 17 18  0  0  0  0  0  0  0  0999 V2000
    2.4892   -0.3923   -0.7359 C   0  0  0  0  0  0  0  0  0  0  0  0
    1.0080   -0.0989   -0.5202 C   0  0  0  0  0  0  0  0  0  0  0  0
    0.3633    1.1415   -0.2952 C   0  0  0  0  0  0  0  0  0  0  0  0
   -1.0414    1.1979   -0.1262 C   0  0  0  0  0  0  0  0  0  0  0  0
   -1.8116    0.0420   -0.0769 C   0  0  0  0  0  0  0  0  0  0  0  0
   -1.1583   -1.1839   -0.1040 C   0  0  0  0  0  0  0  0  0  0  0  0
    0.2219   -1.2518   -0.3173 C   0  0  0  0  0  0  0  0  0  0  0  0
   -3.1727   -0.0196    0.0369 O   0  0  0  0  0  0  0  0  0  0  0  0
   -3.8818    1.2134   -0.0397 C   0  0  0  0  0  0  0  0  0  0  0  0
    0.9088    2.3775   -0.0603 O   0  0  0  0  0  0  0  0  0  0  0  0
    2.2835    2.4971    0.2810 C   0  0  0  0  0  0  0  0  0  0  0  0
    2.7116    1.8521    1.6041 C   0  0  0  0  0  0  0  0  0  0  0  0
    2.3979    0.5491    2.0046 C   0  0  0  0  0  0  0  0  0  0  0  0
    3.0510   -0.1171    3.0135 C   0  0  0  0  0  0  0  0  0  0  0  0
    3.8324    0.5351    3.8772 N   0  0  0  0  0  0  0  0  0  0  0  0
    3.9588    1.8572    3.6463 C   0  0  0  0  0  0  0  0  0  0  0  0
    3.5119    2.5383    2.5126 C   0  0  0  0  0  0  0  0  0  0  0  0
  1  2  1  0
  2  3  2  0
  2  7  1  0
  3  4  1  0
  3 10  1  0
  4  5  2  0
  5  6  1  0
  5  8  1  0
  6  7  2  0
  8  9  1  0
 10 11  1  0
 11 12  1  0
 12 13  2  0
 12 17  1  0
 13 14  1  0
 14 15  2  0
 15 16  1  0
 16 17  2  0
M  END
>  <DRUGBANK_ID>  (1) 
DB07428

>  <COMMON_NAME>  (1) 
4-[(5-methoxy-2-methylphenoxy)methyl]pyridine

$$$$
