
     RDKit          3D

 24 26  0  0  0  0  0  0  0  0999 V2000
    1.9659    1.4433    0.0138 C   0  0  0  0  0  0  0  0  0  0  0  0
   -1.7662   -0.7331    0.0943 C   0  0  0  0  0  0  0  0  0  0  0  0
   -4.9806    0.3378   -2.3009 C   0  0  0  0  0  0  0  0  0  0  0  0
   -1.7397    0.6561    0.1696 C   0  0  0  0  0  0  0  0  0  0  0  0
   -5.3972    0.9827   -3.5034 C   0  0  0  0  0  0  0  0  0  0  0  0
   -0.5670   -1.4126   -0.0083 C   0  0  0  0  0  0  0  0  0  0  0  0
   -3.2828    4.0559   -2.3495 C   0  0  0  0  0  0  0  0  0  0  0  0
   -5.6399    3.4105   -4.4611 C   0  0  0  0  0  0  0  0  0  0  0  0
   -2.5906    3.3255   -1.4825 C   0  0  0  0  0  0  0  0  0  0  0  0
   -5.0682    4.8546   -4.2974 C   0  0  0  0  0  0  0  0  0  0  0  0
   -4.9857    1.2180   -1.2472 C   0  0  0  0  0  0  0  0  0  0  0  0
   -1.3875    4.7378   -3.5298 C   0  0  0  0  0  0  0  0  0  0  0  0
   -0.6479    2.9253   -0.1632 C   0  0  0  0  0  0  0  0  0  0  0  0
    0.6505    0.7129   -0.0357 C   0  0  0  0  0  0  0  0  0  0  0  0
   -0.5644    1.4109   -0.0148 C   0  0  0  0  0  0  0  0  0  0  0  0
   -2.7296    4.6463   -3.4959 C   0  0  0  0  0  0  0  0  0  0  0  0
   -5.5380    2.3571   -3.3507 C   0  0  0  0  0  0  0  0  0  0  0  0
    0.6429   -0.7058   -0.0307 C   0  0  0  0  0  0  0  0  0  0  0  0
   -0.5571    4.2195   -2.3458 C   0  0  0  0  0  0  0  0  0  0  0  0
    1.8283   -1.4220    0.0486 N   0  0  0  0  0  0  0  0  0  0  0  0
   -1.2375    3.3818   -1.4426 N   0  0  0  0  0  0  0  0  0  0  0  0
    0.6028    4.5612   -2.2228 O   0  0  0  0  0  0  0  0  0  0  0  0
   -3.6193    5.0331   -4.4867 O   0  0  0  0  0  0  0  0  0  0  0  0
   -5.9712    2.5727   -1.6726 S   0  0  0  0  0  0  0  0  0  0  0  0
  4  2  2  0
  5  3  1  0
  6  2  1  0
  9  7  2  0
 10  8  1  0
 11  3  2  0
 14  1  1  0
 15  4  1  0
 15 13  1  0
 15 14  2  0
 16  7  1  0
 16 12  2  0
 17  5  2  0
 17  8  1  0
 18  6  2  0
 18 14  1  0
 19 12  1  0
 20 18  1  0
 21  9  1  0
 21 13  1  0
 21 19  1  0
 22 19  2  0
 23 10  1  0
 23 16  1  0
 24 11  1  0
 24 17  1  0
M  END
>  <DRUGBANK_ID>  (1) 
DB12347

>  <COMMON_NAME>  (1) 
CG-400549

>  <CAS_NUMBER>  (1) 
934628-27-0

>  <UNII>  (1) 
4X6T64D64X

$$$$
