
     RDKit          3D

 34 36  0  0  0  0  0  0  0  0999 V2000
    0.7112    0.2169    0.9365 C   0  0  0  0  0  0  0  0  0  0  0  0
    0.7542    1.7802   -1.2368 C   0  0  0  0  0  0  0  0  0  0  0  0
   -1.0990   -0.6961   -0.5977 C   0  0  0  0  0  0  0  0  0  0  0  0
    0.1358   -0.8077    0.1231 O   0  0  0  0  0  0  0  0  0  0  0  0
   -0.7209    1.6180   -1.0419 O   0  0  0  0  0  0  0  0  0  0  0  0
   -1.6393    0.5308   -0.8819 C   0  0  0  0  0  0  0  0  0  0  0  0
   -1.7970   -1.8385   -0.9524 C   0  0  0  0  0  0  0  0  0  0  0  0
   -3.1401   -1.7419   -1.3743 C   0  0  0  0  0  0  0  0  0  0  0  0
    0.1266    0.7678    2.0697 C   0  0  0  0  0  0  0  0  0  0  0  0
    1.8130    0.4259   -1.4253 C   0  0  0  0  0  0  0  0  0  0  0  0
   -1.8112   -3.6135   -3.3482 N   0  0  0  0  0  0  0  0  0  0  0  0
    1.5456    1.0300    0.7048 O   0  0  0  0  0  0  0  0  0  0  0  0
    1.1608    2.9343   -1.0906 O   0  0  0  0  0  0  0  0  0  0  0  0
   -3.0333    0.6451   -1.0156 C   0  0  0  0  0  0  0  0  0  0  0  0
   -3.7951   -0.5150   -1.2296 C   0  0  0  0  0  0  0  0  0  0  0  0
   -1.2162   -3.9203   -4.6543 C   0  0  0  0  0  0  0  0  0  0  0  0
   -3.2389   -3.2139   -3.4174 C   0  0  0  0  0  0  0  0  0  0  0  0
   -3.8553   -2.9018   -2.0329 C   0  0  0  0  0  0  0  0  0  0  0  0
    0.5937    2.1241    2.2882 C   0  0  0  0  0  0  0  0  0  0  0  0
    1.3316   -0.4541   -2.3374 C   0  0  0  0  0  0  0  0  0  0  0  0
    2.8933   -0.1874   -0.3974 C   0  0  0  0  0  0  0  0  0  0  0  0
   -1.0875    0.2093    2.2590 C   0  0  0  0  0  0  0  0  0  0  0  0
    3.3624   -1.4636   -0.3222 C   0  0  0  0  0  0  0  0  0  0  0  0
   -2.0011    1.1394    2.5678 C   0  0  0  0  0  0  0  0  0  0  0  0
   -0.3405    3.0293    2.5569 C   0  0  0  0  0  0  0  0  0  0  0  0
    1.8728   -1.7377   -2.2454 C   0  0  0  0  0  0  0  0  0  0  0  0
    2.8464   -2.2260   -1.3097 C   0  0  0  0  0  0  0  0  0  0  0  0
   -1.5817    2.4763    2.8144 C   0  0  0  0  0  0  0  0  0  0  0  0
   -3.7928   -4.0407   -1.1875 O   0  0  0  0  0  0  0  0  0  0  0  0
   -1.2433   -2.6713   -5.5484 C   0  0  0  0  0  0  0  0  0  0  0  0
    0.2392   -4.3345   -4.4251 C   0  0  0  0  0  0  0  0  0  0  0  0
   -1.9309   -5.1027   -5.2864 C   0  0  0  0  0  0  0  0  0  0  0  0
   -2.4126    3.2556    3.7327 C   0  0  0  0  0  0  0  0  0  0  0  0
    3.4629   -3.5621   -1.4163 C   0  0  0  0  0  0  0  0  0  0  0  0
  2  5  1  0
  3  4  1  0
  4  1  1  0
  5  6  1  0
  6  3  1  0
  7  3  2  0
  8  7  1  0
  9  1  1  0
 10  2  1  0
 11 17  1  0
 12  1  2  0
 13  2  2  0
 14  6  2  0
 14 15  1  0
 15  8  2  0
 16 11  1  0
 17 18  1  0
 18  8  1  0
 19  9  2  0
 20 10  2  0
 21 10  1  0
 22  9  1  0
 23 21  2  0
 24 22  2  0
 24 28  1  0
 25 19  1  0
 26 20  1  0
 26 27  2  0
 27 23  1  0
 28 25  2  0
 29 18  1  0
 30 16  1  0
 31 16  1  0
 32 16  1  0
 33 28  1  0
 34 27  1  0
M  END
>  <DRUGBANK_ID>  (1) 
DB00901

>  <SECONDARY_ACCESSION_NUMBERS>  (1) 
APRD00827

>  <COMMON_NAME>  (1) 
Bitolterol

>  <CAS_NUMBER>  (1) 
30392-40-6

>  <UNII>  (1) 
9KY0QXD6LI

>  <SYNONYMS>  (1) 
4-(2-(tert-butylamino)-1-hydroxyethyl)-o-phenylene di-p-toluate; 4-[2-(tert-butylamino)-1-hydroxyethyl]-o-phenylene di-p-toluate; bis(4-methylbenzoic acid) 4-[2-(tert-butylamino)-1-hydroxyethyl]-1,2-phenylene ester; Bitolterol; Bitolt√©rol; Bitolterolum

$$$$
