
     RDKit          3D

  9  4  0  0  0  0  0  0  0  0999 V2000
    1.0421    0.0114    0.0900 C   0  0  0  0  0  0  0  0  0  0  0  0
    0.5354    1.4138   -0.2046 C   0  0  0  0  0  0  0  0  0  0  0  0
    0.5521   -0.9135   -0.9421 N   0  0  0  0  0  0  0  0  0  0  0  0
   -0.1953    1.6247   -1.2229 O   0  0  0  0  0  0  0  0  0  0  0  0
    0.8784    2.4885    0.6579 O   0  0  0  0  0  0  0  0  0  0  0  0
    0.9433   -0.0534    0.0628 Al  0  0  0  0  0 15  0  0  0  0  0  0
    1.0720    0.0513   -0.0468 O   0  0  0  0  0  0  0  0  0  0  0  0
    0.9162    0.0539    0.0081 O   0  0  0  0  0  0  0  0  0  0  0  0
    0.9418    0.0464    0.0668 O   0  0  0  0  0  0  0  0  0  0  0  0
  2  1  1  0
  3  1  1  0
  4  2  2  0
  5  2  1  0
M  CHG  4   5  -1   6   3   7  -1   8  -1
M  END
>  <DRUGBANK_ID>  (1) 
DB13626

>  <COMMON_NAME>  (1) 
Aluminium glycinate

>  <CAS_NUMBER>  (1) 
41354-48-7

>  <UNII>  (1) 
DO250MG0W6

>  <SYNONYMS>  (1) 
Aluminio glicinato; Aluminum glycinate; Dihydroxyaluminum aminoacetate

$$$$
