
     RDKit          3D

 17 19  0  0  0  0  0  0  0  0999 V2000
    2.4201   -0.6736   -0.0338 C   0  0  0  0  0  0  0  0  0  0  0  0
    2.3731    0.7288   -0.0425 C   0  0  0  0  0  0  0  0  0  0  0  0
    1.2710   -1.4476   -0.0156 C   0  0  0  0  0  0  0  0  0  0  0  0
    1.1779    1.4304   -0.0256 C   0  0  0  0  0  0  0  0  0  0  0  0
   -2.9220   -2.7531    1.1729 C   0  0  0  0  0  0  0  0  0  0  0  0
   -1.8899   -2.5853    0.0303 C   0  0  0  0  0  0  0  0  0  0  0  0
   -4.8752   -1.7678   -0.3208 C   0  0  0  0  0  0  0  0  0  0  0  0
   -4.6277   -0.8265    2.0362 C   0  0  0  0  0  0  0  0  0  0  0  0
   -4.6579   -0.3656   -0.9019 C   0  0  0  0  0  0  0  0  0  0  0  0
   -4.4624    0.5894    1.4735 C   0  0  0  0  0  0  0  0  0  0  0  0
   -1.9363   -0.0911    0.1054 C   0  0  0  0  0  0  0  0  0  0  0  0
   -4.3217   -2.0267    1.0953 C   0  0  0  0  0  0  0  0  0  0  0  0
   -1.2453   -1.2513    0.0077 C   0  0  0  0  0  0  0  0  0  0  0  0
    0.0635   -0.7732   -0.0241 C   0  0  0  0  0  0  0  0  0  0  0  0
    0.0533    0.6392   -0.0269 C   0  0  0  0  0  0  0  0  0  0  0  0
   -4.9202    0.7408    0.0628 N   0  0  0  0  0  0  0  0  0  0  0  0
   -1.2373    1.0325   -0.0103 N   0  0  0  0  0  0  0  0  0  0  0  0
  2  1  2  0
  3  1  1  0
  4  2  1  0
  6  5  1  0
  9  7  1  0
 10  8  1  0
 12  5  1  0
 12  7  1  0
 12  8  1  0
 13  6  1  0
 13 11  2  0
 14  3  2  0
 14 13  1  0
 15  4  2  0
 15 14  1  0
 16  9  1  0
 16 10  1  0
 17 11  1  0
 17 15  1  0
M  END
>  <DRUGBANK_ID>  (1) 
DB08953

>  <COMMON_NAME>  (1) 
Indalpine

>  <CAS_NUMBER>  (1) 
63758-79-2

>  <UNII>  (1) 
V35562QSVT

>  <SYNONYMS>  (1) 
Indalpine

$$$$
