
     RDKit          3D

 19 18  0  0  0  0  0  0  0  0999 V2000
    1.0358    0.3653   -0.0480 O   0  0  0  0  0  0  0  0  0  0  0  0
    0.4878    0.4162    1.2735 C   0  0  0  0  0  0  0  0  0  0  0  0
    1.0295   -0.6480    2.2729 C   0  0  0  0  0  0  0  0  0  0  0  0
    2.5640   -0.4849    2.5004 C   0  0  0  0  0  0  0  0  0  0  0  0
    2.9083    0.8173    2.9619 O   0  0  0  0  0  0  0  0  0  0  0  0
    0.4083   -0.3710    3.6929 C   0  0  0  0  0  0  0  0  0  0  0  0
   -1.0118   -0.4467    3.7402 O   0  0  0  0  0  0  0  0  0  0  0  0
    0.5938   -2.0058    1.8521 N   0  0  0  0  0  0  0  0  0  0  0  0
    0.9613   -2.5098    0.5298 C   0  0  0  0  0  0  0  0  0  0  0  0
    2.4560   -2.7341    0.2916 C   0  0  0  0  0  0  0  0  0  0  0  0
    3.0811   -3.5822    1.3871 C   0  0  0  0  0  0  0  0  0  0  0  0
    2.6007   -4.9474    1.2243 N   0  0  0  0  0  0  0  0  0  0  0  0
    3.0842   -5.8803    2.2734 C   0  0  0  0  0  0  0  0  0  0  0  0
    2.5363   -5.5139    3.6783 C   0  0  0  0  0  0  0  0  0  0  0  0
    1.1090   -5.4728    3.7003 O   0  0  0  0  0  0  0  0  0  0  0  0
    2.5200   -7.2644    1.8565 C   0  0  0  0  0  0  0  0  0  0  0  0
    2.9492   -7.6009    0.5310 O   0  0  0  0  0  0  0  0  0  0  0  0
    4.6403   -5.9205    2.2999 C   0  0  0  0  0  0  0  0  0  0  0  0
    5.2136   -6.2070    1.0231 O   0  0  0  0  0  0  0  0  0  0  0  0
  1  2  1  0
  2  3  1  0
  3  4  1  0
  3  6  1  0
  3  8  1  0
  4  5  1  0
  6  7  1  0
  8  9  1  0
  9 10  1  0
 10 11  1  0
 11 12  1  0
 12 13  1  0
 13 14  1  0
 13 16  1  0
 13 18  1  0
 14 15  1  0
 16 17  1  0
 18 19  1  0
M  END
>  <DRUGBANK_ID>  (1) 
DB02676

>  <SECONDARY_ACCESSION_NUMBERS>  (1) 
EXPT00612

>  <COMMON_NAME>  (1) 
2-[3-(2-Hydroxy-1,1-Dihydroxymethyl-Ethylamino)-Propylamino]-2-Hydroxymethyl-Propane-1,3-Diol

>  <UNII>  (1) 
N5YD0CS4DO

$$$$
