586
     RDKit          3D

 19 20  0  0  0  0  0  0  0  0999 V2000
   -2.6684    0.8128   -0.0088 Cl  0  0  0  0  0  0  0  0  0  0  0  0
    2.8370    0.3697    0.6258 Cl  0  0  0  0  0  0  0  0  0  0  0  0
    2.6466    1.9215   -4.4796 O   0  0  0  0  0  0  0  0  0  0  0  0
    0.8818    3.1976   -3.8785 O   0  0  0  0  0  0  0  0  0  0  0  0
    0.0867    2.0471    0.1350 N   0  0  0  0  0  0  0  0  0  0  0  0
    2.0862    2.7987   -1.1070 C   0  0  0  0  0  0  0  0  0  0  0  0
    1.1925    2.9006   -0.0183 C   0  0  0  0  0  0  0  0  0  0  0  0
    1.8965    1.7858   -2.2164 C   0  0  0  0  0  0  0  0  0  0  0  0
    0.0688    0.6298    0.1500 C   0  0  0  0  0  0  0  0  0  0  0  0
    3.2781    3.5432   -1.0760 C   0  0  0  0  0  0  0  0  0  0  0  0
    1.4618    3.8052    1.0199 C   0  0  0  0  0  0  0  0  0  0  0  0
    3.5833    4.3532    0.0177 C   0  0  0  0  0  0  0  0  0  0  0  0
    2.6609    4.5144    1.0466 C   0  0  0  0  0  0  0  0  0  0  0  0
   -1.1654   -0.0500    0.0438 C   0  0  0  0  0  0  0  0  0  0  0  0
    1.2326   -0.1803    0.2424 C   0  0  0  0  0  0  0  0  0  0  0  0
    1.7542    2.3895   -3.5772 C   0  0  0  0  0  0  0  0  0  0  0  0
   -1.2256   -1.4488   -0.0067 C   0  0  0  0  0  0  0  0  0  0  0  0
    1.1679   -1.5642    0.0819 C   0  0  0  0  0  0  0  0  0  0  0  0
   -0.0565   -2.2018   -0.0142 C   0  0  0  0  0  0  0  0  0  0  0  0
  1 14  1  0
  2 15  1  0
  3 16  1  0
  4 16  2  0
  5  7  1  0
  5  9  1  0
  6  7  2  0
  6  8  1  0
  6 10  1  0
  7 11  1  0
  8 16  1  0
  9 14  2  0
  9 15  1  0
 10 12  2  0
 11 13  2  0
 12 13  1  0
 14 17  1  0
 15 18  2  0
 17 19  2  0
 18 19  1  0
M  END
>  <DRUGBANK_ID>  (1) 
DB00586

>  <SECONDARY_ACCESSION_NUMBERS>  (1) 
APRD00527

>  <COMMON_NAME>  (1) 
Diclofenac

>  <CAS_NUMBER>  (1) 
15307-86-5

>  <UNII>  (1) 
144O8QL0L1

>  <SYNONYMS>  (1) 
[2-(2,6-dichloroanilino)phenyl]acetic acid; 2-((2,6-dichlorophenyl)amino)benzeneacetic acid; Diclofenac; Diclofenac acid; Diclofenaco; Diclofenacum

$$$$
