689
     RDKit          3D

 28 30  0  0  1  0  0  0  0  0999 V2000
   -1.5563   -0.6898   -4.7131 S   0  0  0  0  0  0  0  0  0  0  0  0
    0.0053   -0.2274   -0.6255 O   0  0  0  0  0  0  0  0  0  0  0  0
   -0.3493   -4.9549   -3.2037 O   0  0  0  0  0  0  0  0  0  0  0  0
   -1.0512   -2.4923    0.2979 O   0  0  0  0  0  0  0  0  0  0  0  0
   -1.1044    4.4557   -3.3013 O   0  0  0  0  0  0  0  0  0  0  0  0
   -1.0847   -4.4044   -0.8103 O   0  0  0  0  0  0  0  0  0  0  0  0
    0.4299   -3.6160   -4.8858 O   0  0  0  0  0  0  0  0  0  0  0  0
   -1.6351   -1.0188   -2.0601 N   0  0  0  0  0  0  0  0  0  0  0  0
   -1.0502    2.2302   -3.0805 N   0  0  0  0  0  0  0  0  0  0  0  0
   -2.1728    3.8297   -0.2968 N   0  0  0  0  0  0  0  0  0  0  0  0
   -2.1570   -0.1510   -3.1097 C   0  0  1  0  0  0  0  0  0  0  0  0
   -1.3627    1.0016   -2.3749 C   0  0  1  0  0  0  0  0  0  0  0  0
   -0.7133   -0.1241   -1.6237 C   0  0  0  0  0  0  0  0  0  0  0  0
   -1.5930   -2.3927   -2.0910 C   0  0  0  0  0  0  0  0  0  0  0  0
   -1.9005   -3.0404   -3.2438 C   0  0  0  0  0  0  0  0  0  0  0  0
   -2.3182   -2.3407   -4.5295 C   0  0  0  0  0  0  0  0  0  0  0  0
   -1.7140   -4.5377   -3.4349 C   0  0  0  0  0  0  0  0  0  0  0  0
   -1.6215    3.4655   -2.7640 C   0  0  0  0  0  0  0  0  0  0  0  0
   -1.1817   -3.1866   -0.8493 C   0  0  0  0  0  0  0  0  0  0  0  0
   -2.7868    3.6810   -1.6369 C   0  0  1  0  0  0  0  0  0  0  0  0
   -3.9833    2.7028   -1.5713 C   0  0  0  0  0  0  0  0  0  0  0  0
   -3.8408    1.3491   -1.2635 C   0  0  0  0  0  0  0  0  0  0  0  0
   -5.3198    3.0841   -1.5615 C   0  0  0  0  0  0  0  0  0  0  0  0
    0.6235   -4.3851   -3.9548 C   0  0  0  0  0  0  0  0  0  0  0  0
   -4.7904    0.3477   -1.3777 C   0  0  0  0  0  0  0  0  0  0  0  0
   -6.3435    2.1058   -1.3994 C   0  0  0  0  0  0  0  0  0  0  0  0
   -6.0854    0.7337   -1.4334 C   0  0  0  0  0  0  0  0  0  0  0  0
    1.9914   -4.7870   -3.4901 C   0  0  0  0  0  0  0  0  0  0  0  0
 11  1  1  6
  1 16  1  0
  2 13  2  0
  3 17  1  0
  3 24  1  0
  4 19  1  0
  5 18  2  0
  6 19  2  0
  7 24  2  0
  8 11  1  0
  8 13  1  0
  8 14  1  0
  9 18  1  0
 11 12  1  0
 12  9  1  6
 12 13  1  0
 14 15  2  0
 14 19  1  0
 15 16  1  0
 15 17  1  0
 20 21  1  0
 20 18  1  0
 20 10  1  1
 21 22  2  0
 21 23  1  0
 22 25  1  0
 23 26  2  0
 24 28  1  0
 25 27  2  0
 26 27  1  0
M  END
>  <DRUGBANK_ID>  (1) 
DB00689

>  <SECONDARY_ACCESSION_NUMBERS>  (1) 
APRD00858

>  <COMMON_NAME>  (1) 
Cephaloglycin

>  <CAS_NUMBER>  (1) 
3577-01-3

>  <UNII>  (1) 
HD2D469W6U

>  <SYNONYMS>  (1) 
7-(2-D-alpha-Aminophenylacetamido)cephalosporanic acid; 7-(D-2-Amino-2-phenylacetamido)-3-acetoxymethyl-delta(sup3)-cephem-4-carboxylic acid; 7-(D-alpha-Aminophenyl-acetamido)cephalosporanic acid; Cefaloglicina; Cefaloglycin; Cefaloglycine; Cefaloglycinum; CEG; Cephaloglycin anhydrous; Cephaloglycine; Cephaoglycin acid; D-(-)-Cephaloglycin; D-Cephaloglycine

$$$$
