683
     RDKit          3D

 23 26  0  0  0  0  0  0  0  0999 V2000
    0.9592   -0.0640    0.0416 Cl  0  0  0  0  0  0  0  0  0  0  0  0
    4.3855   -5.1179   -0.2032 F   0  0  0  0  0  0  0  0  0  0  0  0
    6.8970    0.0086    0.1935 N   0  0  0  0  0  0  0  0  0  0  0  0
    6.5458   -3.0101    0.0456 N   0  0  0  0  0  0  0  0  0  0  0  0
    9.0087    0.7513    0.1730 N   0  0  0  0  0  0  0  0  0  0  0  0
    5.4803   -0.0378    0.1168 C   0  0  0  0  0  0  0  0  0  0  0  0
    7.6939   -1.0091    0.6767 C   0  0  0  0  0  0  0  0  0  0  0  0
    4.7974   -1.2404   -0.1394 C   0  0  0  0  0  0  0  0  0  0  0  0
    7.1646   -2.3031    1.1517 C   0  0  0  0  0  0  0  0  0  0  0  0
    5.4876   -2.5241   -0.5112 C   0  0  0  0  0  0  0  0  0  0  0  0
    7.7601    1.0557   -0.1289 C   0  0  0  0  0  0  0  0  0  0  0  0
    8.9765   -0.5176    0.6689 C   0  0  0  0  0  0  0  0  0  0  0  0
    4.7440    1.1352    0.3535 C   0  0  0  0  0  0  0  0  0  0  0  0
    3.3872   -1.2331   -0.1561 C   0  0  0  0  0  0  0  0  0  0  0  0
    4.8931   -3.2861   -1.6364 C   0  0  0  0  0  0  0  0  0  0  0  0
    7.3766    2.3098   -0.8350 C   0  0  0  0  0  0  0  0  0  0  0  0
    3.3511    1.1324    0.3101 C   0  0  0  0  0  0  0  0  0  0  0  0
    2.6778   -0.0536    0.0625 C   0  0  0  0  0  0  0  0  0  0  0  0
    4.3119   -4.5312   -1.4064 C   0  0  0  0  0  0  0  0  0  0  0  0
    4.7699   -2.6698   -2.8869 C   0  0  0  0  0  0  0  0  0  0  0  0
    3.5551   -5.1410   -2.4020 C   0  0  0  0  0  0  0  0  0  0  0  0
    3.9362   -3.2385   -3.8492 C   0  0  0  0  0  0  0  0  0  0  0  0
    3.3177   -4.4659   -3.6012 C   0  0  0  0  0  0  0  0  0  0  0  0
  1 18  1  0
  2 19  1  0
  3  6  1  0
  3  7  1  0
  3 11  1  0
  4  9  1  0
  4 10  2  0
  5 11  2  0
  5 12  1  0
  6  8  2  0
  6 13  1  0
  7  9  1  0
  7 12  2  0
  8 10  1  0
  8 14  1  0
 10 15  1  0
 11 16  1  0
 13 17  2  0
 14 18  2  0
 15 19  2  0
 15 20  1  0
 17 18  1  0
 19 21  1  0
 20 22  2  0
 21 23  2  0
 22 23  1  0
M  END
>  <DRUGBANK_ID>  (1) 
DB00683

>  <SECONDARY_ACCESSION_NUMBERS>  (1) 
APRD00680

>  <COMMON_NAME>  (1) 
Midazolam

>  <CAS_NUMBER>  (1) 
59467-70-8

>  <UNII>  (1) 
R60L0SM5BC

>  <SYNONYMS>  (1) 
Midazolam; Midazolamum

$$$$
