
     RDKit          3D

 39 44  0  0  0  0  0  0  0  0999 V2000
    1.0201    0.0600    0.0224 C   0  0  0  0  0  0  0  0  0  0  0  0
    0.5186   -1.0365   -0.7420 O   0  0  0  0  0  0  0  0  0  0  0  0
    0.9009   -1.0234   -2.0573 C   0  0  0  0  0  0  0  0  0  0  0  0
   -0.0938   -1.2248   -2.9344 N   0  0  0  0  0  0  0  0  0  0  0  0
    0.2320   -1.1023   -4.2411 C   0  0  0  0  0  0  0  0  0  0  0  0
    1.5370   -1.0032   -4.7319 C   0  0  0  0  0  0  0  0  0  0  0  0
    1.8277   -1.2329   -6.1871 C   0  0  0  0  0  0  0  0  0  0  0  0
    1.5590   -2.5690   -6.7380 N   0  0  0  0  0  0  0  0  0  0  0  0
    1.8985   -3.7325   -5.8099 C   0  0  0  0  0  0  0  0  0  0  0  0
    0.4779   -3.6316   -5.2196 C   0  0  0  0  0  0  0  0  0  0  0  0
    0.1216   -3.0423   -6.6252 C   0  0  0  0  0  0  0  0  0  0  0  0
   -0.1533   -4.2655   -7.5406 C   0  0  0  0  0  0  0  0  0  0  0  0
    1.1045   -4.9835   -7.7707 N   0  0  0  0  0  0  0  0  0  0  0  0
    1.9372   -5.0877   -6.5651 C   0  0  0  0  0  0  0  0  0  0  0  0
    1.5436   -5.3946   -9.0067 C   0  0  0  0  0  0  0  0  0  0  0  0
    1.6718   -4.5172  -10.0972 C   0  0  0  0  0  0  0  0  0  0  0  0
    1.9979   -4.9949  -11.3851 C   0  0  0  0  0  0  0  0  0  0  0  0
    2.2423   -6.3568  -11.5648 C   0  0  0  0  0  0  0  0  0  0  0  0
    2.1767   -7.1416  -10.4212 C   0  0  0  0  0  0  0  0  0  0  0  0
    1.8494   -6.6999   -9.1700 N   0  0  0  0  0  0  0  0  0  0  0  0
    2.3775   -7.0098  -12.8917 C   0  0  0  0  0  0  0  0  0  0  0  0
    3.5898   -6.9586  -13.5398 C   0  0  0  0  0  0  0  0  0  0  0  0
    3.8429   -7.2054  -14.9905 C   0  0  0  0  0  0  0  0  0  0  0  0
    4.8855   -6.7796  -15.7417 O   0  0  0  0  0  0  0  0  0  0  0  0
    5.8287   -5.9049  -15.1776 C   0  0  0  0  0  0  0  0  0  0  0  0
    5.2682   -4.5069  -14.8570 C   0  0  0  0  0  0  0  0  0  0  0  0
    4.1831   -4.4871  -13.8224 C   0  0  0  0  0  0  0  0  0  0  0  0
    6.3623   -3.6590  -14.2687 C   0  0  0  0  0  0  0  0  0  0  0  0
    4.7290   -3.9159  -16.0322 O   0  0  0  0  0  0  0  0  0  0  0  0
    2.9275   -7.8720  -15.6260 C   0  0  0  0  0  0  0  0  0  0  0  0
    1.9007   -8.0771  -14.8633 N   0  0  0  0  0  0  0  0  0  0  0  0
    0.9206   -8.6415  -15.0302 N   0  0  0  0  0  0  0  0  0  0  0  0
   -0.0814   -9.2274  -15.2599 C   0  0  0  0  0  0  0  0  0  0  0  0
   -0.0369   -8.8286  -13.5473 C   0  0  0  0  0  0  0  0  0  0  0  0
   -0.2767   -7.8910  -12.2441 C   0  0  0  0  0  0  0  0  0  0  0  0
   -0.3531   -7.5304  -11.1271 N   0  0  0  0  0  0  0  0  0  0  0  0
    1.3871   -7.8270  -13.6080 C   0  0  0  0  0  0  0  0  0  0  0  0
    2.5495   -0.8371   -3.8015 C   0  0  0  0  0  0  0  0  0  0  0  0
    2.2164   -0.8151   -2.4507 C   0  0  0  0  0  0  0  0  0  0  0  0
  1  2  1  0
  2  3  1  0
  3  4  2  0
  3 39  1  0
  4  5  1  0
  5  6  2  0
  6  7  1  0
  6 38  1  0
  7  8  1  0
  8  9  1  0
  8 11  1  0
  9 10  1  0
  9 14  1  0
 10 11  1  0
 11 12  1  0
 12 13  1  0
 13 14  1  0
 13 15  1  0
 15 16  2  0
 15 20  1  0
 16 17  1  0
 17 18  2  0
 18 19  1  0
 18 21  1  0
 19 20  2  0
 21 22  2  0
 21 37  1  0
 22 23  1  0
 23 24  1  0
 23 30  2  0
 24 25  1  0
 25 26  1  0
 26 27  1  0
 26 28  1  0
 26 29  1  0
 30 31  1  0
 31 32  1  0
 31 37  1  0
 32 33  2  0
 33 34  1  0
 34 35  1  0
 34 37  2  0
 35 36  3  0
 38 39  2  0
M  END
>  <DRUGBANK_ID>  (1) 
DB15685

>  <COMMON_NAME>  (1) 
Selpercatinib

>  <CAS_NUMBER>  (1) 
2152628-33-4

>  <UNII>  (1) 
CEGM9YBNGD

>  <SYNONYMS>  (1) 
6-(2-hydroxy-2-methylpropoxy)-4-(6-(6-((6-methoxypyridin-3-yl)methyl)-3,6-diazabicyclo[3.1.1]heptan-3-yl)pyridin-3-yl)pyrazolo[1,5-a]pyridine-3-carbonitrile; Selpercatinib

$$$$
