
     RDKit          3D

 15 16  0  0  0  0  0  0  0  0999 V2000
   -0.5046    1.6790   -0.7935 C   0  0  1  0  0  0  0  0  0  0  0  0
    0.6965    0.8751   -0.3347 C   0  0  2  0  0  0  0  0  0  0  0  0
    0.1886    1.3904   -2.3624 C   0  0  0  0  0  0  0  0  0  0  0  0
   -1.7210    1.1824    0.0083 C   0  0  0  0  0  0  0  0  0  0  0  0
    0.2475    0.0395   -1.8274 C   0  0  0  0  0  0  0  0  0  0  0  0
    1.5496    0.0900    0.5369 C   0  0  0  0  0  0  0  0  0  0  0  0
   -0.5068    1.2710   -3.6946 C   0  0  0  0  0  0  0  0  0  0  0  0
    1.7305    1.5277   -2.6464 C   0  0  0  0  0  0  0  0  0  0  0  0
   -2.0848   -0.3360   -0.1379 C   0  0  0  0  0  0  0  0  0  0  0  0
    2.2337   -1.0114   -0.1737 C   0  0  0  0  0  0  0  0  0  0  0  0
    1.3697   -0.0291    1.9359 C   0  0  0  0  0  0  0  0  0  0  0  0
   -1.3482   -1.4546    0.7673 C   0  0  0  0  0  0  0  0  0  0  0  0
    1.0601   -2.0777   -0.2502 C   0  0  0  0  0  0  0  0  0  0  0  0
   -0.1895   -2.2300    0.6808 C   0  0  0  0  0  0  0  0  0  0  0  0
   -2.0422   -1.5699    2.1013 C   0  0  0  0  0  0  0  0  0  0  0  0
  1  2  1  0
  1  3  1  0
  1  4  1  6
  2  5  1  6
  2  6  1  0
  3  5  1  0
  3  7  1  0
  3  8  1  0
  4  9  1  0
  6 10  1  0
  6 11  2  0
  9 12  1  0
 10 13  1  0
 12 14  2  0
 12 15  1  0
 13 14  1  0
M  END
>  <DRUGBANK_ID>  (1) 
DB16854

>  <COMMON_NAME>  (1) 
Caryophyllene

>  <CAS_NUMBER>  (1) 
87-44-5

>  <UNII>  (1) 
NRY8I0KNIR

>  <SYNONYMS>  (1) 
Beta-Caryophyllene; Î²-Caryophyllene

$$$$
