
     RDKit          3D

 30 34  0  0  0  0  0  0  0  0999 V2000
    1.7712    1.5525    0.0817 S   0  0  0  0  0  0  0  0  0  0  0  0
   -1.7440   -4.8219    1.9550 O   0  0  0  0  0  0  0  0  0  0  0  0
   -1.6838   -8.0083   -1.3737 O   0  0  0  0  0  0  0  0  0  0  0  0
   -1.6607   -6.1864    0.0215 N   0  0  0  0  0  0  0  0  0  0  0  0
    2.5814   -2.0375   -0.2376 N   0  0  0  0  0  0  0  0  0  0  0  0
    2.6669    0.2015    0.2057 N   0  0  0  0  0  0  0  0  0  0  0  0
    3.1518   -4.9950   -0.6525 N   0  0  0  0  0  0  0  0  0  0  0  0
   -2.8011   -6.9322    1.8267 C   0  0  2  0  0  0  0  0  0  0  0  0
   -2.3910   -8.1156    0.9399 C   0  0  1  0  0  0  0  0  0  0  0  0
   -1.9908   -5.8249    1.3075 C   0  0  0  0  0  0  0  0  0  0  0  0
   -1.9273   -7.4745   -0.3237 C   0  0  0  0  0  0  0  0  0  0  0  0
    1.9037   -0.8729    0.0721 C   0  0  0  0  0  0  0  0  0  0  0  0
    0.4005   -0.5838    0.0519 C   0  0  0  0  0  0  0  0  0  0  0  0
    0.2374    0.8051    0.0567 C   0  0  0  0  0  0  0  0  0  0  0  0
   -2.6241   -7.0632    3.3280 C   0  0  0  0  0  0  0  0  0  0  0  0
   -1.2155   -8.9309    1.4728 C   0  0  0  0  0  0  0  0  0  0  0  0
   -0.8086   -5.4775   -0.8097 C   0  0  0  0  0  0  0  0  0  0  0  0
   -0.8498   -1.3015   -0.0232 C   0  0  0  0  0  0  0  0  0  0  0  0
   -1.0160    1.4521    0.0156 C   0  0  0  0  0  0  0  0  0  0  0  0
    3.2520   -2.8326    0.8468 C   0  0  0  0  0  0  0  0  0  0  0  0
    1.8473   -2.9002   -1.1010 C   0  0  0  0  0  0  0  0  0  0  0  0
   -1.4389   -7.9250    3.7420 C   0  0  0  0  0  0  0  0  0  0  0  0
   -1.4033   -9.2212    2.9468 C   0  0  0  0  0  0  0  0  0  0  0  0
   -2.1139   -0.6692   -0.0111 C   0  0  0  0  0  0  0  0  0  0  0  0
    3.9632   -4.0746    0.1909 C   0  0  0  0  0  0  0  0  0  0  0  0
    2.4905   -4.1709   -1.6809 C   0  0  0  0  0  0  0  0  0  0  0  0
   -2.1896    0.7061    0.0033 C   0  0  0  0  0  0  0  0  0  0  0  0
    0.0409   -4.6674    0.0654 C   0  0  0  0  0  0  0  0  0  0  0  0
    2.2831   -5.9228    0.0979 C   0  0  0  0  0  0  0  0  0  0  0  0
    1.1196   -5.3588    0.9009 C   0  0  0  0  0  0  0  0  0  0  0  0
  1  6  1  0
  1 14  1  0
  2 10  2  0
  3 11  2  0
  4 10  1  0
  4 11  1  0
  4 17  1  0
  5 12  1  0
  5 20  1  0
  5 21  1  0
  6 12  2  0
  7 25  1  0
  7 26  1  0
  7 29  1  0
  8  9  1  0
  8 10  1  0
  8 15  1  1
  9 11  1  0
  9 16  1  1
 12 13  1  0
 13 14  2  0
 13 18  1  0
 14 19  1  0
 15 22  1  0
 16 23  1  0
 17 28  1  0
 18 24  2  0
 19 27  2  0
 20 25  1  0
 21 26  1  0
 22 23  1  0
 24 27  1  0
 28 30  1  0
 29 30  1  0
M  END
>  <DRUGBANK_ID>  (1) 
DB08922

>  <COMMON_NAME>  (1) 
Perospirone

>  <CAS_NUMBER>  (1) 
150915-41-6

>  <UNII>  (1) 
N303OK87DT

>  <SYNONYMS>  (1) 
cis-N-(4-(4-(1,2-Benzisothiazol-3-yl)-1-piperazinyl)butyl)-1,2-cyclohexanedicarboximide; Perospirone; SM-9018

$$$$
