
     RDKit          3D

 10 11  0  0  1  0  0  0  0  0999 V2000
    0.7235   -1.3406    1.0540 C   0  0  0  0  0  0  0  0  0  0  0  0
   -0.7795    0.1601   -0.2223 C   0  0  0  0  0  0  0  0  0  0  0  0
    0.5661    1.8713    1.9586 C   0  0  0  0  0  0  0  0  0  0  0  0
   -2.7343   -0.0215    2.0487 C   0  0  0  0  0  0  0  0  0  0  0  0
   -1.9208    1.2699    2.2166 C   0  0  0  0  0  0  0  0  0  0  0  0
   -1.0168   -1.1816    3.4052 C   0  0  0  0  0  0  0  0  0  0  0  0
   -1.6281   -1.0843    1.9857 C   0  0  2  0  0  0  0  0  0  0  0  0
   -0.4860   -0.3950    1.1926 C   0  0  0  0  0  0  0  0  0  0  0  0
   -0.4429    0.7617    2.2283 C   0  0  1  0  0  0  0  0  0  0  0  0
   -0.2362    0.0723    3.5264 N   0  0  0  0  0  0  0  0  0  0  0  0
  5  4  1  0
  7  4  1  1
  7  6  1  0
  8  7  1  0
  8  1  1  0
  8  2  1  0
  9  5  1  0
  9  8  1  0
  9  3  1  6
 10  6  1  0
 10  9  1  0
M  END
>  <DRUGBANK_ID>  (1) 
DB02409

>  <SECONDARY_ACCESSION_NUMBERS>  (1) 
EXPT00106

>  <COMMON_NAME>  (1) 
(1r,4s)-2-Azabornane

$$$$
