
     RDKit          3D

 22 22  0  0  0  0  0  0  0  0999 V2000
    0.9736    0.0006   -0.2163 C   0  0  0  0  0  0  0  0  0  0  0  0
    0.5582   -1.3446   -0.3650 O   0  0  0  0  0  0  0  0  0  0  0  0
    1.3553   -2.3338    0.1472 C   0  0  0  0  0  0  0  0  0  0  0  0
    2.5240   -2.2197    0.9129 C   0  0  0  0  0  0  0  0  0  0  0  0
    3.1226   -1.0737    1.3562 O   0  0  0  0  0  0  0  0  0  0  0  0
    3.2248   -3.3608    1.2971 C   0  0  0  0  0  0  0  0  0  0  0  0
    2.7724   -4.6255    0.9478 C   0  0  0  0  0  0  0  0  0  0  0  0
    1.5940   -4.7777    0.2159 C   0  0  0  0  0  0  0  0  0  0  0  0
    1.0927   -6.1750   -0.0583 C   0  0  0  0  0  0  0  0  0  0  0  0
   -0.1696   -6.4558    0.5649 O   0  0  0  0  0  0  0  0  0  0  0  0
   -0.2638   -6.3210    1.9128 C   0  0  0  0  0  0  0  0  0  0  0  0
    0.6790   -6.1336    2.6749 O   0  0  0  0  0  0  0  0  0  0  0  0
   -1.6876   -6.4693    2.3957 C   0  0  0  0  0  0  0  0  0  0  0  0
   -2.6347   -5.4272    1.7990 C   0  0  0  0  0  0  0  0  0  0  0  0
   -2.8139   -5.5883    0.2866 C   0  0  0  0  0  0  0  0  0  0  0  0
   -3.3070   -6.9967   -0.0656 C   0  0  0  0  0  0  0  0  0  0  0  0
   -4.7046   -7.2398    0.5132 C   0  0  0  0  0  0  0  0  0  0  0  0
   -5.7166   -6.2414   -0.0593 C   0  0  0  0  0  0  0  0  0  0  0  0
   -5.7899   -6.3315   -1.5924 C   0  0  0  0  0  0  0  0  0  0  0  0
   -6.2421   -7.7281   -2.0138 C   0  0  0  0  0  0  0  0  0  0  0  0
   -6.7154   -5.2631   -2.1498 C   0  0  0  0  0  0  0  0  0  0  0  0
    0.8968   -3.6263   -0.1878 C   0  0  0  0  0  0  0  0  0  0  0  0
  1  2  1  0
  2  3  1  0
  3  4  2  0
  3 22  1  0
  4  5  1  0
  4  6  1  0
  6  7  2  0
  7  8  1  0
  8  9  1  0
  8 22  2  0
  9 10  1  0
 10 11  1  0
 11 12  2  0
 11 13  1  0
 13 14  1  0
 14 15  1  0
 15 16  1  0
 16 17  1  0
 17 18  1  0
 18 19  1  0
 19 20  1  0
 19 21  1  0
M  END
>  <DRUGBANK_ID>  (1) 
DB15398

>  <COMMON_NAME>  (1) 
Dihydrocapsiate

>  <CAS_NUMBER>  (1) 
205687-03-2

>  <UNII>  (1) 
W2F7769AEU

$$$$
