
     RDKit          3D

 23 24  0  0  1  0  0  0  0  0999 V2000
    0.9925    0.0652   -0.0534 C   0  0  0  0  0  0  0  0  0  0  0  0
    0.5189    1.2050   -0.9659 C   0  0  1  0  0  0  0  0  0  0  0  0
    1.1770    1.2072   -2.2962 C   0  0  0  0  0  0  0  0  0  0  0  0
    1.3342   -0.0053   -2.9606 C   0  0  0  0  0  0  0  0  0  0  0  0
    1.7439   -0.0082   -4.2708 C   0  0  0  0  0  0  0  0  0  0  0  0
    1.9562    1.2028   -4.9315 C   0  0  0  0  0  0  0  0  0  0  0  0
    2.3317    1.2035   -6.2689 C   0  0  0  0  0  0  0  0  0  0  0  0
    2.5444    2.4054   -6.9421 C   0  0  0  0  0  0  0  0  0  0  0  0
    2.3612    3.6191   -6.2757 C   0  0  0  0  0  0  0  0  0  0  0  0
    1.9754    3.6396   -4.9395 C   0  0  0  0  0  0  0  0  0  0  0  0
    1.7802    2.4373   -4.2617 C   0  0  0  0  0  0  0  0  0  0  0  0
    1.3955    2.4336   -2.9331 C   0  0  0  0  0  0  0  0  0  0  0  0
    2.9313    2.2691   -8.2465 O   0  0  0  0  0  0  0  0  0  0  0  0
    3.1792    3.4813   -8.9460 C   0  0  0  0  0  0  0  0  0  0  0  0
   -0.9772    1.3113   -1.3058 C   0  0  0  0  0  0  0  0  0  0  0  0
   -1.5186    2.3942   -1.5119 O   0  0  0  0  0  0  0  0  0  0  0  0
   -1.6453    0.1330   -1.2534 O   0  0  0  0  0  0  0  0  0  0  0  0
   -3.0743    0.2888   -1.2515 C   0  0  0  0  0  0  0  0  0  0  0  0
   -3.5756    0.3361    0.1808 C   0  0  0  0  0  0  0  0  0  0  0  0
   -3.1940    1.8096    1.1465 S   0  0  0  0  0  0  0  0  0  0  0  0
   -3.5599    2.9813    0.3610 O   0  0  0  0  0  0  0  0  0  0  0  0
   -3.8060    1.6092    2.4396 O   0  0  0  0  0  0  0  0  0  0  0  0
   -1.4453    1.8712    1.5064 C   0  0  0  0  0  0  0  0  0  0  0  0
  2  1  1  6
  2  3  1  0
  2 15  1  0
  3  4  2  0
  3 12  1  0
  4  5  1  0
  5  6  2  0
  6  7  1  0
  6 11  1  0
  7  8  2  0
  8  9  1  0
  8 13  1  0
  9 10  2  0
 10 11  1  0
 11 12  2  0
 13 14  1  0
 15 16  2  0
 15 17  1  0
 17 18  1  0
 18 19  1  0
 19 20  1  0
 20 21  2  0
 20 22  2  0
 20 23  1  0
M  END
>  <DRUGBANK_ID>  (1) 
DB12398

>  <SECONDARY_ACCESSION_NUMBERS>  (1) 
DB05844

>  <COMMON_NAME>  (1) 
Naproxen etemesil

>  <CAS_NUMBER>  (1) 
385800-16-8

>  <UNII>  (1) 
214269U36R

>  <SYNONYMS>  (1) 
Naproxen etemesil

$$$$
