
     RDKit          3D

 24 27  0  0  1  0  0  0  0  0999 V2000
    3.1591   -0.8027    0.8871 C   0  0  0  0  0  0  0  0  0  0  0  0
    2.6101   -0.9153    2.2966 C   0  0  0  0  0  0  0  0  0  0  0  0
    1.0840   -0.7103    2.3049 C   0  0  1  0  0  0  0  0  0  0  0  0
    0.3824   -1.6146    3.3433 C   0  0  0  0  0  0  0  0  0  0  0  0
   -0.4433   -0.8223    4.2760 N   0  0  0  0  0  0  0  0  0  0  0  0
   -1.4706   -0.1003    3.5045 C   0  0  0  0  0  0  0  0  0  0  0  0
   -0.8318    0.8826    2.5175 C   0  0  0  0  0  0  0  0  0  0  0  0
    0.7035    0.7648    2.5847 C   0  0  1  0  0  0  0  0  0  0  0  0
    1.1127    1.1325    4.0178 C   0  0  0  0  0  0  0  0  0  0  0  0
    0.4399    0.1506    4.9944 C   0  0  1  0  0  0  0  0  0  0  0  0
   -0.2968    0.9352    6.1231 C   0  0  1  0  0  0  0  0  0  0  0  0
   -0.9476   -0.0140    7.1116 C   0  0  0  0  0  0  0  0  0  0  0  0
   -2.3473   -0.1006    7.0755 C   0  0  0  0  0  0  0  0  0  0  0  0
   -2.9764   -1.0536    7.8461 C   0  0  0  0  0  0  0  0  0  0  0  0
   -2.3200   -1.8967    8.6628 N   0  0  0  0  0  0  0  0  0  0  0  0
   -0.9814   -1.8185    8.7149 C   0  0  0  0  0  0  0  0  0  0  0  0
   -0.2231   -0.8991    7.9515 C   0  0  0  0  0  0  0  0  0  0  0  0
    1.1902   -0.9479    8.0650 C   0  0  0  0  0  0  0  0  0  0  0  0
    1.8442   -1.8314    8.9150 C   0  0  0  0  0  0  0  0  0  0  0  0
    1.0829   -2.7089    9.6684 C   0  0  0  0  0  0  0  0  0  0  0  0
   -0.3103   -2.6944    9.5512 C   0  0  0  0  0  0  0  0  0  0  0  0
    3.2061   -1.7313    8.9092 O   0  0  0  0  0  0  0  0  0  0  0  0
    3.9004   -2.6217    9.7722 C   0  0  0  0  0  0  0  0  0  0  0  0
    0.5276    1.9147    6.7545 O   0  0  0  0  0  0  0  0  0  0  0  0
  1  2  1  0
  3  4  1  0
  3  8  1  0
  3  2  1  1
  5  4  1  0
  5  6  1  0
  5 10  1  0
  6  7  1  0
  8  7  1  1
  8  9  1  0
 10  9  1  6
 10 11  1  0
 11 12  1  0
 11 24  1  1
 12 13  2  0
 12 17  1  0
 13 14  1  0
 14 15  2  0
 15 16  1  0
 16 17  2  0
 16 21  1  0
 17 18  1  0
 18 19  2  0
 19 20  1  0
 19 22  1  0
 20 21  2  0
 22 23  1  0
M  END
>  <DRUGBANK_ID>  (1) 
DB13718

>  <COMMON_NAME>  (1) 
Hydroquinine

>  <CAS_NUMBER>  (1) 
522-66-7

>  <UNII>  (1) 
31J3Q51T6L

$$$$
