463
     RDKit          3D

 14 14  0  0  0  0  0  0  0  0999 V2000
   -1.3444    2.1954   -0.0151 O   0  0  0  0  0  0  0  0  0  0  0  0
    2.8407    0.1017   -0.3380 O   0  0  0  0  0  0  0  0  0  0  0  0
   -0.7951   -2.3663    0.0266 O   0  0  0  0  0  0  0  0  0  0  0  0
   -1.1095   -0.0862    0.0219 N   0  0  0  0  0  0  0  0  0  0  0  0
    1.0066   -1.0610    0.2290 N   0  0  0  0  0  0  0  0  0  0  0  0
    0.8809    1.3666    0.3236 C   0  0  0  0  0  0  0  0  0  0  0  0
    1.0635    1.6495    1.8389 C   0  0  0  0  0  0  0  0  0  0  0  0
    1.3952    2.5508   -0.5283 C   0  0  0  0  0  0  0  0  0  0  0  0
   -0.6135    1.2055    0.0770 C   0  0  0  0  0  0  0  0  0  0  0  0
    1.6626    0.1091    0.0066 C   0  0  0  0  0  0  0  0  0  0  0  0
    2.5172    1.8794    2.2463 C   0  0  0  0  0  0  0  0  0  0  0  0
    1.2012    2.3111   -2.0220 C   0  0  0  0  0  0  0  0  0  0  0  0
   -0.3392   -1.2311    0.1053 C   0  0  0  0  0  0  0  0  0  0  0  0
   -2.5330   -0.2679   -0.2110 C   0  0  0  0  0  0  0  0  0  0  0  0
  1  9  2  0
  2 10  2  0
  3 13  2  0
  4  9  1  0
  4 13  1  0
  4 14  1  0
  5 10  1  0
  5 13  1  0
  6  7  1  0
  6  8  1  0
  6  9  1  0
  6 10  1  0
  7 11  1  0
  8 12  1  0
M  END
>  <DRUGBANK_ID>  (1) 
DB00463

>  <SECONDARY_ACCESSION_NUMBERS>  (1) 
APRD00757

>  <COMMON_NAME>  (1) 
Metharbital

>  <CAS_NUMBER>  (1) 
50-11-3

>  <UNII>  (1) 
02OS7K758T

>  <SYNONYMS>  (1) 
Metarbital; Metharbital; Metharbitalum

$$$$
