358
     RDKit          3D

 26 28  0  0  1  0  0  0  0  0999 V2000
    1.0441    0.1425    0.0024 F   0  0  0  0  0  0  0  0  0  0  0  0
    2.8219    1.3913   -0.1319 F   0  0  0  0  0  0  0  0  0  0  0  0
    2.8188   -0.3671    1.1477 F   0  0  0  0  0  0  0  0  0  0  0  0
    3.4090    1.8063   -4.3817 F   0  0  0  0  0  0  0  0  0  0  0  0
    5.4127    1.4613   -3.5731 F   0  0  0  0  0  0  0  0  0  0  0  0
    5.0847    1.4807   -5.7119 F   0  0  0  0  0  0  0  0  0  0  0  0
    3.2652   -5.0736   -1.0294 O   0  0  0  0  0  0  0  0  0  0  0  0
    0.5740   -4.1050   -0.5991 N   0  0  0  0  0  0  0  0  0  0  0  0
    3.4192   -0.2291   -2.3439 N   0  0  0  0  0  0  0  0  0  0  0  0
    1.0142   -4.6361   -1.9033 C   0  0  0  0  0  0  0  0  0  0  0  0
    0.2295   -3.9961   -3.0618 C   0  0  0  0  0  0  0  0  0  0  0  0
    2.5509   -4.4470   -2.1017 C   0  0  0  0  0  0  0  0  0  0  0  0
   -1.2734   -4.1104   -2.8471 C   0  0  0  0  0  0  0  0  0  0  0  0
   -1.6584   -3.5927   -1.4645 C   0  0  0  0  0  0  0  0  0  0  0  0
   -0.8475   -4.2770   -0.3684 C   0  0  0  0  0  0  0  0  0  0  0  0
    2.9726   -2.9867   -2.2057 C   0  0  0  0  0  0  0  0  0  0  0  0
    3.5070   -2.4163   -3.3820 C   0  0  0  0  0  0  0  0  0  0  0  0
    2.7138   -2.1445   -1.1147 C   0  0  0  0  0  0  0  0  0  0  0  0
    3.7333   -1.0122   -3.3890 C   0  0  0  0  0  0  0  0  0  0  0  0
    2.8969   -0.7777   -1.2193 C   0  0  0  0  0  0  0  0  0  0  0  0
    3.8110   -3.1625   -4.5414 C   0  0  0  0  0  0  0  0  0  0  0  0
    4.2796   -0.4278   -4.5256 C   0  0  0  0  0  0  0  0  0  0  0  0
    4.3552   -2.5638   -5.6674 C   0  0  0  0  0  0  0  0  0  0  0  0
    4.5954   -1.1997   -5.6579 C   0  0  0  0  0  0  0  0  0  0  0  0
    2.4076    0.0957   -0.0708 C   0  0  0  0  0  0  0  0  0  0  0  0
    4.5352    1.0556   -4.5327 C   0  0  0  0  0  0  0  0  0  0  0  0
  1 25  1  0
  2 25  1  0
  3 25  1  0
  4 26  1  0
  5 26  1  0
  6 26  1  0
  7 12  1  0
  8 10  1  0
  8 15  1  0
  9 19  2  0
  9 20  1  0
 10 11  1  0
 10 12  1  0
 11 13  1  0
 12 16  1  0
 13 14  1  0
 14 15  1  0
 16 17  2  0
 16 18  1  0
 17 19  1  0
 17 21  1  0
 18 20  2  0
 19 22  1  0
 20 25  1  0
 21 23  2  0
 22 24  2  0
 22 26  1  0
 23 24  1  0
M  END
>  <DRUGBANK_ID>  (1) 
DB00358

>  <SECONDARY_ACCESSION_NUMBERS>  (1) 
APRD00300

>  <COMMON_NAME>  (1) 
Mefloquine

>  <CAS_NUMBER>  (1) 
53230-10-7

>  <UNII>  (1) 
TML814419R

>  <SYNONYMS>  (1) 
[(R*,S*)-2,8-bis(trifluoromethyl)quinolin-4-yl]-(2-piperidyl)methanol; alpha-2-Piperidinyl-2,8-bis(trifluoromethyl)-4-quinolinemethanol; Mefloquin; Mefloquina; MÃ©floquine; Mefloquine; Mefloquinum

$$$$
