
     RDKit          3D

 18 19  0  0  0  0  0  0  0  0999 V2000
   -0.6230    3.7463   -0.2370 N   0  0  0  0  0  0  0  0  0  0  0  0
   -1.3834    2.5575    0.1472 C   0  0  1  0  0  0  0  0  0  0  0  0
    0.6421    5.5949    0.6240 N   0  0  0  0  0  0  0  0  0  0  0  0
    0.0746    4.3644    0.8174 C   0  0  0  0  0  0  0  0  0  0  0  0
   -0.7232    4.3568   -1.4665 C   0  0  0  0  0  0  0  0  0  0  0  0
   -2.4388    2.9278    1.1855 C   0  0  2  0  0  0  0  0  0  0  0  0
   -0.1505    5.5430   -1.7007 C   0  0  0  0  0  0  0  0  0  0  0  0
   -2.1157    1.8908   -0.9151 O   0  0  0  0  0  0  0  0  0  0  0  0
    0.5557    6.1731   -0.5371 C   0  0  0  0  0  0  0  0  0  0  0  0
   -3.3844    1.7686    1.1515 C   0  0  1  0  0  0  0  0  0  0  0  0
   -3.3600    1.3676   -0.3227 C   0  0  1  0  0  0  0  0  0  0  0  0
    0.1562    3.8069    1.9178 O   0  0  0  0  0  0  0  0  0  0  0  0
   -3.1071    4.0419    0.7608 F   0  0  0  0  0  0  0  0  0  0  0  0
   -0.2185    6.4966   -3.4991 I   0  0  0  0  0  0  0  0  0  0  0  0
    1.1477    7.4021   -0.6544 N   0  0  0  0  0  0  0  0  0  0  0  0
   -2.9238    0.7187    2.0079 O   0  0  0  0  0  0  0  0  0  0  0  0
   -4.5140    1.9765   -1.1215 C   0  0  0  0  0  0  0  0  0  0  0  0
   -4.4846    1.4659   -2.4546 O   0  0  0  0  0  0  0  0  0  0  0  0
  2  1  1  6
  3  4  1  0
  3  9  2  0
  4  1  1  0
  5  1  1  0
  6  2  1  0
  6 13  1  6
  7  5  2  0
  8  2  1  0
  9  7  1  0
 10  6  1  0
 10 16  1  1
 11  8  1  0
 11 17  1  6
 11 10  1  0
 12  4  2  0
 14  7  1  0
 15  9  1  0
 18 17  1  0
M  END
>  <DRUGBANK_ID>  (1) 
DB12901

>  <COMMON_NAME>  (1) 
Fiacitabine

>  <CAS_NUMBER>  (1) 
69123-90-6

>  <UNII>  (1) 
4058H365ZB

>  <SYNONYMS>  (1) 
FIAC; Fiacitabina; Fiacitabine; Fiacitabinum; Fluorviodoaracytidine

$$$$
