
     RDKit          3D

  9  8  0  0  1  0  0  0  0  0999 V2000
    0.9840    0.0572   -0.1739 N   0  0  0  0  0  0  0  0  0  0  0  0
    0.4337   -1.2407    0.2590 C   0  0  1  0  0  0  0  0  0  0  0  0
    0.9347   -1.5536    1.6940 C   0  0  0  0  0  0  0  0  0  0  0  0
    0.5304   -0.5635    2.8050 C   0  0  0  0  0  0  0  0  0  0  0  0
   -0.9667   -0.4981    3.0483 C   0  0  0  0  0  0  0  0  0  0  0  0
   -1.5070   -1.7897    3.2763 O   0  0  0  0  0  0  0  0  0  0  0  0
   -1.1079   -1.2553   -0.0096 C   0  0  0  0  0  0  0  0  0  0  0  0
   -1.5891   -2.3861   -0.5661 O   0  0  0  0  0  0  0  0  0  0  0  0
   -1.8778   -0.3236    0.2202 O   0  0  0  0  0  0  0  0  0  0  0  0
  2  1  1  1
  2  3  1  0
  2  7  1  0
  3  4  1  0
  4  5  1  0
  5  6  1  0
  7  8  1  0
  7  9  2  0
M  END
>  <DRUGBANK_ID>  (1) 
DB03105

>  <SECONDARY_ACCESSION_NUMBERS>  (1) 
EXPT01193

>  <COMMON_NAME>  (1) 
L-Pentahomoserine

>  <CAS_NUMBER>  (1) 
6152-89-2

>  <UNII>  (1) 
4U1FH45CS8

>  <SYNONYMS>  (1) 
(S)-5-Hydroxynorvaline; 5-Hydroxy-2-aminovaleric acid; L-5-Hydroxynorvaline; L-alpha-Amino-delta-hydroxyvaleric acid

$$$$
