HNA
     RDKit          3D

 21 23  0  0  0  0  0  0  0  0999 V2000
    2.5007   -0.9813   -0.0106 C   0  0  0  0  0  0  0  0  0  0  0  0
    1.2670   -0.2943   -0.0045 C   0  0  0  0  0  0  0  0  0  0  0  0
    1.2454    1.1316    0.0124 C   0  0  0  0  0  0  0  0  0  0  0  0
    2.4767    1.8396    0.0346 C   0  0  0  0  0  0  0  0  0  0  0  0
    3.6859    1.1046    0.0246 C   0  0  0  0  0  0  0  0  0  0  0  0
    3.7009   -0.2852    0.0028 C   0  0  0  0  0  0  0  0  0  0  0  0
   -0.0899    1.7735   -0.0039 C   0  0  0  0  0  0  0  0  0  0  0  0
   -1.3256    0.9998   -0.0189 C   0  0  0  0  0  0  0  0  0  0  0  0
   -1.3070   -0.3807   -0.0011 C   0  0  0  0  0  0  0  0  0  0  0  0
   -0.0134   -1.0806   -0.0034 C   0  0  0  0  0  0  0  0  0  0  0  0
   -2.5324   -1.0617    0.0159 C   0  0  0  0  0  0  0  0  0  0  0  0
   -3.7421   -0.3618   -0.0102 C   0  0  0  0  0  0  0  0  0  0  0  0
   -3.7480    1.0281   -0.0431 C   0  0  0  0  0  0  0  0  0  0  0  0
   -2.5407    1.7068   -0.0415 C   0  0  0  0  0  0  0  0  0  0  0  0
   -0.0536   -2.3075   -0.0018 O   0  0  0  0  0  0  0  0  0  0  0  0
   -0.2591    2.9816   -0.0123 O   0  0  0  0  0  0  0  0  0  0  0  0
    2.5589   -2.3456   -0.0295 O   0  0  0  0  0  0  0  0  0  0  0  0
   -2.6296   -2.4264    0.0671 O   0  0  0  0  0  0  0  0  0  0  0  0
    2.6731    3.3222    0.0848 N   0  0  0  0  0  0  0  0  0  0  0  0
    1.7302    4.1039    0.1302 O   0  0  0  0  0  0  0  0  0  0  0  0
    3.8477    3.7225    0.0934 O   0  0  0  0  0  0  0  0  0  0  0  0
  1  2  2  0
  1  6  1  0
  1 17  1  0
  2  3  1  0
  2 10  1  0
  3  4  2  0
  3  7  1  0
  4  5  1  0
  4 19  1  0
  5  6  2  0
  7  8  1  0
  7 16  2  0
  8  9  2  0
  8 14  1  0
  9 10  1  0
  9 11  1  0
 10 15  2  0
 11 12  2  0
 11 18  1  0
 12 13  1  0
 13 14  2  0
 19 20  1  0
 19 21  2  0
M  CHG  2  19   1  20  -1
M  END
>  <DRUGBANK_ID>  (1) 
DB03035

>  <SECONDARY_ACCESSION_NUMBERS>  (1) 
EXPT01762

>  <COMMON_NAME>  (1) 
1,8-Di-Hydroxy-4-Nitro-Anthraquinone

$$$$
