
     RDKit          3D

 41 45  0  0  0  0  0  0  0  0999 V2000
    0.8888    0.6168   -0.3507 O   0  0  0  0  0  0  0  0  0  0  0  0
   10.2943   -4.6387    1.7055 O   0  0  0  0  0  0  0  0  0  0  0  0
    2.2620   -1.6466    1.2796 O   0  0  0  0  0  0  0  0  0  0  0  0
    5.8288   -5.9277   -4.2388 O   0  0  0  0  0  0  0  0  0  0  0  0
    2.6452   -3.5384   -0.4890 N   0  0  0  0  0  0  0  0  0  0  0  0
    7.2345   -1.0252    0.1896 N   0  0  0  0  0  0  0  0  0  0  0  0
    8.4511   -3.6142    0.8277 N   0  0  0  0  0  0  0  0  0  0  0  0
    7.2619    1.3287    0.0742 N   0  0  0  0  0  0  0  0  0  0  0  0
    9.3418   -5.7163    0.0111 N   0  0  0  0  0  0  0  0  0  0  0  0
    5.2000    2.6408    0.0111 N   0  0  0  0  0  0  0  0  0  0  0  0
    2.1694   -4.9058   -0.4551 C   0  0  0  0  0  0  0  0  0  0  0  0
    3.8882   -3.4761    0.3009 C   0  0  0  0  0  0  0  0  0  0  0  0
    2.2773   -5.5465    0.9848 C   0  0  0  0  0  0  0  0  0  0  0  0
    4.0240   -4.0399    1.7225 C   0  0  0  0  0  0  0  0  0  0  0  0
    3.6558   -5.4632    1.6340 C   0  0  0  0  0  0  0  0  0  0  0  0
    2.1358   -2.5396   -1.5461 C   0  0  0  0  0  0  0  0  0  0  0  0
    0.6144   -1.7593   -1.5202 C   0  0  0  0  0  0  0  0  0  0  0  0
    7.2888   -2.1229   -0.8053 C   0  0  0  0  0  0  0  0  0  0  0  0
    8.4336   -1.0991    1.0872 C   0  0  0  0  0  0  0  0  0  0  0  0
    7.2566   -3.4658    0.0013 C   0  0  0  0  0  0  0  0  0  0  0  0
    8.4810   -2.4996    1.8043 C   0  0  0  0  0  0  0  0  0  0  0  0
    0.1101   -0.5730   -0.4433 C   0  0  0  0  0  0  0  0  0  0  0  0
    6.5636    0.2046   -0.0028 C   0  0  0  0  0  0  0  0  0  0  0  0
    5.1185    0.3181   -0.0375 C   0  0  0  0  0  0  0  0  0  0  0  0
    9.3947   -4.6316    0.8631 C   0  0  0  0  0  0  0  0  0  0  0  0
    4.4613    1.5552   -0.0305 C   0  0  0  0  0  0  0  0  0  0  0  0
    2.1848    0.4583    0.0376 C   0  0  0  0  0  0  0  0  0  0  0  0
    4.2414   -0.7110    0.0934 C   0  0  0  0  0  0  0  0  0  0  0  0
    3.0305    1.5740   -0.0700 C   0  0  0  0  0  0  0  0  0  0  0  0
    2.8076   -0.6926    0.4160 C   0  0  0  0  0  0  0  0  0  0  0  0
    6.5435    2.4816    0.0746 C   0  0  0  0  0  0  0  0  0  0  0  0
    8.6813   -5.8923   -1.2096 C   0  0  0  0  0  0  0  0  0  0  0  0
    8.6027   -4.8191   -2.0672 C   0  0  0  0  0  0  0  0  0  0  0  0
    8.0025   -7.0725   -1.5298 C   0  0  0  0  0  0  0  0  0  0  0  0
    1.0471   -2.4381    1.2822 C   0  0  0  0  0  0  0  0  0  0  0  0
    7.5862   -4.7843   -3.0004 C   0  0  0  0  0  0  0  0  0  0  0  0
    7.1217   -7.0907   -2.6316 C   0  0  0  0  0  0  0  0  0  0  0  0
    6.8378   -5.9077   -3.3174 C   0  0  0  0  0  0  0  0  0  0  0  0
    5.4304   -4.7003   -4.8873 C   0  0  0  0  0  0  0  0  0  0  0  0
    4.7463   -3.7236   -3.9233 C   0  0  0  0  0  0  0  0  0  0  0  0
    6.5349   -4.0833   -5.7564 C   0  0  0  0  0  0  0  0  0  0  0  0
  1 22  1  0
  1 27  1  0
  2 25  2  0
  3 30  1  0
  3 35  1  0
  4 38  1  0
  4 39  1  0
  5 11  1  0
  5 12  1  0
  5 16  1  0
  6 18  1  0
  6 19  1  0
  6 23  1  0
  7 20  1  0
  7 21  1  0
  7 25  1  0
  8 23  2  0
  8 31  1  0
  9 25  1  0
  9 32  1  0
 10 26  1  0
 10 31  2  0
 11 13  1  0
 12 14  1  0
 13 15  1  0
 14 15  1  0
 16 17  1  0
 17 22  1  0
 18 20  1  0
 19 21  1  0
 23 24  1  0
 24 26  2  0
 24 28  1  0
 26 29  1  0
 27 29  2  0
 27 30  1  0
 28 30  2  0
 32 33  2  0
 32 34  1  0
 33 36  1  0
 34 37  2  0
 36 38  2  0
 37 38  1  0
 39 40  1  0
 39 41  1  0
M  END
>  <DRUGBANK_ID>  (1) 
DB05465

>  <COMMON_NAME>  (1) 
Tandutinib

>  <CAS_NUMBER>  (1) 
387867-13-2

>  <UNII>  (1) 
E1IO3ICJ9A

>  <SYNONYMS>  (1) 
Tandutinib

$$$$
