
     RDKit          3D

 34 38  0  0  1  0  0  0  0  0999 V2000
   -7.8692    0.0735   -9.9052 C   0  0  0  0  0  0  0  0  0  0  0  0
   -6.9515   -1.0567   -9.3700 C   0  0  0  0  0  0  0  0  0  0  0  0
   -7.3206   -1.8163   -8.4768 O   0  0  0  0  0  0  0  0  0  0  0  0
   -5.6184   -0.9674   -9.7377 O   0  0  0  0  0  0  0  0  0  0  0  0
   -4.6237   -1.6644   -8.9017 C   0  0  0  0  0  0  0  0  0  0  0  0
   -4.3145   -1.3489   -7.3382 C   0  0  0  0  0  0  0  0  0  0  0  0
   -4.6203   -2.1802   -6.4776 O   0  0  0  0  0  0  0  0  0  0  0  0
   -3.6333    0.0587   -6.9381 C   0  0  2  0  0  0  0  0  0  0  0  0
   -4.4592    1.0690   -6.1929 C   0  0  2  0  0  0  0  0  0  0  0  0
   -4.9584    2.6055   -7.4256 C   0  0  0  0  0  0  0  0  0  0  0  0
   -3.7271    2.4109   -7.1187 C   0  0  2  0  0  0  0  0  0  0  0  0
   -4.1619    1.0484   -7.8722 C   0  0  2  0  0  0  0  0  0  0  0  0
   -6.0238    0.8582   -7.7929 C   0  0  0  0  0  0  0  0  0  0  0  0
   -6.9082    1.3237   -6.5004 C   0  0  1  0  0  0  0  0  0  0  0  0
   -6.5629    2.8127   -5.9472 C   0  0  2  0  0  0  0  0  0  0  0  0
   -4.8313    3.1301   -5.8018 C   0  0  2  0  0  0  0  0  0  0  0  0
   -4.3691    4.5211   -5.6156 C   0  0  0  0  0  0  0  0  0  0  0  0
   -5.2041    4.9531   -4.5289 C   0  0  1  0  0  0  0  0  0  0  0  0
   -6.8944    4.7581   -4.7789 C   0  0  0  0  0  0  0  0  0  0  0  0
   -7.9222    5.5287   -4.3098 C   0  0  0  0  0  0  0  0  0  0  0  0
   -7.6321    5.8760   -2.8890 C   0  0  0  0  0  0  0  0  0  0  0  0
   -8.1730    6.8087   -2.3159 O   0  0  0  0  0  0  0  0  0  0  0  0
   -6.5001    5.0613   -2.3752 C   0  0  0  0  0  0  0  0  0  0  0  0
   -6.7233    3.3612   -3.1172 C   0  0  0  0  0  0  0  0  0  0  0  0
   -7.2513    3.3034   -4.6597 C   0  0  2  0  0  0  0  0  0  0  0  0
   -8.7249    2.7973   -4.8204 C   0  0  0  0  0  0  0  0  0  0  0  0
   -4.6324    4.1770   -3.5018 F   0  0  0  0  0  0  0  0  0  0  0  0
   -8.2390    0.8969   -6.7585 O   0  0  0  0  0  0  0  0  0  0  0  0
   -3.5392    1.0338   -9.2415 C   0  0  0  0  0  0  0  0  0  0  0  0
   -3.6217    1.2871   -4.9713 O   0  0  0  0  0  0  0  0  0  0  0  0
   -2.2857    1.2578   -5.3680 C   0  0  0  0  0  0  0  0  0  0  0  0
   -2.2868    0.2310   -6.4003 O   0  0  0  0  0  0  0  0  0  0  0  0
   -1.6254    2.6091   -5.8234 C   0  0  0  0  0  0  0  0  0  0  0  0
   -1.4867    1.1504   -4.0635 C   0  0  0  0  0  0  0  0  0  0  0  0
  1  2  1  0
  2  3  2  0
  2  4  1  0
  4  5  1  0
  5  6  1  0
  6  7  2  0
  8  9  1  0
  8 12  1  0
  8 32  1  0
  8  6  1  6
  9 10  1  6
  9 30  1  0
 11 10  1  6
 11 12  1  0
 11 16  1  0
 12 13  1  0
 12 29  1  6
 13 14  1  0
 14 28  1  6
 15 14  1  1
 15 16  1  0
 15 25  1  0
 16 17  1  6
 17 18  1  0
 18 19  1  0
 18 27  1  1
 19 20  2  0
 19 25  1  0
 20 21  1  0
 21 23  1  0
 21 22  2  0
 23 24  1  0
 24 25  1  0
 25 26  1  1
 30 31  1  0
 31 32  1  0
 31 33  1  0
 31 34  1  0
M  END
>  <DRUGBANK_ID>  (1) 
DB14673

>  <SECONDARY_ACCESSION_NUMBERS>  (1) 
DBSALT002283

>  <COMMON_NAME>  (1) 
Flurandrenolide acetate

>  <CAS_NUMBER>  (1) 
2802-11-1

>  <UNII>  (1) 
0P9257GI1B

>  <SYNONYMS>  (1) 
Flurandrenolone acetate

$$$$
