
     RDKit          3D

 14 14  0  0  0  0  0  0  0  0999 V2000
   -0.5061   -1.2981    0.0046 C   0  0  0  0  0  0  0  0  0  0  0  0
    1.2343   -0.9651    0.0171 S   0  0  0  0  0  0  0  0  0  0  0  0
   -1.1935   -0.0506   -0.0009 N   0  0  0  0  0  0  0  0  0  0  0  0
   -0.6142   -2.5803    0.0002 N   0  0  0  0  0  0  0  0  0  0  0  0
    0.9095    0.7435    0.0190 C   0  0  0  0  0  0  0  0  0  0  0  0
   -0.3488    1.1076   -0.0036 N   0  0  0  0  0  0  0  0  0  0  0  0
   -2.6500    0.3207    0.0082 C   0  0  0  0  0  0  0  0  0  0  0  0
   -1.7034   -3.3966   -0.0119 C   0  0  0  0  0  0  0  0  0  0  0  0
    2.3385    1.8444    0.0159 S   0  0  0  0  0  0  0  0  0  0  0  0
   -3.0221   -2.7607   -0.0201 C   0  0  0  0  0  0  0  0  0  0  0  0
   -1.6246   -4.6279   -0.0179 O   0  0  0  0  0  0  0  0  0  0  0  0
    2.3521    2.7646   -1.4110 N   0  0  0  0  0  0  0  0  0  0  0  0
    2.2119    2.7712    1.1277 O   0  0  0  0  0  0  0  0  0  0  0  0
    3.5151    1.0188   -0.1214 O   0  0  0  0  0  0  0  0  0  0  0  0
  1  2  1  0
  1  3  1  0
  1  4  2  0
  2  5  1  0
  3  6  1  0
  3  7  1  0
  4  8  1  0
  5  9  1  0
  5  6  2  0
  8 10  1  0
  8 11  2  0
  9 12  1  0
  9 13  2  0
  9 14  2  0
M  END
>  <DRUGBANK_ID>  (1) 
DB00703

>  <SECONDARY_ACCESSION_NUMBERS>  (1) 
APRD00740

>  <COMMON_NAME>  (1) 
Methazolamide

>  <CAS_NUMBER>  (1) 
554-57-4

>  <UNII>  (1) 
W733B0S9SD

>  <SYNONYMS>  (1) 
Metazolamida; Methazolamid; Methazolamide; MÃ©thazolamide; Methazolamidum; Methenamide; Neptazaneat

$$$$
