
     RDKit          3D

  5  4  0  0  0  0  0  0  0  0999 V2000
    1.4918   -0.3805    0.4616 O   0  0  0  0  0  0  0  0  0  0  0  0
    2.7727   -0.2518   -1.6940 O   0  0  0  0  0  0  0  0  0  0  0  0
    2.7727    1.7005   -0.1151 O   0  0  0  0  0  0  0  0  0  0  0  0
    4.0023   -0.4032    0.4898 O   0  0  0  0  0  0  0  0  0  0  0  0
    2.7599    0.1662   -0.2144 P   0  0  0  0  0  0  0  0  0  0  0  0
  5  1  1  0
  5  2  1  0
  5  3  1  0
  5  4  2  0
M  CHG  3   1  -1   2  -1   3  -1
M  END
>  <DRUGBANK_ID>  (1) 
DB14523

>  <COMMON_NAME>  (1) 
Phosphate ion

>  <CAS_NUMBER>  (1) 
14265-44-2

>  <UNII>  (1) 
NK08V8K8HR

>  <SYNONYMS>  (1) 
Orthophosphate; Phosphate

$$$$
