
     RDKit          3D

 27 28  0  0  0  0  0  0  0  0999 V2000
   -2.4055    1.6283   -0.0339 C   0  0  0  0  0  0  0  0  0  0  0  0
   -1.5662    0.4622    0.0137 N   0  0  0  0  0  0  0  0  0  0  0  0
   -1.9532   -0.8397    0.0940 C   0  0  0  0  0  0  0  0  0  0  0  0
   -3.3693   -1.2872    0.0412 C   0  0  0  0  0  0  0  0  0  0  0  0
   -3.5899   -2.1070   -1.2132 C   0  0  0  0  0  0  0  0  0  0  0  0
   -2.7040   -3.3354   -1.2104 C   0  0  0  0  0  0  0  0  0  0  0  0
   -2.9154   -4.2120    0.0485 C   0  0  0  0  0  0  0  0  0  0  0  0
   -4.2651   -4.9039   -0.0085 C   0  0  0  0  0  0  0  0  0  0  0  0
   -4.4062   -5.7658   -1.2644 C   0  0  0  0  0  0  0  0  0  0  0  0
   -3.5087   -6.9994   -1.2990 C   0  0  0  0  0  0  0  0  0  0  0  0
   -4.0465   -8.1216   -1.2337 O   0  0  0  0  0  0  0  0  0  0  0  0
   -2.1610   -6.9718   -1.3848 N   0  0  0  0  0  0  0  0  0  0  0  0
   -1.3044   -5.9311   -1.7359 O   0  0  0  0  0  0  0  0  0  0  0  0
   -0.9002   -1.6376    0.1496 N   0  0  0  0  0  0  0  0  0  0  0  0
    0.1960   -0.8332    0.0774 C   0  0  0  0  0  0  0  0  0  0  0  0
    1.5629   -1.1642    0.0313 C   0  0  0  0  0  0  0  0  0  0  0  0
    2.5240   -0.1484    0.1202 C   0  0  0  0  0  0  0  0  0  0  0  0
    2.0197    1.1566    0.3095 C   0  0  0  0  0  0  0  0  0  0  0  0
    0.6888    1.5328    0.1520 C   0  0  0  0  0  0  0  0  0  0  0  0
   -0.2019    0.4910    0.0678 C   0  0  0  0  0  0  0  0  0  0  0  0
    3.8981   -0.3623   -0.0111 N   0  0  0  0  0  0  0  0  0  0  0  0
    4.5098   -1.7137    0.0035 C   0  0  0  0  0  0  0  0  0  0  0  0
    5.3149   -2.0628   -1.2589 C   0  0  0  0  0  0  0  0  0  0  0  0
    6.8960   -1.2457   -1.4015 Cl  0  0  0  0  0  0  0  0  0  0  0  0
    4.7955    0.8149   -0.0036 C   0  0  0  0  0  0  0  0  0  0  0  0
    4.8667    1.5857   -1.3482 C   0  0  0  0  0  0  0  0  0  0  0  0
    3.4641    2.5255   -1.9344 Cl  0  0  0  0  0  0  0  0  0  0  0  0
  1  2  1  0
  2  3  1  0
  2 20  1  0
  3  4  1  0
  3 14  2  0
  4  5  1  0
  5  6  1  0
  6  7  1  0
  7  8  1  0
  8  9  1  0
  9 10  1  0
 10 11  2  0
 10 12  1  0
 12 13  1  0
 14 15  1  0
 15 16  1  0
 15 20  2  0
 16 17  2  0
 17 18  1  0
 17 21  1  0
 18 19  2  0
 19 20  1  0
 21 22  1  0
 21 25  1  0
 22 23  1  0
 23 24  1  0
 25 26  1  0
 26 27  1  0
M  END
>  <DRUGBANK_ID>  (1) 
DB15147

>  <COMMON_NAME>  (1) 
Tinostamustine

>  <CAS_NUMBER>  (1) 
1236199-60-2

>  <UNII>  (1) 
29DKI2H2NY

>  <SYNONYMS>  (1) 
Tinostamustine

$$$$
