
     RDKit          3D

 25 24  0  0  1  0  0  0  0  0999 V2000
    0.8738    1.0035    2.8466 C   0  0  0  0  0  0  0  0  0  0  0  0
    2.9616    0.5848    2.2808 C   0  0  0  0  0  0  0  0  0  0  0  0
    2.9628   -2.9210    1.4723 C   0  0  0  0  0  0  0  0  0  0  0  0
    1.8837    1.8925    0.4693 C   0  0  0  0  0  0  0  0  0  0  0  0
    0.1418   -0.2040    2.3448 C   0  0  2  0  0  0  0  0  0  0  0  0
    3.7746   -1.0928    2.1223 C   0  0  2  0  0  0  0  0  0  0  0  0
    2.4364   -1.1503    1.1597 C   0  0  0  0  0  0  0  0  0  0  0  0
    0.9123    0.1570    1.1719 C   0  0  2  0  0  0  0  0  0  0  0  0
    3.0386    0.2322    0.5840 C   0  0  2  0  0  0  0  0  0  0  0  0
    2.0577    1.6718    2.1274 N   0  0  0  0  0  0  0  0  0  0  0  0
   -1.2319   -0.1567    1.8793 O   0  0  0  0  0  0  0  0  0  0  0  0
    5.1909   -0.7016    2.0246 O   0  0  0  0  0  0  0  0  0  0  0  0
    1.7680   -1.1106   -0.0035 O   0  0  0  0  0  0  0  0  0  0  0  0
    4.2658   -1.7458    0.6721 O   0  0  0  0  0  0  0  0  0  0  0  0
   -0.2566    1.5474    0.6836 O   0  0  0  0  0  0  0  0  0  0  0  0
    3.4792    0.3430   -0.9550 O   0  0  0  0  0  0  0  0  0  0  0  0
    0.0771    1.9027   -1.4384 O   0  0  0  0  0  0  0  0  0  0  0  0
    2.0334    1.5075   -1.7414 O   0  0  0  0  0  0  0  0  0  0  0  0
    0.3733   -0.3944   -1.5061 O   0  0  0  0  0  0  0  0  0  0  0  0
    1.4636   -2.9748   -1.3192 O   0  0  0  0  0  0  0  0  0  0  0  0
    4.2250   -1.4604   -1.2481 O   0  0  0  0  0  0  0  0  0  0  0  0
    1.9746   -0.9451   -2.6681 O   0  0  0  0  0  0  0  0  0  0  0  0
    3.1907   -2.7402   -0.2092 O   0  0  0  0  0  0  0  0  0  0  0  0
    1.0655    0.6537   -0.6007 P   0  0  0  0  0  0  0  0  0  0  0  0
    2.5489   -1.7929   -1.5068 P   0  0  0  0  0  0  0  0  0  0  0  0
  5 11  1  6
  5  8  1  0
  5  1  1  0
  6  3  1  0
  6 12  1  6
  7  2  1  0
  8 15  1  1
  8  9  1  0
  9  6  1  0
  9 16  1  6
 10  1  1  0
 10  2  1  0
 10  4  1  0
 13  7  1  0
 14  7  1  0
 23  3  1  0
 24  4  1  0
 24 17  1  0
 24 18  1  0
 24 19  2  0
 25 20  1  0
 25 21  1  0
 25 22  2  0
 25 23  1  0
M  END
>  <DRUGBANK_ID>  (1) 
DB02433

>  <SECONDARY_ACCESSION_NUMBERS>  (1) 
EXPT02492

>  <COMMON_NAME>  (1) 
{[(2,2-Dihydroxy-Ethyl)-(2,3,4,5-Tetrahydroxy-6-Phosphonooxy-Hexyl)-Amino]-Methyl}-Phosphonic Acid

$$$$
