
     RDKit          3D

 19 20  0  0  0  0  0  0  0  0999 V2000
   -1.4064    1.1331   -0.4255 N   0  0  0  0  0  0  0  0  0  0  0  0
   -0.1755   -0.7212   -0.3670 C   0  0  0  0  0  0  0  0  0  0  0  0
   -1.5704   -1.1036   -0.4985 C   0  0  0  0  0  0  0  0  0  0  0  0
   -2.1616    0.0894   -0.9237 C   0  0  0  0  0  0  0  0  0  0  0  0
   -0.1176    0.6729   -0.2878 C   0  0  0  0  0  0  0  0  0  0  0  0
    1.0336   -1.4219   -0.1680 C   0  0  0  0  0  0  0  0  0  0  0  0
   -2.2230   -2.5173   -0.2522 C   0  0  0  0  0  0  0  0  0  0  0  0
   -4.2460   -1.9492    1.4175 N   0  0  0  0  0  0  0  0  0  0  0  0
   -3.1733   -2.8793    1.0230 C   0  0  0  0  0  0  0  0  0  0  0  0
    1.0211   -2.7895   -0.0935 O   0  0  0  0  0  0  0  0  0  0  0  0
    2.2320    0.6870    0.0102 C   0  0  0  0  0  0  0  0  0  0  0  0
    1.0422    1.4121   -0.0573 C   0  0  0  0  0  0  0  0  0  0  0  0
    2.2287   -0.7076   -0.0274 C   0  0  0  0  0  0  0  0  0  0  0  0
   -5.0232   -2.1492    2.6472 C   0  0  0  0  0  0  0  0  0  0  0  0
   -3.7451   -0.6069    1.3490 C   0  0  0  0  0  0  0  0  0  0  0  0
   -4.3805   -1.8190    4.0228 C   0  0  0  0  0  0  0  0  0  0  0  0
   -2.4315   -0.3132    2.1396 C   0  0  0  0  0  0  0  0  0  0  0  0
   -4.2294   -0.3257    4.4895 C   0  0  0  0  0  0  0  0  0  0  0  0
   -1.1883   -1.0905    2.5781 C   0  0  0  0  0  0  0  0  0  0  0  0
  1  4  1  0
  1  5  1  0
  2  5  2  0
  2  6  1  0
  2  3  1  0
  3  4  2  0
  3  7  1  0
  5 12  1  0
  6 10  1  0
  6 13  2  0
  7  9  1  0
  8  9  1  0
  8 14  1  0
  8 15  1  0
 11 12  2  0
 11 13  1  0
 14 16  1  0
 15 17  1  0
 16 18  1  0
 17 19  1  0
M  END
>  <DRUGBANK_ID>  (1) 
DB13990

>  <COMMON_NAME>  (1) 
Dipropyl-4-hydroxytryptamine

>  <CAS_NUMBER>  (1) 
63065-88-3

>  <UNII>  (1) 
KS597YAU98

>  <SYNONYMS>  (1) 
3-[2-(Dipropylamino)ethyl]-1H-indol-4-ol; 4-HO-DPT; 4-Hydroxy-N,N-dipropyltryptamine; 4-Hydroxydipropyltryptamine; Deprocin

$$$$
