[NO NAME]
     RDKit          3D

 17 18  0  0  0  0  0  0  0  0999 V2000
    1.1947   -0.1930   -0.2646 O   0  0  0  0  0  0  0  0  0  0  0  0
    4.3698    2.0071    1.9879 O   0  0  0  0  0  0  0  0  0  0  0  0
    4.4056   -2.2841    1.6723 O   0  0  0  0  0  0  0  0  0  0  0  0
    3.2369   -1.2263   -0.0032 N   0  0  0  0  0  0  0  0  0  0  0  0
    4.8111   -0.1021    1.2371 N   0  0  0  0  0  0  0  0  0  0  0  0
    2.4100   -0.1236   -0.0887 C   0  0  0  0  0  0  0  0  0  0  0  0
    4.1311    1.0908    1.1949 C   0  0  0  0  0  0  0  0  0  0  0  0
    4.1686   -1.2860    1.0035 C   0  0  0  0  0  0  0  0  0  0  0  0
    3.1042   -2.3348   -0.9196 C   0  0  0  0  0  0  0  0  0  0  0  0
    4.0666    1.2625   -1.3060 C   0  0  0  0  0  0  0  0  0  0  0  0
    5.4177    1.2828   -1.2908 C   0  0  0  0  0  0  0  0  0  0  0  0
    6.2948    1.2757   -2.4931 C   0  0  0  0  0  0  0  0  0  0  0  0
    5.5426    1.7027   -3.7398 C   0  0  0  0  0  0  0  0  0  0  0  0
    4.2020    0.9854   -3.8410 C   0  0  0  0  0  0  0  0  0  0  0  0
    3.3173    1.2828   -2.6283 C   0  0  0  0  0  0  0  0  0  0  0  0
    3.1994    1.1888   -0.0113 C   0  0  0  0  0  0  0  0  0  0  0  0
    2.3158    2.4304    0.0674 C   0  0  0  0  0  0  0  0  0  0  0  0
  1  6  2  0
  2  7  2  0
  3  8  2  0
  4  6  1  0
  4  8  1  0
  4  9  1  0
  5  7  1  0
  5  8  1  0
 10 11  2  0
 11 12  1  0
 12 13  1  0
 13 14  1  0
 14 15  1  0
 15 10  1  0
 16 10  1  0
 16  7  1  0
 16  6  1  0
 16 17  1  0
M  END
>  <DRUGBANK_ID>  (1) 
DB01355

>  <SECONDARY_ACCESSION_NUMBERS>  (1) 
EXPT03301

>  <COMMON_NAME>  (1) 
Hexobarbital

>  <CAS_NUMBER>  (1) 
56-29-1

>  <UNII>  (1) 
AL8Z8K3P6S

>  <SYNONYMS>  (1) 
5-(1-cyclohexen-1-yl)-1,5-dimethyl-2,4,6(1H,3H,5H)-pyrimidinetrione; 5-(1-cyclohexen-1-yl)-1,5-dimethylbarbituric acid; 5-Cyclohex-1-enyl-1,5-dimethyl-pyrimidine-2,4,6-trione; Hexobarbital; Hexobarbitone; Methexenyl; Methylhexabital

$$$$
