
     RDKit          3D

 34 37  0  0  0  0  0  0  0  0999 V2000
    1.2297   -0.0560   -0.5479 C   0  0  0  0  0  0  0  0  0  0  0  0
    0.4674    1.1351   -1.1212 C   0  0  0  0  0  0  0  0  0  0  0  0
    0.9431    0.8791   -2.5153 C   0  0  0  0  0  0  0  0  0  0  0  0
   -1.1025    1.1328   -1.0632 C   0  0  0  0  0  0  0  0  0  0  0  0
   -1.8257    1.4031    0.2351 N   0  0  0  0  0  0  0  0  0  0  0  0
   -2.3623    2.7308    0.4854 C   0  0  0  0  0  0  0  0  0  0  0  0
   -3.4964    2.9508   -0.3087 C   0  0  0  0  0  0  0  0  0  0  0  0
   -4.3198    4.0197   -0.0324 C   0  0  0  0  0  0  0  0  0  0  0  0
   -4.0663    4.8601    1.0543 C   0  0  0  0  0  0  0  0  0  0  0  0
   -5.0852    5.9575    1.1207 C   0  0  0  0  0  0  0  0  0  0  0  0
   -6.1993    5.3833    0.2213 C   0  0  0  0  0  0  0  0  0  0  0  0
   -5.5177    4.4646   -0.8056 C   0  0  0  0  0  0  0  0  0  0  0  0
   -2.9479    4.6769    1.8565 C   0  0  0  0  0  0  0  0  0  0  0  0
   -2.0184    3.6691    1.5295 C   0  0  0  0  0  0  0  0  0  0  0  0
   -0.9504    3.6649    2.4248 O   0  0  0  0  0  0  0  0  0  0  0  0
   -0.0425    2.5808    2.3759 C   0  0  0  0  0  0  0  0  0  0  0  0
   -0.8212    1.3989    2.7347 C   0  0  0  0  0  0  0  0  0  0  0  0
   -2.7403    1.3949    2.5255 C   0  0  0  0  0  0  0  0  0  0  0  0
   -3.5827   -0.1645    2.7145 C   0  0  0  0  0  0  0  0  0  0  0  0
   -2.7357   -1.6273    3.0069 C   0  0  0  0  0  0  0  0  0  0  0  0
   -1.0876   -1.6850    3.1738 C   0  0  0  0  0  0  0  0  0  0  0  0
   -0.0668   -0.2653    3.1540 C   0  0  0  0  0  0  0  0  0  0  0  0
    1.2881   -0.7688    2.5116 C   0  0  0  0  0  0  0  0  0  0  0  0
   -3.5491   -2.8398    3.1283 C   0  0  0  0  0  0  0  0  0  0  0  0
   -2.9279   -4.0218    2.9731 O   0  0  0  0  0  0  0  0  0  0  0  0
   -4.7309   -2.7175    3.4008 O   0  0  0  0  0  0  0  0  0  0  0  0
   -1.6298   -0.0098    1.4645 S   0  0  0  0  0  0  0  0  0  0  0  0
   -2.0615   -1.2457    0.8013 O   0  0  0  0  0  0  0  0  0  0  0  0
   -0.2518    0.2467    1.1358 O   0  0  0  0  0  0  0  0  0  0  0  0
   -1.8996    0.4283    3.9210 C   0  0  0  0  0  0  0  0  0  0  0  0
   -1.7744    1.9169    4.3645 N   0  0  0  0  0  0  0  0  0  0  0  0
   -2.4934    2.5011    5.3101 C   0  0  0  0  0  0  0  0  0  0  0  0
   -3.0039    1.4508    5.9790 C   0  0  0  0  0  0  0  0  0  0  0  0
   -2.5931   -0.1945    5.4247 S   0  0  0  0  0  0  0  0  0  0  0  0
  1  2  1  0
  2  3  1  0
  2  4  1  0
  4  5  1  0
  5  6  1  0
  5 27  1  0
  6  7  2  0
  6 14  1  0
  7  8  1  0
  8  9  2  0
  8 12  1  0
  9 10  1  0
  9 13  1  0
 10 11  1  0
 11 12  1  0
 13 14  2  0
 14 15  1  0
 15 16  1  0
 16 17  1  0
 17 18  2  0
 17 22  1  0
 18 19  1  0
 19 20  2  0
 20 21  1  0
 20 24  1  0
 21 22  2  0
 22 23  1  0
 24 25  1  0
 24 26  2  0
 27 28  2  0
 27 29  2  0
 27 30  1  0
 30 31  2  0
 30 34  1  0
 31 32  1  0
 32 33  2  0
 33 34  1  0
M  END
>  <DRUGBANK_ID>  (1) 
DB15325

>  <COMMON_NAME>  (1) 
ONO-8539

>  <CAS_NUMBER>  (1) 
459842-29-6

>  <UNII>  (1) 
94W010PZ1Z

$$$$
