
     RDKit          3D

 33 36  0  0  1  0  0  0  0  0999 V2000
    0.9535    0.0335    0.0766 C   0  0  0  0  0  0  0  0  0  0  0  0
    2.9786    6.0843   11.0297 C   0  0  0  0  0  0  0  0  0  0  0  0
    9.5420    1.6909   11.5127 C   0  0  0  0  0  0  0  0  0  0  0  0
    6.1622    1.3143    9.7491 C   0  0  0  0  0  0  0  0  0  0  0  0
    0.4842   -0.8898    1.1807 C   0  0  0  0  0  0  0  0  0  0  0  0
    4.2343    6.1758   10.2123 C   0  0  0  0  0  0  0  0  0  0  0  0
    8.0667    1.5699   11.5704 C   0  0  0  0  0  0  0  0  0  0  0  0
    5.0683    2.8233    5.1268 C   0  0  0  0  0  0  0  0  0  0  0  0
    2.2194   -0.4229    5.1341 C   0  0  0  0  0  0  0  0  0  0  0  0
    5.0550    3.6716    6.3861 C   0  0  0  0  0  0  0  0  0  0  0  0
    2.5718    0.1684    6.3377 C   0  0  0  0  0  0  0  0  0  0  0  0
    3.5154    1.1319    8.9619 C   0  0  0  0  0  0  0  0  0  0  0  0
    3.8784    1.9104   10.2370 C   0  0  0  0  0  0  0  0  0  0  0  0
    3.7006    1.0826    3.9541 C   0  0  0  0  0  0  0  0  0  0  0  0
    6.5564    4.3406    9.0870 C   0  0  0  0  0  0  0  0  0  0  0  0
    4.0574    1.6948    5.1636 C   0  0  0  0  0  0  0  0  0  0  0  0
    2.7297    0.0824    3.9433 C   0  0  0  0  0  0  0  0  0  0  0  0
    3.4740    1.2388    6.3711 C   0  0  0  0  0  0  0  0  0  0  0  0
    3.7261    1.9738    7.6682 C   0  0  2  0  0  0  0  0  0  0  0  0
    5.1034    2.7167    7.5717 C   0  0  2  0  0  0  0  0  0  0  0  0
    5.3035    3.4653    8.8622 C   0  0  1  0  0  0  0  0  0  0  0  0
    6.6836    4.4925   10.6275 C   0  0  2  0  0  0  0  0  0  0  0  0
    0.8806   -0.3945    2.5485 C   0  0  0  0  0  0  0  0  0  0  0  0
    5.4378    6.7105   10.9122 C   0  0  0  0  0  0  0  0  0  0  0  0
    7.1952    1.9176   12.7266 C   0  0  0  0  0  0  0  0  0  0  0  0
    5.7238    3.4308   11.2561 C   0  0  1  0  0  0  0  0  0  0  0  0
    5.2699    2.5149   10.0642 C   0  0  2  0  0  0  0  0  0  0  0  0
    0.0483   -0.0747    3.3909 O   0  0  0  0  0  0  0  0  0  0  0  0
    5.4755    7.8729   11.3025 O   0  0  0  0  0  0  0  0  0  0  0  0
    7.3217    1.3649   13.8259 O   0  0  0  0  0  0  0  0  0  0  0  0
    2.2698   -0.3844    2.6997 O   0  0  0  0  0  0  0  0  0  0  0  0
    6.4880    5.8692   11.0932 O   0  0  0  0  0  0  0  0  0  0  0  0
    6.1772    2.7834   12.4897 O   0  0  0  0  0  0  0  0  0  0  0  0
  5  1  1  0
  6  2  1  0
  7  3  1  0
 10  8  1  0
 11  9  1  0
 13 12  1  0
 16  8  1  0
 16 14  2  0
 17  9  2  0
 17 14  1  0
 18 11  2  0
 18 16  1  0
 19 12  1  1
 19 18  1  0
 20 10  1  6
 20 19  1  0
 21 15  1  6
 21 20  1  0
 22 15  1  0
 22 32  1  6
 23  5  1  0
 24  6  1  0
 25  7  1  0
 26 22  1  0
 26 33  1  1
 27  4  1  6
 27 13  1  0
 27 21  1  0
 27 26  1  0
 28 23  2  0
 29 24  2  0
 30 25  2  0
 31 17  1  0
 31 23  1  0
 32 24  1  0
 33 25  1  0
M  END
>  <DRUGBANK_ID>  (1) 
DB14641

>  <SECONDARY_ACCESSION_NUMBERS>  (1) 
DBSALT000069

>  <COMMON_NAME>  (1) 
Estriol tripropionate

>  <CAS_NUMBER>  (1) 
2236-31-9

>  <UNII>  (1) 
S2A0P1AFQ9

>  <SYNONYMS>  (1) 
Estriol propionate; Estriol, tripropionate

$$$$
