
     RDKit          3D

 16 16  0  0  0  0  0  0  0  0999 V2000
   -2.4136   -1.1991    0.0490 O   0  0  0  0  0  0  0  0  0  0  0  0
    2.4088   -1.2127    0.0586 O   0  0  0  0  0  0  0  0  0  0  0  0
    0.0088    2.5865   -0.0007 O   0  0  0  0  0  0  0  0  0  0  0  0
   -1.1536    0.6548    0.0061 N   0  0  0  0  0  0  0  0  0  0  0  0
    1.1598    0.6481   -0.0161 N   0  0  0  0  0  0  0  0  0  0  0  0
   -0.0026   -1.5326   -0.0659 C   0  0  0  0  0  0  0  0  0  0  0  0
   -1.2857   -0.7049    0.0146 C   0  0  0  0  0  0  0  0  0  0  0  0
    1.2842   -0.7120    0.0131 C   0  0  0  0  0  0  0  0  0  0  0  0
   -0.0022   -2.5037    1.1403 C   0  0  0  0  0  0  0  0  0  0  0  0
   -0.0066   -2.2270   -1.4576 C   0  0  0  0  0  0  0  0  0  0  0  0
    0.0051    1.3628   -0.0071 C   0  0  0  0  0  0  0  0  0  0  0  0
   -0.0008   -3.8463    0.9969 C   0  0  0  0  0  0  0  0  0  0  0  0
   -0.0035   -1.8399    2.5023 C   0  0  0  0  0  0  0  0  0  0  0  0
    0.0398   -1.2550   -2.6314 C   0  0  0  0  0  0  0  0  0  0  0  0
   -0.0075   -4.8708    2.0900 C   0  0  0  0  0  0  0  0  0  0  0  0
   -1.2751   -5.6996    2.0251 C   0  0  0  0  0  0  0  0  0  0  0  0
  1  7  2  0
  2  8  2  0
  3 11  2  0
  4  7  1  0
  4 11  1  0
  5  8  1  0
  5 11  1  0
  6  7  1  0
  6  8  1  0
  6  9  1  0
  6 10  1  0
  9 12  2  0
  9 13  1  0
 10 14  1  0
 12 15  1  0
 15 16  1  0
M  END
>  <DRUGBANK_ID>  (1) 
DB13377

>  <COMMON_NAME>  (1) 
Vinbarbital

>  <CAS_NUMBER>  (1) 
125-42-8

>  <UNII>  (1) 
7NZH2C1T6O

>  <SYNONYMS>  (1) 
Vinbarbital; Vinbarbitalum

$$$$
