
     RDKit          3D

 41 43  0  0  1  0  0  0  0  0999 V2000
    8.2592   -1.5988    1.5187 C   0  0  0  0  0  0  0  0  0  0  0  0
    7.1265   -0.9494    0.6553 C   0  0  2  0  0  0  0  0  0  0  0  0
    5.6620   -1.4475    0.8144 C   0  0  0  0  0  0  0  0  0  0  0  0
    5.3875   -2.7299    0.2294 O   0  0  0  0  0  0  0  0  0  0  0  0
    5.8389   -2.9904   -1.1027 C   0  0  1  0  0  0  0  0  0  0  0  0
    7.2390   -2.4423   -1.3818 C   0  0  1  0  0  0  0  0  0  0  0  0
    7.3884   -1.0087   -0.8933 C   0  0  1  0  0  0  0  0  0  0  0  0
    6.4686   -0.1092   -1.6390 N   0  0  0  0  0  0  0  0  0  0  0  0
    6.6277   -0.2847   -3.0802 C   0  0  0  0  0  0  0  0  0  0  0  0
    8.2137   -3.1813   -0.6687 O   0  0  0  0  0  0  0  0  0  0  0  0
    5.8185   -4.4021   -1.4189 O   0  0  0  0  0  0  0  0  0  0  0  0
    6.9710   -5.2801   -1.0833 C   0  0  1  0  0  0  0  0  0  0  0  0
    7.1762   -5.5138    0.5478 C   0  0  1  0  0  0  0  0  0  0  0  0
    8.0453   -6.6835    0.9901 C   0  0  0  0  0  0  0  0  0  0  0  0
    7.6378   -8.0078    0.3030 C   0  0  1  0  0  0  0  0  0  0  0  0
    7.4529   -7.9520   -1.2978 C   0  0  2  0  0  0  0  0  0  0  0  0
    6.7821   -6.5706   -1.9615 C   0  0  2  0  0  0  0  0  0  0  0  0
    7.0225   -6.4140   -3.3785 O   0  0  0  0  0  0  0  0  0  0  0  0
    6.8931   -9.3065   -1.7320 O   0  0  0  0  0  0  0  0  0  0  0  0
    5.3878   -9.6556   -1.5822 C   0  0  2  0  0  0  0  0  0  0  0  0
    4.6264   -8.3641   -1.6997 C   0  0  1  0  0  0  0  0  0  0  0  0
    3.2199   -8.0554   -1.3038 C   0  0  0  0  0  0  0  0  0  0  0  0
    2.7729   -9.1010   -0.4047 C   0  0  0  0  0  0  0  0  0  0  0  0
    3.5577  -10.1199   -0.0294 C   0  0  0  0  0  0  0  0  0  0  0  0
    4.9102  -10.3693   -0.3870 O   0  0  0  0  0  0  0  0  0  0  0  0
    2.8732  -11.0876    0.8488 C   0  0  0  0  0  0  0  0  0  0  0  0
    2.3797  -12.1329   -0.0418 N   0  0  0  0  0  0  0  0  0  0  0  0
    1.5189  -13.0470    0.6910 C   0  0  0  0  0  0  0  0  0  0  0  0
    0.2507  -12.3847    1.2487 C   0  0  0  0  0  0  0  0  0  0  0  0
   -0.5378  -11.8245    0.2017 O   0  0  0  0  0  0  0  0  0  0  0  0
    5.2310   -7.8266   -0.5090 N   0  0  0  0  0  0  0  0  0  0  0  0
    8.4606   -9.1248    0.7764 N   0  0  0  0  0  0  0  0  0  0  0  0
    6.9986   -4.3798    1.5770 N   0  0  0  0  0  0  0  0  0  0  0  0
    5.9586   -3.9130    2.4062 C   0  0  0  0  0  0  0  0  0  0  0  0
    6.3538   -3.0526    3.2749 O   0  0  0  0  0  0  0  0  0  0  0  0
    4.3426   -4.2347    2.5455 C   0  0  2  0  0  0  0  0  0  0  0  0
    3.4643   -4.7270    1.4087 C   0  0  0  0  0  0  0  0  0  0  0  0
    4.2893   -5.7058    0.7762 C   0  0  0  0  0  0  0  0  0  0  0  0
    4.6052   -6.8094    1.7325 N   0  0  0  0  0  0  0  0  0  0  0  0
    3.5215   -3.2249    3.1185 O   0  0  0  0  0  0  0  0  0  0  0  0
    7.1585    0.4139    1.1063 O   0  0  0  0  0  0  0  0  0  0  0  0
  2  1  1  1
  2  3  1  0
  2  7  1  0
  2 41  1  0
  3  4  1  0
  4  5  1  0
  5  6  1  0
  5 11  1  1
  6  7  1  0
  6 10  1  1
  7  8  1  6
  8  9  1  0
 12 13  1  0
 12 17  1  0
 12 11  1  1
 13 14  1  0
 13 33  1  6
 14 15  1  0
 15 16  1  0
 15 32  1  6
 16 17  1  0
 16 19  1  1
 17 18  1  6
 20 19  1  1
 20 21  1  0
 20 25  1  0
 21 22  1  0
 21 31  1  1
 22 23  1  0
 23 24  2  0
 24 25  1  0
 24 26  1  0
 26 27  1  0
 27 28  1  0
 28 29  1  0
 29 30  1  0
 33 34  1  0
 34 35  2  0
 36 40  1  6
 36 37  1  0
 36 34  1  0
 37 38  1  0
 38 39  1  0
M  END
>  <DRUGBANK_ID>  (1) 
DB12615

>  <COMMON_NAME>  (1) 
Plazomicin

>  <CAS_NUMBER>  (1) 
1154757-24-0

>  <UNII>  (1) 
LYO9XZ250J

>  <SYNONYMS>  (1) 
Plazomicin

$$$$
