OIR
     RDKit          3D

 28 29  0  0  0  0  0  0  0  0999 V2000
    1.9708    2.2649    3.7510 O   0  0  0  0  0  0  0  0  0  0  0  0
    2.0692    2.0593    2.5419 C   0  0  0  0  0  0  0  0  0  0  0  0
    0.8707    2.3176    1.4664 C   0  0  1  0  0  0  0  0  0  0  0  0
    0.9421    3.4865    0.3691 C   0  0  0  0  0  0  0  0  0  0  0  0
    1.7346    3.3725   -0.9579 C   0  0  0  0  0  0  0  0  0  0  0  0
    2.9286    4.0312   -1.1326 C   0  0  0  0  0  0  0  0  0  0  0  0
    3.9229    3.6057   -2.0685 C   0  0  0  0  0  0  0  0  0  0  0  0
    3.6285    2.7151   -3.0554 C   0  0  0  0  0  0  0  0  0  0  0  0
    2.3016    2.3774   -3.1427 C   0  0  0  0  0  0  0  0  0  0  0  0
    1.3604    2.7342   -2.1274 C   0  0  0  0  0  0  0  0  0  0  0  0
    0.4819    0.7077    0.6400 S   0  0  0  0  0  0  0  0  0  0  0  0
    3.2202    1.6277    1.9489 N   0  0  0  0  0  0  0  0  0  0  0  0
    4.8801    1.2776    2.3172 C   0  0  2  0  0  0  0  0  0  0  0  0
    5.0116    2.4462    3.2014 C   0  0  0  0  0  0  0  0  0  0  0  0
    5.2138    2.4405    4.3766 O   0  0  0  0  0  0  0  0  0  0  0  0
    4.9354    3.5370    2.3523 N   0  0  0  0  0  0  0  0  0  0  0  0
    4.5297    3.3902    0.8694 C   0  0  2  0  0  0  0  0  0  0  0  0
    4.4070    1.7923   -0.2362 C   0  0  0  0  0  0  0  0  0  0  0  0
    3.6984    0.6238    0.1411 O   0  0  0  0  0  0  0  0  0  0  0  0
    5.0833    1.5552   -1.2131 O   0  0  0  0  0  0  0  0  0  0  0  0
    5.3325    4.6340    0.2804 C   0  0  0  0  0  0  0  0  0  0  0  0
    6.2311    1.4913    1.1748 C   0  0  0  0  0  0  0  0  0  0  0  0
    7.6272    1.4074    1.5899 C   0  0  0  0  0  0  0  0  0  0  0  0
    7.9424    1.9257    2.8195 C   0  0  0  0  0  0  0  0  0  0  0  0
    9.1206    1.5744    3.3853 C   0  0  0  0  0  0  0  0  0  0  0  0
   10.0353    0.8626    2.6196 C   0  0  0  0  0  0  0  0  0  0  0  0
    9.7801    0.5166    1.2853 C   0  0  0  0  0  0  0  0  0  0  0  0
    8.5762    0.8593    0.7259 C   0  0  0  0  0  0  0  0  0  0  0  0
  1  2  2  0
  2  3  1  0
  2 12  1  0
  3  4  1  6
  3 11  1  0
  4  5  1  0
  5  6  2  0
  5 10  1  0
  6  7  1  0
  7  8  2  0
  8  9  1  0
  9 10  2  0
 13 22  1  6
 13 14  1  0
 13 12  1  0
 14 15  2  0
 14 16  1  0
 17 21  1  6
 17 18  1  0
 17 16  1  0
 18 19  1  0
 18 20  2  0
 22 23  1  0
 23 24  2  0
 23 28  1  0
 24 25  1  0
 25 26  2  0
 26 27  1  0
 27 28  2  0
M  END
>  <DRUGBANK_ID>  (1) 
DB02558

>  <SECONDARY_ACCESSION_NUMBERS>  (1) 
EXPT02428

>  <COMMON_NAME>  (1) 
N-(3-Phenyl-2-Sulfanylpropanoyl)Phenylalanylalanine

$$$$
