
     RDKit          3D

 17 18  0  0  1  0  0  0  0  0999 V2000
   -0.2767    1.0959    0.0698 O   0  0  0  0  0  0  0  0  0  0  0  0
    1.9526   -2.4493   -0.0257 O   0  0  0  0  0  0  0  0  0  0  0  0
   -2.1399   -0.1831    0.0569 O   0  0  0  0  0  0  0  0  0  0  0  0
    1.1046    1.1785   -0.3181 C   0  0  0  0  0  0  0  0  0  0  0  0
    1.9234    0.0473    0.3045 C   0  0  0  0  0  0  0  0  0  0  0  0
    1.1892    1.1691   -1.8183 C   0  0  0  0  0  0  0  0  0  0  0  0
    2.9929    2.3880   -6.1643 C   0  0  0  0  0  0  0  0  0  0  0  0
    1.2376   -1.2681    0.0541 C   0  0  0  0  0  0  0  0  0  0  0  0
    1.7628    2.0359   -4.0139 C   0  0  0  0  0  0  0  0  0  0  0  0
    1.9817    1.4591   -6.8563 C   0  0  0  0  0  0  0  0  0  0  0  0
    1.7198    2.1450   -2.5671 C   0  0  0  0  0  0  0  0  0  0  0  0
    2.8715    2.4352   -4.6657 C   0  0  0  0  0  0  0  0  0  0  0  0
    0.6154    1.5831   -4.7934 C   0  0  0  0  0  0  0  0  0  0  0  0
    0.6990    1.2998   -6.0994 C   0  0  0  0  0  0  0  0  0  0  0  0
   -0.0859   -1.2997   -0.1522 C   0  0  0  0  0  0  0  0  0  0  0  0
   -0.9228   -0.0943   -0.0102 C   0  0  0  0  0  0  0  0  0  0  0  0
    3.3474   -2.3899    0.2523 C   0  0  0  0  0  0  0  0  0  0  0  0
  1  4  1  0
  1 16  1  0
  2  8  1  0
  2 17  1  0
  3 16  2  0
  4  5  1  0
  4  6  1  0
  5  8  1  0
  6 11  2  0
  7 10  1  0
  7 12  1  0
  8 15  2  0
  9 11  1  0
  9 12  2  0
  9 13  1  0
 10 14  1  0
 13 14  2  0
 15 16  1  0
M  END
>  <DRUGBANK_ID>  (1) 
DB01322

>  <COMMON_NAME>  (1) 
Kava

>  <CAS_NUMBER>  (1) 
9000-38-8

>  <UNII>  (1) 
BOW48C81XP

$$$$
