
     RDKit          3D

 27 26  0  0  0  0  0  0  0  0999 V2000
    1.0468    0.0173    0.0229 C   0  0  0  0  0  0  0  0  0  0  0  0
    0.2145    0.9681   -0.8312 C   0  0  0  0  0  0  0  0  0  0  0  0
   -0.6724    0.2164   -1.7944 C   0  0  0  0  0  0  0  0  0  0  0  0
   -1.7132   -0.6156   -1.0486 C   0  0  0  0  0  0  0  0  0  0  0  0
   -2.6095    0.2441   -0.1444 C   0  0  0  0  0  0  0  0  0  0  0  0
   -3.4045    1.2729   -0.9496 C   0  0  0  0  0  0  0  0  0  0  0  0
   -4.2755    0.6060   -2.0088 C   0  0  0  0  0  0  0  0  0  0  0  0
    0.5343   -0.7266    0.8683 O   0  0  0  0  0  0  0  0  0  0  0  0
    2.3962    0.0266   -0.0730 N   0  0  0  0  0  0  0  0  0  0  0  0
    3.2244    0.9736   -0.7712 C   0  0  0  0  0  0  0  0  0  0  0  0
    4.0722    1.8567    0.2004 C   0  0  0  0  0  0  0  0  0  0  0  0
    5.2992    1.9341    0.0971 O   0  0  0  0  0  0  0  0  0  0  0  0
    3.9529    0.2126   -1.6960 O   0  0  0  0  0  0  0  0  0  0  0  0
    3.4454    2.6281    1.1397 N   0  0  0  0  0  0  0  0  0  0  0  0
    2.0360    2.7064    1.4299 C   0  0  0  0  0  0  0  0  0  0  0  0
    1.6932    2.1738    2.8140 C   0  0  0  0  0  0  0  0  0  0  0  0
    2.2474    3.0932    3.9034 C   0  0  0  0  0  0  0  0  0  0  0  0
    1.7313    4.5245    3.7786 C   0  0  0  0  0  0  0  0  0  0  0  0
    0.2800    4.5725    3.9297 N   0  0  0  0  0  0  0  0  0  0  0  0
   -0.2482    5.9120    3.6774 C   0  0  0  0  0  0  0  0  0  0  0  0
   -0.0377    6.3927    2.2340 C   0  0  0  0  0  0  0  0  0  0  0  0
   -0.6711    5.4764    1.1837 C   0  0  0  0  0  0  0  0  0  0  0  0
   -2.1167    5.4132    1.3335 N   0  0  0  0  0  0  0  0  0  0  0  0
   -5.2994   -0.1928   -1.3750 N   0  0  0  0  0  0  0  0  0  0  0  0
   -6.6334   -0.0545   -1.4705 C   0  0  0  0  0  0  0  0  0  0  0  0
   -7.4739   -0.8009   -0.8468 N   0  0  0  0  0  0  0  0  0  0  0  0
   -7.0998    0.9207   -2.2535 N   0  0  0  0  0  0  0  0  0  0  0  0
  1  2  1  0
  1  8  2  0
  1  9  1  0
  2  3  1  0
  3  4  1  0
  4  5  1  0
  5  6  1  0
  6  7  1  0
  7 24  1  0
  9 10  1  0
 10 11  1  0
 10 13  1  0
 11 12  2  0
 11 14  1  0
 14 15  1  0
 15 16  1  0
 16 17  1  0
 17 18  1  0
 18 19  1  0
 19 20  1  0
 20 21  1  0
 21 22  1  0
 22 23  1  0
 24 25  1  0
 25 26  2  0
 25 27  1  0
M  END
>  <DRUGBANK_ID>  (1) 
DB12692

>  <COMMON_NAME>  (1) 
Gusperimus

>  <CAS_NUMBER>  (1) 
98629-43-7

>  <UNII>  (1) 
UJ0ZJ76DO9

>  <SYNONYMS>  (1) 
Gusperimus

$$$$
