
     RDKit          3D

 25 25  0  0  0  0  0  0  0  0999 V2000
    1.4576   -0.2060    0.0072 C   0  0  0  0  0  0  0  0  0  0  0  0
   -0.4959    1.2759    0.0420 C   0  0  0  0  0  0  0  0  0  0  0  0
   -0.8300   -1.1216   -0.0338 C   0  0  0  0  0  0  0  0  0  0  0  0
    0.5602   -1.2791   -0.0125 C   0  0  0  0  0  0  0  0  0  0  0  0
    0.8947    1.0720   -0.0296 C   0  0  0  0  0  0  0  0  0  0  0  0
   -1.3332    0.1698   -0.0464 C   0  0  0  0  0  0  0  0  0  0  0  0
    2.9259   -0.4655    0.1634 C   0  0  0  0  0  0  0  0  0  0  0  0
    8.5167    2.0324    0.6733 C   0  0  0  0  0  0  0  0  0  0  0  0
    9.9861    1.9407    0.8278 C   0  0  0  0  0  0  0  0  0  0  0  0
   -1.0676    2.6555    0.3545 C   0  0  0  0  0  0  0  0  0  0  0  0
   -1.8009   -2.2938    0.0408 C   0  0  0  0  0  0  0  0  0  0  0  0
    5.2386    0.3761    0.4046 C   0  0  0  0  0  0  0  0  0  0  0  0
    7.6097    1.0331    0.6265 C   0  0  0  0  0  0  0  0  0  0  0  0
    3.8172    0.5490    0.2322 C   0  0  0  0  0  0  0  0  0  0  0  0
    6.1731    1.3384    0.4632 C   0  0  0  0  0  0  0  0  0  0  0  0
   10.7280    2.9141    0.8595 O   0  0  0  0  0  0  0  0  0  0  0  0
   10.4733    0.7022    0.9342 O   0  0  0  0  0  0  0  0  0  0  0  0
    3.3255   -1.9283    0.2974 C   0  0  0  0  0  0  0  0  0  0  0  0
   -0.4777    3.1305    1.7001 C   0  0  0  0  0  0  0  0  0  0  0  0
   -0.6906    3.6246   -0.7686 C   0  0  0  0  0  0  0  0  0  0  0  0
   -2.6675   -2.1701    1.3141 C   0  0  0  0  0  0  0  0  0  0  0  0
   -2.7085   -2.2809   -1.2015 C   0  0  0  0  0  0  0  0  0  0  0  0
   -1.0509   -3.6336    0.0983 C   0  0  0  0  0  0  0  0  0  0  0  0
   -2.6059    2.6383    0.5070 C   0  0  0  0  0  0  0  0  0  0  0  0
    7.9546   -0.4373    0.7275 C   0  0  0  0  0  0  0  0  0  0  0  0
  2  5  2  0
  3  4  1  0
  4  1  2  0
  5  1  1  0
  6  2  1  0
  6  3  2  0
  7  1  1  0
  8 13  2  0
  9  8  1  0
 10  2  1  0
 11  3  1  0
 12 14  1  0
 13 15  1  0
 14  7  2  0
 15 12  2  0
 16  9  2  0
 17  9  1  0
 18  7  1  0
 19 10  1  0
 20 10  1  0
 21 11  1  0
 22 11  1  0
 23 11  1  0
 24 10  1  0
 25 13  1  0
M  END
>  <DRUGBANK_ID>  (1) 
DB05785

>  <COMMON_NAME>  (1) 
LGD-1550

>  <CAS_NUMBER>  (1) 
178600-20-9

>  <UNII>  (1) 
H62AOA2IYF

$$$$
