
     RDKit          3D

 18 19  0  0  0  0  0  0  0  0999 V2000
    2.2093    0.0408   -0.0161 C   0  0  0  0  0  0  0  0  0  0  0  0
    0.7624    0.0205    0.0115 N   0  0  0  0  0  0  0  0  0  0  0  0
   -0.0163   -1.1192    0.0085 C   0  0  0  0  0  0  0  0  0  0  0  0
   -1.3171   -0.6920   -0.0039 C   0  0  0  0  0  0  0  0  0  0  0  0
   -1.3638    0.6782   -0.0020 N   0  0  0  0  0  0  0  0  0  0  0  0
   -0.1126    1.1122    0.0234 C   0  0  0  0  0  0  0  0  0  0  0  0
    0.3508    2.4650    0.0473 C   0  0  0  0  0  0  0  0  0  0  0  0
   -0.4960    3.5156    0.0546 C   0  0  0  0  0  0  0  0  0  0  0  0
   -0.0419    4.9250    0.0444 C   0  0  0  0  0  0  0  0  0  0  0  0
    0.9723    5.3353   -0.7971 C   0  0  0  0  0  0  0  0  0  0  0  0
    1.3265    6.6593   -0.7184 C   0  0  0  0  0  0  0  0  0  0  0  0
    0.7342    7.5337    0.1078 N   0  0  0  0  0  0  0  0  0  0  0  0
   -0.2584    7.0593    0.8666 C   0  0  0  0  0  0  0  0  0  0  0  0
   -0.6847    5.7852    0.8641 N   0  0  0  0  0  0  0  0  0  0  0  0
   -0.8543    7.9562    1.7056 N   0  0  0  0  0  0  0  0  0  0  0  0
    0.4532   -2.4680    0.0124 N   0  0  0  0  0  0  0  0  0  0  0  0
   -0.4071   -3.3533    0.0029 O   0  0  0  0  0  0  0  0  0  0  0  0
    1.6761   -2.6586    0.0233 O   0  0  0  0  0  0  0  0  0  0  0  0
  1  2  1  0
  2  3  1  0
  2  6  1  0
  3  4  2  0
  3 16  1  0
  4  5  1  0
  5  6  2  0
  6  7  1  0
  7  8  2  0
  8  9  1  0
  9 10  2  0
  9 14  1  0
 10 11  1  0
 11 12  2  0
 12 13  1  0
 13 14  2  0
 13 15  1  0
 16 17  2  0
 16 18  1  0
M  CHG  2  16   1  18  -1
M  END
>  <DRUGBANK_ID>  (1) 
DB13350

>  <COMMON_NAME>  (1) 
Azanidazole

>  <CAS_NUMBER>  (1) 
62973-76-6

>  <UNII>  (1) 
YP2Y0DRX4S

>  <SYNONYMS>  (1) 
Azanidazole

$$$$
