4NA
     RDKit          3D

 19 21  0  0  0  0  0  0  0  0999 V2000
    2.4389    0.7465   -0.0225 C   0  0  0  0  0  0  0  0  0  0  0  0
    1.2275    1.4408    0.0648 C   0  0  0  0  0  0  0  0  0  0  0  0
    0.0025    0.7376    0.0788 C   0  0  0  0  0  0  0  0  0  0  0  0
    0.0347   -0.6855    0.0746 C   0  0  0  0  0  0  0  0  0  0  0  0
    1.2615   -1.3541    0.0177 C   0  0  0  0  0  0  0  0  0  0  0  0
    2.4591   -0.6470   -0.0548 C   0  0  0  0  0  0  0  0  0  0  0  0
   -1.2540    1.3636    0.0376 C   0  0  0  0  0  0  0  0  0  0  0  0
   -2.4196    0.6263   -0.1426 C   0  0  0  0  0  0  0  0  0  0  0  0
   -2.3986   -0.7700   -0.0442 C   0  0  0  0  0  0  0  0  0  0  0  0
   -1.1638   -1.4091    0.0966 C   0  0  0  0  0  0  0  0  0  0  0  0
   -3.6566   -1.5145    0.0024 C   0  0  0  0  0  0  0  0  0  0  0  0
   -4.5723   -1.4651   -1.0570 C   0  0  0  0  0  0  0  0  0  0  0  0
   -5.8501   -2.0035   -0.9080 C   0  0  0  0  0  0  0  0  0  0  0  0
   -6.1849   -2.6719    0.2633 C   0  0  0  0  0  0  0  0  0  0  0  0
   -5.2544   -2.8355    1.2820 C   0  0  0  0  0  0  0  0  0  0  0  0
   -4.0068   -2.2231    1.1649 C   0  0  0  0  0  0  0  0  0  0  0  0
   -7.4572   -3.1462    0.3797 O   0  0  0  0  0  0  0  0  0  0  0  0
    1.2588    3.1820    0.0730 Cl  0  0  0  0  0  0  0  0  0  0  0  0
    3.6153    1.4405   -0.1057 O   0  0  0  0  0  0  0  0  0  0  0  0
  1  2  2  0
  1  6  1  0
  1 19  1  0
  2  3  1  0
  2 18  1  0
  3  4  2  0
  3  7  1  0
  4  5  1  0
  4 10  1  0
  5  6  2  0
  7  8  2  0
  8  9  1  0
  9 10  2  0
  9 11  1  0
 11 12  2  0
 11 16  1  0
 12 13  1  0
 13 14  2  0
 14 15  1  0
 14 17  1  0
 15 16  2  0
M  END
>  <DRUGBANK_ID>  (1) 
DB07119

>  <COMMON_NAME>  (1) 
1-CHLORO-6-(4-HYDROXYPHENYL)-2-NAPHTHOL

$$$$
