
     RDKit          3D

 24 24  0  0  1  0  0  0  0  0999 V2000
    1.1866    2.8206   -0.3824 C   0  0  0  0  0  0  0  0  0  0  0  0
   -0.6115    2.8638   -2.0414 C   0  0  0  0  0  0  0  0  0  0  0  0
    0.3170    1.8663   -0.0455 C   0  0  0  0  0  0  0  0  0  0  0  0
   -0.7641    1.6838   -1.0844 C   0  0  0  0  0  0  0  0  0  0  0  0
    2.3339    3.3871    0.3232 C   0  0  0  0  0  0  0  0  0  0  0  0
    0.3688    1.0393    1.1416 C   0  0  0  0  0  0  0  0  0  0  0  0
    1.2872    1.0819    2.1264 C   0  0  0  0  0  0  0  0  0  0  0  0
    0.9739   -1.1700    3.1082 C   0  0  0  0  0  0  0  0  0  0  0  0
    1.8910   -2.1754    2.4050 C   0  0  0  0  0  0  0  0  0  0  0  0
    2.9851   -2.7499    3.3081 C   0  0  0  0  0  0  0  0  0  0  0  0
    2.4401   -3.2431    4.6522 C   0  0  0  0  0  0  0  0  0  0  0  0
    1.3760   -4.3202    4.4738 C   0  0  0  0  0  0  0  0  0  0  0  0
    1.5188    0.2235    3.3125 C   0  0  2  0  0  0  0  0  0  0  0  0
    0.8550    0.8673    4.3947 O   0  0  0  0  0  0  0  0  0  0  0  0
    0.7246    3.3935   -1.6596 C   0  0  0  0  0  0  0  0  0  0  0  0
    1.3397    4.2420   -2.3012 O   0  0  0  0  0  0  0  0  0  0  0  0
    6.3792    7.2027   -1.0718 C   0  0  0  0  0  0  0  0  0  0  0  0
    7.1405    8.3136   -1.0144 O   0  0  0  0  0  0  0  0  0  0  0  0
    3.6138    3.2086   -0.3929 C   0  0  0  0  0  0  0  0  0  0  0  0
    4.4205    4.2529   -0.5730 C   0  0  0  0  0  0  0  0  0  0  0  0
    5.6712    6.9769   -2.0346 O   0  0  0  0  0  0  0  0  0  0  0  0
    6.5078    6.3004    0.1434 C   0  0  0  0  0  0  0  0  0  0  0  0
    4.0914    5.6263   -0.0514 C   0  0  0  0  0  0  0  0  0  0  0  0
    5.1803    6.1491    0.8667 C   0  0  0  0  0  0  0  0  0  0  0  0
  1 15  1  0
  1  5  1  0
  3  1  2  0
  3  6  1  0
  4  2  1  0
  4  3  1  0
  5 19  1  0
  7  6  2  0
  9  8  1  0
 10  9  1  0
 11 10  1  0
 12 11  1  0
 13 14  1  1
 13  8  1  0
 13  7  1  0
 15  2  1  0
 15 16  2  0
 18 17  1  0
 20 19  2  0
 21 17  2  0
 22 17  1  0
 23 20  1  0
 24 22  1  0
 24 23  1  0
M  END
>  <DRUGBANK_ID>  (1) 
DB02304

>  <SECONDARY_ACCESSION_NUMBERS>  (1) 
EXPT01314

>  <COMMON_NAME>  (1) 
Prostaglandin B2

>  <CAS_NUMBER>  (1) 
13367-85-6

>  <UNII>  (1) 
BIU61O9T9T

$$$$
