
     RDKit          3D

 24 25  0  0  0  0  0  0  0  0999 V2000
    0.7394    0.1493    0.0185 C   0  0  0  0  0  0  0  0  0  0  0  0
    0.5276   -1.1959   -0.4071 O   0  0  0  0  0  0  0  0  0  0  0  0
    0.9858   -1.5159   -1.6520 C   0  0  0  0  0  0  0  0  0  0  0  0
    2.3083   -1.4685   -2.0710 C   0  0  0  0  0  0  0  0  0  0  0  0
    2.6271   -1.8592   -3.3853 C   0  0  0  0  0  0  0  0  0  0  0  0
    1.6728   -2.4130   -4.2582 C   0  0  0  0  0  0  0  0  0  0  0  0
    1.9325   -2.7800   -5.5731 O   0  0  0  0  0  0  0  0  0  0  0  0
    3.1926   -2.6121   -6.0824 C   0  0  0  0  0  0  0  0  0  0  0  0
    3.4150   -1.7685   -7.1470 C   0  0  0  0  0  0  0  0  0  0  0  0
    4.6407   -1.5258   -7.6599 N   0  0  0  0  0  0  0  0  0  0  0  0
    5.6623   -2.1652   -7.0806 C   0  0  0  0  0  0  0  0  0  0  0  0
    6.9209   -1.9073   -7.5394 N   0  0  0  0  0  0  0  0  0  0  0  0
    5.5426   -3.0490   -6.0841 N   0  0  0  0  0  0  0  0  0  0  0  0
    4.3072   -3.2921   -5.6199 C   0  0  0  0  0  0  0  0  0  0  0  0
    4.2131   -4.2091   -4.5937 N   0  0  0  0  0  0  0  0  0  0  0  0
    0.3657   -2.6091   -3.7868 C   0  0  0  0  0  0  0  0  0  0  0  0
    0.0272   -2.0817   -2.5158 C   0  0  0  0  0  0  0  0  0  0  0  0
   -0.6488   -3.4515   -4.5582 C   0  0  0  0  0  0  0  0  0  0  0  0
   -1.0650   -4.6751   -3.7266 C   0  0  0  0  0  0  0  0  0  0  0  0
   -1.8751   -2.6386   -4.9619 C   0  0  0  0  0  0  0  0  0  0  0  0
    3.6387   -0.8346   -1.0909 S   0  0  0  0  0  0  0  0  0  0  0  0
    4.8090   -2.0335   -1.0582 N   0  0  0  0  0  0  0  0  0  0  0  0
    4.1766    0.3091   -1.7756 O   0  0  0  0  0  0  0  0  0  0  0  0
    3.3279   -0.8183    0.3262 O   0  0  0  0  0  0  0  0  0  0  0  0
  1  2  1  0
  2  3  1  0
  3  4  2  0
  3 17  1  0
  4  5  1  0
  4 21  1  0
  5  6  2  0
  6  7  1  0
  6 16  1  0
  7  8  1  0
  8  9  2  0
  8 14  1  0
  9 10  1  0
 10 11  2  0
 11 12  1  0
 11 13  1  0
 13 14  2  0
 14 15  1  0
 16 17  2  0
 16 18  1  0
 18 19  1  0
 18 20  1  0
 21 22  1  0
 21 23  2  0
 21 24  2  0
M  END
>  <DRUGBANK_ID>  (1) 
DB15097

>  <COMMON_NAME>  (1) 
Gefapixant

>  <CAS_NUMBER>  (1) 
1015787-98-0

>  <UNII>  (1) 
6K6L7E3F1L

>  <SYNONYMS>  (1) 
Gefapixant

$$$$
