1518
     RDKit          3D

 27 29  0  0  0  0  0  0  0  0999 V2000
    0.8920   -0.1268    0.0538 O   0  0  0  0  0  0  0  0  0  0  0  0
    0.4635    2.1401    0.1107 O   0  0  0  0  0  0  0  0  0  0  0  0
    0.8758   -0.0989   -5.2456 O   0  0  0  0  0  0  0  0  0  0  0  0
   -2.1114    0.8269   -3.4275 N   0  0  0  0  0  0  0  0  0  0  0  0
   -1.4823    0.8959   -0.4463 C   0  0  0  0  0  0  0  0  0  0  0  0
   -2.0731   -0.3545   -1.1056 C   0  0  0  0  0  0  0  0  0  0  0  0
   -2.0257    2.1490   -1.2701 C   0  0  0  0  0  0  0  0  0  0  0  0
   -1.7337   -0.3203   -2.5756 C   0  0  0  0  0  0  0  0  0  0  0  0
   -1.7552    2.0596   -2.7526 C   0  0  0  0  0  0  0  0  0  0  0  0
   -1.9755    0.9550    0.9777 C   0  0  0  0  0  0  0  0  0  0  0  0
    0.0998    1.0407   -0.1493 C   0  0  0  0  0  0  0  0  0  0  0  0
   -1.6343    0.8231   -4.8960 C   0  0  0  0  0  0  0  0  0  0  0  0
   -1.5412   -0.0630    1.8436 C   0  0  0  0  0  0  0  0  0  0  0  0
   -2.5999    2.0996    1.4721 C   0  0  0  0  0  0  0  0  0  0  0  0
   -0.1555    0.8300   -5.6194 C   0  0  0  0  0  0  0  0  0  0  0  0
   -1.7652    0.0530    3.1916 C   0  0  0  0  0  0  0  0  0  0  0  0
   -2.8040    2.2208    2.8238 C   0  0  0  0  0  0  0  0  0  0  0  0
   -2.4268    1.1805    3.6703 C   0  0  0  0  0  0  0  0  0  0  0  0
    2.3789   -0.1018    0.4262 C   0  0  0  0  0  0  0  0  0  0  0  0
    1.0372    0.0034   -3.8565 C   0  0  0  0  0  0  0  0  0  0  0  0
    2.9253   -1.3405    1.0955 C   0  0  0  0  0  0  0  0  0  0  0  0
    1.5155    1.3629   -3.2714 C   0  0  0  0  0  0  0  0  0  0  0  0
    1.0934    2.6712   -3.5507 C   0  0  0  0  0  0  0  0  0  0  0  0
    2.2279    1.3232   -2.1062 C   0  0  0  0  0  0  0  0  0  0  0  0
    1.2541    3.7863   -2.6948 C   0  0  0  0  0  0  0  0  0  0  0  0
    2.5066    2.4496   -1.2615 C   0  0  0  0  0  0  0  0  0  0  0  0
    1.9884    3.6963   -1.5471 C   0  0  0  0  0  0  0  0  0  0  0  0
  1 11  1  0
  1 19  1  0
  2 11  2  0
  3 15  1  0
  3 20  1  0
  4  8  1  0
  4  9  1  0
  4 12  1  0
  5  6  1  0
  5  7  1  0
  5 10  1  0
  5 11  1  0
  6  8  1  0
  7  9  1  0
 10 13  2  0
 10 14  1  0
 12 15  1  0
 13 16  1  0
 14 17  2  0
 16 18  2  0
 17 18  1  0
 19 21  1  0
 20 22  1  0
 22 23  2  0
 22 24  1  0
 23 25  1  0
 24 26  2  0
 25 27  2  0
 26 27  1  0
M  END
>  <DRUGBANK_ID>  (1) 
DB01518

>  <COMMON_NAME>  (1) 
Benzethidine

>  <CAS_NUMBER>  (1) 
3691-78-9

>  <UNII>  (1) 
X0I74BAR02

>  <SYNONYMS>  (1) 
Benzethidine

$$$$
