
     RDKit          3D

 11 11  0  0  1  0  0  0  0  0999 V2000
    1.0766    0.0928    0.1126 C   0  0  0  0  0  0  0  0  0  0  0  0
    0.3608   -0.1946    1.4399 C   0  0  2  0  0  0  0  0  0  0  0  0
   -0.1848   -1.6444    1.5266 C   0  0  2  0  0  0  0  0  0  0  0  0
   -1.4577   -1.7910    0.6518 C   0  0  1  0  0  0  0  0  0  0  0  0
   -2.4919   -0.7190    1.0170 C   0  0  2  0  0  0  0  0  0  0  0  0
   -1.8479    0.6870    0.9533 C   0  0  1  0  0  0  0  0  0  0  0  0
   -0.4495   -1.9757    2.9444 N   0  0  0  0  0  0  0  0  0  0  0  0
   -1.1687   -1.7910   -0.7497 O   0  0  0  0  0  0  0  0  0  0  0  0
   -3.0095   -0.9862    2.3348 O   0  0  0  0  0  0  0  0  0  0  0  0
   -2.8007    1.6386    1.4139 O   0  0  0  0  0  0  0  0  0  0  0  0
   -0.6534    0.7905    1.7202 O   0  0  0  0  0  0  0  0  0  0  0  0
  2  1  1  6
  3  2  1  0
  3  7  1  1
  4  3  1  0
  4  8  1  6
  5  4  1  0
  5  9  1  1
  6  5  1  0
  6 10  1  1
 11  2  1  0
 11  6  1  0
M  END
>  <DRUGBANK_ID>  (1) 
DB03439

>  <SECONDARY_ACCESSION_NUMBERS>  (1) 
EXPT00456

>  <COMMON_NAME>  (1) 
4,6-dideoxy-4-amino-alpha-D-glucose

$$$$
