
     RDKit          3D

 10  9  0  0  0  0  0  0  0  0999 V2000
    1.0494    0.0519   -0.0201 O   0  0  0  0  0  0  0  0  0  0  0  0
    0.4209   -0.2018    1.2305 N   0  0  0  0  0  0  0  0  0  0  0  0
    1.4408   -0.4064    2.4090 C   0  0  0  0  0  0  0  0  0  0  0  0
    1.3142    0.5261    3.6486 C   0  0  0  0  0  0  0  0  0  0  0  0
   -0.3076    0.5685    4.3886 P   0  0  0  0  0  0  0  0  0  0  0  0
   -0.7740    2.0001    3.8475 O   0  0  0  0  0  0  0  0  0  0  0  0
   -1.0647   -0.5517    3.5638 O   0  0  0  0  0  0  0  0  0  0  0  0
   -0.6415    0.4000    5.8263 O   0  0  0  0  0  0  0  0  0  0  0  0
   -0.9676   -0.2385    0.9613 C   0  0  0  0  0  0  0  0  0  0  0  0
   -1.5306    0.0094   -0.1232 O   0  0  0  0  0  0  0  0  0  0  0  0
  1  2  1  0
  2  3  1  0
  2  9  1  0
  3  4  1  0
  4  5  1  0
  5  6  1  0
  5  7  1  0
  5  8  2  0
  9 10  2  0
M  END
>  <DRUGBANK_ID>  (1) 
DB03135

>  <SECONDARY_ACCESSION_NUMBERS>  (1) 
EXPT00020

>  <COMMON_NAME>  (1) 
[2(Formyl-Hydroxy-Amino)-Ethyl]-Phosphonic Acid

>  <UNII>  (1) 
8Y97C7OS7S

$$$$
