
     RDKit          3D

 27 29  0  0  0  0  0  0  0  0999 V2000
    3.8001   -1.2511    5.1612 N   0  0  0  0  0  0  0  0  0  0  0  0
    3.7642   -1.2154    3.7705 C   0  0  0  0  0  0  0  0  0  0  0  0
    2.8059   -1.7154    5.9661 C   0  0  0  0  0  0  0  0  0  0  0  0
    4.7292   -2.0249    3.2517 C   0  0  0  0  0  0  0  0  0  0  0  0
    4.8088   -2.2388    5.6187 C   0  0  1  0  0  0  0  0  0  0  0  0
    3.7677   -2.6704    6.7066 C   0  0  1  0  0  0  0  0  0  0  0  0
    5.2351   -2.9710    4.3482 C   0  0  1  0  0  0  0  0  0  0  0  0
    5.7327    4.6616    2.6190 S   0  0  0  0  0  0  0  0  0  0  0  0
    2.7686   -0.3118    3.0746 C   0  0  0  0  0  0  0  0  0  0  0  0
    5.2746    0.9059   -0.9527 N   0  0  0  0  0  0  0  0  0  0  0  0
    5.4703   -2.2134    1.6624 S   0  0  0  0  0  0  0  0  0  0  0  0
    4.9871    3.2959    2.0315 N   0  0  0  0  0  0  0  0  0  0  0  0
    1.6110   -1.4729    5.9577 O   0  0  0  0  0  0  0  0  0  0  0  0
    5.0537    5.7914    1.6006 N   0  0  0  0  0  0  0  0  0  0  0  0
    5.2329    4.9298    3.9407 O   0  0  0  0  0  0  0  0  0  0  0  0
    4.0950   -2.3327    8.1585 C   0  0  1  0  0  0  0  0  0  0  0  0
    2.2657    0.7091    3.7973 O   0  0  0  0  0  0  0  0  0  0  0  0
    4.7897   -0.8726    0.6501 C   0  0  1  0  0  0  0  0  0  0  0  0
    7.1355    4.6177    2.3018 O   0  0  0  0  0  0  0  0  0  0  0  0
    4.7473    1.4889    0.3032 C   0  0  2  0  0  0  0  0  0  0  0  0
    2.4579   -0.3901    1.8984 O   0  0  0  0  0  0  0  0  0  0  0  0
    5.3414    2.8631    0.6635 C   0  0  0  0  0  0  0  0  0  0  0  0
    5.1585    0.4453    1.3089 C   0  0  0  0  0  0  0  0  0  0  0  0
    5.1104   -0.5745   -0.8264 C   0  0  0  0  0  0  0  0  0  0  0  0
    4.5778   -4.3459    4.2590 C   0  0  0  0  0  0  0  0  0  0  0  0
    5.1711   -3.2846    8.6720 C   0  0  0  0  0  0  0  0  0  0  0  0
    4.5357   -0.9840    8.2883 O   0  0  0  0  0  0  0  0  0  0  0  0
  2  1  1  0
  3  1  1  0
  4  2  2  0
  4  7  1  0
  5  1  1  6
  6  3  1  6
  6  5  1  0
  6 16  1  0
  7  5  1  0
  7 25  1  6
  8 12  1  0
  9  2  1  0
 10 24  1  0
 10 20  1  0
 11  4  1  0
 12 22  1  0
 13  3  2  0
 14  8  1  0
 15  8  2  0
 16 26  1  6
 16 27  1  0
 17  9  1  0
 18 11  1  1
 19  8  2  0
 20 23  1  0
 20 22  1  1
 21  9  2  0
 23 18  1  0
 24 18  1  0
M  END
>  <DRUGBANK_ID>  (1) 
DB06211

>  <COMMON_NAME>  (1) 
Doripenem

>  <CAS_NUMBER>  (1) 
148016-81-3

>  <UNII>  (1) 
BHV525JOBH

>  <SYNONYMS>  (1) 
Doripenem

$$$$
