
     RDKit          3D

 28 31  0  0  0  0  0  0  0  0999 V2000
    1.2323    0.1970   -0.2558 O   0  0  0  0  0  0  0  0  0  0  0  0
    1.9557    6.3399   -0.3486 O   0  0  0  0  0  0  0  0  0  0  0  0
    3.6259    6.8141    1.2265 O   0  0  0  0  0  0  0  0  0  0  0  0
    2.5102    0.2134    0.1861 N   0  0  0  0  0  0  0  0  0  0  0  0
    3.6206    1.2574   -2.1243 N   0  0  0  0  0  0  0  0  0  0  0  0
    2.0997    8.3857    0.8343 N   0  0  0  0  0  0  0  0  0  0  0  0
    4.5110    1.9568    0.0596 C   0  0  0  0  0  0  0  0  0  0  0  0
    3.7013    0.6822   -0.7834 C   0  0  0  0  0  0  0  0  0  0  0  0
    4.2133    1.3129    1.3684 C   0  0  0  0  0  0  0  0  0  0  0  0
    2.7093    1.1873    1.3024 C   0  0  0  0  0  0  0  0  0  0  0  0
    3.7086    3.0704   -0.5987 C   0  0  0  0  0  0  0  0  0  0  0  0
    3.1494    2.5490   -1.7586 C   0  0  0  0  0  0  0  0  0  0  0  0
    5.8611    2.7042    0.3090 C   0  0  0  0  0  0  0  0  0  0  0  0
    2.8249   -1.1736    0.7968 C   0  0  0  0  0  0  0  0  0  0  0  0
    5.1123    1.1724   -2.4665 C   0  0  0  0  0  0  0  0  0  0  0  0
    3.4050    4.3515   -0.1505 C   0  0  0  0  0  0  0  0  0  0  0  0
    2.0067    3.1469   -2.2570 C   0  0  0  0  0  0  0  0  0  0  0  0
    2.3619    5.0378   -0.7577 C   0  0  0  0  0  0  0  0  0  0  0  0
    1.6087    4.4027   -1.7606 C   0  0  0  0  0  0  0  0  0  0  0  0
    2.6276    7.1206    0.6270 C   0  0  0  0  0  0  0  0  0  0  0  0
    1.0509    8.9913    0.1440 C   0  0  0  0  0  0  0  0  0  0  0  0
    1.1681   10.3151   -0.3174 C   0  0  0  0  0  0  0  0  0  0  0  0
   -0.1205    8.2658   -0.0923 C   0  0  0  0  0  0  0  0  0  0  0  0
    2.4374   11.1325   -0.1852 C   0  0  0  0  0  0  0  0  0  0  0  0
    0.0985   10.8574   -1.0537 C   0  0  0  0  0  0  0  0  0  0  0  0
   -1.1074    8.7748   -0.9269 C   0  0  0  0  0  0  0  0  0  0  0  0
   -0.9912   10.0675   -1.4205 C   0  0  0  0  0  0  0  0  0  0  0  0
    3.0382   11.4597   -1.5499 C   0  0  0  0  0  0  0  0  0  0  0  0
  1  4  1  0
  2 18  1  0
  2 20  1  0
  3 20  2  0
  4  8  1  0
  4 10  1  0
  4 14  1  0
  5  8  1  0
  5 12  1  0
  5 15  1  0
  6 20  1  0
  6 21  1  0
  7  8  1  0
  7  9  1  0
  7 11  1  0
  7 13  1  0
  9 10  1  0
 11 12  2  0
 11 16  1  0
 12 17  1  0
 16 18  2  0
 17 19  2  0
 18 19  1  0
 21 22  2  0
 21 23  1  0
 22 24  1  0
 22 25  1  0
 23 26  2  0
 24 28  1  0
 25 27  2  0
 26 27  1  0
M  CHG  2   1  -1   4   1
M  END
>  <DRUGBANK_ID>  (1) 
DB07846

>  <COMMON_NAME>  (1) 
(3,4,8b-Trimethyl-3-oxido-2,3a-dihydro-1H-pyrrolo[2,3-b]indol-3-ium-7-yl) N-(2-ethylphenyl)carbamate

$$$$
