
     RDKit          3D

 11 11  0  0  0  0  0  0  0  0999 V2000
    1.0350   -0.0062   -0.0935 O   0  0  0  0  0  0  0  0  0  0  0  0
    0.4650    0.8679    1.2612 S   0  0  0  0  0  0  0  0  0  0  0  0
    0.9752    0.2091    2.5449 O   0  0  0  0  0  0  0  0  0  0  0  0
    0.9752    2.3091    1.1900 O   0  0  0  0  0  0  0  0  0  0  0  0
   -1.3450    0.8679    1.2612 C   0  0  0  0  0  0  0  0  0  0  0  0
   -2.0687    1.4116    0.1636 C   0  0  0  0  0  0  0  0  0  0  0  0
   -3.4410    1.6746    0.3057 C   0  0  0  0  0  0  0  0  0  0  0  0
   -4.0972    1.1809    1.3142 C   0  0  0  0  0  0  0  0  0  0  0  0
   -6.1261    1.5846    1.5312 Hg  0  0  0  0  0  1  0  0  0  0  0  0
   -3.4392    0.3772    2.2547 C   0  0  0  0  0  0  0  0  0  0  0  0
   -2.0236    0.3581    2.2905 C   0  0  0  0  0  0  0  0  0  0  0  0
  1  2  1  0
  2  3  2  0
  2  4  2  0
  2  5  1  0
  5  6  2  0
  5 11  1  0
  6  7  1  0
  7  8  2  0
  8  9  1  0
  8 10  1  0
 10 11  2  0
M  END
>  <DRUGBANK_ID>  (1) 
DB02983

>  <SECONDARY_ACCESSION_NUMBERS>  (1) 
EXPT02614

>  <COMMON_NAME>  (1) 
Para-Mercury-Benzenesulfonic Acid

$$$$
