
     RDKit          3D

  8  7  0  0  0  0  0  0  0  0999 V2000
    0.9467   -0.1227   -0.0909 O   0  0  0  0  0  0  0  0  0  0  0  0
    3.1448    2.7269    0.0570 N   0  0  0  0  0  0  0  0  0  0  0  0
    4.3243    4.4202   -0.9822 N   0  0  0  0  0  0  0  0  0  0  0  0
    4.2664    4.3561    1.3107 N   0  0  0  0  0  0  0  0  0  0  0  0
    1.0610    1.9547    1.1481 C   0  0  0  0  0  0  0  0  0  0  0  0
    2.5820    1.9750    1.1940 C   0  0  0  0  0  0  0  0  0  0  0  0
    0.5208    1.2288   -0.0749 C   0  0  0  0  0  0  0  0  0  0  0  0
    3.9066    3.8245    0.1409 C   0  0  0  0  0  0  0  0  0  0  0  0
  1  7  1  0
  2  6  1  0
  2  8  2  3
  3  8  1  0
  4  8  1  0
  5  6  1  0
  5  7  1  0
M  CHG  1   2   1
M  END
>  <DRUGBANK_ID>  (1) 
DB03637

>  <SECONDARY_ACCESSION_NUMBERS>  (1) 
EXPT02563

>  <COMMON_NAME>  (1) 
Guanidine-3-propanol

$$$$
