
     RDKit          3D

 23 26  0  0  1  0  0  0  0  0999 V2000
    2.5469   -0.0189   -0.0092 C   0  0  0  0  0  0  0  0  0  0  0  0
    1.0493    0.0278    0.0118 C   0  0  0  0  0  0  0  0  0  0  0  0
    0.4154    1.2679    0.0158 C   0  0  0  0  0  0  0  0  0  0  0  0
   -0.9561    1.3138   -0.0202 C   0  0  0  0  0  0  0  0  0  0  0  0
   -1.6814    0.1248   -0.0793 C   0  0  0  0  0  0  0  0  0  0  0  0
   -1.1204   -1.1606   -0.0083 C   0  0  0  0  0  0  0  0  0  0  0  0
    0.2875   -1.1701    0.0144 C   0  0  0  0  0  0  0  0  0  0  0  0
   -1.9504   -2.3770   -0.0196 N   0  0  0  0  0  0  0  0  0  0  0  0
   -1.2829   -3.6907   -0.0078 C   0  0  0  0  0  0  0  0  0  0  0  0
   -3.3886   -2.3826    0.0752 C   0  0  0  0  0  0  0  0  0  0  0  0
   -4.3788   -1.1726    0.7317 S   0  0  0  0  0  0  0  0  0  0  0  0
   -4.0186   -3.5813   -0.4054 O   0  0  0  0  0  0  0  0  0  0  0  0
   -5.4155   -3.8411   -0.1515 C   0  0  0  0  0  0  0  0  0  0  0  0
   -6.4622   -3.0603   -0.6711 C   0  0  0  0  0  0  0  0  0  0  0  0
   -7.7223   -2.9415    0.0503 C   0  0  0  0  0  0  0  0  0  0  0  0
   -7.8524   -3.6083    1.2877 C   0  0  0  0  0  0  0  0  0  0  0  0
   -6.8439   -4.4641    1.5977 C   0  0  0  0  0  0  0  0  0  0  0  0
   -5.6429   -4.6911    0.8841 C   0  0  0  0  0  0  0  0  0  0  0  0
   -7.0775   -5.0795    2.8728 C   0  0  1  0  0  0  0  0  0  0  0  0
   -6.7051   -3.9704    3.9205 C   0  0  0  0  0  0  0  0  0  0  0  0
   -8.0346   -3.1982    4.1432 C   0  0  0  0  0  0  0  0  0  0  0  0
   -8.7703   -3.4626    2.7356 C   0  0  2  0  0  0  0  0  0  0  0  0
   -8.5358   -4.9319    3.2648 C   0  0  0  0  0  0  0  0  0  0  0  0
  1  2  1  0
  2  3  2  0
  2  7  1  0
  3  4  1  0
  4  5  2  0
  5  6  1  0
  6  7  2  0
  6  8  1  0
  8  9  1  0
  8 10  1  0
 10 11  2  0
 10 12  1  0
 12 13  1  0
 13 14  2  0
 13 18  1  0
 14 15  1  0
 15 16  2  0
 16 17  1  0
 16 22  1  0
 17 18  2  0
 17 19  1  0
 19 20  1  1
 19 23  1  0
 20 21  1  0
 22 21  1  1
 22 23  1  0
M  END
>  <DRUGBANK_ID>  (1) 
DB13360

>  <COMMON_NAME>  (1) 
Tolciclate

>  <CAS_NUMBER>  (1) 
50838-36-3

>  <UNII>  (1) 
T3TZ02X2AZ

>  <SYNONYMS>  (1) 
Tolciclate

$$$$
