
     RDKit          3D

 26 26  0  0  0  0  0  0  0  0999 V2000
    1.3255   -0.0209   -0.0165 C   0  0  0  0  0  0  0  0  0  0  0  0
    1.2008    1.1384   -0.9892 C   0  0  0  0  0  0  0  0  0  0  0  0
    1.0314    0.7361   -2.4236 N   0  0  0  0  0  0  0  0  0  0  0  0
    0.0317    0.4763   -3.3410 C   0  0  0  0  0  0  0  0  0  0  0  0
    0.4061    0.1649   -4.4820 O   0  0  0  0  0  0  0  0  0  0  0  0
   -1.4895    0.5306   -3.1392 C   0  0  0  0  0  0  0  0  0  0  0  0
   -2.2298    0.8278   -2.0384 C   0  0  0  0  0  0  0  0  0  0  0  0
   -1.6591    1.1648   -0.7602 C   0  0  0  0  0  0  0  0  0  0  0  0
   -3.6033    0.8897   -1.7747 C   0  0  0  0  0  0  0  0  0  0  0  0
   -4.4669    0.6304   -2.7456 C   0  0  0  0  0  0  0  0  0  0  0  0
   -5.8267    0.7061   -2.4601 C   0  0  0  0  0  0  0  0  0  0  0  0
   -6.7085    0.4540   -3.4241 C   0  0  0  0  0  0  0  0  0  0  0  0
   -6.3360    0.0770   -4.8450 C   0  0  0  0  0  0  0  0  0  0  0  0
   -8.1036    0.5363   -3.1267 C   0  0  0  0  0  0  0  0  0  0  0  0
   -8.7191    0.8400   -1.9704 C   0  0  0  0  0  0  0  0  0  0  0  0
  -10.1794    0.9037   -1.6933 C   0  0  0  0  0  0  0  0  0  0  0  0
  -11.1486    0.6466   -2.6854 C   0  0  0  0  0  0  0  0  0  0  0  0
  -12.5082    0.7006   -2.3523 C   0  0  0  0  0  0  0  0  0  0  0  0
  -12.9674    1.0170   -1.0646 C   0  0  0  0  0  0  0  0  0  0  0  0
  -12.0304    1.2899   -0.0530 C   0  0  0  0  0  0  0  0  0  0  0  0
  -10.6295    1.2300   -0.3714 C   0  0  0  0  0  0  0  0  0  0  0  0
   -9.6166    1.5219    0.7312 C   0  0  0  0  0  0  0  0  0  0  0  0
  -12.3645    1.6480    1.3738 C   0  0  0  0  0  0  0  0  0  0  0  0
  -14.3389    1.0053   -1.0150 O   0  0  0  0  0  0  0  0  0  0  0  0
  -14.9772    1.3081    0.2080 C   0  0  0  0  0  0  0  0  0  0  0  0
  -10.8208    0.3079   -4.1135 C   0  0  0  0  0  0  0  0  0  0  0  0
  1  2  1  0
  2  3  1  0
  3  4  1  0
  4  5  2  0
  4  6  1  0
  6  7  2  0
  7  8  1  0
  7  9  1  0
  9 10  2  0
 10 11  1  0
 11 12  2  0
 12 13  1  0
 12 14  1  0
 14 15  2  0
 15 16  1  0
 16 17  2  0
 16 21  1  0
 17 18  1  0
 17 26  1  0
 18 19  2  0
 19 20  1  0
 19 24  1  0
 20 21  2  0
 20 23  1  0
 21 22  1  0
 24 25  1  0
M  END
>  <DRUGBANK_ID>  (1) 
DB13368

>  <COMMON_NAME>  (1) 
Motretinide

>  <CAS_NUMBER>  (1) 
56281-36-8

>  <UNII>  (1) 
W786807KL1

>  <SYNONYMS>  (1) 
Motretinide

$$$$
