
     RDKit          3D

  9  8  0  0  1  0  0  0  0  0999 V2000
    1.4652    2.0585   -1.7433 C   0  0  0  0  0  0  0  0  0  0  0  0
    0.5309    2.6908   -0.7083 C   0  0  1  0  0  0  0  0  0  0  0  0
    0.9465    2.3205    0.7284 C   0  0  2  0  0  0  0  0  0  0  0  0
    0.2310    1.0281    1.0712 C   0  0  0  0  0  0  0  0  0  0  0  0
    0.6599   -0.1094    0.9484 O   0  0  0  0  0  0  0  0  0  0  0  0
   -1.0513    1.2844    1.4306 O   0  0  0  0  0  0  0  0  0  0  0  0
    0.5343    3.3236    1.6630 O   0  0  0  0  0  0  0  0  0  0  0  0
    0.5099    4.1120   -0.8896 O   0  0  0  0  0  0  0  0  0  0  0  0
    2.7939    2.5596   -1.5916 O   0  0  0  0  0  0  0  0  0  0  0  0
  1  2  1  0
  1  9  1  0
  2  8  1  1
  3  7  1  1
  3  4  1  0
  3  2  1  0
  4  5  2  0
  4  6  1  0
M  END
>  <DRUGBANK_ID>  (1) 
DB11192

>  <COMMON_NAME>  (1) 
L-threonic acid

>  <CAS_NUMBER>  (1) 
7306-96-9

>  <UNII>  (1) 
75B0PMW2JF

>  <SYNONYMS>  (1) 
(2R,3S)-2,3,4-trihydroxy-butanoic acid; L-threonate; L-threonic acid; Threonate

$$$$
