
     RDKit          3D

 25 27  0  0  0  0  0  0  0  0999 V2000
   -1.1392    0.1242   -0.0792 S   0  0  0  0  0  0  0  0  0  0  0  0
    1.2335   -0.7290    0.0162 C   0  0  0  0  0  0  0  0  0  0  0  0
    1.3980    0.6731   -0.0250 C   0  0  0  0  0  0  0  0  0  0  0  0
    0.1435    1.3022   -0.1315 C   0  0  0  0  0  0  0  0  0  0  0  0
   -0.1410    2.7525   -0.2429 C   0  0  0  0  0  0  0  0  0  0  0  0
    0.7399    3.5744    0.0245 O   0  0  0  0  0  0  0  0  0  0  0  0
   -2.5500    3.8356    1.3425 C   0  0  0  0  0  0  0  0  0  0  0  0
   -1.9911    4.3925    0.0314 C   0  0  2  0  0  0  0  0  0  0  0  0
   -2.3327    5.9439    0.0145 C   0  0  0  0  0  0  0  0  0  0  0  0
   -1.9232    6.5989    1.3999 C   0  0  0  0  0  0  0  0  0  0  0  0
   -2.4637    5.8243    2.6017 C   0  0  0  0  0  0  0  0  0  0  0  0
   -1.9979    4.4512    2.5286 N   0  0  0  0  0  0  0  0  0  0  0  0
   -1.4601    3.1864   -0.6578 N   0  0  0  0  0  0  0  0  0  0  0  0
    0.1574   -3.4430    1.0394 C   0  0  0  0  0  0  0  0  0  0  0  0
   -0.0545   -4.8191    1.0100 C   0  0  0  0  0  0  0  0  0  0  0  0
   -0.7620   -5.4065   -0.0281 C   0  0  0  0  0  0  0  0  0  0  0  0
   -1.2263   -4.6091   -1.0736 C   0  0  0  0  0  0  0  0  0  0  0  0
   -1.0251   -3.2232   -1.0502 C   0  0  0  0  0  0  0  0  0  0  0  0
   -0.3795   -2.6160    0.0308 C   0  0  0  0  0  0  0  0  0  0  0  0
    0.4336   -5.5871    1.9940 F   0  0  0  0  0  0  0  0  0  0  0  0
   -0.0550   -1.1839    0.0065 C   0  0  0  0  0  0  0  0  0  0  0  0
    2.6261    1.3471   -0.0043 N   0  0  0  0  0  0  0  0  0  0  0  0
    3.9103    0.9009    0.0135 C   0  0  0  0  0  0  0  0  0  0  0  0
    4.8610    1.7064    0.0150 O   0  0  0  0  0  0  0  0  0  0  0  0
    4.2179   -0.4045    0.0243 N   0  0  0  0  0  0  0  0  0  0  0  0
  1 21  1  0
  1  4  1  0
  2  3  1  0
  3  4  2  0
  3 22  1  0
  4  5  1  0
  5 13  1  0
  5  6  2  0
  7  8  1  0
  7 12  1  0
  8  9  1  0
  8 13  1  6
  9 10  1  0
 10 11  1  0
 11 12  1  0
 14 15  2  0
 14 19  1  0
 15 16  1  0
 15 20  1  0
 16 17  2  0
 17 18  1  0
 18 19  2  0
 19 21  1  0
 21  2  2  0
 22 23  1  0
 23 24  2  0
 23 25  1  0
M  END
>  <DRUGBANK_ID>  (1) 
DB12242

>  <COMMON_NAME>  (1) 
AZD-7762

>  <CAS_NUMBER>  (1) 
860352-01-8

>  <UNII>  (1) 
5D822Y3L1H

$$$$
