
     RDKit          3D

 17 19  0  0  0  0  0  0  0  0999 V2000
    1.1231   -0.1705   -0.2570 O   0  0  0  0  0  0  0  0  0  0  0  0
    0.4602    0.7626   -1.0027 C   0  0  0  0  0  0  0  0  0  0  0  0
    0.7832    0.7930   -2.3479 C   0  0  0  0  0  0  0  0  0  0  0  0
    0.1073    1.6610   -3.1974 C   0  0  0  0  0  0  0  0  0  0  0  0
   -0.8852    2.5086   -2.6982 C   0  0  0  0  0  0  0  0  0  0  0  0
   -1.2189    2.4930   -1.3332 C   0  0  0  0  0  0  0  0  0  0  0  0
   -2.2873    3.4293   -0.8273 C   0  0  0  0  0  0  0  0  0  0  0  0
   -2.5927    3.3338    0.6458 C   0  0  0  0  0  0  0  0  0  0  0  0
   -3.5777    4.1703    1.1978 C   0  0  0  0  0  0  0  0  0  0  0  0
   -3.8709    4.1145    2.5631 C   0  0  0  0  0  0  0  0  0  0  0  0
   -3.1905    3.2279    3.3967 C   0  0  0  0  0  0  0  0  0  0  0  0
   -2.2156    2.3958    2.8635 C   0  0  0  0  0  0  0  0  0  0  0  0
   -1.5489    1.5354    3.6879 O   0  0  0  0  0  0  0  0  0  0  0  0
   -1.9127    2.4420    1.4935 C   0  0  0  0  0  0  0  0  0  0  0  0
   -0.8607    1.5580    0.9485 C   0  0  0  0  0  0  0  0  0  0  0  0
   -0.2279    0.8000    1.6830 O   0  0  0  0  0  0  0  0  0  0  0  0
   -0.5369    1.6030   -0.4858 C   0  0  0  0  0  0  0  0  0  0  0  0
  1  2  1  0
  2  3  2  0
  2 17  1  0
  3  4  1  0
  4  5  2  0
  5  6  1  0
  6  7  1  0
  6 17  2  0
  7  8  1  0
  8  9  2  0
  8 14  1  0
  9 10  1  0
 10 11  2  0
 11 12  1  0
 12 13  1  0
 12 14  2  0
 14 15  1  0
 15 16  2  0
 15 17  1  0
M  END
>  <DRUGBANK_ID>  (1) 
DB11157

>  <COMMON_NAME>  (1) 
Anthralin

>  <CAS_NUMBER>  (1) 
1143-38-0

>  <UNII>  (1) 
U8CJK0JH5M

>  <SYNONYMS>  (1) 
Anthralin; Dithranol; Ditranol

$$$$
