
     RDKit          3D

 21 22  0  0  0  0  0  0  0  0999 V2000
    1.0564    0.0473   -0.2214 C   0  0  0  0  0  0  0  0  0  0  0  0
    0.6177   -1.3590    0.1520 C   0  0  0  0  0  0  0  0  0  0  0  0
    1.1144   -1.7024    1.5557 C   0  0  0  0  0  0  0  0  0  0  0  0
    0.5742   -0.6970    2.5855 C   0  0  0  0  0  0  0  0  0  0  0  0
   -0.9626   -0.6542    2.5658 C   0  0  0  0  0  0  0  0  0  0  0  0
   -1.5071   -2.0348    2.8546 C   0  0  0  0  0  0  0  0  0  0  0  0
   -0.9615   -2.4951    4.1872 C   0  0  0  0  0  0  0  0  0  0  0  0
   -1.4664   -1.6235    5.3654 C   0  0  0  0  0  0  0  0  0  0  0  0
   -2.9778   -1.6914    5.5245 C   0  0  0  0  0  0  0  0  0  0  0  0
   -3.4982   -3.0468    5.9386 C   0  0  0  0  0  0  0  0  0  0  0  0
   -4.8375   -3.1895    6.2934 C   0  0  0  0  0  0  0  0  0  0  0  0
   -5.3113   -4.4568    6.6051 C   0  0  0  0  0  0  0  0  0  0  0  0
   -4.5217   -5.5985    6.3621 C   0  0  0  0  0  0  0  0  0  0  0  0
   -4.9705   -6.9178    6.5254 C   0  0  0  0  0  0  0  0  0  0  0  0
   -4.1986   -7.9929    6.0610 C   0  0  0  0  0  0  0  0  0  0  0  0
   -2.8951   -7.8088    5.6210 C   0  0  0  0  0  0  0  0  0  0  0  0
   -2.3744   -6.5289    5.6053 C   0  0  0  0  0  0  0  0  0  0  0  0
   -3.2049   -5.4397    5.9536 C   0  0  0  0  0  0  0  0  0  0  0  0
   -2.6560   -4.1695    5.9788 N   0  0  0  0  0  0  0  0  0  0  0  0
   -1.3951   -4.1016    6.1706 O   0  0  0  0  0  0  0  0  0  0  0  0
   -6.5700   -4.6095    7.1060 O   0  0  0  0  0  0  0  0  0  0  0  0
  1  2  1  0
  2  3  1  0
  3  4  1  0
  4  5  1  0
  5  6  1  0
  6  7  1  0
  7  8  1  0
  8  9  1  0
  9 10  1  0
 10 11  2  0
 10 19  1  0
 11 12  1  0
 12 13  2  0
 12 21  1  0
 13 14  1  0
 13 18  1  0
 14 15  2  0
 15 16  1  0
 16 17  2  0
 17 18  1  0
 18 19  2  0
 19 20  1  0
M  CHG  2  19   1  20  -1
M  END
>  <DRUGBANK_ID>  (1) 
DB08453

>  <COMMON_NAME>  (1) 
2-Nonyl-4-quinolinol 1-oxide

>  <CAS_NUMBER>  (1) 
316-66-5

$$$$
