
     RDKit          3D

 29 32  0  0  1  0  0  0  0  0999 V2000
    1.1322    0.0278   -0.2288 C   0  0  0  0  0  0  0  0  0  0  0  0
    0.4819    1.1273    0.5842 C   0  0  0  0  0  0  0  0  0  0  0  0
    1.0079    2.5079    0.1973 C   0  0  0  0  0  0  0  0  0  0  0  0
   -1.0521    1.0231    0.5379 C   0  0  0  0  0  0  0  0  0  0  0  0
   -1.5456   -0.2301    1.2842 C   0  0  0  0  0  0  0  0  0  0  0  0
   -1.0852   -0.4026    2.7536 C   0  0  0  0  0  0  0  0  0  0  0  0
   -1.6195    0.6568    3.7532 C   0  0  1  0  0  0  0  0  0  0  0  0
   -3.1514    0.6539    3.7052 C   0  0  0  0  0  0  0  0  0  0  0  0
   -1.3132    0.2008    5.0715 O   0  0  0  0  0  0  0  0  0  0  0  0
   -0.9796    2.0648    3.5257 C   0  0  1  0  0  0  0  0  0  0  0  0
   -1.9489    3.2695    3.6067 C   0  0  0  0  0  0  0  0  0  0  0  0
   -1.1128    4.4783    4.0055 C   0  0  0  0  0  0  0  0  0  0  0  0
    0.3203    4.0092    3.8348 C   0  0  1  0  0  0  0  0  0  0  0  0
    1.4222    4.7702    4.5452 C   0  0  2  0  0  0  0  0  0  0  0  0
    1.3583    6.2550    4.1932 C   0  0  0  0  0  0  0  0  0  0  0  0
    2.5829    6.9857    4.6171 C   0  0  0  0  0  0  0  0  0  0  0  0
    3.7398    6.3815    4.9849 C   0  0  0  0  0  0  0  0  0  0  0  0
    4.8986    7.2070    5.4691 C   0  0  0  0  0  0  0  0  0  0  0  0
    6.1924    6.8648    4.7282 C   0  0  1  0  0  0  0  0  0  0  0  0
    7.2874    7.5530    5.3273 O   0  0  0  0  0  0  0  0  0  0  0  0
    6.4723    5.3637    4.7453 C   0  0  0  0  0  0  0  0  0  0  0  0
    5.2885    4.5810    4.1862 C   0  0  0  0  0  0  0  0  0  0  0  0
    3.9556    4.8673    4.9344 C   0  0  1  0  0  0  0  0  0  0  0  0
    4.0335    4.3279    6.3836 C   0  0  0  0  0  0  0  0  0  0  0  0
    2.8011    4.1647    4.1550 C   0  0  1  0  0  0  0  0  0  0  0  0
    2.8625    2.6181    4.2677 C   0  0  0  0  0  0  0  0  0  0  0  0
    1.6408    1.9494    3.6672 C   0  0  0  0  0  0  0  0  0  0  0  0
    0.3227    2.5163    4.2307 C   0  0  2  0  0  0  0  0  0  0  0  0
    0.2545    2.2603    5.7398 C   0  0  0  0  0  0  0  0  0  0  0  0
  1  2  1  0
  2  3  1  0
  2  4  1  0
  4  5  1  0
  5  6  1  0
  6  7  1  0
  7  8  1  1
  7  9  1  0
 10  7  1  0
 10 11  1  1
 10 28  1  0
 11 12  1  0
 13 12  1  1
 13 14  1  0
 13 28  1  0
 14 15  1  6
 14 25  1  0
 15 16  1  0
 16 17  2  0
 17 18  1  0
 17 23  1  0
 18 19  1  0
 19 20  1  1
 19 21  1  0
 21 22  1  0
 22 23  1  0
 23 24  1  1
 23 25  1  0
 25 26  1  1
 26 27  1  0
 27 28  1  0
 28 29  1  1
M  END
>  <DRUGBANK_ID>  (1) 
DB04704

>  <COMMON_NAME>  (1) 
20-hydroxycholesterol

>  <CAS_NUMBER>  (1) 
516-72-3

>  <UNII>  (1) 
30060WAL99

$$$$
