FDI
     RDKit          3D

 21 21  0  0  0  0  0  0  0  0999 V2000
    1.3326   -0.3181   -0.0133 C   0  0  0  0  0  0  0  0  0  0  0  0
    0.3936   -1.3818    0.0019 C   0  0  0  0  0  0  0  0  0  0  0  0
   -0.9746   -1.0193    0.0336 C   0  0  0  0  0  0  0  0  0  0  0  0
   -1.3396    0.3315   -0.0062 C   0  0  0  0  0  0  0  0  0  0  0  0
   -0.4208    1.3689    0.0536 C   0  0  0  0  0  0  0  0  0  0  0  0
    0.9300    1.0424   -0.0135 C   0  0  0  0  0  0  0  0  0  0  0  0
   -1.0262    2.7165    0.3211 C   0  0  0  0  0  0  0  0  0  0  0  0
   -0.1556    3.7324    0.4827 O   0  0  0  0  0  0  0  0  0  0  0  0
   -2.2202    2.8845    0.4608 O   0  0  0  0  0  0  0  0  0  0  0  0
   -1.9988   -1.9672    0.2058 N   0  0  0  0  0  0  0  0  0  0  0  0
   -3.3453   -1.8113    0.0221 C   0  0  0  0  0  0  0  0  0  0  0  0
   -4.1636   -3.0992    0.1228 C   0  0  0  0  0  0  0  0  0  0  0  0
   -3.9030   -0.7531   -0.2552 O   0  0  0  0  0  0  0  0  0  0  0  0
   -5.0345   -3.0471    1.3897 C   0  0  0  0  0  0  0  0  0  0  0  0
   -5.9320   -1.8132    1.4528 C   0  0  0  0  0  0  0  0  0  0  0  0
   -5.0247   -3.1969   -1.1474 C   0  0  0  0  0  0  0  0  0  0  0  0
   -4.1780   -3.3085   -2.4051 C   0  0  0  0  0  0  0  0  0  0  0  0
    0.9100   -2.7344   -0.0306 N   0  0  0  0  0  0  0  0  0  0  0  0
    0.1916   -3.9045   -0.2092 C   0  0  0  0  0  0  0  0  0  0  0  0
    0.8952   -5.2176   -0.1570 C   0  0  0  0  0  0  0  0  0  0  0  0
   -1.0206   -4.0026   -0.3917 O   0  0  0  0  0  0  0  0  0  0  0  0
  1  2  2  0
  1  6  1  0
  2  3  1  0
  2 18  1  0
  3  4  2  0
  3 10  1  0
  4  5  1  0
  5  6  2  0
  5  7  1  0
  7  8  1  0
  7  9  2  0
 10 11  1  0
 11 12  1  0
 11 13  2  0
 12 14  1  0
 12 16  1  0
 14 15  1  0
 16 17  1  0
 18 19  1  0
 19 20  1  0
 19 21  2  0
M  END
>  <DRUGBANK_ID>  (1) 
DB07762

>  <COMMON_NAME>  (1) 
4-(N-ACETYLAMINO)-3-[N-(2-ETHYLBUTANOYLAMINO)]BENZOIC ACID

$$$$
