
     RDKit          3D

 31 33  0  0  0  0  0  0  0  0999 V2000
    0.9885    0.0013    0.0234 S   0  0  0  0  0  0  0  0  0  0  0  0
    0.3674   -1.0702    1.2076 N   0  0  0  0  0  0  0  0  0  0  0  0
   -0.0709   -0.6793    2.4642 C   0  0  0  0  0  0  0  0  0  0  0  0
    2.1653    9.1414    1.1555 C   0  0  0  0  0  0  0  0  0  0  0  0
    2.6464   10.2270    0.5041 N   0  0  0  0  0  0  0  0  0  0  0  0
    1.9280    7.9147    0.3393 C   0  0  0  0  0  0  0  0  0  0  0  0
    0.4014    1.6807    0.2513 C   0  0  0  0  0  0  0  0  0  0  0  0
    2.2806   10.2035    3.3218 N   0  0  0  0  0  0  0  0  0  0  0  0
   -0.7699   -1.5318    3.2876 N   0  0  0  0  0  0  0  0  0  0  0  0
    2.0286    9.1343    2.5395 C   0  0  0  0  0  0  0  0  0  0  0  0
    0.1711    0.4649    2.8344 O   0  0  0  0  0  0  0  0  0  0  0  0
    2.1464    7.8662   -0.8674 O   0  0  0  0  0  0  0  0  0  0  0  0
    1.6233    6.7643    1.0231 N   0  0  0  0  0  0  0  0  0  0  0  0
   -0.6751    1.9784    1.0801 C   0  0  0  0  0  0  0  0  0  0  0  0
    1.0517    2.7379   -0.3753 C   0  0  0  0  0  0  0  0  0  0  0  0
    2.9416   11.2841    1.2912 C   0  0  0  0  0  0  0  0  0  0  0  0
    2.7461   11.2863    2.6692 C   0  0  0  0  0  0  0  0  0  0  0  0
   -0.8627    3.2513    1.6012 C   0  0  0  0  0  0  0  0  0  0  0  0
    0.6962    4.0452   -0.0334 C   0  0  0  0  0  0  0  0  0  0  0  0
   -0.2139    4.3156    1.0029 C   0  0  0  0  0  0  0  0  0  0  0  0
   -1.6096   -1.0251    4.4262 C   0  0  0  0  0  0  0  0  0  0  0  0
    0.4892    6.5677    1.9154 C   0  0  0  0  0  0  0  0  0  0  0  0
   -0.6352    5.7121    1.3582 C   0  0  0  0  0  0  0  0  0  0  0  0
    3.0508   12.4927    3.4861 C   0  0  0  0  0  0  0  0  0  0  0  0
   -1.2846    0.4241    4.8574 C   0  0  0  0  0  0  0  0  0  0  0  0
   -1.4924   -1.9523    5.6448 C   0  0  0  0  0  0  0  0  0  0  0  0
   -2.0004    0.9340    6.0862 C   0  0  0  0  0  0  0  0  0  0  0  0
   -2.2103   -1.4128    6.8903 C   0  0  0  0  0  0  0  0  0  0  0  0
   -1.7704    0.0010    7.2530 C   0  0  0  0  0  0  0  0  0  0  0  0
    0.4217   -0.4350   -1.2362 O   0  0  0  0  0  0  0  0  0  0  0  0
    2.4290    0.0158    0.1957 O   0  0  0  0  0  0  0  0  0  0  0  0
  2  1  1  0
  3  2  1  0
  5  4  2  0
  6  4  1  0
  7  1  1  0
  9  3  1  0
 10  4  1  0
 10  8  2  0
 11  3  2  0
 12  6  2  0
 13  6  1  0
 14  7  2  0
 15  7  1  0
 16  5  1  0
 17  8  1  0
 17 16  2  0
 18 14  1  0
 19 15  2  0
 20 18  2  0
 20 19  1  0
 21  9  1  0
 22 13  1  0
 23 20  1  0
 23 22  1  0
 24 17  1  0
 25 21  1  0
 26 21  1  0
 27 25  1  0
 28 26  1  0
 29 27  1  0
 29 28  1  0
 30  1  2  0
 31  1  2  0
M  END
>  <DRUGBANK_ID>  (1) 
DB01067

>  <SECONDARY_ACCESSION_NUMBERS>  (1) 
APRD00436

>  <COMMON_NAME>  (1) 
Glipizide

>  <CAS_NUMBER>  (1) 
29094-61-9

>  <UNII>  (1) 
X7WDT95N5C

>  <SYNONYMS>  (1) 
1-cyclohexyl-3-({p-[2-(5-methylpyrazinecarboxamido)ethyl]phenyl}sulfonyl)urea; Glipizida; Glipizide; Glipizidum; N-{4-[Î²-(5-methylpyrazine-2-carboxamido)ethyl]benzenesulphonyl}-N'-cyclohexylurea

$$$$
