YML
     RDKit          3D

 17 16  0  0  0  0  0  0  0  0999 V2000
   -3.8638    3.7054    3.4690 C   0  0  2  0  0  0  0  0  0  0  0  0
   -0.7449    2.1772    1.7517 C   0  0  1  0  0  0  0  0  0  0  0  0
    0.7654    2.1687    1.6217 C   0  0  0  0  0  0  0  0  0  0  0  0
   -2.4068    4.2079    3.6508 C   0  0  0  0  0  0  0  0  0  0  0  0
   -1.3347    3.1854    4.1231 C   0  0  1  0  0  0  0  0  0  0  0  0
    1.4081    0.8922    1.2603 C   0  0  0  0  0  0  0  0  0  0  0  0
   -1.1365    1.9370    3.2307 C   0  0  2  0  0  0  0  0  0  0  0  0
   -4.1350    2.4404    2.6319 C   0  0  0  0  0  0  0  0  0  0  0  0
    2.3725    1.1361   -0.2318 P   0  0  1  0  0  0  0  0  0  0  0  0
    3.6884    0.3374    0.2884 O   0  0  0  0  0  0  0  0  0  0  0  0
    1.6678    0.3794   -1.3245 O   0  0  0  0  0  0  0  0  0  0  0  0
    1.4772    3.1364    1.8193 O   0  0  0  0  0  0  0  0  0  0  0  0
   -1.1940    3.4588    1.0506 C   0  0  0  0  0  0  0  0  0  0  0  0
   -0.3225    0.9307    3.8545 O   0  0  0  0  0  0  0  0  0  0  0  0
    0.0243    3.8722    4.2994 C   0  0  0  0  0  0  0  0  0  0  0  0
   -4.6850    4.8371    2.8344 C   0  0  0  0  0  0  0  0  0  0  0  0
   -5.5184    2.1211    2.6265 O   0  0  0  0  0  0  0  0  0  0  0  0
  1  4  1  0
  1  8  1  0
  1 16  1  6
  2 13  1  1
  2  7  1  0
  2  3  1  0
  3  6  1  0
  3 12  2  0
  4  5  1  0
  5  7  1  0
  5 15  1  6
  6  9  1  0
  7 14  1  1
  8 17  1  0
  9 10  1  1
  9 11  2  0
M  END
>  <DRUGBANK_ID>  (1) 
DB08759

>  <COMMON_NAME>  (1) 
[(3R,4S,5S,7R)-4,8-DIHYDROXY-3,5,7-TRIMETHYL-2-OXOOCTYL]PHOSPHONIC ACID

$$$$
