793
     RDKit          3D

 14 14  0  0  0  0  0  0  0  0999 V2000
    1.0665   -0.1497   -0.1161 I   0  0  0  0  0  0  0  0  0  0  0  0
    3.1756    2.1124    1.7008 Cl  0  0  0  0  0  0  0  0  0  0  0  0
    8.2334    3.7389    4.7226 Cl  0  0  0  0  0  0  0  0  0  0  0  0
    5.3088    5.1760    4.9323 Cl  0  0  0  0  0  0  0  0  0  0  0  0
    6.3739    0.4662    1.4233 O   0  0  0  0  0  0  0  0  0  0  0  0
    5.9962    1.6270    2.0882 C   0  0  0  0  0  0  0  0  0  0  0  0
    4.7745    2.3235    2.2469 C   0  0  0  0  0  0  0  0  0  0  0  0
    7.0557    2.1209    2.8903 C   0  0  0  0  0  0  0  0  0  0  0  0
    6.8937    3.2214    3.7692 C   0  0  0  0  0  0  0  0  0  0  0  0
    4.6405    3.4253    3.1007 C   0  0  0  0  0  0  0  0  0  0  0  0
    5.6786    3.8696    3.8770 C   0  0  0  0  0  0  0  0  0  0  0  0
    5.9761    0.0747    0.0664 C   0  0  0  0  0  0  0  0  0  0  0  0
    4.4561    0.0747    0.0664 C   0  0  0  0  0  0  0  0  0  0  0  0
    3.1522    0.0747    0.0664 C   0  0  0  0  0  0  0  0  0  0  0  0
  1 14  1  0
  2  7  1  0
  3  9  1  0
  4 11  1  0
  5  6  1  0
  5 12  1  0
  6  7  2  0
  6  8  1  0
  7 10  1  0
  8  9  2  0
  9 11  1  0
 10 11  2  0
 12 13  1  0
 13 14  3  0
M  END
>  <DRUGBANK_ID>  (1) 
DB00793

>  <SECONDARY_ACCESSION_NUMBERS>  (1) 
APRD01011

>  <COMMON_NAME>  (1) 
Haloprogin

>  <CAS_NUMBER>  (1) 
777-11-7

>  <UNII>  (1) 
AIU7053OWL

>  <SYNONYMS>  (1) 
Haloprogin; Haloprogina; Haloprogine; Haloproginum

$$$$
