
     RDKit          3D

 11  8  0  0  0  0  0  0  0  0999 V2000
    1.0210    0.0623    0.0753 Cl  0  0  0  0  0  0  0  0  0  0  0  0
    1.0793    0.0023   -0.0609 O   0  0  0  0  0  0  0  0  0  0  0  0
    2.4993    0.0023   -0.0609 C   0  0  0  0  0  0  0  0  0  0  0  0
    3.1347   -0.6474    0.8275 O   0  0  0  0  0  0  0  0  0  0  0  0
    3.2593    0.7793   -1.1234 C   0  0  0  0  0  0  0  0  0  0  0  0
    2.8921    0.2481   -2.4994 C   0  0  1  0  0  0  0  0  0  0  0  0
    1.3977    0.4120   -2.7236 C   0  0  0  0  0  0  0  0  0  0  0  0
    0.9244    1.2023   -3.8043 O   0  0  0  0  0  0  0  0  0  0  0  0
    0.5718   -0.1582   -1.9439 O   0  0  0  0  0  0  0  0  0  0  0  0
    3.6271    0.9996   -3.5270 N   0  0  0  0  0  0  0  0  0  0  0  0
    1.0734   -0.0678    0.0033 Mg  0  0  0  0  0 15  0  0  0  0  0  0
  3  2  1  0
  3  4  2  0
  5  3  1  0
  6  5  1  0
  6 10  1  6
  7  6  1  0
  7  9  2  0
  8  7  1  0
M  CHG  3   2  -1   8  -1  11   2
M  END
>  <DRUGBANK_ID>  (1) 
DB16619

>  <COMMON_NAME>  (1) 
Magnesium aspartate hydrochloride

>  <CAS_NUMBER>  (1) 
28184-71-6

>  <UNII>  (1) 
5LK942W2PC

$$$$
