
     RDKit          3D

 17 17  0  0  0  0  0  0  0  0999 V2000
   -0.2975   -1.0110    0.0032 C   0  0  0  0  0  0  0  0  0  0  0  0
    0.9758    4.8469    2.2797 O   0  0  0  0  0  0  0  0  0  0  0  0
    0.7211    4.3090    1.2035 C   0  0  0  0  0  0  0  0  0  0  0  0
    1.1898    4.7198   -0.0034 O   0  0  0  0  0  0  0  0  0  0  0  0
    1.9060    5.9623   -0.2452 C   0  0  0  0  0  0  0  0  0  0  0  0
    1.1749    7.1804    0.3287 C   0  0  0  0  0  0  0  0  0  0  0  0
    3.2866    5.7470    0.3384 C   0  0  0  0  0  0  0  0  0  0  0  0
    2.0522    6.2114   -1.7726 C   0  0  0  0  0  0  0  0  0  0  0  0
   -0.1655    3.2621    1.1557 N   0  0  0  0  0  0  0  0  0  0  0  0
   -0.7064    2.5262   -0.0030 C   0  0  1  0  0  0  0  0  0  0  0  0
   -0.3850    3.1946   -1.3516 C   0  0  0  0  0  0  0  0  0  0  0  0
   -0.8634    2.4353   -2.5757 C   0  0  0  0  0  0  0  0  0  0  0  0
   -0.9976    4.6110   -1.4260 C   0  0  0  0  0  0  0  0  0  0  0  0
   -0.2006    1.1102    0.0504 C   0  0  0  0  0  0  0  0  0  0  0  0
   -1.1181    0.0804    0.0287 O   0  0  0  0  0  0  0  0  0  0  0  0
    0.9770   -0.7045    0.0086 N   0  0  0  0  0  0  0  0  0  0  0  0
    1.0419    0.6716    0.0410 N   0  0  0  0  0  0  0  0  0  0  0  0
  1 15  1  0
  1 16  2  0
  3  2  2  0
  3  9  1  0
  3  4  1  0
  5  4  1  0
  5  6  1  0
  5  7  1  0
  5  8  1  0
 10  9  1  1
 11 10  1  0
 11 12  1  0
 11 13  1  0
 14 10  1  0
 14 15  1  0
 14 17  2  0
 17 16  1  0
M  END
>  <DRUGBANK_ID>  (1) 
DB08337

>  <COMMON_NAME>  (1) 
2-Methyl-2-propanyl [(1S)-2-methyl-1-(1,3,4-oxadiazol-2-yl)propyl]carbamate

$$$$
