IID
     RDKit          3D

 30 33  0  0  0  0  0  0  0  0999 V2000
    2.1480   -0.7009    0.0007 C   0  0  0  0  0  0  0  0  0  0  0  0
    0.9360   -1.4071    0.0126 C   0  0  0  0  0  0  0  0  0  0  0  0
   -0.2517   -0.6582    0.0385 C   0  0  0  0  0  0  0  0  0  0  0  0
   -0.2174    0.7439    0.0355 C   0  0  0  0  0  0  0  0  0  0  0  0
    1.0037    1.4223    0.0114 C   0  0  0  0  0  0  0  0  0  0  0  0
    2.1825    0.6913    0.0027 C   0  0  0  0  0  0  0  0  0  0  0  0
   -1.5911   -1.0210    0.0745 N   0  0  0  0  0  0  0  0  0  0  0  0
   -2.3532    0.1566   -0.0418 C   0  0  0  0  0  0  0  0  0  0  0  0
   -1.5300    1.2351    0.0380 C   0  0  0  0  0  0  0  0  0  0  0  0
   -3.7484    0.1280   -0.2880 C   0  0  0  0  0  0  0  0  0  0  0  0
   -4.5589    1.2202   -0.0145 N   0  0  0  0  0  0  0  0  0  0  0  0
   -6.0515    1.2320   -0.0464 C   0  0  0  0  0  0  0  0  0  0  0  0
   -6.7344   -0.1263    0.1031 C   0  0  0  0  0  0  0  0  0  0  0  0
   -2.1186   -2.4184    0.1177 C   0  0  0  0  0  0  0  0  0  0  0  0
   -2.9222   -2.7700    1.3746 C   0  0  0  0  0  0  0  0  0  0  0  0
   -4.0839   -2.0944    1.7701 C   0  0  0  0  0  0  0  0  0  0  0  0
   -4.8788   -2.3919    2.8597 C   0  0  0  0  0  0  0  0  0  0  0  0
   -4.3541   -3.2402    3.7858 C   0  0  0  0  0  0  0  0  0  0  0  0
   -3.1833   -3.9352    3.4782 C   0  0  0  0  0  0  0  0  0  0  0  0
   -2.5466   -3.7994    2.2244 C   0  0  0  0  0  0  0  0  0  0  0  0
   -6.6567   -0.9515   -1.1681 C   0  0  0  0  0  0  0  0  0  0  0  0
   -2.7221   -4.6904    4.5185 O   0  0  0  0  0  0  0  0  0  0  0  0
   -4.1309   -0.9365   -0.6783 O   0  0  0  0  0  0  0  0  0  0  0  0
   -1.5092   -5.3716    4.2617 C   0  0  0  0  0  0  0  0  0  0  0  0
   -6.6127    1.9039   -1.3004 C   0  0  0  0  0  0  0  0  0  0  0  0
   -6.3807    1.0245   -2.5228 C   0  0  0  0  0  0  0  0  0  0  0  0
   -7.0491   -0.2950   -2.4154 N   0  0  0  0  0  0  0  0  0  0  0  0
   -6.6220   -1.1734   -3.5589 C   0  0  0  0  0  0  0  0  0  0  0  0
   -5.0923   -1.3306   -3.7906 C   0  0  0  0  0  0  0  0  0  0  0  0
   -7.2295   -2.5787   -3.4004 C   0  0  0  0  0  0  0  0  0  0  0  0
  1  2  2  0
  1  6  1  0
  2  3  1  0
  3  4  2  0
  3  7  1  0
  4  5  1  0
  4  9  1  0
  5  6  2  0
  7  8  1  0
  7 14  1  0
  8  9  2  0
  8 10  1  0
 10 11  1  0
 10 23  2  0
 11 12  1  0
 12 13  1  0
 12 25  1  0
 13 21  1  0
 14 15  1  0
 15 16  2  0
 15 20  1  0
 16 17  1  0
 17 18  2  0
 18 19  1  0
 19 20  2  0
 19 22  1  0
 21 27  1  0
 22 24  1  0
 25 26  1  0
 26 27  1  0
 27 28  1  0
 28 29  1  0
 28 30  1  0
M  END
>  <DRUGBANK_ID>  (1) 
DB07973

>  <COMMON_NAME>  (1) 
N-(1-ISOPROPYLPIPERIDIN-4-YL)-1-(3-METHOXYBENZYL)-1H-INDOLE-2-CARBOXAMIDE

$$$$
