B72
     RDKit          3D

 24 25  0  0  0  0  0  0  0  0999 V2000
    0.8273   -0.0505    0.1522 O   0  0  0  0  0  0  0  0  0  0  0  0
    0.2656    1.1660   -0.0041 C   0  0  0  0  0  0  0  0  0  0  0  0
    0.9689    2.1679   -0.0780 O   0  0  0  0  0  0  0  0  0  0  0  0
   -1.2410    1.1149   -0.2140 C   0  0  0  0  0  0  0  0  0  0  0  0
   -1.7692    0.2674   -1.2308 O   0  0  0  0  0  0  0  0  0  0  0  0
   -1.4218    0.5844   -2.5169 C   0  0  0  0  0  0  0  0  0  0  0  0
   -0.1352    0.9381   -2.9081 C   0  0  0  0  0  0  0  0  0  0  0  0
    0.1996    1.2052   -4.2343 C   0  0  0  0  0  0  0  0  0  0  0  0
    1.6389    1.5719   -4.5246 C   0  0  0  0  0  0  0  0  0  0  0  0
   -0.7830    1.0143   -5.2327 C   0  0  0  0  0  0  0  0  0  0  0  0
   -2.1003    0.6476   -4.8539 C   0  0  0  0  0  0  0  0  0  0  0  0
   -2.4011    0.4374   -3.4945 C   0  0  0  0  0  0  0  0  0  0  0  0
   -3.1886    0.4402   -5.8738 C   0  0  0  0  0  0  0  0  0  0  0  0
   -0.3611    1.0520   -6.6939 C   0  0  0  0  0  0  0  0  0  0  0  0
    0.6287   -0.0395   -7.0854 C   0  0  0  0  0  0  0  0  0  0  0  0
    1.2277   -0.0072   -8.3468 C   0  0  0  0  0  0  0  0  0  0  0  0
    2.2140   -0.9507   -8.7040 C   0  0  0  0  0  0  0  0  0  0  0  0
    2.8113   -0.9553  -10.0950 C   0  0  0  0  0  0  0  0  0  0  0  0
    3.5772    0.3359  -10.3668 C   0  0  0  0  0  0  0  0  0  0  0  0
    1.7273   -1.1957  -11.1447 C   0  0  0  0  0  0  0  0  0  0  0  0
    2.6330   -1.8899   -7.7538 C   0  0  0  0  0  0  0  0  0  0  0  0
    3.6197   -2.7789   -8.0707 O   0  0  0  0  0  0  0  0  0  0  0  0
    2.0559   -1.9362   -6.4980 C   0  0  0  0  0  0  0  0  0  0  0  0
    1.0225   -1.0592   -6.1978 C   0  0  0  0  0  0  0  0  0  0  0  0
  2  3  2  0
  2  1  1  0
  4  2  1  0
  5  4  1  0
  6  5  1  0
  7  6  2  0
  8  7  1  0
  9  8  1  0
 10 11  1  0
 10  8  2  0
 11 12  2  0
 12  6  1  0
 13 11  1  0
 14 10  1  0
 15 24  1  0
 15 14  1  0
 16 15  2  0
 17 21  2  0
 17 16  1  0
 18 17  1  0
 18 20  1  0
 19 18  1  0
 21 23  1  0
 22 21  1  0
 23 24  2  0
M  END
>  <DRUGBANK_ID>  (1) 
DB07425

>  <SECONDARY_ACCESSION_NUMBERS>  (1) 
DB06018

>  <COMMON_NAME>  (1) 
Sobetirome

>  <CAS_NUMBER>  (1) 
211110-63-3

>  <UNII>  (1) 
XQ31741E9Q

>  <SYNONYMS>  (1) 
Sobetirome

$$$$
