FIL
     RDKit          3D

 21 22  0  0  0  0  0  0  0  0999 V2000
    1.0323   -0.0612   -0.0334 O   0  0  0  0  0  0  0  0  0  0  0  0
    2.2494   -0.0687   -0.0882 C   0  0  0  0  0  0  0  0  0  0  0  0
    2.9983    0.1395    1.0365 N   0  0  0  0  0  0  0  0  0  0  0  0
    2.9325   -0.2867   -1.2709 O   0  0  0  0  0  0  0  0  0  0  0  0
    4.3366   -0.2306   -1.1549 N   0  0  0  0  0  0  0  0  0  0  0  0
    4.9177   -0.4184   -2.3119 C   0  0  0  0  0  0  0  0  0  0  0  0
    4.2069   -0.7036   -3.6248 C   0  0  0  0  0  0  0  0  0  0  0  0
    6.4088   -0.4715   -2.3440 C   0  0  0  0  0  0  0  0  0  0  0  0
    7.0082   -1.1921   -1.3078 C   0  0  0  0  0  0  0  0  0  0  0  0
    8.3770   -1.3760   -1.2761 C   0  0  0  0  0  0  0  0  0  0  0  0
    9.1642   -0.8651   -2.2881 C   0  0  0  0  0  0  0  0  0  0  0  0
   10.4961   -1.0943   -2.2734 O   0  0  0  0  0  0  0  0  0  0  0  0
   11.2214   -1.5196   -1.1429 C   0  0  0  0  0  0  0  0  0  0  0  0
    8.5845   -0.1728   -3.3788 C   0  0  0  0  0  0  0  0  0  0  0  0
    7.1960    0.0707   -3.3712 C   0  0  0  0  0  0  0  0  0  0  0  0
    9.2383    0.2715   -4.5086 O   0  0  0  0  0  0  0  0  0  0  0  0
   10.6129   -0.0611   -4.7449 C   0  0  0  0  0  0  0  0  0  0  0  0
   10.9539   -1.5653   -4.7847 C   0  0  0  0  0  0  0  0  0  0  0  0
   12.4059   -1.6537   -4.3129 C   0  0  0  0  0  0  0  0  0  0  0  0
   12.8291   -0.2594   -3.8105 C   0  0  0  0  0  0  0  0  0  0  0  0
   11.5979    0.6425   -3.8000 C   0  0  0  0  0  0  0  0  0  0  0  0
  1  2  2  0
  2  3  1  0
  2  4  1  0
  4  5  1  0
  5  6  2  0
  6  7  1  0
  6  8  1  0
  8  9  2  0
  8 15  1  0
  9 10  1  0
 10 11  2  0
 11 12  1  0
 11 14  1  0
 12 13  1  0
 14 15  2  0
 14 16  1  0
 16 17  1  0
 17 18  1  0
 17 21  1  0
 18 19  1  0
 19 20  1  0
 20 21  1  0
M  END
>  <DRUGBANK_ID>  (1) 
DB02660

>  <SECONDARY_ACCESSION_NUMBERS>  (1) 
EXPT01434

>  <COMMON_NAME>  (1) 
Filaminast

>  <CAS_NUMBER>  (1) 
141184-34-1

>  <UNII>  (1) 
CDD69JC61J

>  <SYNONYMS>  (1) 
Filaminast

$$$$
