
     RDKit          3D

 41 45  0  0  0  0  0  0  0  0999 V2000
    0.2878    0.4897    0.0882 C   0  0  0  0  0  0  0  0  0  0  0  0
    0.1120    0.3587   -1.3155 O   0  0  0  0  0  0  0  0  0  0  0  0
    0.7643    1.2082   -2.1455 C   0  0  0  0  0  0  0  0  0  0  0  0
   -0.1444    1.7148   -3.0181 N   0  0  0  0  0  0  0  0  0  0  0  0
    0.2522    2.6053   -3.9443 C   0  0  0  0  0  0  0  0  0  0  0  0
    1.5327    3.1308   -4.0309 C   0  0  0  0  0  0  0  0  0  0  0  0
    2.4799    2.5697   -3.1397 C   0  0  0  0  0  0  0  0  0  0  0  0
    2.1414    1.5320   -2.2103 C   0  0  0  0  0  0  0  0  0  0  0  0
    3.3005    0.8176   -1.6000 N   0  0  0  0  0  0  0  0  0  0  0  0
    3.0938   -0.4472   -0.5101 S   0  0  0  0  0  0  0  0  0  0  0  0
    4.2717   -1.7005   -0.7386 C   0  0  0  0  0  0  0  0  0  0  0  0
    3.3445    0.1029    0.8227 O   0  0  0  0  0  0  0  0  0  0  0  0
    1.9287   -1.2066   -0.8421 O   0  0  0  0  0  0  0  0  0  0  0  0
    1.8049    4.2429   -4.9819 C   0  0  0  0  0  0  0  0  0  0  0  0
    1.0985    5.4678   -4.8792 C   0  0  0  0  0  0  0  0  0  0  0  0
    0.1509    5.7918   -3.8592 C   0  0  0  0  0  0  0  0  0  0  0  0
   -0.4114    7.0521   -3.7556 C   0  0  0  0  0  0  0  0  0  0  0  0
   -1.3034    7.3098   -2.7915 F   0  0  0  0  0  0  0  0  0  0  0  0
   -0.0220    8.0451   -4.6201 C   0  0  0  0  0  0  0  0  0  0  0  0
    0.8927    7.7415   -5.6548 C   0  0  0  0  0  0  0  0  0  0  0  0
    1.3830    8.9362   -6.4757 C   0  0  0  0  0  0  0  0  0  0  0  0
    2.7871    9.3413   -6.2588 N   0  0  0  0  0  0  0  0  0  0  0  0
    3.0703    9.7033   -4.8682 C   0  0  0  0  0  0  0  0  0  0  0  0
    4.5486   10.0526   -4.6757 C   0  0  0  0  0  0  0  0  0  0  0  0
    5.4818    8.9201   -5.1362 C   0  0  0  0  0  0  0  0  0  0  0  0
    5.1293    8.6172   -6.5838 C   0  0  0  0  0  0  0  0  0  0  0  0
    3.6813    8.2716   -6.6706 C   0  0  0  0  0  0  0  0  0  0  0  0
    6.9779    9.2513   -5.0684 C   0  0  0  0  0  0  0  0  0  0  0  0
    7.3600    9.6860   -3.6620 C   0  0  0  0  0  0  0  0  0  0  0  0
    7.8498    8.0528   -5.4883 C   0  0  0  0  0  0  0  0  0  0  0  0
    7.2111   10.3301   -5.9738 O   0  0  0  0  0  0  0  0  0  0  0  0
    1.4137    6.4135   -5.8509 C   0  0  0  0  0  0  0  0  0  0  0  0
    2.2602    6.0663   -6.8710 N   0  0  0  0  0  0  0  0  0  0  0  0
    2.9865    4.9308   -6.8576 C   0  0  0  0  0  0  0  0  0  0  0  0
    2.7610    3.9927   -5.9277 N   0  0  0  0  0  0  0  0  0  0  0  0
    3.9921    4.7535   -7.7858 N   0  0  0  0  0  0  0  0  0  0  0  0
    5.2755    5.4597   -7.8245 C   0  0  0  0  0  0  0  0  0  0  0  0
    5.4604    6.2182   -9.1663 C   0  0  0  0  0  0  0  0  0  0  0  0
    5.3613    5.2865  -10.2634 O   0  0  0  0  0  0  0  0  0  0  0  0
    4.0751    4.6339  -10.2321 C   0  0  0  0  0  0  0  0  0  0  0  0
    3.8391    3.8535   -8.9145 C   0  0  0  0  0  0  0  0  0  0  0  0
  1  2  1  0
  2  3  1  0
  3  4  2  0
  3  8  1  0
  4  5  1  0
  5  6  2  0
  6  7  1  0
  6 14  1  0
  7  8  2  0
  8  9  1  0
  9 10  1  0
 10 11  1  0
 10 12  2  0
 10 13  2  0
 14 15  1  0
 14 35  2  0
 15 16  2  0
 15 32  1  0
 16 17  1  0
 17 18  1  0
 17 19  2  0
 19 20  1  0
 20 21  1  0
 20 32  2  0
 21 22  1  0
 22 23  1  0
 22 27  1  0
 23 24  1  0
 24 25  1  0
 25 26  1  0
 25 28  1  0
 26 27  1  0
 28 29  1  0
 28 30  1  0
 28 31  1  0
 32 33  1  0
 33 34  2  0
 34 35  1  0
 34 36  1  0
 36 37  1  0
 36 41  1  0
 37 38  1  0
 38 39  1  0
 39 40  1  0
 40 41  1  0
M  END
>  <DRUGBANK_ID>  (1) 
DB17235

>  <COMMON_NAME>  (1) 
Linperlisib

>  <CAS_NUMBER>  (1) 
1702816-75-8

>  <UNII>  (1) 
05HYK3CV9N

>  <SYNONYMS>  (1) 
Methanesulfonamide, n-(5-(6-fluoro-8-((4-(1-hydroxy-1-methylethyl)-1-piperidinyl)methyl)-2-(4-morpholinyl)-4-quinazolinyl)-2-methoxy-3-pyridinyl)-; N-(5-(6-fluoro-8-((4-(2-hydroxypropan-2-yl) piperidin-1-yl)methyl)-2-morpholinoquinazolin-4-yl)-2-methoxypyridin-3-)methanesulfonamide; N-[5-(6-fluoro-8-{[4-(2-hydroxypropan-2-yl) piperidin-1-yl]methyl}-2-morpholinoquinazolin-4-yl)-2-methoxypyridin-3-]methanesulfonamide; N-[5-(6-fluoro-8-{[4-(2-hydroxypropan-2-yl)piperidin-1-yl]methyl}-2-morpholinoquinazolin-4-yl)-2-methoxypyridin-3-yl]methanesulfonamide; Pi3k.delta.-in-2

$$$$
