
     RDKit          3D

 33 35  0  0  0  0  0  0  0  0999 V2000
    1.0336    0.0843   -0.0419 P   0  0  2  0  0  0  0  0  0  0  0  0
    2.6647   -1.2656    1.8285 P   0  0  2  0  0  0  0  0  0  0  0  0
    3.6051    0.1710   -0.4149 P   0  0  0  0  0  0  0  0  0  0  0  0
   -0.0629    2.4774   -1.8466 O   0  0  0  0  0  0  0  0  0  0  0  0
   -1.6733    3.6871   -4.8626 O   0  0  0  0  0  0  0  0  0  0  0  0
   -2.2574    1.2596   -3.9950 O   0  0  0  0  0  0  0  0  0  0  0  0
    0.8688   -0.6989   -1.4647 O   0  0  0  0  0  0  0  0  0  0  0  0
    1.0942    8.8868   -0.5205 O   0  0  0  0  0  0  0  0  0  0  0  0
    1.0336   -0.9281    1.3609 O   0  0  0  0  0  0  0  0  0  0  0  0
   -0.6964    0.0843   -0.0419 O   0  0  0  0  0  0  0  0  0  0  0  0
    2.5820    0.0843   -0.0419 O   0  0  0  0  0  0  0  0  0  0  0  0
    3.1523    0.2904    1.2505 O   0  0  0  0  0  0  0  0  0  0  0  0
    2.1205   -0.8459    3.3251 O   0  0  0  0  0  0  0  0  0  0  0  0
    4.1245   -1.5676    2.2470 O   0  0  0  0  0  0  0  0  0  0  0  0
    3.4775   -1.5846   -0.5206 O   0  0  0  0  0  0  0  0  0  0  0  0
    2.8357    1.7672   -0.9202 O   0  0  0  0  0  0  0  0  0  0  0  0
    4.0103    0.0642   -1.9055 O   0  0  0  0  0  0  0  0  0  0  0  0
   -0.0660    4.8404   -2.3738 N   0  0  0  0  0  0  0  0  0  0  0  0
    1.6473    6.1706   -1.6966 N   0  0  0  0  0  0  0  0  0  0  0  0
   -1.8752    6.5190   -1.7513 N   0  0  0  0  0  0  0  0  0  0  0  0
   -1.1574    8.6008   -0.8845 N   0  0  0  0  0  0  0  0  0  0  0  0
   -3.3757    8.1971   -1.2741 N   0  0  0  0  0  0  0  0  0  0  0  0
   -0.7052    3.5555   -2.5866 C   0  0  1  0  0  0  0  0  0  0  0  0
   -0.6651    3.0916   -4.0477 C   0  0  1  0  0  0  0  0  0  0  0  0
   -0.8547    1.5863   -3.9320 C   0  0  1  0  0  0  0  0  0  0  0  0
   -0.3174    1.2261   -2.5573 C   0  0  1  0  0  0  0  0  0  0  0  0
    1.3993    4.9786   -2.5026 C   0  0  0  0  0  0  0  0  0  0  0  0
   -0.6014    6.0412   -1.8708 C   0  0  0  0  0  0  0  0  0  0  0  0
    0.8867    0.2497   -2.5952 C   0  0  0  0  0  0  0  0  0  0  0  0
    0.4307    6.8133   -1.4661 C   0  0  0  0  0  0  0  0  0  0  0  0
    2.9132    6.4378   -1.0616 C   0  0  0  0  0  0  0  0  0  0  0  0
    0.1573    8.1736   -0.9113 C   0  0  0  0  0  0  0  0  0  0  0  0
   -2.0865    7.7908   -1.3006 C   0  0  0  0  0  0  0  0  0  0  0  0
  1  7  1  0
  1  9  1  0
  1 10  1  1
  1 11  2  0
  2  9  1  0
  2 12  1  0
  2 13  1  1
  2 14  2  0
  3 12  1  0
  3 15  1  0
  3 16  1  0
  3 17  2  0
  4 23  1  0
  4 26  1  0
  7 29  1  0
  8 32  2  0
 18 27  1  0
 18 28  1  0
 19 27  1  0
 19 30  1  0
 19 31  1  0
 20 28  1  0
 20 33  1  0
 21 32  1  0
 21 33  2  0
 22 33  1  0
 23 24  1  0
 23 18  1  6
 24  5  1  6
 24 25  1  0
 25  6  1  1
 25 26  1  0
 26 29  1  6
 28 30  2  0
 30 32  1  0
M  END
>  <DRUGBANK_ID>  (1) 
DB03358

>  <SECONDARY_ACCESSION_NUMBERS>  (1) 
EXPT02169

>  <COMMON_NAME>  (1) 
7-Methyl-7,8-dihydroguanosine 5'-(tetrahydrogen triphosphate)

$$$$
