
     RDKit          3D

 11 11  0  0  0  0  0  0  0  0999 V2000
    1.8349    0.7783    0.0101 C   0  0  0  0  0  0  0  0  0  0  0  0
    0.5684    1.3780    0.0078 C   0  0  0  0  0  0  0  0  0  0  0  0
    1.9131   -0.6197   -0.0058 C   0  0  0  0  0  0  0  0  0  0  0  0
    3.0945    1.6211    0.0375 C   0  0  0  0  0  0  0  0  0  0  0  0
   -0.5876    0.6050    0.0006 C   0  0  0  0  0  0  0  0  0  0  0  0
    0.7482   -1.3938   -0.0105 C   0  0  0  0  0  0  0  0  0  0  0  0
    3.1860    2.5084   -1.2060 C   0  0  0  0  0  0  0  0  0  0  0  0
    3.1551    2.4651    1.3135 C   0  0  0  0  0  0  0  0  0  0  0  0
   -0.5180   -0.7909   -0.0027 C   0  0  0  0  0  0  0  0  0  0  0  0
   -1.7672    1.2929   -0.0001 O   0  0  0  0  0  0  0  0  0  0  0  0
   -1.7512   -1.6419    0.0036 C   0  0  0  0  0  0  0  0  0  0  0  0
  1  2  2  0
  1  3  1  0
  1  4  1  0
  2  5  1  0
  3  6  2  0
  4  7  1  0
  4  8  1  0
  5  9  2  0
  5 10  1  0
  6  9  1  0
  9 11  1  0
M  END
>  <DRUGBANK_ID>  (1) 
DB16404

>  <COMMON_NAME>  (1) 
Carvacrol

>  <CAS_NUMBER>  (1) 
499-75-2

>  <UNII>  (1) 
9B1J4V995Q

>  <SYNONYMS>  (1) 
5-Isopropyl-o-cresol; p-Cymen-2-ol

$$$$
