
     RDKit          3D

 22 23  0  0  0  0  0  0  0  0999 V2000
    1.0290   -0.2049   -0.0657 C   0  0  0  0  0  0  0  0  0  0  0  0
   -0.9661    4.3104   -0.5009 C   0  0  0  0  0  0  0  0  0  0  0  0
   -0.8283    5.8756    1.5450 C   0  0  0  0  0  0  0  0  0  0  0  0
    0.4627    1.0576   -0.7017 C   0  0  2  0  0  0  0  0  0  0  0  0
   -1.1984    5.4672    0.0777 C   0  0  0  0  0  0  0  0  0  0  0  0
   -0.7213    3.6687   -1.8141 C   0  0  1  0  0  0  0  0  0  0  0  0
    1.4118    2.1838   -1.1543 C   0  0  2  0  0  0  0  0  0  0  0  0
   -1.5684    6.5389   -0.8436 C   0  0  2  0  0  0  0  0  0  0  0  0
   -1.2195    4.6732   -2.8479 C   0  0  1  0  0  0  0  0  0  0  0  0
    2.2222    2.8186    0.0251 C   0  0  1  0  0  0  0  0  0  0  0  0
   -1.8038    6.0341   -2.3039 C   0  0  1  0  0  0  0  0  0  0  0  0
    1.3004    3.4500    1.0321 C   0  0  2  0  0  0  0  0  0  0  0  0
    0.0289    2.3507    1.3447 C   0  0  2  0  0  0  0  0  0  0  0  0
    0.7090    3.2119   -2.0381 N   0  0  0  0  0  0  0  0  0  0  0  0
   -1.2414    4.9258    2.5124 O   0  0  0  0  0  0  0  0  0  0  0  0
   -0.5333    7.5093   -0.7812 O   0  0  0  0  0  0  0  0  0  0  0  0
   -0.2320    4.9029   -3.8586 O   0  0  0  0  0  0  0  0  0  0  0  0
    3.1572    1.9883    0.6889 O   0  0  0  0  0  0  0  0  0  0  0  0
   -3.2215    5.9865   -2.5400 O   0  0  0  0  0  0  0  0  0  0  0  0
    1.2996    4.8008    0.4892 O   0  0  0  0  0  0  0  0  0  0  0  0
    0.3761    1.4546    2.3681 O   0  0  0  0  0  0  0  0  0  0  0  0
   -0.4934    1.5765    0.2166 O   0  0  0  0  0  0  0  0  0  0  0  0
  4  1  1  1
  4 22  1  0
  5  2  2  0
  5  3  1  0
  6  2  1  0
  6 14  1  6
  7  4  1  0
  7 10  1  0
  7 14  1  1
  8  5  1  0
  9  6  1  0
  9 11  1  0
  9 17  1  6
 10 12  1  0
 10 18  1  1
 11  8  1  0
 11 19  1  1
 12 13  1  0
 12 20  1  6
 13 21  1  1
 13 22  1  0
 15  3  1  0
  8 16  1  6
M  END
>  <DRUGBANK_ID>  (1) 
DB03269

>  <SECONDARY_ACCESSION_NUMBERS>  (1) 
EXPT00449

>  <COMMON_NAME>  (1) 
4,6-Dideoxy-4-{[4,5,6-trihydroxy-3-(hydroxymethyl)-2-cyclohexen-1-yl]amino}hexopyranose

$$$$
