
     RDKit          3D

 19 20  0  0  0  0  0  0  0  0999 V2000
    1.4011   -0.2058    0.0105 C   0  0  0  0  0  0  0  0  0  0  0  0
    0.5578   -1.3166   -0.0018 C   0  0  0  0  0  0  0  0  0  0  0  0
    0.8685    1.0804    0.0020 C   0  0  0  0  0  0  0  0  0  0  0  0
   -0.8301   -1.1566   -0.0190 C   0  0  0  0  0  0  0  0  0  0  0  0
   -0.5217    1.2451    0.0076 C   0  0  0  0  0  0  0  0  0  0  0  0
   -1.3846    0.1345   -0.0414 C   0  0  0  0  0  0  0  0  0  0  0  0
    2.8534   -0.4283    0.1831 C   0  0  0  0  0  0  0  0  0  0  0  0
    3.4554    0.0875    1.2093 N   0  0  0  0  0  0  0  0  0  0  0  0
    3.5070   -1.2846   -0.8341 C   0  0  0  0  0  0  0  0  0  0  0  0
    4.7796   -0.2196    1.3575 N   0  0  0  0  0  0  0  0  0  0  0  0
    4.8009   -1.5592   -0.6492 C   0  0  0  0  0  0  0  0  0  0  0  0
    5.5143   -1.0191    0.5226 C   0  0  0  0  0  0  0  0  0  0  0  0
    6.7010   -1.2819    0.7084 O   0  0  0  0  0  0  0  0  0  0  0  0
   -1.6829   -2.2159    0.0245 O   0  0  0  0  0  0  0  0  0  0  0  0
   -2.7141    0.4676   -0.1069 O   0  0  0  0  0  0  0  0  0  0  0  0
   -1.1659   -3.5292    0.0976 C   0  0  0  0  0  0  0  0  0  0  0  0
   -3.6931   -0.5528   -0.3012 C   0  0  0  0  0  0  0  0  0  0  0  0
   -3.4151   -1.2933   -1.4026 F   0  0  0  0  0  0  0  0  0  0  0  0
   -3.7716   -1.3470    0.7934 F   0  0  0  0  0  0  0  0  0  0  0  0
  1  7  1  0
  2  1  2  0
  3  1  1  0
  4  2  1  0
  4 14  1  0
  5  3  2  0
  6  4  2  0
  6  5  1  0
  6 15  1  0
  8  7  2  0
  9  7  1  0
 10  8  1  0
 11  9  2  0
 12 10  1  0
 12 11  1  0
 12 13  2  0
 14 16  1  0
 15 17  1  0
 17 18  1  0
 17 19  1  0
M  END
>  <DRUGBANK_ID>  (1) 
DB02918

>  <SECONDARY_ACCESSION_NUMBERS>  (1) 
EXPT03284

>  <COMMON_NAME>  (1) 
Zardaverine

>  <CAS_NUMBER>  (1) 
101975-10-4

>  <UNII>  (1) 
TQ358GWH6Y

>  <SYNONYMS>  (1) 
6-(4-(Difluoromethoxy)-3-methoxyphenyl)-3(2H)-pyridazinone; zardaverina; Zardaverine

$$$$
