
     RDKit          3D

 21 22  0  0  0  0  0  0  0  0999 V2000
    1.0391   -0.0877   -0.0190 C   0  0  0  0  0  0  0  0  0  0  0  0
    0.5698   -0.4313    1.2895 O   0  0  0  0  0  0  0  0  0  0  0  0
    0.9244   -1.7024    1.6736 C   0  0  0  0  0  0  0  0  0  0  0  0
    2.2597   -2.1199    1.6109 C   0  0  0  0  0  0  0  0  0  0  0  0
    2.6170   -3.4065    2.0102 C   0  0  0  0  0  0  0  0  0  0  0  0
    1.6406   -4.2774    2.4793 C   0  0  0  0  0  0  0  0  0  0  0  0
    0.3110   -3.8632    2.5774 C   0  0  0  0  0  0  0  0  0  0  0  0
   -0.0632   -2.5533    2.2146 C   0  0  0  0  0  0  0  0  0  0  0  0
   -1.4709   -2.1080    2.4102 C   0  0  0  0  0  0  0  0  0  0  0  0
   -2.1544   -1.7528    1.3099 C   0  0  0  0  0  0  0  0  0  0  0  0
   -3.5399   -1.2930    1.4191 C   0  0  0  0  0  0  0  0  0  0  0  0
   -4.1751   -0.9268    0.4343 O   0  0  0  0  0  0  0  0  0  0  0  0
   -4.0677   -1.3202    2.6688 N   0  0  0  0  0  0  0  0  0  0  0  0
   -3.4353   -1.7304    3.8098 C   0  0  0  0  0  0  0  0  0  0  0  0
   -4.3862   -1.7441    5.1909 S   0  0  0  0  0  0  0  0  0  0  0  0
   -2.0754   -2.0723    3.6798 N   0  0  0  0  0  0  0  0  0  0  0  0
   -1.3318   -2.4729    4.8972 C   0  0  0  0  0  0  0  0  0  0  0  0
   -1.2106   -1.3293    5.9023 C   0  0  0  0  0  0  0  0  0  0  0  0
   -1.5146   -1.4426    7.0859 O   0  0  0  0  0  0  0  0  0  0  0  0
   -0.6414   -0.1774    5.4431 N   0  0  0  0  0  0  0  0  0  0  0  0
    2.0847   -5.8649    2.9699 Cl  0  0  0  0  0  0  0  0  0  0  0  0
  1  2  1  0
  2  3  1  0
  3  4  2  0
  3  8  1  0
  4  5  1  0
  5  6  2  0
  6  7  1  0
  6 21  1  0
  7  8  2  0
  8  9  1  0
  9 10  2  0
  9 16  1  0
 10 11  1  0
 11 12  2  0
 11 13  1  0
 13 14  1  0
 14 15  2  0
 14 16  1  0
 16 17  1  0
 17 18  1  0
 18 19  2  0
 18 20  1  0
M  END
>  <DRUGBANK_ID>  (1) 
DB11683

>  <COMMON_NAME>  (1) 
PF-06282999

>  <CAS_NUMBER>  (1) 
1435467-37-0

>  <UNII>  (1) 
YO3O4Q2NC8

$$$$
