9913
     RDKit          3D

 22 23  0  0  1  0  0  0  0  0999 V2000
    0.7357   -0.2779    0.0462 O   0  0  0  0  0  0  0  0  0  0  0  0
    1.7872   -2.6227    4.5352 O   0  0  0  0  0  0  0  0  0  0  0  0
    6.3561   -3.1402    5.0775 O   0  0  0  0  0  0  0  0  0  0  0  0
    3.1197    3.9750   -0.3462 O   0  0  0  0  0  0  0  0  0  0  0  0
    2.4904   -0.6422    2.3831 N   0  0  0  0  0  0  0  0  0  0  0  0
    0.4034    2.7405    0.5563 N   0  0  0  0  0  0  0  0  0  0  0  0
    5.6261   -1.6637    3.4992 N   0  0  0  0  0  0  0  0  0  0  0  0
    4.0766   -2.8959    4.8293 N   0  0  0  0  0  0  0  0  0  0  0  0
    4.6301   -0.1914    1.8843 N   0  0  0  0  0  0  0  0  0  0  0  0
    0.3966    0.2813    1.3228 C   0  0  0  0  0  0  0  0  0  0  0  0
    1.0275   -0.6215    2.3809 C   0  0  0  0  0  0  0  0  0  0  0  0
    0.7864    1.7628    1.5763 C   0  0  0  0  0  0  0  0  0  0  0  0
    3.2668   -1.4017    3.2139 C   0  0  0  0  0  0  0  0  0  0  0  0
    4.5506   -1.0945    2.8810 C   0  0  0  0  0  0  0  0  0  0  0  0
    3.3780    0.0417    1.5824 C   0  0  0  0  0  0  0  0  0  0  0  0
    0.9751    4.0708    0.8751 C   0  0  0  0  0  0  0  0  0  0  0  0
    2.9368   -2.3420    4.2296 C   0  0  0  0  0  0  0  0  0  0  0  0
    5.4105   -2.5974    4.5006 C   0  0  0  0  0  0  0  0  0  0  0  0
    0.7272    2.3219   -0.8059 C   0  0  0  0  0  0  0  0  0  0  0  0
    2.5163    4.1945    0.9222 C   0  0  0  0  0  0  0  0  0  0  0  0
    6.9730   -1.3013    3.1056 C   0  0  0  0  0  0  0  0  0  0  0  0
    3.8547   -3.8614    5.8817 C   0  0  0  0  0  0  0  0  0  0  0  0
  1 10  1  0
  2 17  2  0
  3 18  2  0
  4 20  1  0
  5 11  1  0
  5 13  1  0
  5 15  1  0
  6 12  1  0
  6 16  1  0
  6 19  1  0
  7 14  1  0
  7 18  1  0
  7 21  1  0
  8 17  1  0
  8 18  1  0
  8 22  1  0
  9 14  1  0
  9 15  2  0
 10 11  1  0
 10 12  1  0
 13 14  2  0
 13 17  1  0
 16 20  1  0
M  END
>  <DRUGBANK_ID>  (1) 
DB09092

>  <COMMON_NAME>  (1) 
Xanthinol

>  <CAS_NUMBER>  (1) 
2530-97-4

>  <UNII>  (1) 
TN1B5910V2

>  <SYNONYMS>  (1) 
Xantinol

$$$$
