
     RDKit          3D

 41 44  0  0  0  0  0  0  0  0999 V2000
    1.1441   -0.0318    0.1206 C   0  0  0  0  0  0  0  0  0  0  0  0
    0.9826   -0.3830    1.5998 C   0  0  0  0  0  0  0  0  0  0  0  0
    1.1152    0.8146    2.5286 C   0  0  0  0  0  0  0  0  0  0  0  0
    0.4369    2.1497    2.0961 C   0  0  0  0  0  0  0  0  0  0  0  0
   -0.9734    2.3753    2.3026 O   0  0  0  0  0  0  0  0  0  0  0  0
   -1.7799    1.6523    1.4760 C   0  0  0  0  0  0  0  0  0  0  0  0
   -2.6890    2.3283    0.7360 N   0  0  0  0  0  0  0  0  0  0  0  0
   -3.2505    1.5601   -0.1634 C   0  0  0  0  0  0  0  0  0  0  0  0
   -2.8814    0.2347   -0.3129 C   0  0  0  0  0  0  0  0  0  0  0  0
   -3.6344   -0.1522   -1.4159 N   0  0  0  0  0  0  0  0  0  0  0  0
   -4.5622    0.6729   -1.7874 C   0  0  0  0  0  0  0  0  0  0  0  0
   -5.3245    0.0723   -2.4517 O   0  0  0  0  0  0  0  0  0  0  0  0
   -4.2802    1.8401   -1.1050 N   0  0  0  0  0  0  0  0  0  0  0  0
   -5.1547    2.9266   -1.1010 C   0  0  0  0  0  0  0  0  0  0  0  0
   -5.5923    3.1874   -2.5242 C   0  0  0  0  0  0  0  0  0  0  0  0
   -6.3611    2.0926   -3.2010 C   0  0  0  0  0  0  0  0  0  0  0  0
   -7.4475    1.5060   -2.4064 N   0  0  0  0  0  0  0  0  0  0  0  0
   -8.1945    0.8206   -3.4441 C   0  0  0  0  0  0  0  0  0  0  0  0
   -7.7696   -0.6174   -3.7532 C   0  0  0  0  0  0  0  0  0  0  0  0
   -8.0574   -1.4111   -2.5303 C   0  0  0  0  0  0  0  0  0  0  0  0
   -9.3605   -1.5064   -1.8099 N   0  0  0  0  0  0  0  0  0  0  0  0
  -10.0381   -2.7416   -2.1370 C   0  0  0  0  0  0  0  0  0  0  0  0
  -10.4569   -2.5787   -3.5844 C   0  0  0  0  0  0  0  0  0  0  0  0
  -11.4068   -1.4822   -3.7228 O   0  0  0  0  0  0  0  0  0  0  0  0
  -10.7999   -0.2804   -3.2566 C   0  0  0  0  0  0  0  0  0  0  0  0
  -10.3486   -0.4335   -1.8082 C   0  0  0  0  0  0  0  0  0  0  0  0
   -7.5834    1.0098   -0.8269 C   0  0  0  0  0  0  0  0  0  0  0  0
   -7.0278   -0.4524    0.0320 C   0  0  0  0  0  0  0  0  0  0  0  0
   -7.6544   -1.7326    0.1319 C   0  0  0  0  0  0  0  0  0  0  0  0
   -6.9970   -2.9747   -0.2122 C   0  0  0  0  0  0  0  0  0  0  0  0
   -5.6715   -3.0477   -0.4462 C   0  0  0  0  0  0  0  0  0  0  0  0
   -4.9719   -1.9080   -0.2293 C   0  0  0  0  0  0  0  0  0  0  0  0
   -3.4476   -2.3250   -0.5656 C   0  0  0  0  0  0  0  0  0  0  0  0
   -2.2186   -1.7055   -1.8959 C   0  0  0  0  0  0  0  0  0  0  0  0
   -1.2311   -0.9652   -1.7564 O   0  0  0  0  0  0  0  0  0  0  0  0
   -2.7250   -1.7256   -3.1769 O   0  0  0  0  0  0  0  0  0  0  0  0
   -2.1332   -0.6623   -4.0310 C   0  0  0  0  0  0  0  0  0  0  0  0
   -5.6739   -0.6470    0.2392 C   0  0  0  0  0  0  0  0  0  0  0  0
   -1.9756   -0.4326    0.5765 C   0  0  0  0  0  0  0  0  0  0  0  0
   -1.3396   -1.7265    0.5009 N   0  0  0  0  0  0  0  0  0  0  0  0
   -1.5596    0.3326    1.5437 N   0  0  0  0  0  0  0  0  0  0  0  0
  1  2  1  0
  2  3  1  0
  3  4  1  0
  4  5  1  0
  5  6  1  0
  6  7  2  0
  6 41  1  0
  7  8  1  0
  8  9  2  0
  8 13  1  0
  9 10  1  0
  9 39  1  0
 10 11  1  0
 11 12  2  0
 11 13  1  0
 13 14  1  0
 14 15  1  0
 15 16  1  0
 16 17  1  0
 17 18  1  0
 17 27  1  0
 18 19  1  0
 19 20  1  0
 20 21  1  0
 21 22  1  0
 21 26  1  0
 22 23  1  0
 23 24  1  0
 24 25  1  0
 25 26  1  0
 27 28  1  0
 28 29  2  0
 28 38  1  0
 29 30  1  0
 30 31  2  0
 31 32  1  0
 32 33  1  0
 32 38  2  0
 33 34  1  0
 34 35  2  0
 34 36  1  0
 36 37  1  0
 39 40  1  0
 39 41  2  0
M  END
>  <DRUGBANK_ID>  (1) 
DB14868

>  <COMMON_NAME>  (1) 
AZD-8848

>  <CAS_NUMBER>  (1) 
866269-28-5

>  <UNII>  (1) 
322ZMR6920

$$$$
