
     RDKit          3D

  9  9  0  0  0  0  0  0  0  0999 V2000
   -0.7172    1.1794    0.0012 C   0  0  0  0  0  0  0  0  0  0  0  0
   -1.4036    0.0294   -0.0010 C   0  0  0  0  0  0  0  0  0  0  0  0
    0.6583    1.1577    0.0012 N   0  0  0  0  0  0  0  0  0  0  0  0
   -1.3931    2.5155    0.0036 C   0  0  0  0  0  0  0  0  0  0  0  0
   -0.6759   -1.2533    0.0006 C   0  0  0  0  0  0  0  0  0  0  0  0
    1.3926    0.0035   -0.0015 C   0  0  0  0  0  0  0  0  0  0  0  0
    0.6887   -1.1658   -0.0000 N   0  0  0  0  0  0  0  0  0  0  0  0
   -1.2786   -2.3209    0.0027 O   0  0  0  0  0  0  0  0  0  0  0  0
    3.0544    0.0240   -0.0062 S   0  0  0  0  0  0  0  0  0  0  0  0
  1  2  2  0
  1  3  1  0
  1  4  1  0
  2  5  1  0
  3  6  1  0
  5  7  1  0
  5  8  2  0
  6  9  2  0
  6  7  1  0
M  END
>  <DRUGBANK_ID>  (1) 
DB13644

>  <COMMON_NAME>  (1) 
Methylthiouracil

>  <CAS_NUMBER>  (1) 
56-04-2

>  <UNII>  (1) 
QW24888U5F

>  <SYNONYMS>  (1) 
Methylthiouracil; Methylthiouracile; Methylthiouracilum; Metiltiouracilo

$$$$
