CLK
     RDKit          3D

 18 18  0  0  0  0  0  0  0  0999 V2000
   -1.2787   -1.2227   -1.5589 C   0  0  0  0  0  0  0  0  0  0  0  0
   -2.4011   -1.1065   -2.9014 Cl  0  0  0  0  0  0  0  0  0  0  0  0
   -1.2667   -1.4212    0.1715 Cl  0  0  0  0  0  0  0  0  0  0  0  0
   -0.3578   -0.1416   -1.9724 C   0  0  0  0  0  0  0  0  0  0  0  0
    0.6947   -0.4630   -2.5742 O   0  0  0  0  0  0  0  0  0  0  0  0
   -0.7543    1.1684   -1.9811 N   0  0  0  0  0  0  0  0  0  0  0  0
   -1.8633    2.0210   -1.3677 C   0  0  2  0  0  0  0  0  0  0  0  0
   -1.0891    3.1401   -0.6023 C   0  0  0  0  0  0  0  0  0  0  0  0
   -0.2301    3.8615   -1.4946 O   0  0  0  0  0  0  0  0  0  0  0  0
   -2.9814    1.4301   -0.3745 C   0  0  2  0  0  0  0  0  0  0  0  0
   -2.3136    0.9769    0.7914 O   0  0  0  0  0  0  0  0  0  0  0  0
   -4.1031    0.5043   -0.9260 C   0  0  0  0  0  0  0  0  0  0  0  0
   -4.2457   -0.8907   -0.7197 C   0  0  0  0  0  0  0  0  0  0  0  0
   -4.9243   -1.7080   -1.6592 C   0  0  0  0  0  0  0  0  0  0  0  0
   -5.7115   -1.1445   -2.6503 C   0  0  0  0  0  0  0  0  0  0  0  0
   -6.1502   -1.9085   -3.7356 N   0  0  0  0  0  0  0  0  0  0  0  0
   -5.7804    0.2486   -2.6937 C   0  0  0  0  0  0  0  0  0  0  0  0
   -4.9849    1.0597   -1.8601 C   0  0  0  0  0  0  0  0  0  0  0  0
  1  2  1  0
  1  3  1  0
  1  4  1  0
  4  5  2  0
  4  6  1  0
  7  8  1  1
  7  6  1  0
  8  9  1  0
 10 12  1  0
 10 11  1  1
 10  7  1  0
 12 13  2  0
 12 18  1  0
 13 14  1  0
 14 15  2  0
 15 16  1  0
 15 17  1  0
 17 18  2  0
M  END
>  <DRUGBANK_ID>  (1) 
DB04411

>  <SECONDARY_ACCESSION_NUMBERS>  (1) 
EXPT00940

>  <COMMON_NAME>  (1) 
Alpha-N-Dichloroacetyl-P-Aminophenylserinol

$$$$
