
     RDKit          3D

 36 40  0  0  1  0  0  0  0  0999 V2000
    0.4878    0.2463    0.0718 C   0  0  0  0  0  0  0  0  0  0  0  0
    0.1923    0.5783   -1.2687 O   0  0  0  0  0  0  0  0  0  0  0  0
    0.8049    1.7065   -1.6816 C   0  0  0  0  0  0  0  0  0  0  0  0
   -0.0201    2.6231   -2.1904 N   0  0  0  0  0  0  0  0  0  0  0  0
    0.7910    3.6527   -2.4771 N   0  0  0  0  0  0  0  0  0  0  0  0
    0.1983    4.8938   -2.9303 C   0  0  0  0  0  0  0  0  0  0  0  0
    2.1141    3.3933   -2.1986 C   0  0  0  0  0  0  0  0  0  0  0  0
    2.1795    2.0935   -1.7203 C   0  0  0  0  0  0  0  0  0  0  0  0
    3.3261    1.4292   -1.3540 N   0  0  0  0  0  0  0  0  0  0  0  0
    3.4371    0.1080   -0.8518 C   0  0  0  0  0  0  0  0  0  0  0  0
    3.8393   -0.0656    0.4259 N   0  0  0  0  0  0  0  0  0  0  0  0
    3.5227   -1.2485    1.0328 C   0  0  0  0  0  0  0  0  0  0  0  0
    2.9016   -2.2936    0.4222 C   0  0  0  0  0  0  0  0  0  0  0  0
    2.6084   -2.0527   -0.8754 C   0  0  0  0  0  0  0  0  0  0  0  0
    2.8861   -0.8981   -1.5370 N   0  0  0  0  0  0  0  0  0  0  0  0
    2.1424   -3.1745   -1.6276 C   0  0  0  0  0  0  0  0  0  0  0  0
    2.9991   -3.6282   -2.5738 C   0  0  0  0  0  0  0  0  0  0  0  0
    2.3033   -4.5645   -3.2368 N   0  0  0  0  0  0  0  0  0  0  0  0
    1.0512   -4.8689   -2.7483 C   0  0  0  0  0  0  0  0  0  0  0  0
   -0.0520   -5.6199   -3.2868 C   0  0  0  0  0  0  0  0  0  0  0  0
   -0.2015   -6.2659   -4.5727 N   0  0  0  0  0  0  0  0  0  0  0  0
    0.5439   -6.2828   -5.7636 C   0  0  0  0  0  0  0  0  0  0  0  0
    0.1968   -6.9707   -6.6982 O   0  0  0  0  0  0  0  0  0  0  0  0
    1.8254   -5.4525   -5.7990 C   0  0  1  0  0  0  0  0  0  0  0  0
    2.9985   -5.9307   -6.6421 C   0  0  0  0  0  0  0  0  0  0  0  0
    1.5832   -3.9558   -5.9523 N   0  0  0  0  0  0  0  0  0  0  0  0
    0.4337   -3.3104   -5.2616 C   0  0  0  0  0  0  0  0  0  0  0  0
    0.1365   -1.8381   -5.5941 C   0  0  0  0  0  0  0  0  0  0  0  0
    1.2999   -0.9417   -5.5042 N   0  0  0  0  0  0  0  0  0  0  0  0
    1.6256   -0.6713   -4.1067 C   0  0  0  0  0  0  0  0  0  0  0  0
    2.4540   -1.5381   -6.1953 C   0  0  0  0  0  0  0  0  0  0  0  0
    2.7519   -3.0380   -5.9370 C   0  0  0  0  0  0  0  0  0  0  0  0
   -1.1845   -5.6325   -2.4452 C   0  0  0  0  0  0  0  0  0  0  0  0
   -1.2350   -4.9032   -1.2470 C   0  0  0  0  0  0  0  0  0  0  0  0
   -0.1869   -4.0648   -0.8557 C   0  0  0  0  0  0  0  0  0  0  0  0
    0.9754   -4.0206   -1.6295 C   0  0  0  0  0  0  0  0  0  0  0  0
  1  2  1  0
  2  3  1  0
  3  4  2  0
  3  8  1  0
  4  5  1  0
  5  6  1  0
  5  7  1  0
  7  8  2  0
  8  9  1  0
  9 10  1  0
 10 11  2  0
 10 15  1  0
 11 12  1  0
 12 13  2  0
 13 14  1  0
 14 15  2  0
 14 16  1  0
 16 17  2  0
 16 36  1  0
 17 18  1  0
 18 19  1  0
 19 20  1  0
 19 36  2  0
 20 21  1  0
 20 33  2  0
 21 22  1  0
 22 23  2  0
 24 22  1  0
 24 25  1  6
 24 26  1  0
 26 27  1  0
 26 32  1  0
 27 28  1  0
 28 29  1  0
 29 30  1  0
 29 31  1  0
 31 32  1  0
 33 34  1  0
 34 35  2  0
 35 36  1  0
M  END
>  <DRUGBANK_ID>  (1) 
DB18057

>  <COMMON_NAME>  (1) 
Golidocitinib

>  <CAS_NUMBER>  (1) 
2091134-68-6

>  <UNII>  (1) 
3BY9Z3M34G

>  <SYNONYMS>  (1) 
(.alpha.r)-n-(3-(2-((3-methoxy-1-methyl-1h-pyrazol-4-yl)amino)-4-pyrimidinyl)-1h-indol-7-yl)-.alpha.,4-dimethyl-1-piperazineacetamide; 1-piperazineacetamide, n-(3-(2-((3-methoxy-1-methyl-1h-pyrazol-4-yl)amino)-4-pyrimidinyl)-1h-indol-7-yl)-.alpha.,4-dimethyl-, (.alpha.r)-

$$$$
