1031
     RDKit          3D

 12 12  0  0  0  0  0  0  0  0999 V2000
    1.1788   -0.0351   -0.0356 O   0  0  0  0  0  0  0  0  0  0  0  0
    3.0138   -0.1296   -1.3697 O   0  0  0  0  0  0  0  0  0  0  0  0
    3.4188    0.0500    0.8020 N   0  0  0  0  0  0  0  0  0  0  0  0
    0.3572   -0.1164    1.2004 C   0  0  0  0  0  0  0  0  0  0  0  0
   -0.6861   -1.2278    1.0914 C   0  0  0  0  0  0  0  0  0  0  0  0
   -0.2916    1.2501    1.4381 C   0  0  0  0  0  0  0  0  0  0  0  0
   -1.7387   -0.9030    0.0336 C   0  0  0  0  0  0  0  0  0  0  0  0
   -1.3109    1.5571    0.3475 C   0  0  0  0  0  0  0  0  0  0  0  0
   -2.3736    0.4636    0.2881 C   0  0  0  0  0  0  0  0  0  0  0  0
    1.3312   -0.4038    2.3314 C   0  0  0  0  0  0  0  0  0  0  0  0
    2.5402   -0.0484   -0.2367 C   0  0  0  0  0  0  0  0  0  0  0  0
    2.1667   -0.6502    3.3016 C   0  0  0  0  0  0  0  0  0  0  0  0
  1  4  1  0
  1 11  1  0
  2 11  2  0
  3 11  1  0
  4  5  1  0
  4  6  1  0
  4 10  1  0
  5  7  1  0
  6  8  1  0
  7  9  1  0
  8  9  1  0
 10 12  3  0
M  END
>  <DRUGBANK_ID>  (1) 
DB01031

>  <SECONDARY_ACCESSION_NUMBERS>  (1) 
APRD00959

>  <COMMON_NAME>  (1) 
Ethinamate

>  <CAS_NUMBER>  (1) 
126-52-3

>  <UNII>  (1) 
IAN371PP48

>  <SYNONYMS>  (1) 
1-ethynylcyclohexanol carbamate; Aethinyl-cyclohexyl-carbamat; Ethinamate; Ethinamatum; Etinamato

$$$$
