
     RDKit          3D

 31 34  0  0  0  0  0  0  0  0999 V2000
   -1.4467    0.8116    3.8773 N   0  0  0  0  0  0  0  0  0  0  0  0
   -2.4705    1.4921    3.3923 C   0  0  0  0  0  0  0  0  0  0  0  0
   -2.0259    2.4837    2.5747 N   0  0  0  0  0  0  0  0  0  0  0  0
   -0.7471    2.7105    2.9601 N   0  0  0  0  0  0  0  0  0  0  0  0
   -0.3849    1.5417    3.4705 C   0  0  0  0  0  0  0  0  0  0  0  0
   -2.7277    3.2605    1.5244 C   0  0  0  0  0  0  0  0  0  0  0  0
   -2.1154    4.6705    1.2290 C   0  0  2  0  0  0  0  0  0  0  0  0
   -2.6477    5.3788   -0.0436 C   0  0  0  0  0  0  0  0  0  0  0  0
   -4.0080    5.7198   -0.1455 C   0  0  0  0  0  0  0  0  0  0  0  0
   -1.8399    5.7377   -1.1591 C   0  0  0  0  0  0  0  0  0  0  0  0
   -4.5066    6.3100   -1.3140 C   0  0  0  0  0  0  0  0  0  0  0  0
   -2.3355    6.3547   -2.2978 C   0  0  0  0  0  0  0  0  0  0  0  0
   -3.6839    6.6201   -2.3908 C   0  0  0  0  0  0  0  0  0  0  0  0
   -0.5298    5.4823   -1.2510 F   0  0  0  0  0  0  0  0  0  0  0  0
   -0.5467    4.6298    1.1813 C   0  0  2  0  0  0  0  0  0  0  0  0
    0.0081    3.2318    0.5949 C   0  0  0  0  0  0  0  0  0  0  0  0
    0.0192    5.2688    2.4779 C   0  0  0  0  0  0  0  0  0  0  0  0
    1.6869    2.8609    0.7064 S   0  0  0  0  0  0  0  0  0  0  0  0
   -0.7134    2.1490    0.2271 N   0  0  0  0  0  0  0  0  0  0  0  0
    1.2980    1.1735    0.7941 C   0  0  0  0  0  0  0  0  0  0  0  0
   -0.0496    0.9467    0.6073 C   0  0  0  0  0  0  0  0  0  0  0  0
   -0.7271   -0.3784    0.9020 C   0  0  0  0  0  0  0  0  0  0  0  0
   -0.4470   -1.2424    2.0120 C   0  0  0  0  0  0  0  0  0  0  0  0
   -1.7176   -0.8308    0.0342 C   0  0  0  0  0  0  0  0  0  0  0  0
   -1.0759   -2.5029    2.1920 C   0  0  0  0  0  0  0  0  0  0  0  0
   -2.3041   -2.1090    0.1756 C   0  0  0  0  0  0  0  0  0  0  0  0
   -1.9893   -2.9497    1.2478 C   0  0  0  0  0  0  0  0  0  0  0  0
   -2.6220    5.4727    2.3415 O   0  0  0  0  0  0  0  0  0  0  0  0
   -2.6150   -4.2495    1.3722 C   0  0  0  0  0  0  0  0  0  0  0  0
   -3.1204   -5.2751    1.4616 N   0  0  0  0  0  0  0  0  0  0  0  0
   -5.8175    6.5595   -1.4149 F   0  0  0  0  0  0  0  0  0  0  0  0
  1  5  1  0
  2  1  2  0
  3  2  1  0
  3  4  1  0
  3  6  1  0
  5  4  2  0
  7 28  1  1
  7  8  1  0
  7  6  1  0
  9  8  2  0
 10  8  1  0
 10 14  1  0
 11  9  1  0
 11 31  1  0
 12 10  2  0
 13 11  2  0
 13 12  1  0
 15 17  1  1
 15 16  1  0
 15  7  1  0
 18 16  1  0
 19 16  2  0
 20 18  1  0
 21 19  1  0
 21 20  2  0
 21 22  1  0
 23 22  2  0
 24 22  1  0
 25 23  1  0
 26 24  2  0
 27 25  2  0
 27 26  1  0
 27 29  1  0
 29 30  3  0
M  END
>  <DRUGBANK_ID>  (1) 
DB11633

>  <COMMON_NAME>  (1) 
Isavuconazole

>  <CAS_NUMBER>  (1) 
241479-67-4

>  <UNII>  (1) 
60UTO373KE

>  <SYNONYMS>  (1) 
isavuconazol; Isavuconazole; isavuconazolum

$$$$
