
     RDKit          3D

 35 34  0  0  0  0  0  0  0  0999 V2000
    1.1398   -1.9351   -0.4593 S   0  0  0  0  0  0  0  0  0  0  0  0
    2.9834    1.3576   -0.5932 P   0  0  2  0  0  0  0  0  0  0  0  0
    1.7509    4.3985    2.0523 O   0  0  0  0  0  0  0  0  0  0  0  0
    1.7310    0.5121   -0.1220 O   0  0  0  0  0  0  0  0  0  0  0  0
    2.4068    1.5517   -2.2126 O   0  0  0  0  0  0  0  0  0  0  0  0
   -2.1547    2.5698    3.4439 O   0  0  0  0  0  0  0  0  0  0  0  0
    4.0937    0.4253   -1.3268 O   0  0  0  0  0  0  0  0  0  0  0  0
    3.4995    1.1839    0.8563 O   0  0  0  0  0  0  0  0  0  0  0  0
   -0.1414    2.4491    2.5540 N   0  0  0  0  0  0  0  0  0  0  0  0
   -3.5993    1.6449   -3.6931 C   0  0  0  0  0  0  0  0  0  0  0  0
   -2.3952    1.0506   -3.0516 C   0  0  0  0  0  0  0  0  0  0  0  0
   -3.2955    1.7482   -5.1997 C   0  0  0  0  0  0  0  0  0  0  0  0
   -1.2947    1.9969   -3.4387 C   0  0  0  0  0  0  0  0  0  0  0  0
   -2.9791    0.3516   -5.7608 C   0  0  0  0  0  0  0  0  0  0  0  0
   -1.4146    3.4353   -2.9331 C   0  0  0  0  0  0  0  0  0  0  0  0
   -4.1637   -0.5624   -5.4494 C   0  0  0  0  0  0  0  0  0  0  0  0
   -1.7135    3.5546   -1.4522 C   0  0  0  0  0  0  0  0  0  0  0  0
   -5.4291    0.0611   -6.0462 C   0  0  0  0  0  0  0  0  0  0  0  0
   -0.5014    3.1224   -0.7460 C   0  0  0  0  0  0  0  0  0  0  0  0
   -5.2548    0.2083   -7.5605 C   0  0  0  0  0  0  0  0  0  0  0  0
    0.8429    3.8564   -1.0654 C   0  0  0  0  0  0  0  0  0  0  0  0
   -5.0233   -1.1694   -8.1882 C   0  0  0  0  0  0  0  0  0  0  0  0
    1.0045    5.1533   -0.3133 C   0  0  0  0  0  0  0  0  0  0  0  0
   -6.2234   -2.0851   -7.9250 C   0  0  0  0  0  0  0  0  0  0  0  0
    0.8232    5.0575    1.2007 C   0  0  0  0  0  0  0  0  0  0  0  0
   -7.5091   -1.4866   -8.4968 C   0  0  0  0  0  0  0  0  0  0  0  0
    2.1341    3.0554    1.8116 C   0  0  0  0  0  0  0  0  0  0  0  0
    1.1066    1.8864    2.0343 C   0  0  2  0  0  0  0  0  0  0  0  0
   -7.3795   -1.2992   -9.9995 C   0  0  0  0  0  0  0  0  0  0  0  0
    0.8135    1.0894    0.7582 C   0  0  0  0  0  0  0  0  0  0  0  0
   -1.1725    1.9106    3.2406 C   0  0  0  0  0  0  0  0  0  0  0  0
   -0.9789    0.4939    3.6503 C   0  0  0  0  0  0  0  0  0  0  0  0
    1.2864    0.8348   -2.5116 C   0  0  0  0  0  0  0  0  0  0  0  0
    0.7507   -0.5572   -1.9321 C   0  0  0  0  0  0  0  0  0  0  0  0
    2.9436   -1.7030    0.1924 C   0  0  0  0  0  0  0  0  0  0  0  0
  1 34  1  0
  1 35  1  0
  2  4  1  0
  2  5  1  0
  2  7  1  6
  2  8  2  0
  3 25  1  0
  3 27  1  0
  4 30  1  0
  5 33  1  0
  6 31  2  0
  9 31  1  0
 10 11  1  0
 10 12  1  0
 11 13  1  0
 12 14  1  0
 13 15  1  0
 14 16  1  0
 15 17  1  0
 16 18  1  0
 17 19  1  0
 18 20  1  0
 19 21  1  0
 20 22  1  0
 21 23  1  0
 22 24  1  0
 23 25  1  0
 24 26  1  0
 26 29  1  0
 28 30  1  6
 28 27  1  0
 28  9  1  0
 31 32  1  0
 33 34  1  0
M  END
>  <DRUGBANK_ID>  (1) 
DB04112

>  <SECONDARY_ACCESSION_NUMBERS>  (1) 
EXPT01881

>  <COMMON_NAME>  (1) 
(2R)-2-Acetamido-3-(octadecyloxy)propyl 2-(methylsulfanyl)ethyl hydrogen phosphate

>  <SYNONYMS>  (1) 
1-Octadecyl-2-acetamido-2-deoxy-SN-glycerol-3-phosphoethylmethyl sulfide

$$$$
