
     RDKit          3D

 24 27  0  0  1  0  0  0  0  0999 V2000
   -0.3048   -1.0236    0.0352 N   0  0  0  0  0  0  0  0  0  0  0  0
    0.9436    0.8159    0.0539 N   0  0  0  0  0  0  0  0  0  0  0  0
   -0.6696   -2.4495    0.0037 C   0  0  0  0  0  0  0  0  0  0  0  0
   -0.2105   -3.0884   -1.3006 C   0  0  0  0  0  0  0  0  0  0  0  0
   -0.2416   -3.2106    1.2627 C   0  0  0  0  0  0  0  0  0  0  0  0
    1.1622   -3.2374   -1.5789 C   0  0  0  0  0  0  0  0  0  0  0  0
   -1.1425   -3.6487   -2.1816 C   0  0  0  0  0  0  0  0  0  0  0  0
    0.6721   -4.4312   -3.6014 C   0  0  0  0  0  0  0  0  0  0  0  0
   -0.5941   -2.7259    2.5310 C   0  0  0  0  0  0  0  0  0  0  0  0
    0.4093   -4.4613    1.1974 C   0  0  0  0  0  0  0  0  0  0  0  0
    1.6006   -3.9016   -2.7100 C   0  0  0  0  0  0  0  0  0  0  0  0
   -0.6982   -4.3372   -3.3077 C   0  0  0  0  0  0  0  0  0  0  0  0
   -1.1780    0.0355   -0.0007 C   0  0  0  0  0  0  0  0  0  0  0  0
    0.9577   -0.5017    0.0939 C   0  0  0  0  0  0  0  0  0  0  0  0
    1.1224   -4.9947   -4.8655 C   0  0  0  0  0  0  0  0  0  0  0  0
   -0.3145   -3.4710    3.6790 C   0  0  0  0  0  0  0  0  0  0  0  0
    0.6739   -5.2095    2.3391 C   0  0  0  0  0  0  0  0  0  0  0  0
   -0.3770    1.1569    0.0050 C   0  0  0  0  0  0  0  0  0  0  0  0
    0.3107   -4.7132    3.5815 C   0  0  0  0  0  0  0  0  0  0  0  0
    1.9831   -6.0972   -4.9166 C   0  0  0  0  0  0  0  0  0  0  0  0
    0.7085   -4.3905   -6.0615 C   0  0  0  0  0  0  0  0  0  0  0  0
    2.4031   -6.5978   -6.1474 C   0  0  0  0  0  0  0  0  0  0  0  0
    1.1004   -4.9098   -7.2888 C   0  0  0  0  0  0  0  0  0  0  0  0
    1.9556   -6.0077   -7.3299 C   0  0  0  0  0  0  0  0  0  0  0  0
  1  3  1  0
  1 13  1  0
  1 14  1  0
  2 14  2  0
  2 18  1  0
  3  4  1  0
  3  5  1  0
  4  6  2  0
  4  7  1  0
  5  9  2  0
  5 10  1  0
  6 11  1  0
  7 12  2  0
  8 11  2  0
  8 12  1  0
  8 15  1  0
  9 16  1  0
 10 17  2  0
 13 18  2  0
 15 20  2  0
 15 21  1  0
 16 19  2  0
 17 19  1  0
 20 22  1  0
 21 23  2  0
 22 24  2  0
 23 24  1  0
M  END
>  <DRUGBANK_ID>  (1) 
DB04794

>  <COMMON_NAME>  (1) 
Bifonazole

>  <CAS_NUMBER>  (1) 
60628-96-8

>  <UNII>  (1) 
QYJ305Z91O

>  <SYNONYMS>  (1) 
(+-)-1-(p,alpha-Diphenylbenzyl)imidazole; 1-((4-Biphenylyl)phenylmethyl)-1H-imidazole; 1-(alpha-(4-Biphenylyl)benzyl)imidazole; 1-(p,alpha-Diphenylbenzyl)imidazole; 1-[biphenyl-4-yl(phenyl)methyl]imidazole; Bifonazol; Bifonazole; Bifonazolum

$$$$
