
     RDKit          3D

 26 28  0  0  1  0  0  0  0  0999 V2000
    1.0736    0.0532   -0.3369 C   0  0  0  0  0  0  0  0  0  0  0  0
    0.6968   -1.4452   -0.4886 C   0  0  1  0  0  0  0  0  0  0  0  0
    1.4432   -2.2217    0.6991 C   0  0  1  0  0  0  0  0  0  0  0  0
    1.0671   -2.1012    2.1755 C   0  0  0  0  0  0  0  0  0  0  0  0
    0.7415   -3.1933    3.0049 C   0  0  0  0  0  0  0  0  0  0  0  0
    0.3768   -3.0063    4.3544 C   0  0  0  0  0  0  0  0  0  0  0  0
    0.3885   -1.7361    4.9218 C   0  0  0  0  0  0  0  0  0  0  0  0
    0.7370   -0.6574    4.1399 C   0  0  0  0  0  0  0  0  0  0  0  0
    1.0547   -0.8540    2.7992 C   0  0  0  0  0  0  0  0  0  0  0  0
    1.3432   -3.5808    0.3429 O   0  0  0  0  0  0  0  0  0  0  0  0
   -0.7112   -1.7070   -0.8831 N   0  0  0  0  0  0  0  0  0  0  0  0
   -1.5191   -2.9141   -0.9849 C   0  0  0  0  0  0  0  0  0  0  0  0
   -1.6292   -3.9133    0.1699 C   0  0  0  0  0  0  0  0  0  0  0  0
   -2.0026   -3.3754    1.4820 N   0  0  0  0  0  0  0  0  0  0  0  0
   -2.2408   -4.2854    2.5077 C   0  0  0  0  0  0  0  0  0  0  0  0
   -2.5785   -3.6898    3.6307 N   0  0  0  0  0  0  0  0  0  0  0  0
   -2.4702   -2.3480    3.3716 C   0  0  0  0  0  0  0  0  0  0  0  0
   -2.1105   -2.0952    2.0723 C   0  0  0  0  0  0  0  0  0  0  0  0
   -1.8541   -0.6950    1.7186 C   0  0  0  0  0  0  0  0  0  0  0  0
   -1.6638   -0.2378    0.6207 O   0  0  0  0  0  0  0  0  0  0  0  0
   -1.8406    0.2622    2.7251 N   0  0  0  0  0  0  0  0  0  0  0  0
   -2.2102   -0.0099    4.0123 C   0  0  0  0  0  0  0  0  0  0  0  0
   -2.1679    0.8879    4.8608 O   0  0  0  0  0  0  0  0  0  0  0  0
   -2.5690   -1.3278    4.3203 N   0  0  0  0  0  0  0  0  0  0  0  0
   -2.8455   -1.6089    5.7063 C   0  0  0  0  0  0  0  0  0  0  0  0
   -1.3386    1.6026    2.3455 C   0  0  0  0  0  0  0  0  0  0  0  0
  2  1  1  1
  2  3  1  0
  2 11  1  0
  3  4  1  0
  3 10  1  6
  4  5  2  0
  4  9  1  0
  5  6  1  0
  6  7  2  0
  7  8  1  0
  8  9  2  0
 11 12  1  0
 12 13  1  0
 13 14  1  0
 14 15  1  0
 14 18  1  0
 15 16  2  0
 16 17  1  0
 17 18  2  0
 17 24  1  0
 18 19  1  0
 19 20  2  0
 19 21  1  0
 21 22  1  0
 21 26  1  0
 22 23  2  0
 22 24  1  0
 24 25  1  0
M  END
>  <DRUGBANK_ID>  (1) 
DB12926

>  <COMMON_NAME>  (1) 
Cafedrine

>  <CAS_NUMBER>  (1) 
58166-83-9

>  <UNII>  (1) 
0UYY5V4U2Q

>  <SYNONYMS>  (1) 
Cafedrine

$$$$
