
     RDKit          3D

 22 25  0  0  1  0  0  0  0  0999 V2000
    7.4268    1.0601   -3.9464 Br  0  0  0  0  0  0  0  0  0  0  0  0
   10.4840   -1.6754    2.1489 O   0  0  0  0  0  0  0  0  0  0  0  0
    4.1512    0.7604   -1.4827 O   0  0  0  0  0  0  0  0  0  0  0  0
    8.2509    0.3066    0.2425 C   0  0  1  0  0  0  0  0  0  0  0  0
    9.2590   -1.2465   -0.2744 C   0  0  2  0  0  0  0  0  0  0  0  0
    8.2077    1.4327   -0.9521 C   0  0  1  0  0  0  0  0  0  0  0  0
    7.0059    2.7081   -1.1609 C   0  0  2  0  0  0  0  0  0  0  0  0
   10.5835   -0.2051   -0.1517 C   0  0  2  0  0  0  0  0  0  0  0  0
    5.7455    2.2766   -0.4413 C   0  0  2  0  0  0  0  0  0  0  0  0
    6.7087    0.2489    0.6674 C   0  0  0  0  0  0  0  0  0  0  0  0
    9.6289    1.9435   -1.2047 C   0  0  0  0  0  0  0  0  0  0  0  0
    5.9656    1.5667    0.8893 C   0  0  0  0  0  0  0  0  0  0  0  0
   10.5955    0.7520   -1.3732 C   0  0  0  0  0  0  0  0  0  0  0  0
   10.2412   -2.9108   -0.1954 C   0  0  0  0  0  0  0  0  0  0  0  0
    6.1700    3.0015   -2.6475 C   0  0  0  0  0  0  0  0  0  0  0  0
   11.8292   -1.0193    0.0201 C   0  0  0  0  0  0  0  0  0  0  0  0
    8.1746   -1.9380    0.6420 C   0  0  0  0  0  0  0  0  0  0  0  0
    5.1852    1.3449   -1.6144 C   0  0  0  0  0  0  0  0  0  0  0  0
    5.8167    1.6019   -3.0157 C   0  0  2  0  0  0  0  0  0  0  0  0
   11.6165   -3.1528    0.6711 C   0  0  0  0  0  0  0  0  0  0  0  0
   11.6674   -1.8678    1.3731 C   0  0  2  0  0  0  0  0  0  0  0  0
    4.8322    3.5068   -0.1453 C   0  0  0  0  0  0  0  0  0  0  0  0
  3 18  2  0
  4  5  1  0
  4  6  1  0
  4 10  1  6
  5  8  1  0
  5 14  1  0
  5 17  1  6
  6  7  1  0
  6 11  1  1
  7  9  1  0
  7 15  1  6
  8 13  1  6
  8 16  1  0
  9 12  1  0
  9 18  1  0
  9 22  1  1
 10 12  1  0
 11 13  1  0
 14 20  1  0
 15 19  1  0
 16 21  1  0
 18 19  1  0
 19  1  1  1
 20 21  1  0
 21  2  1  6
M  END
>  <DRUGBANK_ID>  (1) 
DB05107

>  <COMMON_NAME>  (1) 
16-Bromoepiandrosterone

>  <CAS_NUMBER>  (1) 
28507-02-0

>  <UNII>  (1) 
9735KA370S

>  <SYNONYMS>  (1) 
16alpha-bromoepiandrosterone

$$$$
