3EA
     RDKit          3D

 34 37  0  0  0  0  0  0  0  0999 V2000
    1.2624    0.2012   -0.1046 C   0  0  0  0  0  0  0  0  0  0  0  0
    0.5908   -0.2928   -1.3874 C   0  0  0  0  0  0  0  0  0  0  0  0
    0.9925   -1.7029   -1.6704 C   0  0  0  0  0  0  0  0  0  0  0  0
    0.4800   -2.6126   -0.6008 C   0  0  0  0  0  0  0  0  0  0  0  0
   -0.2751   -2.3315    0.5847 C   0  0  0  0  0  0  0  0  0  0  0  0
   -0.8797   -1.1638    0.9547 O   0  0  0  0  0  0  0  0  0  0  0  0
   -1.2560   -1.2116    2.2883 N   0  0  0  0  0  0  0  0  0  0  0  0
   -1.0390   -2.4732    2.6827 C   0  0  0  0  0  0  0  0  0  0  0  0
   -1.4463   -2.9961    4.0109 C   0  0  0  0  0  0  0  0  0  0  0  0
   -0.7641   -2.4257    5.0372 F   0  0  0  0  0  0  0  0  0  0  0  0
   -2.7690   -2.7939    4.2388 F   0  0  0  0  0  0  0  0  0  0  0  0
   -1.2489   -4.3420    4.1350 F   0  0  0  0  0  0  0  0  0  0  0  0
   -0.4645   -3.2077    1.6393 C   0  0  0  0  0  0  0  0  0  0  0  0
   -0.1203   -4.5072    1.4656 C   0  0  0  0  0  0  0  0  0  0  0  0
    0.3751   -4.7320    0.1945 C   0  0  0  0  0  0  0  0  0  0  0  0
    0.8823   -3.8991   -0.7519 C   0  0  0  0  0  0  0  0  0  0  0  0
    1.7946   -4.2452   -1.7268 O   0  0  0  0  0  0  0  0  0  0  0  0
    2.0028   -5.6282   -2.0208 C   0  0  0  0  0  0  0  0  0  0  0  0
    2.8618   -6.4987   -1.0931 C   0  0  0  0  0  0  0  0  0  0  0  0
    2.2053   -6.7864    0.2602 C   0  0  0  0  0  0  0  0  0  0  0  0
    0.9324   -7.6695    0.2659 O   0  0  0  0  0  0  0  0  0  0  0  0
   -0.2448   -7.5367   -0.5400 C   0  0  0  0  0  0  0  0  0  0  0  0
   -1.4837   -7.1156    0.0297 C   0  0  0  0  0  0  0  0  0  0  0  0
   -0.2079   -7.5729   -1.9340 C   0  0  0  0  0  0  0  0  0  0  0  0
   -1.1630   -6.8843   -2.7430 C   0  0  0  0  0  0  0  0  0  0  0  0
   -2.3903   -6.5378   -2.1773 C   0  0  0  0  0  0  0  0  0  0  0  0
   -2.5818   -6.6752   -0.7969 C   0  0  0  0  0  0  0  0  0  0  0  0
   -3.9418   -6.3144   -0.5550 C   0  0  0  0  0  0  0  0  0  0  0  0
   -4.5514   -6.0672   -1.7684 C   0  0  0  0  0  0  0  0  0  0  0  0
   -3.5898   -6.1317   -2.7492 N   0  0  0  0  0  0  0  0  0  0  0  0
   -3.8916   -5.9800   -4.1729 C   0  0  0  0  0  0  0  0  0  0  0  0
   -4.7804   -7.1004   -4.6955 C   0  0  0  0  0  0  0  0  0  0  0  0
   -5.9525   -6.6857   -5.2563 O   0  0  0  0  0  0  0  0  0  0  0  0
   -4.4857   -8.2682   -4.6626 O   0  0  0  0  0  0  0  0  0  0  0  0
  1  2  1  0
  2  3  1  0
  3  4  1  0
  4  5  2  0
  4 16  1  0
  5  6  1  0
  5 13  1  0
  6  7  1  0
  7  8  2  0
  8  9  1  0
  8 13  1  0
  9 10  1  0
  9 11  1  0
  9 12  1  0
 13 14  2  0
 14 15  1  0
 15 16  2  0
 16 17  1  0
 17 18  1  0
 18 19  1  0
 19 20  1  0
 20 21  1  0
 21 22  1  0
 22 23  2  0
 22 24  1  0
 23 27  1  0
 24 25  2  0
 25 26  1  0
 26 27  2  0
 26 30  1  0
 27 28  1  0
 28 29  2  0
 29 30  1  0
 30 31  1  0
 31 32  1  0
 32 33  1  0
 32 34  2  0
M  END
>  <DRUGBANK_ID>  (1) 
DB07053

>  <COMMON_NAME>  (1) 
2-{5-[3-(7-PROPYL-3-TRIFLUOROMETHYLBENZO[D]ISOXAZOL-6-YLOXY)PROPOXY]INDOL-1-YL}ETHANOIC ACID

$$$$
