
     RDKit          3D

 19 20  0  0  0  0  0  0  0  0999 V2000
    1.8255    1.5326    0.0057 C   0  0  0  0  0  0  0  0  0  0  0  0
    0.4105    1.6771    0.0396 C   0  0  0  0  0  0  0  0  0  0  0  0
   -0.3945    0.6049    0.3918 C   0  0  0  0  0  0  0  0  0  0  0  0
    0.2125   -0.5149    0.8997 C   0  0  0  0  0  0  0  0  0  0  0  0
    1.5981   -0.6102    0.9397 C   0  0  0  0  0  0  0  0  0  0  0  0
    2.4144    0.2985    0.3105 C   0  0  0  0  0  0  0  0  0  0  0  0
    3.7543   -0.0623    0.0178 N   0  0  0  0  0  0  0  0  0  0  0  0
    4.4189   -1.2743   -0.0087 C   0  0  0  0  0  0  0  0  0  0  0  0
    5.6416   -1.2585    0.0666 O   0  0  0  0  0  0  0  0  0  0  0  0
    3.8086   -2.5091   -0.0600 N   0  0  0  0  0  0  0  0  0  0  0  0
    2.5064   -2.9479   -0.4053 C   0  0  0  0  0  0  0  0  0  0  0  0
    1.7845   -2.3350   -1.4327 C   0  0  0  0  0  0  0  0  0  0  0  0
    0.3856   -2.4720   -1.5106 C   0  0  0  0  0  0  0  0  0  0  0  0
   -0.3057   -3.2364   -0.5554 C   0  0  0  0  0  0  0  0  0  0  0  0
    0.4178   -3.8671    0.4684 C   0  0  0  0  0  0  0  0  0  0  0  0
    1.8236   -3.7783    0.5113 C   0  0  0  0  0  0  0  0  0  0  0  0
   -2.0332   -3.1580   -0.3772 Cl  0  0  0  0  0  0  0  0  0  0  0  0
   -0.4343   -1.3726   -2.5746 Cl  0  0  0  0  0  0  0  0  0  0  0  0
   -2.1020    0.6150    0.2119 Cl  0  0  0  0  0  0  0  0  0  0  0  0
  1  2  2  0
  1  6  1  0
  2  3  1  0
  3  4  2  0
  3 19  1  0
  4  5  1  0
  5  6  2  0
  6  7  1  0
  7  8  1  0
  8  9  2  0
  8 10  1  0
 10 11  1  0
 11 12  2  0
 11 16  1  0
 12 13  1  0
 13 14  2  0
 13 18  1  0
 14 15  1  0
 14 17  1  0
 15 16  2  0
M  END
>  <DRUGBANK_ID>  (1) 
DB11155

>  <COMMON_NAME>  (1) 
Triclocarban

>  <CAS_NUMBER>  (1) 
101-20-2

>  <UNII>  (1) 
BGG1Y1ED0Y

>  <SYNONYMS>  (1) 
1-(3',4'-dichlorophenyl)-3-(4'-chlorophenyl)urea; 3,4,4'-trichloro carbanilide; 3,4,4'-trichlorocarbanilide; 3,4,4'-trichlorodiphenylurea; N-(4-chlorophenyl)-N'-(3,4-dichlorophenyl)urea; Triclocarban

$$$$
