
     RDKit          3D

 14 15  0  0  0  0  0  0  0  0999 V2000
    0.0274    0.7537   -0.2260 C   0  0  1  0  0  0  0  0  0  0  0  0
   -1.7257    1.3225    0.0931 C   0  0  0  0  0  0  0  0  0  0  0  0
    0.1482   -0.6571    0.1874 N   0  0  0  0  0  0  0  0  0  0  0  0
   -2.6003    0.2922    0.3073 N   0  0  0  0  0  0  0  0  0  0  0  0
   -2.2394   -0.9023   -0.3272 C   0  0  0  0  0  0  0  0  0  0  0  0
   -0.9495   -1.5121    0.1962 C   0  0  0  0  0  0  0  0  0  0  0  0
    1.5717    1.1804   -0.0493 C   0  0  0  0  0  0  0  0  0  0  0  0
    2.4747   -0.0441   -0.0143 C   0  0  0  0  0  0  0  0  0  0  0  0
    1.5185   -1.2191    0.0480 C   0  0  0  0  0  0  0  0  0  0  0  0
   -2.3280    2.4402    0.1408 O   0  0  0  0  0  0  0  0  0  0  0  0
   -0.8781   -2.7002    0.4695 O   0  0  0  0  0  0  0  0  0  0  0  0
   -0.3440    2.1023    0.0286 C   0  0  0  0  0  0  0  0  0  0  0  0
   -0.9821    2.1580   -1.7532 C   0  0  0  0  0  0  0  0  0  0  0  0
   -2.2566    1.8275   -2.2833 C   0  0  0  0  0  0  0  0  0  0  0  0
  1  2  1  0
  1  3  1  0
  1 12  1  1
  2  4  1  0
  2 10  2  0
  3  6  1  0
  4  5  1  0
  5  6  1  0
  6 11  2  0
  7  8  1  0
  7  1  1  0
  8  9  1  0
  9  3  1  0
 12 13  1  0
 13 14  2  0
M  END
>  <DRUGBANK_ID>  (1) 
DB15601

>  <COMMON_NAME>  (1) 
NNZ-2591

>  <CAS_NUMBER>  (1) 
847952-38-9

>  <UNII>  (1) 
2T1HU6069S

>  <SYNONYMS>  (1) 
Cyclo(-L-glycyl-L-2-allylproline); Pyrrolo(1,2-a)pyrazine-1,4-dione, hexahydro-8a-(2-propenyl)-, (8aR)-

$$$$
