N-acetylneuraminic acid.mol
     RDKit          3D

 21 21  0  0  0  0  0  0  0  0999 V2000
    0.6721   -0.0114    2.4930 C   0  0  0  0  0  0  0  0  0  0  0  0
    0.1605    0.5857    1.1243 C   0  0  1  0  0  0  0  0  0  0  0  0
    0.8539   -0.0542    0.0661 O   0  0  0  0  0  0  0  0  0  0  0  0
   -1.2335    0.4325    0.8834 O   0  0  0  0  0  0  0  0  0  0  0  0
   -1.6646    0.9802   -0.4100 C   0  0  1  0  0  0  0  0  0  0  0  0
   -3.1661    0.6211   -0.5633 C   0  0  2  0  0  0  0  0  0  0  0  0
   -3.3878    0.0669   -1.8840 O   0  0  0  0  0  0  0  0  0  0  0  0
   -4.2313    1.7120   -0.2947 C   0  0  2  0  0  0  0  0  0  0  0  0
   -4.4376    2.3773   -1.5482 O   0  0  0  0  0  0  0  0  0  0  0  0
   -4.0730    2.5523    1.0123 C   0  0  0  0  0  0  0  0  0  0  0  0
   -3.6756    1.7677    2.1248 O   0  0  0  0  0  0  0  0  0  0  0  0
   -1.3381    2.4912   -0.4816 C   0  0  2  0  0  0  0  0  0  0  0  0
   -1.7739    3.1958   -1.6956 N   0  0  0  0  0  0  0  0  0  0  0  0
    0.1367    2.7500   -0.1759 C   0  0  1  0  0  0  0  0  0  0  0  0
    0.2611    4.1748   -0.0574 O   0  0  0  0  0  0  0  0  0  0  0  0
    0.5025    2.0793    1.1483 C   0  0  0  0  0  0  0  0  0  0  0  0
    1.7943   -0.4395    2.6683 O   0  0  0  0  0  0  0  0  0  0  0  0
   -0.2536   -0.0038    3.4894 O   0  0  0  0  0  0  0  0  0  0  0  0
   -2.5689    4.3018   -1.8690 C   0  0  0  0  0  0  0  0  0  0  0  0
   -2.7836    4.7053   -3.0141 O   0  0  0  0  0  0  0  0  0  0  0  0
   -3.2861    4.9633   -0.7130 C   0  0  0  0  0  0  0  0  0  0  0  0
  1 17  2  0
  1 18  1  0
  2  4  1  0
  2 16  1  0
  2  3  1  6
  2  1  1  0
  5  4  1  1
  5 12  1  0
  5  6  1  0
  6  8  1  0
  6  7  1  6
  8 10  1  0
  8  9  1  6
 10 11  1  0
 12 13  1  6
 12 14  1  0
 13 19  1  0
 14 16  1  0
 14 15  1  1
 19 20  2  0
 19 21  1  0
M  END
>  <DRUGBANK_ID>  (1) 
DB04265

>  <SECONDARY_ACCESSION_NUMBERS>  (1) 
EXPT02915

>  <COMMON_NAME>  (1) 
N-acetyl-beta-neuraminic acid

>  <CAS_NUMBER>  (1) 
19342-33-7

>  <UNII>  (1) 
TIP79W5HPN

>  <SYNONYMS>  (1) 
(-)-N-acetyl-beta-neuraminic acid; beta-sialic acid; N-acetyl-beta-D-neuraminic acid; N-acetyl-β-neuraminic acid; β-Neu5Ac

$$$$
