
     RDKit          3D

 28 30  0  0  1  0  0  0  0  0999 V2000
    1.0481   -0.2304   -0.1639 O   0  0  0  0  0  0  0  0  0  0  0  0
    2.3619    2.4156    0.3508 N   0  0  0  0  0  0  0  0  0  0  0  0
   -3.6257   -4.1848    2.0853 C   0  0  0  0  0  0  0  0  0  0  0  0
   -2.1144   -4.5176    1.6902 C   0  0  0  0  0  0  0  0  0  0  0  0
   -4.4809   -3.4645    0.9369 C   0  0  0  0  0  0  0  0  0  0  0  0
   -4.3120   -5.3885    2.8034 C   0  0  0  0  0  0  0  0  0  0  0  0
   -1.2984   -3.2757    1.3466 C   0  0  0  0  0  0  0  0  0  0  0  0
   -1.9340   -5.6318    0.6264 C   0  0  0  0  0  0  0  0  0  0  0  0
   -4.6054   -4.0754   -0.4717 C   0  0  0  0  0  0  0  0  0  0  0  0
   -0.2176   -2.8484    2.1363 C   0  0  0  0  0  0  0  0  0  0  0  0
   -1.5490   -2.6022    0.1501 C   0  0  0  0  0  0  0  0  0  0  0  0
   -3.7754   -6.6961    2.7546 C   0  0  0  0  0  0  0  0  0  0  0  0
   -5.4939   -5.2597    3.5264 C   0  0  0  0  0  0  0  0  0  0  0  0
   -0.6863   -6.1116    0.2193 C   0  0  0  0  0  0  0  0  0  0  0  0
   -3.0392   -6.3306    0.1044 C   0  0  0  0  0  0  0  0  0  0  0  0
    0.6206   -1.8177    1.6843 C   0  0  0  0  0  0  0  0  0  0  0  0
   -0.7443   -1.5779   -0.2844 C   0  0  0  0  0  0  0  0  0  0  0  0
    0.3615   -1.2138    0.4559 C   0  0  0  0  0  0  0  0  0  0  0  0
   -4.5145   -7.8353    3.0195 C   0  0  0  0  0  0  0  0  0  0  0  0
   -6.1139   -6.4052    4.0618 C   0  0  0  0  0  0  0  0  0  0  0  0
   -0.6274   -7.1667   -0.7030 C   0  0  0  0  0  0  0  0  0  0  0  0
   -3.0139   -7.3453   -0.8106 C   0  0  0  0  0  0  0  0  0  0  0  0
   -5.6794   -7.6911    3.7279 C   0  0  0  0  0  0  0  0  0  0  0  0
   -1.7714   -7.7648   -1.2445 C   0  0  0  0  0  0  0  0  0  0  0  0
    2.4356   -0.1078    0.0747 C   0  0  0  0  0  0  0  0  0  0  0  0
    2.8486    1.2722   -0.4622 C   0  0  0  0  0  0  0  0  0  0  0  0
    2.8821    3.6677   -0.2002 C   0  0  0  0  0  0  0  0  0  0  0  0
    0.8945    2.4959    0.3827 C   0  0  0  0  0  0  0  0  0  0  0  0
  1 18  1  0
  1 25  1  0
  2 26  1  0
  2 27  1  0
  2 28  1  0
  3  4  1  0
  3  5  1  0
  3  6  1  0
  4  7  1  0
  4  8  1  0
  5  9  1  0
  6 12  2  0
  6 13  1  0
  7 10  2  0
  7 11  1  0
  8 14  2  0
  8 15  1  0
 10 16  1  0
 11 17  2  0
 12 19  1  0
 13 20  2  0
 14 21  1  0
 15 22  2  0
 16 18  2  0
 17 18  1  0
 19 23  2  0
 20 23  1  0
 21 24  2  0
 22 24  1  0
 25 26  1  0
M  END
>  <DRUGBANK_ID>  (1) 
DB05462

>  <COMMON_NAME>  (1) 
Chlorotoxin I-131

>  <UNII>  (1) 
544WOQ7W6W

>  <SYNONYMS>  (1) 
I(131)-TM-601 (chlorotoxin)

$$$$
