
     RDKit          3D

 39 43  0  0  0  0  0  0  0  0999 V2000
    0.9586    0.0176   -0.0378 C   0  0  0  0  0  0  0  0  0  0  0  0
    0.3804   -1.3019    0.4775 C   0  0  0  0  0  0  0  0  0  0  0  0
    1.0003   -1.7962    1.7112 N   0  0  0  0  0  0  0  0  0  0  0  0
    0.4912   -3.1196    2.1202 C   0  0  0  0  0  0  0  0  0  0  0  0
    0.7790   -4.3293    1.2226 C   0  0  0  0  0  0  0  0  0  0  0  0
    2.4602   -1.7007    1.7315 C   0  0  0  0  0  0  0  0  0  0  0  0
    3.2194   -2.5370    0.7143 C   0  0  0  0  0  0  0  0  0  0  0  0
    2.8370   -2.4744   -0.6854 N   0  0  0  0  0  0  0  0  0  0  0  0
    3.6471   -2.2459   -1.7518 C   0  0  0  0  0  0  0  0  0  0  0  0
    3.1586   -1.9870   -2.8485 O   0  0  0  0  0  0  0  0  0  0  0  0
    5.0665   -2.2844   -1.4762 C   0  0  0  0  0  0  0  0  0  0  0  0
    5.7496   -3.2758   -0.7688 C   0  0  0  0  0  0  0  0  0  0  0  0
    5.3245   -4.5813   -0.1670 C   0  0  0  0  0  0  0  0  0  0  0  0
    7.0519   -2.8521   -0.6735 N   0  0  0  0  0  0  0  0  0  0  0  0
    7.2428   -1.6914   -1.3899 C   0  0  0  0  0  0  0  0  0  0  0  0
    8.5527   -1.1647   -1.5537 C   0  0  0  0  0  0  0  0  0  0  0  0
    9.5108   -1.8327   -2.2194 C   0  0  0  0  0  0  0  0  0  0  0  0
    9.3101   -3.2108   -2.8312 C   0  0  0  0  0  0  0  0  0  0  0  0
    8.3726   -3.9639   -2.7775 O   0  0  0  0  0  0  0  0  0  0  0  0
   10.4987   -3.4882   -3.4716 N   0  0  0  0  0  0  0  0  0  0  0  0
   11.4168   -2.4642   -3.3263 C   0  0  0  0  0  0  0  0  0  0  0  0
   12.6943   -2.4733   -3.8461 C   0  0  0  0  0  0  0  0  0  0  0  0
   13.5030   -1.3723   -3.5768 C   0  0  0  0  0  0  0  0  0  0  0  0
   13.0217   -0.3024   -2.7878 C   0  0  0  0  0  0  0  0  0  0  0  0
   11.7003   -0.3208   -2.2770 C   0  0  0  0  0  0  0  0  0  0  0  0
   10.8908   -1.4139   -2.5593 C   0  0  0  0  0  0  0  0  0  0  0  0
   13.9112    0.8027   -2.4606 C   0  0  0  0  0  0  0  0  0  0  0  0
   14.5319    1.5912   -3.4093 C   0  0  0  0  0  0  0  0  0  0  0  0
   15.4767    2.7935   -2.6336 S   0  0  0  0  0  0  0  0  0  0  0  0
   15.0021    2.1668   -1.0951 C   0  0  0  0  0  0  0  0  0  0  0  0
   14.1995    1.1219   -1.1436 N   0  0  0  0  0  0  0  0  0  0  0  0
   15.5859    2.7386    0.1243 C   0  0  0  0  0  0  0  0  0  0  0  0
   16.3160    1.9123    0.9904 C   0  0  0  0  0  0  0  0  0  0  0  0
   16.9923    2.4506    2.0887 C   0  0  0  0  0  0  0  0  0  0  0  0
   16.9447    3.8215    2.3328 C   0  0  0  0  0  0  0  0  0  0  0  0
   16.2071    4.6516    1.4905 C   0  0  0  0  0  0  0  0  0  0  0  0
   15.4926    4.1073    0.4188 C   0  0  0  0  0  0  0  0  0  0  0  0
    6.0122   -1.2875   -1.8683 C   0  0  0  0  0  0  0  0  0  0  0  0
    5.7051   -0.0756   -2.6734 C   0  0  0  0  0  0  0  0  0  0  0  0
  1  2  1  0
  2  3  1  0
  3  4  1  0
  3  6  1  0
  4  5  1  0
  6  7  1  0
  7  8  1  0
  8  9  1  0
  9 10  2  0
  9 11  1  0
 11 12  2  0
 11 38  1  0
 12 13  1  0
 12 14  1  0
 14 15  1  0
 15 16  1  0
 15 38  2  0
 16 17  2  0
 17 18  1  0
 17 26  1  0
 18 19  2  0
 18 20  1  0
 20 21  1  0
 21 22  1  0
 21 26  2  0
 22 23  2  0
 23 24  1  0
 24 25  2  0
 24 27  1  0
 25 26  1  0
 27 28  2  0
 27 31  1  0
 28 29  1  0
 29 30  1  0
 30 31  2  0
 30 32  1  0
 32 33  2  0
 32 37  1  0
 33 34  1  0
 34 35  2  0
 35 36  1  0
 36 37  2  0
 38 39  1  0
M  END
>  <DRUGBANK_ID>  (1) 
DB14866

>  <COMMON_NAME>  (1) 
Amcasertib

>  <CAS_NUMBER>  (1) 
1129403-56-0

>  <UNII>  (1) 
GLY8ABW25V

>  <SYNONYMS>  (1) 
Amcasertib

$$$$
