D8W
     RDKit          3D

 19 20  0  0  0  0  0  0  0  0999 V2000
    1.2621   -0.2127    0.3177 C   0  0  0  0  0  0  0  0  0  0  0  0
    0.3988   -1.2904    0.1523 C   0  0  0  0  0  0  0  0  0  0  0  0
   -0.9532   -1.0534   -0.0198 C   0  0  0  0  0  0  0  0  0  0  0  0
   -1.4189    0.2618   -0.0297 C   0  0  0  0  0  0  0  0  0  0  0  0
   -0.5137    1.3357   -0.0152 C   0  0  0  0  0  0  0  0  0  0  0  0
    0.8620    1.0816    0.0455 C   0  0  0  0  0  0  0  0  0  0  0  0
    2.0269    2.3699   -0.3828 S   0  0  0  0  0  0  0  0  0  0  0  0
    1.5479    2.9414   -1.6270 O   0  0  0  0  0  0  0  0  0  0  0  0
    2.1381    3.2058    0.7956 O   0  0  0  0  0  0  0  0  0  0  0  0
    3.6095    1.8364   -0.7510 N   0  0  0  0  0  0  0  0  0  0  0  0
    4.0046    0.4812   -0.5890 C   0  0  0  0  0  0  0  0  0  0  0  0
    3.6015   -0.8263   -1.6517 S   0  0  0  0  0  0  0  0  0  0  0  0
    4.8604    0.1321    0.3497 N   0  0  0  0  0  0  0  0  0  0  0  0
    4.9787   -1.2534    0.4616 N   0  0  0  0  0  0  0  0  0  0  0  0
    4.2822   -1.8774   -0.4697 C   0  0  0  0  0  0  0  0  0  0  0  0
    4.0139   -3.6307   -0.5833 S   0  0  0  0  0  0  0  0  0  0  0  0
    5.1471   -4.1652   -1.2927 O   0  0  0  0  0  0  0  0  0  0  0  0
    3.6426   -4.0946    0.7411 O   0  0  0  0  0  0  0  0  0  0  0  0
    2.6738   -3.9815   -1.5650 N   0  0  0  0  0  0  0  0  0  0  0  0
  1  2  2  0
  1  6  1  0
  2  3  1  0
  3  4  2  0
  4  5  1  0
  5  6  2  0
  6  7  1  0
  7  8  2  0
  7  9  2  0
  7 10  1  0
 10 11  1  0
 11 12  1  0
 11 13  2  0
 12 15  1  0
 13 14  1  0
 14 15  2  0
 15 16  1  0
 16 17  2  0
 16 18  2  0
 16 19  1  0
M  END
>  <DRUGBANK_ID>  (1) 
DB07050

>  <COMMON_NAME>  (1) 
5-[(phenylsulfonyl)amino]-1,3,4-thiadiazole-2-sulfonamide

>  <UNII>  (1) 
FC5AAH89R5

$$$$
