
     RDKit          3D

 35 39  0  0  0  0  0  0  0  0999 V2000
    2.7875   -7.4705   -0.3392 C   0  0  0  0  0  0  0  0  0  0  0  0
    2.8769   -8.7402   -0.8641 C   0  0  0  0  0  0  0  0  0  0  0  0
    2.7119   -9.0190   -2.1952 N   0  0  0  0  0  0  0  0  0  0  0  0
    2.4962   -7.9756   -3.0092 C   0  0  0  0  0  0  0  0  0  0  0  0
    2.5804   -6.7233   -2.6168 N   0  0  0  0  0  0  0  0  0  0  0  0
    2.7750   -6.5334   -1.3112 C   0  0  0  0  0  0  0  0  0  0  0  0
    2.2146   -8.1372   -4.3272 N   0  0  0  0  0  0  0  0  0  0  0  0
    2.8355   -6.9970    1.0420 C   0  0  0  0  0  0  0  0  0  0  0  0
    3.3868   -7.7814    1.8713 O   0  0  0  0  0  0  0  0  0  0  0  0
    2.4096   -5.6563    1.4591 N   0  0  0  0  0  0  0  0  0  0  0  0
    2.1041   -4.3151    0.8571 C   0  0  0  0  0  0  0  0  0  0  0  0
    3.2240   -3.6514    1.0421 N   0  0  0  0  0  0  0  0  0  0  0  0
    1.1604   -4.1443   -2.5020 N   0  0  0  0  0  0  0  0  0  0  0  0
    1.7850   -3.8777   -1.3817 C   0  0  0  0  0  0  0  0  0  0  0  0
    1.0749   -4.0463   -0.2143 N   0  0  0  0  0  0  0  0  0  0  0  0
    0.0252   -2.8738   -0.7646 C   0  0  0  0  0  0  0  0  0  0  0  0
    0.0465   -3.1977   -2.3863 C   0  0  0  0  0  0  0  0  0  0  0  0
    3.5440   -2.7088    0.0524 C   0  0  0  0  0  0  0  0  0  0  0  0
    2.8403   -2.8164   -1.1701 C   0  0  0  0  0  0  0  0  0  0  0  0
    2.4983   -1.6204   -1.6986 C   0  0  0  0  0  0  0  0  0  0  0  0
    2.8862   -0.5117   -1.0077 C   0  0  0  0  0  0  0  0  0  0  0  0
    4.0951   -0.4481   -0.4396 C   0  0  0  0  0  0  0  0  0  0  0  0
    4.3816   -1.5669    0.2997 C   0  0  0  0  0  0  0  0  0  0  0  0
    5.3490   -1.5435    1.2802 O   0  0  0  0  0  0  0  0  0  0  0  0
    6.1224   -0.3215    1.3656 C   0  0  0  0  0  0  0  0  0  0  0  0
    4.9223    0.6129   -0.5285 O   0  0  0  0  0  0  0  0  0  0  0  0
    4.7291    1.7267   -1.3741 C   0  0  0  0  0  0  0  0  0  0  0  0
    4.7221    1.4364   -2.8889 C   0  0  0  0  0  0  0  0  0  0  0  0
    3.5214    0.6675   -3.4365 C   0  0  0  0  0  0  0  0  0  0  0  0
    2.1215    1.1467   -3.1316 N   0  0  0  0  0  0  0  0  0  0  0  0
    1.4770    1.6546   -4.3427 C   0  0  0  0  0  0  0  0  0  0  0  0
    2.1903    2.9528   -4.7340 C   0  0  0  0  0  0  0  0  0  0  0  0
    2.0528    3.9823   -3.7275 O   0  0  0  0  0  0  0  0  0  0  0  0
    2.5383    3.5454   -2.4674 C   0  0  0  0  0  0  0  0  0  0  0  0
    1.8812    2.2236   -2.1022 C   0  0  0  0  0  0  0  0  0  0  0  0
  1  2  2  0
  1  8  1  0
  2  3  1  0
  3  4  2  0
  4  5  1  0
  4  7  1  0
  5  6  2  0
  6  1  1  0
  8  9  2  0
  8 10  1  0
 10 11  1  0
 11 15  1  0
 11 12  2  0
 13 14  2  0
 14 19  1  0
 14 15  1  0
 15 16  1  0
 16 17  1  0
 17 13  1  0
 18 19  2  0
 18 12  1  0
 19 20  1  0
 20 21  2  0
 21 22  1  0
 22 23  2  0
 22 26  1  0
 23 18  1  0
 23 24  1  0
 24 25  1  0
 26 27  1  0
 27 28  1  0
 28 29  1  0
 29 30  1  0
 30 31  1  0
 30 35  1  0
 31 32  1  0
 32 33  1  0
 33 34  1  0
 34 35  1  0
M  END
>  <DRUGBANK_ID>  (1) 
DB12483

>  <COMMON_NAME>  (1) 
Copanlisib

>  <CAS_NUMBER>  (1) 
1032568-63-0

>  <UNII>  (1) 
WI6V529FZ9

>  <SYNONYMS>  (1) 
2-AMINO-N-(7-METHOXY-8-(3-(MORPHOLIN-4-YL)PROPOXY)-2,3-DIHYDROIMIDAZO(1,2-C)QUINAZOLIN-5-YL(PYRIMIDINE-5-CARBOXAMIDE; 2-AMINO-N-(7-METHOXY-8-(3-MORPHOLIN-4-YLPROPOXY)-2,3-DIHYDROIMIDAZO(1,2-C)QUINAZOLIN-5-YL)PYRIMIDINE-5-CARBOXAMIDE; 5-PYRIMIDINECARBOXAMIDE, 2-AMINO-N-(2,3-DIHYDRO-7-METHOXY-8-(3-(4-MORPHOLINYL)PROPOXY)IMIDAZO(1,2-C)QUINAZOLIN-5-YL)-; Copanlisib

$$$$
