
     RDKit          3D

 37 41  0  0  1  0  0  0  0  0999 V2000
   -4.8850    4.7155   -2.9358 C   0  0  0  0  0  0  0  0  0  0  0  0
   -4.3969    3.8134   -4.0134 C   0  0  0  0  0  0  0  0  0  0  0  0
   -4.3375    2.6000   -3.8581 O   0  0  0  0  0  0  0  0  0  0  0  0
   -4.0761    4.4103   -5.1808 O   0  0  0  0  0  0  0  0  0  0  0  0
   -3.2606    5.5919   -5.2905 C   0  0  1  0  0  0  0  0  0  0  0  0
   -3.8950    7.1190   -4.6540 C   0  0  0  0  0  0  0  0  0  0  0  0
   -3.7157    7.3659   -3.0513 C   0  0  0  0  0  0  0  0  0  0  0  0
   -2.2539    6.9147   -2.6734 C   0  0  2  0  0  0  0  0  0  0  0  0
   -1.9250    5.3211   -3.1465 C   0  0  1  0  0  0  0  0  0  0  0  0
   -1.7370    5.2101   -4.8014 C   0  0  0  0  0  0  0  0  0  0  0  0
   -0.8730    6.2224   -5.8287 C   0  0  0  0  0  0  0  0  0  0  0  0
   -0.8142    4.0038   -4.8922 C   0  0  0  0  0  0  0  0  0  0  0  0
   -0.8617    4.8057   -2.2518 C   0  0  0  0  0  0  0  0  0  0  0  0
   -1.3477    5.2406   -0.9406 C   0  0  0  0  0  0  0  0  0  0  0  0
   -1.4205    6.7015   -0.4381 C   0  0  2  0  0  0  0  0  0  0  0  0
   -1.4480    7.7156   -1.6177 C   0  0  1  0  0  0  0  0  0  0  0  0
    0.1610    8.6790   -2.0671 C   0  0  0  0  0  0  0  0  0  0  0  0
    0.4949    9.0932   -3.2075 O   0  0  0  0  0  0  0  0  0  0  0  0
    1.4253    8.7579   -1.1601 C   0  0  0  0  0  0  0  0  0  0  0  0
    0.9474    7.4840   -0.9039 C   0  0  0  0  0  0  0  0  0  0  0  0
   -0.1764    7.3080    0.2310 C   0  0  2  0  0  0  0  0  0  0  0  0
    0.2158    6.1855    1.3310 C   0  0  0  0  0  0  0  0  0  0  0  0
    0.8790    4.6426    0.7037 C   0  0  0  0  0  0  0  0  0  0  0  0
    1.6433    5.0551   -0.8466 C   0  0  2  0  0  0  0  0  0  0  0  0
    1.4445    6.3126   -1.8824 C   0  0  2  0  0  0  0  0  0  0  0  0
    2.6448    6.2047   -2.9094 C   0  0  0  0  0  0  0  0  0  0  0  0
    2.7459    4.8491   -3.7617 C   0  0  1  0  0  0  0  0  0  0  0  0
    3.1812    3.8424   -2.6448 C   0  0  0  0  0  0  0  0  0  0  0  0
    2.3319    3.8184   -1.3697 C   0  0  0  0  0  0  0  0  0  0  0  0
    2.2043    3.6616   -4.6197 C   0  0  0  0  0  0  0  0  0  0  0  0
    3.2942    5.5641   -5.0267 C   0  0  0  0  0  0  0  0  0  0  0  0
    4.4128    5.9831   -5.2522 O   0  0  0  0  0  0  0  0  0  0  0  0
    2.2697    5.8117   -5.9073 O   0  0  0  0  0  0  0  0  0  0  0  0
    2.6780    5.8086   -0.0684 C   0  0  0  0  0  0  0  0  0  0  0  0
   -0.6563    8.9136    0.6234 C   0  0  0  0  0  0  0  0  0  0  0  0
   -2.4966    6.3895    0.6964 C   0  0  0  0  0  0  0  0  0  0  0  0
   -1.4048    7.4832   -3.6807 C   0  0  0  0  0  0  0  0  0  0  0  0
  1  2  1  0
  2  3  2  0
  2  4  1  0
  5  6  1  0
  5 10  1  0
  5  4  1  1
  6  7  1  0
  7  8  1  0
  8  9  1  0
  8 16  1  0
  8 37  1  6
  9 10  1  0
  9 13  1  1
 10 11  1  0
 10 12  1  0
 13 14  1  0
 14 15  1  0
 15 16  1  0
 15 21  1  0
 15 36  1  1
 16 17  1  6
 17 19  1  0
 17 18  2  0
 19 20  2  0
 20 21  1  0
 21 22  1  0
 21 35  1  1
 22 23  1  0
 23 24  1  0
 24 25  1  0
 24 29  1  0
 24 34  1  1
 25 20  1  0
 25 26  1  1
 26 27  1  0
 27 28  1  0
 27 31  1  0
 27 30  1  6
 28 29  1  0
 31 32  2  0
 31 33  1  0
M  END
>  <DRUGBANK_ID>  (1) 
DB13640

>  <COMMON_NAME>  (1) 
Acetoxolone

>  <CAS_NUMBER>  (1) 
6277-14-1

>  <UNII>  (1) 
CWW961Q19K

$$$$
