
     RDKit          3D

 28 28  0  0  1  0  0  0  0  0999 V2000
    0.9349    0.0180   -0.1289 C   0  0  0  0  0  0  0  0  0  0  0  0
   -1.1005   -6.3999    4.2174 C   0  0  0  0  0  0  0  0  0  0  0  0
    2.2253   -3.9312    3.9404 C   0  0  0  0  0  0  0  0  0  0  0  0
    1.2342   -3.8459    2.8494 C   0  0  0  0  0  0  0  0  0  0  0  0
    2.0698   -2.9798    5.1920 C   0  0  0  0  0  0  0  0  0  0  0  0
    1.2011   -2.4731    2.3826 C   0  0  0  0  0  0  0  0  0  0  0  0
    1.1879   -3.2941    6.4222 C   0  0  0  0  0  0  0  0  0  0  0  0
   -1.2167   -2.7137    4.4221 C   0  0  0  0  0  0  0  0  0  0  0  0
   -1.6503   -2.8477    0.6244 C   0  0  0  0  0  0  0  0  0  0  0  0
   -0.7352   -0.8210    2.7264 C   0  0  0  0  0  0  0  0  0  0  0  0
    0.6011   -1.4706    0.0674 C   0  0  1  0  0  0  0  0  0  0  0  0
   -1.5505   -4.9730    3.8725 C   0  0  0  0  0  0  0  0  0  0  0  0
   -1.3102   -2.2708    3.0942 C   0  0  0  0  0  0  0  0  0  0  0  0
   -1.6946   -3.2277    2.1095 C   0  0  0  0  0  0  0  0  0  0  0  0
    1.6769   -1.8686    1.1672 C   0  0  0  0  0  0  0  0  0  0  0  0
    1.3076   -4.6940    6.9517 C   0  0  0  0  0  0  0  0  0  0  0  0
   -1.7671   -4.6008    2.5219 C   0  0  0  0  0  0  0  0  0  0  0  0
   -1.3731   -4.0103    4.8320 N   0  0  0  0  0  0  0  0  0  0  0  0
   -0.9080   -1.6418    0.2293 N   0  0  0  0  0  0  0  0  0  0  0  0
    2.8703   -1.5828    1.1427 O   0  0  0  0  0  0  0  0  0  0  0  0
    1.4176   -5.0075    8.0950 O   0  0  0  0  0  0  0  0  0  0  0  0
    1.1547   -5.6117    5.9769 O   0  0  0  0  0  0  0  0  0  0  0  0
   -1.7401   -5.6208    1.6029 O   0  0  0  0  0  0  0  0  0  0  0  0
   -3.0939   -0.2664    5.0113 O   0  0  0  0  0  0  0  0  0  0  0  0
   -3.3274    0.9040    2.8446 O   0  0  0  0  0  0  0  0  0  0  0  0
   -4.4476   -1.1053    3.2792 O   0  0  0  0  0  0  0  0  0  0  0  0
   -1.3666   -0.0213    3.5616 O   0  0  0  0  0  0  0  0  0  0  0  0
   -2.9924   -0.5933    3.4126 P   0  0  0  0  0  0  0  0  0  0  0  0
  4  3  1  0
  5  3  1  0
  6  4  1  0
  7  5  1  0
 11  1  1  1
 12  2  1  0
 13  8  2  0
 13 10  1  0
 14  9  1  0
 14 13  1  0
 15  6  1  0
 15 11  1  0
 16  7  1  0
 17 12  1  0
 17 14  2  0
 18  8  1  0
 18 12  2  0
 19  9  1  0
 19 11  1  0
 20 15  2  0
 21 16  2  0
 22 16  1  0
 23 17  1  0
 27 10  1  0
 28 24  1  0
 28 25  1  0
 28 26  2  0
 28 27  1  0
M  END
>  <DRUGBANK_ID>  (1) 
DB03160

>  <SECONDARY_ACCESSION_NUMBERS>  (1) 
EXPT01960

>  <COMMON_NAME>  (1) 
N-Pyridoxyl-7-Keto-8-Aminopelargonic Acid-5'-Monophosphate

$$$$
