
     RDKit          3D

  9  9  0  0  0  0  0  0  0  0999 V2000
    0.9879   -0.0489   -0.1061 C   0  0  0  0  0  0  0  0  0  0  0  0
    0.4749   -1.4218   -0.4296 C   0  0  0  0  0  0  0  0  0  0  0  0
    1.3392   -2.5165   -0.2822 C   0  0  0  0  0  0  0  0  0  0  0  0
    0.8654   -3.8284   -0.4067 C   0  0  0  0  0  0  0  0  0  0  0  0
   -0.4421   -4.0565   -0.8240 C   0  0  0  0  0  0  0  0  0  0  0  0
   -1.2777   -2.9790   -1.0549 C   0  0  0  0  0  0  0  0  0  0  0  0
   -2.5371   -3.2111   -1.5318 O   0  0  0  0  0  0  0  0  0  0  0  0
   -0.8512   -1.6703   -0.7981 C   0  0  0  0  0  0  0  0  0  0  0  0
   -1.7941   -0.6859   -0.9137 O   0  0  0  0  0  0  0  0  0  0  0  0
  1  2  1  0
  2  3  2  0
  2  8  1  0
  3  4  1  0
  4  5  2  0
  5  6  1  0
  6  7  1  0
  6  8  2  0
  8  9  1  0
M  END
>  <DRUGBANK_ID>  (1) 
DB03454

>  <SECONDARY_ACCESSION_NUMBERS>  (1) 
EXPT02120

>  <COMMON_NAME>  (1) 
3-methyl-benzene-1,2-diol

>  <CAS_NUMBER>  (1) 
488-17-5

>  <UNII>  (1) 
0HUZ4Q9R8C

$$$$
