
     RDKit          3D

 31 34  0  0  0  0  0  0  0  0999 V2000
   -0.6379   -0.4311   -0.5845 N   0  0  0  0  0  0  0  0  0  0  0  0
   -1.7349    0.1177    0.0129 C   0  0  0  0  0  0  0  0  0  0  0  0
    0.0583    0.8252   -0.7673 C   0  0  1  0  0  0  0  0  0  0  0  0
   -1.3262    1.4924   -0.5522 C   0  0  2  0  0  0  0  0  0  0  0  0
   -0.0325   -1.6484   -0.4314 C   0  0  0  0  0  0  0  0  0  0  0  0
    1.2612   -1.7447   -0.0185 C   0  0  0  0  0  0  0  0  0  0  0  0
    1.3248    0.9987    0.5293 S   0  0  0  0  0  0  0  0  0  0  0  0
    1.3596   -3.7262    1.5984 N   0  0  0  0  0  0  0  0  0  0  0  0
   -1.4223    2.7287    0.2861 N   0  0  0  0  0  0  0  0  0  0  0  0
   -0.8922   -2.9400   -0.8216 C   0  0  0  0  0  0  0  0  0  0  0  0
   -2.1084    3.8191   -0.2224 C   0  0  0  0  0  0  0  0  0  0  0  0
    1.9137   -3.0818    0.3360 C   0  0  0  0  0  0  0  0  0  0  0  0
    2.1810   -0.5367    0.0470 C   0  0  0  0  0  0  0  0  0  0  0  0
   -2.1401    5.0738    0.6277 C   0  0  0  0  0  0  0  0  0  0  0  0
   -0.4240   -5.3852    5.0832 C   0  0  0  0  0  0  0  0  0  0  0  0
   -1.6027    6.2895   -0.0892 C   0  0  0  0  0  0  0  0  0  0  0  0
   -2.6074   -0.2850    0.7619 O   0  0  0  0  0  0  0  0  0  0  0  0
   -0.4289    6.2093   -1.3406 S   0  0  0  0  0  0  0  0  0  0  0  0
    0.2831   -4.9212    3.8738 C   0  0  0  0  0  0  0  0  0  0  0  0
   -2.1134   -2.8898   -0.5374 O   0  0  0  0  0  0  0  0  0  0  0  0
   -0.4972    7.8965   -1.6127 C   0  0  0  0  0  0  0  0  0  0  0  0
   -0.1785   -3.9552   -1.0898 O   0  0  0  0  0  0  0  0  0  0  0  0
   -1.9621    7.6018    0.1606 C   0  0  0  0  0  0  0  0  0  0  0  0
   -2.6668    3.7754   -1.3191 O   0  0  0  0  0  0  0  0  0  0  0  0
   -1.6445   -5.3594    5.1666 O   0  0  0  0  0  0  0  0  0  0  0  0
   -1.3367    8.5256   -0.7230 C   0  0  0  0  0  0  0  0  0  0  0  0
    0.0356   -3.9070    1.7858 C   0  0  0  0  0  0  0  0  0  0  0  0
    2.1915   -4.2083    2.5498 C   0  0  0  0  0  0  0  0  0  0  0  0
    1.6677   -4.8528    3.6833 C   0  0  0  0  0  0  0  0  0  0  0  0
   -0.5370   -4.4636    2.8845 C   0  0  0  0  0  0  0  0  0  0  0  0
    0.3381   -5.7931    6.1241 N   0  0  0  0  0  0  0  0  0  0  0  0
  2  1  1  0
  2  4  1  0
  3  1  1  0
  4  3  1  0
  4  9  1  1
  5  1  1  0
  6  5  2  0
  3  7  1  1
  7 13  1  0
  8 12  1  0
 10  5  1  0
 11  9  1  0
 12  6  1  0
 13  6  1  0
 14 11  1  0
 15 19  1  0
 16 14  1  0
 17  2  2  0
 18 16  1  0
 19 29  2  0
 20 10  1  0
 21 18  1  0
 22 10  2  0
 23 16  2  0
 24 11  2  0
 25 15  2  0
 26 23  1  0
 26 21  2  0
 27  8  1  0
 28  8  2  0
 29 28  1  0
 30 27  2  0
 30 19  1  0
 31 15  1  0
M  CHG  2   8   1  20  -1
M  END
>  <DRUGBANK_ID>  (1) 
DB11385

>  <COMMON_NAME>  (1) 
Cefalonium

>  <CAS_NUMBER>  (1) 
5575-21-3

>  <UNII>  (1) 
K2P920217W

>  <SYNONYMS>  (1) 
Cefalonio; Cefalonium; Cephalonium

$$$$
