
     RDKit          3D

 28 30  0  0  0  0  0  0  0  0999 V2000
    1.7764   -0.3021    0.0604 C   0  0  0  0  0  0  0  0  0  0  0  0
    1.5443   -1.6628   -0.3765 O   0  0  0  0  0  0  0  0  0  0  0  0
    1.3549   -1.7560   -1.7389 C   0  0  0  0  0  0  0  0  0  0  0  0
    2.5281   -1.4055   -2.3976 C   0  0  0  0  0  0  0  0  0  0  0  0
    2.7470   -1.6719   -3.7286 C   0  0  0  0  0  0  0  0  0  0  0  0
    1.6729   -2.1466   -4.4737 C   0  0  0  0  0  0  0  0  0  0  0  0
    0.4565   -2.4817   -3.8398 C   0  0  0  0  0  0  0  0  0  0  0  0
    0.2604   -2.3179   -2.4300 C   0  0  0  0  0  0  0  0  0  0  0  0
   -1.1338   -2.7441   -1.8900 C   0  0  0  0  0  0  0  0  0  0  0  0
   -1.8690   -3.3789   -2.6193 O   0  0  0  0  0  0  0  0  0  0  0  0
   -1.6992   -2.2803   -0.6840 N   0  0  0  0  0  0  0  0  0  0  0  0
   -1.0827   -1.4464    0.3331 C   0  0  0  0  0  0  0  0  0  0  0  0
   -1.5241   -0.0004    0.7717 C   0  0  0  0  0  0  0  0  0  0  0  0
   -2.9498    0.1906    0.3231 C   0  0  0  0  0  0  0  0  0  0  0  0
   -2.9140    0.4198   -1.2001 C   0  0  0  0  0  0  0  0  0  0  0  0
   -2.1501    1.5619   -1.7242 N   0  0  0  0  0  0  0  0  0  0  0  0
   -0.7750    1.4990   -1.2459 C   0  0  0  0  0  0  0  0  0  0  0  0
   -0.7889    1.3174    0.2720 C   0  0  0  0  0  0  0  0  0  0  0  0
   -2.1622    1.6860   -3.2048 C   0  0  0  0  0  0  0  0  0  0  0  0
   -1.5206    0.5974   -4.0988 C   0  0  0  0  0  0  0  0  0  0  0  0
   -2.2112   -0.7507   -4.0493 C   0  0  0  0  0  0  0  0  0  0  0  0
   -3.6177   -0.9072   -4.2451 N   0  0  0  0  0  0  0  0  0  0  0  0
   -4.2998   -2.0870   -4.2712 C   0  0  0  0  0  0  0  0  0  0  0  0
   -5.5894   -1.6977   -4.5188 C   0  0  0  0  0  0  0  0  0  0  0  0
   -5.6614   -0.3374   -4.5490 N   0  0  0  0  0  0  0  0  0  0  0  0
   -4.4379    0.1352   -4.3907 N   0  0  0  0  0  0  0  0  0  0  0  0
    1.8661   -2.4255   -6.1690 Cl  0  0  0  0  0  0  0  0  0  0  0  0
    3.9926   -1.2997   -4.2323 N   0  0  0  0  0  0  0  0  0  0  0  0
  1  2  1  0
  2  3  1  0
  3  4  2  0
  3  8  1  0
  4  5  1  0
  5  6  2  0
  5 28  1  0
  6  7  1  0
  6 27  1  0
  7  8  2  0
  8  9  1  0
  9 10  2  0
  9 11  1  0
 11 12  1  0
 12 13  1  0
 13 14  1  0
 13 18  1  0
 14 15  1  0
 15 16  1  0
 16 17  1  0
 16 19  1  0
 17 18  1  0
 19 20  1  0
 20 21  1  0
 21 22  1  0
 22 23  1  0
 22 26  1  0
 23 24  2  0
 24 25  1  0
 25 26  2  0
M  END
>  <DRUGBANK_ID>  (1) 
DB12853

>  <COMMON_NAME>  (1) 
DA-6886

>  <CAS_NUMBER>  (1) 
1342815-16-0

>  <UNII>  (1) 
J6388YJ4YR

$$$$
