
     RDKit          3D

 40 44  0  0  0  0  0  0  0  0999 V2000
    0.3392    0.5428   -0.6831 C   0  0  0  0  0  0  0  0  0  0  0  0
    0.1292    0.9218    0.7939 C   0  0  0  0  0  0  0  0  0  0  0  0
    0.9334    2.1270    1.1414 C   0  0  0  0  0  0  0  0  0  0  0  0
    2.3461    2.2513    1.2132 C   0  0  0  0  0  0  0  0  0  0  0  0
    2.8543    3.5367    1.2518 N   0  0  0  0  0  0  0  0  0  0  0  0
    1.9806    4.6288    1.2127 C   0  0  0  0  0  0  0  0  0  0  0  0
    0.5931    4.4003    1.1688 C   0  0  0  0  0  0  0  0  0  0  0  0
    0.0749    3.1675    1.1989 N   0  0  0  0  0  0  0  0  0  0  0  0
   -0.5028    5.4133    0.9013 C   0  0  0  0  0  0  0  0  0  0  0  0
   -0.4402    6.3533    0.1689 O   0  0  0  0  0  0  0  0  0  0  0  0
   -1.7461    5.1355    1.4468 N   0  0  0  0  0  0  0  0  0  0  0  0
    2.5310    5.9352    1.2570 N   0  0  0  0  0  0  0  0  0  0  0  0
    1.8346    7.1528    1.3913 C   0  0  0  0  0  0  0  0  0  0  0  0
    0.9586    7.3693    2.4649 C   0  0  0  0  0  0  0  0  0  0  0  0
    0.0146    8.4148    2.4600 C   0  0  0  0  0  0  0  0  0  0  0  0
   -0.0389    9.3632    1.4332 C   0  0  0  0  0  0  0  0  0  0  0  0
    0.9517    9.1954    0.4152 C   0  0  0  0  0  0  0  0  0  0  0  0
    1.8115    8.0795    0.3615 C   0  0  0  0  0  0  0  0  0  0  0  0
    1.3402   10.0600   -0.5822 O   0  0  0  0  0  0  0  0  0  0  0  0
    0.8022   11.3276   -0.4073 C   0  0  0  0  0  0  0  0  0  0  0  0
   -0.9559   10.4092    1.5395 N   0  0  0  0  0  0  0  0  0  0  0  0
   -2.1654   10.5384    0.7394 C   0  0  0  0  0  0  0  0  0  0  0  0
   -2.3034   11.9948    0.3557 C   0  0  0  0  0  0  0  0  0  0  0  0
   -1.9308   13.1100    1.3383 C   0  0  0  0  0  0  0  0  0  0  0  0
   -0.8136   12.7274    2.3107 C   0  0  0  0  0  0  0  0  0  0  0  0
   -0.9408   11.2563    2.7315 C   0  0  0  0  0  0  0  0  0  0  0  0
   -1.7884   14.4510    0.6836 N   0  0  0  0  0  0  0  0  0  0  0  0
   -2.9480   14.6835   -0.2136 C   0  0  0  0  0  0  0  0  0  0  0  0
   -2.8555   14.0391   -1.6279 C   0  0  0  0  0  0  0  0  0  0  0  0
   -1.6488   14.4372   -2.3693 N   0  0  0  0  0  0  0  0  0  0  0  0
   -0.4581   14.2103   -1.5221 C   0  0  0  0  0  0  0  0  0  0  0  0
   -0.5509   14.7726   -0.0801 C   0  0  0  0  0  0  0  0  0  0  0  0
   -1.5507   13.5756   -3.5572 C   0  0  0  0  0  0  0  0  0  0  0  0
    3.2827    1.2049    1.1981 N   0  0  0  0  0  0  0  0  0  0  0  0
    3.1609   -0.2665    1.5273 C   0  0  0  0  0  0  0  0  0  0  0  0
    2.5435   -1.0501    0.3779 C   0  0  0  0  0  0  0  0  0  0  0  0
    1.7124   -2.3027    0.5746 C   0  0  0  0  0  0  0  0  0  0  0  0
    0.9179   -2.1598    1.7500 O   0  0  0  0  0  0  0  0  0  0  0  0
    1.7129   -1.8508    2.8919 C   0  0  0  0  0  0  0  0  0  0  0  0
    2.3897   -0.4776    2.8356 C   0  0  0  0  0  0  0  0  0  0  0  0
  1  2  1  0
  2  3  1  0
  3  4  2  0
  3  8  1  0
  4  5  1  0
  4 34  1  0
  5  6  2  0
  6  7  1  0
  6 12  1  0
  7  8  2  0
  7  9  1  0
  9 10  2  0
  9 11  1  0
 12 13  1  0
 13 14  2  0
 13 18  1  0
 14 15  1  0
 15 16  2  0
 16 17  1  0
 16 21  1  0
 17 18  2  0
 17 19  1  0
 19 20  1  0
 21 22  1  0
 21 26  1  0
 22 23  1  0
 23 24  1  0
 24 25  1  0
 24 27  1  0
 25 26  1  0
 27 28  1  0
 27 32  1  0
 28 29  1  0
 29 30  1  0
 30 31  1  0
 30 33  1  0
 31 32  1  0
 34 35  1  0
 35 36  1  0
 35 40  1  0
 36 37  1  0
 37 38  1  0
 38 39  1  0
 39 40  1  0
M  END
>  <DRUGBANK_ID>  (1) 
DB12141

>  <COMMON_NAME>  (1) 
Gilteritinib

>  <CAS_NUMBER>  (1) 
1254053-43-4

>  <UNII>  (1) 
66D92MGC8M

>  <SYNONYMS>  (1) 
Gilteritinib

$$$$
