
     RDKit          3D

 23 26  0  0  1  0  0  0  0  0999 V2000
    1.0928   -0.1139    0.0424 C   0  0  0  0  0  0  0  0  0  0  0  0
    0.5793    1.3017   -0.1521 C   0  0  2  0  0  0  0  0  0  0  0  0
    1.5748    2.3127    0.3824 C   0  0  0  0  0  0  0  0  0  0  0  0
    1.1151    3.6496   -0.1042 C   0  0  0  0  0  0  0  0  0  0  0  0
    1.8930    4.2974   -0.7870 O   0  0  0  0  0  0  0  0  0  0  0  0
   -0.3078    4.0286    0.2160 C   0  0  0  0  0  0  0  0  0  0  0  0
   -0.7928    5.3505    0.2270 C   0  0  0  0  0  0  0  0  0  0  0  0
    0.0422    6.5360   -0.0736 C   0  0  0  0  0  0  0  0  0  0  0  0
    1.1251    6.5030   -0.6362 O   0  0  0  0  0  0  0  0  0  0  0  0
   -0.4194    7.8718    0.2795 C   0  0  0  0  0  0  0  0  0  0  0  0
   -1.7478    8.0979    0.5990 C   0  0  0  0  0  0  0  0  0  0  0  0
   -2.1531    9.3999    0.8924 C   0  0  0  0  0  0  0  0  0  0  0  0
   -3.4402    9.7166    1.2289 O   0  0  0  0  0  0  0  0  0  0  0  0
   -1.2318   10.4495    0.8635 C   0  0  0  0  0  0  0  0  0  0  0  0
    0.1031   10.2109    0.5401 C   0  0  0  0  0  0  0  0  0  0  0  0
    0.5107    8.9200    0.2475 C   0  0  0  0  0  0  0  0  0  0  0  0
   -2.6806    6.9622    0.6241 C   0  0  0  0  0  0  0  0  0  0  0  0
   -3.8857    7.1707    0.7302 O   0  0  0  0  0  0  0  0  0  0  0  0
   -2.1399    5.5849    0.5668 C   0  0  0  0  0  0  0  0  0  0  0  0
   -3.0041    4.5299    0.8869 C   0  0  0  0  0  0  0  0  0  0  0  0
   -2.5297    3.2264    0.8783 C   0  0  0  0  0  0  0  0  0  0  0  0
   -1.1939    2.9641    0.5368 C   0  0  0  0  0  0  0  0  0  0  0  0
   -0.7489    1.5187    0.5683 C   0  0  0  0  0  0  0  0  0  0  0  0
  2  1  1  1
  2  3  1  0
  2 23  1  0
  3  4  1  0
  4  5  2  0
  4  6  1  0
  6  7  1  0
  6 22  2  0
  7  8  1  0
  7 19  2  0
  8  9  2  0
  8 10  1  0
 10 11  2  0
 10 16  1  0
 11 12  1  0
 11 17  1  0
 12 13  1  0
 12 14  2  0
 14 15  1  0
 15 16  2  0
 17 18  2  0
 17 19  1  0
 19 20  1  0
 20 21  2  0
 21 22  1  0
 22 23  1  0
M  END
>  <DRUGBANK_ID>  (1) 
DB15644

>  <COMMON_NAME>  (1) 
Ochromycinone

>  <CAS_NUMBER>  (1) 
28882-53-3

>  <UNII>  (1) 
CKZ6P7I25M

>  <SYNONYMS>  (1) 
(+)-ochromycinone; (3s)-3.beta.-methyl-8-hydroxy-1,2,3,4,7,12-hexahydrobenzo(a)anthracene-1,7,12-trione; Benz(a)anthracene-1,7,12(2h)-trione, 3,4-dihydro-8-hydroxy-3-methyl-, (s)-

$$$$
