
     RDKit          3D

 28 29  0  0  0  0  0  0  0  0999 V2000
    0.9501    0.3744    0.4390 C   0  0  0  0  0  0  0  0  0  0  0  0
    0.4416   -1.0420    0.5031 C   0  0  0  0  0  0  0  0  0  0  0  0
    1.0979   -1.9608    1.3477 O   0  0  0  0  0  0  0  0  0  0  0  0
    2.4801   -2.1435    1.0102 C   0  0  0  0  0  0  0  0  0  0  0  0
    2.8469   -2.7479   -0.3997 C   0  0  0  0  0  0  0  0  0  0  0  0
    2.4215   -2.0036   -1.6448 N   0  0  0  0  0  0  0  0  0  0  0  0
    3.4555   -1.2723   -2.3932 C   0  0  0  0  0  0  0  0  0  0  0  0
    3.4768   -1.7517   -3.8226 C   0  0  0  0  0  0  0  0  0  0  0  0
    3.7545   -3.1022   -4.0365 C   0  0  0  0  0  0  0  0  0  0  0  0
    3.5514   -3.6727   -5.2823 C   0  0  0  0  0  0  0  0  0  0  0  0
    3.0259   -2.9209   -6.3328 C   0  0  0  0  0  0  0  0  0  0  0  0
    2.7270   -1.5758   -6.1224 C   0  0  0  0  0  0  0  0  0  0  0  0
    3.0319   -0.9728   -4.8984 C   0  0  0  0  0  0  0  0  0  0  0  0
    2.7729   -3.4011   -7.5983 O   0  0  0  0  0  0  0  0  0  0  0  0
    3.2092   -4.6658   -7.9095 C   0  0  0  0  0  0  0  0  0  0  0  0
    2.6091   -5.7918   -7.3359 C   0  0  0  0  0  0  0  0  0  0  0  0
    3.0547   -7.0672   -7.6757 C   0  0  0  0  0  0  0  0  0  0  0  0
    4.0503   -7.2098   -8.6477 C   0  0  0  0  0  0  0  0  0  0  0  0
    4.5996   -6.0830   -9.2831 C   0  0  0  0  0  0  0  0  0  0  0  0
    4.2066   -4.8052   -8.8749 C   0  0  0  0  0  0  0  0  0  0  0  0
    4.5674   -8.5437   -8.9778 N   0  0  0  0  0  0  0  0  0  0  0  0
    5.4423   -8.6344   -9.8343 O   0  0  0  0  0  0  0  0  0  0  0  0
    4.0952   -9.5117   -8.3403 O   0  0  0  0  0  0  0  0  0  0  0  0
    1.1101   -2.1890   -2.1638 C   0  0  0  0  0  0  0  0  0  0  0  0
    0.4315   -3.1460   -1.7467 O   0  0  0  0  0  0  0  0  0  0  0  0
    0.3530   -1.1215   -3.0146 C   0  0  0  0  0  0  0  0  0  0  0  0
    0.9283    0.5499   -3.0308 Cl  0  0  0  0  0  0  0  0  0  0  0  0
   -0.0681   -1.7755   -4.5971 Cl  0  0  0  0  0  0  0  0  0  0  0  0
  1  2  1  0
  2  3  1  0
  3  4  1  0
  4  5  1  0
  5  6  1  0
  6  7  1  0
  6 24  1  0
  7  8  1  0
  8  9  2  0
  8 13  1  0
  9 10  1  0
 10 11  2  0
 11 12  1  0
 11 14  1  0
 12 13  2  0
 14 15  1  0
 15 16  2  0
 15 20  1  0
 16 17  1  0
 17 18  2  0
 18 19  1  0
 18 21  1  0
 19 20  2  0
 21 22  2  0
 21 23  1  0
 24 25  2  0
 24 26  1  0
 26 27  1  0
 26 28  1  0
M  CHG  2  21   1  23  -1
M  END
>  <DRUGBANK_ID>  (1) 
DB13258

>  <COMMON_NAME>  (1) 
Etofamide

>  <CAS_NUMBER>  (1) 
25287-60-9

>  <UNII>  (1) 
03F36JH21U

>  <SYNONYMS>  (1) 
Etofamide

$$$$
