DD1
     RDKit          3D

 28 31  0  0  0  0  0  0  0  0999 V2000
    2.1597    0.0405    0.0045 F   0  0  0  0  0  0  0  0  0  0  0  0
    0.8204    0.0511   -0.0644 C   0  0  0  0  0  0  0  0  0  0  0  0
    0.1538    1.2720   -0.0121 C   0  0  0  0  0  0  0  0  0  0  0  0
   -1.2419    1.3092   -0.0058 C   0  0  0  0  0  0  0  0  0  0  0  0
   -1.9665    0.1315   -0.1030 C   0  0  0  0  0  0  0  0  0  0  0  0
   -1.2891   -1.0669   -0.2676 C   0  0  0  0  0  0  0  0  0  0  0  0
    0.1113   -1.1417   -0.1830 C   0  0  0  0  0  0  0  0  0  0  0  0
    0.8198   -2.4758   -0.1537 C   0  0  0  0  0  0  0  0  0  0  0  0
    0.4622   -3.3399    0.9782 N   0  0  0  0  0  0  0  0  0  0  0  0
    0.9032   -2.6973    2.1854 C   0  0  0  0  0  0  0  0  0  0  0  0
    0.6947   -3.7131    3.2608 C   0  0  0  0  0  0  0  0  0  0  0  0
   -0.7879   -3.9986    3.5584 C   0  0  0  0  0  0  0  0  0  0  0  0
   -1.3145   -4.6038    2.2513 C   0  0  0  0  0  0  0  0  0  0  0  0
   -0.9638   -3.6651    1.1019 C   0  0  0  0  0  0  0  0  0  0  0  0
   -1.0383   -4.9590    4.7347 C   0  0  0  0  0  0  0  0  0  0  0  0
   -0.8768   -4.4294    6.0739 O   0  0  0  0  0  0  0  0  0  0  0  0
    0.3743   -4.0166    6.4364 C   0  0  0  0  0  0  0  0  0  0  0  0
    1.0855   -4.5284    7.5268 C   0  0  0  0  0  0  0  0  0  0  0  0
    0.6062   -5.5270    8.3530 C   0  0  0  0  0  0  0  0  0  0  0  0
   -0.4890   -6.3060    7.9727 N   0  0  0  0  0  0  0  0  0  0  0  0
    1.2518   -5.8500    9.4861 N   0  0  0  0  0  0  0  0  0  0  0  0
    2.3735   -5.1704    9.7566 C   0  0  0  0  0  0  0  0  0  0  0  0
    3.0465   -5.4865   10.9069 N   0  0  0  0  0  0  0  0  0  0  0  0
    2.9388   -4.2288    9.0199 N   0  0  0  0  0  0  0  0  0  0  0  0
    2.2998   -3.9240    7.8922 C   0  0  0  0  0  0  0  0  0  0  0  0
    2.9005   -3.0009    7.0696 C   0  0  0  0  0  0  0  0  0  0  0  0
    2.2452   -2.6204    5.9308 C   0  0  0  0  0  0  0  0  0  0  0  0
    0.8819   -2.8661    5.8995 C   0  0  0  0  0  0  0  0  0  0  0  0
  1  2  1  0
  2  3  2  0
  2  7  1  0
  3  4  1  0
  4  5  2  0
  5  6  1  0
  6  7  2  0
  7  8  1  0
  8  9  1  0
  9 10  1  0
  9 14  1  0
 10 11  1  0
 11 12  1  0
 12 13  1  0
 12 15  1  0
 13 14  1  0
 15 16  1  0
 16 17  1  0
 17 18  1  0
 17 28  2  0
 18 19  2  0
 18 25  1  0
 19 20  1  0
 19 21  1  0
 21 22  2  0
 22 23  1  0
 22 24  1  0
 24 25  2  0
 25 26  1  0
 26 27  2  0
 27 28  1  0
M  END
>  <DRUGBANK_ID>  (1) 
DB07642

>  <COMMON_NAME>  (1) 
5-{[1-(2-fluorobenzyl)piperidin-4-yl]methoxy}quinazoline-2,4-diamine

$$$$
