DMC
     RDKit          3D

 18 18  0  0  0  0  0  0  0  0999 V2000
    1.0784   -0.0246   -0.0860 O   0  0  0  0  0  0  0  0  0  0  0  0
    2.3049   -0.0462   -0.0782 C   0  0  0  0  0  0  0  0  0  0  0  0
    3.0835   -0.4360   -1.2902 C   0  0  0  0  0  0  0  0  0  0  0  0
    4.4305   -0.3702   -1.3703 C   0  0  0  0  0  0  0  0  0  0  0  0
    2.1907   -0.8733   -2.4404 C   0  0  0  0  0  0  0  0  0  0  0  0
    5.1898   -0.6605   -2.5978 C   0  0  0  0  0  0  0  0  0  0  0  0
    4.8872   -0.1125   -3.8473 C   0  0  0  0  0  0  0  0  0  0  0  0
    5.5553   -0.5144   -4.9986 C   0  0  0  0  0  0  0  0  0  0  0  0
    6.6290   -1.4044   -4.9708 C   0  0  0  0  0  0  0  0  0  0  0  0
    6.9345   -1.9289   -3.6995 C   0  0  0  0  0  0  0  0  0  0  0  0
    6.2564   -1.5526   -2.5299 C   0  0  0  0  0  0  0  0  0  0  0  0
    3.9135    0.8260   -4.0719 O   0  0  0  0  0  0  0  0  0  0  0  0
    7.3637   -1.7107   -6.1112 N   0  0  0  0  0  0  0  0  0  0  0  0
    6.9779   -1.2253   -7.4498 C   0  0  0  0  0  0  0  0  0  0  0  0
    8.5509   -2.5749   -6.0363 C   0  0  0  0  0  0  0  0  0  0  0  0
    8.0565   -0.3400   -8.0556 C   0  0  0  0  0  0  0  0  0  0  0  0
    9.6847   -1.9249   -5.2434 C   0  0  0  0  0  0  0  0  0  0  0  0
    2.9966    0.3187    1.0145 O   0  0  0  0  0  0  0  0  0  0  0  0
  1  2  2  0
  2  3  1  0
  2 18  1  0
  3  4  2  0
  3  5  1  0
  4  6  1  0
  6  7  2  0
  6 11  1  0
  7  8  1  0
  7 12  1  0
  8  9  2  0
  9 10  1  0
  9 13  1  0
 10 11  2  0
 13 14  1  0
 13 15  1  0
 14 16  1  0
 15 17  1  0
M  END
>  <DRUGBANK_ID>  (1) 
DB07668

>  <COMMON_NAME>  (1) 
alpha-Methyl-2-hydroxy-4-diethylaminocinnamic acid

>  <CAS_NUMBER>  (1) 
125769-41-7

>  <UNII>  (1) 
GLA35OJ8JH

>  <SYNONYMS>  (1) 
3-(4-diethylamino-2-hydroxy-phenyl)-2-methyl-propionic acid; alpha-MHDAC

$$$$
