
     RDKit          3D

 28 30  0  0  0  0  0  0  0  0999 V2000
    2.5834    1.0259    0.1638 C   0  0  0  0  0  0  0  0  0  0  0  0
    1.2286    0.3515    0.1584 C   0  0  0  0  0  0  0  0  0  0  0  0
    1.2079   -1.0377    0.1436 C   0  0  0  0  0  0  0  0  0  0  0  0
    0.0280   -1.7686    0.0603 C   0  0  0  0  0  0  0  0  0  0  0  0
   -0.0292   -3.1360    0.0023 O   0  0  0  0  0  0  0  0  0  0  0  0
    1.2207   -3.8194   -0.0565 C   0  0  0  0  0  0  0  0  0  0  0  0
    2.0332   -3.5916   -1.3366 C   0  0  0  0  0  0  0  0  0  0  0  0
    3.3010   -3.1481   -1.1448 O   0  0  0  0  0  0  0  0  0  0  0  0
    1.5910   -3.7684   -2.4707 O   0  0  0  0  0  0  0  0  0  0  0  0
   -1.1850   -1.0848    0.0307 C   0  0  0  0  0  0  0  0  0  0  0  0
   -1.2182    0.3216    0.0472 C   0  0  0  0  0  0  0  0  0  0  0  0
   -2.5531    1.0188   -0.0006 C   0  0  0  0  0  0  0  0  0  0  0  0
    0.0005    1.0454    0.0829 C   0  0  0  0  0  0  0  0  0  0  0  0
    0.0319    2.5492   -0.0958 C   0  0  0  0  0  0  0  0  0  0  0  0
    0.6837    2.9935   -1.3970 C   0  0  0  0  0  0  0  0  0  0  0  0
    1.0848    2.1074   -2.4087 C   0  0  0  0  0  0  0  0  0  0  0  0
    1.8195    2.5384   -3.5064 C   0  0  0  0  0  0  0  0  0  0  0  0
    2.0259    3.8941   -3.6938 C   0  0  0  0  0  0  0  0  0  0  0  0
    2.6981    4.3281   -4.7996 O   0  0  0  0  0  0  0  0  0  0  0  0
    1.5596    4.8227   -2.7620 C   0  0  0  0  0  0  0  0  0  0  0  0
    1.6927    6.3040   -3.0237 C   0  0  0  0  0  0  0  0  0  0  0  0
    0.3729    7.0438   -3.0959 C   0  0  0  0  0  0  0  0  0  0  0  0
   -0.4493    7.1483   -1.9645 C   0  0  0  0  0  0  0  0  0  0  0  0
   -1.6521    7.8370   -1.9957 C   0  0  0  0  0  0  0  0  0  0  0  0
   -2.0126    8.5182   -3.1468 C   0  0  0  0  0  0  0  0  0  0  0  0
   -1.1856    8.4748   -4.2702 C   0  0  0  0  0  0  0  0  0  0  0  0
   -0.0284    7.6918   -4.2687 C   0  0  0  0  0  0  0  0  0  0  0  0
    0.9629    4.3434   -1.5791 C   0  0  0  0  0  0  0  0  0  0  0  0
  1  2  1  0
  2  3  2  0
  2 13  1  0
  3  4  1  0
  4  5  1  0
  4 10  2  0
  5  6  1  0
  6  7  1  0
  7  8  1  0
  7  9  2  0
 10 11  1  0
 11 12  1  0
 11 13  2  0
 13 14  1  0
 14 15  1  0
 15 16  2  0
 15 28  1  0
 16 17  1  0
 17 18  2  0
 18 19  1  0
 18 20  1  0
 20 21  1  0
 20 28  2  0
 21 22  1  0
 22 23  2  0
 22 27  1  0
 23 24  1  0
 24 25  2  0
 25 26  1  0
 26 27  2  0
M  END
>  <DRUGBANK_ID>  (1) 
DB03788

>  <SECONDARY_ACCESSION_NUMBERS>  (1) 
EXPT01522

>  <COMMON_NAME>  (1) 
GC-24

$$$$
