
     RDKit          3D

 27 29  0  0  0  0  0  0  0  0999 V2000
    1.2166    0.5886   -0.2274 C   0  0  0  0  0  0  0  0  0  0  0  0
    1.1185   -0.9037   -0.0426 C   0  0  0  0  0  0  0  0  0  0  0  0
   -1.1903    0.6979   -0.0165 C   0  0  0  0  0  0  0  0  0  0  0  0
   -1.1973   -0.7134    0.0099 C   0  0  0  0  0  0  0  0  0  0  0  0
   -2.4353    1.3518    0.0007 C   0  0  0  0  0  0  0  0  0  0  0  0
   -2.4123   -1.4014    0.0071 C   0  0  0  0  0  0  0  0  0  0  0  0
   -3.6470   -0.7305    0.0021 C   0  0  0  0  0  0  0  0  0  0  0  0
   -3.6593    0.6649    0.0102 C   0  0  0  0  0  0  0  0  0  0  0  0
    3.5616    0.3721   -0.2311 C   0  0  0  0  0  0  0  0  0  0  0  0
   -0.0287   -1.4968    0.0560 N   0  0  0  0  0  0  0  0  0  0  0  0
    2.3961    1.0633   -0.4653 N   0  0  0  0  0  0  0  0  0  0  0  0
    2.3992   -1.7063   -0.0069 C   0  0  0  0  0  0  0  0  0  0  0  0
    2.4223   -2.9298    0.0332 O   0  0  0  0  0  0  0  0  0  0  0  0
    4.6662    0.8727   -0.0960 O   0  0  0  0  0  0  0  0  0  0  0  0
    3.5208   -0.9595   -0.0400 N   0  0  0  0  0  0  0  0  0  0  0  0
    0.0494    1.3720   -0.0976 N   0  0  0  0  0  0  0  0  0  0  0  0
    0.0661    2.8476    0.0115 C   0  0  0  0  0  0  0  0  0  0  0  0
    0.7357    3.3732    1.3141 C   0  0  1  0  0  0  0  0  0  0  0  0
    2.2448    3.0717    1.3441 C   0  0  1  0  0  0  0  0  0  0  0  0
    0.5533    4.7876    1.4929 O   0  0  0  0  0  0  0  0  0  0  0  0
    2.9774    3.6420    0.0735 C   0  0  1  0  0  0  0  0  0  0  0  0
    2.9120    3.4722    2.5439 O   0  0  0  0  0  0  0  0  0  0  0  0
    3.0343    5.1465   -0.0947 C   0  0  0  0  0  0  0  0  0  0  0  0
    4.3449    3.2631    0.0212 O   0  0  0  0  0  0  0  0  0  0  0  0
    3.6449    5.7775    1.0170 O   0  0  0  0  0  0  0  0  0  0  0  0
   -4.9044    1.5083    0.0183 C   0  0  0  0  0  0  0  0  0  0  0  0
   -4.8930   -1.5616   -0.0066 C   0  0  0  0  0  0  0  0  0  0  0  0
  2  1  1  0
  2 12  1  0
  3  4  1  0
  4 10  1  0
  5  3  2  0
  5  8  1  0
  6  4  2  0
  7  6  1  0
  7 27  1  0
  8  7  2  0
  8 26  1  0
  9 14  2  0
 10  2  2  0
 11  1  2  0
 11  9  1  0
 12 15  1  0
 12 13  2  0
 15  9  1  0
 16  3  1  0
 16  1  1  0
 16 17  1  0
 17 18  1  0
 18 19  1  0
 18 20  1  6
 19 21  1  0
 19 22  1  1
 21 23  1  0
 21 24  1  1
 23 25  1  0
M  END
>  <DRUGBANK_ID>  (1) 
DB00140

>  <SECONDARY_ACCESSION_NUMBERS>  (1) 
NUTR00010; APRD00626; EXPT02760; DB09358

>  <COMMON_NAME>  (1) 
Riboflavin

>  <CAS_NUMBER>  (1) 
83-88-5

>  <UNII>  (1) 
TLM2976OFR

>  <SYNONYMS>  (1) 
1-Deoxy-1-(7,8-dimethyl-2,4-dioxo-3,4-dihydrobenzo[g]pteridin-10(2H)-yl)pentitol; 6,7-Dimethyl-9-D-ribitylisoalloxazine; 7,8-Dimethyl-10-(D-ribo-2,3,4,5-tetrahydroxypentyl)isoalloxazine; 7,8-Dimethyl-10-ribitylisoalloxazine; Lactoflavin; Lactoflavine; Riboflavin; Riboflavina; Riboflavine; Riboflavinum; Vitamin B2; Vitamin Bi; Vitamin G

$$$$
