
     RDKit          3D

  7  6  0  0  0  0  0  0  0  0999 V2000
    0.9578   -0.0545   -0.0546 C   0  0  0  0  0  0  0  0  0  0  0  0
    0.1455    0.5006   -1.1849 C   0  0  0  0  0  0  0  0  0  0  0  0
   -0.7018   -0.5290   -1.8771 C   0  0  0  0  0  0  0  0  0  0  0  0
   -2.1896   -0.3057   -1.9329 C   0  0  0  0  0  0  0  0  0  0  0  0
    2.1798   -0.0000   -0.0167 O   0  0  0  0  0  0  0  0  0  0  0  0
    0.2411   -0.5496    0.9788 O   0  0  0  0  0  0  0  0  0  0  0  0
   -0.2110   -1.5459   -2.3659 O   0  0  0  0  0  0  0  0  0  0  0  0
  2  1  1  0
  3  2  1  0
  4  3  1  0
  5  1  2  0
  6  1  1  0
  7  3  2  0
M  END
>  <DRUGBANK_ID>  (1) 
DB01762

>  <SECONDARY_ACCESSION_NUMBERS>  (1) 
EXPT00381; DB04025

>  <COMMON_NAME>  (1) 
Acetoacetic acid

>  <CAS_NUMBER>  (1) 
541-50-4

>  <UNII>  (1) 
4ZI204Y1MC

>  <SYNONYMS>  (1) 
3-ketobutanoic acid; 3-Ketobutyric acid; 3-Oxobutanoic acid; 3-Oxobutyric acid; beta-Ketobutyric acid

$$$$
