
     RDKit          3D

 18 18  0  0  1  0  0  0  0  0999 V2000
    1.2217    0.1168    2.4161 C   0  0  0  0  0  0  0  0  0  0  0  0
    0.9129   -0.8578    1.2179 C   0  0  2  0  0  0  0  0  0  0  0  0
    3.6041    0.2135   -1.4640 C   0  0  1  0  0  0  0  0  0  0  0  0
    2.9925   -0.5027   -0.2423 C   0  0  1  0  0  0  0  0  0  0  0  0
    3.1273    1.6507   -1.6009 C   0  0  1  0  0  0  0  0  0  0  0  0
    1.4782   -0.4510   -0.2519 C   0  0  2  0  0  0  0  0  0  0  0  0
    1.6082    1.6213   -1.7232 C   0  0  1  0  0  0  0  0  0  0  0  0
   -0.5184   -1.1272    1.1794 O   0  0  0  0  0  0  0  0  0  0  0  0
    5.0256    0.2566   -1.3086 O   0  0  0  0  0  0  0  0  0  0  0  0
    3.3613   -1.8861   -0.2089 O   0  0  0  0  0  0  0  0  0  0  0  0
    3.7092    2.3540   -0.4832 O   0  0  0  0  0  0  0  0  0  0  0  0
    1.1344    1.1988   -2.9765 O   0  0  0  0  0  0  0  0  0  0  0  0
    1.7106    3.1330    0.4837 O   0  0  0  0  0  0  0  0  0  0  0  0
   -0.4016    1.1179    0.6892 O   0  0  0  0  0  0  0  0  0  0  0  0
   -0.5389    3.1686    0.3722 O   0  0  0  0  0  0  0  0  0  0  0  0
    1.6846    1.4146    2.0236 O   0  0  0  0  0  0  0  0  0  0  0  0
    0.9710    0.7734   -0.7923 O   0  0  0  0  0  0  0  0  0  0  0  0
    0.5113    2.3402    1.1522 P   0  0  0  0  0  0  0  0  0  0  0  0
  2  8  1  6
  2  6  1  0
  2  1  1  0
  3  9  1  1
  4  3  1  0
  4 10  1  6
  5  3  1  0
  5 11  1  1
  6  4  1  0
  7  5  1  0
  7 12  1  6
 16  1  1  0
  6 17  1  1
 17  7  1  0
 18 13  1  0
 18 14  1  0
 18 15  2  0
 18 16  1  0
M  END
>  <DRUGBANK_ID>  (1) 
DB02470

>  <SECONDARY_ACCESSION_NUMBERS>  (1) 
EXPT02091

>  <COMMON_NAME>  (1) 
D-Glycero-D-Mannopyranose-7-Phosphate

$$$$
