
     RDKit          3D

 26 29  0  0  0  0  0  0  0  0999 V2000
   -2.7391   -0.8884   -0.2145 C   0  0  0  0  0  0  0  0  0  0  0  0
   -2.9802    0.4537   -0.0284 C   0  0  0  0  0  0  0  0  0  0  0  0
   -1.9020    1.3402   -0.0140 C   0  0  0  0  0  0  0  0  0  0  0  0
   -1.4354   -1.3080   -0.4396 C   0  0  0  0  0  0  0  0  0  0  0  0
   -0.3272   -0.5034   -0.1929 C   0  0  0  0  0  0  0  0  0  0  0  0
   -0.5700    0.8743   -0.0514 C   0  0  0  0  0  0  0  0  0  0  0  0
    0.5252    1.7413    0.0275 C   0  0  0  0  0  0  0  0  0  0  0  0
    1.8293    1.2470    0.0008 C   0  0  0  0  0  0  0  0  0  0  0  0
    2.0495   -0.1285   -0.0825 C   0  0  0  0  0  0  0  0  0  0  0  0
    0.9809   -1.0418   -0.1134 C   0  0  0  0  0  0  0  0  0  0  0  0
    3.3361   -0.5754   -0.1955 O   0  0  0  0  0  0  0  0  0  0  0  0
    1.1837   -2.5629   -0.0382 C   0  0  0  0  0  0  0  0  0  0  0  0
    0.7428   -3.2413    1.2806 C   0  0  0  0  0  0  0  0  0  0  0  0
   -0.7035   -3.4472    1.6655 C   0  0  0  0  0  0  0  0  0  0  0  0
   -1.0043   -3.7971    2.9355 N   0  0  0  0  0  0  0  0  0  0  0  0
   -0.1128   -4.3785    3.7623 C   0  0  0  0  0  0  0  0  0  0  0  0
    1.1810   -4.3607    3.3476 N   0  0  0  0  0  0  0  0  0  0  0  0
    1.6092   -3.7901    2.1661 C   0  0  0  0  0  0  0  0  0  0  0  0
   -1.6804   -3.4429    0.9113 O   0  0  0  0  0  0  0  0  0  0  0  0
   -0.5997   -5.0604    5.1949 S   0  0  0  0  0  0  0  0  0  0  0  0
    3.0715   -3.7927    1.9647 C   0  0  0  0  0  0  0  0  0  0  0  0
    3.7606   -2.5815    1.8607 C   0  0  0  0  0  0  0  0  0  0  0  0
    5.1330   -2.5423    1.6260 C   0  0  0  0  0  0  0  0  0  0  0  0
    5.8573   -3.7255    1.6229 C   0  0  0  0  0  0  0  0  0  0  0  0
    5.1978   -4.9405    1.8095 C   0  0  0  0  0  0  0  0  0  0  0  0
    3.8035   -4.9820    1.9127 C   0  0  0  0  0  0  0  0  0  0  0  0
  1  2  2  0
  2  3  1  0
  3  6  2  0
  4  1  1  0
  5  6  1  0
  5  4  2  0
  6  7  1  0
  7  8  2  0
  8  9  1  0
  9 10  2  0
  9 11  1  0
 10  5  1  0
 10 12  1  0
 12 13  1  0
 13 14  1  0
 13 18  2  0
 14 15  1  0
 14 19  2  0
 15 16  1  0
 16 17  1  0
 16 20  2  0
 17 18  1  0
 18 21  1  0
 21 22  2  0
 22 23  1  0
 23 24  2  0
 24 25  1  0
 25 26  2  0
 26 21  1  0
M  END
>  <DRUGBANK_ID>  (1) 
DB15493

>  <COMMON_NAME>  (1) 
Cambinol

>  <CAS_NUMBER>  (1) 
14513-15-6

>  <UNII>  (1) 
8S2PHY4FNC

$$$$
