
     RDKit          3D

  6  5  0  0  0  0  0  0  0  0999 V2000
    0.7540   -0.0564    0.0376 O   0  0  0  0  0  0  0  0  0  0  0  0
    0.4333   -1.2208   -0.7168 C   0  0  0  0  0  0  0  0  0  0  0  0
    1.0104   -1.1705   -2.1360 C   0  0  0  0  0  0  0  0  0  0  0  0
    2.5208   -1.1580   -2.1666 C   0  0  0  0  0  0  0  0  0  0  0  0
    3.3337   -2.6592   -2.9315 Br  0  0  0  0  0  0  0  0  0  0  0  0
    3.2643   -0.1405   -1.7009 C   0  0  0  0  0  0  0  0  0  0  0  0
  1  2  1  0
  2  3  1  0
  3  4  1  0
  4  5  1  0
  4  6  2  0
M  END
>  <DRUGBANK_ID>  (1) 
DB04592

>  <COMMON_NAME>  (1) 
3-Bromo-3-buten-1-ol

>  <CAS_NUMBER>  (1) 
76334-36-6

>  <UNII>  (1) 
T4HW642ALH

$$$$
