552
     RDKit          3D

 27 30  0  0  0  0  0  0  0  0999 V2000
    1.1827    0.0902    0.1132 Cl  0  0  0  0  0  0  0  0  0  0  0  0
    2.9109    0.0219    0.2269 C   0  0  0  0  0  0  0  0  0  0  0  0
    3.5391    1.2346    0.4132 N   0  0  0  0  0  0  0  0  0  0  0  0
    3.5704   -1.1330    0.0651 C   0  0  0  0  0  0  0  0  0  0  0  0
    4.9472   -1.1625    0.0067 N   0  0  0  0  0  0  0  0  0  0  0  0
    5.4715   -2.5300   -0.0436 C   0  0  2  0  0  0  0  0  0  0  0  0
    6.3160   -2.8232   -1.3257 C   0  0  0  0  0  0  0  0  0  0  0  0
    6.9113   -4.0756   -1.3466 N   0  0  0  0  0  0  0  0  0  0  0  0
    6.2362   -5.3465   -1.5209 C   0  0  0  0  0  0  0  0  0  0  0  0
    7.2464   -6.3102   -0.9383 C   0  0  0  0  0  0  0  0  0  0  0  0
    8.5709   -5.7505   -1.4581 C   0  0  0  0  0  0  0  0  0  0  0  0
    8.3314   -4.2421   -1.5986 C   0  0  0  0  0  0  0  0  0  0  0  0
    6.6072   -1.9533   -2.1466 O   0  0  0  0  0  0  0  0  0  0  0  0
    4.1717   -3.2964    0.0096 C   0  0  0  0  0  0  0  0  0  0  0  0
    3.1059   -2.4860   -0.0054 C   0  0  0  0  0  0  0  0  0  0  0  0
    5.7055   -0.0242    0.1284 C   0  0  0  0  0  0  0  0  0  0  0  0
    6.9300    0.0302    0.1387 O   0  0  0  0  0  0  0  0  0  0  0  0
    4.8383    1.2412    0.2931 C   0  0  0  0  0  0  0  0  0  0  0  0
    5.5780    2.3653    0.1590 O   0  0  0  0  0  0  0  0  0  0  0  0
    4.9038    3.6336   -0.0088 C   0  0  0  0  0  0  0  0  0  0  0  0
    4.1223    3.7855   -1.3083 C   0  0  0  0  0  0  0  0  0  0  0  0
    3.6793    2.6682   -2.0364 C   0  0  0  0  0  0  0  0  0  0  0  0
    2.8025    2.7533   -3.1019 C   0  0  0  0  0  0  0  0  0  0  0  0
    3.7455    5.0466   -1.7888 C   0  0  0  0  0  0  0  0  0  0  0  0
    2.9320    5.1470   -2.9292 C   0  0  0  0  0  0  0  0  0  0  0  0
    2.4494    4.0000   -3.5561 C   0  0  0  0  0  0  0  0  0  0  0  0
    1.6610    4.0937   -4.6325 F   0  0  0  0  0  0  0  0  0  0  0  0
  2  1  1  0
  3  2  1  0
  4  2  2  0
  5  4  1  0
  6  5  1  0
  6 14  1  0
  6  7  1  6
  7 13  2  0
  8  7  1  0
  9  8  1  0
 10  9  1  0
 10 11  1  0
 11 12  1  0
 12  8  1  0
 14 15  2  0
 15  4  1  0
 16  5  1  0
 16 18  1  0
 17 16  2  0
 18  3  2  0
 19 18  1  0
 19 20  1  0
 20 21  1  0
 21 24  1  0
 22 21  2  0
 22 23  1  0
 23 26  2  0
 24 25  2  0
 26 25  1  0
 26 27  1  0
M  END
>  <DRUGBANK_ID>  (1) 
DB07148

>  <COMMON_NAME>  (1) 
(6S)-1-chloro-3-[(4-fluorobenzyl)oxy]-6-(pyrrolidin-1-ylcarbonyl)pyrrolo[1,2-a]pyrazin-4(6H)-one

$$$$
