
     RDKit          3D

 29 31  0  0  0  0  0  0  0  0999 V2000
    1.5421    1.2417   -0.0834 C   0  0  0  0  0  0  0  0  0  0  0  0
    0.1384    1.1496   -0.1467 C   0  0  0  0  0  0  0  0  0  0  0  0
   -0.5378   -0.0656   -0.0855 C   0  0  0  0  0  0  0  0  0  0  0  0
    0.1893   -1.2421   -0.0408 C   0  0  0  0  0  0  0  0  0  0  0  0
    1.5863   -1.1877    0.0060 C   0  0  0  0  0  0  0  0  0  0  0  0
    2.2591    0.0462    0.0205 C   0  0  0  0  0  0  0  0  0  0  0  0
    0.6512    4.1070    0.9427 C   0  0  0  0  0  0  0  0  0  0  0  0
   -0.1383    5.2671    0.7386 C   0  0  0  0  0  0  0  0  0  0  0  0
    0.0454    6.0692   -0.2980 N   0  0  0  0  0  0  0  0  0  0  0  0
    1.0027    5.7014   -1.1571 C   0  0  0  0  0  0  0  0  0  0  0  0
    1.7695    4.5955   -1.1007 N   0  0  0  0  0  0  0  0  0  0  0  0
    1.5520    3.7713   -0.0650 C   0  0  0  0  0  0  0  0  0  0  0  0
   -1.4057    4.7595    2.7004 C   0  0  0  0  0  0  0  0  0  0  0  0
   -1.1721    5.5778    1.5981 C   0  0  0  0  0  0  0  0  0  0  0  0
    0.5487    3.3245    2.0969 C   0  0  0  0  0  0  0  0  0  0  0  0
   -0.4015    3.6546    3.0334 C   0  0  0  0  0  0  0  0  0  0  0  0
    2.1838    2.5020   -0.0402 N   0  0  0  0  0  0  0  0  0  0  0  0
   -1.9871   -0.0712   -0.0476 C   0  0  0  0  0  0  0  0  0  0  0  0
   -3.1597   -0.0250    0.0195 C   0  0  0  0  0  0  0  0  0  0  0  0
   -0.1470    2.9231    4.2156 O   0  0  0  0  0  0  0  0  0  0  0  0
   -0.8555    3.1325    5.4428 C   0  0  0  0  0  0  0  0  0  0  0  0
   -2.6605    5.0723    3.2920 O   0  0  0  0  0  0  0  0  0  0  0  0
   -3.2019    4.3339    4.4046 C   0  0  0  0  0  0  0  0  0  0  0  0
   -3.7441    2.7944    4.2432 C   0  0  0  0  0  0  0  0  0  0  0  0
   -3.0755    1.7656    3.4394 O   0  0  0  0  0  0  0  0  0  0  0  0
   -2.6890    2.3257    2.2170 C   0  0  0  0  0  0  0  0  0  0  0  0
   -0.6897    4.5128    6.3002 C   0  0  0  0  0  0  0  0  0  0  0  0
   -0.5907    5.8580    5.7141 O   0  0  0  0  0  0  0  0  0  0  0  0
    0.2869    5.8287    4.6214 C   0  0  0  0  0  0  0  0  0  0  0  0
  1  2  2  0
  2  3  1  0
  3  4  2  0
  3 18  1  0
  4  5  1  0
  5  6  2  0
  6  1  1  0
  7 15  1  0
  7  8  1  0
  8  9  2  0
  9 10  1  0
 10 11  2  0
 11 12  1  0
 12 17  1  0
 12  7  2  0
 13 22  1  0
 13 14  2  0
 14  8  1  0
 15 16  2  0
 16 13  1  0
 16 20  1  0
 17  1  1  0
 18 19  3  0
 20 21  1  0
 21 27  1  0
 22 23  1  0
 23 24  1  0
 24 25  1  0
 25 26  1  0
 27 28  1  0
 28 29  1  0
M  END
>  <DRUGBANK_ID>  (1) 
DB00530

>  <SECONDARY_ACCESSION_NUMBERS>  (1) 
APRD00951

>  <COMMON_NAME>  (1) 
Erlotinib

>  <CAS_NUMBER>  (1) 
183321-74-6

>  <UNII>  (1) 
J4T82NDH7E

>  <SYNONYMS>  (1) 
[6,7-Bis-(2-methoxy-ethoxy)-quinazolin-4-yl]-(3-ethynyl-phenyl)-amine; Erlotinib

$$$$
