
     RDKit          3D

 30 32  0  0  0  0  0  0  0  0999 V2000
    1.0480    0.0597    0.0595 C   0  0  0  0  0  0  0  0  0  0  0  0
    0.5495   -1.2435   -0.3810 N   0  0  0  0  0  0  0  0  0  0  0  0
   -0.9120   -1.2719   -0.3711 C   0  0  0  0  0  0  0  0  0  0  0  0
    1.0860   -1.6096   -1.7019 C   0  0  0  0  0  0  0  0  0  0  0  0
    0.6763   -0.7207   -2.8212 C   0  0  0  0  0  0  0  0  0  0  0  0
    0.0118   -0.9791   -3.9933 C   0  0  0  0  0  0  0  0  0  0  0  0
   -0.0372    0.2506   -4.6684 C   0  0  0  0  0  0  0  0  0  0  0  0
    0.4980    1.2154   -3.8464 C   0  0  0  0  0  0  0  0  0  0  0  0
    0.9965    0.6046   -2.7390 O   0  0  0  0  0  0  0  0  0  0  0  0
    0.7043    2.6801   -3.9717 C   0  0  0  0  0  0  0  0  0  0  0  0
   -0.1713    3.6857   -2.7347 S   0  0  0  0  0  0  0  0  0  0  0  0
   -1.9089    3.2045   -3.0170 C   0  0  0  0  0  0  0  0  0  0  0  0
   -2.4355    3.6179   -4.3919 C   0  0  0  0  0  0  0  0  0  0  0  0
   -2.0940    2.6994   -5.4701 N   0  0  0  0  0  0  0  0  0  0  0  0
   -2.8133    1.7444   -6.1858 C   0  0  0  0  0  0  0  0  0  0  0  0
   -2.1361    1.0840   -7.1696 C   0  0  0  0  0  0  0  0  0  0  0  0
   -2.6836   -0.0144   -7.9378 N   0  0  0  0  0  0  0  0  0  0  0  0
   -1.8618   -0.6093   -8.6663 O   0  0  0  0  0  0  0  0  0  0  0  0
   -3.8741   -0.3045   -7.8473 O   0  0  0  0  0  0  0  0  0  0  0  0
   -4.1205    1.4485   -5.9054 N   0  0  0  0  0  0  0  0  0  0  0  0
   -5.0905    2.0377   -5.0281 C   0  0  0  0  0  0  0  0  0  0  0  0
   -6.0039    2.9501   -5.7938 C   0  0  0  0  0  0  0  0  0  0  0  0
   -5.8384    4.3595   -5.8137 C   0  0  0  0  0  0  0  0  0  0  0  0
   -6.7261    5.1792   -6.5154 C   0  0  0  0  0  0  0  0  0  0  0  0
   -7.7540    4.5588   -7.1872 C   0  0  0  0  0  0  0  0  0  0  0  0
   -7.9071    3.1914   -7.1820 C   0  0  0  0  0  0  0  0  0  0  0  0
   -7.0491    2.3617   -6.5097 C   0  0  0  0  0  0  0  0  0  0  0  0
   -8.9866    2.7770   -7.8903 O   0  0  0  0  0  0  0  0  0  0  0  0
   -9.5402    4.0456   -8.2820 C   0  0  0  0  0  0  0  0  0  0  0  0
   -8.7213    5.1766   -7.9145 O   0  0  0  0  0  0  0  0  0  0  0  0
  1  2  1  0
  2  3  1  0
  2  4  1  0
  4  5  1  0
  5  6  2  0
  5  9  1  0
  6  7  1  0
  7  8  2  0
  8  9  1  0
  8 10  1  0
 10 11  1  0
 11 12  1  0
 12 13  1  0
 13 14  1  0
 14 15  1  0
 15 16  2  3
 15 20  1  0
 16 17  1  0
 17 18  2  0
 17 19  1  0
 20 21  1  0
 21 22  1  0
 22 23  2  0
 22 27  1  0
 23 24  1  0
 24 25  2  0
 25 26  1  0
 25 30  1  0
 26 27  2  0
 26 28  1  0
 28 29  1  0
 29 30  1  0
M  CHG  2  17   1  19  -1
M  END
>  <DRUGBANK_ID>  (1) 
DB13760

>  <COMMON_NAME>  (1) 
Niperotidine

>  <CAS_NUMBER>  (1) 
84845-75-0

>  <UNII>  (1) 
12JBD7U72K

>  <SYNONYMS>  (1) 
Niperotidine

$$$$
