
     RDKit          3D

 19 20  0  0  0  0  0  0  0  0999 V2000
    0.8998    0.0929   -0.0415 C   0  0  0  0  0  0  0  0  0  0  0  0
   -4.7583   -0.7637   -5.2239 C   0  0  0  0  0  0  0  0  0  0  0  0
   -3.5932   -0.7448   -7.3609 C   0  0  0  0  0  0  0  0  0  0  0  0
   -5.9118   -0.3256   -5.8793 C   0  0  0  0  0  0  0  0  0  0  0  0
   -4.7393   -0.3080   -8.0047 C   0  0  0  0  0  0  0  0  0  0  0  0
   -1.4138   -1.1074   -1.6404 C   0  0  0  0  0  0  0  0  0  0  0  0
   -0.0526   -0.4295   -3.5622 C   0  0  0  0  0  0  0  0  0  0  0  0
   -1.3361   -2.5717   -2.1108 C   0  0  0  0  0  0  0  0  0  0  0  0
    0.0563   -1.9231   -3.9589 C   0  0  0  0  0  0  0  0  0  0  0  0
    0.4661    0.5579   -1.4018 C   0  0  0  0  0  0  0  0  0  0  0  0
   -3.6088   -1.0051   -5.9811 C   0  0  0  0  0  0  0  0  0  0  0  0
   -5.8939   -0.1179   -7.2599 C   0  0  0  0  0  0  0  0  0  0  0  0
   -2.3259   -1.4333   -5.4056 C   0  0  0  0  0  0  0  0  0  0  0  0
   -7.0098    0.2801   -7.8816 F   0  0  0  0  0  0  0  0  0  0  0  0
   -2.3561   -2.2592   -4.2813 N   0  0  0  0  0  0  0  0  0  0  0  0
   -0.2554   -0.3551   -2.1266 N   0  0  0  0  0  0  0  0  0  0  0  0
   -1.1661   -2.6993   -3.5878 N   0  0  0  0  0  0  0  0  0  0  0  0
    0.8813    1.6161   -1.8733 O   0  0  0  0  0  0  0  0  0  0  0  0
   -1.3289   -1.0045   -5.9824 O   0  0  0  0  0  0  0  0  0  0  0  0
  4  2  2  0
  5  3  1  0
  8  6  1  0
  9  7  1  0
 10  1  1  0
 11  2  1  0
 11  3  2  0
 12  4  1  0
 12  5  2  0
 13 11  1  0
 14 12  1  0
 15 13  1  0
 16  6  1  0
 16  7  1  0
 16 10  1  0
 17  8  1  0
 17  9  1  0
 17 15  1  0
 18 10  2  0
 19 13  2  0
M  END
>  <DRUGBANK_ID>  (1) 
DB06465

>  <COMMON_NAME>  (1) 
FK-960

>  <CAS_NUMBER>  (1) 
133920-70-4

>  <UNII>  (1) 
60MMJ100ZX

>  <SYNONYMS>  (1) 
N-(4-Acetyl-1-piperazinyl)-4-fluorobenzamide

$$$$
