
     RDKit          3D

 10  9  0  0  1  0  0  0  0  0999 V2000
    0.9311    0.0304   -0.0657 C   0  0  0  0  0  0  0  0  0  0  0  0
   -2.1889    1.6400    0.4135 C   0  0  0  0  0  0  0  0  0  0  0  0
   -1.6823    1.6133   -1.0193 C   0  0  0  0  0  0  0  0  0  0  0  0
   -1.6823    2.8942    1.1068 C   0  0  1  0  0  0  0  0  0  0  0  0
   -2.1889    4.1217    0.3673 C   0  0  0  0  0  0  0  0  0  0  0  0
   -2.1723    2.9200    2.4925 N   0  0  0  0  0  0  0  0  0  0  0  0
   -2.9196    4.9696    0.9692 O   0  0  0  0  0  0  0  0  0  0  0  0
   -1.8459    4.3211   -0.9962 O   0  0  0  0  0  0  0  0  0  0  0  0
    0.8326    2.9869   -0.2600 O   0  0  0  0  0  0  0  0  0  0  0  0
    0.2777    1.6133   -1.0193 Se  0  0  0  0  0  4  0  0  0  0  0  0
  3  2  1  0
  4  2  1  0
  4  6  1  1
  5  4  1  0
  7  5  2  0
  8  5  1  0
 10  1  1  1
 10  3  1  0
 10  9  2  0
M  END
>  <DRUGBANK_ID>  (1) 
DB02958

>  <SECONDARY_ACCESSION_NUMBERS>  (1) 
EXPT02238

>  <COMMON_NAME>  (1) 
Selenomethionine Selenoxide

$$$$
