AJB
     RDKit          3D

 23 25  0  0  0  0  0  0  0  0999 V2000
    0.2563    1.1658    0.0254 C   0  0  0  0  0  0  0  0  0  0  0  0
   -1.1863   -1.2097    0.0122 C   0  0  0  0  0  0  0  0  0  0  0  0
    2.4372   -6.9022    0.3882 C   0  0  0  0  0  0  0  0  0  0  0  0
   -4.6096    3.7398   -0.5086 C   0  0  0  0  0  0  0  0  0  0  0  0
    1.4442   -7.1118   -0.5495 C   0  0  0  0  0  0  0  0  0  0  0  0
    0.9527   -0.0487    0.0285 C   0  0  0  0  0  0  0  0  0  0  0  0
   -4.1794    1.6668    0.0285 C   0  0  0  0  0  0  0  0  0  0  0  0
    1.2684   -8.3519   -1.3557 C   0  0  0  0  0  0  0  0  0  0  0  0
   -3.3554    2.4632   -2.2323 C   0  0  0  0  0  0  0  0  0  0  0  0
   -1.1340    1.2045    0.0713 C   0  0  0  0  0  0  0  0  0  0  0  0
   -1.8806    0.0292    0.0281 C   0  0  0  0  0  0  0  0  0  0  0  0
    0.2285   -1.2734    0.0190 C   0  0  0  0  0  0  0  0  0  0  0  0
    0.9782   -5.0102   -0.0025 C   0  0  0  0  0  0  0  0  0  0  0  0
    1.0049   -2.5876    0.0518 C   0  0  0  0  0  0  0  0  0  0  0  0
    2.3385    0.0221   -0.1222 N   0  0  0  0  0  0  0  0  0  0  0  0
   -5.1827    3.5053    0.6480 N   0  0  0  0  0  0  0  0  0  0  0  0
    0.5556   -6.0439   -0.6995 N   0  0  0  0  0  0  0  0  0  0  0  0
   -4.9230    2.1915    0.9804 N   0  0  0  0  0  0  0  0  0  0  0  0
    0.3145   -3.7929    0.0666 N   0  0  0  0  0  0  0  0  0  0  0  0
   -4.0047    2.6009   -0.9581 N   0  0  0  0  0  0  0  0  0  0  0  0
    2.2422   -2.5301    0.0256 O   0  0  0  0  0  0  0  0  0  0  0  0
    2.3310   -5.3109    1.0069 S   0  0  0  0  0  0  0  0  0  0  0  0
   -3.6772    0.0055   -0.0438 S   0  0  0  0  0  0  0  0  0  0  0  0
  1  6  2  0
  1 10  1  0
  2 11  1  0
  2 12  2  0
  3  5  2  0
  3 22  1  0
  4 16  2  0
  4 20  1  0
  5  8  1  0
  5 17  1  0
  6 12  1  0
  6 15  1  0
  7 18  2  0
  7 20  1  0
  7 23  1  0
  9 20  1  0
 10 11  2  0
 11 23  1  0
 12 14  1  0
 13 17  2  0
 13 19  1  0
 13 22  1  0
 14 19  1  0
 14 21  2  0
 16 18  1  0
M  END
>  <DRUGBANK_ID>  (1) 
DB07358

>  <COMMON_NAME>  (1) 
2-amino-N-(4-methyl-1,3-thiazol-2-yl)-5-[(4-methyl-4H-1,2,4-triazol-3-yl)sulfanyl]benzamide

$$$$
