
     RDKit          3D

  8  8  0  0  0  0  0  0  0  0999 V2000
    2.9777    0.0313    0.0647 C   0  0  0  0  0  0  0  0  0  0  0  0
    1.4793    0.0056   -0.0047 C   0  0  0  0  0  0  0  0  0  0  0  0
    0.7786   -1.2073   -0.0232 C   0  0  0  0  0  0  0  0  0  0  0  0
   -0.6190   -1.2205   -0.0331 C   0  0  0  0  0  0  0  0  0  0  0  0
   -1.3140   -0.0149   -0.0251 C   0  0  0  0  0  0  0  0  0  0  0  0
   -2.6769    0.0229    0.0031 O   0  0  0  0  0  0  0  0  0  0  0  0
   -0.6349    1.1962   -0.0376 C   0  0  0  0  0  0  0  0  0  0  0  0
    0.7606    1.2086   -0.0288 C   0  0  0  0  0  0  0  0  0  0  0  0
  1  2  1  0
  2  3  2  0
  2  8  1  0
  3  4  1  0
  4  5  2  0
  5  6  1  0
  5  7  1  0
  7  8  2  0
M  END
>  <DRUGBANK_ID>  (1) 
DB01688

>  <SECONDARY_ACCESSION_NUMBERS>  (1) 
EXPT02525

>  <COMMON_NAME>  (1) 
P-Cresol

>  <CAS_NUMBER>  (1) 
106-44-5

>  <UNII>  (1) 
1MXY2UM8NV

$$$$
