
     RDKit          3D

 16 17  0  0  0  0  0  0  0  0999 V2000
    1.1910   -0.1039   -0.0763 C   0  0  0  0  0  0  0  0  0  0  0  0
    0.7508   -0.1307   -1.6550 C   0  0  0  0  0  0  0  0  0  0  0  0
    0.9808   -2.3223    1.0312 C   0  0  0  0  0  0  0  0  0  0  0  0
   -0.9343   -0.8418    0.8347 C   0  0  0  0  0  0  0  0  0  0  0  0
    0.5947   -2.9155   -0.2671 C   0  0  0  0  0  0  0  0  0  0  0  0
   -1.4183   -1.4559   -0.4608 C   0  0  0  0  0  0  0  0  0  0  0  0
    2.1856   -2.8066   -3.6879 C   0  0  0  0  0  0  0  0  0  0  0  0
    0.2765   -2.5247   -2.8473 C   0  0  0  0  0  0  0  0  0  0  0  0
    2.0407   -1.4627   -3.4160 C   0  0  0  0  0  0  0  0  0  0  0  0
    1.0890   -3.4709   -3.2936 N   0  0  0  0  0  0  0  0  0  0  0  0
    0.5375   -0.9058    1.0049 N   0  0  0  0  0  0  0  0  0  0  0  0
    0.9267   -1.2801   -2.6279 N   0  0  0  0  0  0  0  0  0  0  0  0
    2.8707   -0.4599   -3.9439 N   0  0  0  0  0  0  0  0  0  0  0  0
    2.7258    0.7079   -3.5095 O   0  0  0  0  0  0  0  0  0  0  0  0
    3.6485   -0.7981   -4.8069 O   0  0  0  0  0  0  0  0  0  0  0  0
   -0.8438   -2.7769   -0.5033 O   0  0  0  0  0  0  0  0  0  0  0  0
  2  1  1  0
  5  3  1  0
  6  4  1  0
  9  7  2  0
 10  7  1  0
 10  8  2  0
 11  1  1  0
 11  3  1  0
 11  4  1  0
 12  2  1  0
 12  8  1  0
 12  9  1  0
 13  9  1  0
 14 13  1  0
 15 13  2  0
 16  5  1  0
 16  6  1  0
M  CHG  2  13   1  14  -1
M  END
>  <DRUGBANK_ID>  (1) 
DB12172

>  <COMMON_NAME>  (1) 
Nimorazole

>  <CAS_NUMBER>  (1) 
6506-37-2

>  <UNII>  (1) 
469ULX0H4G

>  <SYNONYMS>  (1) 
Nimorazole

$$$$
