3B3
     RDKit          3D

 19 20  0  0  0  0  0  0  0  0999 V2000
    3.2630    7.3796    5.4125 C   0  0  0  0  0  0  0  0  0  0  0  0
    3.3243    5.9981    5.5265 C   0  0  0  0  0  0  0  0  0  0  0  0
    2.7410    5.2740    4.5393 C   0  0  0  0  0  0  0  0  0  0  0  0
    2.1254    5.8583    3.5099 N   0  0  0  0  0  0  0  0  0  0  0  0
    2.0631    7.1910    3.3403 C   0  0  0  0  0  0  0  0  0  0  0  0
    1.4177    7.7039    2.1799 C   0  0  0  0  0  0  0  0  0  0  0  0
    0.7192    6.9024    1.2410 N   0  0  0  0  0  0  0  0  0  0  0  0
    1.0001    5.4669    1.0742 C   0  0  0  0  0  0  0  0  0  0  0  0
    1.3307    9.1010    2.0272 C   0  0  0  0  0  0  0  0  0  0  0  0
    1.8711    9.9659    2.9821 C   0  0  0  0  0  0  0  0  0  0  0  0
    2.5153    9.4526    4.1205 C   0  0  0  0  0  0  0  0  0  0  0  0
    2.6338    8.0432    4.3157 C   0  0  0  0  0  0  0  0  0  0  0  0
   -0.2266    4.5327    1.1311 C   0  0  2  0  0  0  0  0  0  0  0  0
   -0.1965    3.5796   -0.0831 C   0  0  0  0  0  0  0  0  0  0  0  0
   -1.2195    3.9597   -1.0603 N   0  0  0  0  0  0  0  0  0  0  0  0
    3.6111   10.0469    6.1182 O   0  0  0  0  0  0  0  0  0  0  0  0
    2.8772   11.6426    4.8380 O   0  0  0  0  0  0  0  0  0  0  0  0
    3.0407   10.4365    5.0999 N   0  0  0  0  0  0  0  0  0  0  0  0
   -1.4854    5.2171    1.1986 O   0  0  0  0  0  0  0  0  0  0  0  0
  1  2  2  0
  1 12  1  0
  2  3  1  0
  3  4  2  0
  4  5  1  0
  5  6  1  0
  5 12  2  0
  6  7  1  0
  6  9  2  0
  7  8  1  0
  9 10  1  0
 10 11  2  0
 11 12  1  0
 11 18  1  0
 13 19  1  6
 13 14  1  0
 13  8  1  0
 14 15  1  0
 16 18  2  0
 17 18  1  0
M  CHG  2  17  -1  18   1
M  END
>  <DRUGBANK_ID>  (1) 
DB07037

>  <COMMON_NAME>  (1) 
(2S)-1-AMINO-3-[(5-NITROQUINOLIN-8-YL)AMINO]PROPAN-2-OL

$$$$
