
     RDKit          3D

 20 19  0  0  0  0  0  0  0  0999 V2000
    1.1533   -0.0284   -0.1525 C   0  0  0  0  0  0  0  0  0  0  0  0
    0.3549   -1.1896   -0.6895 C   0  0  0  0  0  0  0  0  0  0  0  0
   -0.5456   -1.8390    0.3810 C   0  0  0  0  0  0  0  0  0  0  0  0
   -1.6332   -0.8994    0.9231 C   0  0  0  0  0  0  0  0  0  0  0  0
    0.5647    1.0935    0.2708 C   0  0  0  0  0  0  0  0  0  0  0  0
    1.1537    2.1860    0.9782 C   0  0  0  0  0  0  0  0  0  0  0  0
   -2.5103   -0.3569   -0.2194 C   0  0  0  0  0  0  0  0  0  0  0  0
   -3.2881   -1.4994   -0.8645 C   0  0  0  0  0  0  0  0  0  0  0  0
   -4.1856   -2.1709    0.1767 C   0  0  0  0  0  0  0  0  0  0  0  0
   -5.2357   -1.1923    0.7165 C   0  0  0  0  0  0  0  0  0  0  0  0
   -6.1323   -0.6441   -0.3936 C   0  0  0  0  0  0  0  0  0  0  0  0
   -6.8646   -1.7599   -1.1070 C   0  0  0  0  0  0  0  0  0  0  0  0
   -8.2042   -1.6943   -1.0127 O   0  0  0  0  0  0  0  0  0  0  0  0
   -6.3164   -2.6633   -1.7320 O   0  0  0  0  0  0  0  0  0  0  0  0
    0.4110    3.1459    1.5513 C   0  0  0  0  0  0  0  0  0  0  0  0
   -1.0992    3.1934    1.6436 C   0  0  0  0  0  0  0  0  0  0  0  0
   -1.5717    3.2474    3.0976 C   0  0  0  0  0  0  0  0  0  0  0  0
   -1.1495    4.5416    3.7949 C   0  0  0  0  0  0  0  0  0  0  0  0
   -1.6570    5.7877    3.0640 C   0  0  0  0  0  0  0  0  0  0  0  0
   -3.1767    5.8131    3.0048 C   0  0  0  0  0  0  0  0  0  0  0  0
  1  2  1  0
  1  5  2  0
  2  3  1  0
  3  4  1  0
  4  7  1  0
  5  6  1  0
  6 15  2  0
  7  8  1  0
  8  9  1  0
  9 10  1  0
 10 11  1  0
 11 12  1  0
 12 13  1  0
 12 14  2  0
 15 16  1  0
 16 17  1  0
 17 18  1  0
 18 19  1  0
 19 20  1  0
M  END
>  <DRUGBANK_ID>  (1) 
DB04746

>  <COMMON_NAME>  (1) 
(10E,12Z)-octadecadienoic acid

>  <CAS_NUMBER>  (1) 
2420-56-6

>  <UNII>  (1) 
N151ZM4M27

>  <SYNONYMS>  (1) 
(10E,12Z)-octadeca-10,12-dienoic acid; (E,Z)-octadeca-10,12-dienoic acid; 10-trans-12-cis-CLA; 10-trans-12-cis-conjugated linoleic acid; 10-trans-12-cis-linoleic acid; 10-trans-12-cis-octadecadienoic acid; 10,12-trans,cis-octadecanoic acid; C18:2, n-6,8 cis,trans

$$$$
