
     RDKit          3D

 16 17  0  0  0  0  0  0  0  0999 V2000
    0.9139   -0.1354    0.2914 C   0  0  0  0  0  0  0  0  0  0  0  0
    0.5450    1.2421    0.5524 N   0  0  0  0  0  0  0  0  0  0  0  0
   -0.4965    1.3309    1.5418 C   0  0  0  0  0  0  0  0  0  0  0  0
   -0.9141    2.7151    1.9311 C   0  0  0  0  0  0  0  0  0  0  0  0
   -0.1361    3.8696    1.3483 C   0  0  0  0  0  0  0  0  0  0  0  0
    0.9119    3.5631    0.3891 N   0  0  0  0  0  0  0  0  0  0  0  0
    1.1949    2.3469    0.0368 C   0  0  0  0  0  0  0  0  0  0  0  0
    2.3210    2.2802   -0.9764 C   0  0  0  0  0  0  0  0  0  0  0  0
    2.7318    1.1558   -1.5865 C   0  0  0  0  0  0  0  0  0  0  0  0
    3.8361    0.9685   -2.5043 C   0  0  0  0  0  0  0  0  0  0  0  0
    5.0573    1.6067   -2.3215 C   0  0  0  0  0  0  0  0  0  0  0  0
    6.0877    1.3698   -3.2237 C   0  0  0  0  0  0  0  0  0  0  0  0
    5.9088    0.4674   -4.2788 C   0  0  0  0  0  0  0  0  0  0  0  0
    4.7108   -0.2275   -4.4002 C   0  0  0  0  0  0  0  0  0  0  0  0
    3.6788    0.0075   -3.5129 C   0  0  0  0  0  0  0  0  0  0  0  0
    4.4918   -1.1479   -5.3800 O   0  0  0  0  0  0  0  0  0  0  0  0
  1  2  1  0
  2  3  1  0
  2  7  1  0
  3  4  1  0
  4  5  1  0
  5  6  1  0
  6  7  2  0
  7  8  1  0
  8  9  2  0
  9 10  1  0
 10 11  2  0
 10 15  1  0
 11 12  1  0
 12 13  2  0
 13 14  1  0
 14 15  2  0
 14 16  1  0
M  END
>  <DRUGBANK_ID>  (1) 
DB13670

>  <COMMON_NAME>  (1) 
Oxantel

>  <CAS_NUMBER>  (1) 
36531-26-7

>  <UNII>  (1) 
94AJJ30D9E

>  <SYNONYMS>  (1) 
Oxantel

$$$$
