
     RDKit          3D

 18 18  0  0  1  0  0  0  0  0999 V2000
   -0.0231   -2.8684    2.3365 C   0  0  0  0  0  0  0  0  0  0  0  0
    0.5992   -3.4586    1.2367 C   0  0  0  0  0  0  0  0  0  0  0  0
    0.8571   -4.8435    1.2349 C   0  0  0  0  0  0  0  0  0  0  0  0
   -0.3786   -3.6340    3.4285 C   0  0  0  0  0  0  0  0  0  0  0  0
    0.5291   -5.6164    2.3354 C   0  0  0  0  0  0  0  0  0  0  0  0
   -0.0336   -4.9867    3.4492 C   0  0  0  0  0  0  0  0  0  0  0  0
    0.9908   -2.6578    0.0335 C   0  0  2  0  0  0  0  0  0  0  0  0
    0.3252   -1.2593   -0.1267 C   0  0  2  0  0  0  0  0  0  0  0  0
    0.5979   -3.4981   -1.0738 O   0  0  0  0  0  0  0  0  0  0  0  0
    0.1308   -0.9356   -1.5392 N   0  0  0  0  0  0  0  0  0  0  0  0
    0.9159   -0.0497    0.6388 C   0  0  0  0  0  0  0  0  0  0  0  0
    2.3311   -0.0299    0.6985 O   0  0  0  0  0  0  0  0  0  0  0  0
   -0.1247   -5.7121    4.7104 N   0  0  0  0  0  0  0  0  0  0  0  0
   -0.5514   -5.0885    5.6960 O   0  0  0  0  0  0  0  0  0  0  0  0
    0.2800   -6.8786    4.7338 O   0  0  0  0  0  0  0  0  0  0  0  0
    1.0214   -1.0437   -2.5637 C   0  0  0  0  0  0  0  0  0  0  0  0
    0.6075   -0.8340   -3.7100 O   0  0  0  0  0  0  0  0  0  0  0  0
    2.4551   -1.4300   -2.2971 C   0  0  0  0  0  0  0  0  0  0  0  0
  1  4  2  0
  2  1  1  0
  2  3  2  0
  3  5  1  0
  4  6  1  0
  5  6  2  0
  6 13  1  0
  7  9  1  6
  7  8  1  0
  7  2  1  0
  8 11  1  6
  8 10  1  0
 11 12  1  0
 13 14  1  0
 13 15  2  0
 16 17  2  0
 16 10  1  0
 18 16  1  0
M  CHG  2  13   1  14  -1
M  END
>  <DRUGBANK_ID>  (1) 
DB02608

>  <SECONDARY_ACCESSION_NUMBERS>  (1) 
EXPT00937

>  <COMMON_NAME>  (1) 
N-[(1R,2R)-1,3-Dihydroxy-1-(4-nitrophenyl)-2-propanyl]acetamide

>  <CAS_NUMBER>  (1) 
4423-58-9

$$$$
