
     RDKit          3D

 28 31  0  0  1  0  0  0  0  0999 V2000
    0.9661    0.0875    0.0023 C   0  0  0  0  0  0  0  0  0  0  0  0
    0.4333    0.6325   -1.3176 C   0  0  0  0  0  0  0  0  0  0  0  0
    0.9636   -0.1477   -2.5199 C   0  0  0  0  0  0  0  0  0  0  0  0
   -0.9986    0.7081   -1.3070 O   0  0  0  0  0  0  0  0  0  0  0  0
   -1.6339   -0.4675   -1.2310 C   0  0  0  0  0  0  0  0  0  0  0  0
   -1.1483   -1.5907   -1.1554 O   0  0  0  0  0  0  0  0  0  0  0  0
   -2.9540   -0.3663   -1.3006 N   0  0  0  0  0  0  0  0  0  0  0  0
   -4.0003    0.6436   -1.2070 C   0  0  1  0  0  0  0  0  0  0  0  0
   -4.9415   -0.0849   -0.2133 C   0  0  0  0  0  0  0  0  0  0  0  0
   -4.8951    0.7529    0.9976 C   0  0  0  0  0  0  0  0  0  0  0  0
   -5.0696    0.4927    2.3451 C   0  0  0  0  0  0  0  0  0  0  0  0
   -5.3696   -0.7111    3.0181 C   0  0  0  0  0  0  0  0  0  0  0  0
   -5.5707   -0.7224    4.3907 C   0  0  0  0  0  0  0  0  0  0  0  0
   -5.4623    0.4838    5.0808 C   0  0  0  0  0  0  0  0  0  0  0  0
   -5.1215    1.7093    4.4256 C   0  0  0  0  0  0  0  0  0  0  0  0
   -4.8889    1.7145    3.0213 C   0  0  0  0  0  0  0  0  0  0  0  0
   -4.4768    2.6952    2.0406 N   0  0  0  0  0  0  0  0  0  0  0  0
   -4.4088    2.0126    0.8136 C   0  0  0  0  0  0  0  0  0  0  0  0
   -4.0097    2.1524   -0.6424 C   0  0  0  0  0  0  0  0  0  0  0  0
   -4.2461    4.1530    2.3203 C   0  0  0  0  0  0  0  0  0  0  0  0
   -2.8612    4.6776    1.9441 C   0  0  0  0  0  0  0  0  0  0  0  0
   -2.4475    4.5895    0.6264 C   0  0  0  0  0  0  0  0  0  0  0  0
   -1.1004    4.6773    0.3065 C   0  0  0  0  0  0  0  0  0  0  0  0
   -0.2237    5.1431    1.2641 C   0  0  0  0  0  0  0  0  0  0  0  0
   -0.7589    5.5055    2.4889 C   0  0  0  0  0  0  0  0  0  0  0  0
   -2.0393    5.2321    2.8730 N   0  0  0  0  0  0  0  0  0  0  0  0
   -5.9022   -1.9543    5.0479 C   0  0  0  0  0  0  0  0  0  0  0  0
   -6.1806   -2.9674    5.5638 N   0  0  0  0  0  0  0  0  0  0  0  0
  1  2  1  0
  2  3  1  0
  2  4  1  0
  4  5  1  0
  5  6  2  0
  5  7  1  0
  8  7  1  1
  8  9  1  0
  8 19  1  0
  9 10  1  0
 10 11  1  0
 10 18  2  0
 11 12  2  0
 11 16  1  0
 12 13  1  0
 13 14  2  0
 13 27  1  0
 14 15  1  0
 15 16  2  0
 16 17  1  0
 17 18  1  0
 17 20  1  0
 18 19  1  0
 20 21  1  0
 21 22  2  0
 21 26  1  0
 22 23  1  0
 23 24  2  0
 24 25  1  0
 25 26  2  0
 27 28  3  0
M  END
>  <DRUGBANK_ID>  (1) 
DB12573

>  <COMMON_NAME>  (1) 
LY-2452473

>  <CAS_NUMBER>  (1) 
1029692-15-6

>  <UNII>  (1) 
XKW9MYF94Y

$$$$
