
     RDKit          3D

 13 12  0  0  0  0  0  0  0  0999 V2000
    1.0344    0.0799    0.0788 C   0  0  0  0  0  0  0  0  0  0  0  0
    2.5748    0.0537    0.0196 C   0  0  0  0  0  0  0  0  0  0  0  0
    3.2387    0.7152    1.0281 N   0  0  0  0  0  0  0  0  0  0  0  0
    4.6908    0.7373    1.0841 C   0  0  0  0  0  0  0  0  0  0  0  0
    5.2244    2.1694    1.1425 C   0  0  0  0  0  0  0  0  0  0  0  0
    4.7752    2.9459    2.3820 C   0  0  0  0  0  0  0  0  0  0  0  0
    5.2233    2.2856    3.6667 C   0  0  0  0  0  0  0  0  0  0  0  0
    6.0262    3.0352    4.4447 O   0  0  0  0  0  0  0  0  0  0  0  0
    0.5175   -0.6027    1.3511 C   0  0  0  0  0  0  0  0  0  0  0  0
    0.5173    1.5238    0.0239 C   0  0  0  0  0  0  0  0  0  0  0  0
    0.4907   -0.6822   -1.1437 C   0  0  0  0  0  0  0  0  0  0  0  0
    3.1825   -0.5044   -0.8923 O   0  0  0  0  0  0  0  0  0  0  0  0
    4.8770    1.1613    4.0069 O   0  0  0  0  0  0  0  0  0  0  0  0
  1  9  1  0
  1 10  1  0
  1 11  1  0
  1  2  1  0
  2  3  1  0
  2 12  2  0
  3  4  1  0
  4  5  1  0
  5  6  1  0
  6  7  1  0
  7  8  1  0
  7 13  2  0
M  END
>  <DRUGBANK_ID>  (1) 
DB12951

>  <COMMON_NAME>  (1) 
Pivagabine

>  <CAS_NUMBER>  (1) 
69542-93-4

>  <UNII>  (1) 
C53SV0WO4V

>  <SYNONYMS>  (1) 
4-Pivalamidobutyric acid; Pivagabina; Pivagabine; Pivagabinum

$$$$
