
     RDKit          3D

 19 21  0  0  1  0  0  0  0  0999 V2000
    1.0771    0.0521    0.0800 C   0  0  0  0  0  0  0  0  0  0  0  0
    0.4888    1.2528    0.6487 N   0  0  0  0  0  0  0  0  0  0  0  0
   -0.9738    1.2784    0.6296 C   0  0  2  0  0  0  0  0  0  0  0  0
   -1.6713    0.3722   -0.4174 C   0  0  0  0  0  0  0  0  0  0  0  0
   -3.0170    1.0247   -0.7695 C   0  0  2  0  0  0  0  0  0  0  0  0
   -2.6886    2.4758   -0.5471 C   0  0  0  0  0  0  0  0  0  0  0  0
   -3.3741    3.5752   -1.0455 C   0  0  0  0  0  0  0  0  0  0  0  0
   -2.9142    4.8480   -0.7078 C   0  0  0  0  0  0  0  0  0  0  0  0
   -1.8047    5.0045    0.1347 C   0  0  0  0  0  0  0  0  0  0  0  0
   -1.1173    3.8909    0.6305 C   0  0  0  0  0  0  0  0  0  0  0  0
   -1.5458    2.6250    0.2551 C   0  0  0  0  0  0  0  0  0  0  0  0
   -4.1517    0.4817    0.0723 C   0  0  0  0  0  0  0  0  0  0  0  0
   -4.1999    0.6560    1.4613 C   0  0  0  0  0  0  0  0  0  0  0  0
   -5.2323    0.1094    2.2211 C   0  0  0  0  0  0  0  0  0  0  0  0
   -6.2497   -0.6113    1.5949 C   0  0  0  0  0  0  0  0  0  0  0  0
   -7.5204   -1.2215    2.5912 Cl  0  0  0  0  0  0  0  0  0  0  0  0
   -6.2159   -0.8028    0.2121 C   0  0  0  0  0  0  0  0  0  0  0  0
   -7.4278   -1.7034   -0.6280 Cl  0  0  0  0  0  0  0  0  0  0  0  0
   -5.1698   -0.2622   -0.5459 C   0  0  0  0  0  0  0  0  0  0  0  0
  1  2  1  0
  3  2  1  6
  3  4  1  0
  3 11  1  0
  5  4  1  0
  5  6  1  0
  5 12  1  1
  6  7  2  0
  6 11  1  0
  7  8  1  0
  8  9  2  0
  9 10  1  0
 10 11  2  0
 12 13  2  0
 12 19  1  0
 13 14  1  0
 14 15  2  0
 15 16  1  0
 15 17  1  0
 17 18  1  0
 17 19  2  0
M  END
>  <DRUGBANK_ID>  (1) 
DB17032

>  <COMMON_NAME>  (1) 
Indatraline

>  <CAS_NUMBER>  (1) 
86939-10-8

>  <UNII>  (1) 
4U40Y96J1Z

>  <SYNONYMS>  (1) 
(+/-)-trans-3-(3,4-dichlorophenyl)-n-methyl-1-indanamine

$$$$
