
     RDKit          3D

 35 36  0  0  0  0  0  0  0  0999 V2000
    0.2604   -1.2490   -0.0038 C   0  0  0  0  0  0  0  0  0  0  0  0
    0.9254   -0.0230   -0.0187 C   0  0  0  0  0  0  0  0  0  0  0  0
   -1.1639    1.2015    0.0333 C   0  0  0  0  0  0  0  0  0  0  0  0
   -1.8810    0.0032    0.0402 C   0  0  0  0  0  0  0  0  0  0  0  0
    0.2484    1.2155    0.0120 C   0  0  0  0  0  0  0  0  0  0  0  0
    0.6565    3.3696   -1.2066 C   0  0  0  0  0  0  0  0  0  0  0  0
    0.6266    3.3161    1.3298 C   0  0  0  0  0  0  0  0  0  0  0  0
    1.0179    2.5600    0.0481 C   0  0  0  0  0  0  0  0  0  0  0  0
    2.5718    2.4840    0.0732 C   0  0  0  0  0  0  0  0  0  0  0  0
   -1.1468   -1.1828   -0.0110 C   0  0  0  0  0  0  0  0  0  0  0  0
   -3.6639    0.1135    0.1918 S   0  0  0  0  0  0  0  0  0  0  0  0
   -3.7934   -2.5266   -1.5486 S   0  0  0  0  0  0  0  0  0  0  0  0
   -4.2664   -1.5741   -2.9890 C   0  0  0  0  0  0  0  0  0  0  0  0
   -4.0818   -0.1963   -3.1204 C   0  0  0  0  0  0  0  0  0  0  0  0
   -4.7634   -0.2262   -5.4025 C   0  0  0  0  0  0  0  0  0  0  0  0
   -4.9895   -1.6170   -5.3332 C   0  0  0  0  0  0  0  0  0  0  0  0
   -4.3462    0.5296   -4.3045 C   0  0  0  0  0  0  0  0  0  0  0  0
   -5.0716    2.6891   -3.2424 C   0  0  0  0  0  0  0  0  0  0  0  0
   -2.6545    2.3652   -3.9339 C   0  0  0  0  0  0  0  0  0  0  0  0
   -4.1236    2.0551   -4.2825 C   0  0  0  0  0  0  0  0  0  0  0  0
   -4.4043    2.7990   -5.5982 C   0  0  0  0  0  0  0  0  0  0  0  0
   -4.7268   -2.2717   -4.1087 C   0  0  0  0  0  0  0  0  0  0  0  0
   -4.3420   -1.5910   -0.0376 C   0  0  0  0  0  0  0  0  0  0  0  0
   -5.4964   -2.4204   -6.5587 C   0  0  0  0  0  0  0  0  0  0  0  0
   -4.4485   -3.4828   -6.9274 C   0  0  0  0  0  0  0  0  0  0  0  0
   -6.8405   -3.0713   -6.1909 C   0  0  0  0  0  0  0  0  0  0  0  0
   -5.7676   -1.6223   -7.8672 C   0  0  0  0  0  0  0  0  0  0  0  0
    0.9083   -2.6461    0.0345 C   0  0  0  0  0  0  0  0  0  0  0  0
    0.4622   -3.3844    1.3168 C   0  0  0  0  0  0  0  0  0  0  0  0
    0.4938   -3.4449   -1.2163 C   0  0  0  0  0  0  0  0  0  0  0  0
    2.4429   -2.6731    0.0613 C   0  0  0  0  0  0  0  0  0  0  0  0
    2.2610    0.1035   -0.1196 O   0  0  0  0  0  0  0  0  0  0  0  0
   -4.9014    0.2714   -6.6472 O   0  0  0  0  0  0  0  0  0  0  0  0
   -3.9766   -2.3801    1.2378 C   0  0  0  0  0  0  0  0  0  0  0  0
   -5.8750   -1.5129   -0.0953 C   0  0  0  0  0  0  0  0  0  0  0  0
  1  2  2  0
  1 28  1  0
  2  5  1  0
  2 32  1  0
  3  4  1  0
  4 11  1  0
  5  3  2  0
  5  8  1  0
  8  6  1  0
  8  7  1  0
  8  9  1  0
 10  1  1  0
 10  4  2  0
 11 23  1  0
 12 13  1  0
 13 14  2  0
 14 17  1  0
 15 16  1  0
 15 33  1  0
 16 24  1  0
 17 15  2  0
 17 20  1  0
 20 18  1  0
 20 19  1  0
 20 21  1  0
 22 13  1  0
 22 16  2  0
 23 12  1  0
 24 25  1  0
 24 26  1  0
 24 27  1  0
 28 29  1  0
 28 30  1  0
 28 31  1  0
 34 23  1  0
 35 23  1  0
M  END
>  <DRUGBANK_ID>  (1) 
DB01599

>  <COMMON_NAME>  (1) 
Probucol

>  <CAS_NUMBER>  (1) 
23288-49-5

>  <UNII>  (1) 
P3CTH044XJ

>  <SYNONYMS>  (1) 
4,4'- (Isopropylidenedithio)bis(2,6-di-tert-butylphenol); Acetone bis(3,5-di-tert-butyl-4-hydroxyphenyl) mercaptole; Biphenabid; Bisbid; Bisphenabid; Probucol; Probucolum

$$$$
