1288
     RDKit          3D

 22 23  0  0  1  0  0  0  0  0999 V2000
    0.9376   -0.0955   -0.0407 O   0  0  0  0  0  0  0  0  0  0  0  0
    2.2554    2.2104   -5.3770 O   0  0  0  0  0  0  0  0  0  0  0  0
    1.4166   -2.3660   -4.5129 O   0  0  0  0  0  0  0  0  0  0  0  0
    4.0148   -0.0666    5.2342 O   0  0  0  0  0  0  0  0  0  0  0  0
    2.4480    2.4305   -0.5499 N   0  0  0  0  0  0  0  0  0  0  0  0
    2.9716    3.6663    0.0350 C   0  0  0  0  0  0  0  0  0  0  0  0
    2.5098    3.9403    1.4907 C   0  0  0  0  0  0  0  0  0  0  0  0
    0.9738    2.3044   -0.4833 C   0  0  0  0  0  0  0  0  0  0  0  0
    0.4925    0.9100   -0.9653 C   0  0  0  0  0  0  0  0  0  0  0  0
    4.5052    3.6278   -0.0492 C   0  0  0  0  0  0  0  0  0  0  0  0
    2.8890    2.8763    2.5056 C   0  0  0  0  0  0  0  0  0  0  0  0
    0.9610    0.5639   -2.3591 C   0  0  0  0  0  0  0  0  0  0  0  0
    2.4735    1.5441    2.3785 C   0  0  0  0  0  0  0  0  0  0  0  0
    3.6651    3.1980    3.6192 C   0  0  0  0  0  0  0  0  0  0  0  0
    0.9751   -0.7707   -2.7845 C   0  0  0  0  0  0  0  0  0  0  0  0
    1.3767    1.5631   -3.2578 C   0  0  0  0  0  0  0  0  0  0  0  0
    1.8176    1.2391   -4.5272 C   0  0  0  0  0  0  0  0  0  0  0  0
    1.4005   -1.0756   -4.0718 C   0  0  0  0  0  0  0  0  0  0  0  0
    2.8778    0.5332    3.2358 C   0  0  0  0  0  0  0  0  0  0  0  0
    4.0199    2.2014    4.5364 C   0  0  0  0  0  0  0  0  0  0  0  0
    3.6428    0.8795    4.3303 C   0  0  0  0  0  0  0  0  0  0  0  0
    1.8220   -0.0804   -4.9484 C   0  0  0  0  0  0  0  0  0  0  0  0
  1  9  1  0
  2 17  1  0
  3 18  1  0
  4 21  1  0
  5  6  1  0
  5  8  1  0
  6  7  1  0
  6 10  1  0
  7 11  1  0
  8  9  1  0
  9 12  1  0
 11 13  2  0
 11 14  1  0
 12 15  2  0
 12 16  1  0
 13 19  1  0
 14 20  2  0
 15 18  1  0
 16 17  2  0
 17 22  1  0
 18 22  2  0
 19 21  2  0
 20 21  1  0
M  END
>  <DRUGBANK_ID>  (1) 
DB01288

>  <COMMON_NAME>  (1) 
Fenoterol

>  <CAS_NUMBER>  (1) 
13392-18-2

>  <UNII>  (1) 
22M9P70OQ9

>  <SYNONYMS>  (1) 
1-(3,5-dihydroxyphenyl)-1-hydroxy-2-((4-hydroxyphenyl)isopropylamino)ethane; 1-(p-hydroxyphenyl)-2-((β-hydroxy-β-(3',5'-dihydroxyphenyl))ethyl)aminopropane; 3,5-dihydroxy-α-(((p-hydroxy-α-methylphenethyl)amino)methyl)benzyl alcohol; 5-{1-Hydroxy-2-[2-(4-hydroxy-phenyl)-1-methyl-ethylamino]-ethyl}-benzene-1,3-diol; Fenoterol; Fenoterolum; Phenoterol

$$$$
