
     RDKit          3D

 17 16  0  0  0  0  0  0  0  0999 V2000
   -0.5623   -1.6441   -0.6302 C   0  0  0  0  0  0  0  0  0  0  0  0
    0.9218   -1.6852   -0.7006 C   0  0  0  0  0  0  0  0  0  0  0  0
   -0.3859    0.6725   -1.2794 C   0  0  0  0  0  0  0  0  0  0  0  0
   -1.2299   -0.4518   -0.9039 C   0  0  0  0  0  0  0  0  0  0  0  0
    1.8018   -0.5669   -0.9999 C   0  0  0  0  0  0  0  0  0  0  0  0
    1.2332    0.6753   -1.2454 C   0  0  0  0  0  0  0  0  0  0  0  0
   -2.5013   -0.1670   -0.3879 O   0  0  0  0  0  0  0  0  0  0  0  0
    3.1379   -0.6006   -0.7430 O   0  0  0  0  0  0  0  0  0  0  0  0
    2.4013    3.5123   -1.3790 O   0  0  0  0  0  0  0  0  0  0  0  0
    2.4129    2.5731    0.9328 O   0  0  0  0  0  0  0  0  0  0  0  0
    4.0073    1.8132   -0.7271 O   0  0  0  0  0  0  0  0  0  0  0  0
    2.6682    2.1804   -0.4788 S   0  0  0  0  0  0  0  0  0  0  0  0
    0.5336    0.4297    1.4507 C   0  0  0  0  0  0  0  0  0  0  0  0
    0.5062    4.8073    1.1014 C   0  0  0  0  0  0  0  0  0  0  0  0
   -0.0146    1.9004    1.2178 C   0  0  0  0  0  0  0  0  0  0  0  0
   -0.1666    4.2182   -0.0890 C   0  0  0  0  0  0  0  0  0  0  0  0
    0.0826    2.8104   -0.0190 N   0  0  0  0  0  0  0  0  0  0  0  0
  2  1  2  0
  4  1  1  0
  4  3  2  0
  5  2  1  0
  6  3  1  0
  6  5  2  0
  7  4  1  0
  8  5  1  0
 12  6  1  0
 12  9  1  0
 12 10  2  0
 12 11  2  0
 15 13  1  0
 16 14  1  0
 17 15  1  0
 17 16  1  0
M  END
>  <DRUGBANK_ID>  (1) 
DB13483

>  <COMMON_NAME>  (1) 
Etamsylate

>  <CAS_NUMBER>  (1) 
2624-44-4

>  <UNII>  (1) 
24YL531VOH

>  <SYNONYMS>  (1) 
Etamsylate; Ethamsylate

$$$$
