7X6
     RDKit          3D

 29 32  0  0  0  0  0  0  0  0999 V2000
    0.9902    0.1526    0.2967 N   0  0  0  0  0  0  0  0  0  0  0  0
    0.3320    1.0733   -0.5312 C   0  0  0  0  0  0  0  0  0  0  0  0
   -0.8077    1.5998   -0.0706 N   0  0  0  0  0  0  0  0  0  0  0  0
   -1.4164    2.5040   -0.8421 C   0  0  0  0  0  0  0  0  0  0  0  0
   -0.9607    2.8692   -2.0821 C   0  0  0  0  0  0  0  0  0  0  0  0
    0.1999    2.2569   -2.5062 C   0  0  0  0  0  0  0  0  0  0  0  0
    0.7168    2.5660   -3.7764 N   0  0  0  0  0  0  0  0  0  0  0  0
    1.7667    1.8842   -4.4130 C   0  0  0  0  0  0  0  0  0  0  0  0
    2.8704    2.5855   -4.8865 C   0  0  0  0  0  0  0  0  0  0  0  0
    3.0431    3.9419   -4.8561 O   0  0  0  0  0  0  0  0  0  0  0  0
    4.2996    4.0740   -5.5524 C   0  0  0  0  0  0  0  0  0  0  0  0
    4.9574    2.8126   -5.7785 O   0  0  0  0  0  0  0  0  0  0  0  0
    3.9713    1.9470   -5.4188 C   0  0  0  0  0  0  0  0  0  0  0  0
    4.0332    0.5771   -5.5475 C   0  0  0  0  0  0  0  0  0  0  0  0
    2.9189   -0.1588   -5.1483 C   0  0  0  0  0  0  0  0  0  0  0  0
    1.7948    0.4843   -4.5972 C   0  0  0  0  0  0  0  0  0  0  0  0
    0.4327   -0.5272   -4.2438 Cl  0  0  0  0  0  0  0  0  0  0  0  0
    0.8779    1.3972   -1.7098 N   0  0  0  0  0  0  0  0  0  0  0  0
   -1.8428   -4.3775   -3.2234 C   0  0  0  0  0  0  0  0  0  0  0  0
   -2.5340   -3.2677   -2.0178 S   0  0  0  0  0  0  0  0  0  0  0  0
   -3.9407   -3.5641   -1.9136 O   0  0  0  0  0  0  0  0  0  0  0  0
   -2.0865   -1.9505   -2.4241 O   0  0  0  0  0  0  0  0  0  0  0  0
   -1.7989   -3.8103   -0.5881 N   0  0  0  0  0  0  0  0  0  0  0  0
   -1.0681   -2.9754    0.3368 C   0  0  0  0  0  0  0  0  0  0  0  0
   -0.6323   -3.5214    1.5535 C   0  0  0  0  0  0  0  0  0  0  0  0
    0.2626   -2.8139    2.3764 C   0  0  0  0  0  0  0  0  0  0  0  0
    0.7722   -1.5814    1.9694 C   0  0  0  0  0  0  0  0  0  0  0  0
    0.3508   -1.0172    0.7749 C   0  0  0  0  0  0  0  0  0  0  0  0
   -0.5998   -1.7053    0.0064 C   0  0  0  0  0  0  0  0  0  0  0  0
  1  2  1  0
  1 28  1  0
  2  3  2  0
  2 18  1  0
  3  4  1  0
  4  5  2  0
  5  6  1  0
  6  7  1  0
  6 18  2  0
  7  8  1  0
  8  9  2  0
  8 16  1  0
  9 10  1  0
  9 13  1  0
 10 11  1  0
 11 12  1  0
 12 13  1  0
 13 14  2  0
 14 15  1  0
 15 16  2  0
 16 17  1  0
 19 20  1  0
 20 21  2  0
 20 22  2  0
 20 23  1  0
 23 24  1  0
 24 25  2  0
 24 29  1  0
 25 26  1  0
 26 27  2  0
 27 28  1  0
 28 29  2  0
M  END
>  <DRUGBANK_ID>  (1) 
DB07254

>  <COMMON_NAME>  (1) 
N-[3-[[4-[(5-CHLORO-1,3-BENZODIOXOL-4-YL)AMINO]PYRIMIDIN-2-YL]AMINO]PHENYL]METHANESULFONAMIDE

$$$$
