PFP
     RDKit          3D

 29 32  0  0  0  0  0  0  0  0999 V2000
    0.9847    0.1032   -0.0397 C   0  0  0  0  0  0  0  0  0  0  0  0
    0.4434    0.9003   -1.0897 O   0  0  0  0  0  0  0  0  0  0  0  0
    0.8101    2.2174   -1.0341 C   0  0  0  0  0  0  0  0  0  0  0  0
    2.0892    2.6479   -0.6779 C   0  0  0  0  0  0  0  0  0  0  0  0
    2.4106    4.0059   -0.7060 C   0  0  0  0  0  0  0  0  0  0  0  0
   -0.1310    3.1406   -1.4940 C   0  0  0  0  0  0  0  0  0  0  0  0
    0.2182    4.4861   -1.6340 C   0  0  0  0  0  0  0  0  0  0  0  0
    1.4907    4.9281   -1.2296 C   0  0  0  0  0  0  0  0  0  0  0  0
    1.9572    6.2682   -1.5797 C   0  0  0  0  0  0  0  0  0  0  0  0
    2.9394    6.7664   -2.5195 C   0  0  0  0  0  0  0  0  0  0  0  0
    3.8247    6.2875   -3.5374 C   0  0  0  0  0  0  0  0  0  0  0  0
    3.9113    5.0153   -4.1058 N   0  0  0  0  0  0  0  0  0  0  0  0
    3.1636    3.9161   -3.5666 C   0  0  0  0  0  0  0  0  0  0  0  0
    2.2092    3.2056   -4.4973 C   0  0  0  0  0  0  0  0  0  0  0  0
    2.9276    2.4359   -5.4319 O   0  0  0  0  0  0  0  0  0  0  0  0
    4.6583    7.1824   -4.1138 N   0  0  0  0  0  0  0  0  0  0  0  0
    4.5606    8.4856   -3.7952 C   0  0  0  0  0  0  0  0  0  0  0  0
    3.7175    9.0552   -2.9235 N   0  0  0  0  0  0  0  0  0  0  0  0
    2.9397    8.1536   -2.3170 C   0  0  0  0  0  0  0  0  0  0  0  0
    1.9809    8.5070   -1.3946 O   0  0  0  0  0  0  0  0  0  0  0  0
    1.3979    7.3637   -0.9486 C   0  0  0  0  0  0  0  0  0  0  0  0
    0.3285    7.4143    0.0438 C   0  0  0  0  0  0  0  0  0  0  0  0
   -0.8861    8.0480   -0.2302 C   0  0  0  0  0  0  0  0  0  0  0  0
   -2.0011    7.8285    0.5945 C   0  0  0  0  0  0  0  0  0  0  0  0
   -1.9233    6.9669    1.6917 C   0  0  0  0  0  0  0  0  0  0  0  0
   -2.9359    6.6878    2.5679 O   0  0  0  0  0  0  0  0  0  0  0  0
   -4.1041    7.4925    2.4552 C   0  0  0  0  0  0  0  0  0  0  0  0
   -0.7249    6.3060    1.9485 C   0  0  0  0  0  0  0  0  0  0  0  0
    0.3978    6.5614    1.1607 C   0  0  0  0  0  0  0  0  0  0  0  0
  1  2  1  0
  2  3  1  0
  3  4  2  0
  3  6  1  0
  4  5  1  0
  5  8  2  0
  6  7  2  0
  7  8  1  0
  8  9  1  0
  9 10  1  0
  9 21  2  0
 10 11  2  0
 10 19  1  0
 11 12  1  0
 11 16  1  0
 12 13  1  0
 13 14  1  0
 14 15  1  0
 16 17  2  0
 17 18  1  0
 18 19  2  0
 19 20  1  0
 20 21  1  0
 21 22  1  0
 22 23  2  0
 22 29  1  0
 23 24  1  0
 24 25  2  0
 25 26  1  0
 25 28  1  0
 26 27  1  0
 28 29  2  0
M  END
>  <DRUGBANK_ID>  (1) 
DB08392

>  <COMMON_NAME>  (1) 
2-[5,6-BIS-(4-METHOXY-PHENYL)-FURO[2,3-D]PYRIMIDIN-4-YLAMINO]-ETHANOL

$$$$
