
     RDKit          3D

 29 33  0  0  1  0  0  0  0  0999 V2000
   -2.1363    0.0047    0.4744 C   0  0  0  0  0  0  0  0  0  0  0  0
   -0.8979    0.0799   -0.4184 C   0  0  2  0  0  0  0  0  0  0  0  0
   -0.0063   -1.1419   -0.0041 C   0  0  0  0  0  0  0  0  0  0  0  0
    1.3521   -0.6509   -0.0665 N   0  0  0  0  0  0  0  0  0  0  0  0
    1.9247   -0.9608   -1.4295 C   0  0  0  0  0  0  0  0  0  0  0  0
    1.1099   -0.6458   -2.6945 C   0  0  0  0  0  0  0  0  0  0  0  0
    0.2969   -1.4129   -3.4887 N   0  0  0  0  0  0  0  0  0  0  0  0
   -0.6118   -0.7208   -4.3162 C   0  0  0  0  0  0  0  0  0  0  0  0
   -0.9030    0.5624   -4.2317 C   0  0  0  0  0  0  0  0  0  0  0  0
    0.1559    1.0958   -3.6070 C   0  0  0  0  0  0  0  0  0  0  0  0
    1.1637    0.5875   -2.8945 N   0  0  0  0  0  0  0  0  0  0  0  0
    1.2114    0.7524    0.4265 C   0  0  0  0  0  0  0  0  0  0  0  0
   -0.0597    1.4463   -0.1855 C   0  0  1  0  0  0  0  0  0  0  0  0
    0.3041    2.6618   -1.2781 C   0  0  0  0  0  0  0  0  0  0  0  0
    1.6058    2.8946   -1.6171 C   0  0  0  0  0  0  0  0  0  0  0  0
    2.0258    3.4417   -2.8520 N   0  0  0  0  0  0  0  0  0  0  0  0
    1.0982    3.9540   -3.7575 C   0  0  0  0  0  0  0  0  0  0  0  0
    1.7697    3.9459   -4.9794 C   0  0  0  0  0  0  0  0  0  0  0  0
    3.0858    3.5607   -4.8287 N   0  0  0  0  0  0  0  0  0  0  0  0
    3.2499    3.2633   -3.5505 C   0  0  0  0  0  0  0  0  0  0  0  0
    4.6192    2.8825   -2.9666 C   0  0  0  0  0  0  0  0  0  0  0  0
    4.9427    1.3830   -2.8267 C   0  0  0  0  0  0  0  0  0  0  0  0
    6.2257    1.1412   -2.0174 C   0  0  0  0  0  0  0  0  0  0  0  0
    6.1798    1.8411   -0.7752 O   0  0  0  0  0  0  0  0  0  0  0  0
    6.1200    3.2511   -0.9635 C   0  0  0  0  0  0  0  0  0  0  0  0
    4.8340    3.6317   -1.6576 C   0  0  0  0  0  0  0  0  0  0  0  0
   -0.3600    3.9183   -3.4179 C   0  0  0  0  0  0  0  0  0  0  0  0
   -1.2357    4.0099   -4.2787 O   0  0  0  0  0  0  0  0  0  0  0  0
   -0.6815    3.2668   -2.1289 N   0  0  0  0  0  0  0  0  0  0  0  0
  2  1  1  1
  2  3  1  0
  2 13  1  0
  3  4  1  0
  4  5  1  0
  4 12  1  0
  5  6  1  0
  6  7  2  0
  6 11  1  0
  7  8  1  0
  8  9  2  0
  9 10  1  0
 10 11  2  0
 13 12  1  0
 13 14  1  6
 14 15  2  0
 14 29  1  0
 15 16  1  0
 16 17  1  0
 16 20  1  0
 17 18  2  0
 17 27  1  0
 18 19  1  0
 19 20  2  0
 20 21  1  0
 21 22  1  0
 21 26  1  0
 22 23  1  0
 23 24  1  0
 24 25  1  0
 25 26  1  0
 27 28  2  0
 27 29  1  0
M  END
>  <DRUGBANK_ID>  (1) 
DB16193

>  <COMMON_NAME>  (1) 
Tovinontrine

>  <CAS_NUMBER>  (1) 
2062661-53-2

>  <UNII>  (1) 
W248Y1AKOR

>  <SYNONYMS>  (1) 
6-((3S,4S)-4-METHYL-1-(2-PYRIMIDINYLMETHYL)-3-PYRROLIDINYL)-3-(TETRAHYDRO-2H-PYRAN-4-YL)IMIDAZO(1,5-A)PYRAZIN-8(7H)-ONE; 6-[(3S,4S-4-methyl-1-(pyrimidin-2-ylmethyl)pyrrolidin-3-yl]-3-tetrahydropyran-4-yl-7H-imadazo[1,5-a]pyrazin-8-one; 6-[(3S,4S)-4-methyl-1-(pyrimidin-2-ylmethyl)pyrrolidin-3-yl]-3- tetrahydropyran-4-yl-7H-imidazo[1,5-a]pyrazin-8-one; IMIDAZO(1,5-A)PYRAZIN-8(7H)-ONE, 6-((3S,4S)-4-METHYL-1-(2-PYRIMIDINYLMETHYL)-3-PYRROLIDINYL)-3-(TETRAHYDRO-2H-PYRAN-4-YL)-

$$$$
