
     RDKit          3D

 25 27  0  0  1  0  0  0  0  0999 V2000
    0.0296    1.3001   -3.4088 C   0  0  0  0  0  0  0  0  0  0  0  0
   -0.3301   -0.0737   -3.6769 N   0  0  0  0  0  0  0  0  0  0  0  0
   -0.4375   -0.9074   -2.4405 C   0  0  0  0  0  0  0  0  0  0  0  0
   -1.4869   -0.6008   -1.1050 C   0  0  1  0  0  0  0  0  0  0  0  0
   -1.2519    1.1375   -0.5040 C   0  0  0  0  0  0  0  0  0  0  0  0
   -2.1915    2.5207   -1.3453 C   0  0  0  0  0  0  0  0  0  0  0  0
   -3.9400    2.1434   -1.8700 C   0  0  0  0  0  0  0  0  0  0  0  0
   -4.2968    3.0076   -2.9891 C   0  0  0  0  0  0  0  0  0  0  0  0
   -5.3318    2.5427   -3.8657 C   0  0  0  0  0  0  0  0  0  0  0  0
   -5.9592    1.1904   -3.7432 C   0  0  0  0  0  0  0  0  0  0  0  0
   -5.5879    0.1765   -2.7665 C   0  0  0  0  0  0  0  0  0  0  0  0
   -4.5546    0.5090   -1.8236 C   0  0  0  0  0  0  0  0  0  0  0  0
   -3.3511   -0.9594   -1.4546 C   0  0  1  0  0  0  0  0  0  0  0  0
   -3.3239   -2.1678   -2.4547 C   0  0  0  0  0  0  0  0  0  0  0  0
   -2.6672   -3.3265   -2.0063 C   0  0  0  0  0  0  0  0  0  0  0  0
   -2.6081   -4.4715   -2.7981 C   0  0  0  0  0  0  0  0  0  0  0  0
   -3.1256   -4.4561   -4.0939 C   0  0  0  0  0  0  0  0  0  0  0  0
   -3.6856   -3.2994   -4.6075 C   0  0  0  0  0  0  0  0  0  0  0  0
   -3.7708   -2.1769   -3.7918 C   0  0  0  0  0  0  0  0  0  0  0  0
   -5.5861    3.3802   -4.9545 O   0  0  0  0  0  0  0  0  0  0  0  0
   -6.8458    3.0911   -5.5498 C   0  0  0  0  0  0  0  0  0  0  0  0
   -1.6117   -0.0170   -4.3027 C   0  0  0  0  0  0  0  0  0  0  0  0
   -2.6601    0.5970   -3.5453 C   0  0  0  0  0  0  0  0  0  0  0  0
   -3.5692    0.8668   -4.1707 O   0  0  0  0  0  0  0  0  0  0  0  0
   -2.4089    0.6873   -2.2408 O   0  0  0  0  0  0  0  0  0  0  0  0
  1  2  1  0
  2  3  1  0
  2 22  1  0
  4  5  1  0
  4 13  1  0
  4  3  1  6
  5  6  1  0
  6  7  1  0
  7  8  1  0
  7 12  2  0
  8  9  2  0
  9 10  1  0
  9 20  1  0
 10 11  2  0
 11 12  1  0
 12 13  1  0
 13 14  1  6
 14 15  2  0
 14 19  1  0
 15 16  1  0
 16 17  2  0
 17 18  1  0
 18 19  2  0
 20 21  1  0
 22 23  1  0
 23 24  2  0
 23 25  1  0
M  END
>  <DRUGBANK_ID>  (1) 
DB12220

>  <COMMON_NAME>  (1) 
ORG-25935

>  <CAS_NUMBER>  (1) 
1147011-84-4

>  <UNII>  (1) 
55L20667O4

$$$$
