
     RDKit          3D

 15 17  0  0  0  0  0  0  0  0999 V2000
    2.8091    0.8768    0.0004 C   0  0  0  0  0  0  0  0  0  0  0  0
    3.5457   -0.3066    0.0002 C   0  0  0  0  0  0  0  0  0  0  0  0
    2.8853   -1.5232   -0.0004 C   0  0  0  0  0  0  0  0  0  0  0  0
    1.4902   -1.5520   -0.0010 C   0  0  0  0  0  0  0  0  0  0  0  0
   -1.4999   -1.5525   -0.0003 C   0  0  0  0  0  0  0  0  0  0  0  0
   -2.8932   -1.5480    0.0017 C   0  0  0  0  0  0  0  0  0  0  0  0
   -3.5690   -0.3437    0.0000 C   0  0  0  0  0  0  0  0  0  0  0  0
   -2.8486    0.8481   -0.0015 C   0  0  0  0  0  0  0  0  0  0  0  0
   -0.7107    2.0974    0.0035 C   0  0  0  0  0  0  0  0  0  0  0  0
    0.6880    2.0652    0.0004 C   0  0  0  0  0  0  0  0  0  0  0  0
    0.7044   -0.3692   -0.0006 C   0  0  0  0  0  0  0  0  0  0  0  0
   -0.7307   -0.3613   -0.0005 C   0  0  0  0  0  0  0  0  0  0  0  0
   -1.4336    0.8791   -0.0003 C   0  0  0  0  0  0  0  0  0  0  0  0
    1.4017    0.8595    0.0001 C   0  0  0  0  0  0  0  0  0  0  0  0
   -1.3351    3.3437   -0.0118 N   0  0  0  0  0  0  0  0  0  0  0  0
  1 14  2  0
  2  1  1  0
  2  3  2  0
  3  4  1  0
  4 11  2  0
  5 12  2  0
  6  5  1  0
  7  8  1  0
  7  6  2  0
  8 13  2  0
  9 13  1  0
  9 10  2  0
 10 14  1  0
 12 11  1  0
 13 12  1  0
 14 11  1  0
 15  9  1  0
M  END
>  <DRUGBANK_ID>  (1) 
DB03369

>  <SECONDARY_ACCESSION_NUMBERS>  (1) 
EXPT00353

>  <COMMON_NAME>  (1) 
9-Aminophenanthrene

>  <CAS_NUMBER>  (1) 
947-73-9

>  <UNII>  (1) 
7M9M5KM2XY

>  <SYNONYMS>  (1) 
9-phenanthrenamine; 9-phenanthrylamine; phenanthren-9-amine; Phenanthren-9-ylamine

$$$$
