
     RDKit          3D

 21 23  0  0  1  0  0  0  0  0999 V2000
    1.5493   -0.1637   -0.9090 O   0  0  0  0  0  0  0  0  0  0  0  0
    0.9012   -0.0753    0.3592 C   0  0  1  0  0  0  0  0  0  0  0  0
    0.2396    1.2905    0.5177 C   0  0  0  0  0  0  0  0  0  0  0  0
   -0.9682    1.3510   -0.4006 C   0  0  0  0  0  0  0  0  0  0  0  0
   -1.8631    0.1206   -0.2324 C   0  0  0  0  0  0  0  0  0  0  0  0
   -1.1369   -1.1477   -0.3685 N   0  0  0  0  0  0  0  0  0  0  0  0
   -0.0499   -1.2494    0.6164 C   0  0  2  0  0  0  0  0  0  0  0  0
   -0.5485   -1.2723    2.0850 C   0  0  0  0  0  0  0  0  0  0  0  0
    0.3426   -2.0749    3.0457 C   0  0  0  0  0  0  0  0  0  0  0  0
    1.8024   -1.5950    3.1981 C   0  0  0  0  0  0  0  0  0  0  0  0
    1.9591   -0.2278    3.6826 N   0  0  0  0  0  0  0  0  0  0  0  0
    1.4055    0.2181    4.8523 C   0  0  0  0  0  0  0  0  0  0  0  0
    1.5396    1.5209    4.9894 N   0  0  0  0  0  0  0  0  0  0  0  0
    2.2314    1.9477    3.8785 C   0  0  0  0  0  0  0  0  0  0  0  0
    2.6151    3.2415    3.4617 C   0  0  0  0  0  0  0  0  0  0  0  0
    2.2529    4.5030    4.5602 Cl  0  0  0  0  0  0  0  0  0  0  0  0
    3.2338    3.4295    2.2226 C   0  0  0  0  0  0  0  0  0  0  0  0
    3.6567    4.9930    1.6234 Cl  0  0  0  0  0  0  0  0  0  0  0  0
    3.5513    2.3300    1.4311 C   0  0  0  0  0  0  0  0  0  0  0  0
    3.3272    1.0270    1.8923 C   0  0  0  0  0  0  0  0  0  0  0  0
    2.5770    0.8552    3.0736 C   0  0  0  0  0  0  0  0  0  0  0  0
  2  1  1  6
  2  3  1  0
  2  7  1  0
  3  4  1  0
  4  5  1  0
  5  6  1  0
  7  6  1  0
  7  8  1  1
  8  9  1  0
  9 10  1  0
 10 11  1  0
 11 12  1  0
 11 21  1  0
 12 13  2  0
 13 14  1  0
 14 15  1  0
 14 21  2  0
 15 16  1  0
 15 17  2  0
 17 18  1  0
 17 19  1  0
 19 20  2  0
 20 21  1  0
M  END
>  <DRUGBANK_ID>  (1) 
DB18017

>  <COMMON_NAME>  (1) 
Bersiporocin

>  <CAS_NUMBER>  (1) 
2241808-52-4

>  <UNII>  (1) 
TTU6QSK1G5

>  <SYNONYMS>  (1) 
(2r,3s)-2-(3-(4,5-dichloro-1h-benzo(d)imidazol-1-yl)propyl)piperidin-3-ol; 3-piperidinol, 2-(3-(4,5-dichloro-1h-benzimidazol-1-yl)propyl)-, (2r,3s)

$$$$
