
     RDKit          3D

  8  8  0  0  0  0  0  0  0  0999 V2000
   -1.5067    1.6516    0.1485 N   0  0  0  0  0  0  0  0  0  0  0  0
   -0.3926    0.8213   -0.0284 C   0  0  0  0  0  0  0  0  0  0  0  0
    0.9000    1.3567    0.0079 C   0  0  0  0  0  0  0  0  0  0  0  0
    2.0217    0.5184   -0.0066 C   0  0  0  0  0  0  0  0  0  0  0  0
    1.8676   -0.8673   -0.0221 C   0  0  0  0  0  0  0  0  0  0  0  0
    0.5866   -1.4178   -0.0206 C   0  0  0  0  0  0  0  0  0  0  0  0
   -0.5213   -0.5745   -0.0109 C   0  0  0  0  0  0  0  0  0  0  0  0
   -1.7488   -1.1240    0.0036 F   0  0  0  0  0  0  0  0  0  0  0  0
  1  2  1  0
  2  3  2  0
  2  7  1  0
  3  4  1  0
  4  5  2  0
  5  6  1  0
  6  7  2  0
  7  8  1  0
M  END
>  <DRUGBANK_ID>  (1) 
DB02403

>  <SECONDARY_ACCESSION_NUMBERS>  (1) 
EXPT00067

>  <COMMON_NAME>  (1) 
2-Fluoroaniline

>  <CAS_NUMBER>  (1) 
348-54-9

>  <UNII>  (1) 
SE32ZK6617

$$$$
