
     RDKit          3D

 11 12  0  0  0  0  0  0  0  0999 V2000
    0.9634   -0.0221    0.0642 O   0  0  0  0  0  0  0  0  0  0  0  0
    5.0091   -0.0894    0.0501 N   0  0  0  0  0  0  0  0  0  0  0  0
    2.5766   -2.5182    0.0624 N   0  0  0  0  0  0  0  0  0  0  0  0
    4.8100   -2.5000    0.0537 N   0  0  0  0  0  0  0  0  0  0  0  0
    2.9529    1.1413    0.0574 N   0  0  0  0  0  0  0  0  0  0  0  0
    4.9724    2.2035    0.0504 N   0  0  0  0  0  0  0  0  0  0  0  0
    2.9599   -1.2091    0.0598 C   0  0  0  0  0  0  0  0  0  0  0  0
    4.3194   -1.2332    0.0545 C   0  0  0  0  0  0  0  0  0  0  0  0
    2.1893   -0.0122    0.0610 C   0  0  0  0  0  0  0  0  0  0  0  0
    4.2534    1.0546    0.0522 C   0  0  0  0  0  0  0  0  0  0  0  0
    3.7306   -3.2638    0.0584 C   0  0  0  0  0  0  0  0  0  0  0  0
  1  9  2  0
  2  8  1  0
  2 10  1  0
  3  7  1  0
  3 11  1  0
  4  8  1  0
  4 11  2  0
  5  9  1  0
  5 10  2  0
  6 10  1  0
  7  8  2  0
  7  9  1  0
M  END
>  <DRUGBANK_ID>  (1) 
DB02377

>  <SECONDARY_ACCESSION_NUMBERS>  (1) 
EXPT01672

>  <COMMON_NAME>  (1) 
Guanine

>  <CAS_NUMBER>  (1) 
73-40-5

>  <UNII>  (1) 
5Z93L87A1R

$$$$
