
     RDKit          3D

 28 31  0  0  1  0  0  0  0  0999 V2000
   -0.7995   -1.0889   -0.0432 N   0  0  0  0  0  0  0  0  0  0  0  0
   -1.3826    0.1141   -0.0787 N   0  0  0  0  0  0  0  0  0  0  0  0
   -0.3809    0.9190   -0.4514 C   0  0  0  0  0  0  0  0  0  0  0  0
    0.8247    0.1481   -0.4154 N   0  0  0  0  0  0  0  0  0  0  0  0
    0.5522   -1.0626   -0.0641 C   0  0  0  0  0  0  0  0  0  0  0  0
    1.5119   -2.1849    0.0335 C   0  0  0  0  0  0  0  0  0  0  0  0
    1.2758   -3.0306    1.2455 C   0  0  0  0  0  0  0  0  0  0  0  0
   -0.0075   -3.5409    1.4743 C   0  0  0  0  0  0  0  0  0  0  0  0
   -0.2639   -4.4599    2.4615 C   0  0  0  0  0  0  0  0  0  0  0  0
    0.7909   -4.9205    3.2211 C   0  0  0  0  0  0  0  0  0  0  0  0
    2.0838   -4.4416    2.9981 C   0  0  0  0  0  0  0  0  0  0  0  0
    2.3173   -3.4228    2.0795 C   0  0  0  0  0  0  0  0  0  0  0  0
   -0.5593    2.6804   -0.5330 C   0  0  0  0  0  0  0  0  0  0  0  0
   -1.7506    3.0594   -0.3029 O   0  0  0  0  0  0  0  0  0  0  0  0
    0.8899    3.8627   -0.4411 N   0  0  0  0  0  0  0  0  0  0  0  0
    2.7262    3.4139   -0.6853 C   0  0  2  0  0  0  0  0  0  0  0  0
    1.2355    3.1106   -1.0032 C   0  0  0  0  0  0  0  0  0  0  0  0
    0.8119    2.4674    0.7409 N   0  0  0  0  0  0  0  0  0  0  0  0
    0.5544    3.3451    1.9192 C   0  0  0  0  0  0  0  0  0  0  0  0
    1.5927    3.3798    2.8445 C   0  0  0  0  0  0  0  0  0  0  0  0
    2.9019    2.9457    2.5372 O   0  0  0  0  0  0  0  0  0  0  0  0
    3.6752    3.3016    1.0343 C   0  0  0  0  0  0  0  0  0  0  0  0
    1.1940    3.7283    4.1237 C   0  0  0  0  0  0  0  0  0  0  0  0
   -0.1110    4.2607    4.3740 C   0  0  0  0  0  0  0  0  0  0  0  0
   -1.0413    4.4662    3.3673 C   0  0  0  0  0  0  0  0  0  0  0  0
   -0.7299    3.9387    2.1461 C   0  0  0  0  0  0  0  0  0  0  0  0
    1.8963    1.7061    0.7114 C   0  0  0  0  0  0  0  0  0  0  0  0
    0.5393    3.3925   -2.1643 O   0  0  0  0  0  0  0  0  0  0  0  0
  1  2  1  0
  1  5  1  0
  2  3  2  0
  3  4  1  0
  3 13  1  0
  4  5  2  0
  5  6  1  0
  6  7  1  0
  7  8  2  0
  7 12  1  0
  8  9  1  0
  9 10  2  0
 10 11  1  0
 11 12  2  0
 13 14  2  0
 13 15  1  0
 16 15  1  6
 16 22  1  0
 17 16  1  0
 17 28  2  0
 18 17  1  0
 18 27  1  0
 19 18  1  0
 20 19  2  0
 21 20  1  0
 21 22  1  0
 23 20  1  0
 24 23  2  0
 25 24  1  0
 26 25  2  0
 26 19  1  0
M  END
>  <DRUGBANK_ID>  (1) 
DB16875

>  <COMMON_NAME>  (1) 
GSK-2982772

>  <CAS_NUMBER>  (1) 
1622848-92-3

>  <UNII>  (1) 
T5W3M0VO9B

$$$$
