
     RDKit          3D

 22 24  0  0  0  0  0  0  0  0999 V2000
    0.4214    0.1349    0.0649 C   0  0  0  0  0  0  0  0  0  0  0  0
    0.1669    0.0751    1.5104 C   0  0  0  0  0  0  0  0  0  0  0  0
    1.6000   -1.8885    3.6131 C   0  0  0  0  0  0  0  0  0  0  0  0
    2.2252   -2.2980    2.4329 C   0  0  0  0  0  0  0  0  0  0  0  0
    2.1890   -2.1336    4.8358 C   0  0  0  0  0  0  0  0  0  0  0  0
    3.4525   -2.9314    2.4767 C   0  0  0  0  0  0  0  0  0  0  0  0
    3.4758   -2.6580    4.8698 C   0  0  0  0  0  0  0  0  0  0  0  0
    5.2899   -0.1522    3.6430 C   0  0  0  0  0  0  0  0  0  0  0  0
    6.5878   -1.0203    3.8477 C   0  0  0  0  0  0  0  0  0  0  0  0
    5.6218   -3.3348    3.6778 C   0  0  0  0  0  0  0  0  0  0  0  0
    6.5349   -2.1020    1.7188 C   0  0  0  0  0  0  0  0  0  0  0  0
    4.1450   -3.0077    3.6824 C   0  0  0  0  0  0  0  0  0  0  0  0
    4.8257   -0.2058    2.1688 C   0  0  0  0  0  0  0  0  0  0  0  0
    5.5127   -1.0784    1.3382 C   0  0  0  0  0  0  0  0  0  0  0  0
    3.5841    0.3300    1.4579 C   0  0  0  0  0  0  0  0  0  0  0  0
    3.6967   -0.0338    0.0830 C   0  0  0  0  0  0  0  0  0  0  0  0
    2.5274    1.1284    2.2176 C   0  0  0  0  0  0  0  0  0  0  0  0
    3.0428    0.1506   -1.0975 N   0  0  0  0  0  0  0  0  0  0  0  0
    6.5824   -2.3289    3.1643 N   0  0  0  0  0  0  0  0  0  0  0  0
    2.9237    1.9895    3.0274 O   0  0  0  0  0  0  0  0  0  0  0  0
    1.1391    0.9434    2.2007 O   0  0  0  0  0  0  0  0  0  0  0  0
    5.0378   -1.0377   -0.2546 S   0  0  0  0  0  0  0  0  0  0  0  0
  2  1  1  0
  4  3  2  0
  5  3  1  0
  6  4  1  0
  7  5  2  0
  9  8  1  0
 12  6  2  0
 12  7  1  0
 12 10  1  0
 13  8  1  0
 14 11  1  0
 14 13  2  0
 15 13  1  0
 16 15  2  0
 17 15  1  0
 18 16  1  0
 19  9  1  0
 19 10  1  0
 19 11  1  0
 20 17  2  0
 21  2  1  0
 21 17  1  0
 22 14  1  0
 22 16  1  0
M  END
>  <DRUGBANK_ID>  (1) 
DB13001

>  <COMMON_NAME>  (1) 
Tinoridine

>  <CAS_NUMBER>  (1) 
24237-54-5

>  <UNII>  (1) 
C9Z9ICZ7YR

>  <SYNONYMS>  (1) 
Tinoridine

$$$$
