780
     RDKit          3D

 10 10  0  0  0  0  0  0  0  0999 V2000
    0.5916    0.0406    0.1780 N   0  0  0  0  0  0  0  0  0  0  0  0
    0.3433    0.3226   -1.2172 N   0  0  0  0  0  0  0  0  0  0  0  0
    1.0087   -2.4213   -0.5436 C   0  0  0  0  0  0  0  0  0  0  0  0
    2.5227   -2.4581   -0.5413 C   0  0  0  0  0  0  0  0  0  0  0  0
    0.3715   -1.3979    0.4359 C   0  0  0  0  0  0  0  0  0  0  0  0
    3.2855   -1.2890   -0.6399 C   0  0  0  0  0  0  0  0  0  0  0  0
    3.2082   -3.6750   -0.4362 C   0  0  0  0  0  0  0  0  0  0  0  0
    4.6564   -1.2874   -0.4215 C   0  0  0  0  0  0  0  0  0  0  0  0
    4.5968   -3.6867   -0.2765 C   0  0  0  0  0  0  0  0  0  0  0  0
    5.3162   -2.4941   -0.2323 C   0  0  0  0  0  0  0  0  0  0  0  0
  1  2  1  0
  1  5  1  0
  3  4  1  0
  3  5  1  0
  4  6  2  0
  4  7  1  0
  6  8  1  0
  7  9  2  0
  8 10  2  0
  9 10  1  0
M  END
>  <DRUGBANK_ID>  (1) 
DB00780

>  <SECONDARY_ACCESSION_NUMBERS>  (1) 
APRD00099

>  <COMMON_NAME>  (1) 
Phenelzine

>  <CAS_NUMBER>  (1) 
51-71-8

>  <UNII>  (1) 
O408N561GF

>  <SYNONYMS>  (1) 
Fenelzina; Phenelzin; Phenelzine; Ph√©nelzine; Phenelzinum

$$$$
