
     RDKit          3D

 29 32  0  0  0  0  0  0  0  0999 V2000
   -2.8084    3.9764    2.4224 C   0  0  0  0  0  0  0  0  0  0  0  0
   -1.7869    8.5835    0.4463 C   0  0  0  0  0  0  0  0  0  0  0  0
   -3.8094    4.5958    1.0761 C   0  0  2  0  0  0  0  0  0  0  0  0
   -1.5236    4.4955   -0.6672 C   0  0  0  0  0  0  0  0  0  0  0  0
   -4.2328    4.1951    2.5176 C   0  0  0  0  0  0  0  0  0  0  0  0
   -3.1564    7.6327   -2.0457 C   0  0  1  0  0  0  0  0  0  0  0  0
   -2.3154    5.3920   -1.4701 C   0  0  0  0  0  0  0  0  0  0  0  0
   -2.6070    9.6249   -0.7870 C   0  0  0  0  0  0  0  0  0  0  0  0
   -3.0079    9.0946   -2.3285 C   0  0  0  0  0  0  0  0  0  0  0  0
   -2.5334    7.1561   -3.3634 C   0  0  0  0  0  0  0  0  0  0  0  0
   -3.4711    9.4791   -3.6573 C   0  0  0  0  0  0  0  0  0  0  0  0
   -3.3858    6.9631   -4.3665 C   0  0  0  0  0  0  0  0  0  0  0  0
   -2.4384    7.0634    0.5483 C   0  0  1  0  0  0  0  0  0  0  0  0
   -2.2739    6.8292   -1.0232 C   0  0  2  0  0  0  0  0  0  0  0  0
   -1.9533    4.5929    0.7568 C   0  0  2  0  0  0  0  0  0  0  0  0
   -0.7110    3.6829    1.4343 C   0  0  0  0  0  0  0  0  0  0  0  0
   -2.0291    5.6358    1.7567 C   0  0  2  0  0  0  0  0  0  0  0  0
   -2.7740    8.5247   -6.0118 O   0  0  0  0  0  0  0  0  0  0  0  0
   -3.1710    8.3370   -4.9063 C   0  0  0  0  0  0  0  0  0  0  0  0
   -4.6635    7.8276   -1.5886 C   0  0  0  0  0  0  0  0  0  0  0  0
   -4.5278    5.8496    1.0576 O   0  0  0  0  0  0  0  0  0  0  0  0
   -4.2712    3.8647   -0.1414 C   0  0  0  0  0  0  0  0  0  0  0  0
   -2.8813    4.9310   -2.4389 O   0  0  0  0  0  0  0  0  0  0  0  0
   -3.8123    2.7667   -0.4339 O   0  0  0  0  0  0  0  0  0  0  0  0
   -5.1924    4.6612   -1.0527 C   0  0  0  0  0  0  0  0  0  0  0  0
   -6.4289    4.9636   -0.4425 O   0  0  0  0  0  0  0  0  0  0  0  0
   -7.1215    3.9134    0.0597 C   0  0  0  0  0  0  0  0  0  0  0  0
   -6.6347    2.5316   -0.3038 C   0  0  0  0  0  0  0  0  0  0  0  0
   -8.0603    4.0978    0.8036 O   0  0  0  0  0  0  0  0  0  0  0  0
  2  8  1  0
  3  5  1  0
  3 21  1  6
  3 22  1  0
  4  7  1  0
  5  1  1  0
  6  9  1  0
  6 10  1  0
  6 20  1  6
  7 23  2  0
  8  9  1  0
  9 11  2  0
 10 12  2  0
 11 19  1  0
 12 19  1  0
 13 14  1  0
 13  2  1  1
 14  6  1  0
 14  7  1  1
 15  3  1  0
 15  4  1  0
 15 16  1  1
 17 13  1  0
 17 15  1  0
 17  1  1  1
 19 18  2  0
 22 24  2  0
 22 25  1  0
 25 26  1  0
 26 27  1  0
 27 28  1  0
 27 29  2  0
M  END
>  <DRUGBANK_ID>  (1) 
DB14646

>  <SECONDARY_ACCESSION_NUMBERS>  (1) 
DBSALT002337

>  <COMMON_NAME>  (1) 
Prednisone acetate

>  <CAS_NUMBER>  (1) 
125-10-0

>  <UNII>  (1) 
OU93QEL83U

>  <SYNONYMS>  (1) 
1,4-Pregnadien-17Î±,21-diol-3,11,20-trione-21-acetate; 21-Acetoxy-17alpha-hydroxypregna-1,4-diene-3,11,20-trione; Cortancyl; delta'-Dehydrocortisone acetate; delta1-Cortisone-21-acetate; Prednisone 21-acetate; Prednisone-21-acetate

$$$$
