
     RDKit          3D

 19 20  0  0  0  0  0  0  0  0999 V2000
    0.9022    0.1467    0.0129 C   0  0  0  0  0  0  0  0  0  0  0  0
    2.9773   -6.8606   -4.3349 C   0  0  0  0  0  0  0  0  0  0  0  0
    3.0159   -8.3764   -4.2853 C   0  0  0  0  0  0  0  0  0  0  0  0
    2.1342   -6.3108   -3.1936 C   0  0  0  0  0  0  0  0  0  0  0  0
    3.6544   -8.8506   -2.9909 C   0  0  0  0  0  0  0  0  0  0  0  0
    0.5013   -4.5791   -1.1472 C   0  0  0  0  0  0  0  0  0  0  0  0
    2.5770   -3.7890   -0.2082 C   0  0  0  0  0  0  0  0  0  0  0  0
    0.0912   -3.2689   -1.3578 C   0  0  0  0  0  0  0  0  0  0  0  0
    2.1676   -2.4747   -0.4293 C   0  0  0  0  0  0  0  0  0  0  0  0
    2.3102   -6.2034   -0.6659 C   0  0  0  0  0  0  0  0  0  0  0  0
    0.3958   -0.7610   -1.1119 C   0  0  0  0  0  0  0  0  0  0  0  0
    1.7697   -4.8442   -0.6259 C   0  0  0  0  0  0  0  0  0  0  0  0
    0.9018   -2.1922   -0.9707 C   0  0  0  0  0  0  0  0  0  0  0  0
    2.4721   -6.8664   -1.8308 C   0  0  0  0  0  0  0  0  0  0  0  0
    3.0103   -8.2616   -1.7533 C   0  0  0  0  0  0  0  0  0  0  0  0
   -1.1260   -0.6812   -1.1313 C   0  0  0  0  0  0  0  0  0  0  0  0
    3.0078   -8.8860   -0.6924 O   0  0  0  0  0  0  0  0  0  0  0  0
   -1.8152   -0.3175   -2.0769 O   0  0  0  0  0  0  0  0  0  0  0  0
   -1.7079   -1.1475   -0.0050 O   0  0  0  0  0  0  0  0  0  0  0  0
  3  2  1  0
  4  2  1  0
  5  3  1  0
  8  6  2  0
  9  7  1  0
 11  1  1  0
 12  6  1  0
 12  7  2  0
 12 10  1  0
 13  8  1  0
 13  9  2  0
 13 11  1  0
 14  4  1  0
 14 10  2  0
 15  5  1  0
 15 14  1  0
 16 11  1  0
 17 15  2  0
 18 16  2  0
 19 16  1  0
M  END
>  <DRUGBANK_ID>  (1) 
DB12150

>  <COMMON_NAME>  (1) 
Pelubiprofen

>  <CAS_NUMBER>  (1) 
69956-77-0

>  <UNII>  (1) 
1619C79FVJ

>  <SYNONYMS>  (1) 
Pelubiprofen

$$$$
