
     RDKit          3D

 19 21  0  0  0  0  0  0  0  0999 V2000
    1.0450   -0.1524   -0.1787 C   0  0  0  0  0  0  0  0  0  0  0  0
    0.5625    1.2914   -0.0552 C   0  0  0  0  0  0  0  0  0  0  0  0
    1.0551    2.0660   -1.3158 C   0  0  0  0  0  0  0  0  0  0  0  0
   -0.9794    1.3509   -0.0371 C   0  0  0  0  0  0  0  0  0  0  0  0
    1.0729    1.9348    1.2373 C   0  0  0  0  0  0  0  0  0  0  0  0
    1.2488    3.2783    1.2228 C   0  0  0  0  0  0  0  0  0  0  0  0
    1.7436    3.9331    2.3302 C   0  0  0  0  0  0  0  0  0  0  0  0
    1.4879    3.4022    3.5998 C   0  0  0  0  0  0  0  0  0  0  0  0
    1.4124    2.0281    3.6690 C   0  0  0  0  0  0  0  0  0  0  0  0
    1.3267    1.2674    2.4641 C   0  0  0  0  0  0  0  0  0  0  0  0
    0.8412    4.4391    4.5164 C   0  0  0  0  0  0  0  0  0  0  0  0
   -0.2643    5.0566    4.0591 N   0  0  0  0  0  0  0  0  0  0  0  0
    0.2898    6.1525    3.4162 C   0  0  0  0  0  0  0  0  0  0  0  0
    0.0609    6.6389    2.1093 C   0  0  0  0  0  0  0  0  0  0  0  0
    1.0759    7.4043    1.5033 C   0  0  0  0  0  0  0  0  0  0  0  0
    2.2074    7.8035    2.2282 C   0  0  0  0  0  0  0  0  0  0  0  0
    2.4031    7.4179    3.5669 C   0  0  0  0  0  0  0  0  0  0  0  0
    1.4717    6.5039    4.0739 C   0  0  0  0  0  0  0  0  0  0  0  0
    1.5353    5.5329    5.0736 N   0  0  0  0  0  0  0  0  0  0  0  0
  1  2  1  0
  2  3  1  0
  2  4  1  0
  2  5  1  0
  5  6  2  0
  5 10  1  0
  6  7  1  0
  7  8  2  0
  8  9  1  0
  8 11  1  0
  9 10  2  0
 11 12  2  0
 11 19  1  0
 12 13  1  0
 13 14  2  0
 13 18  1  0
 14 15  1  0
 15 16  2  0
 16 17  1  0
 17 18  2  0
 18 19  1  0
M  END
>  <DRUGBANK_ID>  (1) 
DB18108

>  <COMMON_NAME>  (1) 
TQS-168

>  <CAS_NUMBER>  (1) 
49671-76-3

>  <UNII>  (1) 
3WT26285WB

>  <SYNONYMS>  (1) 
2-(4-Tert-butylphenyl)-1H-benzimidazole

$$$$
