
     RDKit          3D

 22 22  0  0  0  0  0  0  0  0999 V2000
    1.0432   -0.0005    0.0902 C   0  0  0  0  0  0  0  0  0  0  0  0
   -0.2607   -0.0005    0.0902 C   0  0  0  0  0  0  0  0  0  0  0  0
   -1.7807   -0.0005    0.0902 C   0  0  0  0  0  0  0  0  0  0  0  0
   -2.3296   -1.3233   -0.0659 C   0  0  0  0  0  0  0  0  0  0  0  0
   -2.0801   -2.0605    1.1979 C   0  0  0  0  0  0  0  0  0  0  0  0
   -1.3325   -1.7800    2.3173 C   0  0  0  0  0  0  0  0  0  0  0  0
   -0.9352   -0.4320    2.6636 C   0  0  0  0  0  0  0  0  0  0  0  0
   -0.7125    0.7023    2.8883 N   0  0  0  0  0  0  0  0  0  0  0  0
   -0.9599   -2.7299    3.4304 C   0  0  0  0  0  0  0  0  0  0  0  0
   -0.5008   -2.2637    4.4784 O   0  0  0  0  0  0  0  0  0  0  0  0
   -1.1435   -4.0916    3.3850 N   0  0  0  0  0  0  0  0  0  0  0  0
   -1.3581   -4.9683    2.3016 C   0  0  0  0  0  0  0  0  0  0  0  0
   -0.7402   -4.7194    1.0684 C   0  0  0  0  0  0  0  0  0  0  0  0
   -1.3508   -5.1380   -0.1244 C   0  0  0  0  0  0  0  0  0  0  0  0
   -2.5257   -5.9043   -0.1010 C   0  0  0  0  0  0  0  0  0  0  0  0
   -3.0661   -6.2719    1.1456 C   0  0  0  0  0  0  0  0  0  0  0  0
   -2.5183   -5.7730    2.3434 C   0  0  0  0  0  0  0  0  0  0  0  0
   -3.2369   -6.2693   -1.3865 C   0  0  0  0  0  0  0  0  0  0  0  0
   -3.2312   -7.6139   -1.5892 F   0  0  0  0  0  0  0  0  0  0  0  0
   -4.5476   -5.8933   -1.4095 F   0  0  0  0  0  0  0  0  0  0  0  0
   -2.6782   -5.7177   -2.5009 F   0  0  0  0  0  0  0  0  0  0  0  0
   -2.9116   -3.1226    1.0517 O   0  0  0  0  0  0  0  0  0  0  0  0
  1  2  3  0
  2  3  1  0
  3  4  1  0
  4  5  1  0
  5  6  2  0
  5 22  1  0
  6  7  1  0
  6  9  1  0
  7  8  3  0
  9 10  2  0
  9 11  1  0
 11 12  1  0
 12 13  2  0
 12 17  1  0
 13 14  1  0
 14 15  2  0
 15 16  1  0
 15 18  1  0
 16 17  2  0
 18 19  1  0
 18 20  1  0
 18 21  1  0
M  END
>  <DRUGBANK_ID>  (1) 
DB06481

>  <COMMON_NAME>  (1) 
Manitimus

>  <CAS_NUMBER>  (1) 
202057-76-9

>  <UNII>  (1) 
4B135RK2KL

>  <SYNONYMS>  (1) 
Manitimus

$$$$
