1230
     RDKit          3D

 13 14  0  0  1  0  0  0  0  0999 V2000
   -0.2810    1.1276    0.0493 O   0  0  0  0  0  0  0  0  0  0  0  0
   -0.5241   -2.3252    0.2613 O   0  0  0  0  0  0  0  0  0  0  0  0
    1.0557   -0.7011   -0.0264 N   0  0  0  0  0  0  0  0  0  0  0  0
    1.9969    1.4218   -0.1712 N   0  0  0  0  0  0  0  0  0  0  0  0
   -1.1867    0.0121   -0.1180 C   0  0  0  0  0  0  0  0  0  0  0  0
   -2.4739    0.0393    0.7021 C   0  0  0  0  0  0  0  0  0  0  0  0
   -0.2272   -1.1497    0.0864 C   0  0  0  0  0  0  0  0  0  0  0  0
   -3.3929    1.0911    0.5318 C   0  0  0  0  0  0  0  0  0  0  0  0
   -2.8884   -1.0478    1.4953 C   0  0  0  0  0  0  0  0  0  0  0  0
    0.9598    0.5772   -0.0479 C   0  0  0  0  0  0  0  0  0  0  0  0
   -4.6612    1.0519    1.1337 C   0  0  0  0  0  0  0  0  0  0  0  0
   -4.1743   -1.1153    2.0417 C   0  0  0  0  0  0  0  0  0  0  0  0
   -5.0504   -0.0504    1.8906 C   0  0  0  0  0  0  0  0  0  0  0  0
  1  5  1  0
  1 10  1  0
  2  7  2  0
  3  7  1  0
  3 10  2  0
  4 10  1  0
  5  6  1  0
  5  7  1  0
  6  8  2  0
  6  9  1  0
  8 11  1  0
  9 12  2  0
 11 13  2  0
 12 13  1  0
M  END
>  <DRUGBANK_ID>  (1) 
DB01230

>  <SECONDARY_ACCESSION_NUMBERS>  (1) 
APRD01169

>  <COMMON_NAME>  (1) 
Pemoline

>  <CAS_NUMBER>  (1) 
2152-34-3

>  <UNII>  (1) 
7GAQ2332NK

>  <SYNONYMS>  (1) 
pemolina; Pemoline

$$$$
