
     RDKit          3D

 21 21  0  0  1  0  0  0  0  0999 V2000
   -0.1644    7.1009   -0.0736 N   0  0  0  0  0  0  0  0  0  0  0  0
   -0.6943    1.6895    2.2022 C   0  0  0  0  0  0  0  0  0  0  0  0
   -1.2596    3.9284    1.8894 C   0  0  0  0  0  0  0  0  0  0  0  0
    1.3481    3.0937    1.2797 C   0  0  1  0  0  0  0  0  0  0  0  0
    1.9317    3.8889    0.0616 C   0  0  0  0  0  0  0  0  0  0  0  0
    2.0433    3.6138    2.6292 C   0  0  0  0  0  0  0  0  0  0  0  0
   -0.3793    2.8564    1.2939 N   0  0  0  0  0  0  0  0  0  0  0  0
   -1.0184    2.6366   -0.0908 C   0  0  0  0  0  0  0  0  0  0  0  0
   -0.4989    6.6912    2.1458 C   0  0  0  0  0  0  0  0  0  0  0  0
    0.4129    5.9483    0.2070 C   0  0  0  0  0  0  0  0  0  0  0  0
    0.3788    5.8709    1.5705 N   0  0  0  0  0  0  0  0  0  0  0  0
    1.0198    4.8669   -0.6782 C   0  0  0  0  0  0  0  0  0  0  0  0
    2.1192    4.9636    2.8888 N   0  0  0  0  0  0  0  0  0  0  0  0
    2.4612    2.8351    3.5069 O   0  0  0  0  0  0  0  0  0  0  0  0
   -0.6407    7.5872    1.1471 C   0  0  0  0  0  0  0  0  0  0  0  0
   -1.1137    8.9236    1.4510 C   0  0  0  0  0  0  0  0  0  0  0  0
   -2.5984    8.9377    1.8229 C   0  0  2  0  0  0  0  0  0  0  0  0
   -2.9305   10.3526    2.0336 N   0  0  0  0  0  0  0  0  0  0  0  0
   -3.3863    8.7985    4.1630 O   0  0  0  0  0  0  0  0  0  0  0  0
   -3.0484    8.0862    3.0622 C   0  0  0  0  0  0  0  0  0  0  0  0
   -3.1335    6.8594    3.0826 O   0  0  0  0  0  0  0  0  0  0  0  0
  4  6  1  0
  4  5  1  6
  4  7  1  0
  5 12  1  0
  6 14  2  0
  6 13  1  0
  7  2  1  0
  7  3  1  0
  7  8  1  0
  9 15  2  0
 10  1  2  0
 10 11  1  0
 11  9  1  0
 12 10  1  0
 15  1  1  0
 15 16  1  0
 16 17  1  0
 17 20  1  0
 17 18  1  1
 20 19  1  0
 20 21  2  0
M  CHG  1   7   1
M  END
>  <DRUGBANK_ID>  (1) 
DB03223

>  <SECONDARY_ACCESSION_NUMBERS>  (1) 
EXPT01142

>  <COMMON_NAME>  (1) 
Diphthamide

>  <CAS_NUMBER>  (1) 
75645-22-6

>  <UNII>  (1) 
86L3ZZ4408

>  <SYNONYMS>  (1) 
2-(3-Carboxyamido-3-(Trimethylammonio)Propyl)Histidine

$$$$
