
     RDKit          3D

 18 18  0  0  0  0  0  0  0  0999 V2000
    0.9272    0.0852    0.0734 C   0  0  0  0  0  0  0  0  0  0  0  0
   -1.1491   -2.1914   -1.8760 C   0  0  0  0  0  0  0  0  0  0  0  0
   -2.5726    2.5973   -2.1274 C   0  0  0  0  0  0  0  0  0  0  0  0
    0.4389    0.3854   -1.3405 C   0  0  0  0  0  0  0  0  0  0  0  0
    0.3690   -2.0948   -1.9795 C   0  0  0  0  0  0  0  0  0  0  0  0
   -2.6378    0.2809   -7.7433 C   0  0  0  0  0  0  0  0  0  0  0  0
   -1.4894   -0.4967   -7.6254 C   0  0  0  0  0  0  0  0  0  0  0  0
   -3.1624    0.9271   -6.6188 C   0  0  0  0  0  0  0  0  0  0  0  0
   -0.8803   -0.6529   -6.3812 C   0  0  0  0  0  0  0  0  0  0  0  0
    0.8791   -0.6883   -2.3461 C   0  0  0  0  0  0  0  0  0  0  0  0
   -2.5019    0.8628   -5.3769 C   0  0  0  0  0  0  0  0  0  0  0  0
   -1.3754    0.0330   -5.2646 C   0  0  0  0  0  0  0  0  0  0  0  0
    0.5540   -0.3033   -3.7885 C   0  0  0  0  0  0  0  0  0  0  0  0
   -2.9861    1.7690   -4.2930 C   0  0  0  0  0  0  0  0  0  0  0  0
    1.4083   -0.1209   -4.6474 O   0  0  0  0  0  0  0  0  0  0  0  0
   -3.9406    2.5271   -4.4368 O   0  0  0  0  0  0  0  0  0  0  0  0
   -2.2108    1.7073   -3.1851 O   0  0  0  0  0  0  0  0  0  0  0  0
   -0.8161   -0.1982   -3.9871 O   0  0  0  0  0  0  0  0  0  0  0  0
  4  1  1  0
  5  2  1  0
  7  6  2  0
  8  6  1  0
  9  7  1  0
 10  4  1  0
 10  5  1  0
 11  8  2  0
 12  9  2  0
 12 11  1  0
 13 10  1  0
 14 11  1  0
 15 13  2  0
 16 14  2  0
 17  3  1  0
 17 14  1  0
 18 12  1  0
 18 13  1  0
M  END
>  <DRUGBANK_ID>  (1) 
DB14130

>  <COMMON_NAME>  (1) 
Methyl salicylate 2-ethylbutyrate

>  <CAS_NUMBER>  (1) 
85005-92-1

>  <UNII>  (1) 
J8D9175Q0G

>  <SYNONYMS>  (1) 
Methyl diethylacetylsalicylate; Salicylic acid, methyl ester, 2-ethylbutyrate

$$$$
