
     RDKit          3D

 21 24  0  0  0  0  0  0  0  0999 V2000
   -0.6293   -2.5688    9.6161 O   0  0  0  0  0  0  0  0  0  0  0  0
   -6.0164   -6.7807    2.2725 O   0  0  0  0  0  0  0  0  0  0  0  0
   -1.0067   -2.9033    6.2234 C   0  0  2  0  0  0  0  0  0  0  0  0
    0.3044   -3.1037    6.8673 C   0  0  2  0  0  0  0  0  0  0  0  0
   -1.4695   -3.1845    4.8654 C   0  0  1  0  0  0  0  0  0  0  0  0
   -1.2481   -4.6816    4.6815 C   0  0  1  0  0  0  0  0  0  0  0  0
   -2.5165   -5.3520    3.8563 C   0  0  2  0  0  0  0  0  0  0  0  0
    0.9212   -4.4104    6.0776 C   0  0  0  0  0  0  0  0  0  0  0  0
    0.3450   -4.6721    4.5666 C   0  0  0  0  0  0  0  0  0  0  0  0
   -0.9368   -3.0475    8.3235 C   0  0  2  0  0  0  0  0  0  0  0  0
   -1.3841   -1.5336    6.8010 C   0  0  0  0  0  0  0  0  0  0  0  0
   -2.9318   -2.9729    4.8981 C   0  0  0  0  0  0  0  0  0  0  0  0
   -2.1986   -2.0665    7.8828 C   0  0  0  0  0  0  0  0  0  0  0  0
   -3.2266   -4.5589    2.8053 C   0  0  0  0  0  0  0  0  0  0  0  0
   -3.4592   -3.1563    3.4615 C   0  0  0  0  0  0  0  0  0  0  0  0
    1.0898   -1.9229    6.0156 C   0  0  0  0  0  0  0  0  0  0  0  0
   -4.2663   -5.3615    4.6483 C   0  0  0  0  0  0  0  0  0  0  0  0
   -1.6017   -6.2570    2.8759 C   0  0  0  0  0  0  0  0  0  0  0  0
   -5.6563   -4.9817    3.7301 C   0  0  0  0  0  0  0  0  0  0  0  0
   -3.9988   -5.4691    2.0766 C   0  0  0  0  0  0  0  0  0  0  0  0
   -5.3821   -5.8203    2.5724 C   0  0  0  0  0  0  0  0  0  0  0  0
  2 21  2  0
  3  4  1  0
  3  5  1  0
  3 11  1  6
  4  8  1  0
  4 10  1  0
  4 16  1  1
  5  6  1  0
  5 12  1  1
  6  7  1  0
  6  9  1  6
  7 14  1  0
  7 17  1  0
  7 18  1  6
  8  9  1  0
 10  1  1  1
 10 13  1  0
 11 13  1  0
 12 15  1  0
 14 15  1  0
 14 20  2  0
 17 19  1  0
 19 21  1  0
 20 21  1  0
M  END
>  <DRUGBANK_ID>  (1) 
DB00624

>  <SECONDARY_ACCESSION_NUMBERS>  (1) 
APRD00433; DB05720; DB05275

>  <COMMON_NAME>  (1) 
Testosterone

>  <CAS_NUMBER>  (1) 
58-22-0

>  <UNII>  (1) 
3XMK78S47O

>  <SYNONYMS>  (1) 
17beta-hydroxy-4-androsten-3-one; 4-androsten-17β-ol-3-one; Testosteron; Testosterona; Testosterone; Testostérone; Testosteronum; Virosterone

$$$$
