PFI
     RDKit          3D

 26 28  0  0  0  0  0  0  0  0999 V2000
    1.9127   -0.1514   -0.0884 F   0  0  0  0  0  0  0  0  0  0  0  0
    0.6377    0.2110   -0.2979 C   0  0  0  0  0  0  0  0  0  0  0  0
    0.0921    1.4198   -0.0599 C   0  0  0  0  0  0  0  0  0  0  0  0
    0.8472    2.5427    0.0564 O   0  0  0  0  0  0  0  0  0  0  0  0
    2.2950    2.3932   -0.0258 C   0  0  0  0  0  0  0  0  0  0  0  0
    2.8767    1.8010    1.2760 C   0  0  0  0  0  0  0  0  0  0  0  0
    2.8588    1.8005   -1.3508 C   0  0  0  0  0  0  0  0  0  0  0  0
   -1.3118    1.4352    0.0149 C   0  0  0  0  0  0  0  0  0  0  0  0
   -2.0932    0.2403   -0.0404 C   0  0  0  0  0  0  0  0  0  0  0  0
   -1.4927   -0.9604   -0.3359 C   0  0  0  0  0  0  0  0  0  0  0  0
   -0.1506   -0.8322   -0.6336 C   0  0  0  0  0  0  0  0  0  0  0  0
   -2.1458   -2.3229   -0.1777 C   0  0  0  0  0  0  0  0  0  0  0  0
   -1.6984   -3.3297   -1.2290 C   0  0  0  0  0  0  0  0  0  0  0  0
   -0.1793   -3.6922   -1.2116 C   0  0  2  0  0  0  0  0  0  0  0  0
    0.0461   -5.1056   -1.7455 C   0  0  0  0  0  0  0  0  0  0  0  0
    0.6126   -3.6385    0.2348 C   0  0  0  0  0  0  0  0  0  0  0  0
    0.4199   -2.6315    1.4178 C   0  0  0  0  0  0  0  0  0  0  0  0
    2.1360   -3.5947    0.0147 C   0  0  0  0  0  0  0  0  0  0  0  0
    2.7463   -3.2580    1.3681 C   0  0  0  0  0  0  0  0  0  0  0  0
    1.7306   -2.4551    2.1424 C   0  0  0  0  0  0  0  0  0  0  0  0
    0.3055   -2.7319   -2.2343 O   0  0  0  0  0  0  0  0  0  0  0  0
    1.1831   -2.8401   -3.2166 C   0  0  0  0  0  0  0  0  0  0  0  0
    1.6730   -1.8612   -3.7929 O   0  0  0  0  0  0  0  0  0  0  0  0
    1.4727   -4.2011   -3.6059 C   0  0  0  0  0  0  0  0  0  0  0  0
    0.9315   -5.2255   -2.9368 C   0  0  0  0  0  0  0  0  0  0  0  0
    1.1808   -6.5357   -3.2624 O   0  0  0  0  0  0  0  0  0  0  0  0
  1  2  1  0
  2  3  2  0
  2 11  1  0
  3  4  1  0
  3  8  1  0
  4  5  1  0
  5  6  1  0
  5  7  1  0
  8  9  2  0
  9 10  1  0
 10 11  2  0
 10 12  1  0
 12 13  1  0
 14 13  1  1
 14 15  1  0
 14 16  1  0
 14 21  1  0
 15 25  1  0
 16 17  1  0
 16 18  1  0
 17 20  1  0
 18 19  1  0
 19 20  1  0
 21 22  1  0
 22 23  2  0
 22 24  1  0
 24 25  2  0
 25 26  1  0
M  END
>  <DRUGBANK_ID>  (1) 
DB08390

>  <COMMON_NAME>  (1) 
(6S)-6-CYCLOPENTYL-6-[2-(3-FLUORO-4-ISOPROPOXYPHENYL)ETHYL]-4-HYDROXY-5,6-DIHYDRO-2H-PYRAN-2-ONE

$$$$
