
     RDKit          3D

 21 22  0  0  0  0  0  0  0  0999 V2000
   -1.3565    0.5315   -0.2927 C   0  0  0  0  0  0  0  0  0  0  0  0
   -1.1686   -0.8641   -0.2860 C   0  0  0  0  0  0  0  0  0  0  0  0
    0.0163    1.6449   -0.5917 S   0  0  0  0  0  0  0  0  0  0  0  0
   -2.6297    1.1234   -0.1313 C   0  0  0  0  0  0  0  0  0  0  0  0
    0.0184   -1.5154   -0.4109 N   0  0  0  0  0  0  0  0  0  0  0  0
   -2.3309   -1.5970   -0.1183 C   0  0  0  0  0  0  0  0  0  0  0  0
    1.3976    0.5283   -0.3452 C   0  0  0  0  0  0  0  0  0  0  0  0
   -3.8097    0.3812   -0.0424 C   0  0  0  0  0  0  0  0  0  0  0  0
    1.2115   -0.8674   -0.3348 C   0  0  0  0  0  0  0  0  0  0  0  0
   -3.6146   -1.0083   -0.0149 C   0  0  0  0  0  0  0  0  0  0  0  0
    2.6678    1.1205   -0.1707 C   0  0  0  0  0  0  0  0  0  0  0  0
   -5.0708    0.9629    0.0050 N   0  0  0  0  0  0  0  0  0  0  0  0
    2.3764   -1.6016   -0.1878 C   0  0  0  0  0  0  0  0  0  0  0  0
    3.8465    0.3800   -0.0620 C   0  0  0  0  0  0  0  0  0  0  0  0
   -5.2913    2.4056   -0.0450 C   0  0  0  0  0  0  0  0  0  0  0  0
   -6.2743    0.1381   -0.0155 C   0  0  0  0  0  0  0  0  0  0  0  0
    3.6570   -1.0110   -0.0661 C   0  0  0  0  0  0  0  0  0  0  0  0
    5.1019    0.9657    0.0453 N   0  0  0  0  0  0  0  0  0  0  0  0
    5.3152    2.4098    0.0620 C   0  0  0  0  0  0  0  0  0  0  0  0
    6.3043    0.1419    0.0405 C   0  0  0  0  0  0  0  0  0  0  0  0
    0.3189    0.2042    3.1894 Cl  0  0  0  0  0  0  0  0  0  0  0  0
  1  2  1  0
  1  3  2  0
  1  4  1  0
  2  5  2  0
  2  6  1  0
  3  7  1  0
  4  8  2  0
  5  9  1  0
  6 10  2  0
  7 11  2  0
  7  9  1  0
  8 12  1  0
  8 10  1  0
  9 13  2  0
 11 14  1  0
 12 15  1  0
 12 16  1  0
 13 17  1  0
 14 18  1  0
 14 17  2  0
 18 19  1  0
 18 20  1  0
M  CHG  2   3   1  21  -1
M  END
>  <DRUGBANK_ID>  (1) 
DB09241

>  <COMMON_NAME>  (1) 
Methylene blue

>  <CAS_NUMBER>  (1) 
61-73-4

>  <UNII>  (1) 
8NAP7826UB

>  <SYNONYMS>  (1) 
Azul de metileno; Basic Blue 9; C.I. basic blue 9; Chlorure de m√©thylthioninium; Cloruro de metiltioninio; Lowacryl blue 9; Methylene blue; Methylene blue anhydrous; Methylenium ceruleum; Methylthioninii chloridum; Methylthioninium chloride; Solvent blue 8; Swiss blue

$$$$
