INW
     RDKit          3D

 22 23  0  0  0  0  0  0  0  0999 V2000
    1.2142   -0.3104    0.2111 C   0  0  0  0  0  0  0  0  0  0  0  0
    0.3472   -1.3735    0.0632 C   0  0  0  0  0  0  0  0  0  0  0  0
   -1.0007   -1.1185   -0.0217 C   0  0  0  0  0  0  0  0  0  0  0  0
   -1.4604    0.2022   -0.0176 C   0  0  0  0  0  0  0  0  0  0  0  0
   -0.5341    1.2694   -0.0015 C   0  0  0  0  0  0  0  0  0  0  0  0
    0.8457    1.0211    0.0179 C   0  0  0  0  0  0  0  0  0  0  0  0
    1.8092    2.1647   -0.2099 C   0  0  0  0  0  0  0  0  0  0  0  0
    1.3670    3.3103   -0.3135 O   0  0  0  0  0  0  0  0  0  0  0  0
    3.1666    1.9905   -0.3818 N   0  0  0  0  0  0  0  0  0  0  0  0
    3.9829    0.8037   -0.4033 C   0  0  0  0  0  0  0  0  0  0  0  0
   -2.0677   -2.5209   -0.0065 S   0  0  0  0  0  0  0  0  0  0  0  0
   -2.9178   -2.3278    1.4324 N   0  0  0  0  0  0  0  0  0  0  0  0
   -2.9863   -2.4158   -1.1024 O   0  0  0  0  0  0  0  0  0  0  0  0
   -1.2550   -3.7059    0.2133 O   0  0  0  0  0  0  0  0  0  0  0  0
    4.6022    0.4280   -1.7008 C   0  0  0  0  0  0  0  0  0  0  0  0
    5.2627    1.3797   -2.4563 C   0  0  0  0  0  0  0  0  0  0  0  0
    5.9356    1.0156   -3.6044 C   0  0  0  0  0  0  0  0  0  0  0  0
    5.9628   -0.3235   -3.9801 C   0  0  0  0  0  0  0  0  0  0  0  0
    5.3220   -1.3057   -3.2345 C   0  0  0  0  0  0  0  0  0  0  0  0
    4.5973   -0.9249   -2.1151 C   0  0  0  0  0  0  0  0  0  0  0  0
    6.6110   -0.6754   -5.0955 F   0  0  0  0  0  0  0  0  0  0  0  0
    5.2471    2.6618   -2.0680 F   0  0  0  0  0  0  0  0  0  0  0  0
  1  2  2  0
  1  6  1  0
  2  3  1  0
  3  4  2  0
  3 11  1  0
  4  5  1  0
  5  6  2  0
  6  7  1  0
  7  8  2  0
  7  9  1  0
  9 10  1  0
 10 15  1  0
 11 12  1  0
 11 13  2  0
 11 14  2  0
 15 16  2  0
 15 20  1  0
 16 17  1  0
 16 22  1  0
 17 18  2  0
 18 19  1  0
 18 21  1  0
 19 20  2  0
M  END
>  <DRUGBANK_ID>  (1) 
DB04180

>  <SECONDARY_ACCESSION_NUMBERS>  (1) 
EXPT01896

>  <COMMON_NAME>  (1) 
4-(Aminosulfonyl)-N-[(2,4-Difluorophenyl)Methyl]-Benzamide

$$$$
