
     RDKit          3D

 13 12  0  0  0  0  0  0  0  0999 V2000
    1.0470    0.0360   -0.0097 O   0  0  0  0  0  0  0  0  0  0  0  0
    0.4716    0.5655    1.0904 C   0  0  0  0  0  0  0  0  0  0  0  0
    1.1282    0.8861    2.0609 O   0  0  0  0  0  0  0  0  0  0  0  0
   -1.0566    0.5276    1.0497 C   0  0  1  0  0  0  0  0  0  0  0  0
   -1.6159    1.3317   -0.0344 N   0  0  0  0  0  0  0  0  0  0  0  0
   -1.4962   -0.9283    0.9321 C   0  0  0  0  0  0  0  0  0  0  0  0
   -0.9292   -1.7112    2.1240 C   0  0  0  0  0  0  0  0  0  0  0  0
   -1.6040   -1.3158    3.4392 C   0  0  0  0  0  0  0  0  0  0  0  0
   -3.1396   -1.3638    3.4384 C   0  0  0  0  0  0  0  0  0  0  0  0
   -3.7157   -2.7805    3.2520 N   0  0  0  0  0  0  0  0  0  0  0  0
   -3.2214   -3.6633    4.3882 C   0  0  0  0  0  0  0  0  0  0  0  0
   -5.2380   -2.6941    3.2958 C   0  0  0  0  0  0  0  0  0  0  0  0
   -3.4045   -3.4460    1.9166 C   0  0  0  0  0  0  0  0  0  0  0  0
  2  1  1  0
  3  2  2  0
  4  2  1  0
  4  5  1  6
  6  4  1  0
  7  6  1  0
  8  7  1  0
  9  8  1  0
 10  9  1  0
 11 10  1  0
 12 10  1  0
 13 10  1  0
M  CHG  1  10   1
M  END
>  <DRUGBANK_ID>  (1) 
DB03977

>  <SECONDARY_ACCESSION_NUMBERS>  (1) 
EXPT02087

>  <COMMON_NAME>  (1) 
Trimethyllysine

>  <CAS_NUMBER>  (1) 
19253-88-4

>  <UNII>  (1) 
3YGF0495O2

>  <SYNONYMS>  (1) 
(S)-2-amino-6-(trimethylammonio)hexanoic acid; (S)-5-amino-5-carboxy-N,N,N-trimethyl-1-pentanaminium; epsilon-N-Trimethyl-L-lysine; epsilon-Trimethyl-L-lysine; epsilon-Trimethyllysine; N-Trimethyllysine; N6,N6,N6-Trimethyl-L-lysine; Nε-trimethyllysine; trimethyllysine; ε-N-trimethyl-L-lysine; ε-trimethyl-L-lysine; ε-trimethyllysine

$$$$
