
     RDKit          3D

 12 12  0  0  0  0  0  0  0  0999 V2000
    0.7312    1.6353    0.0389 C   0  0  0  0  0  0  0  0  0  0  0  0
   -0.7834    1.4395    0.2500 C   0  0  0  0  0  0  0  0  0  0  0  0
   -1.3954    0.1620   -0.2077 N   0  0  0  0  0  0  0  0  0  0  0  0
    1.4005    0.6020    0.7608 O   0  0  0  0  0  0  0  0  0  0  0  0
    0.9360   -0.5978    0.1970 C   0  0  0  0  0  0  0  0  0  0  0  0
   -0.6201   -0.9099    0.4310 C   0  0  0  0  0  0  0  0  0  0  0  0
   -0.2507   -0.4905   -2.4732 C   0  0  0  0  0  0  0  0  0  0  0  0
   -1.5067   -0.0944   -1.6708 C   0  0  0  0  0  0  0  0  0  0  0  0
   -0.2242   -3.3042   -2.8669 O   0  0  0  0  0  0  0  0  0  0  0  0
    1.9977   -2.2211   -2.3454 O   0  0  0  0  0  0  0  0  0  0  0  0
    0.5473   -2.3494   -2.1474 S   0  0  0  0  0  0  0  0  0  0  0  0
    0.4263   -2.8824   -0.5953 O   0  0  0  0  0  0  0  0  0  0  0  0
  1  4  1  0
  2  1  1  0
  3  2  1  0
  3  6  1  0
  4  5  1  0
  5  6  1  0
  7  8  1  0
  8  3  1  0
 11  7  1  0
 11  9  2  0
 11 10  2  0
 11 12  1  0
M  END
>  <DRUGBANK_ID>  (1) 
DB03814

>  <SECONDARY_ACCESSION_NUMBERS>  (1) 
EXPT02154

>  <COMMON_NAME>  (1) 
2-(N-morpholino)ethanesulfonic acid

>  <CAS_NUMBER>  (1) 
4432-31-9

>  <UNII>  (1) 
2GNK67Q0C4

>  <SYNONYMS>  (1) 
2-(4-morpholinyl)ethanesulfonic acid; 2-(morpholin-4-yl)ethanesulfonic acid; 2-(N-morpholino)ethanesulfonic acid; 2-morpholinoethanesulphonic acid; 4-morpholineethanesulfonic acid; 4-morpholinethanesulfonic acid; MES

$$$$
