
     RDKit          3D

 26 28  0  0  0  0  0  0  0  0999 V2000
    0.8799    0.0514   -0.1331 C   0  0  0  0  0  0  0  0  0  0  0  0
    0.4324   -1.4024   -0.1266 C   0  0  0  0  0  0  0  0  0  0  0  0
    0.9321   -2.2098    1.0890 C   0  0  0  0  0  0  0  0  0  0  0  0
    0.4349   -1.6939    2.3617 N   0  0  0  0  0  0  0  0  0  0  0  0
   -0.1517   -2.5278    3.3874 C   0  0  0  0  0  0  0  0  0  0  0  0
   -0.5007   -1.5014    4.4235 C   0  0  0  0  0  0  0  0  0  0  0  0
   -0.0455   -0.2753    4.1038 C   0  0  0  0  0  0  0  0  0  0  0  0
    0.7672   -0.4619    2.8939 C   0  0  0  0  0  0  0  0  0  0  0  0
    1.5935    0.3485    2.5026 O   0  0  0  0  0  0  0  0  0  0  0  0
   -0.1727    0.9908    4.8172 C   0  0  0  0  0  0  0  0  0  0  0  0
   -0.8615    2.0727    4.2512 C   0  0  0  0  0  0  0  0  0  0  0  0
   -1.0537    3.2454    4.9880 C   0  0  0  0  0  0  0  0  0  0  0  0
   -0.5540    3.3515    6.2909 C   0  0  0  0  0  0  0  0  0  0  0  0
    0.1516    2.2768    6.8420 C   0  0  0  0  0  0  0  0  0  0  0  0
    0.3488    1.1112    6.1062 C   0  0  0  0  0  0  0  0  0  0  0  0
   -0.7532    4.6003    7.0954 C   0  0  0  0  0  0  0  0  0  0  0  0
   -1.1420   -1.8079    5.7069 C   0  0  0  0  0  0  0  0  0  0  0  0
   -0.5094   -2.6679    6.6145 C   0  0  0  0  0  0  0  0  0  0  0  0
   -0.9969   -2.8182    7.9200 C   0  0  0  0  0  0  0  0  0  0  0  0
   -2.1201   -2.0969    8.3275 C   0  0  0  0  0  0  0  0  0  0  0  0
   -2.7353   -1.2032    7.4459 C   0  0  0  0  0  0  0  0  0  0  0  0
   -2.2760   -1.0987    6.1290 C   0  0  0  0  0  0  0  0  0  0  0  0
   -2.8881   -2.3539    9.9149 S   0  0  0  0  0  0  0  0  0  0  0  0
   -2.7399   -1.1205   10.6626 O   0  0  0  0  0  0  0  0  0  0  0  0
   -4.1993   -2.9107    9.6376 O   0  0  0  0  0  0  0  0  0  0  0  0
   -1.9604   -3.6073   10.7588 C   0  0  0  0  0  0  0  0  0  0  0  0
  1  2  1  0
  2  3  1  0
  3  4  1  0
  4  5  1  0
  4  8  1  0
  5  6  1  0
  6  7  2  0
  6 17  1  0
  7  8  1  0
  7 10  1  0
  8  9  2  0
 10 11  2  0
 10 15  1  0
 11 12  1  0
 12 13  2  0
 13 14  1  0
 13 16  1  0
 14 15  2  0
 17 18  2  0
 17 22  1  0
 18 19  1  0
 19 20  2  0
 20 21  1  0
 20 23  1  0
 21 22  2  0
 23 24  2  0
 23 25  2  0
 23 26  1  0
M  END
>  <DRUGBANK_ID>  (1) 
DB12354

>  <COMMON_NAME>  (1) 
Imrecoxib

>  <CAS_NUMBER>  (1) 
395683-14-4

>  <UNII>  (1) 
SGW6W5758V

$$$$
