
     RDKit          3D

 33 36  0  0  0  0  0  0  0  0999 V2000
    1.0308   -0.1053   -0.1011 C   0  0  0  0  0  0  0  0  0  0  0  0
    0.6012    1.2015   -0.6840 C   0  0  0  0  0  0  0  0  0  0  0  0
   -0.0581    1.2721   -1.9299 C   0  0  0  0  0  0  0  0  0  0  0  0
   -0.2120    2.5000   -2.5846 C   0  0  0  0  0  0  0  0  0  0  0  0
    0.1076    3.6761   -1.9085 C   0  0  0  0  0  0  0  0  0  0  0  0
    0.4574    3.5591   -0.5570 C   0  0  0  0  0  0  0  0  0  0  0  0
    0.8815    2.3706    0.0116 C   0  0  0  0  0  0  0  0  0  0  0  0
    1.5774    2.3980    1.2911 C   0  0  0  0  0  0  0  0  0  0  0  0
    2.1781    2.4019    2.3298 C   0  0  0  0  0  0  0  0  0  0  0  0
    2.8858    2.3840    3.5952 C   0  0  0  0  0  0  0  0  0  0  0  0
    3.2328    3.5591    4.2544 C   0  0  0  0  0  0  0  0  0  0  0  0
    3.9317    3.5125    5.4770 C   0  0  0  0  0  0  0  0  0  0  0  0
    4.2598    2.2546    6.0242 C   0  0  0  0  0  0  0  0  0  0  0  0
    5.0400    2.2293    7.1788 C   0  0  0  0  0  0  0  0  0  0  0  0
    5.6369    3.3918    7.6744 C   0  0  0  0  0  0  0  0  0  0  0  0
    5.2149    4.6279    7.2056 C   0  0  0  0  0  0  0  0  0  0  0  0
    4.3253    4.6875    6.1368 C   0  0  0  0  0  0  0  0  0  0  0  0
    3.8872    1.1090    5.4214 N   0  0  0  0  0  0  0  0  0  0  0  0
    3.2383    1.1974    4.2241 C   0  0  0  0  0  0  0  0  0  0  0  0
    0.1120    4.9733   -2.6653 C   0  0  0  0  0  0  0  0  0  0  0  0
   -0.3364    5.0145   -3.8126 O   0  0  0  0  0  0  0  0  0  0  0  0
    0.7115    6.1197   -2.1526 N   0  0  0  0  0  0  0  0  0  0  0  0
    0.9998    6.3258   -0.8060 N   0  0  0  0  0  0  0  0  0  0  0  0
    1.2150    7.4926   -0.1342 C   0  0  0  0  0  0  0  0  0  0  0  0
    1.4920    7.4428    1.0624 O   0  0  0  0  0  0  0  0  0  0  0  0
    1.1481    8.7718   -0.8311 C   0  0  0  0  0  0  0  0  0  0  0  0
    0.0187    9.1246   -1.5932 C   0  0  0  0  0  0  0  0  0  0  0  0
   -1.2048    8.2585   -1.7506 C   0  0  0  0  0  0  0  0  0  0  0  0
    0.0103   10.3829   -2.1932 C   0  0  0  0  0  0  0  0  0  0  0  0
    0.9501   11.3410   -1.8177 C   0  0  0  0  0  0  0  0  0  0  0  0
    2.0907   10.9698   -1.1122 C   0  0  0  0  0  0  0  0  0  0  0  0
    2.2213    9.6629   -0.6628 C   0  0  0  0  0  0  0  0  0  0  0  0
    3.7357    9.2107    0.0468 Cl  0  0  0  0  0  0  0  0  0  0  0  0
  1  2  1  0
  2  3  2  0
  2  7  1  0
  3  4  1  0
  4  5  2  0
  5  6  1  0
  5 20  1  0
  6  7  2  0
  7  8  1  0
  8  9  3  0
  9 10  1  0
 10 11  2  0
 10 19  1  0
 11 12  1  0
 12 13  2  0
 12 17  1  0
 13 14  1  0
 13 18  1  0
 14 15  2  0
 15 16  1  0
 16 17  2  0
 18 19  2  0
 20 21  2  0
 20 22  1  0
 22 23  1  0
 23 24  1  0
 24 25  2  0
 24 26  1  0
 26 27  2  0
 26 32  1  0
 27 28  1  0
 27 29  1  0
 29 30  2  0
 30 31  1  0
 31 32  2  0
 32 33  1  0
M  END
>  <DRUGBANK_ID>  (1) 
DB17141

>  <COMMON_NAME>  (1) 
Vodobatinib

>  <CAS_NUMBER>  (1) 
1388803-90-4

>  <UNII>  (1) 
N8Q12KU2SW

>  <SYNONYMS>  (1) 
2-chloro-6-methyl-n'-(4-methyl-3-(2-(quinolin-3-yl)ethynyl)benzoyl)benzohydrazide; 4-methyl-3-quinolin-3-yl-ethynyl benzoic acid n'-(2-chloro-6-methylbenzoyl)hydrazide; 4-methyl-3-quinolin-3-ylethynylbenzoic acid n'-(2-chloro-6-methylbenzoyl) hydrazide; Benzoic acid, 2-chloro-6-methyl-, 2-(4-methyl-3-(2-(3-quinolinyl)ethynyl)benzoyl)hydrazide

$$$$
