
     RDKit          3D

 16 17  0  0  1  0  0  0  0  0999 V2000
    1.0433    0.1068   -0.1117 O   0  0  0  0  0  0  0  0  0  0  0  0
    0.5740    1.3270    0.4527 C   0  0  0  0  0  0  0  0  0  0  0  0
    1.1092    1.6147    1.8629 C   0  0  1  0  0  0  0  0  0  0  0  0
    1.5175    0.3736    2.4595 O   0  0  0  0  0  0  0  0  0  0  0  0
    2.9265    0.4249    2.7082 C   0  0  2  0  0  0  0  0  0  0  0  0
    3.5188    1.5786    1.8947 C   0  0  2  0  0  0  0  0  0  0  0  0
    4.6663    2.1579    2.5196 O   0  0  0  0  0  0  0  0  0  0  0  0
    2.3313    2.5436    1.8752 C   0  0  2  0  0  0  0  0  0  0  0  0
    2.3380    3.3733    3.0529 O   0  0  0  0  0  0  0  0  0  0  0  0
    3.4605   -0.9201    2.6279 N   0  0  0  0  0  0  0  0  0  0  0  0
    3.8682   -1.5750    1.4723 C   0  0  0  0  0  0  0  0  0  0  0  0
    4.3845   -2.8072    1.5443 C   0  0  0  0  0  0  0  0  0  0  0  0
    4.1669   -3.4754    2.8302 C   0  0  0  0  0  0  0  0  0  0  0  0
    3.7526   -2.9128    3.9089 N   0  0  0  0  0  0  0  0  0  0  0  0
    3.5052   -1.5702    3.8754 C   0  0  0  0  0  0  0  0  0  0  0  0
    3.3208   -0.9563    4.9304 O   0  0  0  0  0  0  0  0  0  0  0  0
  1  2  1  0
  3  2  1  6
  3  4  1  0
  3  8  1  0
  4  5  1  0
  5  6  1  0
  5 10  1  6
  6  7  1  1
  6  8  1  0
  8  9  1  1
 10 11  1  0
 10 15  1  0
 11 12  2  0
 12 13  1  0
 13 14  2  0
 14 15  1  0
 15 16  2  0
M  END
>  <DRUGBANK_ID>  (1) 
DB03068

>  <SECONDARY_ACCESSION_NUMBERS>  (1) 
EXPT03280

>  <COMMON_NAME>  (1) 
Zebularine

>  <CAS_NUMBER>  (1) 
3690-10-6

>  <UNII>  (1) 
7A9Y5SX0GY

>  <SYNONYMS>  (1) 
1-beta-D-ribofuranosyl-2(1H)-pyrimidinone; 1-beta-D-ribofuranosylpyrimidin-2(1H)-one; 4-deoxyuridine; Pyrimidin-2-one beta-D-ribofuranoside; pyrimidin-2-one beta-ribofuranoside; Pyrimidin-2-one ribonucleoside

$$$$
