
     RDKit          3D

  1  0  0  0  0  0  0  0  0  0999 V2000
    0.9751   -0.2472    0.0456 P   0  0  0  0  0  0  0  0  0  0  0  0
M  ISO  1   1  32
M  END
>  <DRUGBANK_ID>  (1) 
DB14551

>  <COMMON_NAME>  (1) 
Phosphorus P-32

>  <CAS_NUMBER>  (1) 
14596-37-3

>  <UNII>  (1) 
690284A407

>  <SYNONYMS>  (1) 
P-32; Phosphorus-32; Phosphorus, P-32

$$$$
