
     RDKit          3D

 14 15  0  0  1  0  0  0  0  0999 V2000
    2.2162   -0.6674   -0.0036 C   0  0  0  0  0  0  0  0  0  0  0  0
    2.1848    0.7249   -0.0179 C   0  0  0  0  0  0  0  0  0  0  0  0
    1.0314   -1.4064    0.0260 C   0  0  0  0  0  0  0  0  0  0  0  0
    0.9741    1.4225    0.0027 C   0  0  0  0  0  0  0  0  0  0  0  0
   -2.0384   -2.5864   -0.0194 C   0  0  0  0  0  0  0  0  0  0  0  0
   -2.3253   -0.0150   -0.1895 C   0  0  0  0  0  0  0  0  0  0  0  0
   -4.2500   -2.0556    1.1958 C   0  0  0  0  0  0  0  0  0  0  0  0
   -1.5638   -1.1608   -0.0527 C   0  0  0  0  0  0  0  0  0  0  0  0
   -2.9567   -2.8977    1.1847 C   0  0  1  0  0  0  0  0  0  0  0  0
   -0.2022   -0.7287   -0.0037 C   0  0  0  0  0  0  0  0  0  0  0  0
   -0.1997    0.6647   -0.0105 C   0  0  0  0  0  0  0  0  0  0  0  0
   -3.3293   -4.3292    1.1597 N   0  0  0  0  0  0  0  0  0  0  0  0
   -1.5097    1.0739   -0.0428 N   0  0  0  0  0  0  0  0  0  0  0  0
   -4.9991   -2.2306   -0.0074 O   0  0  0  0  0  0  0  0  0  0  0  0
  2  1  2  0
  3  1  1  0
  4  2  1  0
  8  5  1  0
  8  6  2  0
  9  5  1  0
  9  7  1  0
  9 12  1  6
 10  3  2  0
 10  8  1  0
 11  4  2  0
 11 10  1  0
 13  6  1  0
 13 11  1  0
 14  7  1  0
M  END
>  <DRUGBANK_ID>  (1) 
DB04236

>  <SECONDARY_ACCESSION_NUMBERS>  (1) 
EXPT03091

>  <COMMON_NAME>  (1) 
2-Amino-3-(1h-Indol-3-Yl)-Propan-1-Ol

$$$$
