PM5
     RDKit          3D

 29 28  0  0  0  0  0  0  0  0999 V2000
    1.8633   -0.5758    2.1911 O   0  0  0  0  0  0  0  0  0  0  0  0
    0.7528   -1.0179    1.0805 P   0  0  2  0  0  0  0  0  0  0  0  0
    1.3113   -1.3047   -0.2731 O   0  0  0  0  0  0  0  0  0  0  0  0
   -0.1273    0.3277    1.0416 O   0  0  0  0  0  0  0  0  0  0  0  0
   -0.4559    1.1123   -0.0931 C   0  0  0  0  0  0  0  0  0  0  0  0
    0.4620    2.2968    0.0630 C   0  0  0  0  0  0  0  0  0  0  0  0
    1.8748    1.7093    0.0073 C   0  0  0  0  0  0  0  0  0  0  0  0
    0.3419    3.1834   -1.1561 C   0  0  0  0  0  0  0  0  0  0  0  0
    0.1511    3.0687    1.3963 C   0  0  1  0  0  0  0  0  0  0  0  0
   -1.0063    3.9104    1.3315 O   0  0  0  0  0  0  0  0  0  0  0  0
   -0.1344    2.2437    2.6597 C   0  0  0  0  0  0  0  0  0  0  0  0
    0.7819    2.0749    3.4784 O   0  0  0  0  0  0  0  0  0  0  0  0
   -1.3646    1.6463    2.8766 N   0  0  0  0  0  0  0  0  0  0  0  0
   -2.4808    1.1703    2.0597 C   0  0  0  0  0  0  0  0  0  0  0  0
   -2.4890   -0.3146    1.5709 C   0  0  0  0  0  0  0  0  0  0  0  0
   -2.4922   -1.3805    2.6313 C   0  0  0  0  0  0  0  0  0  0  0  0
   -3.3893   -2.2301    2.5969 O   0  0  0  0  0  0  0  0  0  0  0  0
   -1.4808   -1.5749    3.5263 N   0  0  0  0  0  0  0  0  0  0  0  0
   -0.3044   -0.8562    4.0325 C   0  0  0  0  0  0  0  0  0  0  0  0
   -0.4009    0.0515    5.2715 C   0  0  0  0  0  0  0  0  0  0  0  0
   -0.7939   -0.6132    6.8485 S   0  0  0  0  0  0  0  0  0  0  0  0
   -2.0555   -1.7709    6.4790 C   0  0  0  0  0  0  0  0  0  0  0  0
   -2.8289   -1.6276    5.5692 O   0  0  0  0  0  0  0  0  0  0  0  0
   -2.1958   -2.9060    7.4531 C   0  0  0  0  0  0  0  0  0  0  0  0
   -1.0199   -3.8810    7.4784 C   0  0  0  0  0  0  0  0  0  0  0  0
    0.3146   -3.2448    7.8859 C   0  0  0  0  0  0  0  0  0  0  0  0
    0.1972   -2.4686    9.2144 C   0  0  0  0  0  0  0  0  0  0  0  0
   -0.1361   -3.3993   10.3683 C   0  0  0  0  0  0  0  0  0  0  0  0
    0.9632   -4.4294   10.5201 C   0  0  0  0  0  0  0  0  0  0  0  0
  2  4  1  0
  2  3  2  0
  2  1  1  1
  4  5  1  0
  5  6  1  0
  6  7  1  0
  6  8  1  0
  6  9  1  0
  9 10  1  6
  9 11  1  0
 11 12  2  0
 11 13  1  0
 13 14  1  0
 14 15  1  0
 15 16  1  0
 16 17  2  0
 16 18  1  0
 18 19  1  0
 19 20  1  0
 20 21  1  0
 21 22  1  0
 22 23  2  0
 22 24  1  0
 24 25  1  0
 25 26  1  0
 26 27  1  0
 27 28  1  0
 28 29  1  0
M  END
>  <DRUGBANK_ID>  (1) 
DB08405

>  <COMMON_NAME>  (1) 
S-(2-{[N-(2-HYDROXY-4-{[HYDROXY(OXIDO)PHOSPHINO]OXY}-3,3-DIMETHYLBUTANOYL)-BETA-ALANYL]AMINO}ETHYL) HEPTANETHIOATE

$$$$
