
     RDKit          3D

 24 26  0  0  0  0  0  0  0  0999 V2000
    1.5363   -0.1284    0.2974 N   0  0  0  0  0  0  0  0  0  0  0  0
    3.1821    0.1019    2.7644 N   0  0  0  0  0  0  0  0  0  0  0  0
   -0.7726   -0.4682   -0.6524 C   0  0  0  0  0  0  0  0  0  0  0  0
   -0.0746   -2.0597    1.1715 C   0  0  0  0  0  0  0  0  0  0  0  0
   -2.5006   -1.7579    0.7456 C   0  0  0  0  0  0  0  0  0  0  0  0
   -1.2660    0.1483    1.7154 C   0  0  0  0  0  0  0  0  0  0  0  0
    0.4529   -1.1775   -0.0216 C   0  0  0  0  0  0  0  0  0  0  0  0
   -2.0879   -1.2721   -0.6620 C   0  0  0  0  0  0  0  0  0  0  0  0
   -1.0981    0.7166    0.2341 C   0  0  0  0  0  0  0  0  0  0  0  0
   -1.4135   -2.7695    1.1538 C   0  0  0  0  0  0  0  0  0  0  0  0
   -0.3522   -1.0234    2.1984 C   0  0  0  0  0  0  0  0  0  0  0  0
   -2.6025   -0.5523    1.7319 C   0  0  0  0  0  0  0  0  0  0  0  0
    1.4876    0.9603    1.3657 C   0  0  0  0  0  0  0  0  0  0  0  0
    1.8631    0.6517    2.8394 C   0  0  0  0  0  0  0  0  0  0  0  0
    3.3585   -0.7611    3.9108 C   0  0  0  0  0  0  0  0  0  0  0  0
    2.7614   -2.1390    3.7602 C   0  0  0  0  0  0  0  0  0  0  0  0
    3.5591   -3.2487    3.7058 C   0  0  0  0  0  0  0  0  0  0  0  0
    3.0076   -4.6443    3.5979 C   0  0  0  0  0  0  0  0  0  0  0  0
    5.0316   -3.0107    3.7733 C   0  0  0  0  0  0  0  0  0  0  0  0
    3.4159   -5.3815    2.3088 C   0  0  0  0  0  0  0  0  0  0  0  0
    4.9046   -5.5264    2.1650 C   0  0  0  0  0  0  0  0  0  0  0  0
    5.6175   -6.6602    2.3055 C   0  0  0  0  0  0  0  0  0  0  0  0
    7.1175   -6.6247    2.3462 C   0  0  0  0  0  0  0  0  0  0  0  0
    4.9290   -7.9802    2.4025 C   0  0  0  0  0  0  0  0  0  0  0  0
  1  7  1  0
  1 13  1  0
  2 14  1  0
  2 15  1  0
  3  7  1  0
  3  8  1  0
  3  9  1  0
  4  7  1  0
  4 10  1  0
  4 11  1  0
  5  8  1  0
  5 10  1  0
  5 12  1  0
  6  9  1  0
  6 11  1  0
  6 12  1  0
 13 14  1  0
 15 16  1  0
 16 17  2  0
 17 18  1  0
 17 19  1  0
 18 20  1  0
 20 21  1  0
 21 22  2  3
 22 23  1  0
 22 24  1  0
M  END
>  <DRUGBANK_ID>  (1) 
DB05186

>  <COMMON_NAME>  (1) 
SQ-109

>  <CAS_NUMBER>  (1) 
502487-67-4

>  <UNII>  (1) 
9AU7XUV31A

>  <SYNONYMS>  (1) 
N-adamantanyl-N'-geranyl-ethylenediamine

$$$$
