
     RDKit          3D

 40 43  0  0  0  0  0  0  0  0999 V2000
    5.0830   -7.0277    5.0262 C   0  0  0  0  0  0  0  0  0  0  0  0
    5.5403   -6.9826    3.7025 C   0  0  0  0  0  0  0  0  0  0  0  0
    6.8348   -6.5280    3.4607 C   0  0  0  0  0  0  0  0  0  0  0  0
    7.7626   -6.2887    4.4526 C   0  0  0  0  0  0  0  0  0  0  0  0
    7.3139   -6.4645    5.7746 C   0  0  0  0  0  0  0  0  0  0  0  0
    5.9796   -6.8053    6.0780 C   0  0  0  0  0  0  0  0  0  0  0  0
    4.6562   -7.0975    2.5031 C   0  0  0  0  0  0  0  0  0  0  0  0
    5.3024   -7.4266    1.2217 N   0  0  0  0  0  0  0  0  0  0  0  0
    4.3511   -7.4085    0.1078 C   0  0  0  0  0  0  0  0  0  0  0  0
    3.6607   -6.0406   -0.2010 C   0  0  0  0  0  0  0  0  0  0  0  0
    4.7221   -4.9701   -0.5164 C   0  0  0  0  0  0  0  0  0  0  0  0
    2.7581   -6.2396   -1.4274 C   0  0  0  0  0  0  0  0  0  0  0  0
    2.7120   -5.5287    0.9050 C   0  0  0  0  0  0  0  0  0  0  0  0
    5.6431   -7.0911    7.5187 C   0  0  0  0  0  0  0  0  0  0  0  0
    8.2554   -6.4179    6.9185 C   0  0  0  0  0  0  0  0  0  0  0  0
    7.6704   -5.7256    8.1614 C   0  0  1  0  0  0  0  0  0  0  0  0
    6.3460   -6.2387    8.6270 C   0  0  0  0  0  0  0  0  0  0  0  0
    5.9741   -6.1868    9.9502 C   0  0  0  0  0  0  0  0  0  0  0  0
    8.6828   -6.0629    9.2275 C   0  0  0  0  0  0  0  0  0  0  0  0
    8.3447   -5.6832   10.6517 C   0  0  1  0  0  0  0  0  0  0  0  0
    6.9570   -5.8112   11.2628 C   0  0  1  0  0  0  0  0  0  0  0  0
    7.3967   -4.6206   12.6316 C   0  0  0  0  0  0  0  0  0  0  0  0
    9.4397   -6.1952   11.6231 C   0  0  1  0  0  0  0  0  0  0  0  0
    9.1494   -5.8268   13.0933 C   0  0  0  0  0  0  0  0  0  0  0  0
    8.9353   -4.5188   13.2003 C   0  0  0  0  0  0  0  0  0  0  0  0
   10.2074   -3.7218   12.7371 C   0  0  0  0  0  0  0  0  0  0  0  0
   10.3362   -3.2758   11.6438 O   0  0  0  0  0  0  0  0  0  0  0  0
   11.2981   -3.6096   13.6284 N   0  0  0  0  0  0  0  0  0  0  0  0
    8.3183   -6.7416   13.7903 O   0  0  0  0  0  0  0  0  0  0  0  0
    6.5921   -4.3242   13.5349 O   0  0  0  0  0  0  0  0  0  0  0  0
    9.8428   -7.5691   11.7318 N   0  0  0  0  0  0  0  0  0  0  0  0
   11.2804   -7.6111   11.8432 C   0  0  0  0  0  0  0  0  0  0  0  0
    9.2196   -8.5927   10.9507 C   0  0  0  0  0  0  0  0  0  0  0  0
    6.6470   -7.0305   12.0016 O   0  0  0  0  0  0  0  0  0  0  0  0
    4.8971   -7.0693   10.2221 O   0  0  0  0  0  0  0  0  0  0  0  0
    5.0305   -8.1312    7.7523 O   0  0  0  0  0  0  0  0  0  0  0  0
    3.7402   -7.1129    5.2802 O   0  0  0  0  0  0  0  0  0  0  0  0
    9.0862   -5.9429    4.1038 N   0  0  0  0  0  0  0  0  0  0  0  0
    9.2795   -5.4235    2.7363 C   0  0  0  0  0  0  0  0  0  0  0  0
   10.0414   -6.9961    4.4743 C   0  0  0  0  0  0  0  0  0  0  0  0
  1  2  2  0
  1  6  1  0
  1 37  1  0
  2  3  1  0
  2  7  1  0
  3  4  2  0
  4  5  1  0
  5 15  1  0
  6  5  2  0
  7  8  1  0
  8  9  1  0
  9 10  1  0
 10 11  1  0
 10 12  1  0
 10 13  1  0
 14  6  1  0
 14 17  1  0
 14 36  2  0
 16 15  1  6
 16 19  1  0
 17 16  1  0
 18 17  2  0
 18 21  1  0
 18 35  1  0
 20 19  1  6
 20 23  1  0
 21 20  1  0
 21 34  1  1
 22 21  1  0
 22 25  1  0
 22 30  2  0
 23 24  1  0
 23 31  1  1
 24 25  2  0
 24 29  1  0
 25 26  1  0
 26 27  2  0
 26 28  1  0
 31 32  1  0
 31 33  1  0
 38 39  1  0
 38 40  1  0
 38  4  1  0
M  END
>  <DRUGBANK_ID>  (1) 
DB12455

>  <COMMON_NAME>  (1) 
Omadacycline

>  <CAS_NUMBER>  (1) 
389139-89-3

>  <UNII>  (1) 
090IP5RV8F

>  <SYNONYMS>  (1) 
Amadacycline; Omadacycline

$$$$
