
     RDKit          3D

 27 31  0  0  0  0  0  0  0  0999 V2000
    1.0278   -1.6904    0.3256 C   0  0  1  0  0  0  0  0  0  0  0  0
   -0.0283   -0.7129   -0.2039 C   0  0  2  0  0  0  0  0  0  0  0  0
    2.5765   -1.3958    0.1583 C   0  0  2  0  0  0  0  0  0  0  0  0
    1.0826   -1.7520    1.9553 C   0  0  0  0  0  0  0  0  0  0  0  0
    0.7871   -2.8992   -0.4199 O   0  0  0  0  0  0  0  0  0  0  0  0
    0.1102    0.7033    0.3030 C   0  0  2  0  0  0  0  0  0  0  0  0
   -1.4651   -1.1138    0.1060 C   0  0  0  0  0  0  0  0  0  0  0  0
    3.0528   -2.9076    1.1917 C   0  0  1  0  0  0  0  0  0  0  0  0
    2.6379    0.1796    0.7683 C   0  0  0  0  0  0  0  0  0  0  0  0
    3.2560   -1.0349   -1.2509 C   0  0  0  0  0  0  0  0  0  0  0  0
    2.5249   -2.1639    2.4019 C   0  0  0  0  0  0  0  0  0  0  0  0
   -0.9275    1.6478   -0.3561 C   0  0  2  0  0  0  0  0  0  0  0  0
    1.5974    1.0557    0.0404 C   0  0  0  0  0  0  0  0  0  0  0  0
   -2.5206   -0.1042   -0.6193 C   0  0  0  0  0  0  0  0  0  0  0  0
    3.0201   -4.6365    1.6620 C   0  0  0  0  0  0  0  0  0  0  0  0
   -2.3825    1.6278   -0.5874 C   0  0  2  0  0  0  0  0  0  0  0  0
   -0.8523    1.3301   -2.1287 C   0  0  0  0  0  0  0  0  0  0  0  0
   -1.1019    2.9358    0.7103 C   0  0  0  0  0  0  0  0  0  0  0  0
    4.2829   -5.4584    1.7279 C   0  0  0  0  0  0  0  0  0  0  0  0
    2.0528   -5.5243    2.0611 C   0  0  0  0  0  0  0  0  0  0  0  0
   -2.0090    3.2201   -1.6058 C   0  0  0  0  0  0  0  0  0  0  0  0
    0.1311    2.2411   -2.7432 C   0  0  0  0  0  0  0  0  0  0  0  0
    3.9654   -6.7801    2.1991 O   0  0  0  0  0  0  0  0  0  0  0  0
    2.6210   -6.8893    2.4091 C   0  0  0  0  0  0  0  0  0  0  0  0
   -0.3148    3.5127   -2.0695 C   0  0  2  0  0  0  0  0  0  0  0  0
    2.0529   -7.8545    2.7991 O   0  0  0  0  0  0  0  0  0  0  0  0
    0.6809    3.7285   -1.0776 O   0  0  0  0  0  0  0  0  0  0  0  0
  1  2  1  0
  1  3  1  0
  1  4  1  0
  1  5  1  6
  2  6  1  0
  2  7  1  1
  3  8  1  0
  3  9  1  0
  3 10  1  6
  4 11  1  0
  6 12  1  0
  6 13  1  6
  7 14  1  0
  8 11  1  0
  8 15  1  6
  9 13  1  0
 12 16  1  0
 12 17  1  0
 12 18  1  6
 16 14  1  6
 15 19  1  0
 15 20  2  0
 16 21  1  0
 17 22  1  0
 19 23  1  0
 20 24  1  0
 21 25  1  0
 22 25  1  0
 23 24  1  0
 24 26  2  0
 25 27  1  1
M  END
>  <DRUGBANK_ID>  (1) 
DB04177

>  <SECONDARY_ACCESSION_NUMBERS>  (1) 
EXPT01294

>  <COMMON_NAME>  (1) 
Digitoxigenin

>  <CAS_NUMBER>  (1) 
143-62-4

>  <UNII>  (1) 
S63WOD4VOL

>  <SYNONYMS>  (1) 
Cerberigenin; Echujetin; Evonogenin; Thevetigenin

$$$$
