911
     RDKit          3D

 16 16  0  0  0  0  0  0  0  0999 V2000
    0.8023   -0.1370   -0.3738 S   0  0  0  0  0  0  0  0  0  0  0  0
    0.2797   -0.2854   -1.7166 O   0  0  0  0  0  0  0  0  0  0  0  0
    0.3207   -1.0332    0.6600 O   0  0  0  0  0  0  0  0  0  0  0  0
    1.6561   -0.3832    2.8607 O   0  0  0  0  0  0  0  0  0  0  0  0
    3.7213   -1.0203    2.4558 O   0  0  0  0  0  0  0  0  0  0  0  0
    2.3015    2.1395    1.7736 N   0  0  0  0  0  0  0  0  0  0  0  0
    4.3546    2.9339    1.4620 N   0  0  0  0  0  0  0  0  0  0  0  0
    2.8362   -0.1731    2.5587 N   0  0  0  0  0  0  0  0  0  0  0  0
    0.4184    1.5387    0.1441 C   0  0  0  0  0  0  0  0  0  0  0  0
    0.8712    2.0399    1.5248 C   0  0  0  0  0  0  0  0  0  0  0  0
    2.5867   -0.2448   -0.5545 C   0  0  0  0  0  0  0  0  0  0  0  0
    3.0822    3.2673    1.5649 C   0  0  0  0  0  0  0  0  0  0  0  0
    3.1798    1.1624    2.1908 C   0  0  0  0  0  0  0  0  0  0  0  0
    3.1565   -1.6454   -0.5220 C   0  0  0  0  0  0  0  0  0  0  0  0
    4.4245    1.6159    1.8118 C   0  0  0  0  0  0  0  0  0  0  0  0
    2.5626    4.6568    1.5015 C   0  0  0  0  0  0  0  0  0  0  0  0
  1  2  2  0
  1  3  2  0
  1  9  1  0
  1 11  1  0
  4  8  1  0
  5  8  2  0
  6 10  1  0
  6 12  1  0
  6 13  1  0
  7 12  2  0
  7 15  1  0
  8 13  1  0
  9 10  1  0
 11 14  1  0
 12 16  1  0
 13 15  2  0
M  CHG  2   4  -1   8   1
M  END
>  <DRUGBANK_ID>  (1) 
DB00911

>  <SECONDARY_ACCESSION_NUMBERS>  (1) 
APRD01260

>  <COMMON_NAME>  (1) 
Tinidazole

>  <CAS_NUMBER>  (1) 
19387-91-8

>  <UNII>  (1) 
033KF7V46H

>  <SYNONYMS>  (1) 
1-(2-(Ethylsulfonyl)ethyl)-2-methyl-5-nitroimidazole; Timidazole; Tinidazol; Tinidazole; Tinidazolum

$$$$
