
     RDKit          3D

  7  6  0  0  0  0  0  0  0  0999 V2000
    1.1299    0.0219    0.4099 C   0  0  0  0  0  0  0  0  0  0  0  0
    0.4615    1.3040    0.4709 N   0  0  0  0  0  0  0  0  0  0  0  0
   -0.3060    2.0190   -0.3480 C   0  0  0  0  0  0  0  0  0  0  0  0
   -0.8628    3.4952    0.2164 S   0  0  0  0  0  0  0  0  0  0  0  0
   -0.6755    1.6564   -1.5817 N   0  0  0  0  0  0  0  0  0  0  0  0
   -0.3870    0.5535   -2.4403 C   0  0  0  0  0  0  0  0  0  0  0  0
   -1.6048   -0.1224   -2.6284 O   0  0  0  0  0  0  0  0  0  0  0  0
  1  2  1  0
  2  3  1  0
  3  4  2  0
  3  5  1  0
  5  6  1  0
  6  7  1  0
M  END
>  <DRUGBANK_ID>  (1) 
DB13838

>  <COMMON_NAME>  (1) 
Noxytiolin

>  <CAS_NUMBER>  (1) 
15599-39-0

>  <UNII>  (1) 
4DN3AF1FU6

>  <SYNONYMS>  (1) 
Noxitiolina; Noxytiolin; Noxytioline; Noxytiolinum

$$$$
