
     RDKit          3D

 26 28  0  0  0  0  0  0  0  0999 V2000
   -2.8240    1.2387    0.0362 C   0  0  0  0  0  0  0  0  0  0  0  0
   -3.0398   -0.1367   -0.0421 C   0  0  0  0  0  0  0  0  0  0  0  0
   -1.9532   -0.9961   -0.0870 C   0  0  0  0  0  0  0  0  0  0  0  0
   -0.6518   -0.4803   -0.0696 C   0  0  0  0  0  0  0  0  0  0  0  0
   -0.4496    0.8828    0.0171 C   0  0  0  0  0  0  0  0  0  0  0  0
   -1.5261    1.7546    0.0665 C   0  0  0  0  0  0  0  0  0  0  0  0
    0.4972   -1.3497   -0.1284 C   0  0  0  0  0  0  0  0  0  0  0  0
    1.7457   -0.8809    0.0582 C   0  0  0  0  0  0  0  0  0  0  0  0
    1.9679    0.6005    0.0514 C   0  0  0  0  0  0  0  0  0  0  0  0
    0.8435    1.4201    0.0492 O   0  0  0  0  0  0  0  0  0  0  0  0
    2.9982   -1.7405    0.1234 C   0  0  0  0  0  0  0  0  0  0  0  0
    3.0419   -2.6023    1.4052 C   0  0  0  0  0  0  0  0  0  0  0  0
    2.0187   -3.5066    1.7475 C   0  0  0  0  0  0  0  0  0  0  0  0
    3.0939    1.0846    0.0327 O   0  0  0  0  0  0  0  0  0  0  0  0
    4.1345   -2.5312    2.2815 C   0  0  0  0  0  0  0  0  0  0  0  0
    4.2253   -3.4028    3.3834 C   0  0  0  0  0  0  0  0  0  0  0  0
    3.1844   -4.3032    3.6572 C   0  0  0  0  0  0  0  0  0  0  0  0
    2.0859   -4.3680    2.8268 C   0  0  0  0  0  0  0  0  0  0  0  0
    0.1411   -2.6513   -0.3857 O   0  0  0  0  0  0  0  0  0  0  0  0
    3.2111   -2.6030   -1.1451 C   0  0  0  0  0  0  0  0  0  0  0  0
    3.2190   -1.7723   -2.4153 C   0  0  0  0  0  0  0  0  0  0  0  0
    4.3760   -1.9360   -3.3501 C   0  0  0  0  0  0  0  0  0  0  0  0
    2.2840   -1.0303   -2.7144 O   0  0  0  0  0  0  0  0  0  0  0  0
    3.1782   -5.1172    4.8705 N   0  0  0  0  0  0  0  0  0  0  0  0
    4.1401   -5.0237    5.6326 O   0  0  0  0  0  0  0  0  0  0  0  0
    2.1830   -5.8418    5.0675 O   0  0  0  0  0  0  0  0  0  0  0  0
  1  2  2  0
  1  6  1  0
  2  3  1  0
  3  4  2  0
  4  5  1  0
  4  7  1  0
  5  6  2  0
  5 10  1  0
  7  8  2  0
  7 19  1  0
  8  9  1  0
  8 11  1  0
  9 10  1  0
  9 14  2  0
 11 12  1  0
 11 20  1  0
 12 13  2  0
 12 15  1  0
 13 18  1  0
 15 16  2  0
 16 17  1  0
 17 18  2  0
 17 24  1  0
 20 21  1  0
 21 22  1  0
 21 23  2  0
 24 25  1  0
 24 26  2  0
M  CHG  2  24   1  25  -1
M  END
>  <DRUGBANK_ID>  (1) 
DB01418

>  <COMMON_NAME>  (1) 
Acenocoumarol

>  <CAS_NUMBER>  (1) 
152-72-7

>  <UNII>  (1) 
I6WP63U32H

>  <SYNONYMS>  (1) 
3-(alpha-(4'-Nitrophenyl)-beta-acetylethyl)-4-hydroxycoumarin; 3-(alpha-(p-Nitrophenol)-beta-acetylethyl)-4-hydroxycoumarin; 3-(alpha-Acetonyl-4-nitrobenzyl)-4-hydroxycoumarin; 3-(alpha-Acetonyl-p-nitrobenzyl)-4-hydroxycoumarin; 3-(alpha-p-Nitrophenyl-beta-acetylethyl)-4-hydroxycoumarin; 4-Hydroxy-3-(1-(4-nitrophenyl)-3-oxobutyl)-2H-1-benzopyran-2-one; 4-Hydroxy-3-[1-(4-nitrophenyl)-3-oxobutyl]-2H-chromen-2-one; Acenocoumarin; Ac√©nocoumarol; Acenocoumarol; Acenocoumarolum; Acenocumarol; Acenocumarolo; Acenokumarin; Nicoumalone; Nicumalon; Nitrophenylacetylethyl-4-hydroxycoumarine; Nitrovarfarian; Nitrowarfarin

$$$$
