
     RDKit          3D

 40 44  0  0  0  0  0  0  0  0999 V2000
   -4.9341  -13.2827   11.0690 O   0  0  0  0  0  0  0  0  0  0  0  0
   -3.6751  -12.7603   10.5801 C   0  0  1  0  0  0  0  0  0  0  0  0
   -2.9196  -13.3232    9.0797 C   0  0  0  0  0  0  0  0  0  0  0  0
   -2.1491  -14.5576    8.9275 O   0  0  0  0  0  0  0  0  0  0  0  0
   -2.7148  -12.5105    8.0612 C   0  0  0  0  0  0  0  0  0  0  0  0
   -1.6655  -12.9271    7.1062 C   0  0  0  0  0  0  0  0  0  0  0  0
   -1.8406  -12.5795    5.7255 C   0  0  0  0  0  0  0  0  0  0  0  0
   -0.7670  -12.7883    4.8338 C   0  0  0  0  0  0  0  0  0  0  0  0
    0.4464  -13.3084    5.2411 O   0  0  0  0  0  0  0  0  0  0  0  0
   -0.9561  -12.4282    3.5040 C   0  0  0  0  0  0  0  0  0  0  0  0
    0.0590  -12.6195    2.5424 N   0  0  0  0  0  0  0  0  0  0  0  0
   -0.0557  -12.2722    1.1995 C   0  0  0  0  0  0  0  0  0  0  0  0
    1.1404  -12.4671    0.2816 C   0  0  2  0  0  0  0  0  0  0  0  0
    0.8702  -13.4606   -0.8570 C   0  0  0  0  0  0  0  0  0  0  0  0
    2.2101  -14.1580   -1.0916 C   0  0  0  0  0  0  0  0  0  0  0  0
    3.1764  -13.4746   -0.1354 C   0  0  0  0  0  0  0  0  0  0  0  0
    2.3109  -13.0330    0.9618 N   0  0  0  0  0  0  0  0  0  0  0  0
    2.9802  -12.0606    1.8133 C   0  0  0  0  0  0  0  0  0  0  0  0
   -1.0507  -11.7657    0.6751 O   0  0  0  0  0  0  0  0  0  0  0  0
   -2.1890  -11.8792    3.1352 C   0  0  0  0  0  0  0  0  0  0  0  0
   -3.2297  -11.6999    4.0293 C   0  0  0  0  0  0  0  0  0  0  0  0
   -4.3748  -11.1815    3.5686 F   0  0  0  0  0  0  0  0  0  0  0  0
   -3.0776  -12.0288    5.3625 C   0  0  0  0  0  0  0  0  0  0  0  0
   -4.2403  -11.8560    6.3851 C   0  0  0  0  0  0  0  0  0  0  0  0
   -3.7116  -11.4726    7.9538 C   0  0  1  0  0  0  0  0  0  0  0  0
   -4.5866  -11.5840    9.6384 C   0  0  0  0  0  0  0  0  0  0  0  0
   -3.8200  -11.7013   11.6572 C   0  0  2  0  0  0  0  0  0  0  0  0
   -2.6067  -12.4386   13.3033 C   0  0  1  0  0  0  0  0  0  0  0  0
   -1.2963  -13.3598   12.9109 C   0  0  0  0  0  0  0  0  0  0  0  0
    0.0037  -12.9924   12.4604 O   0  0  0  0  0  0  0  0  0  0  0  0
   -2.1157  -13.0964   11.9920 C   0  0  0  0  0  0  0  0  0  0  0  0
   -1.7338  -14.0450   11.1420 C   0  0  0  0  0  0  0  0  0  0  0  0
   -2.7051  -14.8015   10.9999 O   0  0  0  0  0  0  0  0  0  0  0  0
   -0.6781  -13.2070   10.2701 N   0  0  0  0  0  0  0  0  0  0  0  0
   -2.4375  -12.0444   11.1081 C   0  0  0  0  0  0  0  0  0  0  0  0
   -1.7725  -11.0315   10.9361 O   0  0  0  0  0  0  0  0  0  0  0  0
   -1.2686  -12.4840   14.8266 N   0  0  0  0  0  0  0  0  0  0  0  0
   -1.0107  -13.4589   16.3223 C   0  0  0  0  0  0  0  0  0  0  0  0
    0.4702  -12.6539   14.7615 C   0  0  0  0  0  0  0  0  0  0  0  0
   -0.6207  -13.4926    7.4288 O   0  0  0  0  0  0  0  0  0  0  0  0
  2  1  1  1
  2  3  1  0
  2 27  1  0
  2 35  1  0
  3  4  1  0
  3  5  2  0
  5  6  1  0
  5 25  1  0
  6  7  1  0
  6 40  2  0
  7  8  2  0
  7 23  1  0
  8  9  1  0
  8 10  1  0
 10 11  1  0
 10 20  2  0
 11 12  1  0
 12 19  2  0
 13 14  1  0
 13 17  1  0
 13 12  1  1
 14 15  1  0
 16 15  1  0
 17 16  1  0
 17 18  1  0
 21 20  1  0
 21 22  1  0
 23 21  2  0
 24 23  1  0
 25 24  1  6
 26 25  1  0
 27 26  1  1
 27 28  1  0
 28 29  1  0
 28 37  1  6
 29 30  1  0
 31 29  2  0
 31 32  1  0
 32 33  2  0
 32 34  1  0
 35 31  1  0
 35 36  2  0
 37 38  1  0
 37 39  1  0
M  END
>  <DRUGBANK_ID>  (1) 
DB15040

>  <COMMON_NAME>  (1) 
TP-271

>  <CAS_NUMBER>  (1) 
1207284-17-0

>  <UNII>  (1) 
Y6IUM7395Q

$$$$
