
     RDKit          3D

 17 19  0  0  0  0  0  0  0  0999 V2000
    0.3683   -0.2338   -0.0499 C   0  0  0  0  0  0  0  0  0  0  0  0
    1.4609    0.6380    0.0261 C   0  0  0  0  0  0  0  0  0  0  0  0
    0.6010   -1.6208   -0.0279 C   0  0  0  0  0  0  0  0  0  0  0  0
    2.7615    0.1319    0.0935 C   0  0  0  0  0  0  0  0  0  0  0  0
    1.8961   -2.1115    0.0438 C   0  0  0  0  0  0  0  0  0  0  0  0
    2.9792   -1.2475    0.1066 C   0  0  0  0  0  0  0  0  0  0  0  0
   -1.0248    1.7868   -0.5715 C   0  0  0  0  0  0  0  0  0  0  0  0
    0.0238    2.4995    0.2620 C   0  0  0  0  0  0  0  0  0  0  0  0
   -1.0268    0.3192   -0.1681 C   0  0  2  0  0  0  0  0  0  0  0  0
    1.3399    2.0024   -0.0019 O   0  0  0  0  0  0  0  0  0  0  0  0
   -1.7773    0.1078    1.0526 N   0  0  0  0  0  0  0  0  0  0  0  0
   -2.8569   -0.7144    0.8605 C   0  0  0  0  0  0  0  0  0  0  0  0
   -1.8954   -0.4910   -1.1476 C   0  0  0  0  0  0  0  0  0  0  0  0
   -2.9192   -1.0530   -0.4469 N   0  0  0  0  0  0  0  0  0  0  0  0
   -3.6238   -1.0739    1.7373 O   0  0  0  0  0  0  0  0  0  0  0  0
   -1.6947   -0.6516   -2.3422 O   0  0  0  0  0  0  0  0  0  0  0  0
    2.0950   -3.4355    0.0459 F   0  0  0  0  0  0  0  0  0  0  0  0
  2 10  1  0
  2  1  1  0
  3  1  2  0
  4  2  2  0
  5  3  1  0
  5 17  1  0
  6  4  1  0
  6  5  2  0
  8  7  1  0
  9  7  1  6
  9  1  1  0
  9 11  1  0
  9 13  1  0
 10  8  1  0
 12 11  1  0
 12 15  2  0
 13 16  2  0
 14 12  1  0
 14 13  1  0
M  END
>  <DRUGBANK_ID>  (1) 
DB02712

>  <SECONDARY_ACCESSION_NUMBERS>  (1) 
EXPT03309

>  <COMMON_NAME>  (1) 
Sorbinil

>  <CAS_NUMBER>  (1) 
68367-52-2

>  <UNII>  (1) 
G4186B906P

>  <SYNONYMS>  (1) 
Sorbinil; sorbinilo; Sorbinilum

$$$$
