
     RDKit          3D

 42 46  0  0  1  0  0  0  0  0999 V2000
   -0.8357   -0.3933    0.5066 O   0  0  0  0  0  0  0  0  0  0  0  0
    1.7040   -0.1922   -8.1201 O   0  0  0  0  0  0  0  0  0  0  0  0
    0.6449    1.7049   -7.7648 O   0  0  0  0  0  0  0  0  0  0  0  0
    0.2063   -1.3207    2.2295 O   0  0  0  0  0  0  0  0  0  0  0  0
    2.0915   -2.7569    0.7910 O   0  0  0  0  0  0  0  0  0  0  0  0
    3.0666   -2.6703   -1.2036 O   0  0  0  0  0  0  0  0  0  0  0  0
    1.1086    2.3280   -4.4799 C   0  0  1  0  0  0  0  0  0  0  0  0
    2.5145    2.5580   -4.9534 C   0  0  2  0  0  0  0  0  0  0  0  0
    1.2134    0.3362   -4.2109 C   0  0  1  0  0  0  0  0  0  0  0  0
    3.0539    0.8367   -5.8871 C   0  0  1  0  0  0  0  0  0  0  0  0
    0.2066   -0.5740   -3.2899 C   0  0  2  0  0  0  0  0  0  0  0  0
    3.5832    0.7825   -7.7789 C   0  0  2  0  0  0  0  0  0  0  0  0
   -0.5071    1.1224   -2.6460 C   0  0  1  0  0  0  0  0  0  0  0  0
    3.5200    2.0861   -7.3614 C   0  0  1  0  0  0  0  0  0  0  0  0
    0.8877    3.2383   -3.1796 C   0  0  0  0  0  0  0  0  0  0  0  0
    2.1462   -1.0721   -4.8598 C   0  0  0  0  0  0  0  0  0  0  0  0
    2.5641    3.2418   -6.2257 C   0  0  0  0  0  0  0  0  0  0  0  0
    3.5058   -0.5874   -5.2659 C   0  0  0  0  0  0  0  0  0  0  0  0
   -0.4745    2.7385   -2.9905 C   0  0  0  0  0  0  0  0  0  0  0  0
    3.9474    2.7506   -6.1539 C   0  0  0  0  0  0  0  0  0  0  0  0
   -1.5763    1.3578   -1.4757 C   0  0  0  0  0  0  0  0  0  0  0  0
    3.2016    2.2646   -9.1617 C   0  0  2  0  0  0  0  0  0  0  0  0
    0.0686   -1.4871   -1.8857 C   0  0  0  0  0  0  0  0  0  0  0  0
    0.1965    3.7588   -5.3696 C   0  0  0  0  0  0  0  0  0  0  0  0
    2.9932    4.3633   -4.6146 C   0  0  0  0  0  0  0  0  0  0  0  0
    4.9088    2.3302   -8.0966 C   0  0  0  0  0  0  0  0  0  0  0  0
    4.2456    3.4058   -8.7905 C   0  0  0  0  0  0  0  0  0  0  0  0
    0.1412   -2.4546   -3.7384 C   0  0  0  0  0  0  0  0  0  0  0  0
   -0.8814    0.1778   -0.8284 C   0  0  2  0  0  0  0  0  0  0  0  0
   -1.2855   -0.9812   -1.7219 C   0  0  0  0  0  0  0  0  0  0  0  0
    1.7553    1.1894   -7.7934 C   0  0  0  0  0  0  0  0  0  0  0  0
   -2.7097    1.7326   -2.4901 C   0  0  0  0  0  0  0  0  0  0  0  0
   -2.5542    1.1940   -0.3451 C   0  0  0  0  0  0  0  0  0  0  0  0
    2.2912    2.9305  -10.4225 C   0  0  0  0  0  0  0  0  0  0  0  0
    2.6193    2.5703  -11.8277 C   0  0  0  0  0  0  0  0  0  0  0  0
    1.3600    3.9511  -10.3896 C   0  0  0  0  0  0  0  0  0  0  0  0
    0.2843   -0.5718    1.2527 C   0  0  0  0  0  0  0  0  0  0  0  0
    1.6782    0.0637    0.9498 C   0  0  0  0  0  0  0  0  0  0  0  0
    2.6064   -0.5157   -0.1515 C   0  0  0  0  0  0  0  0  0  0  0  0
    2.2360    0.0623   -1.4655 C   0  0  0  0  0  0  0  0  0  0  0  0
    3.9929    0.0804   -0.3423 C   0  0  0  0  0  0  0  0  0  0  0  0
    2.6316   -2.0645   -0.2294 C   0  0  0  0  0  0  0  0  0  0  0  0
  1 37  1  0
  2 31  1  0
  3 31  2  0
  4 37  2  0
  5 42  1  0
  6 42  2  0
  7  8  1  0
  7  9  1  0
  7 15  1  0
  7 24  1  6
  8 10  1  0
  8 17  1  0
  8 25  1  1
  9 11  1  0
  9 16  1  6
 10 12  1  0
 10 18  1  1
 11 13  1  0
 11 23  1  0
 11 28  1  6
 12 14  1  0
 12 22  1  6
 13 19  1  6
 13 21  1  0
 14 20  1  0
 14 26  1  0
 14 31  1  6
 15 19  1  0
 16 18  1  0
 17 20  1  0
 21 29  1  0
 21 32  1  0
 21 33  1  0
 22 27  1  0
 22 34  1  1
 23 30  1  0
 26 27  1  0
 29 30  1  0
 29  1  1  1
 34 35  1  0
 34 36  2  0
 37 38  1  0
 38 39  1  0
 39 40  1  0
 39 41  1  0
 39 42  1  0
M  END
>  <DRUGBANK_ID>  (1) 
DB06581

>  <COMMON_NAME>  (1) 
Bevirimat

>  <CAS_NUMBER>  (1) 
174022-42-5

>  <UNII>  (1) 
S125DW66N8

>  <SYNONYMS>  (1) 
Bevirimat

$$$$
