
     RDKit          3D

 28 31  0  0  0  0  0  0  0  0999 V2000
    0.3022    1.4010    0.0264 C   0  0  0  0  0  0  0  0  0  0  0  0
    0.2695   -0.9639    0.3788 C   0  0  0  0  0  0  0  0  0  0  0  0
   -1.0859    1.4678    0.2461 C   0  0  0  0  0  0  0  0  0  0  0  0
   -1.0732   -0.8575    0.8025 C   0  0  0  0  0  0  0  0  0  0  0  0
   -8.4641    4.7962    2.5093 C   0  0  0  0  0  0  0  0  0  0  0  0
   -6.6553    4.6069    4.0990 C   0  0  0  0  0  0  0  0  0  0  0  0
   -8.1181    3.4279    1.9006 C   0  0  0  0  0  0  0  0  0  0  0  0
   -6.2711    3.2222    3.5451 C   0  0  0  0  0  0  0  0  0  0  0  0
   -4.6731    3.4269   -0.9961 C   0  0  0  0  0  0  0  0  0  0  0  0
   -4.9966    1.8430    1.3012 C   0  0  0  0  0  0  0  0  0  0  0  0
   -4.0025   -0.3448   -0.5772 C   0  0  0  0  0  0  0  0  0  0  0  0
    0.9600    0.1814    0.0427 C   0  0  0  0  0  0  0  0  0  0  0  0
   -1.8374    0.3223    0.5764 C   0  0  0  0  0  0  0  0  0  0  0  0
   -3.9688    2.2311   -0.8602 C   0  0  0  0  0  0  0  0  0  0  0  0
   -3.4725   -0.1852   -1.8017 C   0  0  0  0  0  0  0  0  0  0  0  0
   -5.5741    3.7806    0.0350 C   0  0  0  0  0  0  0  0  0  0  0  0
   -4.0170    1.5654    0.3799 C   0  0  0  0  0  0  0  0  0  0  0  0
   -5.7918    2.9585    1.1620 C   0  0  0  0  0  0  0  0  0  0  0  0
   -3.2864    1.3756   -1.9670 C   0  0  0  0  0  0  0  0  0  0  0  0
   -2.6316   -1.4124   -1.6707 C   0  0  0  0  0  0  0  0  0  0  0  0
    2.2727    0.1189   -0.2190 F   0  0  0  0  0  0  0  0  0  0  0  0
   -6.2515    4.9359   -0.0709 F   0  0  0  0  0  0  0  0  0  0  0  0
   -8.0996    4.9068    3.9464 N   0  0  0  0  0  0  0  0  0  0  0  0
   -6.7199    3.1344    2.1527 N   0  0  0  0  0  0  0  0  0  0  0  0
   -3.3497    0.3221    0.5128 N   0  0  0  0  0  0  0  0  0  0  0  0
   -2.8101    1.9425   -2.9460 O   0  0  0  0  0  0  0  0  0  0  0  0
   -2.6225   -2.1861   -0.6845 O   0  0  0  0  0  0  0  0  0  0  0  0
   -1.9869   -2.0178   -2.6342 O   0  0  0  0  0  0  0  0  0  0  0  0
  3  1  2  0
  4  2  1  0
  7  5  1  0
  8  6  1  0
 12  1  1  0
 12  2  2  0
 13  3  1  0
 13  4  2  0
 14  9  2  0
 15 11  2  0
 16  9  1  0
 17 10  2  0
 17 14  1  0
 18 10  1  0
 18 16  2  0
 19 14  1  0
 19 15  1  0
 20 15  1  0
 21 12  1  0
 22 16  1  0
 23  5  1  0
 23  6  1  0
 24  7  1  0
 24  8  1  0
 24 18  1  0
 25 11  1  0
 25 13  1  0
 25 17  1  0
 26 19  2  0
 27 20  2  0
 28 20  1  0
M  END
>  <DRUGBANK_ID>  (1) 
DB11491

>  <COMMON_NAME>  (1) 
Sarafloxacin

>  <CAS_NUMBER>  (1) 
98105-99-8

>  <UNII>  (1) 
RC3WJ907XY

>  <SYNONYMS>  (1) 
Sarafloxacin

$$$$
