
     RDKit          3D

 12 13  0  0  0  0  0  0  0  0999 V2000
    0.2057   -0.6856    0.0010 C   0  0  0  0  0  0  0  0  0  0  0  0
    0.2760    0.6922    0.0008 C   0  0  0  0  0  0  0  0  0  0  0  0
   -0.9110   -1.4618    0.0025 N   0  0  0  0  0  0  0  0  0  0  0  0
   -2.0716    0.6089   -0.0019 N   0  0  0  0  0  0  0  0  0  0  0  0
    1.5709    1.1415    0.0006 N   0  0  0  0  0  0  0  0  0  0  0  0
   -0.9607    1.4356    0.0010 C   0  0  0  0  0  0  0  0  0  0  0  0
   -2.0252   -0.7728    0.0009 C   0  0  0  0  0  0  0  0  0  0  0  0
    1.5147   -1.0891   -0.0007 N   0  0  0  0  0  0  0  0  0  0  0  0
    2.2933    0.0420   -0.0000 C   0  0  0  0  0  0  0  0  0  0  0  0
   -1.0635    2.6603    0.0043 O   0  0  0  0  0  0  0  0  0  0  0  0
   -3.2292   -1.3923    0.0017 N   0  0  0  0  0  0  0  0  0  0  0  0
    2.0272   -2.4345   -0.0026 C   0  0  0  0  0  0  0  0  0  0  0  0
  2  1  2  0
  3  1  1  0
  4  7  1  0
  5  2  1  0
  5  9  2  0
  6  2  1  0
  6  4  1  0
  7  3  2  0
  8  1  1  0
  9  8  1  0
 10  6  2  0
 11  7  1  0
 12  8  1  0
M  END
>  <DRUGBANK_ID>  (1) 
DB02489

>  <SECONDARY_ACCESSION_NUMBERS>  (1) 
EXPT00360

>  <COMMON_NAME>  (1) 
9-Methylguanine

>  <CAS_NUMBER>  (1) 
5502-78-3

>  <UNII>  (1) 
397W61ZHWY

$$$$
