
     RDKit          3D

 16 17  0  0  1  0  0  0  0  0999 V2000
   -3.9673   -4.7476    5.2667 C   0  0  0  0  0  0  0  0  0  0  0  0
   -3.1559   -4.8540    4.0746 N   0  0  0  0  0  0  0  0  0  0  0  0
   -2.6698   -3.7958    3.3501 C   0  0  0  0  0  0  0  0  0  0  0  0
   -1.9985   -4.2945    2.2457 C   0  0  0  0  0  0  0  0  0  0  0  0
   -2.1582   -5.7299    2.2896 C   0  0  0  0  0  0  0  0  0  0  0  0
   -2.7874   -6.0471    3.4925 C   0  0  0  0  0  0  0  0  0  0  0  0
   -2.9717   -7.3798    3.9037 C   0  0  0  0  0  0  0  0  0  0  0  0
   -2.4462   -8.4062    3.1102 C   0  0  0  0  0  0  0  0  0  0  0  0
   -1.8181   -8.1226    1.9111 C   0  0  0  0  0  0  0  0  0  0  0  0
   -1.7533   -6.8062    1.4614 C   0  0  0  0  0  0  0  0  0  0  0  0
   -1.2306   -3.4832    1.2239 C   0  0  0  0  0  0  0  0  0  0  0  0
    0.2976   -3.7543    1.1918 C   0  0  2  0  0  0  0  0  0  0  0  0
    0.9057   -3.1575   -0.0900 C   0  0  0  0  0  0  0  0  0  0  0  0
    0.9042   -1.9745   -0.4131 O   0  0  0  0  0  0  0  0  0  0  0  0
    1.4438   -4.0923   -0.9155 O   0  0  0  0  0  0  0  0  0  0  0  0
    0.6772   -5.1804    1.2206 N   0  0  0  0  0  0  0  0  0  0  0  0
  1  2  1  0
  2  3  1  0
  2  6  1  0
  3  4  2  0
  4  5  1  0
  4 11  1  0
  5  6  2  0
  5 10  1  0
  6  7  1  0
  7  8  2  0
  8  9  1  0
  9 10  2  0
 12 16  1  6
 12 13  1  0
 12 11  1  0
 13 14  2  0
 13 15  1  0
M  END
>  <DRUGBANK_ID>  (1) 
DB12827

>  <COMMON_NAME>  (1) 
Indoximod

>  <CAS_NUMBER>  (1) 
110117-83-4

>  <UNII>  (1) 
TX5CYN1KMZ

>  <SYNONYMS>  (1) 
(2R)-2-amino-3-(1-methyl-1H-indol-3-yl)propanoic acid; 1-methyl-D-tryptophan; D-(+)-1-methyltryptophan; D-1-methyltryptophan; D-1MT; Indoximod

$$$$
