NC7
     RDKit          3D

 19 19  0  0  0  0  0  0  0  0999 V2000
   -1.4324    0.3266   -0.2925 C   0  0  0  0  0  0  0  0  0  0  0  0
   -1.6235    0.3574   -1.7453 N   0  0  0  0  0  0  0  0  0  0  0  0
   -2.8473    0.6392   -2.2886 C   0  0  0  0  0  0  0  0  0  0  0  0
   -2.8654    0.6376   -3.6540 N   0  0  0  0  0  0  0  0  0  0  0  0
   -4.0898    0.9471   -4.3742 C   0  0  0  0  0  0  0  0  0  0  0  0
   -3.9106    2.1563   -5.2886 C   0  0  0  0  0  0  0  0  0  0  0  0
   -2.8828    1.8859   -6.3896 C   0  0  0  0  0  0  0  0  0  0  0  0
   -3.3025    0.7175   -7.2909 C   0  0  0  0  0  0  0  0  0  0  0  0
   -4.5892    1.0121   -8.0743 C   0  0  0  0  0  0  0  0  0  0  0  0
   -3.8419    0.8807   -1.6156 O   0  0  0  0  0  0  0  0  0  0  0  0
   -4.4681    2.2412   -8.9777 C   0  0  0  0  0  0  0  0  0  0  0  0
   -3.3650    2.0749  -10.0018 C   0  0  0  0  0  0  0  0  0  0  0  0
   -3.7789    2.1166  -11.2817 O   0  0  0  0  0  0  0  0  0  0  0  0
   -2.1817    1.9193   -9.7226 O   0  0  0  0  0  0  0  0  0  0  0  0
   -0.9951   -1.0619    0.1889 C   0  0  0  0  0  0  0  0  0  0  0  0
    0.4316   -1.3950   -0.2416 C   0  0  0  0  0  0  0  0  0  0  0  0
    1.4178   -0.3279    0.2256 C   0  0  0  0  0  0  0  0  0  0  0  0
    1.0010    1.0649   -0.2401 C   0  0  0  0  0  0  0  0  0  0  0  0
   -0.4324    1.3924    0.1739 C   0  0  0  0  0  0  0  0  0  0  0  0
  1  2  1  0
  1 15  1  0
  1 19  1  0
  2  3  1  0
  3  4  1  0
  3 10  2  0
  4  5  1  0
  5  6  1  0
  6  7  1  0
  7  8  1  0
  8  9  1  0
  9 11  1  0
 11 12  1  0
 12 13  1  0
 12 14  2  0
 15 16  1  0
 16 17  1  0
 17 18  1  0
 18 19  1  0
M  END
>  <DRUGBANK_ID>  (1) 
DB08259

>  <COMMON_NAME>  (1) 
7-{[(CYCLOHEXYLAMINO)CARBONYL]AMINO}HEPTANOIC ACID

$$$$
