
     RDKit          3D

 42 45  0  0  1  0  0  0  0  0999 V2000
    2.1459    0.7375   -0.0118 C   0  0  0  0  0  0  0  0  0  0  0  0
    0.9235    1.4242   -0.0104 C   0  0  0  0  0  0  0  0  0  0  0  0
   -0.2578    0.6795   -0.0164 C   0  0  0  0  0  0  0  0  0  0  0  0
   -0.1825   -0.7060   -0.0032 C   0  0  0  0  0  0  0  0  0  0  0  0
    1.0193   -1.4197    0.0101 C   0  0  0  0  0  0  0  0  0  0  0  0
    2.2080   -0.6681    0.0012 C   0  0  0  0  0  0  0  0  0  0  0  0
    3.5474   -1.3501    0.0059 C   0  0  0  0  0  0  0  0  0  0  0  0
    3.7027   -2.6383    0.0230 N   0  0  0  0  0  0  0  0  0  0  0  0
    4.7023   -0.6375   -0.0061 N   0  0  0  0  0  0  0  0  0  0  0  0
   -1.4884   -1.1098   -0.0068 N   0  0  0  0  0  0  0  0  0  0  0  0
   -2.2868    0.0056   -0.0166 C   0  0  0  0  0  0  0  0  0  0  0  0
   -1.5592    1.1048   -0.0454 N   0  0  0  0  0  0  0  0  0  0  0  0
   -3.7364   -0.0841   -0.0103 C   0  0  0  0  0  0  0  0  0  0  0  0
   -4.4547    0.5239   -1.0415 C   0  0  0  0  0  0  0  0  0  0  0  0
   -5.8498    0.4792   -1.0533 C   0  0  0  0  0  0  0  0  0  0  0  0
   -6.5195   -0.1787   -0.0051 C   0  0  0  0  0  0  0  0  0  0  0  0
   -5.8280   -0.7658    1.0702 C   0  0  0  0  0  0  0  0  0  0  0  0
   -4.4211   -0.7454    1.0224 C   0  0  0  0  0  0  0  0  0  0  0  0
   -3.6559   -1.3769    1.9773 O   0  0  0  0  0  0  0  0  0  0  0  0
   -6.5998   -1.2917    2.2173 C   0  0  0  0  0  0  0  0  0  0  0  0
   -7.5881   -2.2754    2.0310 C   0  0  0  0  0  0  0  0  0  0  0  0
   -8.3428   -2.7482    3.1150 C   0  0  0  0  0  0  0  0  0  0  0  0
   -8.1309   -2.2362    4.3976 C   0  0  0  0  0  0  0  0  0  0  0  0
   -7.1551   -1.2552    4.6015 C   0  0  0  0  0  0  0  0  0  0  0  0
   -6.4024   -0.7948    3.5223 C   0  0  0  0  0  0  0  0  0  0  0  0
   -5.4290    0.1494    3.7151 O   0  0  0  0  0  0  0  0  0  0  0  0
   -9.5816   -3.9782    2.7864 S   0  0  0  0  0  0  0  0  0  0  0  0
  -10.6078   -3.3704    1.9800 O   0  0  0  0  0  0  0  0  0  0  0  0
   -8.9040   -5.1962    2.3959 O   0  0  0  0  0  0  0  0  0  0  0  0
  -10.3095   -4.2924    4.2760 N   0  0  0  0  0  0  0  0  0  0  0  0
   -6.6213    1.2051   -2.1334 C   0  0  0  0  0  0  0  0  0  0  0  0
   -6.2970    2.6912   -2.2151 C   0  0  0  0  0  0  0  0  0  0  0  0
   -5.7883    3.1837   -3.2225 O   0  0  0  0  0  0  0  0  0  0  0  0
   -6.5990    3.5002   -1.1570 N   0  0  0  0  0  0  0  0  0  0  0  0
   -7.1583    3.1284    0.1415 C   0  0  1  0  0  0  0  0  0  0  0  0
   -6.1690    3.3085    1.2860 C   0  0  0  0  0  0  0  0  0  0  0  0
   -5.8746    4.7577    1.5345 C   0  0  0  0  0  0  0  0  0  0  0  0
   -6.1090    5.3634    2.5679 O   0  0  0  0  0  0  0  0  0  0  0  0
   -5.3248    5.3742    0.4694 O   0  0  0  0  0  0  0  0  0  0  0  0
   -8.4985    3.7967    0.4085 C   0  0  0  0  0  0  0  0  0  0  0  0
   -9.5609    3.2071    0.5415 O   0  0  0  0  0  0  0  0  0  0  0  0
   -8.4343    5.1348    0.5190 O   0  0  0  0  0  0  0  0  0  0  0  0
  1  2  2  0
  1  6  1  0
  2  3  1  0
  3  4  2  0
  3 12  1  0
  4  5  1  0
  4 10  1  0
  5  6  2  0
  6  7  1  0
  7  8  2  0
  7  9  1  0
 10 11  1  0
 11 12  2  0
 11 13  1  0
 13 14  2  0
 13 18  1  0
 14 15  1  0
 15 16  2  0
 15 31  1  0
 16 17  1  0
 17 18  2  0
 17 20  1  0
 18 19  1  0
 20 21  2  0
 20 25  1  0
 21 22  1  0
 22 23  2  0
 22 27  1  0
 23 24  1  0
 24 25  2  0
 25 26  1  0
 27 28  2  0
 27 29  2  0
 27 30  1  0
 31 32  1  0
 32 33  2  0
 32 34  1  0
 35 34  1  0
 35 36  1  1
 35 40  1  0
 36 37  1  0
 37 38  2  0
 37 39  1  0
 40 41  2  0
 40 42  1  0
M  END
>  <DRUGBANK_ID>  (1) 
DB13000

>  <COMMON_NAME>  (1) 
PCI-27483

>  <CAS_NUMBER>  (1) 
871266-63-6

>  <UNII>  (1) 
6073LCU8U9

$$$$
