
     RDKit          3D

 38 41  0  0  0  0  0  0  0  0999 V2000
    0.9590    0.0367    0.0821 C   0  0  0  0  0  0  0  0  0  0  0  0
    0.4258    0.2074   -1.3412 C   0  0  0  0  0  0  0  0  0  0  0  0
    1.0408   -0.8075   -2.3188 C   0  0  0  0  0  0  0  0  0  0  0  0
   -1.1084    0.2346   -1.3454 C   0  0  0  0  0  0  0  0  0  0  0  0
   -1.8413   -0.9576   -1.3160 C   0  0  0  0  0  0  0  0  0  0  0  0
   -1.3011   -2.2087   -1.1385 O   0  0  0  0  0  0  0  0  0  0  0  0
   -3.2233   -0.9730   -1.4659 C   0  0  0  0  0  0  0  0  0  0  0  0
   -3.8111   -2.2119   -1.4839 O   0  0  0  0  0  0  0  0  0  0  0  0
   -3.9553    0.2063   -1.5874 C   0  0  0  0  0  0  0  0  0  0  0  0
   -5.4351    0.0684   -1.8081 C   0  0  0  0  0  0  0  0  0  0  0  0
   -6.0532   -0.9950   -1.8608 O   0  0  0  0  0  0  0  0  0  0  0  0
   -3.2719    1.4738   -1.5011 C   0  0  0  0  0  0  0  0  0  0  0  0
   -3.9065    2.7575   -1.5156 C   0  0  0  0  0  0  0  0  0  0  0  0
   -5.2802    2.7844   -1.5761 O   0  0  0  0  0  0  0  0  0  0  0  0
   -3.2226    3.9953   -1.3955 C   0  0  0  0  0  0  0  0  0  0  0  0
   -1.8321    3.9681   -1.2519 C   0  0  0  0  0  0  0  0  0  0  0  0
   -0.9804    5.2130   -1.1334 C   0  0  0  0  0  0  0  0  0  0  0  0
   -1.1791    2.7273   -1.2644 C   0  0  0  0  0  0  0  0  0  0  0  0
   -1.8398    1.4727   -1.3768 C   0  0  0  0  0  0  0  0  0  0  0  0
   -3.9609    5.2791   -1.4038 C   0  0  0  0  0  0  0  0  0  0  0  0
   -4.9054    5.5904   -0.3910 C   0  0  0  0  0  0  0  0  0  0  0  0
   -5.1570    4.6369    0.5678 O   0  0  0  0  0  0  0  0  0  0  0  0
   -5.6752    6.7981   -0.3393 C   0  0  0  0  0  0  0  0  0  0  0  0
   -5.4366    7.7523   -1.3888 C   0  0  0  0  0  0  0  0  0  0  0  0
   -4.4751    7.4173   -2.3819 C   0  0  0  0  0  0  0  0  0  0  0  0
   -3.7619    6.2116   -2.4246 C   0  0  0  0  0  0  0  0  0  0  0  0
   -2.7783    6.0171   -3.5576 C   0  0  0  0  0  0  0  0  0  0  0  0
   -6.1659    8.9930   -1.4316 C   0  0  0  0  0  0  0  0  0  0  0  0
   -5.8477   10.0871   -2.4583 C   0  0  0  0  0  0  0  0  0  0  0  0
   -6.9970   10.3231   -3.4434 C   0  0  0  0  0  0  0  0  0  0  0  0
   -5.3681   11.3750   -1.7756 C   0  0  0  0  0  0  0  0  0  0  0  0
   -7.1712    9.1966   -0.4757 C   0  0  0  0  0  0  0  0  0  0  0  0
   -8.0150   10.2811   -0.4210 O   0  0  0  0  0  0  0  0  0  0  0  0
   -7.4014    8.2873    0.5514 C   0  0  0  0  0  0  0  0  0  0  0  0
   -8.3851    8.6292    1.4447 O   0  0  0  0  0  0  0  0  0  0  0  0
   -6.6621    7.1122    0.6650 C   0  0  0  0  0  0  0  0  0  0  0  0
   -6.9432    6.2468    1.8611 C   0  0  0  0  0  0  0  0  0  0  0  0
   -7.7907    6.4739    2.7248 O   0  0  0  0  0  0  0  0  0  0  0  0
  1  2  1  0
  2  3  1  0
  2  4  1  0
  4  5  2  0
  4 19  1  0
  5  6  1  0
  5  7  1  0
  7  8  1  0
  7  9  2  0
  9 10  1  0
  9 12  1  0
 10 11  2  0
 12 13  1  0
 12 19  2  0
 13 14  1  0
 13 15  2  0
 15 16  1  0
 15 20  1  0
 16 17  1  0
 16 18  2  0
 18 19  1  0
 20 21  2  0
 20 26  1  0
 21 22  1  0
 21 23  1  0
 23 24  2  0
 23 36  1  0
 24 25  1  0
 24 28  1  0
 25 26  2  0
 26 27  1  0
 28 29  1  0
 28 32  2  0
 29 30  1  0
 29 31  1  0
 32 33  1  0
 32 34  1  0
 34 35  1  0
 34 36  2  0
 36 37  1  0
 37 38  2  0
M  END
>  <DRUGBANK_ID>  (1) 
DB17379

>  <COMMON_NAME>  (1) 
(R)-Gossypol

>  <CAS_NUMBER>  (1) 
90141-22-3

>  <UNII>  (1) 
8DY2X8LXW4

>  <SYNONYMS>  (1) 
(-)-Gossypol; (r)-2,2'-bis(8-formyl-1,6,7-trihydroxy-5-isopropyl-3-methylnaphthalene); Gossypol r-form; Gossypol, (r)-; Gossypol, r-; R-(-)-gossypol

$$$$
