
     RDKit          3D

 22 21  0  0  1  0  0  0  0  0999 V2000
    1.0355    0.1971   -0.4470 S   0  0  0  0  0  0  0  0  0  0  0  0
    4.6033   -3.6568    0.5589 O   0  0  0  0  0  0  0  0  0  0  0  0
    0.0521   -5.7944    0.0225 O   0  0  0  0  0  0  0  0  0  0  0  0
   -1.0630   -1.3829    2.9536 O   0  0  0  0  0  0  0  0  0  0  0  0
   -1.6436   -3.4825    3.5884 O   0  0  0  0  0  0  0  0  0  0  0  0
    3.3583    1.3128   -0.5229 O   0  0  0  0  0  0  0  0  0  0  0  0
    1.7100   -3.2328    6.0121 O   0  0  0  0  0  0  0  0  0  0  0  0
    0.0505   -1.9536    5.1854 O   0  0  0  0  0  0  0  0  0  0  0  0
    2.5364   -3.0843   -0.1204 N   0  0  0  0  0  0  0  0  0  0  0  0
    0.1543   -4.8545    2.6110 N   0  0  0  0  0  0  0  0  0  0  0  0
   -1.0640   -3.3828    0.7336 N   0  0  0  0  0  0  0  0  0  0  0  0
    1.0632   -3.1552   -0.1373 C   0  0  0  0  0  0  0  0  0  0  0  0
    1.9854   -4.5360    2.0388 C   0  0  0  0  0  0  0  0  0  0  0  0
    2.8723   -5.1417    0.9996 C   0  0  0  0  0  0  0  0  0  0  0  0
    0.3483   -3.1796    1.8252 C   0  0  0  0  0  0  0  0  0  0  0  0
    3.4240   -3.9424    0.4271 C   0  0  0  0  0  0  0  0  0  0  0  0
    0.4956   -1.3576    0.2756 C   0  0  0  0  0  0  0  0  0  0  0  0
    0.3864   -4.8639    0.7456 C   0  0  0  0  0  0  0  0  0  0  0  0
   -0.9048   -2.7258    2.9687 C   0  0  0  0  0  0  0  0  0  0  0  0
    1.1346   -3.6288    3.7926 C   0  0  0  0  0  0  0  0  0  0  0  0
    2.7745    0.1578    0.0130 C   0  0  0  0  0  0  0  0  0  0  0  0
    0.8050   -2.9021    5.0719 C   0  0  0  0  0  0  0  0  0  0  0  0
  1 17  1  0
  1 21  1  0
  2 16  2  0
  3 18  2  0
  4 19  1  0
  5 19  2  0
  6 21  1  0
  7 22  1  0
  8 22  2  0
  9 12  1  0
  9 16  1  0
 10 18  1  0
 10 20  1  0
 11 15  1  0
 12 17  1  0
 12 18  1  0
 13 14  1  0
 13 15  1  0
 14 16  1  0
 15 19  1  0
 20 22  1  0
M  END
>  <DRUGBANK_ID>  (1) 
DB05446

>  <COMMON_NAME>  (1) 
LJP 1082

$$$$
