C0E
     RDKit          3D

 18 18  0  0  0  0  0  0  0  0999 V2000
    0.9715    0.0438    0.1016 O   0  0  0  0  0  0  0  0  0  0  0  0
    0.2897    0.1228    1.2503 C   0  0  0  0  0  0  0  0  0  0  0  0
    0.8927    0.1961    2.3129 O   0  0  0  0  0  0  0  0  0  0  0  0
   -1.2037    0.1129    1.1051 C   0  0  0  0  0  0  0  0  0  0  0  0
   -1.9160    0.1948    2.3108 O   0  0  0  0  0  0  0  0  0  0  0  0
   -1.8713    0.0343   -0.0676 C   0  0  0  0  0  0  0  0  0  0  0  0
   -3.2282    0.0384    0.0016 F   0  0  0  0  0  0  0  0  0  0  0  0
   -1.3226   -0.0532   -1.4057 C   0  0  0  0  0  0  0  0  0  0  0  0
   -1.9931   -0.1331   -2.5620 C   0  0  0  0  0  0  0  0  0  0  0  0
   -1.1849   -0.2345   -3.8188 C   0  0  0  0  0  0  0  0  0  0  0  0
    0.0402   -0.2868   -3.8286 O   0  0  0  0  0  0  0  0  0  0  0  0
   -1.9246   -0.3121   -5.0948 C   0  0  0  0  0  0  0  0  0  0  0  0
   -1.5014   -1.2249   -6.0723 C   0  0  0  0  0  0  0  0  0  0  0  0
   -3.0119    0.5334   -5.3406 C   0  0  0  0  0  0  0  0  0  0  0  0
   -3.6982    0.4396   -6.5507 C   0  0  0  0  0  0  0  0  0  0  0  0
   -3.2862   -0.4832   -7.5073 C   0  0  0  0  0  0  0  0  0  0  0  0
   -3.9520   -0.5683   -8.6657 F   0  0  0  0  0  0  0  0  0  0  0  0
   -2.1929   -1.3133   -7.2819 C   0  0  0  0  0  0  0  0  0  0  0  0
  2  1  1  0
  3  2  2  0
  4  6  2  0
  4  2  1  0
  5  4  1  0
  6  8  1  0
  7  6  1  0
  8  9  2  0
  9 10  1  0
 10 12  1  0
 11 10  2  0
 12 13  2  0
 12 14  1  0
 13 18  1  0
 14 15  2  0
 15 16  1  0
 16 17  1  0
 18 16  2  0
M  END
>  <DRUGBANK_ID>  (1) 
DB07510

>  <COMMON_NAME>  (1) 
3-fluoro-6-(4-fluorophenyl)-2-hydroxy-6-oxohexa-2,4-dienoic acid

$$$$
