XIH
     RDKit          3D

 29 32  0  0  0  0  0  0  0  0999 V2000
   -0.0831   -0.6952    0.0414 C   0  0  0  0  0  0  0  0  0  0  0  0
   -0.4195    0.6125    0.0067 C   0  0  0  0  0  0  0  0  0  0  0  0
   -2.4585   -0.5361    0.0643 C   0  0  0  0  0  0  0  0  0  0  0  0
   -4.8187   -1.6310    1.1717 C   0  0  0  0  0  0  0  0  0  0  0  0
   -5.6837   -2.1624   -1.6536 C   0  0  1  0  0  0  0  0  0  0  0  0
   -4.9636   -0.7766   -1.1399 C   0  0  0  0  0  0  0  0  0  0  0  0
   -0.9975   -2.8803    0.1258 C   0  0  0  0  0  0  0  0  0  0  0  0
   -1.6885   -4.8370    3.4155 C   0  0  0  0  0  0  0  0  0  0  0  0
   -3.0217   -4.5188    3.5811 C   0  0  0  0  0  0  0  0  0  0  0  0
   -3.6104   -3.8529    2.5535 C   0  0  0  0  0  0  0  0  0  0  0  0
   -3.2608   -3.4350   -0.0460 C   0  0  0  0  0  0  0  0  0  0  0  0
    2.0292    1.0887   -0.0064 C   0  0  0  0  0  0  0  0  0  0  0  0
    3.6024   -0.8486   -0.0026 C   0  0  0  0  0  0  0  0  0  0  0  0
    2.2601   -0.2680   -0.0093 N   0  0  0  0  0  0  0  0  0  0  0  0
    1.2665   -1.1972    0.0212 C   0  0  0  0  0  0  0  0  0  0  0  0
    1.6088   -2.3800    0.0455 O   0  0  0  0  0  0  0  0  0  0  0  0
   -1.8667    0.7191    0.0022 N   0  0  0  0  0  0  0  0  0  0  0  0
   -3.9948   -0.9175    0.0645 N   0  0  0  0  0  0  0  0  0  0  0  0
   -5.5772   -3.1176    0.7093 C   0  0  0  0  0  0  0  0  0  0  0  0
   -6.3478   -3.0250   -0.5600 C   0  0  0  0  0  0  0  0  0  0  0  0
   -6.7662   -2.0876   -2.6619 N   0  0  0  0  0  0  0  0  0  0  0  0
   -1.2517   -1.4303    0.1230 N   0  0  0  0  0  0  0  0  0  0  0  0
   -1.5214   -3.5690    1.3504 C   0  0  0  0  0  0  0  0  0  0  0  0
   -0.9268   -4.3135    2.3375 C   0  0  0  0  0  0  0  0  0  0  0  0
   -2.8793   -3.5785    1.3678 C   0  0  0  0  0  0  0  0  0  0  0  0
   -3.3096   -3.3097   -1.1599 N   0  0  0  0  0  0  0  0  0  0  0  0
    0.6671    1.5411   -0.0108 N   0  0  0  0  0  0  0  0  0  0  0  0
    0.5254    2.9817   -0.0036 C   0  0  0  0  0  0  0  0  0  0  0  0
    3.0001    1.8538    0.0034 O   0  0  0  0  0  0  0  0  0  0  0  0
  1  2  2  0
  1 15  1  0
  1 22  1  0
  2 17  1  0
  2 27  1  0
  3 17  2  0
  3 18  1  0
  3 22  1  0
  4 18  1  0
  4 19  1  0
  5  6  1  0
  5 20  1  0
  5 21  1  6
  6 18  1  0
  7 22  1  0
  7 23  1  0
  8  9  2  0
  8 24  1  0
  9 10  1  0
 10 25  2  0
 11 25  1  0
 11 26  3  0
 12 14  1  0
 12 27  1  0
 12 29  2  0
 13 14  1  0
 14 15  1  0
 15 16  2  0
 19 20  1  0
 23 24  2  0
 23 25  1  0
 27 28  1  0
M  END
>  <DRUGBANK_ID>  (1) 
DB08743

>  <COMMON_NAME>  (1) 
2-({8-[(3R)-3-AMINOPIPERIDIN-1-YL]-1,3-DIMETHYL-2,6-DIOXO-1,2,3,6-TETRAHYDRO-7H-PURIN-7-YL}METHYL)BENZONITRILE

$$$$
