
     RDKit          3D

 29 24  0  0  0  0  0  0  0  0999 V2000
    0.0007    0.3950   -0.7976 C   0  0  0  0  0  0  0  0  0  0  0  0
    0.5060   -2.7273   -2.2020 C   0  0  0  0  0  0  0  0  0  0  0  0
   -0.0472    1.5605    0.7396 C   0  0  0  0  0  0  0  0  0  0  0  0
    0.2335   -4.2172   -1.0495 C   0  0  0  0  0  0  0  0  0  0  0  0
   -1.8953   -0.2877   -2.3961 C   0  0  0  0  0  0  0  0  0  0  0  0
   -0.2388   -0.7683   -2.2661 C   0  0  0  0  0  0  0  0  0  0  0  0
   -1.2622    2.0822    0.7994 O   0  0  0  0  0  0  0  0  0  0  0  0
    0.8132    1.6699    1.6541 O   0  0  0  0  0  0  0  0  0  0  0  0
   -0.9148   -4.8013   -1.1726 O   0  0  0  0  0  0  0  0  0  0  0  0
    1.1163   -4.6547   -0.2506 O   0  0  0  0  0  0  0  0  0  0  0  0
   -1.9952    0.8427   -3.0544 O   0  0  0  0  0  0  0  0  0  0  0  0
   -2.6661   -0.2411   -1.3569 O   0  0  0  0  0  0  0  0  0  0  0  0
    0.5306    0.2026   -3.1123 O   0  0  0  0  0  0  0  0  0  0  0  0
    2.0925    0.0869    0.2232 C   0  0  0  0  0  0  0  0  0  0  0  0
    1.9061   -2.4752    0.3668 C   0  0  0  0  0  0  0  0  0  0  0  0
    2.0055    1.8820   -0.5798 C   0  0  0  0  0  0  0  0  0  0  0  0
    0.8098   -2.5656    1.6536 C   0  0  0  0  0  0  0  0  0  0  0  0
   -0.6730   -1.9254   -0.3251 C   0  0  0  0  0  0  0  0  0  0  0  0
    1.2946   -1.3880   -0.4272 C   0  0  0  0  0  0  0  0  0  0  0  0
    1.0008    2.3446   -1.2148 O   0  0  0  0  0  0  0  0  0  0  0  0
    2.7818    2.6793    0.1061 O   0  0  0  0  0  0  0  0  0  0  0  0
   -0.1602   -3.3576    1.8018 O   0  0  0  0  0  0  0  0  0  0  0  0
    0.7240   -1.4743    2.3747 O   0  0  0  0  0  0  0  0  0  0  0  0
   -1.3862   -2.3670   -1.2946 O   0  0  0  0  0  0  0  0  0  0  0  0
   -1.3180   -1.3301    0.6121 O   0  0  0  0  0  0  0  0  0  0  0  0
    2.1828   -1.1499   -1.8645 O   0  0  0  0  0  0  0  0  0  0  0  0
   -1.3772   -0.8513    2.4619 Ca  0  0  0  0  0 15  0  0  0  0  0  0
   -2.0171    1.8332   -1.1642 Ca  0  0  0  0  0 15  0  0  0  0  0  0
    3.1988    1.9374    1.8839 Ca  0  0  0  0  0 15  0  0  0  0  0  0
  3  1  1  0
  4  2  1  0
  6  1  1  0
  6  2  1  0
  6  5  1  0
  7  3  2  0
  8  3  1  0
  9  4  2  0
 10  4  1  0
 11  5  2  0
 12  5  1  0
 13  6  1  0
 16 14  1  0
 17 15  1  0
 19 14  1  0
 19 15  1  0
 19 18  1  0
 20 16  2  0
 21 16  1  0
 22 17  2  0
 23 17  1  0
 24 18  2  0
 25 18  1  0
 26 19  1  0
M  CHG  8   8  -1  10  -1  12  -1  21  -1  23  -1  25  -1  27   2  28   2
M  CHG  1  29   2
M  END
>  <DRUGBANK_ID>  (1) 
DB11093

>  <COMMON_NAME>  (1) 
Calcium citrate

>  <CAS_NUMBER>  (1) 
813-94-5

>  <UNII>  (1) 
86117BWO7P

>  <SYNONYMS>  (1) 
tricalcium citrate

$$$$
