1104
     RDKit          3D

 20 22  0  0  1  0  0  0  0  0999 V2000
    1.3545    1.6150    0.0020 Cl  0  0  0  0  0  0  0  0  0  0  0  0
    1.3999   -1.6390    0.0327 Cl  0  0  0  0  0  0  0  0  0  0  0  0
   -3.1779    5.4535    0.8058 N   0  0  0  0  0  0  0  0  0  0  0  0
   -3.8759    1.3304    0.0001 C   0  0  2  0  0  0  0  0  0  0  0  0
   -4.2620    2.3641   -1.0689 C   0  0  0  0  0  0  0  0  0  0  0  0
   -4.0778    4.2943    0.6072 C   0  0  1  0  0  0  0  0  0  0  0  0
   -3.6808    3.7430   -0.7928 C   0  0  0  0  0  0  0  0  0  0  0  0
   -3.9424    1.8619    1.4194 C   0  0  0  0  0  0  0  0  0  0  0  0
   -4.0299    3.2326    1.7094 C   0  0  0  0  0  0  0  0  0  0  0  0
   -2.5241    0.6375   -0.1800 C   0  0  0  0  0  0  0  0  0  0  0  0
   -3.8138    0.9257    2.4746 C   0  0  0  0  0  0  0  0  0  0  0  0
   -4.1237    3.5659    3.0718 C   0  0  0  0  0  0  0  0  0  0  0  0
   -1.3074    1.3394   -0.1392 C   0  0  0  0  0  0  0  0  0  0  0  0
   -2.4844   -0.7651   -0.1212 C   0  0  0  0  0  0  0  0  0  0  0  0
   -3.7002    1.3219    3.7950 C   0  0  0  0  0  0  0  0  0  0  0  0
   -3.8622    2.6597    4.0979 C   0  0  0  0  0  0  0  0  0  0  0  0
   -3.4474    6.2867    1.9647 C   0  0  0  0  0  0  0  0  0  0  0  0
   -0.0856    0.6623   -0.0797 C   0  0  0  0  0  0  0  0  0  0  0  0
   -1.2689   -1.4430   -0.0418 C   0  0  0  0  0  0  0  0  0  0  0  0
   -0.0671   -0.7330   -0.0404 C   0  0  0  0  0  0  0  0  0  0  0  0
  1 18  1  0
  2 20  1  0
  3 17  1  0
  4  5  1  0
  4  8  1  0
  4 10  1  6
  5  7  1  0
  6  3  1  1
  6  7  1  0
  6  9  1  0
  8  9  2  0
  8 11  1  0
  9 12  1  0
 10 13  2  0
 10 14  1  0
 11 15  2  0
 12 16  2  0
 13 18  1  0
 14 19  2  0
 15 16  1  0
 18 20  2  0
 19 20  1  0
M  END
>  <DRUGBANK_ID>  (1) 
DB01104

>  <SECONDARY_ACCESSION_NUMBERS>  (1) 
APRD00175; DB08567

>  <COMMON_NAME>  (1) 
Sertraline

>  <CAS_NUMBER>  (1) 
79617-96-2

>  <UNII>  (1) 
QUC7NX6WMB

>  <SYNONYMS>  (1) 
(+)-Sertraline; (1S-cis)-1,2,3,4-tetrahydro-4-(3,4-dichlorophenyl)-N-methyl-1-naphthalenamine; (1S,4S)-sertraline; cis-(+)-sertraline; Sertralina; Sertraline; Sertralinum

$$$$
