
     RDKit          3D

 22 23  0  0  0  0  0  0  0  0999 V2000
   -0.7851   -2.7411   -0.8386 C   0  0  0  0  0  0  0  0  0  0  0  0
   -1.1784   -2.6788   -2.3056 C   0  0  2  0  0  0  0  0  0  0  0  0
   -0.2970   -3.6407   -3.1945 C   0  0  0  0  0  0  0  0  0  0  0  0
    0.9217   -3.1213   -3.7882 O   0  0  0  0  0  0  0  0  0  0  0  0
    0.9194   -2.2557   -4.8600 C   0  0  0  0  0  0  0  0  0  0  0  0
   -0.0831   -1.3291   -5.1591 C   0  0  0  0  0  0  0  0  0  0  0  0
    0.1778   -0.1400   -5.8399 C   0  0  0  0  0  0  0  0  0  0  0  0
    1.3144   -0.0569   -6.5846 C   0  0  0  0  0  0  0  0  0  0  0  0
    2.2344   -1.1140   -6.5382 C   0  0  0  0  0  0  0  0  0  0  0  0
    2.0590   -2.1751   -5.6256 C   0  0  0  0  0  0  0  0  0  0  0  0
   -0.9175   -1.3399   -2.7384 N   0  0  0  0  0  0  0  0  0  0  0  0
   -1.6184   -0.1093   -2.5008 C   0  0  2  0  0  0  0  0  0  0  0  0
   -1.1026    0.3715   -1.1511 C   0  0  0  0  0  0  0  0  0  0  0  0
   -3.1557   -0.1061   -2.7056 C   0  0  1  0  0  0  0  0  0  0  0  0
   -3.7008    1.1101   -2.1758 O   0  0  0  0  0  0  0  0  0  0  0  0
   -3.6176   -0.2464   -4.1599 C   0  0  0  0  0  0  0  0  0  0  0  0
   -3.7546   -1.5151   -4.7553 C   0  0  0  0  0  0  0  0  0  0  0  0
   -4.2656   -1.6664   -6.0514 C   0  0  0  0  0  0  0  0  0  0  0  0
   -4.6736   -0.5428   -6.7572 C   0  0  0  0  0  0  0  0  0  0  0  0
   -5.2023   -0.6357   -8.0108 O   0  0  0  0  0  0  0  0  0  0  0  0
   -4.5452    0.7219   -6.2002 C   0  0  0  0  0  0  0  0  0  0  0  0
   -3.9748    0.8729   -4.9310 C   0  0  0  0  0  0  0  0  0  0  0  0
  2 11  1  0
  2  3  1  0
  2  1  1  1
  3  4  1  0
  4  5  1  0
  5  6  2  0
  5 10  1  0
  6  7  1  0
  7  8  2  0
  8  9  1  0
  9 10  2  0
 12 14  1  0
 12 13  1  1
 12 11  1  0
 14 15  1  6
 14 16  1  0
 16 17  2  0
 16 22  1  0
 17 18  1  0
 18 19  2  0
 19 20  1  0
 19 21  1  0
 21 22  2  0
M  END
>  <DRUGBANK_ID>  (1) 
DB08941

>  <COMMON_NAME>  (1) 
Isoxsuprine

>  <CAS_NUMBER>  (1) 
395-28-8

>  <UNII>  (1) 
R15UI3245N

>  <SYNONYMS>  (1) 
Isoxsuprine

$$$$
