
     RDKit          3D

 22 24  0  0  0  0  0  0  0  0999 V2000
    1.0370   -0.0546   -0.0033 S   0  0  0  0  0  0  0  0  0  0  0  0
   -0.4207    2.2027   -0.5605 C   0  0  0  0  0  0  0  0  0  0  0  0
    0.3279    1.4460    0.3986 N   0  0  0  0  0  0  0  0  0  0  0  0
   -0.1820    3.4956   -1.0106 N   0  0  0  0  0  0  0  0  0  0  0  0
   -1.5821    1.7919   -1.1775 C   0  0  0  0  0  0  0  0  0  0  0  0
   -1.0613    3.8580   -1.9843 N   0  0  0  0  0  0  0  0  0  0  0  0
    0.6077   -0.6362   -1.6364 C   0  0  0  0  0  0  0  0  0  0  0  0
   -1.8628    2.7999   -2.1173 C   0  0  0  0  0  0  0  0  0  0  0  0
    0.9145    4.3310   -0.7113 C   0  0  0  0  0  0  0  0  0  0  0  0
    0.2854    0.2182   -2.6842 C   0  0  0  0  0  0  0  0  0  0  0  0
    0.6144   -2.0103   -1.8878 C   0  0  0  0  0  0  0  0  0  0  0  0
   -0.2032   -1.6202   -4.1562 C   0  0  0  0  0  0  0  0  0  0  0  0
   -0.6632   -2.0833   -5.3727 N   0  0  0  0  0  0  0  0  0  0  0  0
   -0.2360   -0.2631   -3.8821 C   0  0  0  0  0  0  0  0  0  0  0  0
    0.2474   -2.4887   -3.1575 C   0  0  0  0  0  0  0  0  0  0  0  0
    2.2282    3.8628   -0.8389 C   0  0  0  0  0  0  0  0  0  0  0  0
    0.6605    5.6513   -0.3275 C   0  0  0  0  0  0  0  0  0  0  0  0
    1.7286    6.5135   -0.0834 C   0  0  0  0  0  0  0  0  0  0  0  0
    3.2906    4.7329   -0.5834 C   0  0  0  0  0  0  0  0  0  0  0  0
    3.0406    6.0510   -0.1958 C   0  0  0  0  0  0  0  0  0  0  0  0
    0.4742   -1.0015    0.9472 O   0  0  0  0  0  0  0  0  0  0  0  0
    2.4606    0.1854   -0.0415 O   0  0  0  0  0  0  0  0  0  0  0  0
  3  1  1  0
  3  2  1  0
  4  2  1  0
  5  2  2  0
  6  4  1  0
  7  1  1  0
  8  5  1  0
  8  6  2  0
  9  4  1  0
 10  7  2  0
 11  7  1  0
 13 12  1  0
 14 10  1  0
 14 12  2  0
 15 11  2  0
 15 12  1  0
 16  9  2  0
 17  9  1  0
 18 17  2  0
 19 16  1  0
 20 18  1  0
 20 19  2  0
 21  1  2  0
 22  1  2  0
M  END
>  <DRUGBANK_ID>  (1) 
DB06729

>  <COMMON_NAME>  (1) 
Sulfaphenazole

>  <CAS_NUMBER>  (1) 
526-08-9

>  <UNII>  (1) 
0J8L4V3F81

>  <SYNONYMS>  (1) 
1-phenyl-5-sulfanilamidopyrazole; 3-(p-aminobenzenesulfonamido)-2-phenylpyrazole; 5-sulfanilamido-1-phenylpyrazole; N'-(1-phenylpyrazol-5-yl)sulfanilamide; N(1)-(1-phenylpyrazol-5-yl)sulfanilamide; Sulfafenazol; Sulfafenazolo; Sulfaph√©nazol; Sulfaphenazole; Sulfaphenazolum; Sulphaphenazole

$$$$
