
     RDKit          3D

 17 17  0  0  0  0  0  0  0  0999 V2000
   -3.6812    2.2337    1.3156 C   0  0  0  0  0  0  0  0  0  0  0  0
   -4.8056    0.8450    3.4309 C   0  0  0  0  0  0  0  0  0  0  0  0
   -4.4960    0.1672    2.2565 C   0  0  0  0  0  0  0  0  0  0  0  0
   -4.5588    2.2149    3.5501 C   0  0  0  0  0  0  0  0  0  0  0  0
   -4.9071    2.7572    4.7505 O   0  0  0  0  0  0  0  0  0  0  0  0
   -3.9825    2.9335    2.4967 C   0  0  0  0  0  0  0  0  0  0  0  0
   -3.6592    4.4019    2.5352 C   0  0  0  0  0  0  0  0  0  0  0  0
   -2.2605    4.6082    2.3741 O   0  0  0  0  0  0  0  0  0  0  0  0
   -3.9370    0.8573    1.1766 C   0  0  0  0  0  0  0  0  0  0  0  0
   -1.9478    0.0255   -0.0254 C   0  0  0  0  0  0  0  0  0  0  0  0
   -1.3664   -0.9715   -0.9342 N   0  0  0  0  0  0  0  0  0  0  0  0
    0.6339   -1.3642    0.5079 C   0  0  0  0  0  0  0  0  0  0  0  0
    0.5635   -2.1138   -1.8714 C   0  0  0  0  0  0  0  0  0  0  0  0
    0.1094   -1.0131   -0.8964 C   0  0  0  0  0  0  0  0  0  0  0  0
    0.6997    0.3262   -1.3703 C   0  0  0  0  0  0  0  0  0  0  0  0
   -3.4903    0.0940   -0.0540 C   0  0  2  0  0  0  0  0  0  0  0  0
   -3.9764    0.7419   -1.2276 O   0  0  0  0  0  0  0  0  0  0  0  0
  1  6  2  0
  1  9  1  0
  2  3  1  0
  3  9  2  0
  4  2  2  0
  4  5  1  0
  6  4  1  0
  6  7  1  0
  7  8  1  0
 10 11  1  0
 11 14  1  0
 14 12  1  0
 14 13  1  0
 14 15  1  0
 16 17  1  6
 16 10  1  0
 16  9  1  0
M  END
>  <DRUGBANK_ID>  (1) 
DB13139

>  <SECONDARY_ACCESSION_NUMBERS>  (1) 
DB05761

>  <COMMON_NAME>  (1) 
Levosalbutamol

>  <CAS_NUMBER>  (1) 
34391-04-3

>  <UNII>  (1) 
EDN2NBH5SS

>  <SYNONYMS>  (1) 
(-)-Albuterol; (-)-Salbutamol; (R)-salbutamol; Levalbuterol; Levosalbutamol; R-salbutamol

$$$$
