
     RDKit          3D

 31 35  0  0  0  0  0  0  0  0999 V2000
   -2.3150    0.6474    0.0695 C   0  0  0  0  0  0  0  0  0  0  0  0
   -0.9955    0.0283   -0.0006 C   0  0  0  0  0  0  0  0  0  0  0  0
    0.0698    0.8309    0.0145 N   0  0  0  0  0  0  0  0  0  0  0  0
    1.0995   -0.0167    0.0182 N   0  0  0  0  0  0  0  0  0  0  0  0
    2.4253    0.5502   -0.0254 C   0  0  0  0  0  0  0  0  0  0  0  0
    0.7232   -1.3363    0.0644 C   0  0  0  0  0  0  0  0  0  0  0  0
   -0.6594   -1.3546    0.0135 C   0  0  0  0  0  0  0  0  0  0  0  0
   -1.5536   -2.5813   -0.0013 C   0  0  0  0  0  0  0  0  0  0  0  0
   -2.4879   -2.8654   -0.9133 N   0  0  0  0  0  0  0  0  0  0  0  0
   -3.0698   -4.0885   -0.5469 C   0  0  0  0  0  0  0  0  0  0  0  0
   -4.0805   -4.9382   -1.1165 C   0  0  0  0  0  0  0  0  0  0  0  0
   -4.6872   -4.8146   -2.3616 N   0  0  0  0  0  0  0  0  0  0  0  0
   -6.1083   -4.4601   -2.4528 C   0  0  0  0  0  0  0  0  0  0  0  0
   -6.6928   -5.0371   -3.7614 C   0  0  0  0  0  0  0  0  0  0  0  0
   -5.9284   -4.6965   -4.9882 N   0  0  0  0  0  0  0  0  0  0  0  0
   -6.0710   -3.2952   -5.4798 C   0  0  0  0  0  0  0  0  0  0  0  0
   -5.7025   -2.1119   -4.5819 C   0  0  0  0  0  0  0  0  0  0  0  0
   -4.3832   -1.7223   -4.2801 C   0  0  0  0  0  0  0  0  0  0  0  0
   -4.1065   -1.1555   -3.0164 C   0  0  0  0  0  0  0  0  0  0  0  0
   -5.1720   -0.7241   -2.2304 C   0  0  0  0  0  0  0  0  0  0  0  0
   -5.1142   -0.1593   -0.6240 Cl  0  0  0  0  0  0  0  0  0  0  0  0
   -6.4660   -0.8076   -2.7030 C   0  0  0  0  0  0  0  0  0  0  0  0
   -6.7384   -1.5111   -3.8606 C   0  0  0  0  0  0  0  0  0  0  0  0
   -4.5335   -5.1637   -4.8120 C   0  0  0  0  0  0  0  0  0  0  0  0
   -3.8589   -4.6325   -3.5342 C   0  0  0  0  0  0  0  0  0  0  0  0
   -4.4051   -6.0973   -0.3767 C   0  0  0  0  0  0  0  0  0  0  0  0
   -5.5356   -7.2848   -0.9678 Cl  0  0  0  0  0  0  0  0  0  0  0  0
   -3.7474   -6.3683    0.8090 C   0  0  0  0  0  0  0  0  0  0  0  0
   -2.7743   -5.6093    1.3728 N   0  0  0  0  0  0  0  0  0  0  0  0
   -2.4883   -4.5088    0.6518 C   0  0  0  0  0  0  0  0  0  0  0  0
   -1.5364   -3.5746    0.9432 N   0  0  0  0  0  0  0  0  0  0  0  0
  1  2  1  0
  2  3  2  0
  2  7  1  0
  3  4  1  0
  4  5  1  0
  4  6  1  0
  6  7  2  0
  7  8  1  0
  8  9  2  0
  8 31  1  0
  9 10  1  0
 10 11  2  0
 10 30  1  0
 11 12  1  0
 11 26  1  0
 12 13  1  0
 12 25  1  0
 13 14  1  0
 14 15  1  0
 15 16  1  0
 15 24  1  0
 16 17  1  0
 17 18  2  0
 17 23  1  0
 18 19  1  0
 19 20  2  0
 20 21  1  0
 20 22  1  0
 22 23  2  0
 24 25  1  0
 26 27  1  0
 26 28  2  0
 28 29  1  0
 29 30  2  0
 30 31  1  0
M  END
>  <DRUGBANK_ID>  (1) 
DB18120

>  <COMMON_NAME>  (1) 
EP-0042

>  <CAS_NUMBER>  (1) 
1402709-93-6

>  <UNII>  (1) 
ZE94SP78UG

>  <SYNONYMS>  (1) 
3H-IMIDAZO(4,5-B)PYRIDINE, 6-CHLORO-7-(4-((4-CHLOROPHENYL)METHYL)-1-PIPERAZINYL)-2-(1,3-DIMETHYL-1H-PYRAZOL-4-YL)-

$$$$
