1340
     RDKit          3D

 30 32  0  0  1  0  0  0  0  0999 V2000
    1.5465    0.1651    1.2316 O   0  0  0  0  0  0  0  0  0  0  0  0
    0.9400   -2.9910    2.8382 O   0  0  0  0  0  0  0  0  0  0  0  0
    3.1455   -3.3332    2.7406 O   0  0  0  0  0  0  0  0  0  0  0  0
   -0.7032    2.9397   -3.4191 O   0  0  0  0  0  0  0  0  0  0  0  0
   -0.7707    3.6859   -1.4248 O   0  0  0  0  0  0  0  0  0  0  0  0
    4.2854   -1.3878    0.7826 N   0  0  0  0  0  0  0  0  0  0  0  0
    2.9616   -1.1971    0.4661 N   0  0  0  0  0  0  0  0  0  0  0  0
    1.8267    2.1512   -0.8678 N   0  0  0  0  0  0  0  0  0  0  0  0
    2.0803   -2.3440    0.7520 C   0  0  1  0  0  0  0  0  0  0  0  0
    2.9125    1.1469   -0.5738 C   0  0  1  0  0  0  0  0  0  0  0  0
    4.8457   -2.1947   -0.2767 C   0  0  0  0  0  0  0  0  0  0  0  0
    5.0035   -0.2457    1.3372 C   0  0  0  0  0  0  0  0  0  0  0  0
    2.5007   -3.3390   -0.3260 C   0  0  0  0  0  0  0  0  0  0  0  0
    4.0500    1.8326    0.1917 C   0  0  0  0  0  0  0  0  0  0  0  0
    4.0390   -3.5279   -0.3009 C   0  0  0  0  0  0  0  0  0  0  0  0
    5.2496    0.8876    0.3403 C   0  0  0  0  0  0  0  0  0  0  0  0
    2.4192    0.0257    0.3870 C   0  0  0  0  0  0  0  0  0  0  0  0
    0.6693    1.6494   -1.6991 C   0  0  1  0  0  0  0  0  0  0  0  0
    2.1335   -2.9159    2.1916 C   0  0  0  0  0  0  0  0  0  0  0  0
   -0.1083    0.5023   -1.0510 C   0  0  0  0  0  0  0  0  0  0  0  0
   -0.5904    0.7951    0.3870 C   0  0  0  0  0  0  0  0  0  0  0  0
   -0.2978    2.8107   -2.1565 C   0  0  0  0  0  0  0  0  0  0  0  0
   -1.6719    1.7764    0.5597 C   0  0  0  0  0  0  0  0  0  0  0  0
   -2.9570    1.3370    0.3543 C   0  0  0  0  0  0  0  0  0  0  0  0
   -1.3722    3.1259    0.8340 C   0  0  0  0  0  0  0  0  0  0  0  0
    0.1144    2.5226   -4.4831 C   0  0  0  0  0  0  0  0  0  0  0  0
   -3.9567    2.2791    0.2972 C   0  0  0  0  0  0  0  0  0  0  0  0
   -2.3651    4.0749    0.6770 C   0  0  0  0  0  0  0  0  0  0  0  0
    1.5395    3.0234   -4.3419 C   0  0  0  0  0  0  0  0  0  0  0  0
   -3.6524    3.6428    0.3838 C   0  0  0  0  0  0  0  0  0  0  0  0
  1 17  2  0
  2 19  1  0
  3 19  2  0
  4 22  1  0
  4 26  1  0
  5 22  2  0
  6  7  1  0
  6 11  1  0
  6 12  1  0
  7  9  1  0
  7 17  1  0
  9 13  1  0
  9 19  1  1
 10  8  1  1
 10 14  1  0
 10 17  1  0
 11 15  1  0
 12 16  1  0
 13 15  1  0
 14 16  1  0
 18  8  1  0
 18 20  1  1
 18 22  1  0
 20 21  1  0
 21 23  1  0
 23 24  2  0
 23 25  1  0
 24 27  1  0
 25 28  2  0
 26 29  1  0
 27 30  2  0
 28 30  1  0
M  END
>  <DRUGBANK_ID>  (1) 
DB01340

>  <COMMON_NAME>  (1) 
Cilazapril

>  <CAS_NUMBER>  (1) 
88768-40-5

>  <UNII>  (1) 
8Q9454114Q

>  <SYNONYMS>  (1) 
Cilazapril; Cilazapril anhydrous; Cilazaprilum

$$$$
