
     RDKit          3D

 25 26  0  0  1  0  0  0  0  0999 V2000
    0.9856   -0.1437   -0.0004 S   0  0  0  0  0  0  0  0  0  0  0  0
   -1.3926   -0.8480    5.8371 O   0  0  0  0  0  0  0  0  0  0  0  0
   -0.4906   -3.6316    4.6264 O   0  0  0  0  0  0  0  0  0  0  0  0
    0.5087    1.2017    0.3231 O   0  0  0  0  0  0  0  0  0  0  0  0
    0.5659   -0.7909   -1.2185 O   0  0  0  0  0  0  0  0  0  0  0  0
   -3.7109    1.6257    3.7579 N   0  0  0  0  0  0  0  0  0  0  0  0
   -0.8685    0.9132    4.8110 N   0  0  0  0  0  0  0  0  0  0  0  0
    1.5425   -3.1752    0.3487 N   0  0  0  0  0  0  0  0  0  0  0  0
   -2.4711    2.3116    3.3333 C   0  0  0  0  0  0  0  0  0  0  0  0
   -2.7114    3.7900    3.5995 C   0  0  0  0  0  0  0  0  0  0  0  0
   -4.1936    3.9565    3.3720 C   0  0  0  0  0  0  0  0  0  0  0  0
   -4.8117    2.5757    3.5398 C   0  0  0  0  0  0  0  0  0  0  0  0
   -1.0503    1.9554    3.8305 C   0  0  0  0  0  0  0  0  0  0  0  0
   -3.7553    1.1477    5.1385 C   0  0  0  0  0  0  0  0  0  0  0  0
   -3.3261    2.1803    6.1810 C   0  0  0  0  0  0  0  0  0  0  0  0
   -0.9499   -0.4511    4.7827 C   0  0  0  0  0  0  0  0  0  0  0  0
   -0.4679   -1.3067    3.6300 C   0  0  0  0  0  0  0  0  0  0  0  0
    0.5339   -1.2322    1.3486 C   0  0  0  0  0  0  0  0  0  0  0  0
   -0.0985   -0.6651    2.4413 C   0  0  0  0  0  0  0  0  0  0  0  0
   -0.2438   -2.6889    3.6551 C   0  0  0  0  0  0  0  0  0  0  0  0
    0.7581   -2.5853    1.3433 C   0  0  0  0  0  0  0  0  0  0  0  0
    0.3846   -3.2882    2.5127 C   0  0  0  0  0  0  0  0  0  0  0  0
    2.7645   -0.0790    0.0466 C   0  0  0  0  0  0  0  0  0  0  0  0
    3.3047    0.7564   -1.0991 C   0  0  0  0  0  0  0  0  0  0  0  0
   -1.1295   -3.2574    5.8375 C   0  0  0  0  0  0  0  0  0  0  0  0
  1  4  2  0
  1  5  2  0
  1 18  1  0
  1 23  1  0
  2 16  2  0
  3 20  1  0
  3 25  1  0
  6  9  1  0
  6 12  1  0
  6 14  1  0
  7 13  1  0
  7 16  1  0
  8 21  1  0
  9 10  1  0
  9 13  1  0
 10 11  1  0
 11 12  1  0
 14 15  1  0
 16 17  1  0
 17 19  1  0
 17 20  2  0
 18 19  2  0
 18 21  1  0
 20 22  1  0
 21 22  2  0
 23 24  1  0
M  END
>  <DRUGBANK_ID>  (1) 
DB06288

>  <COMMON_NAME>  (1) 
Amisulpride

>  <CAS_NUMBER>  (1) 
71675-85-9

>  <UNII>  (1) 
8110R61I4U

>  <SYNONYMS>  (1) 
4-Amino-N-((1-ethyl-2-pyrrolidinyl)methyl)-5-(ethylsulfonyl)-2-methoxybenzamide; 4-Amino-N-((1-ethyl-2-pyrrolidinyl)methyl)-5-(ethylsulfonyl)-O-anisamide; Aminosultopride; Amisulprida; Amisulpride; Amisulpridum

$$$$
