
     RDKit          3D

 29 31  0  0  1  0  0  0  0  0999 V2000
    1.2127   -0.8292    2.3593 C   0  0  0  0  0  0  0  0  0  0  0  0
    0.6015   -2.0724    1.7349 C   0  0  0  0  0  0  0  0  0  0  0  0
    1.0891   -2.3366    0.2764 C   0  0  2  0  0  0  0  0  0  0  0  0
    0.6068   -1.2790   -0.6276 N   0  0  0  0  0  0  0  0  0  0  0  0
    1.2955   -0.8283   -1.7394 C   0  0  0  0  0  0  0  0  0  0  0  0
    1.8374   -1.7355   -2.5851 N   0  0  0  0  0  0  0  0  0  0  0  0
    2.3100   -1.3885   -3.8145 C   0  0  0  0  0  0  0  0  0  0  0  0
    2.7467   -2.3875   -4.6713 N   0  0  0  0  0  0  0  0  0  0  0  0
    3.5446   -2.1177   -5.8575 C   0  0  0  0  0  0  0  0  0  0  0  0
    4.9348   -2.6922   -5.7666 C   0  0  0  0  0  0  0  0  0  0  0  0
    5.8391   -2.4497   -4.7190 C   0  0  0  0  0  0  0  0  0  0  0  0
    5.5720   -1.5471   -3.5529 C   0  0  0  0  0  0  0  0  0  0  0  0
    7.0809   -3.0923   -4.7438 C   0  0  0  0  0  0  0  0  0  0  0  0
    7.4211   -3.8928   -5.8253 C   0  0  0  0  0  0  0  0  0  0  0  0
    8.7231   -4.6299   -5.8399 C   0  0  0  0  0  0  0  0  0  0  0  0
    6.6101   -4.0554   -6.8920 N   0  0  0  0  0  0  0  0  0  0  0  0
    5.4019   -3.4519   -6.8404 C   0  0  0  0  0  0  0  0  0  0  0  0
    2.3961   -0.0188   -4.0897 C   0  0  0  0  0  0  0  0  0  0  0  0
    2.9604    0.6737   -5.1380 N   0  0  0  0  0  0  0  0  0  0  0  0
    2.8505    1.9395   -4.8173 C   0  0  0  0  0  0  0  0  0  0  0  0
    2.1864    2.0853   -3.6330 N   0  0  0  0  0  0  0  0  0  0  0  0
    1.8573    3.3736   -3.0552 C   0  0  0  0  0  0  0  0  0  0  0  0
    0.3471    3.5417   -2.9726 C   0  0  0  0  0  0  0  0  0  0  0  0
    2.5504    3.5700   -1.7143 C   0  0  0  0  0  0  0  0  0  0  0  0
    1.8926    0.8400   -3.1267 C   0  0  0  0  0  0  0  0  0  0  0  0
    1.2767    0.5000   -1.9805 N   0  0  0  0  0  0  0  0  0  0  0  0
    0.5686   -3.7469   -0.1334 C   0  0  1  0  0  0  0  0  0  0  0  0
    1.0023   -4.1667   -1.5225 C   0  0  0  0  0  0  0  0  0  0  0  0
    1.0387   -4.7517    0.7798 O   0  0  0  0  0  0  0  0  0  0  0  0
  1  2  1  0
  3 27  1  0
  3  4  1  0
  3  2  1  1
  4  5  1  0
  5  6  2  0
  5 26  1  0
  6  7  1  0
  7  8  1  0
  7 18  2  0
  8  9  1  0
  9 10  1  0
 10 11  2  0
 10 17  1  0
 11 12  1  0
 11 13  1  0
 13 14  2  0
 14 15  1  0
 14 16  1  0
 16 17  2  0
 18 19  1  0
 18 25  1  0
 19 20  2  0
 20 21  1  0
 21 22  1  0
 21 25  1  0
 22 23  1  0
 22 24  1  0
 25 26  2  0
 27 28  1  6
 27 29  1  0
M  END
>  <DRUGBANK_ID>  (1) 
DB15425

>  <COMMON_NAME>  (1) 
CYC-065

>  <CAS_NUMBER>  (1) 
1070790-89-4

>  <UNII>  (1) 
YET2XNU791

$$$$
