
     RDKit          3D

  6  5  0  0  0  0  0  0  0  0999 V2000
    0.9076   -0.0784   -0.0553 C   0  0  0  0  0  0  0  0  0  0  0  0
    0.4255    1.2385    0.5750 C   0  0  0  0  0  0  0  0  0  0  0  0
    0.9190    2.4379   -0.2491 C   0  0  0  0  0  0  0  0  0  0  0  0
   -1.1110    1.2430    0.5998 C   0  0  0  0  0  0  0  0  0  0  0  0
    0.8954    1.3126    1.9727 N   0  0  0  0  0  0  0  0  0  0  0  0
    2.3440    1.4477    1.9393 O   0  0  0  0  0  0  0  0  0  0  0  0
  1  2  1  0
  2  3  1  0
  2  4  1  0
  2  5  1  0
  5  6  1  0
M  END
>  <DRUGBANK_ID>  (1) 
DB16957

>  <COMMON_NAME>  (1) 
N-T-Butylhydroxylamine

>  <CAS_NUMBER>  (1) 
16649-50-6

>  <UNII>  (1) 
BQ5JE2DA91

>  <SYNONYMS>  (1) 
2-hydroxylamino-2-methylpropane; N-hydroxy-2-methyl-2-propanamine; N-hydroxy-tert-butylamine; N-tert-Butylhydroxylamine

$$$$
