
     RDKit          3D

 30 29  0  0  0  0  0  0  0  0999 V2000
    0.9520    0.0330   -0.0729 C   0  0  0  0  0  0  0  0  0  0  0  0
    1.8411   -8.2550    0.3300 C   0  0  0  0  0  0  0  0  0  0  0  0
   -0.7850  -11.7142    5.3339 C   0  0  0  0  0  0  0  0  0  0  0  0
    0.5114   -1.4181   -0.1751 C   0  0  0  0  0  0  0  0  0  0  0  0
    0.5176   -7.5172    0.4239 C   0  0  0  0  0  0  0  0  0  0  0  0
   -1.5022  -10.6246    6.1096 C   0  0  0  0  0  0  0  0  0  0  0  0
    1.0263   -2.1804    1.0412 C   0  0  0  0  0  0  0  0  0  0  0  0
   -0.3592   -8.2303    1.4350 C   0  0  0  0  0  0  0  0  0  0  0  0
   -0.6094  -10.0675    7.2361 C   0  0  0  0  0  0  0  0  0  0  0  0
    0.4990   -1.5049    2.3144 C   0  0  0  0  0  0  0  0  0  0  0  0
    0.3373   -8.2967    2.7624 C   0  0  0  0  0  0  0  0  0  0  0  0
    0.7415   -9.5455    6.7605 C   0  0  0  0  0  0  0  0  0  0  0  0
   -1.0333   -1.5199    2.3388 C   0  0  0  0  0  0  0  0  0  0  0  0
    0.5419   -6.9038    3.2343 C   0  0  0  0  0  0  0  0  0  0  0  0
    0.4958   -8.3797    5.8895 C   0  0  0  0  0  0  0  0  0  0  0  0
   -1.5366   -2.9065    2.0783 C   0  0  0  0  0  0  0  0  0  0  0  0
   -0.8582   -6.3126    3.4633 C   0  0  0  0  0  0  0  0  0  0  0  0
   -0.1486   -7.2111    6.5625 C   0  0  0  0  0  0  0  0  0  0  0  0
    0.8621   -4.3249    4.8651 C   0  0  0  0  0  0  0  0  0  0  0  0
   -1.3455   -4.3745    6.1628 C   0  0  0  0  0  0  0  0  0  0  0  0
    0.1906   -4.2380    6.2160 C   0  0  0  0  0  0  0  0  0  0  0  0
   -1.2200   -3.6044    3.3217 C   0  0  0  0  0  0  0  0  0  0  0  0
   -1.9251   -6.5596    4.5289 C   0  0  0  0  0  0  0  0  0  0  0  0
    0.6153   -6.4163    7.5583 C   0  0  0  0  0  0  0  0  0  0  0  0
   -2.2214   -4.0679    3.8524 O   0  0  0  0  0  0  0  0  0  0  0  0
   -2.6030   -7.5819    4.4909 O   0  0  0  0  0  0  0  0  0  0  0  0
    1.0390   -6.9156    8.5607 O   0  0  0  0  0  0  0  0  0  0  0  0
    0.1186   -3.6930    3.6988 O   0  0  0  0  0  0  0  0  0  0  0  0
   -2.0406   -5.6488    5.6032 O   0  0  0  0  0  0  0  0  0  0  0  0
    0.8132   -5.0923    7.2505 O   0  0  0  0  0  0  0  0  0  0  0  0
  4  1  1  0
  5  2  1  0
  6  3  1  0
  7  4  1  0
  8  5  1  0
  9  6  1  0
 10  7  1  0
 11  8  1  0
 12  9  1  0
 13 10  1  0
 14 11  1  0
 15 12  1  0
 16 13  1  0
 17 14  1  0
 18 15  1  0
 21 19  1  0
 21 20  1  0
 22 16  1  0
 23 17  1  0
 24 18  1  0
 25 22  2  0
 26 23  2  0
 27 24  2  0
 28 19  1  0
 28 22  1  0
 29 20  1  0
 29 23  1  0
 30 21  1  0
 30 24  1  0
M  END
>  <DRUGBANK_ID>  (1) 
DB11677

>  <COMMON_NAME>  (1) 
Triheptanoin

>  <CAS_NUMBER>  (1) 
620-67-7

>  <UNII>  (1) 
2P6O7CFW5K

>  <SYNONYMS>  (1) 
Glycerol triheptanoate; Glyceryl triheptanoate; Trienanthoin; Triheptanoic glyceride; Triheptanoin; Triheptylin; Trioenanthoin

$$$$
