
     RDKit          3D

 34 36  0  0  0  0  0  0  0  0999 V2000
    0.0146   -1.5092    0.2327 C   0  0  0  0  0  0  0  0  0  0  0  0
   -1.2186   -0.7236    0.2849 C   0  0  0  0  0  0  0  0  0  0  0  0
    1.1718   -0.8085    0.3198 C   0  0  0  0  0  0  0  0  0  0  0  0
    0.0068   -2.9915    0.0705 C   0  0  0  0  0  0  0  0  0  0  0  0
   -1.1984    0.6587    0.2987 C   0  0  0  0  0  0  0  0  0  0  0  0
   -2.4389   -1.3667    0.2514 C   0  0  0  0  0  0  0  0  0  0  0  0
    1.1570    0.6491    0.4550 C   0  0  0  0  0  0  0  0  0  0  0  0
    2.4598   -1.4670    0.1595 C   0  0  0  0  0  0  0  0  0  0  0  0
   -0.6271   -3.7296   -0.9704 C   0  0  0  0  0  0  0  0  0  0  0  0
    0.6352   -3.6727    1.1381 C   0  0  0  0  0  0  0  0  0  0  0  0
   -0.0392    1.3540    0.4992 O   0  0  0  0  0  0  0  0  0  0  0  0
   -2.3769    1.3891    0.1388 C   0  0  0  0  0  0  0  0  0  0  0  0
   -3.6032   -0.6412    0.1918 C   0  0  0  0  0  0  0  0  0  0  0  0
    2.2866    1.3541    0.3635 C   0  0  0  0  0  0  0  0  0  0  0  0
    3.6004   -0.7898    0.0714 C   0  0  0  0  0  0  0  0  0  0  0  0
   -0.6214   -5.1279   -0.8435 C   0  0  0  0  0  0  0  0  0  0  0  0
   -1.3265   -3.0835   -2.1543 C   0  0  0  0  0  0  0  0  0  0  0  0
    0.8139   -5.0403    1.1020 C   0  0  0  0  0  0  0  0  0  0  0  0
   -3.6261    0.7544    0.0999 C   0  0  0  0  0  0  0  0  0  0  0  0
    3.6063    0.6971    0.1300 C   0  0  0  0  0  0  0  0  0  0  0  0
    0.1617   -5.7694    0.1239 C   0  0  0  0  0  0  0  0  0  0  0  0
   -2.0076   -3.8877   -2.9974 O   0  0  0  0  0  0  0  0  0  0  0  0
   -1.3544   -1.8773   -2.3684 O   0  0  0  0  0  0  0  0  0  0  0  0
   -4.8365    1.4247   -0.0116 N   0  0  0  0  0  0  0  0  0  0  0  0
    4.7024    1.3837    0.0022 N   0  0  0  0  0  0  0  0  0  0  0  0
   -4.9146    2.8838    0.0143 C   0  0  0  0  0  0  0  0  0  0  0  0
   -6.0948    0.6617   -0.0047 C   0  0  0  0  0  0  0  0  0  0  0  0
    6.0649    0.7408   -0.0081 C   0  0  0  0  0  0  0  0  0  0  0  0
    4.6863    2.8928   -0.0273 C   0  0  0  0  0  0  0  0  0  0  0  0
   -5.6089    3.4015   -1.2316 C   0  0  0  0  0  0  0  0  0  0  0  0
   -6.2731   -0.1616   -1.2842 C   0  0  0  0  0  0  0  0  0  0  0  0
    6.8065    1.0644   -1.2812 C   0  0  0  0  0  0  0  0  0  0  0  0
    4.0401    3.4102   -1.3056 C   0  0  0  0  0  0  0  0  0  0  0  0
    1.0162    0.6952   -2.9889 Cl  0  0  0  0  0  0  0  0  0  0  0  0
  1  2  1  0
  1  3  2  0
  1  4  1  0
  2  5  1  0
  2  6  2  0
  3  7  1  0
  3  8  1  0
  4  9  2  0
  4 10  1  0
  5 11  1  0
  5 12  2  0
  6 13  1  0
  7 14  2  0
  7 11  1  0
  8 15  2  0
  9 16  1  0
  9 17  1  0
 10 18  2  0
 12 19  1  0
 13 19  2  0
 14 20  1  0
 15 20  1  0
 16 21  2  0
 17 22  1  0
 17 23  2  0
 18 21  1  0
 19 24  1  0
 20 25  2  3
 24 26  1  0
 24 27  1  0
 25 28  1  0
 25 29  1  0
 26 30  1  0
 27 31  1  0
 28 32  1  0
 29 33  1  0
M  CHG  2  25   1  34  -1
M  END
>  <DRUGBANK_ID>  (1) 
DB16853

>  <COMMON_NAME>  (1) 
Rhodamine B

>  <CAS_NUMBER>  (1) 
81-88-9

>  <UNII>  (1) 
K7G5SCF8IL

$$$$
