
     RDKit          3D

 28 30  0  0  1  0  0  0  0  0999 V2000
    4.9594   -5.1738    1.5395 N   0  0  0  0  0  0  0  0  0  0  0  0
    4.4952   -4.4017    0.3779 C   0  0  0  0  0  0  0  0  0  0  0  0
    2.9777   -4.4538    0.3086 C   0  0  0  0  0  0  0  0  0  0  0  0
    2.4110   -3.8791    1.5372 N   0  0  0  0  0  0  0  0  0  0  0  0
    0.9435   -3.9304    1.4689 C   0  0  1  0  0  0  0  0  0  0  0  0
    0.5302   -5.0274    0.4914 C   0  0  0  0  0  0  0  0  0  0  0  0
    0.9759   -6.3969    0.9831 C   0  0  0  0  0  0  0  0  0  0  0  0
    0.4144   -6.7049    2.3654 C   0  0  2  0  0  0  0  0  0  0  0  0
   -1.1028   -6.7541    2.2874 C   0  0  0  0  0  0  0  0  0  0  0  0
   -1.5249   -7.8374    1.3083 C   0  0  0  0  0  0  0  0  0  0  0  0
   -2.2459   -8.8062    1.7045 O   0  0  0  0  0  0  0  0  0  0  0  0
   -1.0993   -7.7646   -0.0969 N   0  0  0  0  0  0  0  0  0  0  0  0
   -0.2654   -6.6441   -0.5551 C   0  0  1  0  0  0  0  0  0  0  0  0
   -0.8461   -5.3514    0.0135 C   0  0  0  0  0  0  0  0  0  0  0  0
    0.0693   -4.1887   -0.2708 C   0  0  0  0  0  0  0  0  0  0  0  0
   -0.4582   -2.9124   -0.1570 C   0  0  0  0  0  0  0  0  0  0  0  0
    0.3365   -1.7953   -0.4052 C   0  0  0  0  0  0  0  0  0  0  0  0
    1.6757   -1.9702   -0.7602 C   0  0  0  0  0  0  0  0  0  0  0  0
    2.1895   -3.2426   -0.8680 C   0  0  0  0  0  0  0  0  0  0  0  0
    3.6464   -3.4339   -1.2568 C   0  0  0  0  0  0  0  0  0  0  0  0
    4.4689   -2.3036   -1.5064 O   0  0  0  0  0  0  0  0  0  0  0  0
    4.1285   -4.6054   -1.3586 O   0  0  0  0  0  0  0  0  0  0  0  0
    1.3911   -4.3555   -0.6253 C   0  0  0  0  0  0  0  0  0  0  0  0
    2.0251   -5.7143   -0.7703 O   0  0  0  0  0  0  0  0  0  0  0  0
    1.1824   -6.7784   -0.0696 B   0  0  0  0  0  0  0  0  0  0  0  0
    1.6856   -7.7833    0.9239 O   0  0  0  0  0  0  0  0  0  0  0  0
    0.8282   -5.6217    3.3490 C   0  0  0  0  0  0  0  0  0  0  0  0
    0.3950   -4.2421    2.8671 C   0  0  0  0  0  0  0  0  0  0  0  0
  1  2  1  0
  2  3  1  0
  3  4  1  0
  5  6  1  0
  5 28  1  0
  5  4  1  1
  6  7  1  0
  8  7  1  0
  8  9  1  6
  8 27  1  0
  9 10  1  0
 10 11  2  0
 10 12  1  0
 13 12  1  1
 13 14  1  0
 13 25  1  0
 14 15  1  0
 15 16  2  0
 15 23  1  0
 16 17  1  0
 17 18  2  0
 18 19  1  0
 19 20  1  0
 19 23  2  0
 20 21  1  0
 20 22  2  0
 23 24  1  0
 24 25  1  0
 25 26  1  0
 27 28  1  0
M  END
>  <DRUGBANK_ID>  (1) 
DB16338

>  <COMMON_NAME>  (1) 
Taniborbactam

>  <CAS_NUMBER>  (1) 
1613267-49-4

>  <UNII>  (1) 
8IGQ156Z07

>  <SYNONYMS>  (1) 
Taniborbactam

$$$$
