3BT
     RDKit          3D

 18 18  0  0  0  0  0  0  0  0999 V2000
    0.9027    0.0746    0.0049 C   0  0  0  0  0  0  0  0  0  0  0  0
    0.4153    0.7216    1.3075 C   0  0  0  0  0  0  0  0  0  0  0  0
    2.1413    2.4796   -1.4344 N   0  0  0  0  0  0  0  0  0  0  0  0
    0.2505    3.1161   -2.5501 N   0  0  0  0  0  0  0  0  0  0  0  0
    0.8819    2.2414   -1.8735 C   0  0  0  0  0  0  0  0  0  0  0  0
    0.1244    0.7240   -1.5099 S   0  0  0  0  0  0  0  0  0  0  0  0
    2.7943    3.6704    1.8449 C   0  0  0  0  0  0  0  0  0  0  0  0
    2.3141    2.3585    1.7315 C   0  0  0  0  0  0  0  0  0  0  0  0
    0.9341    2.1129    1.5714 C   0  0  0  0  0  0  0  0  0  0  0  0
    0.0389    3.1862    1.5650 C   0  0  0  0  0  0  0  0  0  0  0  0
    0.4947    4.4649    1.8571 C   0  0  0  0  0  0  0  0  0  0  0  0
    1.8612    4.6942    2.0610 C   0  0  0  0  0  0  0  0  0  0  0  0
    4.5843    4.7314    0.2052 C   0  0  0  0  0  0  0  0  0  0  0  0
    4.2464    4.0049    1.5454 C   0  0  0  0  0  0  0  0  0  0  0  0
    1.7290    5.0420   -0.8288 N   0  0  0  0  0  0  0  0  0  0  0  0
    1.4382    7.2450   -0.2605 N   0  0  0  0  0  0  0  0  0  0  0  0
    2.2160    6.2432   -0.4618 C   0  0  0  0  0  0  0  0  0  0  0  0
    3.9195    6.4048   -0.1340 S   0  0  0  0  0  0  0  0  0  0  0  0
  1  2  1  0
  1  6  1  0
  2  9  1  0
  3  5  1  0
  4  5  2  0
  5  6  1  0
  7  8  2  0
  7 12  1  0
  7 14  1  0
  8  9  1  0
  9 10  2  0
 10 11  1  0
 11 12  2  0
 13 14  1  0
 13 18  1  0
 15 17  1  0
 16 17  2  0
 17 18  1  0
M  END
>  <DRUGBANK_ID>  (1) 
DB03910

>  <SECONDARY_ACCESSION_NUMBERS>  (1) 
EXPT00164

>  <COMMON_NAME>  (1) 
S,S'-(1,3-Phenylene-Bis(1,2-Ethanediyl))Bis-Isothiourea

$$$$
