b-D-Glucose.mol
     RDKit          3D

 12 12  0  0  0  0  0  0  0  0999 V2000
    2.7208   -0.4243   -0.3331 O   0  0  0  0  0  0  0  0  0  0  0  0
    1.4363   -0.4544    0.2717 C   0  0  1  0  0  0  0  0  0  0  0  0
    0.6925    0.8396   -0.1267 C   0  0  2  0  0  0  0  0  0  0  0  0
    1.2276    1.9728    0.5868 O   0  0  0  0  0  0  0  0  0  0  0  0
   -0.8140    0.7455    0.1338 C   0  0  1  0  0  0  0  0  0  0  0  0
   -1.5026    1.7944   -0.5679 O   0  0  0  0  0  0  0  0  0  0  0  0
   -1.4083   -0.6075   -0.2614 C   0  0  2  0  0  0  0  0  0  0  0  0
   -2.7440   -0.7106    0.2472 O   0  0  0  0  0  0  0  0  0  0  0  0
   -0.5585   -1.7693    0.2599 C   0  0  2  0  0  0  0  0  0  0  0  0
    0.7971   -1.6385   -0.1860 O   0  0  0  0  0  0  0  0  0  0  0  0
   -1.1347   -3.0957   -0.2757 C   0  0  0  0  0  0  0  0  0  0  0  0
   -1.0306   -4.1230    0.7096 O   0  0  0  0  0  0  0  0  0  0  0  0
  2  1  1  6
  2  3  1  0
  2 10  1  0
  3  4  1  1
  3  5  1  0
  5  6  1  6
  5  7  1  0
  7  8  1  1
  7  9  1  0
  9 10  1  0
  9 11  1  6
 11 12  1  0
M  END
>  <DRUGBANK_ID>  (1) 
DB02379

>  <SECONDARY_ACCESSION_NUMBERS>  (1) 
EXPT00685; EXPT00455; EXPT01603

>  <COMMON_NAME>  (1) 
Beta-D-Glucose

>  <CAS_NUMBER>  (1) 
492-61-5

>  <UNII>  (1) 
J4R00M814D

>  <SYNONYMS>  (1) 
beta-D-glucopyranose; Beta-D-glucose anhydrous; Beta-D-glucose, anhydrous; Glucoside; Î²-D-glucose

$$$$
