
     RDKit          3D

 28 30  0  0  0  0  0  0  0  0999 V2000
   -1.0928   -1.3344    0.0229 C   0  0  0  0  0  0  0  0  0  0  0  0
   -1.8328   -0.1868   -0.1199 C   0  0  0  0  0  0  0  0  0  0  0  0
   -1.1599    1.0025   -0.3384 C   0  0  0  0  0  0  0  0  0  0  0  0
    0.2105    1.1663   -0.1412 C   0  0  0  0  0  0  0  0  0  0  0  0
    0.9786   -0.0048   -0.0194 C   0  0  0  0  0  0  0  0  0  0  0  0
    0.3036   -1.2471    0.0200 C   0  0  0  0  0  0  0  0  0  0  0  0
    2.3669   -0.0050    0.0043 N   0  0  0  0  0  0  0  0  0  0  0  0
    0.7958    2.4633   -0.0878 N   0  0  0  0  0  0  0  0  0  0  0  0
    0.2172    3.7303   -0.0454 C   0  0  0  0  0  0  0  0  0  0  0  0
    0.9233    4.7331   -0.1547 O   0  0  0  0  0  0  0  0  0  0  0  0
   -1.2471    3.9313    0.1464 C   0  0  0  0  0  0  0  0  0  0  0  0
   -1.9372    3.2481    1.1603 C   0  0  0  0  0  0  0  0  0  0  0  0
   -3.3355    3.1804    1.1350 C   0  0  0  0  0  0  0  0  0  0  0  0
   -4.0632    3.9563    0.2263 C   0  0  0  0  0  0  0  0  0  0  0  0
   -3.3620    4.7770   -0.6733 C   0  0  0  0  0  0  0  0  0  0  0  0
   -1.9662    4.7077   -0.7691 C   0  0  0  0  0  0  0  0  0  0  0  0
   -5.5708    3.8889    0.1828 C   0  0  0  0  0  0  0  0  0  0  0  0
   -6.1449    5.1627    0.5279 N   0  0  0  0  0  0  0  0  0  0  0  0
   -6.9130    5.9614   -0.2674 C   0  0  0  0  0  0  0  0  0  0  0  0
   -7.2386    7.0771    0.0926 O   0  0  0  0  0  0  0  0  0  0  0  0
   -7.2489    5.3809   -1.4512 O   0  0  0  0  0  0  0  0  0  0  0  0
   -8.0896    6.1631   -2.3210 C   0  0  0  0  0  0  0  0  0  0  0  0
   -9.4503    6.4013   -1.7318 C   0  0  0  0  0  0  0  0  0  0  0  0
   -9.8917    7.6957   -1.4726 C   0  0  0  0  0  0  0  0  0  0  0  0
  -11.0621    7.9895   -0.8648 N   0  0  0  0  0  0  0  0  0  0  0  0
  -11.8215    6.9424   -0.4820 C   0  0  0  0  0  0  0  0  0  0  0  0
  -11.4861    5.6182   -0.7148 C   0  0  0  0  0  0  0  0  0  0  0  0
  -10.2836    5.3451   -1.3578 C   0  0  0  0  0  0  0  0  0  0  0  0
  1  2  2  0
  1  6  1  0
  2  3  1  0
  3  4  2  0
  4  5  1  0
  4  8  1  0
  5  6  2  0
  5  7  1  0
  8  9  1  0
  9 10  2  0
  9 11  1  0
 11 12  2  0
 11 16  1  0
 12 13  1  0
 13 14  2  0
 14 15  1  0
 14 17  1  0
 15 16  2  0
 17 18  1  0
 18 19  1  0
 19 20  2  0
 19 21  1  0
 21 22  1  0
 22 23  1  0
 23 24  2  0
 23 28  1  0
 24 25  1  0
 25 26  2  0
 26 27  1  0
 27 28  2  0
M  END
>  <DRUGBANK_ID>  (1) 
DB11841

>  <COMMON_NAME>  (1) 
Entinostat

>  <CAS_NUMBER>  (1) 
209783-80-2

>  <UNII>  (1) 
1ZNY4FKK9H

>  <SYNONYMS>  (1) 
Entinostat; Entinostatum; N-(2-aminophenyl)-4-(N-(pyridin-3-ylmethoxycarbonyl)aminomethyl)benzamide; N-[[4-[(2-aminoanilino)-oxomethyl]phenyl]methyl]carbamic acid 3-pyridinylmethyl ester

$$$$
