
     RDKit          3D

 15 16  0  0  0  0  0  0  0  0999 V2000
    1.0814    0.0185   -0.1875 C   0  0  0  0  0  0  0  0  0  0  0  0
    0.4637   -0.3288   -1.8479 S   0  0  0  0  0  0  0  0  0  0  0  0
    1.0749    0.9437   -2.8468 C   0  0  0  0  0  0  0  0  0  0  0  0
    1.6947    0.7888   -3.9911 N   0  0  0  0  0  0  0  0  0  0  0  0
    1.7713    2.0487   -4.5603 C   0  0  0  0  0  0  0  0  0  0  0  0
    1.1803    2.9849   -3.7195 C   0  0  0  0  0  0  0  0  0  0  0  0
    0.7515    2.2521   -2.6298 N   0  0  0  0  0  0  0  0  0  0  0  0
    1.0871    4.3460   -4.0363 C   0  0  0  0  0  0  0  0  0  0  0  0
    0.2344    5.4989   -2.7910 Br  0  0  0  0  0  0  0  0  0  0  0  0
    1.6345    4.7742   -5.2659 C   0  0  0  0  0  0  0  0  0  0  0  0
    1.5486    6.6388   -5.7218 Br  0  0  0  0  0  0  0  0  0  0  0  0
    2.2411    3.8462   -6.1425 C   0  0  0  0  0  0  0  0  0  0  0  0
    2.9797    4.4354   -7.8170 Br  0  0  0  0  0  0  0  0  0  0  0  0
    2.3107    2.4753   -5.7953 C   0  0  0  0  0  0  0  0  0  0  0  0
    3.1014    1.1586   -6.9221 Br  0  0  0  0  0  0  0  0  0  0  0  0
  1  2  1  0
  2  3  1  0
  3  4  2  0
  3  7  1  0
  4  5  1  0
  5  6  2  0
  5 14  1  0
  6  7  1  0
  6  8  1  0
  8  9  1  0
  8 10  2  0
 10 11  1  0
 10 12  1  0
 12 13  1  0
 12 14  2  0
 14 15  1  0
M  END
>  <DRUGBANK_ID>  (1) 
DB04720

>  <COMMON_NAME>  (1) 
S-METHYL-4,5,6,7-TETRABROMO-BENZIMIDAZOLE

$$$$
