IFB
     RDKit          3D

 24 25  0  0  0  0  0  0  0  0999 V2000
    1.0163    0.0882    0.0848 O   0  0  0  0  0  0  0  0  0  0  0  0
    2.2399    0.0413    0.0724 C   0  0  0  0  0  0  0  0  0  0  0  0
    2.8927   -1.1371    0.1371 O   0  0  0  0  0  0  0  0  0  0  0  0
    3.1077    1.2683   -0.0442 C   0  0  0  0  0  0  0  0  0  0  0  0
    3.9984    1.4744    1.1700 C   0  0  0  0  0  0  0  0  0  0  0  0
    5.0197    0.4346    1.2643 N   0  0  0  0  0  0  0  0  0  0  0  0
    6.3684    0.7330    1.2820 C   0  0  0  0  0  0  0  0  0  0  0  0
    6.8223    1.8666    1.1787 O   0  0  0  0  0  0  0  0  0  0  0  0
    7.2894   -0.4286    1.3841 C   0  0  0  0  0  0  0  0  0  0  0  0
    8.4187   -0.3048    2.2082 C   0  0  0  0  0  0  0  0  0  0  0  0
    7.0832   -1.6037    0.6468 C   0  0  0  0  0  0  0  0  0  0  0  0
    6.0035   -1.7246   -0.1942 O   0  0  0  0  0  0  0  0  0  0  0  0
    8.0032   -2.6514    0.7576 C   0  0  0  0  0  0  0  0  0  0  0  0
    7.7553   -4.4578   -0.2716 I   0  0  0  0  0  0  0  0  0  0  0  0
    9.1351   -2.5169    1.5759 C   0  0  0  0  0  0  0  0  0  0  0  0
    9.3579   -1.3450    2.3189 C   0  0  0  0  0  0  0  0  0  0  0  0
   10.5355   -1.2188    3.1965 C   0  0  0  0  0  0  0  0  0  0  0  0
   10.3981   -1.0063    4.5801 C   0  0  0  0  0  0  0  0  0  0  0  0
    9.1745   -0.9329    5.1270 F   0  0  0  0  0  0  0  0  0  0  0  0
   11.8410   -1.3120    2.6794 C   0  0  0  0  0  0  0  0  0  0  0  0
   12.9550   -1.1905    3.5183 C   0  0  0  0  0  0  0  0  0  0  0  0
   12.7731   -0.9705    4.8788 C   0  0  0  0  0  0  0  0  0  0  0  0
   13.8423   -0.8430    5.6752 F   0  0  0  0  0  0  0  0  0  0  0  0
   11.5010   -0.8794    5.4210 C   0  0  0  0  0  0  0  0  0  0  0  0
  1  2  2  0
  2  4  1  0
  2  3  1  0
  4  5  1  0
  5  6  1  0
  6  7  1  0
  7  9  1  0
  7  8  2  0
  9 10  2  0
  9 11  1  0
 10 16  1  0
 11 13  2  0
 11 12  1  0
 13 15  1  0
 13 14  1  0
 15 16  2  0
 16 17  1  0
 17 18  2  0
 17 20  1  0
 18 24  1  0
 18 19  1  0
 20 21  2  0
 21 22  1  0
 22 23  1  0
 22 24  2  0
M  END
>  <DRUGBANK_ID>  (1) 
DB07963

>  <COMMON_NAME>  (1) 
N-[(2',4'-DIFLUORO-4-HYDROXY-5-IODOBIPHENYL-3-YL)CARBONYL]-BETA-ALANINE

$$$$
