
     RDKit          3D

 20 22  0  0  1  0  0  0  0  0999 V2000
   -1.6608   -0.8086    0.0027 S   0  0  0  0  0  0  0  0  0  0  0  0
   -1.8710   -1.6924    1.1289 O   0  0  0  0  0  0  0  0  0  0  0  0
   -2.6609   -0.7781   -1.0469 O   0  0  0  0  0  0  0  0  0  0  0  0
    2.7005    0.6330   -0.2689 O   0  0  0  0  0  0  0  0  0  0  0  0
   -0.8575    3.2387   -2.0016 O   0  0  0  0  0  0  0  0  0  0  0  0
   -1.5330    1.1768   -2.5178 O   0  0  0  0  0  0  0  0  0  0  0  0
    0.4766    0.3177   -0.8059 N   0  0  0  0  0  0  0  0  0  0  0  0
    0.3417    0.3937    2.5289 N   0  0  0  0  0  0  0  0  0  0  0  0
    0.5082   -0.7420    3.2248 N   0  0  0  0  0  0  0  0  0  0  0  0
    1.8048   -1.0440    3.1823 N   0  0  0  0  0  0  0  0  0  0  0  0
   -1.4083    0.9073    0.6369 C   0  0  2  0  0  0  0  0  0  0  0  0
   -0.0526   -1.0720   -0.7577 C   0  0  1  0  0  0  0  0  0  0  0  0
   -0.3712    1.4517   -0.3891 C   0  0  2  0  0  0  0  0  0  0  0  0
    1.1565   -1.4585    0.0830 C   0  0  0  0  0  0  0  0  0  0  0  0
    1.7053   -0.0333   -0.3511 C   0  0  0  0  0  0  0  0  0  0  0  0
   -0.9573    0.8823    2.1438 C   0  0  0  0  0  0  0  0  0  0  0  0
   -2.7611    1.6734    0.6509 C   0  0  0  0  0  0  0  0  0  0  0  0
   -0.9852    1.9244   -1.7226 C   0  0  0  0  0  0  0  0  0  0  0  0
    1.5427    0.9715    2.2588 C   0  0  0  0  0  0  0  0  0  0  0  0
    2.4492   -0.0268    2.5424 C   0  0  0  0  0  0  0  0  0  0  0  0
  1  2  2  0
  1  3  2  0
  1 11  1  0
  1 12  1  0
  4 15  2  0
  5 18  1  0
  6 18  2  0
  7 12  1  0
  7 13  1  0
  7 15  1  0
  8  9  1  0
  8 16  1  0
  8 19  1  0
  9 10  2  0
 10 20  1  0
 11 13  1  0
 11 17  1  1
 11 16  1  0
 12 14  1  1
 13 18  1  6
 14 15  1  0
 19 20  2  0
M  END
>  <DRUGBANK_ID>  (1) 
DB01606

>  <SECONDARY_ACCESSION_NUMBERS>  (1) 
EXPT03012

>  <COMMON_NAME>  (1) 
Tazobactam

>  <CAS_NUMBER>  (1) 
89786-04-9

>  <UNII>  (1) 
SE10G96M8W

>  <SYNONYMS>  (1) 
Tazobactam; Tazobactamum

$$$$
