338
     RDKit          3D

 24 26  0  0  1  0  0  0  0  0999 V2000
    0.9450    0.0753    0.0209 S   0  0  0  0  0  0  0  0  0  0  0  0
    0.8107   -5.8793   -2.7299 O   0  0  0  0  0  0  0  0  0  0  0  0
    0.4227    0.9654   -1.0636 O   0  0  0  0  0  0  0  0  0  0  0  0
    8.3261   -1.4819    0.0148 O   0  0  0  0  0  0  0  0  0  0  0  0
    3.4577   -1.1502    0.0146 N   0  0  0  0  0  0  0  0  0  0  0  0
    3.4295    1.0613   -0.0851 N   0  0  0  0  0  0  0  0  0  0  0  0
    1.3125   -1.7734   -2.3344 N   0  0  0  0  0  0  0  0  0  0  0  0
    0.3955   -1.6161   -0.0915 C   0  0  0  0  0  0  0  0  0  0  0  0
    0.7916   -2.4438   -1.2879 C   0  0  0  0  0  0  0  0  0  0  0  0
    0.5865   -3.8380   -1.2975 C   0  0  0  0  0  0  0  0  0  0  0  0
    2.6761   -0.0171   -0.0527 C   0  0  0  0  0  0  0  0  0  0  0  0
    4.7779   -0.7675    0.0054 C   0  0  0  0  0  0  0  0  0  0  0  0
    0.9124   -4.5311   -2.4868 C   0  0  0  0  0  0  0  0  0  0  0  0
    4.7226    0.6175   -0.0322 C   0  0  0  0  0  0  0  0  0  0  0  0
    1.3896   -3.8066   -3.6024 C   0  0  0  0  0  0  0  0  0  0  0  0
    0.0193   -4.4897   -0.0639 C   0  0  0  0  0  0  0  0  0  0  0  0
    5.9823   -1.4839    0.0154 C   0  0  0  0  0  0  0  0  0  0  0  0
    1.5772   -2.4438   -3.4628 C   0  0  0  0  0  0  0  0  0  0  0  0
    5.9122    1.3513   -0.0207 C   0  0  0  0  0  0  0  0  0  0  0  0
    7.1729   -0.7359    0.0066 C   0  0  0  0  0  0  0  0  0  0  0  0
    7.1313    0.6618   -0.0069 C   0  0  0  0  0  0  0  0  0  0  0  0
    1.6649   -4.4321   -4.9399 C   0  0  0  0  0  0  0  0  0  0  0  0
    0.3792   -6.7690   -1.7146 C   0  0  0  0  0  0  0  0  0  0  0  0
    9.5509   -0.7511    0.0104 C   0  0  0  0  0  0  0  0  0  0  0  0
  1  3  2  0
  1  8  1  0
  1 11  1  0
  2 13  1  0
  2 23  1  0
  4 20  1  0
  4 24  1  0
  5 11  1  0
  5 12  1  0
  6 11  2  0
  6 14  1  0
  7  9  2  0
  7 18  1  0
  8  9  1  0
  9 10  1  0
 10 13  2  0
 10 16  1  0
 12 14  2  0
 12 17  1  0
 13 15  1  0
 14 19  1  0
 15 18  2  0
 15 22  1  0
 17 20  2  0
 19 21  2  0
 20 21  1  0
M  END
>  <DRUGBANK_ID>  (1) 
DB00338

>  <SECONDARY_ACCESSION_NUMBERS>  (1) 
APRD00446

>  <COMMON_NAME>  (1) 
Omeprazole

>  <CAS_NUMBER>  (1) 
73590-58-6

>  <UNII>  (1) 
KG60484QX9

>  <SYNONYMS>  (1) 
OMEP; Omeprazol; Omeprazole; Omeprazolum

$$$$
