
     RDKit          3D

 22 22  0  0  0  0  0  0  0  0999 V2000
    0.4873   -0.6781    0.8057 C   0  0  0  0  0  0  0  0  0  0  0  0
    7.4218    0.8554    0.6824 C   0  0  0  0  0  0  0  0  0  0  0  0
    2.9751    5.1973    4.4477 C   0  0  0  0  0  0  0  0  0  0  0  0
    0.3540    0.3498    1.9061 C   0  0  0  0  0  0  0  0  0  0  0  0
    7.1777    2.3646    0.6493 C   0  0  0  0  0  0  0  0  0  0  0  0
    3.8446    4.0109    4.8474 C   0  0  0  0  0  0  0  0  0  0  0  0
    1.3346    0.9249   -1.1719 C   0  0  0  0  0  0  0  0  0  0  0  0
    0.6762    1.3798   -2.4160 C   0  0  0  0  0  0  0  0  0  0  0  0
    4.4686    1.7900    0.6641 C   0  0  0  0  0  0  0  0  0  0  0  0
    2.7836    2.6244    2.6451 C   0  0  0  0  0  0  0  0  0  0  0  0
    3.1072    1.5113    0.5687 C   0  0  0  0  0  0  0  0  0  0  0  0
    2.7595    0.8837   -0.7261 C   0  0  0  0  0  0  0  0  0  0  0  0
    2.2499    1.8589    1.6083 C   0  0  0  0  0  0  0  0  0  0  0  0
    5.0233    2.5046    1.7135 C   0  0  0  0  0  0  0  0  0  0  0  0
    4.1614    2.9318    2.7327 C   0  0  0  0  0  0  0  0  0  0  0  0
    1.1749    0.4746   -3.4925 C   0  0  0  0  0  0  0  0  0  0  0  0
    3.5973    0.1691   -1.2791 O   0  0  0  0  0  0  0  0  0  0  0  0
    0.5406   -0.3975   -4.0287 O   0  0  0  0  0  0  0  0  0  0  0  0
    2.5052    0.6209   -3.6506 O   0  0  0  0  0  0  0  0  0  0  0  0
    0.8932    1.6714    1.6427 O   0  0  0  0  0  0  0  0  0  0  0  0
    6.3634    2.8041    1.7570 O   0  0  0  0  0  0  0  0  0  0  0  0
    4.7153    3.6299    3.7776 O   0  0  0  0  0  0  0  0  0  0  0  0
  4  1  1  0
  5  2  1  0
  6  3  1  0
  8  7  1  0
 11  9  2  0
 12  7  1  0
 12 11  1  0
 13 10  2  0
 13 11  1  0
 14  9  1  0
 15 10  1  0
 15 14  2  0
 16  8  1  0
 17 12  2  0
 18 16  2  0
 19 16  1  0
 20  4  1  0
 20 13  1  0
 21  5  1  0
 21 14  1  0
 22  6  1  0
 22 15  1  0
M  END
>  <DRUGBANK_ID>  (1) 
DB13311

>  <COMMON_NAME>  (1) 
Trepibutone

>  <CAS_NUMBER>  (1) 
41826-92-0

>  <UNII>  (1) 
H1187LU49Q

>  <SYNONYMS>  (1) 
Trepibutone

$$$$
