
     RDKit          3D

 18 17  0  0  1  0  0  0  0  0999 V2000
    1.1382   -0.0105    0.1467 C   0  0  0  0  0  0  0  0  0  0  0  0
    0.5726    0.4475   -1.2309 C   0  0  0  0  0  0  0  0  0  0  0  0
    0.7442   -1.4596    0.4802 C   0  0  0  0  0  0  0  0  0  0  0  0
    1.0611   -0.3441   -2.4561 C   0  0  0  0  0  0  0  0  0  0  0  0
    0.5551   -1.1773    2.9090 C   0  0  0  0  0  0  0  0  0  0  0  0
   -1.7593   -6.5457    0.4980 C   0  0  0  0  0  0  0  0  0  0  0  0
   -0.9247   -0.8791    2.6279 C   0  0  0  0  0  0  0  0  0  0  0  0
   -2.2763   -6.1192    1.8922 C   0  0  0  0  0  0  0  0  0  0  0  0
   -1.1443   -3.3197    0.7192 C   0  0  0  0  0  0  0  0  0  0  0  0
    1.0343   -2.1769    1.9194 C   0  0  1  0  0  0  0  0  0  0  0  0
    0.5149   -1.7341   -2.6710 C   0  0  0  0  0  0  0  0  0  0  0  0
   -1.8120   -3.1502   -0.5265 N   0  0  0  0  0  0  0  0  0  0  0  0
   -0.3553   -6.7039    0.4456 O   0  0  0  0  0  0  0  0  0  0  0  0
   -0.5183   -2.0266   -3.2916 O   0  0  0  0  0  0  0  0  0  0  0  0
    1.2190   -2.7069   -2.0770 O   0  0  0  0  0  0  0  0  0  0  0  0
   -2.0769   -2.2040    2.0118 S   0  0  0  0  0  0  0  0  0  0  0  0
   -1.4339   -4.9409    3.2638 S   0  0  0  0  0  0  0  0  0  0  0  0
    0.6432   -4.1659    2.7737 S   0  0  0  0  0  0  0  0  0  0  0  0
  2  1  1  0
  3  1  1  0
  4  2  1  0
  7  5  1  0
  8  6  1  0
 10  3  1  6
 10  5  1  0
 10 18  1  0
 11  4  1  0
 12  9  1  0
 13  6  1  0
 14 11  2  0
 15 11  1  0
 16  7  1  0
 16  9  1  0
 17  8  1  0
 18 17  1  0
M  END
>  <DRUGBANK_ID>  (1) 
DB03187

>  <SECONDARY_ACCESSION_NUMBERS>  (1) 
EXPT02450

>  <COMMON_NAME>  (1) 
6-(Hydroxyethyldithio)-8-(Aminomethylthio)Octanoic Acid

$$$$
