
     RDKit          3D

 26 28  0  0  1  0  0  0  0  0999 V2000
    2.4875   -0.0062   -0.0091 C   0  0  0  0  0  0  0  0  0  0  0  0
    0.9882   -0.0045    0.0189 C   0  0  0  0  0  0  0  0  0  0  0  0
    0.2789    1.1992    0.0242 C   0  0  0  0  0  0  0  0  0  0  0  0
   -1.1179    1.1954    0.0022 C   0  0  0  0  0  0  0  0  0  0  0  0
   -1.8341   -0.0114   -0.0513 C   0  0  0  0  0  0  0  0  0  0  0  0
   -1.1224   -1.2157   -0.0096 C   0  0  0  0  0  0  0  0  0  0  0  0
    0.2772   -1.2115    0.0184 C   0  0  0  0  0  0  0  0  0  0  0  0
   -3.3445    0.0057   -0.1973 C   0  0  0  0  0  0  0  0  0  0  0  0
   -3.8788   -0.6240   -1.3936 O   0  0  0  0  0  0  0  0  0  0  0  0
   -3.4231   -0.1585   -2.5921 C   0  0  0  0  0  0  0  0  0  0  0  0
   -2.6292    0.7721   -2.7145 O   0  0  0  0  0  0  0  0  0  0  0  0
   -3.8724   -0.8858   -3.6810 N   0  0  0  0  0  0  0  0  0  0  0  0
   -5.2331   -1.3656   -3.8646 C   0  0  0  0  0  0  0  0  0  0  0  0
   -5.2584   -2.8685   -4.1388 C   0  0  0  0  0  0  0  0  0  0  0  0
   -4.3130   -3.2570   -5.2982 C   0  0  1  0  0  0  0  0  0  0  0  0
   -2.9094   -2.6985   -5.0094 C   0  0  1  0  0  0  0  0  0  0  0  0
   -2.9519   -1.1827   -4.7748 C   0  0  0  0  0  0  0  0  0  0  0  0
   -2.4408   -3.2988   -3.8737 F   0  0  0  0  0  0  0  0  0  0  0  0
   -4.2220   -4.7827   -5.4884 C   0  0  0  0  0  0  0  0  0  0  0  0
   -5.5116   -5.3580   -5.8031 N   0  0  0  0  0  0  0  0  0  0  0  0
   -5.7192   -6.0084   -6.9900 C   0  0  0  0  0  0  0  0  0  0  0  0
   -6.8930   -5.7991   -7.6039 N   0  0  0  0  0  0  0  0  0  0  0  0
   -7.1254   -6.5030   -8.7308 C   0  0  0  0  0  0  0  0  0  0  0  0
   -6.2651   -7.4514   -9.2236 C   0  0  0  0  0  0  0  0  0  0  0  0
   -5.1055   -7.6084   -8.5091 C   0  0  0  0  0  0  0  0  0  0  0  0
   -4.7961   -6.8769   -7.4233 N   0  0  0  0  0  0  0  0  0  0  0  0
  1  2  1  0
  2  3  2  0
  2  7  1  0
  3  4  1  0
  4  5  2  0
  5  6  1  0
  5  8  1  0
  6  7  2  0
  8  9  1  0
  9 10  1  0
 10 11  2  0
 10 12  1  0
 12 13  1  0
 12 17  1  0
 13 14  1  0
 14 15  1  0
 15 16  1  0
 15 19  1  1
 16 17  1  0
 16 18  1  1
 19 20  1  0
 20 21  1  0
 21 22  2  0
 21 26  1  0
 22 23  1  0
 23 24  2  0
 24 25  1  0
 25 26  2  0
M  END
>  <DRUGBANK_ID>  (1) 
DB12063

>  <COMMON_NAME>  (1) 
CERC-301

>  <CAS_NUMBER>  (1) 
808732-98-1

>  <UNII>  (1) 
5HAM167S5T

$$$$
