JK3
     RDKit          3D

 25 27  0  0  0  0  0  0  0  0999 V2000
   -2.0934    0.2443    0.1203 Cl  0  0  0  0  0  0  0  0  0  0  0  0
    3.7833   -5.3253    0.9102 C   0  0  0  0  0  0  0  0  0  0  0  0
    4.0899   -6.6681    0.5423 C   0  0  0  0  0  0  0  0  0  0  0  0
    3.1963   -7.0184   -0.4407 C   0  0  0  0  0  0  0  0  0  0  0  0
    2.3977   -5.9629   -0.7139 O   0  0  0  0  0  0  0  0  0  0  0  0
    2.8146   -4.8853    0.0384 C   0  0  0  0  0  0  0  0  0  0  0  0
    2.1822   -3.6165   -0.2485 C   0  0  0  0  0  0  0  0  0  0  0  0
    1.3202   -3.5309   -1.1034 O   0  0  0  0  0  0  0  0  0  0  0  0
    2.5922   -2.4263    0.2868 N   0  0  0  0  0  0  0  0  0  0  0  0
    1.7265   -1.2635    0.1699 C   0  0  0  0  0  0  0  0  0  0  0  0
    2.4171   -0.0342    0.0770 C   0  0  0  0  0  0  0  0  0  0  0  0
    1.7433    1.1890   -0.0018 C   0  0  0  0  0  0  0  0  0  0  0  0
    0.3607    1.2213   -0.0099 C   0  0  0  0  0  0  0  0  0  0  0  0
   -0.3556    0.0308    0.0533 C   0  0  0  0  0  0  0  0  0  0  0  0
    0.2779   -1.2576    0.1314 C   0  0  0  0  0  0  0  0  0  0  0  0
   -0.5942   -2.3590    0.1316 N   0  0  0  0  0  0  0  0  0  0  0  0
   -1.3556   -2.5039   -1.1481 C   0  0  0  0  0  0  0  0  0  0  0  0
   -2.7124   -3.1517   -0.8366 C   0  0  0  0  0  0  0  0  0  0  0  0
   -0.4730   -3.6181    0.9089 C   0  0  0  0  0  0  0  0  0  0  0  0
   -1.8616   -4.2315    1.1352 C   0  0  0  0  0  0  0  0  0  0  0  0
   -2.5991   -4.4506   -0.1381 N   0  0  0  0  0  0  0  0  0  0  0  0
   -2.0749   -5.5379   -1.0103 C   0  0  0  0  0  0  0  0  0  0  0  0
   -0.7993   -5.4215   -1.7562 C   0  0  0  0  0  0  0  0  0  0  0  0
    0.2073   -5.2645   -2.3736 C   0  0  0  0  0  0  0  0  0  0  0  0
    3.1149   -8.6591   -1.3295 Br  0  0  0  0  0  0  0  0  0  0  0  0
  2  6  2  0
  3  2  1  0
  3  4  2  0
  4 25  1  0
  4  5  1  0
  6  5  1  0
  6  7  1  0
  7  9  1  0
  8  7  2  0
  9 10  1  0
 10 15  1  0
 11 10  2  0
 11 12  1  0
 12 13  2  0
 13 14  1  0
 14  1  1  0
 15 14  2  0
 15 16  1  0
 16 17  1  0
 17 18  1  0
 19 16  1  0
 19 20  1  0
 20 21  1  0
 21 18  1  0
 21 22  1  0
 23 22  1  0
 24 23  3  0
M  END
>  <DRUGBANK_ID>  (1) 
DB08021

>  <COMMON_NAME>  (1) 
5-bromo-N-(3-chloro-2-(4-(prop-2-ynyl)piperazin-1-yl)phenyl)furan-2-carboxamide

$$$$
