
     RDKit          3D

 22 21  0  0  0  0  0  0  0  0999 V2000
    0.9968   -0.0195   -0.0322 C   0  0  0  0  0  0  0  0  0  0  0  0
   -1.6138   -2.8888   -2.6833 C   0  0  0  0  0  0  0  0  0  0  0  0
    0.5250   -0.2336   -1.4687 C   0  0  0  0  0  0  0  0  0  0  0  0
   -1.0527   -2.7394   -1.2788 C   0  0  0  0  0  0  0  0  0  0  0  0
    1.0311   -1.5495   -2.0626 C   0  0  0  0  0  0  0  0  0  0  0  0
    0.4754   -2.8049   -1.3914 C   0  0  0  0  0  0  0  0  0  0  0  0
    1.0238   -0.9032    2.3720 C   0  0  0  0  0  0  0  0  0  0  0  0
   -1.5995   -5.3787   -2.3766 C   0  0  0  0  0  0  0  0  0  0  0  0
    0.5381   -1.0828    0.9630 C   0  0  0  0  0  0  0  0  0  0  0  0
   -1.1305   -4.2191   -3.2656 C   0  0  0  0  0  0  0  0  0  0  0  0
   -1.1335    0.2766    2.9704 C   0  0  0  0  0  0  0  0  0  0  0  0
   -3.6888   -5.5695   -3.7654 C   0  0  0  0  0  0  0  0  0  0  0  0
    0.3990    0.3214    2.9893 C   0  0  0  0  0  0  0  0  0  0  0  0
   -3.1291   -5.4264   -2.3498 C   0  0  0  0  0  0  0  0  0  0  0  0
   -1.6851   -0.9338    3.7133 C   0  0  0  0  0  0  0  0  0  0  0  0
   -3.1747   -6.8490   -4.4053 C   0  0  0  0  0  0  0  0  0  0  0  0
   -2.4622   -0.6452    4.8052 N   0  0  0  0  0  0  0  0  0  0  0  0
   -1.4868   -2.0888    3.3487 O   0  0  0  0  0  0  0  0  0  0  0  0
   -2.3556   -1.5732    7.0903 C   0  0  0  0  0  0  0  0  0  0  0  0
   -3.2977   -1.4933    8.0663 O   0  0  0  0  0  0  0  0  0  0  0  0
   -1.1714   -1.4965    7.3437 O   0  0  0  0  0  0  0  0  0  0  0  0
   -2.9301   -1.7106    5.6792 C   0  0  0  0  0  0  0  0  0  0  0  0
  1  9  1  0
  2 10  1  0
  3  1  1  0
  4  2  1  0
  5  3  1  0
  6  4  1  0
  6  5  1  0
  7 13  1  0
  8 14  1  0
  9  7  1  0
 10  8  1  0
 11 15  1  0
 12 16  1  0
 13 11  1  0
 14 12  1  0
 15 17  1  0
 15 18  2  0
 19 21  2  0
 19 22  1  0
 20 19  1  0
 22 17  1  0
M  END
>  <DRUGBANK_ID>  (1) 
DB03440

>  <SECONDARY_ACCESSION_NUMBERS>  (1) 
EXPT00027

>  <COMMON_NAME>  (1) 
N-hexadecanoylglycine

>  <CAS_NUMBER>  (1) 
2441-41-0

>  <UNII>  (1) 
M6V3RIU5KI

>  <SYNONYMS>  (1) 
2-(Hexadecanoylamino)acetic acid; Elmiric acid; N-(1-Oxohexadecyl)glycine; N-ethanoyl-hexadecanamide; N-Palmitoyl glycine; N-Palmitoylglycine

$$$$
