
     RDKit          3D

 22 23  0  0  0  0  0  0  0  0999 V2000
    1.0852    0.0644    0.0049 C   0  0  0  0  0  0  0  0  0  0  0  0
    0.5113    0.6811   -1.2879 C   0  0  0  0  0  0  0  0  0  0  0  0
    1.0383   -0.1538   -2.4677 C   0  0  0  0  0  0  0  0  0  0  0  0
   -1.0191    0.5797   -1.0782 C   0  0  0  0  0  0  0  0  0  0  0  0
   -1.7772    1.4647   -0.6940 O   0  0  0  0  0  0  0  0  0  0  0  0
   -1.5388   -0.6406   -1.3112 O   0  0  0  0  0  0  0  0  0  0  0  0
    1.0645    2.0101   -1.3828 O   0  0  0  0  0  0  0  0  0  0  0  0
    0.7469    2.7626   -2.4844 C   0  0  0  0  0  0  0  0  0  0  0  0
   -0.5351    2.8723   -3.0104 C   0  0  0  0  0  0  0  0  0  0  0  0
   -0.8053    3.6663   -4.1143 C   0  0  0  0  0  0  0  0  0  0  0  0
    0.2083    4.3948   -4.7208 C   0  0  0  0  0  0  0  0  0  0  0  0
    1.4978    4.3428   -4.1725 C   0  0  0  0  0  0  0  0  0  0  0  0
    1.7701    3.5067   -3.0748 C   0  0  0  0  0  0  0  0  0  0  0  0
   -0.0517    5.1298   -5.9885 C   0  0  0  0  0  0  0  0  0  0  0  0
    0.8664    5.6759   -6.5910 O   0  0  0  0  0  0  0  0  0  0  0  0
   -1.4113    5.1707   -6.5848 C   0  0  0  0  0  0  0  0  0  0  0  0
   -2.4783    5.7243   -5.8658 C   0  0  0  0  0  0  0  0  0  0  0  0
   -3.7446    5.8034   -6.4465 C   0  0  0  0  0  0  0  0  0  0  0  0
   -3.9318    5.3686   -7.7577 C   0  0  0  0  0  0  0  0  0  0  0  0
   -2.8654    4.8443   -8.4898 C   0  0  0  0  0  0  0  0  0  0  0  0
   -1.6097    4.7045   -7.8896 C   0  0  0  0  0  0  0  0  0  0  0  0
   -5.4974    5.4545   -8.4655 Cl  0  0  0  0  0  0  0  0  0  0  0  0
  1  2  1  0
  2  3  1  0
  2  4  1  0
  2  7  1  0
  4  5  2  0
  4  6  1  0
  7  8  1  0
  8  9  2  0
  8 13  1  0
  9 10  1  0
 10 11  2  0
 11 12  1  0
 11 14  1  0
 12 13  2  0
 14 15  2  0
 14 16  1  0
 16 17  2  0
 16 21  1  0
 17 18  1  0
 18 19  2  0
 19 20  1  0
 19 22  1  0
 20 21  2  0
M  END
>  <DRUGBANK_ID>  (1) 
DB13873

>  <COMMON_NAME>  (1) 
Fenofibric acid

>  <CAS_NUMBER>  (1) 
42017-89-0

>  <UNII>  (1) 
BGF9MN2HU1

$$$$
