
     RDKit          3D

  7  6  0  0  1  0  0  0  0  0999 V2000
    0.9925    0.0108   -0.0482 C   0  0  0  0  0  0  0  0  0  0  0  0
    0.4301    1.3253   -0.5919 C   0  0  0  0  0  0  0  0  0  0  0  0
    0.9157    1.5516   -2.0228 C   0  0  0  0  0  0  0  0  0  0  0  0
   -1.1118    1.3572   -0.5276 C   0  0  0  0  0  0  0  0  0  0  0  0
   -1.6748    1.1969    0.8978 C   0  0  1  0  0  0  0  0  0  0  0  0
   -1.1933    2.3085    1.8301 C   0  0  0  0  0  0  0  0  0  0  0  0
   -3.1385    1.1871    0.8502 N   0  0  0  0  0  0  0  0  0  0  0  0
  1  2  1  0
  2  3  1  0
  2  4  1  0
  4  5  1  0
  5  6  1  1
  5  7  1  0
M  END
>  <DRUGBANK_ID>  (1) 
DB02107

>  <SECONDARY_ACCESSION_NUMBERS>  (1) 
EXPT00128

>  <COMMON_NAME>  (1) 
Leucine - Reduced Carbonyl

$$$$
