
     RDKit          3D

  8  7  0  0  0  0  0  0  0  0999 V2000
    1.0250   -0.0420    0.0550 C   0  0  1  0  0  0  0  0  0  0  0  0
    0.3275   -1.4070   -0.1248 C   0  0  2  0  0  0  0  0  0  0  0  0
    1.4364   -0.0131    2.4639 O   0  0  0  0  0  0  0  0  0  0  0  0
    1.9522   -2.9726   -1.0130 O   0  0  0  0  0  0  0  0  0  0  0  0
    0.6384    0.8369   -1.0052 O   0  0  0  0  0  0  0  0  0  0  0  0
    0.4915   -2.2037    1.0586 O   0  0  0  0  0  0  0  0  0  0  0  0
    0.6424    0.5540    1.4254 C   0  0  0  0  0  0  0  0  0  0  0  0
    0.7833   -2.2198   -1.3434 C   0  0  0  0  0  0  0  0  0  0  0  0
  1  5  1  6
  1  2  1  0
  1  7  1  0
  2  8  1  0
  2  6  1  1
  3  7  1  0
  4  8  1  0
M  END
>  <DRUGBANK_ID>  (1) 
DB04481

>  <SECONDARY_ACCESSION_NUMBERS>  (1) 
EXPT02232

>  <COMMON_NAME>  (1) 
Erythritol

>  <CAS_NUMBER>  (1) 
149-32-6

>  <UNII>  (1) 
RA96B954X6

>  <SYNONYMS>  (1) 
(2R,3S)-butane-1,2,3,4-tetrol; Erythrit; Erythrite; Erythritol; Erythro-tetritol; Erythrol; L-erythritol; Mesoerythritol; Phycite; Phycitol

$$$$
