SOG
     RDKit          3D

 20 20  0  0  0  0  0  0  0  0999 V2000
    1.1970    1.4235   -0.4344 C   0  0  2  0  0  0  0  0  0  0  0  0
    1.2811   -0.0513    0.0061 C   0  0  1  0  0  0  0  0  0  0  0  0
    0.0183   -0.8444   -0.3760 C   0  0  2  0  0  0  0  0  0  0  0  0
   -1.2811   -0.1152   -0.0182 C   0  0  1  0  0  0  0  0  0  0  0  0
   -1.2858    1.3323   -0.5226 C   0  0  1  0  0  0  0  0  0  0  0  0
   -2.4577    2.0745    0.1862 C   0  0  0  0  0  0  0  0  0  0  0  0
    2.5504    2.3407    2.1412 C   0  0  0  0  0  0  0  0  0  0  0  0
    1.3538    2.9529    2.8766 C   0  0  0  0  0  0  0  0  0  0  0  0
    0.0955    2.1548    2.6569 C   0  0  0  0  0  0  0  0  0  0  0  0
    0.2190    0.7075    3.1087 C   0  0  0  0  0  0  0  0  0  0  0  0
    0.0789    0.5678    4.5943 C   0  0  0  0  0  0  0  0  0  0  0  0
   -1.2876    1.0797    5.0323 C   0  0  0  0  0  0  0  0  0  0  0  0
   -2.4529    0.3453    4.3535 C   0  0  0  0  0  0  0  0  0  0  0  0
   -2.4029   -1.1453    4.6445 C   0  0  0  0  0  0  0  0  0  0  0  0
    2.5584    2.5258    0.2915 S   0  0  0  0  0  0  0  0  0  0  0  0
    2.4541   -0.6959   -0.5319 O   0  0  0  0  0  0  0  0  0  0  0  0
    0.0385   -2.1383    0.2545 O   0  0  0  0  0  0  0  0  0  0  0  0
   -2.4351   -0.8141   -0.5056 O   0  0  0  0  0  0  0  0  0  0  0  0
   -0.0728    2.0680   -0.3064 O   0  0  0  0  0  0  0  0  0  0  0  0
   -2.4626    3.4644   -0.1215 O   0  0  0  0  0  0  0  0  0  0  0  0
  1  2  1  0
  1 15  1  1
  1 19  1  0
  2  3  1  0
  2 16  1  6
  3  4  1  0
  3 17  1  1
  4  5  1  0
  4 18  1  6
  5  6  1  1
  5 19  1  0
  6 20  1  0
  7  8  1  0
  7 15  1  0
  8  9  1  0
  9 10  1  0
 10 11  1  0
 11 12  1  0
 12 13  1  0
 13 14  1  0
M  END
>  <DRUGBANK_ID>  (1) 
DB08558

>  <COMMON_NAME>  (1) 
2-HYDROXYMETHYL-6-OCTYLSULFANYL-TETRAHYDRO-PYRAN-3,4,5-TRIOL

$$$$
