1468
     RDKit          3D

 18 19  0  0  1  0  0  0  0  0999 V2000
   -1.0531    0.0274    0.0070 S   0  0  0  0  0  0  0  0  0  0  0  0
    1.3314    4.7235    1.2880 S   0  0  0  0  0  0  0  0  0  0  0  0
   -2.5757    4.9762   -1.2533 N   0  0  0  0  0  0  0  0  0  0  0  0
   -1.8364    4.6154   -0.0211 C   0  0  0  0  0  0  0  0  0  0  0  0
   -1.4077    3.1600    0.0321 C   0  0  0  0  0  0  0  0  0  0  0  0
   -2.8476    6.4340   -1.3079 C   0  0  0  0  0  0  0  0  0  0  0  0
   -2.6230    4.9386    1.2596 C   0  0  0  0  0  0  0  0  0  0  0  0
   -0.1384    2.6988    0.0538 C   0  0  0  0  0  0  0  0  0  0  0  0
   -1.8316    4.5803   -2.4612 C   0  0  0  0  0  0  0  0  0  0  0  0
   -1.6090    7.3389   -1.2765 C   0  0  0  0  0  0  0  0  0  0  0  0
    0.1490    1.2722    0.0374 C   0  0  0  0  0  0  0  0  0  0  0  0
    0.9538    3.6522   -0.0181 C   0  0  0  0  0  0  0  0  0  0  0  0
    1.4074    0.6793    0.0349 C   0  0  0  0  0  0  0  0  0  0  0  0
    1.8821    3.8041   -1.0369 C   0  0  0  0  0  0  0  0  0  0  0  0
    1.3883   -0.7401    0.0075 C   0  0  0  0  0  0  0  0  0  0  0  0
    2.8359    4.8292   -0.7851 C   0  0  0  0  0  0  0  0  0  0  0  0
    0.1053   -1.2257   -0.0040 C   0  0  0  0  0  0  0  0  0  0  0  0
    2.6026    5.4602    0.4139 C   0  0  0  0  0  0  0  0  0  0  0  0
  1 11  1  0
  1 17  1  0
  2 12  1  0
  2 18  1  0
  3  4  1  0
  3  6  1  0
  3  9  1  0
  4  5  1  0
  4  7  1  0
  5  8  2  3
  6 10  1  0
  8 11  1  0
  8 12  1  0
 11 13  2  0
 12 14  2  0
 13 15  1  0
 14 16  1  0
 15 17  2  0
 16 18  2  0
M  END
>  <DRUGBANK_ID>  (1) 
DB01468

>  <COMMON_NAME>  (1) 
Ethylmethylthiambutene

>  <CAS_NUMBER>  (1) 
441-61-2

>  <UNII>  (1) 
722BFZ899Q

>  <SYNONYMS>  (1) 
Ethylmethylthiambutene

$$$$
