
     RDKit          3D

 22 23  0  0  0  0  0  0  0  0999 V2000
    0.8683    0.0602   -0.0292 N   0  0  0  0  0  0  0  0  0  0  0  0
   -0.0124    0.4679   -1.4132 S   0  0  0  0  0  0  0  0  0  0  0  0
   -0.4874   -0.7422   -2.0498 O   0  0  0  0  0  0  0  0  0  0  0  0
   -0.9417    1.5010   -1.0440 O   0  0  0  0  0  0  0  0  0  0  0  0
    1.0904    1.1179   -2.6231 C   0  0  0  0  0  0  0  0  0  0  0  0
    1.9305    0.2161   -3.3831 C   0  0  0  0  0  0  0  0  0  0  0  0
    2.6983    0.8649   -4.3223 C   0  0  0  0  0  0  0  0  0  0  0  0
    2.4274    2.5500   -4.2909 S   0  0  0  0  0  0  0  0  0  0  0  0
    1.2641    2.4468   -3.0098 C   0  0  0  0  0  0  0  0  0  0  0  0
    0.6455    3.6639   -2.4875 C   0  0  0  0  0  0  0  0  0  0  0  0
    0.9915    4.8147   -3.1224 O   0  0  0  0  0  0  0  0  0  0  0  0
   -0.0895    3.7408   -1.5131 O   0  0  0  0  0  0  0  0  0  0  0  0
    0.1702   -0.4486    1.1214 C   0  0  0  0  0  0  0  0  0  0  0  0
    0.5664   -0.0762    2.4149 C   0  0  0  0  0  0  0  0  0  0  0  0
   -0.0638   -0.5869    3.5597 C   0  0  0  0  0  0  0  0  0  0  0  0
   -1.1090   -1.5057    3.4383 C   0  0  0  0  0  0  0  0  0  0  0  0
   -1.4999   -1.8961    2.1479 C   0  0  0  0  0  0  0  0  0  0  0  0
   -0.8623   -1.3816    1.0069 C   0  0  0  0  0  0  0  0  0  0  0  0
    1.5820    0.8130    2.6520 O   0  0  0  0  0  0  0  0  0  0  0  0
   -1.8308   -2.1197    4.5968 C   0  0  0  0  0  0  0  0  0  0  0  0
   -1.4398   -1.7464    5.8322 O   0  0  0  0  0  0  0  0  0  0  0  0
   -2.7270   -2.9343    4.4357 O   0  0  0  0  0  0  0  0  0  0  0  0
  1  2  1  0
  3  2  2  0
  4  2  2  0
  5  2  1  0
  5  6  1  0
  5  9  2  0
  6  7  2  0
  7  8  1  0
  9  8  1  0
  9 10  1  0
 10 11  1  0
 10 12  2  0
 13  1  1  0
 13 14  2  0
 13 18  1  0
 14 15  1  0
 14 19  1  0
 15 16  2  0
 17 16  1  0
 18 17  2  0
 20 16  1  0
 20 21  1  0
 20 22  2  0
M  END
>  <DRUGBANK_ID>  (1) 
DB07927

>  <COMMON_NAME>  (1) 
3-[(4-Carboxy-2-hydroxyphenyl)sulfamoyl]-2-thiophenecarboxylic acid

$$$$
