
     RDKit          3D

 11 12  0  0  0  0  0  0  0  0999 V2000
    2.7055   -0.7287   -0.0009 C   0  0  0  0  0  0  0  0  0  0  0  0
    2.7145    0.6534    0.0002 C   0  0  0  0  0  0  0  0  0  0  0  0
    1.5018    1.3497    0.0005 C   0  0  0  0  0  0  0  0  0  0  0  0
    0.2423    0.6944    0.0001 C   0  0  0  0  0  0  0  0  0  0  0  0
    0.2500   -0.7070   -0.0008 C   0  0  0  0  0  0  0  0  0  0  0  0
    1.4859   -1.3966   -0.0014 C   0  0  0  0  0  0  0  0  0  0  0  0
   -0.9181   -1.5836   -0.0021 C   0  0  0  0  0  0  0  0  0  0  0  0
   -2.2052   -1.2466   -0.0015 C   0  0  0  0  0  0  0  0  0  0  0  0
   -2.7418    0.1160    0.0006 C   0  0  0  0  0  0  0  0  0  0  0  0
   -2.2038    1.2835    0.0012 N   0  0  0  0  0  0  0  0  0  0  0  0
   -0.8851    1.5370   -0.0003 N   0  0  0  0  0  0  0  0  0  0  0  0
  1  2  2  0
  1  6  1  0
  2  3  1  0
  3  4  2  0
  4  5  1  0
  4 11  1  0
  5  6  2  0
  5  7  1  0
  7  8  2  0
  8  9  1  0
  9 10  2  0
 10 11  1  0
M  END
>  <DRUGBANK_ID>  (1) 
DB12537

>  <COMMON_NAME>  (1) 
1,2-Benzodiazepine

>  <CAS_NUMBER>  (1) 
264-60-8

>  <UNII>  (1) 
M0Q7802G2B

>  <SYNONYMS>  (1) 
1H-1,2-Benzodiazepine; Benzodiazepine

$$$$
