
     RDKit          3D

 25 27  0  0  0  0  0  0  0  0999 V2000
    1.1282   -0.2075   -1.1259 C   0  0  0  0  0  0  0  0  0  0  0  0
    0.3969   -1.3593   -0.7722 C   0  0  0  0  0  0  0  0  0  0  0  0
   -0.9661   -1.1970   -0.4733 C   0  0  0  0  0  0  0  0  0  0  0  0
   -1.5449    0.0941   -0.3927 C   0  0  0  0  0  0  0  0  0  0  0  0
   -0.7560    1.2493   -0.5712 C   0  0  0  0  0  0  0  0  0  0  0  0
    0.5150    1.0667   -1.1074 C   0  0  0  0  0  0  0  0  0  0  0  0
    0.9795   -2.5790   -0.5405 O   0  0  0  0  0  0  0  0  0  0  0  0
    2.3804   -2.7921   -0.3889 C   0  0  0  0  0  0  0  0  0  0  0  0
   -1.8503   -2.1755   -0.0610 O   0  0  0  0  0  0  0  0  0  0  0  0
   -1.3578   -3.5012    0.0689 C   0  0  0  0  0  0  0  0  0  0  0  0
   -1.1859    2.5764    0.0621 C   0  0  0  0  0  0  0  0  0  0  0  0
   -0.6847    2.9071    1.4983 C   0  0  0  0  0  0  0  0  0  0  0  0
    0.7150    2.8680    1.7098 O   0  0  0  0  0  0  0  0  0  0  0  0
    1.4201    1.6383    1.7305 C   0  0  2  0  0  0  0  0  0  0  0  0
    3.5013    0.3450    2.3224 C   0  0  0  0  0  0  0  0  0  0  0  0
    2.6064   -0.7982    2.8587 C   0  0  0  0  0  0  0  0  0  0  0  0
    1.2765   -0.7943    2.1606 C   0  0  0  0  0  0  0  0  0  0  0  0
    0.5681    0.5167    2.2986 C   0  0  0  0  0  0  0  0  0  0  0  0
    2.8010    1.7294    2.4473 C   0  0  1  0  0  0  0  0  0  0  0  0
    3.6415    2.9029    2.0763 N   0  0  0  0  0  0  0  0  0  0  0  0
    4.2802    2.9869    0.7510 C   0  0  0  0  0  0  0  0  0  0  0  0
    4.0889    4.4380    0.2639 C   0  0  0  0  0  0  0  0  0  0  0  0
    2.7678    4.8318    0.8727 C   0  0  2  0  0  0  0  0  0  0  0  0
    2.9061    4.1771    2.2628 C   0  0  0  0  0  0  0  0  0  0  0  0
    1.7668    4.3646   -0.0277 O   0  0  0  0  0  0  0  0  0  0  0  0
  1  2  2  0
  1  6  1  0
  2  3  1  0
  2  7  1  0
  3  4  2  0
  3  9  1  0
  4  5  1  0
  5  6  2  0
  5 11  1  0
  7  8  1  0
  9 10  1  0
 11 12  1  0
 12 13  1  0
 14 13  1  1
 14 19  1  0
 15 16  1  0
 16 17  1  0
 17 18  1  0
 18 14  1  0
 19 15  1  0
 19 20  1  6
 20 21  1  0
 20 24  1  0
 21 22  1  0
 22 23  1  0
 23 24  1  0
 23 25  1  6
M  END
>  <DRUGBANK_ID>  (1) 
DB06217

>  <COMMON_NAME>  (1) 
Vernakalant

>  <CAS_NUMBER>  (1) 
794466-70-9

>  <UNII>  (1) 
9G468C8B13

>  <SYNONYMS>  (1) 
(3R)-1-((1R,2R)-2-(2-(3,4-dimethoxyphenyl)ethoxy)cyclohexyl)pyrrolidin-3-ol; Vernakalant

$$$$
