1573
     RDKit          3D

 28 33  0  0  1  0  0  0  0  0999 V2000
   -1.9586    0.1752    1.0541 O   0  0  0  0  0  0  0  0  0  0  0  0
   -3.0287   -1.9212   -0.8033 O   0  0  0  0  0  0  0  0  0  0  0  0
   -2.9661    3.0049    0.5822 O   0  0  0  0  0  0  0  0  0  0  0  0
    2.9787   -1.0037    0.3029 N   0  0  0  0  0  0  0  0  0  0  0  0
    0.2068   -0.6296    0.5176 C   0  0  1  0  0  0  0  0  0  0  0  0
    0.8736   -1.2921   -0.7111 C   0  0  2  0  0  0  0  0  0  0  0  0
    2.2095   -0.6099   -0.8940 C   0  0  1  0  0  0  0  0  0  0  0  0
   -1.2364   -1.0410    0.7382 C   0  0  2  0  0  0  0  0  0  0  0  0
    1.0336   -0.8082    1.7928 C   0  0  0  0  0  0  0  0  0  0  0  0
    0.0073    0.8221    0.2128 C   0  0  0  0  0  0  0  0  0  0  0  0
    2.0510    0.9386   -1.1757 C   0  0  0  0  0  0  0  0  0  0  0  0
    2.4815   -0.3982    1.5421 C   0  0  0  0  0  0  0  0  0  0  0  0
    0.8583    1.6083   -0.5313 C   0  0  0  0  0  0  0  0  0  0  0  0
   -1.6963   -1.8900   -0.4956 C   0  0  2  0  0  0  0  0  0  0  0  0
    0.0538   -1.1825   -1.9686 C   0  0  0  0  0  0  0  0  0  0  0  0
   -1.2507    1.2348    0.5866 C   0  0  0  0  0  0  0  0  0  0  0  0
   -1.2107   -1.4494   -1.8295 C   0  0  0  0  0  0  0  0  0  0  0  0
    0.4665    2.9333   -0.7361 C   0  0  0  0  0  0  0  0  0  0  0  0
    4.3878   -0.7548    0.0937 C   0  0  0  0  0  0  0  0  0  0  0  0
   -1.7033    2.5210    0.3627 C   0  0  0  0  0  0  0  0  0  0  0  0
   -0.7928    3.3923   -0.2661 C   0  0  0  0  0  0  0  0  0  0  0  0
   -3.9168    2.2221    1.3312 C   0  0  0  0  0  0  0  0  0  0  0  0
   -4.5624    1.0262    0.6465 C   0  0  0  0  0  0  0  0  0  0  0  0
   -4.4658   -0.2260    1.2820 C   0  0  0  0  0  0  0  0  0  0  0  0
   -5.2285    1.1043   -0.5834 C   0  0  0  0  0  0  0  0  0  0  0  0
   -4.8826   -1.3892    0.6473 C   0  0  0  0  0  0  0  0  0  0  0  0
   -5.6700   -0.0618   -1.2223 C   0  0  0  0  0  0  0  0  0  0  0  0
   -5.4475   -1.3063   -0.6349 C   0  0  0  0  0  0  0  0  0  0  0  0
  8  1  1  6
  1 16  1  0
  3 20  1  0
  3 22  1  0
  4  7  1  0
  4 12  1  0
  4 19  1  0
  5  6  1  0
  5  8  1  0
  5  9  1  1
  5 10  1  0
  6  7  1  0
  6 15  1  6
  7 11  1  1
  8 14  1  0
  9 12  1  0
 10 13  2  0
 10 16  1  0
 11 13  1  0
 13 18  1  0
 14  2  1  6
 14 17  1  0
 15 17  2  0
 16 20  2  0
 18 21  2  0
 20 21  1  0
 22 23  1  0
 23 24  2  0
 23 25  1  0
 24 26  1  0
 25 27  2  0
 26 28  2  0
 27 28  1  0
M  END
>  <DRUGBANK_ID>  (1) 
DB01573

>  <COMMON_NAME>  (1) 
Benzylmorphine

>  <CAS_NUMBER>  (1) 
14297-87-1

>  <UNII>  (1) 
83C78V3OL9

$$$$
