Carotene-beta
     RDKit          3D

 40 41  0  0  0  0  0  0  0  0999 V2000
    0.1499   -1.0967    0.1394 C   0  0  0  0  0  0  0  0  0  0  0  0
    0.0703   -2.5522    0.3945 C   0  0  0  0  0  0  0  0  0  0  0  0
    1.5041    1.0389   -0.1346 C   0  0  0  0  0  0  0  0  0  0  0  0
   -0.9265    1.1501   -0.5449 C   0  0  0  0  0  0  0  0  0  0  0  0
   -1.0131   -3.3219    0.6186 C   0  0  0  0  0  0  0  0  0  0  0  0
    0.2387    1.8319    0.1374 C   0  0  0  0  0  0  0  0  0  0  0  0
   -1.0484   -4.7726    0.8076 C   0  0  0  0  0  0  0  0  0  0  0  0
   -2.2436   -5.4084    0.8852 C   0  0  0  0  0  0  0  0  0  0  0  0
    0.2933   -5.4534    0.9107 C   0  0  0  0  0  0  0  0  0  0  0  0
   -2.3949   -6.8315    1.1080 C   0  0  0  0  0  0  0  0  0  0  0  0
   -3.5326   -7.5421    1.2169 C   0  0  0  0  0  0  0  0  0  0  0  0
   -3.5454   -8.9977    1.4691 C   0  0  0  0  0  0  0  0  0  0  0  0
   -4.7116   -9.6743    1.5746 C   0  0  0  0  0  0  0  0  0  0  0  0
   -2.1994   -9.6814    1.6051 C   0  0  0  0  0  0  0  0  0  0  0  0
   -4.8214  -11.1044    1.8219 C   0  0  0  0  0  0  0  0  0  0  0  0
   -5.9821  -11.7696    1.9240 C   0  0  0  0  0  0  0  0  0  0  0  0
   -6.0657  -13.2064    2.1728 C   0  0  0  0  0  0  0  0  0  0  0  0
   -7.2322  -13.8863    2.2789 C   0  0  0  0  0  0  0  0  0  0  0  0
   -7.2482  -15.3391    2.5303 C   0  0  0  0  0  0  0  0  0  0  0  0
   -8.5301  -13.1233    2.1296 C   0  0  0  0  0  0  0  0  0  0  0  0
   -8.3648  -16.0795    2.6438 C   0  0  0  0  0  0  0  0  0  0  0  0
   -8.4811  -17.5122    2.8688 C   0  0  0  0  0  0  0  0  0  0  0  0
   -9.6756  -18.1554    2.9409 C   0  0  0  0  0  0  0  0  0  0  0  0
   -9.7313  -19.6052    3.1431 C   0  0  0  0  0  0  0  0  0  0  0  0
  -10.9752  -17.3886    2.8242 C   0  0  0  0  0  0  0  0  0  0  0  0
  -10.8371  -20.3538    3.3282 C   0  0  0  0  0  0  0  0  0  0  0  0
  -10.8555  -21.7907    3.6122 C   0  0  0  0  0  0  0  0  0  0  0  0
  -10.0115  -23.8161    4.8483 C   0  0  0  0  0  0  0  0  0  0  0  0
  -11.9838  -24.0873    3.3618 C   0  0  0  0  0  0  0  0  0  0  0  0
  -10.6397  -24.6719    3.7582 C   0  0  0  0  0  0  0  0  0  0  0  0
    1.3575   -0.4694    0.0247 C   0  0  0  0  0  0  0  0  0  0  0  0
    2.7231   -1.1269    0.0192 C   0  0  0  0  0  0  0  0  0  0  0  0
   -9.2529  -21.5394    5.5752 C   0  0  0  0  0  0  0  0  0  0  0  0
  -10.0929  -22.3271    4.5969 C   0  0  0  0  0  0  0  0  0  0  0  0
   -2.1314   -0.9011   -1.0755 C   0  0  0  0  0  0  0  0  0  0  0  0
   -1.1734   -0.2944   -0.0138 C   0  0  0  0  0  0  0  0  0  0  0  0
   -1.8618   -0.1799    1.3667 C   0  0  0  0  0  0  0  0  0  0  0  0
  -13.2796  -22.0687    2.7520 C   0  0  0  0  0  0  0  0  0  0  0  0
  -11.8445  -22.6514    2.7784 C   0  0  0  0  0  0  0  0  0  0  0  0
  -11.3372  -22.7467    1.3249 C   0  0  0  0  0  0  0  0  0  0  0  0
  1 31  2  0
  1 36  1  0
  1  2  1  0
  2  5  2  0
  3  6  1  0
  4  6  1  0
  5  7  1  0
  7  8  2  0
  7  9  1  0
  8 10  1  0
 10 11  2  0
 11 12  1  0
 12 13  2  0
 12 14  1  0
 13 15  1  0
 15 16  2  0
 16 17  1  0
 17 18  2  0
 18 19  1  0
 18 20  1  0
 19 21  2  0
 21 22  1  0
 22 23  2  0
 23 24  1  0
 23 25  1  0
 24 26  2  0
 26 27  1  0
 27 34  2  0
 27 39  1  0
 28 30  1  0
 29 30  1  0
 31  3  1  0
 31 32  1  0
 34 28  1  0
 34 33  1  0
 36  4  1  0
 36 35  1  0
 36 37  1  0
 39 29  1  0
 39 38  1  0
 39 40  1  0
M  END
>  <DRUGBANK_ID>  (1) 
DB06755

>  <COMMON_NAME>  (1) 
Beta carotene

>  <CAS_NUMBER>  (1) 
7235-40-7

>  <UNII>  (1) 
01YAE03M7J

>  <SYNONYMS>  (1) 
all-trans-β-carotene; Beta carotene; beta-carotene; Betacarotene; β-Karotin

$$$$
