
     RDKit          3D

 20 23  0  0  0  0  0  0  0  0999 V2000
   -2.1346    0.1231   -0.0110 F   0  0  0  0  0  0  0  0  0  0  0  0
   -0.7961    0.0592   -0.0061 C   0  0  0  0  0  0  0  0  0  0  0  0
   -0.0801    1.2438    0.0007 C   0  0  0  0  0  0  0  0  0  0  0  0
    1.3106    1.1758    0.0152 C   0  0  0  0  0  0  0  0  0  0  0  0
    1.9446   -0.0711    0.0153 C   0  0  0  0  0  0  0  0  0  0  0  0
    1.1196   -1.1979    0.0022 C   0  0  0  0  0  0  0  0  0  0  0  0
   -0.2324   -1.1644   -0.0081 N   0  0  0  0  0  0  0  0  0  0  0  0
    3.4027   -0.1967    0.0133 C   0  0  0  0  0  0  0  0  0  0  0  0
    4.1709    0.3350    1.0587 C   0  0  0  0  0  0  0  0  0  0  0  0
    5.5675    0.2123    1.0766 C   0  0  0  0  0  0  0  0  0  0  0  0
    6.2164   -0.4555    0.0189 C   0  0  0  0  0  0  0  0  0  0  0  0
    5.4374   -0.9767   -1.0121 C   0  0  0  0  0  0  0  0  0  0  0  0
    6.2900   -1.5701   -1.9100 N   0  0  0  0  0  0  0  0  0  0  0  0
    7.5928   -1.4511   -1.4976 C   0  0  0  0  0  0  0  0  0  0  0  0
    7.5815   -0.7567   -0.2877 C   0  0  0  0  0  0  0  0  0  0  0  0
    8.8068   -0.5059    0.3424 C   0  0  0  0  0  0  0  0  0  0  0  0
    9.9696   -0.9291   -0.2149 N   0  0  0  0  0  0  0  0  0  0  0  0
    9.9261   -1.5977   -1.3885 C   0  0  0  0  0  0  0  0  0  0  0  0
    8.7700   -1.8968   -2.0910 C   0  0  0  0  0  0  0  0  0  0  0  0
    4.0442   -0.8661   -1.0427 C   0  0  0  0  0  0  0  0  0  0  0  0
  1  2  1  0
  2  3  2  0
  2  7  1  0
  3  4  1  0
  4  5  2  0
  5  6  1  0
  5  8  1  0
  6  7  2  0
  8  9  2  0
  8 20  1  0
  9 10  1  0
 10 11  2  0
 11 12  1  0
 11 15  1  0
 12 13  1  0
 12 20  2  0
 13 14  1  0
 14 15  2  0
 14 19  1  0
 15 16  1  0
 16 17  2  0
 17 18  1  0
 18 19  2  0
M  END
>  <DRUGBANK_ID>  (1) 
DB15033

>  <COMMON_NAME>  (1) 
Flortaucipir

>  <CAS_NUMBER>  (1) 
1415379-56-4

>  <UNII>  (1) 
J09QS3Z3WB

$$$$
