IAG
     RDKit          3D

 17 18  0  0  0  0  0  0  0  0999 V2000
    0.7912    0.0766   -0.2646 O   0  0  0  0  0  0  0  0  0  0  0  0
    0.2413    1.2778   -0.5185 C   0  0  0  0  0  0  0  0  0  0  0  0
    0.9554    2.2758   -0.5601 O   0  0  0  0  0  0  0  0  0  0  0  0
   -1.2845    1.2973   -0.6090 C   0  0  0  0  0  0  0  0  0  0  0  0
   -1.8523    0.1883   -1.3493 N   0  0  0  0  0  0  0  0  0  0  0  0
   -2.5739   -0.8687   -0.8699 C   0  0  0  0  0  0  0  0  0  0  0  0
   -2.9922   -1.6978   -1.6829 O   0  0  0  0  0  0  0  0  0  0  0  0
   -2.9377   -0.9481    0.6134 C   0  0  0  0  0  0  0  0  0  0  0  0
   -1.7493   -1.1069    1.5208 C   0  0  0  0  0  0  0  0  0  0  0  0
   -1.0194   -0.1209    2.1657 C   0  0  0  0  0  0  0  0  0  0  0  0
    0.0801   -0.6925    2.7404 N   0  0  0  0  0  0  0  0  0  0  0  0
   -1.1546   -2.3470    1.9111 C   0  0  0  0  0  0  0  0  0  0  0  0
   -0.0096   -2.0549    2.6530 C   0  0  0  0  0  0  0  0  0  0  0  0
    0.8379   -3.0360    3.1673 C   0  0  0  0  0  0  0  0  0  0  0  0
    0.4865   -4.3660    2.9334 C   0  0  0  0  0  0  0  0  0  0  0  0
   -0.6600   -4.6939    2.2116 C   0  0  0  0  0  0  0  0  0  0  0  0
   -1.4854   -3.6958    1.6873 C   0  0  0  0  0  0  0  0  0  0  0  0
  1  2  1  0
  2  3  2  0
  2  4  1  0
  4  5  1  0
  5  6  1  0
  6  7  2  0
  6  8  1  0
  8  9  1  0
  9 10  2  0
  9 12  1  0
 10 11  1  0
 11 13  1  0
 12 13  2  0
 12 17  1  0
 13 14  1  0
 14 15  2  0
 15 16  1  0
 16 17  2  0
M  END
>  <DRUGBANK_ID>  (1) 
DB07952

>  <COMMON_NAME>  (1) 
N-[1H-INDOL-3-YL-ACETYL]GLYCINE ACID

$$$$
