
     RDKit          3D

 20 22  0  0  0  0  0  0  0  0999 V2000
   -0.2377    0.5567   -0.0265 C   0  0  0  0  0  0  0  0  0  0  0  0
   -1.5121   -1.2859   -0.0381 C   0  0  0  0  0  0  0  0  0  0  0  0
   -1.5410    0.9597   -0.0472 O   0  0  0  0  0  0  0  0  0  0  0  0
   -0.1675   -0.8288   -0.0113 C   0  0  0  0  0  0  0  0  0  0  0  0
   -2.3067   -0.1600   -0.0533 C   0  0  0  0  0  0  0  0  0  0  0  0
    0.8725    1.4103   -0.0224 C   0  0  0  0  0  0  0  0  0  0  0  0
    0.7509    2.9164   -0.0263 C   0  0  0  0  0  0  0  0  0  0  0  0
   -0.0138    3.4170   -1.2405 C   0  0  0  0  0  0  0  0  0  0  0  0
   -2.0338   -2.6301    0.0021 C   0  0  0  0  0  0  0  0  0  0  0  0
   -1.0303    4.0987   -1.2455 O   0  0  0  0  0  0  0  0  0  0  0  0
    0.5696    3.0749   -2.4102 O   0  0  0  0  0  0  0  0  0  0  0  0
    1.0958   -1.4408    0.0122 C   0  0  0  0  0  0  0  0  0  0  0  0
    2.1247    0.7639   -0.0201 C   0  0  0  0  0  0  0  0  0  0  0  0
    2.2345   -0.6302    0.0016 C   0  0  0  0  0  0  0  0  0  0  0  0
    0.0826    3.3900    1.2673 C   0  0  0  0  0  0  0  0  0  0  0  0
   -1.7073   -3.4643    1.0769 C   0  0  0  0  0  0  0  0  0  0  0  0
   -2.8820   -3.0943   -1.0073 C   0  0  0  0  0  0  0  0  0  0  0  0
   -2.2484   -4.7460    1.1558 C   0  0  0  0  0  0  0  0  0  0  0  0
   -3.4602   -4.3585   -0.8999 C   0  0  0  0  0  0  0  0  0  0  0  0
   -3.1268   -5.1907    0.1689 C   0  0  0  0  0  0  0  0  0  0  0  0
  2  4  1  0
  2  5  2  0
  3  1  1  0
  4  1  2  0
  5  3  1  0
  6  1  1  0
  7  6  1  0
  8  7  1  0
  9  2  1  0
 10  8  2  0
 11  8  1  0
 12  4  1  0
 12 14  2  0
 13  6  2  0
 14 13  1  0
 15  7  1  0
 16  9  2  0
 17  9  1  0
 18 16  1  0
 18 20  2  0
 19 17  2  0
 20 19  1  0
M  END
>  <DRUGBANK_ID>  (1) 
DB06499

>  <COMMON_NAME>  (1) 
Furaprofen

>  <CAS_NUMBER>  (1) 
67700-30-5

>  <UNII>  (1) 
T9G78A1R21

>  <SYNONYMS>  (1) 
alpha-Methyl-3-phenyl-7-benzofuranacetic acid; Furaprofen; Furaprofeno; Furaprofenum

$$$$
