
     RDKit          3D

 26 27  0  0  0  0  0  0  0  0999 V2000
    1.0810   -0.0587    0.0014 P   0  0  0  0  0  0  0  0  0  0  0  0
    0.3064   -4.2371    0.1479 O   0  0  0  0  0  0  0  0  0  0  0  0
   -2.9674   -4.5552    1.6367 O   0  0  0  0  0  0  0  0  0  0  0  0
   -2.4753   -2.2178    0.5391 O   0  0  0  0  0  0  0  0  0  0  0  0
    0.9632   -0.9395    1.3805 O   0  0  0  0  0  0  0  0  0  0  0  0
   -2.3489   -7.6849   -0.4521 O   0  0  0  0  0  0  0  0  0  0  0  0
    0.9876    1.4599    0.5708 O   0  0  0  0  0  0  0  0  0  0  0  0
   -0.6490   -0.0587    0.0014 O   0  0  0  0  0  0  0  0  0  0  0  0
   -0.1442  -10.4282    1.3924 O   0  0  0  0  0  0  0  0  0  0  0  0
    2.6293   -0.0587    0.0014 O   0  0  0  0  0  0  0  0  0  0  0  0
   -0.4233   -6.5909    0.6996 N   0  0  0  0  0  0  0  0  0  0  0  0
   -0.5820   -8.8345   -0.1471 N   0  0  0  0  0  0  0  0  0  0  0  0
   -1.5587   -4.2700    1.7174 C   0  0  2  0  0  0  0  0  0  0  0  0
   -1.3550   -2.8070    1.2277 C   0  0  1  0  0  0  0  0  0  0  0  0
   -0.6846   -5.0740    0.7704 C   0  0  1  0  0  0  0  0  0  0  0  0
   -0.0772   -2.8579    0.3641 C   0  0  1  0  0  0  0  0  0  0  0  0
    1.1225   -2.3163    1.1057 C   0  0  0  0  0  0  0  0  0  0  0  0
   -3.4375   -5.4281    0.5854 C   0  0  0  0  0  0  0  0  0  0  0  0
    0.7513   -6.9757    1.2740 C   0  0  0  0  0  0  0  0  0  0  0  0
   -1.2272   -7.6622    0.0544 C   0  0  0  0  0  0  0  0  0  0  0  0
   -3.3387   -4.9942   -1.0125 C   0  0  0  0  0  0  0  0  0  0  0  0
    0.8975   -8.2721    1.5647 C   0  0  0  0  0  0  0  0  0  0  0  0
   -1.9934   -4.5937   -1.8751 C   0  0  0  0  0  0  0  0  0  0  0  0
    0.0230   -9.2747    0.9425 C   0  0  0  0  0  0  0  0  0  0  0  0
    1.7476   -8.7033    2.6663 C   0  0  0  0  0  0  0  0  0  0  0  0
   -0.9658   -5.7044   -1.9929 C   0  0  0  0  0  0  0  0  0  0  0  0
  1  5  1  0
  1  7  1  0
  1  8  1  0
  1 10  2  0
  2 15  1  0
  2 16  1  0
  3 18  1  0
  5 17  1  0
  6 20  2  0
  9 24  2  0
 11 19  1  0
 11 20  1  0
 12 20  1  0
 12 24  1  0
 13 14  1  0
 13 15  1  0
 13  3  1  6
 14  4  1  6
 14 16  1  0
 15 11  1  1
 16 17  1  1
 18 21  1  0
 19 22  2  0
 21 23  1  0
 22 24  1  0
 22 25  1  0
 23 26  1  0
M  END
>  <DRUGBANK_ID>  (1) 
DB04587

>  <COMMON_NAME>  (1) 
2'-O-butyl-5-methyluridine

$$$$
