629
     RDKit          3D

 14 14  0  0  0  0  0  0  0  0999 V2000
   -2.6197    0.8410    0.0003 Cl  0  0  0  0  0  0  0  0  0  0  0  0
    2.9922   -0.0915   -0.0760 Cl  0  0  0  0  0  0  0  0  0  0  0  0
    1.1570    3.0116    0.0243 N   0  0  0  0  0  0  0  0  0  0  0  0
    2.3663    2.3974    0.0868 N   0  0  0  0  0  0  0  0  0  0  0  0
    3.5844    4.3881   -0.0326 N   0  0  0  0  0  0  0  0  0  0  0  0
    4.6448    2.3981    0.0931 N   0  0  0  0  0  0  0  0  0  0  0  0
    0.1777    0.6056   -0.0039 C   0  0  0  0  0  0  0  0  0  0  0  0
   -1.1046   -0.0169    0.0000 C   0  0  0  0  0  0  0  0  0  0  0  0
    1.2782   -0.2983   -0.0105 C   0  0  0  0  0  0  0  0  0  0  0  0
   -1.2560   -1.4226    0.0003 C   0  0  0  0  0  0  0  0  0  0  0  0
    1.0890   -1.6884    0.0086 C   0  0  0  0  0  0  0  0  0  0  0  0
   -0.1569   -2.2571    0.0074 C   0  0  0  0  0  0  0  0  0  0  0  0
    0.1861    2.1340   -0.0047 C   0  0  0  0  0  0  0  0  0  0  0  0
    3.4642    3.0563    0.0542 C   0  0  0  0  0  0  0  0  0  0  0  0
  1  8  1  0
  2  9  1  0
  3  4  1  0
  3 13  2  3
  4 14  2  3
  5 14  1  0
  6 14  1  0
  7  8  2  0
  7  9  1  0
  7 13  1  0
  8 10  1  0
  9 11  2  0
 10 12  2  0
 11 12  1  0
M  END
>  <DRUGBANK_ID>  (1) 
DB00629

>  <SECONDARY_ACCESSION_NUMBERS>  (1) 
APRD00487

>  <COMMON_NAME>  (1) 
Guanabenz

>  <CAS_NUMBER>  (1) 
5051-62-7

>  <UNII>  (1) 
GGD30112WC

>  <SYNONYMS>  (1) 
Guanabenz; Guanabenzo; Guanabenzum

$$$$
