NAL
     RDKit          3D

 16 17  0  0  0  0  0  0  0  0999 V2000
    3.3423   -5.4562   -0.0415 C   0  0  0  0  0  0  0  0  0  0  0  0
    2.8193   -4.8240    1.0977 C   0  0  0  0  0  0  0  0  0  0  0  0
    2.3167   -5.6272    2.1264 C   0  0  0  0  0  0  0  0  0  0  0  0
    2.3617   -7.0211    2.0302 C   0  0  0  0  0  0  0  0  0  0  0  0
    2.9044   -7.6488    0.8992 C   0  0  0  0  0  0  0  0  0  0  0  0
    2.9276   -9.0468    0.7741 C   0  0  0  0  0  0  0  0  0  0  0  0
    3.4741   -9.6538   -0.3580 C   0  0  0  0  0  0  0  0  0  0  0  0
    4.0120   -8.8718   -1.3757 C   0  0  0  0  0  0  0  0  0  0  0  0
    3.9892   -7.4806   -1.2694 C   0  0  0  0  0  0  0  0  0  0  0  0
    3.4222   -6.8556   -0.1448 C   0  0  0  0  0  0  0  0  0  0  0  0
    2.6825   -3.3205    1.1791 C   0  0  0  0  0  0  0  0  0  0  0  0
    3.9241   -2.4002    1.0952 C   0  0  1  0  0  0  0  0  0  0  0  0
    5.2900   -3.0933    1.0948 C   0  0  0  0  0  0  0  0  0  0  0  0
    3.7905   -1.4814   -0.0689 N   0  0  0  0  0  0  0  0  0  0  0  0
    6.1040   -3.0758    2.0095 O   0  0  0  0  0  0  0  0  0  0  0  0
    5.5851   -3.7248   -0.0600 O   0  0  0  0  0  0  0  0  0  0  0  0
  1  2  2  0
  2 11  1  0
  3  2  1  0
  4  3  2  0
  5  4  1  0
  5 10  2  0
  6  5  1  0
  7  6  2  0
  7  8  1  0
  8  9  2  0
  9 10  1  0
 10  1  1  0
 12 13  1  0
 12 14  1  6
 12 11  1  0
 13 15  2  0
 13 16  1  0
M  END
>  <DRUGBANK_ID>  (1) 
DB01766

>  <SECONDARY_ACCESSION_NUMBERS>  (1) 
EXPT02291

>  <COMMON_NAME>  (1) 
Beta-(2-Naphthyl)-Alanine

>  <UNII>  (1) 
W425Q6KV9R

$$$$
