
     RDKit          3D

 29 32  0  0  0  0  0  0  0  0999 V2000
    1.0312   -0.0745    0.0315 C   0  0  0  0  0  0  0  0  0  0  0  0
    0.4039   -1.3752    0.1160 N   0  0  0  0  0  0  0  0  0  0  0  0
   -0.3740   -1.9078    1.1226 C   0  0  0  0  0  0  0  0  0  0  0  0
   -0.7028   -3.0988    1.0441 O   0  0  0  0  0  0  0  0  0  0  0  0
   -0.8199   -1.0617    2.2732 C   0  0  0  0  0  0  0  0  0  0  0  0
   -1.2534    0.2394    2.0549 C   0  0  0  0  0  0  0  0  0  0  0  0
   -1.6512    1.0156    3.1423 C   0  0  0  0  0  0  0  0  0  0  0  0
   -2.1709    2.4061    2.9108 C   0  0  0  0  0  0  0  0  0  0  0  0
   -3.5156    2.5799    3.3501 O   0  0  0  0  0  0  0  0  0  0  0  0
   -4.4533    1.9013    2.5983 C   0  0  0  0  0  0  0  0  0  0  0  0
   -5.6596    2.4829    2.2671 C   0  0  0  0  0  0  0  0  0  0  0  0
   -5.9882    3.8001    2.4471 O   0  0  0  0  0  0  0  0  0  0  0  0
   -7.2645    3.9486    2.0293 C   0  0  0  0  0  0  0  0  0  0  0  0
   -7.7702    2.7393    1.6522 C   0  0  0  0  0  0  0  0  0  0  0  0
   -6.7182    1.7871    1.6939 C   0  0  0  0  0  0  0  0  0  0  0  0
   -6.5815    0.4219    1.3379 C   0  0  0  0  0  0  0  0  0  0  0  0
   -7.5787   -0.3297    0.6694 N   0  0  0  0  0  0  0  0  0  0  0  0
   -8.8332    0.1466    0.2362 C   0  0  0  0  0  0  0  0  0  0  0  0
   -8.8892    1.2337   -0.6557 C   0  0  0  0  0  0  0  0  0  0  0  0
  -10.0486    2.0097   -0.7757 C   0  0  0  0  0  0  0  0  0  0  0  0
  -11.2097    1.6108   -0.1255 C   0  0  0  0  0  0  0  0  0  0  0  0
  -12.6046    2.6168   -0.1807 Cl  0  0  0  0  0  0  0  0  0  0  0  0
  -11.2202    0.4358    0.6249 C   0  0  0  0  0  0  0  0  0  0  0  0
  -10.0234   -0.2664    0.8491 C   0  0  0  0  0  0  0  0  0  0  0  0
   -5.3930   -0.1446    1.6912 N   0  0  0  0  0  0  0  0  0  0  0  0
   -4.3528    0.5794    2.3323 N   0  0  0  0  0  0  0  0  0  0  0  0
   -1.6615    0.4347    4.4088 C   0  0  0  0  0  0  0  0  0  0  0  0
   -1.2562   -0.8848    4.5303 C   0  0  0  0  0  0  0  0  0  0  0  0
   -0.8115   -1.6381    3.5010 N   0  0  0  0  0  0  0  0  0  0  0  0
  1  2  1  0
  2  3  1  0
  3  4  2  0
  3  5  1  0
  5  6  2  0
  5 29  1  0
  6  7  1  0
  7  8  1  0
  7 27  2  0
  8  9  1  0
  9 10  1  0
 10 11  2  0
 10 26  1  0
 11 12  1  0
 11 15  1  0
 12 13  1  0
 13 14  2  0
 14 15  1  0
 15 16  2  0
 16 17  1  0
 16 25  1  0
 17 18  1  0
 18 19  2  0
 18 24  1  0
 19 20  1  0
 20 21  2  0
 21 22  1  0
 21 23  1  0
 23 24  2  0
 25 26  2  0
 27 28  1  0
 28 29  2  0
M  END
>  <DRUGBANK_ID>  (1) 
DB15393

>  <COMMON_NAME>  (1) 
Telatinib

>  <CAS_NUMBER>  (1) 
332012-40-5

>  <UNII>  (1) 
18P7197Q7J

>  <SYNONYMS>  (1) 
Telatinib

$$$$
