53U
     RDKit          3D

 26 28  0  0  0  0  0  0  0  0999 V2000
    1.1500    0.0231   -0.1739 C   0  0  0  0  0  0  0  0  0  0  0  0
    0.9923    1.4696    1.9523 N   0  0  0  0  0  0  0  0  0  0  0  0
    0.4464    0.2819    1.2259 C   0  0  1  0  0  0  0  0  0  0  0  0
   -1.1647    0.2851    1.4107 C   0  0  0  0  0  0  0  0  0  0  0  0
   -1.6829   -0.5085    2.2027 O   0  0  0  0  0  0  0  0  0  0  0  0
   -1.9131    1.2899    0.8250 N   0  0  0  0  0  0  0  0  0  0  0  0
   -1.6319    1.7967   -0.4392 C   0  0  0  0  0  0  0  0  0  0  0  0
   -1.9907    3.2446   -0.4624 C   0  0  0  0  0  0  0  0  0  0  0  0
   -3.2515    3.2241    0.3235 C   0  0  0  0  0  0  0  0  0  0  0  0
   -3.0736    2.0067    1.2874 C   0  0  1  0  0  0  0  0  0  0  0  0
   -4.3256    1.1873    1.0746 C   0  0  0  0  0  0  0  0  0  0  0  0
   -4.9864    1.0085    2.2591 N   0  0  0  0  0  0  0  0  0  0  0  0
   -6.3668    0.6771    2.2415 C   0  0  0  0  0  0  0  0  0  0  0  0
   -6.6247   -0.6112    2.9421 C   0  0  0  0  0  0  0  0  0  0  0  0
   -6.7532   -0.6348    4.3344 C   0  0  0  0  0  0  0  0  0  0  0  0
   -7.1112   -1.8140    4.9762 C   0  0  0  0  0  0  0  0  0  0  0  0
   -7.3436   -2.9682    4.2288 C   0  0  0  0  0  0  0  0  0  0  0  0
   -7.1936   -2.9527    2.8424 C   0  0  0  0  0  0  0  0  0  0  0  0
   -6.7809   -1.7891    2.2038 C   0  0  0  0  0  0  0  0  0  0  0  0
   -4.7438    0.8470   -0.0139 O   0  0  0  0  0  0  0  0  0  0  0  0
    1.1201    1.1024   -1.2781 C   0  0  0  0  0  0  0  0  0  0  0  0
    0.2065    0.9691   -2.3587 C   0  0  0  0  0  0  0  0  0  0  0  0
   -0.3000    2.1220   -3.0010 C   0  0  0  0  0  0  0  0  0  0  0  0
    0.1497    3.3963   -2.6332 C   0  0  0  0  0  0  0  0  0  0  0  0
    1.0811    3.5280   -1.6019 C   0  0  0  0  0  0  0  0  0  0  0  0
    1.6067    2.3930   -0.9669 C   0  0  0  0  0  0  0  0  0  0  0  0
  1  3  1  0
  1 21  1  0
  3  2  1  6
  3  4  1  0
  4  5  2  0
  4  6  1  0
  6  7  1  0
  6 10  1  0
  7  8  1  0
  8  9  1  0
  9 10  1  0
 10 11  1  6
 11 12  1  0
 11 20  2  0
 12 13  1  0
 13 14  1  0
 14 15  2  0
 14 19  1  0
 15 16  1  0
 16 17  2  0
 17 18  1  0
 18 19  2  0
 21 22  2  0
 21 26  1  0
 22 23  1  0
 23 24  2  0
 24 25  1  0
 25 26  2  0
M  END
>  <DRUGBANK_ID>  (1) 
DB07143

>  <COMMON_NAME>  (1) 
D-phenylalanyl-N-benzyl-L-prolinamide

$$$$
