661
     RDKit          3D

 33 34  0  0  1  0  0  0  0  0999 V2000
    1.0415   -0.1489    0.1758 O   0  0  0  0  0  0  0  0  0  0  0  0
   -1.2919    1.6755    0.2590 O   0  0  0  0  0  0  0  0  0  0  0  0
    3.4017   -6.4421   -5.8410 O   0  0  0  0  0  0  0  0  0  0  0  0
    1.0101   -5.4487   -7.1515 O   0  0  0  0  0  0  0  0  0  0  0  0
    4.3469    0.8281   -5.9663 N   0  0  0  0  0  0  0  0  0  0  0  0
    2.9785   -1.8709   -4.2600 N   0  0  0  0  0  0  0  0  0  0  0  0
    0.6781   -0.3825   -4.7359 C   0  0  0  0  0  0  0  0  0  0  0  0
   -0.5332   -1.1230   -5.4791 C   0  0  0  0  0  0  0  0  0  0  0  0
    1.0021    0.9685   -5.4682 C   0  0  0  0  0  0  0  0  0  0  0  0
    2.1675    1.8313   -4.9087 C   0  0  0  0  0  0  0  0  0  0  0  0
    0.1202    0.1100   -3.3582 C   0  0  0  0  0  0  0  0  0  0  0  0
    3.5949    1.2075   -4.7272 C   0  0  0  0  0  0  0  0  0  0  0  0
   -1.8896   -0.4418   -5.6778 C   0  0  0  0  0  0  0  0  0  0  0  0
   -0.1875   -1.3570   -6.9235 C   0  0  0  0  0  0  0  0  0  0  0  0
    1.9354   -1.1960   -4.4758 C   0  0  0  0  0  0  0  0  0  0  0  0
    0.7440   -0.2692   -2.1692 C   0  0  0  0  0  0  0  0  0  0  0  0
   -0.9342    1.0411   -3.2570 C   0  0  0  0  0  0  0  0  0  0  0  0
    5.3957   -0.2359   -5.7823 C   0  0  0  0  0  0  0  0  0  0  0  0
    0.3684    0.2650   -0.9416 C   0  0  0  0  0  0  0  0  0  0  0  0
    3.4734    0.2892   -6.9613 C   0  0  0  0  0  0  0  0  0  0  0  0
   -1.3591    1.5385   -2.0340 C   0  0  0  0  0  0  0  0  0  0  0  0
    5.1283   -1.7025   -5.2939 C   0  0  0  0  0  0  0  0  0  0  0  0
   -0.7281    1.1342   -0.8627 C   0  0  0  0  0  0  0  0  0  0  0  0
    4.2052   -2.7933   -6.0982 C   0  0  0  0  0  0  0  0  0  0  0  0
    4.2798   -4.1214   -5.7267 C   0  0  0  0  0  0  0  0  0  0  0  0
    3.0047   -2.5707   -6.8246 C   0  0  0  0  0  0  0  0  0  0  0  0
    3.2943   -5.1221   -6.1034 C   0  0  0  0  0  0  0  0  0  0  0  0
    2.4612   -0.0260    0.0904 C   0  0  0  0  0  0  0  0  0  0  0  0
    1.9756   -3.5117   -7.0187 C   0  0  0  0  0  0  0  0  0  0  0  0
    2.1110   -4.7667   -6.7371 C   0  0  0  0  0  0  0  0  0  0  0  0
   -0.7493    1.2324    1.4909 C   0  0  0  0  0  0  0  0  0  0  0  0
    4.6477   -6.7744   -5.2943 C   0  0  0  0  0  0  0  0  0  0  0  0
    1.2569   -6.7723   -7.5123 C   0  0  0  0  0  0  0  0  0  0  0  0
  1 19  1  0
  1 28  1  0
  2 23  1  0
  2 31  1  0
  3 27  1  0
  3 32  1  0
  4 30  1  0
  4 33  1  0
  5 12  1  0
  5 18  1  0
  5 20  1  0
  6 15  3  0
  7  8  1  0
  7  9  1  0
  7 11  1  0
  7 15  1  0
  8 13  1  0
  8 14  1  0
  9 10  1  0
 10 12  1  0
 11 16  2  0
 11 17  1  0
 16 19  1  0
 17 21  2  0
 18 22  1  0
 19 23  2  0
 21 23  1  0
 22 24  1  0
 24 25  2  0
 24 26  1  0
 25 27  1  0
 26 29  2  0
 27 30  2  0
 29 30  1  0
M  END
>  <DRUGBANK_ID>  (1) 
DB00661

>  <SECONDARY_ACCESSION_NUMBERS>  (1) 
APRD00335

>  <COMMON_NAME>  (1) 
Verapamil

>  <CAS_NUMBER>  (1) 
52-53-9

>  <UNII>  (1) 
CJ0O37KU29

>  <SYNONYMS>  (1) 
Iproveratril; VÃ©rapamil; Verapamil; Verapamilo; Verapamilum

$$$$
