3TP
     RDKit          3D

 26 28  0  0  0  0  0  0  0  0999 V2000
    0.9837    0.1139    0.1170 C   0  0  2  0  0  0  0  0  0  0  0  0
    0.4990    1.3377    0.9706 C   0  0  0  0  0  0  0  0  0  0  0  0
   -0.2360    2.2186    0.5300 O   0  0  0  0  0  0  0  0  0  0  0  0
    2.1590    1.0809    2.8431 C   0  0  0  0  0  0  0  0  0  0  0  0
    1.8530    0.5178    4.2146 C   0  0  0  0  0  0  0  0  0  0  0  0
    0.6420    1.3411    4.6635 C   0  0  0  0  0  0  0  0  0  0  0  0
   -0.0758    1.7202    3.3636 C   0  0  0  0  0  0  0  0  0  0  0  0
    0.8854   -1.0753   -2.1032 C   0  0  0  0  0  0  0  0  0  0  0  0
    1.1289   -3.0106   -2.8787 C   0  0  0  0  0  0  0  0  0  0  0  0
    0.9506   -4.4478   -3.0015 C   0  0  0  0  0  0  0  0  0  0  0  0
   -0.3430   -4.9891   -3.0768 C   0  0  0  0  0  0  0  0  0  0  0  0
   -0.5372   -6.3669   -3.2409 C   0  0  0  0  0  0  0  0  0  0  0  0
    1.8665   -6.6806   -3.2470 C   0  0  0  0  0  0  0  0  0  0  0  0
    2.0522   -5.3074   -3.0468 C   0  0  0  0  0  0  0  0  0  0  0  0
    0.4532    0.1543   -1.3528 C   0  0  1  0  0  0  0  0  0  0  0  0
    0.8328    1.2958    2.3102 N   0  0  0  0  0  0  0  0  0  0  0  0
    0.5586   -1.1366    0.8055 N   0  0  0  0  0  0  0  0  0  0  0  0
    0.4819   -2.3102   -1.9044 N   0  0  0  0  0  0  0  0  0  0  0  0
    1.8607   -2.2487   -3.7098 N   0  0  0  0  0  0  0  0  0  0  0  0
    1.6872   -0.9477   -3.2011 O   0  0  0  0  0  0  0  0  0  0  0  0
    0.5712   -7.2115   -3.3160 C   0  0  0  0  0  0  0  0  0  0  0  0
    0.4078   -8.9849   -3.3962 S   0  0  0  0  0  0  0  0  0  0  0  0
    0.9344   -9.3929   -4.6886 O   0  0  0  0  0  0  0  0  0  0  0  0
    0.9692   -9.4991   -2.1651 O   0  0  0  0  0  0  0  0  0  0  0  0
   -1.3231   -9.3679   -3.3828 C   0  0  0  0  0  0  0  0  0  0  0  0
   -1.0855    0.1838   -1.4325 C   0  0  0  0  0  0  0  0  0  0  0  0
  1  2  1  0
  1 15  1  0
  1 17  1  1
  2  3  2  0
  2 16  1  0
  4  5  1  0
  4 16  1  0
  5  6  1  0
  6  7  1  0
  7 16  1  0
  8 15  1  0
  8 18  2  0
  8 20  1  0
  9 10  1  0
  9 18  1  0
  9 19  2  0
 10 11  2  0
 10 14  1  0
 11 12  1  0
 12 21  2  0
 13 14  2  0
 13 21  1  0
 15 26  1  1
 19 20  1  0
 21 22  1  0
 22 23  2  0
 22 24  2  0
 22 25  1  0
M  END
>  <DRUGBANK_ID>  (1) 
DB07067

>  <COMMON_NAME>  (1) 
(2S,3S)-3-{3-[4-(METHYLSULFONYL)PHENYL]-1,2,4-OXADIAZOL-5-YL}-1-OXO-1-PYRROLIDIN-1-YLBUTAN-2-AMINE

$$$$
