3IL
     RDKit          3D

 15 16  0  0  0  0  0  0  0  0999 V2000
   -1.5103    1.0663   -0.0553 N   0  0  0  0  0  0  0  0  0  0  0  0
   -2.3248   -0.0128   -0.2417 C   0  0  0  0  0  0  0  0  0  0  0  0
   -1.5838   -1.1636   -0.0573 C   0  0  0  0  0  0  0  0  0  0  0  0
    1.0216   -1.4186    0.0311 C   0  0  0  0  0  0  0  0  0  0  0  0
    2.2096   -0.6784   -0.0004 C   0  0  0  0  0  0  0  0  0  0  0  0
    2.1824    0.7145   -0.0157 C   0  0  0  0  0  0  0  0  0  0  0  0
    0.9725    1.4105    0.0042 C   0  0  0  0  0  0  0  0  0  0  0  0
   -0.2029    0.6540   -0.0155 C   0  0  0  0  0  0  0  0  0  0  0  0
   -0.2145   -0.7433   -0.0049 C   0  0  0  0  0  0  0  0  0  0  0  0
   -4.2925   -1.9670    1.3012 C   0  0  0  0  0  0  0  0  0  0  0  0
   -5.4507   -2.6357    1.0666 O   0  0  0  0  0  0  0  0  0  0  0  0
   -4.3070   -0.7811    1.6000 O   0  0  0  0  0  0  0  0  0  0  0  0
   -3.0403   -2.8605    1.1972 C   0  0  1  0  0  0  0  0  0  0  0  0
   -3.4837   -4.2378    1.1411 O   0  0  0  0  0  0  0  0  0  0  0  0
   -2.1248   -2.5587   -0.0068 C   0  0  0  0  0  0  0  0  0  0  0  0
  1  2  1  0
  1  8  1  0
  2  3  2  0
  3  9  1  0
  3 15  1  0
  4  5  1  0
  4  9  2  0
  5  6  2  0
  6  7  1  0
  7  8  2  0
  8  9  1  0
 10 11  1  0
 10 12  2  0
 10 13  1  0
 13 14  1  6
 13 15  1  0
M  END
>  <DRUGBANK_ID>  (1) 
DB07060

>  <COMMON_NAME>  (1) 
3-(INDOL-3-YL) LACTATE

>  <UNII>  (1) 
DJ9KH2U67F

$$$$
