543
     RDKit          3D

 22 25  0  0  0  0  0  0  0  0999 V2000
   -4.3860   -0.0598   -0.7686 Cl  0  0  0  0  0  0  0  0  0  0  0  0
    1.0304    0.8373    1.2889 O   0  0  0  0  0  0  0  0  0  0  0  0
   -0.3216   -3.0549    1.4474 N   0  0  0  0  0  0  0  0  0  0  0  0
   -2.0131   -4.6186    3.2325 N   0  0  0  0  0  0  0  0  0  0  0  0
    1.5193   -1.9390    0.6037 N   0  0  0  0  0  0  0  0  0  0  0  0
   -1.3572   -3.9334    0.9056 C   0  0  0  0  0  0  0  0  0  0  0  0
    0.2598   -3.6084    2.6817 C   0  0  0  0  0  0  0  0  0  0  0  0
   -2.4925   -4.0526    1.9494 C   0  0  0  0  0  0  0  0  0  0  0  0
   -0.8775   -3.7964    3.7236 C   0  0  0  0  0  0  0  0  0  0  0  0
    0.2338   -1.9329    0.8248 C   0  0  0  0  0  0  0  0  0  0  0  0
   -0.6599   -0.7446    0.5312 C   0  0  0  0  0  0  0  0  0  0  0  0
   -0.2228    0.5585    0.8026 C   0  0  0  0  0  0  0  0  0  0  0  0
    2.2295   -0.8524    0.0451 C   0  0  0  0  0  0  0  0  0  0  0  0
   -1.9578   -0.9005    0.0359 C   0  0  0  0  0  0  0  0  0  0  0  0
    2.0252    0.4829    0.4099 C   0  0  0  0  0  0  0  0  0  0  0  0
   -1.0663    1.6632    0.6110 C   0  0  0  0  0  0  0  0  0  0  0  0
   -2.7959    0.1965   -0.1615 C   0  0  0  0  0  0  0  0  0  0  0  0
   -2.3583    1.4811    0.1262 C   0  0  0  0  0  0  0  0  0  0  0  0
    3.2750   -1.1237   -0.8449 C   0  0  0  0  0  0  0  0  0  0  0  0
    2.8365    1.5159   -0.0801 C   0  0  0  0  0  0  0  0  0  0  0  0
    4.0879   -0.0976   -1.3508 C   0  0  0  0  0  0  0  0  0  0  0  0
    3.8700    1.2230   -0.9647 C   0  0  0  0  0  0  0  0  0  0  0  0
  1 17  1  0
  2 12  1  0
  2 15  1  0
  3  6  1  0
  3  7  1  0
  3 10  1  0
  4  8  1  0
  4  9  1  0
  5 10  2  0
  5 13  1  0
  6  8  1  0
  7  9  1  0
 10 11  1  0
 11 12  2  0
 11 14  1  0
 12 16  1  0
 13 15  2  0
 13 19  1  0
 14 17  2  0
 15 20  1  0
 16 18  2  0
 17 18  1  0
 19 21  2  0
 20 22  2  0
 21 22  1  0
M  END
>  <DRUGBANK_ID>  (1) 
DB00543

>  <SECONDARY_ACCESSION_NUMBERS>  (1) 
APRD00142

>  <COMMON_NAME>  (1) 
Amoxapine

>  <CAS_NUMBER>  (1) 
14028-44-5

>  <UNII>  (1) 
R63VQ857OT

>  <SYNONYMS>  (1) 
2-Chloro-11-(1-piperazinyl)dibenz(b,f)(1,4)oxazepine; Amoxapin; Amoxapina; Amoxapine; Amoxapinum; Amoxepine; Desmethylloxapin

$$$$
