
     RDKit          3D

 38 39  0  0  1  0  0  0  0  0999 V2000
    1.0222    0.0213    0.0277 C   0  0  0  0  0  0  0  0  0  0  0  0
    0.9621    1.6597   -1.8630 C   0  0  0  0  0  0  0  0  0  0  0  0
   -3.1748    3.6343    1.5263 C   0  0  0  0  0  0  0  0  0  0  0  0
    1.1039    7.3523    1.6245 C   0  0  0  0  0  0  0  0  0  0  0  0
   -0.3974   12.4347   -0.6046 C   0  0  0  0  0  0  0  0  0  0  0  0
   -0.1302    9.9738    0.0141 C   0  0  0  0  0  0  0  0  0  0  0  0
   -2.3916   10.9995   -5.2390 C   0  0  0  0  0  0  0  0  0  0  0  0
   -3.1620    6.9236   -1.9512 C   0  0  0  0  0  0  0  0  0  0  0  0
   -1.6264    1.0936    0.9927 C   0  0  0  0  0  0  0  0  0  0  0  0
    0.4555    4.6356    2.5135 C   0  0  0  0  0  0  0  0  0  0  0  0
    0.4789    5.5406   -1.8064 C   0  0  0  0  0  0  0  0  0  0  0  0
   -1.0747    1.3460   -0.4185 C   0  0  0  0  0  0  0  0  0  0  0  0
   -1.1754    2.1623    1.9817 C   0  0  0  0  0  0  0  0  0  0  0  0
   -1.0803    4.6204    2.5284 C   0  0  0  0  0  0  0  0  0  0  0  0
    1.0144    4.9465    1.1282 C   0  0  0  0  0  0  0  0  0  0  0  0
    1.1206    6.5205   -0.8061 C   0  0  0  0  0  0  0  0  0  0  0  0
    0.6763   15.0766   -1.6609 C   0  0  0  0  0  0  0  0  0  0  0  0
   -0.8050   14.8223   -1.8793 C   0  0  0  0  0  0  0  0  0  0  0  0
   -1.9973    8.2873   -4.3293 C   0  0  0  0  0  0  0  0  0  0  0  0
   -1.0624    5.5466   -1.8371 C   0  0  0  0  0  0  0  0  0  0  0  0
   -1.3873    7.0065   -3.8109 C   0  0  0  0  0  0  0  0  0  0  0  0
    0.4633    1.3527   -0.4592 C   0  0  0  0  0  0  0  0  0  0  0  0
   -1.6546    3.5635    1.5813 C   0  0  2  0  0  0  0  0  0  0  0  0
    0.5879    6.3265    0.6226 C   0  0  2  0  0  0  0  0  0  0  0  0
   -0.8705   11.5282   -1.7068 C   0  0  0  0  0  0  0  0  0  0  0  0
   -0.7256   10.2123   -1.3293 C   0  0  0  0  0  0  0  0  0  0  0  0
   -1.7735   10.7830   -3.8826 C   0  0  0  0  0  0  0  0  0  0  0  0
   -1.6064    9.4483   -3.4530 C   0  0  0  0  0  0  0  0  0  0  0  0
    0.8073   16.5350   -1.8197 C   0  0  0  0  0  0  0  0  0  0  0  0
   -1.4642   14.6205   -3.2027 C   0  0  0  0  0  0  0  0  0  0  0  0
   -1.3983   11.8288   -3.0003 C   0  0  0  0  0  0  0  0  0  0  0  0
   -1.1373    9.1892   -2.1645 C   0  0  0  0  0  0  0  0  0  0  0  0
   -1.6768    6.8735   -2.3207 C   0  0  1  0  0  0  0  0  0  0  0  0
    1.0033   17.3309   -0.9482 O   0  0  0  0  0  0  0  0  0  0  0  0
    0.4692   16.8467   -3.0882 O   0  0  0  0  0  0  0  0  0  0  0  0
   -1.9133   15.5261   -3.8893 O   0  0  0  0  0  0  0  0  0  0  0  0
   -1.6255   13.2058   -3.5332 O   0  0  0  0  0  0  0  0  0  0  0  0
   -1.0827    7.9472   -1.6090 O   0  0  0  0  0  0  0  0  0  0  0  0
 12  9  1  0
 13  9  1  0
 14 10  1  0
 15 10  1  0
 16 11  1  0
 18 17  1  0
 20 11  1  0
 21 19  1  0
 22  1  1  0
 22  2  1  0
 22 12  1  0
 23  3  1  1
 23 13  1  0
 23 14  1  0
 24  4  1  1
 24 15  1  0
 24 16  1  0
 25  5  1  0
 26  6  1  0
 26 25  1  0
 27  7  1  0
 28 19  1  0
 28 27  2  0
 29 17  1  0
 30 18  1  0
 31 25  2  0
 31 27  1  0
 32 26  2  0
 32 28  1  0
 33  8  1  6
 33 20  1  0
 33 21  1  0
 34 29  2  0
 35 29  1  0
 36 30  2  0
 37 30  1  0
 37 31  1  0
 38 32  1  0
 38 33  1  0
M  END
>  <DRUGBANK_ID>  (1) 
DB14001

>  <SECONDARY_ACCESSION_NUMBERS>  (1) 
DBSALT001494

>  <COMMON_NAME>  (1) 
alpha-Tocopherol succinate

>  <CAS_NUMBER>  (1) 
4345-03-3

>  <UNII>  (1) 
LU4B53JYVE

>  <SYNONYMS>  (1) 
(+)-alpha-Tocopheryl succinate; alpha-Tocopheryl acid succinate; alpha-Tocopheryl succinate; alpha-Vitamin E succinate; d-alpha-Tocopherol acid succinate; Tocopheryl acid succinate,D-alpha; Vitamin E hemisuccinate; Vitamin E succinate

$$$$
