HEP
     RDKit          3D

 23 23  0  0  0  0  0  0  0  0999 V2000
    0.9286    0.0483   -0.1449 C   0  0  2  0  0  0  0  0  0  0  0  0
    0.5534   -0.1148    1.4099 C   0  0  0  0  0  0  0  0  0  0  0  0
    1.0023    0.8801    2.4443 C   0  0  0  0  0  0  0  0  0  0  0  0
    0.4321    2.2671    2.2450 C   0  0  0  0  0  0  0  0  0  0  0  0
   -1.0861    2.2610    2.0888 C   0  0  0  0  0  0  0  0  0  0  0  0
   -0.7540   -4.2229   -0.8276 C   0  0  0  0  0  0  0  0  0  0  0  0
   -0.4484   -5.5205   -0.4125 C   0  0  0  0  0  0  0  0  0  0  0  0
    0.2215   -6.3675   -1.2755 C   0  0  0  0  0  0  0  0  0  0  0  0
    0.5468   -5.9110   -2.5569 C   0  0  0  0  0  0  0  0  0  0  0  0
    0.3026   -4.5749   -2.9473 C   0  0  0  0  0  0  0  0  0  0  0  0
   -0.2307   -3.6820   -2.0239 C   0  0  0  0  0  0  0  0  0  0  0  0
   -0.4088    1.5115   -1.6760 C   0  0  0  0  0  0  0  0  0  0  0  0
   -0.3617    3.2533   -3.4396 C   0  0  0  0  0  0  0  0  0  0  0  0
   -0.8388    2.9149   -2.0347 C   0  0  0  0  0  0  0  0  0  0  0  0
   -0.8894    2.3262   -4.5193 C   0  0  0  0  0  0  0  0  0  0  0  0
    0.7366   -2.5106    0.3014 O   0  0  0  0  0  0  0  0  0  0  0  0
   -1.4071   -1.1405   -0.4142 O   0  0  0  0  0  0  0  0  0  0  0  0
    0.0227   -2.2836   -2.1433 O   0  0  0  0  0  0  0  0  0  0  0  0
   -0.8917    0.5350   -2.2129 O   0  0  0  0  0  0  0  0  0  0  0  0
   -1.7980    2.5754   -5.2780 O   0  0  0  0  0  0  0  0  0  0  0  0
   -0.2552    1.1358   -4.5443 O   0  0  0  0  0  0  0  0  0  0  0  0
    0.4567    1.3556   -0.6460 N   0  0  0  0  0  0  0  0  0  0  0  0
    0.1508   -1.5394   -0.6954 P   0  0  1  0  0  0  0  0  0  0  0  0
  1  2  1  1
  1 22  1  0
  1 23  1  0
  2  3  1  0
  3  4  1  0
  4  5  1  0
  6  7  2  0
  6 11  1  0
  7  8  1  0
  8  9  2  0
  9 10  1  0
 10 11  2  0
 11 18  1  0
 12 14  1  0
 12 19  2  0
 12 22  1  0
 13 14  1  0
 13 15  1  0
 15 20  2  0
 15 21  1  0
 23 16  2  0
 23 17  1  0
 23 18  1  0
M  END
>  <DRUGBANK_ID>  (1) 
DB07893

>  <COMMON_NAME>  (1) 
PHENYL[1-(N-SUCCINYLAMINO)PENTYL]PHOSPHONATE

$$$$
