FAF
     RDKit          3D

 22 22  0  0  0  0  0  0  0  0999 V2000
    0.9553    0.0552    0.0200 C   0  0  0  0  0  0  0  0  0  0  0  0
    0.3087   -0.7056   -0.7301 O   0  0  0  0  0  0  0  0  0  0  0  0
    0.2838    0.9459    1.0149 C   0  0  0  0  0  0  0  0  0  0  0  0
    2.3161    0.1695   -0.0055 N   0  0  0  0  0  0  0  0  0  0  0  0
    3.1455   -0.7146   -0.8158 C   0  0  1  0  0  0  0  0  0  0  0  0
    3.9665    0.0514   -1.9210 C   0  0  0  0  0  0  0  0  0  0  0  0
    5.2485    0.7434   -1.4399 C   0  0  0  0  0  0  0  0  0  0  0  0
    6.2482   -0.4187   -1.2100 C   0  0  0  0  0  0  0  0  0  0  0  0
    5.9306    1.7948   -2.2910 C   0  0  0  0  0  0  0  0  0  0  0  0
    3.9405   -1.6463    0.1432 C   0  0  0  0  0  0  0  0  0  0  0  0
    3.9598   -2.8720   -0.0350 O   0  0  0  0  0  0  0  0  0  0  0  0
    4.8427   -1.1399    1.0688 N   0  0  0  0  0  0  0  0  0  0  0  0
    5.3011    0.2596    1.4266 C   0  0  1  0  0  0  0  0  0  0  0  0
    4.9975    0.6010    2.8540 C   0  0  0  0  0  0  0  0  0  0  0  0
    5.9643   -0.1443    3.7072 C   0  0  0  0  0  0  0  0  0  0  0  0
    6.9433    0.5769    4.3849 C   0  0  0  0  0  0  0  0  0  0  0  0
    5.9590   -1.5455    3.7455 C   0  0  0  0  0  0  0  0  0  0  0  0
    7.8100   -0.1031    5.2192 C   0  0  0  0  0  0  0  0  0  0  0  0
    6.8433   -2.2231    4.5529 C   0  0  0  0  0  0  0  0  0  0  0  0
    7.7426   -1.4955    5.3187 C   0  0  0  0  0  0  0  0  0  0  0  0
    6.7996    0.8228    1.2252 C   0  0  0  0  0  0  0  0  0  0  0  0
    7.0942    1.8510    0.6465 O   0  0  0  0  0  0  0  0  0  0  0  0
  1  2  2  0
  1  3  1  0
  1  4  1  0
  5  4  1  0
  5  6  1  1
  5 10  1  0
  6  7  1  0
  7  8  1  0
  7  9  1  0
 10 11  2  0
 10 12  1  0
 13 12  1  0
 13 14  1  1
 13 21  1  0
 14 15  1  0
 15 16  2  0
 15 17  1  0
 16 18  1  0
 17 19  2  0
 18 20  2  0
 19 20  1  0
 21 22  2  0
M  END
>  <DRUGBANK_ID>  (1) 
DB07749

>  <COMMON_NAME>  (1) 
2-ACETYLAMINO-4-METHYL-PENTANOIC ACID (1-FORMYL-2-PHENYL-ETHYL)-AMIDE

$$$$
