
     RDKit          3D

 30 33  0  0  0  0  0  0  0  0999 V2000
    0.3319    2.0339    0.0069 C   0  0  0  0  0  0  0  0  0  0  0  0
   -1.0793    2.1240   -0.5525 C   0  0  0  0  0  0  0  0  0  0  0  0
   -1.9410    0.9368   -0.2003 C   0  0  0  0  0  0  0  0  0  0  0  0
   -3.1913    1.1412    0.2511 C   0  0  0  0  0  0  0  0  0  0  0  0
   -3.7123   -1.3357   -0.0956 C   0  0  0  0  0  0  0  0  0  0  0  0
   -2.2340   -1.5427    0.2132 C   0  0  0  0  0  0  0  0  0  0  0  0
   -1.3251   -0.4527   -0.4207 C   0  0  1  0  0  0  0  0  0  0  0  0
   -1.2189   -0.7153   -1.9412 C   0  0  0  0  0  0  0  0  0  0  0  0
    2.2593   -1.8307    0.7746 C   0  0  0  0  0  0  0  0  0  0  0  0
    4.7058    1.0691    0.4374 C   0  0  0  0  0  0  0  0  0  0  0  0
    3.3642    1.6762    0.0425 C   0  0  0  0  0  0  0  0  0  0  0  0
    0.0902   -0.4721    0.2744 C   0  0  2  0  0  0  0  0  0  0  0  0
    2.3602    0.5995    0.3999 C   0  0  1  0  0  0  0  0  0  0  0  0
    0.9900    0.6762   -0.2647 C   0  0  2  0  0  0  0  0  0  0  0  0
    3.0928   -0.7258    0.1043 C   0  0  2  0  0  0  0  0  0  0  0  0
    3.2792   -1.0321   -1.4020 C   0  0  0  0  0  0  0  0  0  0  0  0
    4.4731   -0.4290    0.7468 C   0  0  1  0  0  0  0  0  0  0  0  0
   -4.1494    0.0211    0.3909 C   0  0  0  0  0  0  0  0  0  0  0  0
   -5.2891    0.2449    0.7900 O   0  0  0  0  0  0  0  0  0  0  0  0
    0.8040   -1.8521    0.2568 C   0  0  0  0  0  0  0  0  0  0  0  0
    5.5798   -1.3993    0.3139 C   0  0  0  0  0  0  0  0  0  0  0  0
    5.4681   -2.6090    0.5497 O   0  0  0  0  0  0  0  0  0  0  0  0
    6.8348   -0.8832   -0.3978 C   0  0  0  0  0  0  0  0  0  0  0  0
    8.0435   -1.1916    0.2930 O   0  0  0  0  0  0  0  0  0  0  0  0
    8.1163   -0.6252    1.5312 C   0  0  0  0  0  0  0  0  0  0  0  0
    7.2377    0.0882    2.0082 O   0  0  0  0  0  0  0  0  0  0  0  0
    9.4240   -0.9593    2.2374 C   0  0  0  0  0  0  0  0  0  0  0  0
    9.5748   -2.4775    2.3662 C   0  0  0  0  0  0  0  0  0  0  0  0
   10.6030   -0.3756    1.4524 C   0  0  0  0  0  0  0  0  0  0  0  0
    9.4018   -0.3365    3.6423 C   0  0  0  0  0  0  0  0  0  0  0  0
  1  2  1  0
  2  3  1  0
  3  4  2  0
  3  7  1  0
  4 18  1  0
  5  6  1  0
  6  7  1  0
  7  8  1  6
  7 12  1  0
  9 15  1  0
 10 11  1  0
 13 11  1  6
 12 20  1  6
 14  1  1  1
 14 12  1  0
 14 13  1  0
 15 17  1  0
 15 13  1  0
 15 16  1  6
 17 10  1  0
 17 21  1  6
 18  5  1  0
 18 19  2  0
 20  9  1  0
 21 23  1  0
 21 22  2  0
 23 24  1  0
 24 25  1  0
 25 26  2  0
 25 27  1  0
 27 28  1  0
 27 29  1  0
 27 30  1  0
M  END
>  <DRUGBANK_ID>  (1) 
DB01134

>  <SECONDARY_ACCESSION_NUMBERS>  (1) 
APRD00709

>  <COMMON_NAME>  (1) 
Desoxycorticosterone pivalate

>  <CAS_NUMBER>  (1) 
808-48-0

>  <UNII>  (1) 
16665T4A2X

>  <SYNONYMS>  (1) 
11-deoxycorticosterone pivalate; Deoxycorticosterone pivalate; Deoxycorticosterone trimethylacetate; Deoxycortone pivalate; Deoxycortone trimethylacetate; Desoxycorticosterone pivalate; Desoxycorticosterone trimethylacetate; Desoxycortone pivalate; DOCP; DTMA

$$$$
