
     RDKit          3D

 16 17  0  0  0  0  0  0  0  0999 V2000
    1.1269   -0.6824    0.2897 C   0  0  0  0  0  0  0  0  0  0  0  0
    0.5258   -0.3651    1.6406 C   0  0  0  0  0  0  0  0  0  0  0  0
    0.9843    1.0098    2.1981 C   0  0  0  0  0  0  0  0  0  0  0  0
    0.3403    2.3656    1.6267 C   0  0  0  0  0  0  0  0  0  0  0  0
    1.3835    3.4814    1.2774 C   0  0  0  0  0  0  0  0  0  0  0  0
    0.9432    4.7088    2.0491 C   0  0  0  0  0  0  0  0  0  0  0  0
    0.4767    4.1114    3.2872 N   0  0  0  0  0  0  0  0  0  0  0  0
   -0.1996    5.0831    4.1319 C   0  0  0  0  0  0  0  0  0  0  0  0
   -0.4211    3.0354    2.8314 C   0  0  0  0  0  0  0  0  0  0  0  0
   -0.4628    2.1377    0.3322 C   0  0  0  0  0  0  0  0  0  0  0  0
    0.2314    1.9644   -0.8989 C   0  0  0  0  0  0  0  0  0  0  0  0
   -0.3845    1.2999   -1.9737 C   0  0  0  0  0  0  0  0  0  0  0  0
   -1.7133    0.9543   -1.8877 C   0  0  0  0  0  0  0  0  0  0  0  0
   -2.4492    1.3163   -0.7587 C   0  0  0  0  0  0  0  0  0  0  0  0
   -3.7730    1.0494   -0.6523 O   0  0  0  0  0  0  0  0  0  0  0  0
   -1.8253    1.8917    0.3541 C   0  0  0  0  0  0  0  0  0  0  0  0
  1  2  1  0
  2  3  1  0
  3  4  1  0
  4  5  1  0
  4  9  1  0
  4 10  1  0
  5  6  1  0
  6  7  1  0
  7  8  1  0
  7  9  1  0
 10 11  2  0
 10 16  1  0
 11 12  1  0
 12 13  2  0
 13 14  1  0
 14 15  1  0
 14 16  2  0
M  END
>  <DRUGBANK_ID>  (1) 
DB17993

>  <COMMON_NAME>  (1) 
Profadol

>  <CAS_NUMBER>  (1) 
428-37-5

>  <UNII>  (1) 
41GDG43FTT

>  <SYNONYMS>  (1) 
A-2205 free base; Ci-572 free base; Dl-profadol; M-(1-methyl-3-propyl-3-pyrrolidinyl)phenol; Phenol, 3-(1-methyl-3-propyl-3-pyrrolidinyl)-; Phenol, m-(1-methyl-3-propyl-3-pyrrolidinyl)-

$$$$
