
     RDKit          3D

 34 38  0  0  1  0  0  0  0  0999 V2000
    0.8674    0.0494    0.0189 C   0  0  0  0  0  0  0  0  0  0  0  0
    0.3349   -1.0635    0.8416 C   0  0  0  0  0  0  0  0  0  0  0  0
    1.1164   -2.0096    1.3056 N   0  0  0  0  0  0  0  0  0  0  0  0
    0.4025   -2.6663    2.2542 N   0  0  0  0  0  0  0  0  0  0  0  0
   -0.8908   -2.4409    2.0705 C   0  0  0  0  0  0  0  0  0  0  0  0
   -2.0772   -3.3983    2.4873 C   0  0  2  0  0  0  0  0  0  0  0  0
   -1.5805   -4.9155    2.4463 C   0  0  0  0  0  0  0  0  0  0  0  0
   -0.1193   -5.0532    2.0831 C   0  0  0  0  0  0  0  0  0  0  0  0
    0.7098   -5.2315    3.0097 O   0  0  0  0  0  0  0  0  0  0  0  0
    0.3198   -4.8615    0.7746 N   0  0  0  0  0  0  0  0  0  0  0  0
   -0.3903   -4.5963   -0.4303 C   0  0  0  0  0  0  0  0  0  0  0  0
   -1.5807   -3.9718   -0.4530 C   0  0  0  0  0  0  0  0  0  0  0  0
   -2.4227   -3.8140   -1.5191 C   0  0  0  0  0  0  0  0  0  0  0  0
   -2.0185   -4.1059   -2.7667 C   0  0  0  0  0  0  0  0  0  0  0  0
   -2.8671   -3.8557   -3.7906 O   0  0  0  0  0  0  0  0  0  0  0  0
   -0.7325   -4.5741   -2.8667 C   0  0  0  0  0  0  0  0  0  0  0  0
    0.0909   -4.8061   -1.7081 C   0  0  0  0  0  0  0  0  0  0  0  0
   -3.3666   -3.4165    1.6635 N   0  0  0  0  0  0  0  0  0  0  0  0
   -3.8838   -2.4548    0.9782 C   0  0  0  0  0  0  0  0  0  0  0  0
   -3.4358   -1.0783    1.0941 C   0  0  0  0  0  0  0  0  0  0  0  0
   -2.1497   -0.5821    1.1585 C   0  0  0  0  0  0  0  0  0  0  0  0
   -2.0774    1.0981    1.2969 S   0  0  0  0  0  0  0  0  0  0  0  0
   -3.7734    1.2090    1.3268 C   0  0  0  0  0  0  0  0  0  0  0  0
   -4.4406    2.5111    1.5405 C   0  0  0  0  0  0  0  0  0  0  0  0
   -4.3904   -0.0057    1.1485 C   0  0  0  0  0  0  0  0  0  0  0  0
   -5.8699   -0.2152    1.0804 C   0  0  0  0  0  0  0  0  0  0  0  0
   -0.9728   -1.2879    1.3063 N   0  0  0  0  0  0  0  0  0  0  0  0
   -5.0225   -2.6887   -0.0703 C   0  0  0  0  0  0  0  0  0  0  0  0
   -5.0091   -2.0683   -1.3731 C   0  0  0  0  0  0  0  0  0  0  0  0
   -5.9968   -2.3308   -2.3356 C   0  0  0  0  0  0  0  0  0  0  0  0
   -7.0820   -3.1133   -1.9717 C   0  0  0  0  0  0  0  0  0  0  0  0
   -8.3751   -3.3433   -3.0833 Cl  0  0  0  0  0  0  0  0  0  0  0  0
   -7.1329   -3.6977   -0.7002 C   0  0  0  0  0  0  0  0  0  0  0  0
   -6.0902   -3.5259    0.2307 C   0  0  0  0  0  0  0  0  0  0  0  0
  1  2  1  0
  2  3  2  0
  2 27  1  0
  3  4  1  0
  4  5  2  0
  5 27  1  0
  6  5  1  0
  6 18  1  0
  6  7  1  6
  7  8  1  0
  8  9  2  0
  8 10  1  0
 10 11  1  0
 11 12  2  0
 11 17  1  0
 12 13  1  0
 13 14  2  0
 14 15  1  0
 14 16  1  0
 16 17  2  0
 18 19  2  0
 19 20  1  0
 19 28  1  0
 20 21  2  0
 20 25  1  0
 21 22  1  0
 21 27  1  0
 22 23  1  0
 23 24  1  0
 23 25  2  0
 25 26  1  0
 28 29  2  0
 28 34  1  0
 29 30  1  0
 30 31  2  0
 31 32  1  0
 31 33  1  0
 33 34  2  0
M  END
>  <DRUGBANK_ID>  (1) 
DB15189

>  <COMMON_NAME>  (1) 
Birabresib

>  <CAS_NUMBER>  (1) 
202590-98-5

>  <UNII>  (1) 
X40LKS49S3

>  <SYNONYMS>  (1) 
2-[(6S)-4-(4-chlorophenyl)-2,3,9-trimethyl-6H-thienol[3,2,-f]-[1,2,4]triazolo[4,3-a][1,4]diazepin-6-yl]-N-(4-hydroxyphenyl)-acetamide; Birabresib

$$$$
