IZZ
     RDKit          3D

 23 25  0  0  0  0  0  0  0  0999 V2000
    3.2083    2.0079    1.1828 O   0  0  0  0  0  0  0  0  0  0  0  0
    2.6427    1.1026    2.1291 C   0  0  0  0  0  0  0  0  0  0  0  0
    1.0958    1.1106    2.1229 C   0  0  2  0  0  0  0  0  0  0  0  0
    0.5102    1.1784    0.6892 C   0  0  0  0  0  0  0  0  0  0  0  0
    0.8771   -0.0961   -0.0893 C   0  0  0  0  0  0  0  0  0  0  0  0
   -1.0076    1.3556    0.6753 C   0  0  0  0  0  0  0  0  0  0  0  0
    0.6237    2.2181    2.9640 N   0  0  0  0  0  0  0  0  0  0  0  0
   -0.2130    2.0241    4.0442 C   0  0  0  0  0  0  0  0  0  0  0  0
    0.1499    0.9440    5.0146 C   0  0  0  0  0  0  0  0  0  0  0  0
   -0.6259    0.7376    6.0861 C   0  0  0  0  0  0  0  0  0  0  0  0
   -1.2549    2.7992    4.1941 N   0  0  0  0  0  0  0  0  0  0  0  0
   -2.0235    2.5091    5.3063 N   0  0  0  0  0  0  0  0  0  0  0  0
   -1.7659    1.5335    6.2599 C   0  0  0  0  0  0  0  0  0  0  0  0
   -2.6569    1.5261    7.2293 N   0  0  0  0  0  0  0  0  0  0  0  0
   -3.5282    2.5251    6.9033 C   0  0  0  0  0  0  0  0  0  0  0  0
   -3.1850    3.1457    5.7138 C   0  0  0  0  0  0  0  0  0  0  0  0
   -3.8140    4.2872    5.0668 C   0  0  0  0  0  0  0  0  0  0  0  0
   -4.3976    4.1860    3.7968 C   0  0  0  0  0  0  0  0  0  0  0  0
   -3.8809    5.5027    5.7572 C   0  0  0  0  0  0  0  0  0  0  0  0
   -4.4870    6.6110    5.1732 C   0  0  0  0  0  0  0  0  0  0  0  0
   -5.0517    6.5029    3.9025 C   0  0  0  0  0  0  0  0  0  0  0  0
   -5.0135    5.2937    3.2023 C   0  0  0  0  0  0  0  0  0  0  0  0
   -5.6424    5.1814    1.9739 N   0  0  0  0  0  0  0  0  0  0  0  0
  1  2  1  0
  3  7  1  0
  3  4  1  0
  3  2  1  6
  4  5  1  0
  4  6  1  0
  7  8  1  0
  8  9  1  0
  8 11  2  0
  9 10  2  0
 10 13  1  0
 11 12  1  0
 12 13  1  0
 12 16  1  0
 13 14  2  0
 14 15  1  0
 15 16  2  0
 16 17  1  0
 17 18  2  0
 17 19  1  0
 18 22  1  0
 19 20  2  0
 20 21  1  0
 21 22  2  0
 22 23  1  0
M  END
>  <DRUGBANK_ID>  (1) 
DB08004

>  <COMMON_NAME>  (1) 
(2S)-2-{[3-(3-aminophenyl)imidazo[1,2-b]pyridazin-6-yl]amino}-3-methylbutan-1-ol

$$$$
