
     RDKit          3D

 29 31  0  0  0  0  0  0  0  0999 V2000
    1.0806    0.0517    0.0288 P   0  0  0  0  0  0  0  0  0  0  0  0
   -0.5492    1.1409    1.6135 O   0  0  0  0  0  0  0  0  0  0  0  0
   -0.1757   -0.3075    4.5301 O   0  0  0  0  0  0  0  0  0  0  0  0
   -0.1115    2.3729    4.3044 O   0  0  0  0  0  0  0  0  0  0  0  0
    1.0067    1.6421   -0.3455 O   0  0  0  0  0  0  0  0  0  0  0  0
   -2.6394   -2.2465    1.6058 O   0  0  0  0  0  0  0  0  0  0  0  0
    0.9541   -0.5921   -1.4652 O   0  0  0  0  0  0  0  0  0  0  0  0
   -0.6494    0.0517    0.0288 O   0  0  0  0  0  0  0  0  0  0  0  0
   -0.0223   -4.9462   -0.8450 O   0  0  0  0  0  0  0  0  0  0  0  0
    2.6290    0.0517    0.0288 O   0  0  0  0  0  0  0  0  0  0  0  0
   -0.3392   -1.6894    1.5409 N   0  0  0  0  0  0  0  0  0  0  0  0
   -1.3312   -3.4074    0.2049 N   0  0  0  0  0  0  0  0  0  0  0  0
   -2.9373    1.2687    2.7707 N   0  0  0  0  0  0  0  0  0  0  0  0
   -3.1659    1.5698    0.5325 N   0  0  0  0  0  0  0  0  0  0  0  0
    0.4623    0.1588    3.3479 C   0  0  2  0  0  0  0  0  0  0  0  0
    0.7070    1.7231    3.3238 C   0  0  1  0  0  0  0  0  0  0  0  0
   -0.4366   -0.1982    2.2370 C   0  0  1  0  0  0  0  0  0  0  0  0
    0.3135    2.1973    1.9510 C   0  0  1  0  0  0  0  0  0  0  0  0
    1.2891    2.4628    0.7891 C   0  0  0  0  0  0  0  0  0  0  0  0
   -1.5989   -0.6603    4.4070 C   0  0  0  0  0  0  0  0  0  0  0  0
    0.8857   -2.2277    1.1599 C   0  0  0  0  0  0  0  0  0  0  0  0
   -1.5109   -2.3996    1.1318 C   0  0  0  0  0  0  0  0  0  0  0  0
   -2.7298    0.5086    4.0531 C   0  0  0  0  0  0  0  0  0  0  0  0
    1.0382   -3.1085    0.1645 C   0  0  0  0  0  0  0  0  0  0  0  0
   -0.1340   -3.9049   -0.2535 C   0  0  0  0  0  0  0  0  0  0  0  0
    2.3460   -3.2428   -0.5561 C   0  0  0  0  0  0  0  0  0  0  0  0
   -2.6509    2.6005    2.4732 C   0  0  0  0  0  0  0  0  0  0  0  0
   -3.3453    0.7482    1.5485 C   0  0  0  0  0  0  0  0  0  0  0  0
   -2.6407    2.6935    1.0845 C   0  0  0  0  0  0  0  0  0  0  0  0
  1  5  1  0
  1  7  1  0
  1  8  1  0
  1 10  2  0
  2 17  1  0
  2 18  1  0
  3 20  1  0
  5 19  1  0
  6 22  2  0
  9 25  2  0
 11 21  1  0
 11 22  1  0
 12 22  1  0
 12 25  1  0
 13 23  1  0
 13 27  1  0
 13 28  1  0
 14 28  2  0
 14 29  1  0
 15 16  1  0
 15 17  1  0
 15  3  1  1
 16  4  1  1
 16 18  1  0
 17 11  1  6
 18 19  1  6
 20 23  1  0
 21 24  2  0
 24 25  1  0
 24 26  1  0
 27 29  2  0
M  END
>  <DRUGBANK_ID>  (1) 
DB04691

>  <COMMON_NAME>  (1) 
2'-O-[1-ethyl-1H-imidazol)] thymidine-5'-monophosphate

$$$$
