
     RDKit          3D

 14 12  0  0  1  0  0  0  0  0999 V2000
    5.0450   -3.0117    2.6706 C   0  0  0  0  0  0  0  0  0  0  0  0
    4.9112   -3.2572    1.1617 C   0  0  2  0  0  0  0  0  0  0  0  0
    3.5042   -3.1333    0.5581 C   0  0  2  0  0  0  0  0  0  0  0  0
    2.6247   -1.8886    0.8287 C   0  0  1  0  0  0  0  0  0  0  0  0
    3.2068   -0.4413    0.8617 C   0  0  2  0  0  0  0  0  0  0  0  0
    2.7472    0.4848   -0.2931 C   0  0  0  0  0  0  0  0  0  0  0  0
    4.2386   -1.9769    3.1990 O   0  0  0  0  0  0  0  0  0  0  0  0
    5.3927   -4.6019    0.9110 O   0  0  0  0  0  0  0  0  0  0  0  0
    2.7470   -4.2887    1.0287 O   0  0  0  0  0  0  0  0  0  0  0  0
    1.4833   -1.9984   -0.0698 O   0  0  0  0  0  0  0  0  0  0  0  0
    4.6242   -0.3788    1.0197 O   0  0  0  0  0  0  0  0  0  0  0  0
    2.3257   -0.1264   -1.3278 O   0  0  0  0  0  0  0  0  0  0  0  0
    2.5063    1.6792    0.0102 O   0  0  0  0  0  0  0  0  0  0  0  0
   -0.0237    0.3034    0.1589 K   0  0  0  0  0 15  0  0  0  0  0  0
  2  8  1  1
  2  3  1  0
  2  1  1  0
  3  9  1  1
  3  4  1  0
  4 10  1  6
  5 11  1  6
  5  6  1  0
  5  4  1  0
  7  1  1  0
 12  6  2  0
 13  6  1  0
M  CHG  2  13  -1  14   1
M  END
>  <DRUGBANK_ID>  (1) 
DB13620

>  <COMMON_NAME>  (1) 
Potassium gluconate

>  <CAS_NUMBER>  (1) 
299-27-4

>  <UNII>  (1) 
12H3K5QKN9

>  <SYNONYMS>  (1) 
potassium D-gluconate; Potassium gluconate

$$$$
