
     RDKit          3D

 22 24  0  0  0  0  0  0  0  0999 V2000
    1.2228    0.8220    0.1698 C   0  0  0  0  0  0  0  0  0  0  0  0
    0.8175   -1.3517    0.0989 C   0  0  0  0  0  0  0  0  0  0  0  0
   -4.4451    2.3356    6.0137 C   0  0  0  0  0  0  0  0  0  0  0  0
   -1.6371   -4.4292    7.2689 C   0  0  0  0  0  0  0  0  0  0  0  0
   -4.9178    1.5536    4.9551 C   0  0  0  0  0  0  0  0  0  0  0  0
   -1.9463   -4.5863    5.9210 C   0  0  0  0  0  0  0  0  0  0  0  0
   -1.7223    0.0215    2.3834 C   0  0  0  0  0  0  0  0  0  0  0  0
   -3.2347    2.0189    6.6295 C   0  0  0  0  0  0  0  0  0  0  0  0
   -1.4627   -3.1523    7.7882 C   0  0  0  0  0  0  0  0  0  0  0  0
   -4.1915    0.4562    4.5264 C   0  0  0  0  0  0  0  0  0  0  0  0
   -2.0851   -3.4684    5.1102 C   0  0  0  0  0  0  0  0  0  0  0  0
   -1.6239   -1.0321    3.4221 C   0  0  0  0  0  0  0  0  0  0  0  0
   -1.1854    0.5631    6.8503 C   0  0  0  0  0  0  0  0  0  0  0  0
   -1.3746   -0.6868    7.7011 C   0  0  0  0  0  0  0  0  0  0  0  0
   -0.3852    0.5515    1.9170 C   0  0  0  0  0  0  0  0  0  0  0  0
   -2.4799    0.9384    6.1836 C   0  0  0  0  0  0  0  0  0  0  0  0
   -1.5854   -2.0043    6.9828 C   0  0  0  0  0  0  0  0  0  0  0  0
   -2.9628    0.1408    5.1223 C   0  0  0  0  0  0  0  0  0  0  0  0
   -1.9121   -2.1647    5.6051 C   0  0  0  0  0  0  0  0  0  0  0  0
   -2.1904   -1.0202    4.7115 C   0  0  0  0  0  0  0  0  0  0  0  0
    0.6920   -0.2661    1.1324 N   0  0  0  0  0  0  0  0  0  0  0  0
    1.3691   -0.8887    2.1594 O   0  0  0  0  0  0  0  0  0  0  0  0
  5  3  2  0
  6  4  2  0
  8  3  1  0
  9  4  1  0
 10  5  1  0
 11  6  1  0
 12  7  1  0
 14 13  1  0
 15  7  1  0
 16  8  2  0
 16 13  1  0
 17  9  2  0
 17 14  1  0
 18 10  2  0
 18 16  1  0
 19 11  2  0
 19 17  1  0
 20 12  2  3
 20 18  1  0
 20 19  1  0
 21  1  1  0
 21  2  1  0
 21 15  1  0
 22 21  1  0
M  CHG  2  21   1  22  -1
M  END
>  <DRUGBANK_ID>  (1) 
DB13114

>  <COMMON_NAME>  (1) 
Amitriptylinoxide

>  <CAS_NUMBER>  (1) 
4317-14-0

>  <UNII>  (1) 
TYR2U59WMA

>  <SYNONYMS>  (1) 
Amitriptylinoxide

$$$$
