
     RDKit          3D

 24 23  0  0  0  0  0  0  0  0999 V2000
    0.8344   -0.0669    0.0820 C   0  0  0  0  0  0  0  0  0  0  0  0
    0.0988   -1.3636   -0.9690 S   0  0  0  0  0  0  0  0  0  0  0  0
    0.9161   -1.1017   -2.4959 C   0  0  0  0  0  0  0  0  0  0  0  0
    2.0160   -0.3152   -2.3484 N   0  0  0  0  0  0  0  0  0  0  0  0
    0.4498   -1.6028   -3.5655 N   0  0  0  0  0  0  0  0  0  0  0  0
    0.9943   -1.3940   -4.9266 C   0  0  0  0  0  0  0  0  0  0  0  0
    0.5035   -0.0654   -5.5217 C   0  0  0  0  0  0  0  0  0  0  0  0
    1.0651    1.1221   -4.7550 C   0  0  0  0  0  0  0  0  0  0  0  0
    2.6148    1.1218   -4.8190 C   0  0  0  0  0  0  0  0  0  0  0  0
    3.1001    1.4276   -6.2074 C   0  0  0  0  0  0  0  0  0  0  0  0
    2.5889    2.8073   -6.5582 C   0  0  0  0  0  0  0  0  0  0  0  0
    3.1103    3.8046   -5.5095 C   0  0  0  0  0  0  0  0  0  0  0  0
    4.6449    3.7213   -5.4828 C   0  0  0  0  0  0  0  0  0  0  0  0
    5.1662    3.9221   -6.9160 C   0  0  0  0  0  0  0  0  0  0  0  0
    4.6550    5.2482   -7.4336 C   0  0  0  0  0  0  0  0  0  0  0  0
    5.1403    6.3050   -6.4825 C   0  0  0  0  0  0  0  0  0  0  0  0
    6.6901    6.3419   -6.4303 C   0  0  0  0  0  0  0  0  0  0  0  0
    7.2516    6.8615   -7.7449 C   0  0  0  0  0  0  0  0  0  0  0  0
    6.7608    8.2882   -8.0341 C   0  0  0  0  0  0  0  0  0  0  0  0
    7.3054    9.2501   -7.0488 N   0  0  0  0  0  0  0  0  0  0  0  0
    6.8390    9.4651   -5.8873 C   0  0  0  0  0  0  0  0  0  0  0  0
    5.7391    8.9113   -5.3097 N   0  0  0  0  0  0  0  0  0  0  0  0
    7.6563   10.5666   -4.7980 S   0  0  0  0  0  0  0  0  0  0  0  0
    6.9208   10.1238   -3.1887 C   0  0  0  0  0  0  0  0  0  0  0  0
  1  2  1  0
  2  3  1  0
  3  4  1  0
  3  5  2  0
  5  6  1  0
  6  7  1  0
  7  8  1  0
  8  9  1  0
  9 10  1  0
 10 11  1  0
 11 12  1  0
 12 13  1  0
 13 14  1  0
 14 15  1  0
 15 16  1  0
 16 17  1  0
 17 18  1  0
 18 19  1  0
 19 20  1  0
 20 21  2  0
 21 22  1  0
 21 23  1  0
 23 24  1  0
M  END
>  <DRUGBANK_ID>  (1) 
DB02979

>  <SECONDARY_ACCESSION_NUMBERS>  (1) 
EXPT02394

>  <COMMON_NAME>  (1) 
N1,N14-Bis((S-Methyl)Isothioureido)Tetradecane

$$$$
