
     RDKit          3D

 24 25  0  0  0  0  0  0  0  0999 V2000
    2.1542    0.0481   -0.0379 O   0  0  0  0  0  0  0  0  0  0  0  0
    8.1297   -8.4621   -0.7031 O   0  0  0  0  0  0  0  0  0  0  0  0
    7.0491   -4.1455   -3.1004 O   0  0  0  0  0  0  0  0  0  0  0  0
   -3.3255    0.1682    0.0344 O   0  0  0  0  0  0  0  0  0  0  0  0
    1.3633   -2.3791    1.6626 O   0  0  0  0  0  0  0  0  0  0  0  0
    7.0901   -6.1654   -2.0089 N   0  0  0  0  0  0  0  0  0  0  0  0
    5.6745   -4.4292   -1.3498 N   0  0  0  0  0  0  0  0  0  0  0  0
    4.9147   -2.9758    1.2342 N   0  0  0  0  0  0  0  0  0  0  0  0
    6.6265   -4.8940   -2.2163 C   0  0  0  0  0  0  0  0  0  0  0  0
    6.2266   -7.2893   -1.6571 C   0  0  0  0  0  0  0  0  0  0  0  0
    8.4645   -6.5887   -2.2857 C   0  0  0  0  0  0  0  0  0  0  0  0
    0.7997   -0.0086   -0.1775 C   0  0  0  0  0  0  0  0  0  0  0  0
    6.8084   -7.9856   -0.4157 C   0  0  0  0  0  0  0  0  0  0  0  0
    8.9950   -7.3557   -1.0531 C   0  0  0  0  0  0  0  0  0  0  0  0
    0.0423   -1.1707   -0.3460 C   0  0  0  0  0  0  0  0  0  0  0  0
    0.1559    1.2160   -0.0413 C   0  0  0  0  0  0  0  0  0  0  0  0
   -1.9696    0.0864   -0.0517 C   0  0  0  0  0  0  0  0  0  0  0  0
   -1.3383   -1.1398   -0.1857 C   0  0  0  0  0  0  0  0  0  0  0  0
   -1.2353    1.2664   -0.0135 C   0  0  0  0  0  0  0  0  0  0  0  0
    2.6918   -1.9570    1.3503 C   0  0  0  0  0  0  0  0  0  0  0  0
    2.8575   -1.1875    0.0125 C   0  0  0  0  0  0  0  0  0  0  0  0
    5.2890   -5.0149   -0.0762 C   0  0  0  0  0  0  0  0  0  0  0  0
    3.4807   -3.2468    1.2744 C   0  0  0  0  0  0  0  0  0  0  0  0
    5.6455   -4.2224    1.1720 C   0  0  0  0  0  0  0  0  0  0  0  0
  1 12  1  0
  1 21  1  0
  2 13  1  0
  2 14  1  0
  3  9  2  0
  4 17  1  0
  5 20  1  0
  6  9  1  0
  6 10  1  0
  6 11  1  0
  7  9  1  0
  7 22  1  0
  8 23  1  0
  8 24  1  0
 10 13  1  0
 11 14  1  0
 12 15  2  0
 12 16  1  0
 15 18  1  0
 16 19  2  0
 17 18  2  0
 17 19  1  0
 20 21  1  0
 20 23  1  0
 22 24  1  0
M  END
>  <DRUGBANK_ID>  (1) 
DB13781

>  <COMMON_NAME>  (1) 
Xamoterol

>  <CAS_NUMBER>  (1) 
81801-12-9

>  <UNII>  (1) 
7HE0JQL703

>  <SYNONYMS>  (1) 
Xamoterol; Xamoterolum

$$$$
