
     RDKit          3D

 33 37  0  0  0  0  0  0  0  0999 V2000
    2.5139   -0.0146   -0.0299 C   0  0  0  0  0  0  0  0  0  0  0  0
    1.0118   -0.0062   -0.0056 C   0  0  0  0  0  0  0  0  0  0  0  0
    0.3660    1.2535   -0.0070 C   0  0  0  0  0  0  0  0  0  0  0  0
   -1.0211    1.3735    0.0119 C   0  0  0  0  0  0  0  0  0  0  0  0
   -1.7835    0.2370    0.0834 C   0  0  0  0  0  0  0  0  0  0  0  0
   -1.1393   -0.9776    0.2597 C   0  0  0  0  0  0  0  0  0  0  0  0
    0.2303   -1.1692    0.0781 C   0  0  0  0  0  0  0  0  0  0  0  0
    0.7988   -2.4747    0.0114 N   0  0  0  0  0  0  0  0  0  0  0  0
    0.1996   -3.7315   -0.0468 C   0  0  0  0  0  0  0  0  0  0  0  0
    0.9470   -4.7269    0.0361 O   0  0  0  0  0  0  0  0  0  0  0  0
   -1.2313   -3.8802   -0.1783 C   0  0  0  0  0  0  0  0  0  0  0  0
   -2.1120   -3.2863   -1.0784 C   0  0  0  0  0  0  0  0  0  0  0  0
   -3.4025   -3.4618   -0.5244 C   0  0  0  0  0  0  0  0  0  0  0  0
   -3.3631   -4.2771    0.5347 N   0  0  0  0  0  0  0  0  0  0  0  0
   -2.0499   -4.5809    0.6775 N   0  0  0  0  0  0  0  0  0  0  0  0
   -1.6678   -5.4643    1.7555 C   0  0  0  0  0  0  0  0  0  0  0  0
   -4.6592   -2.7796   -0.9315 C   0  0  0  0  0  0  0  0  0  0  0  0
   -3.1952    0.2077    0.0678 O   0  0  0  0  0  0  0  0  0  0  0  0
   -3.9413    1.3625   -0.0773 C   0  0  0  0  0  0  0  0  0  0  0  0
   -3.6878    2.1560   -1.3049 C   0  0  0  0  0  0  0  0  0  0  0  0
   -4.3186    3.3406   -1.4265 C   0  0  0  0  0  0  0  0  0  0  0  0
   -5.2753    3.7234   -0.4582 C   0  0  0  0  0  0  0  0  0  0  0  0
   -6.1427    4.7342   -0.3166 N   0  0  0  0  0  0  0  0  0  0  0  0
   -6.6878    4.5343    0.9331 C   0  0  0  0  0  0  0  0  0  0  0  0
   -5.9158    3.6364    1.5690 C   0  0  0  0  0  0  0  0  0  0  0  0
   -5.3343    2.8850    0.6324 N   0  0  0  0  0  0  0  0  0  0  0  0
   -4.7544    1.6861    0.8664 N   0  0  0  0  0  0  0  0  0  0  0  0
   -7.6849    5.2021    1.5890 N   0  0  0  0  0  0  0  0  0  0  0  0
   -8.3202    4.7895    2.7650 C   0  0  0  0  0  0  0  0  0  0  0  0
   -9.1536    5.5711    3.2485 O   0  0  0  0  0  0  0  0  0  0  0  0
   -8.0892    3.4948    3.5727 C   0  0  0  0  0  0  0  0  0  0  0  0
   -7.2727    2.2155    3.3504 C   0  0  0  0  0  0  0  0  0  0  0  0
   -8.7465    2.1866    3.1924 C   0  0  0  0  0  0  0  0  0  0  0  0
  1  2  1  0
  2  3  2  0
  2  7  1  0
  3  4  1  0
  4  5  2  0
  5  6  1  0
  5 18  1  0
  6  7  2  0
  7  8  1  0
  8  9  1  0
  9 10  2  0
  9 11  1  0
 11 12  2  0
 11 15  1  0
 12 13  1  0
 13 14  2  0
 13 17  1  0
 14 15  1  0
 15 16  1  0
 18 19  1  0
 19 20  1  0
 19 27  2  0
 20 21  2  0
 21 22  1  0
 22 23  2  0
 22 26  1  0
 23 24  1  0
 24 25  2  0
 24 28  1  0
 25 26  1  0
 26 27  1  0
 28 29  1  0
 29 30  2  0
 29 31  1  0
 31 32  1  0
 31 33  1  0
 32 33  1  0
M  END
>  <DRUGBANK_ID>  (1) 
DB13093

>  <COMMON_NAME>  (1) 
TAK-593

>  <CAS_NUMBER>  (1) 
1005780-62-0

>  <UNII>  (1) 
H3I42X8XX7

$$$$
