MHC
     RDKit          3D

 18 20  0  0  0  0  0  0  0  0999 V2000
   -0.1401    0.0660   -0.1303 S   0  0  0  0  0  0  0  0  0  0  0  0
    0.1887   -0.5254    1.5981 C   0  0  0  0  0  0  0  0  0  0  0  0
    0.8986   -1.8707    1.8304 C   0  0  0  0  0  0  0  0  0  0  0  0
    2.4382   -1.9940    1.9570 C   0  0  0  0  0  0  0  0  0  0  0  0
    2.9354   -2.5442    2.9506 O   0  0  0  0  0  0  0  0  0  0  0  0
    3.2260   -1.6103    0.8925 N   0  0  0  0  0  0  0  0  0  0  0  0
    2.8949   -0.4202    0.1559 C   0  0  0  0  0  0  0  0  0  0  0  0
    3.9990    0.5640   -0.1699 C   0  0  0  0  0  0  0  0  0  0  0  0
    5.1454   -0.1952   -0.6572 C   0  0  0  0  0  0  0  0  0  0  0  0
    5.2985   -1.5329   -0.3510 C   0  0  0  0  0  0  0  0  0  0  0  0
    4.3783   -2.4032    0.4451 C   0  0  0  0  0  0  0  0  0  0  0  0
    6.4646   -1.9396   -0.9319 N   0  0  0  0  0  0  0  0  0  0  0  0
    6.2305    0.2334   -1.4420 C   0  0  0  0  0  0  0  0  0  0  0  0
    7.0679   -0.8728   -1.5686 C   0  0  0  0  0  0  0  0  0  0  0  0
    8.2898   -0.7997   -2.2363 C   0  0  0  0  0  0  0  0  0  0  0  0
    6.5921    1.4585   -2.0337 C   0  0  0  0  0  0  0  0  0  0  0  0
    7.8097    1.5423   -2.7104 C   0  0  0  0  0  0  0  0  0  0  0  0
    8.6468    0.4310   -2.7985 C   0  0  0  0  0  0  0  0  0  0  0  0
  1  2  1  0
  2  3  1  0
  3  4  1  0
  4  5  2  0
  4  6  1  0
  6  7  1  0
  6 11  1  0
  7  8  1  0
  8  9  1  0
  9 10  2  0
  9 13  1  0
 10 11  1  0
 10 12  1  0
 12 14  1  0
 13 14  2  0
 13 16  1  0
 14 15  1  0
 15 18  2  0
 16 17  2  0
 17 18  1  0
M  END
>  <DRUGBANK_ID>  (1) 
DB03372

>  <SECONDARY_ACCESSION_NUMBERS>  (1) 
EXPT02171

>  <COMMON_NAME>  (1) 
3-Mercapto-1-(1,3,4,9-Tetrahydro-B-Carbolin-2-Yl)-Propan-1-One

$$$$
