
     RDKit          3D

 24 26  0  0  0  0  0  0  0  0999 V2000
   -0.2876    0.6865   -0.0139 C   0  0  0  0  0  0  0  0  0  0  0  0
   -2.3276   -0.4226    0.0310 O   0  0  0  0  0  0  0  0  0  0  0  0
   -0.0433   -0.6765   -0.0105 C   0  0  0  0  0  0  0  0  0  0  0  0
    0.7817    1.5684   -0.0263 C   0  0  0  0  0  0  0  0  0  0  0  0
   -1.3067   -1.4274   -0.0084 C   0  0  0  0  0  0  0  0  0  0  0  0
    1.2317   -1.2114   -0.0080 C   0  0  0  0  0  0  0  0  0  0  0  0
    2.0851    1.0509   -0.0118 C   0  0  0  0  0  0  0  0  0  0  0  0
    2.3112   -0.3357   -0.0060 C   0  0  0  0  0  0  0  0  0  0  0  0
    3.6463   -0.8756   -0.0056 C   0  0  0  0  0  0  0  0  0  0  0  0
    4.6972   -1.3408   -0.0125 N   0  0  0  0  0  0  0  0  0  0  0  0
   -1.7164    2.9466    1.6524 C   0  0  0  0  0  0  0  0  0  0  0  0
   -3.1045    1.0747    2.2894 C   0  0  0  0  0  0  0  0  0  0  0  0
   -2.0451    3.6030    2.8414 C   0  0  0  0  0  0  0  0  0  0  0  0
   -3.5798    1.8261    3.3810 C   0  0  0  0  0  0  0  0  0  0  0  0
   -2.9707    3.0319    3.7004 C   0  0  0  0  0  0  0  0  0  0  0  0
   -3.3150    3.6758    4.8226 F   0  0  0  0  0  0  0  0  0  0  0  0
   -2.1586    1.6265    1.3862 C   0  0  0  0  0  0  0  0  0  0  0  0
   -2.3162    1.7029   -1.2063 C   0  0  0  0  0  0  0  0  0  0  0  0
   -3.6221    1.1553   -1.8300 C   0  0  0  0  0  0  0  0  0  0  0  0
   -4.8130    0.9336   -0.8773 C   0  0  0  0  0  0  0  0  0  0  0  0
   -5.5016    2.1533   -0.3793 N   0  0  0  0  0  0  0  0  0  0  0  0
   -6.4912    1.7439    0.6293 C   0  0  0  0  0  0  0  0  0  0  0  0
   -4.6363    3.0926    0.3093 C   0  0  0  0  0  0  0  0  0  0  0  0
   -1.7761    0.9348    0.0522 C   0  0  1  0  0  0  0  0  0  0  0  0
  1  3  2  0
  1  4  1  0
  2  5  1  0
  3  6  1  0
  3  5  1  0
  4  7  2  0
  6  8  2  0
  7  8  1  0
  8  9  1  0
  9 10  3  0
 11 13  2  0
 12 14  1  0
 13 15  1  0
 14 15  2  0
 15 16  1  0
 17 11  1  0
 17 12  2  0
 18 19  1  0
 19 20  1  0
 20 21  1  0
 21 22  1  0
 21 23  1  0
 24  1  1  0
 24  2  1  0
 24 18  1  6
 24 17  1  0
M  END
>  <DRUGBANK_ID>  (1) 
DB01175

>  <SECONDARY_ACCESSION_NUMBERS>  (1) 
APRD00683

>  <COMMON_NAME>  (1) 
Escitalopram

>  <CAS_NUMBER>  (1) 
128196-01-0

>  <UNII>  (1) 
4O4S742ANY

>  <SYNONYMS>  (1) 
(+)-Citalopram; (S)-Citalopram; Escitalopram; Escitalopramum; S-(+)-Citalopram; S(+)-Citalopram

$$$$
