
     RDKit          3D

 18 19  0  0  0  0  0  0  0  0999 V2000
   -0.4004    1.2572   -0.1515 C   0  0  0  0  0  0  0  0  0  0  0  0
    1.0981    1.2609    0.1018 C   0  0  0  0  0  0  0  0  0  0  0  0
    1.8652   -0.0007   -0.3644 C   0  0  0  0  0  0  0  0  0  0  0  0
    1.1296   -1.2426    0.2056 C   0  0  0  0  0  0  0  0  0  0  0  0
   -0.3748   -1.2500   -0.0624 C   0  0  0  0  0  0  0  0  0  0  0  0
   -1.0326    0.0122    0.3136 N   0  0  0  0  0  0  0  0  0  0  0  0
   -2.4339   -0.0019   -0.0993 C   0  0  0  0  0  0  0  0  0  0  0  0
    1.8558   -0.0278   -1.9405 C   0  0  0  0  0  0  0  0  0  0  0  0
    3.3219    0.0070    0.2928 C   0  0  0  0  0  0  0  0  0  0  0  0
    4.3819   -0.0217   -0.3534 O   0  0  0  0  0  0  0  0  0  0  0  0
    0.6559   -0.0316   -2.6933 C   0  0  0  0  0  0  0  0  0  0  0  0
    0.6089   -0.0159   -4.0819 C   0  0  0  0  0  0  0  0  0  0  0  0
    1.7755   -0.0230   -4.8036 C   0  0  0  0  0  0  0  0  0  0  0  0
    2.9801   -0.0251   -4.1191 C   0  0  0  0  0  0  0  0  0  0  0  0
    3.0142   -0.0179   -2.7208 C   0  0  0  0  0  0  0  0  0  0  0  0
    3.5327   -0.0223    1.7992 C   0  0  0  0  0  0  0  0  0  0  0  0
    3.1172    1.2321    2.5274 C   0  0  0  0  0  0  0  0  0  0  0  0
   -0.5827    0.0108   -4.7437 O   0  0  0  0  0  0  0  0  0  0  0  0
  1  2  1  0
  1  6  1  0
  2  3  1  0
  3  9  1  0
  3  4  1  0
  3  8  1  0
  4  5  1  0
  5  6  1  0
  6  7  1  0
  8 11  2  0
  9 10  2  0
  9 16  1  0
 11 12  1  0
 12 13  2  0
 12 18  1  0
 13 14  1  0
 14 15  2  0
 15  8  1  0
 16 17  1  0
M  END
>  <DRUGBANK_ID>  (1) 
DB06738

>  <COMMON_NAME>  (1) 
Ketobemidone

>  <CAS_NUMBER>  (1) 
469-79-4

>  <UNII>  (1) 
PQS1L514CF

>  <SYNONYMS>  (1) 
Cetobemidona; Cetobemidone; Cetobemidonum; Ketobemidone

$$$$
