
     RDKit          3D

 39 41  0  0  0  0  0  0  0  0999 V2000
    0.9080    1.5162   -0.0075 C   0  0  0  0  0  0  0  0  0  0  0  0
    2.1612    0.8434   -0.0262 C   0  0  0  0  0  0  0  0  0  0  0  0
    2.2494   -0.5349   -0.0137 C   0  0  0  0  0  0  0  0  0  0  0  0
    1.0240   -1.1477    0.0145 C   0  0  0  0  0  0  0  0  0  0  0  0
   -0.2144   -0.6078    0.1139 C   0  0  0  0  0  0  0  0  0  0  0  0
   -0.2485    0.7487    0.0514 C   0  0  0  0  0  0  0  0  0  0  0  0
   -1.5274    1.1405    0.0572 O   0  0  0  0  0  0  0  0  0  0  0  0
   -1.4851   -1.2009    0.2011 C   0  0  0  0  0  0  0  0  0  0  0  0
   -2.2658    0.0178    0.1603 C   0  0  0  0  0  0  0  0  0  0  0  0
    3.5614   -1.2734    0.0046 C   0  0  0  0  0  0  0  0  0  0  0  0
    3.6361   -2.6381    0.0353 O   0  0  0  0  0  0  0  0  0  0  0  0
    4.5960   -0.6118    0.0010 O   0  0  0  0  0  0  0  0  0  0  0  0
    2.5046   -3.5370    0.0526 C   0  0  0  0  0  0  0  0  0  0  0  0
    1.7662   -3.3635    1.4284 C   0  0  0  0  0  0  0  0  0  0  0  0
    1.7613   -3.4158   -1.3289 C   0  0  0  0  0  0  0  0  0  0  0  0
   -3.7108    0.3304   -0.1034 C   0  0  0  0  0  0  0  0  0  0  0  0
   -4.0444   -0.3125   -1.4926 C   0  0  0  0  0  0  0  0  0  0  0  0
   -3.1776   -1.4992   -1.5671 C   0  0  0  0  0  0  0  0  0  0  0  0
   -3.9240   -1.7799   -0.0265 C   0  0  0  0  0  0  0  0  0  0  0  0
   -1.7353   -2.8825   -0.0792 C   0  0  0  0  0  0  0  0  0  0  0  0
   -3.2084   -3.7734   -0.6723 C   0  0  0  0  0  0  0  0  0  0  0  0
   -0.8276   -3.6520    0.1988 O   0  0  0  0  0  0  0  0  0  0  0  0
   -4.4805   -3.2479   -1.8456 C   0  0  0  0  0  0  0  0  0  0  0  0
   -3.6071   -3.8282    1.0236 C   0  0  0  0  0  0  0  0  0  0  0  0
   -5.2511   -3.1812    1.2762 C   0  0  0  0  0  0  0  0  0  0  0  0
   -6.6035   -2.7173    0.1211 C   0  0  0  0  0  0  0  0  0  0  0  0
   -6.1555   -2.5855   -1.5642 C   0  0  0  0  0  0  0  0  0  0  0  0
   -8.1672   -3.7303   -0.1587 C   0  0  0  0  0  0  0  0  0  0  0  0
   -8.2732   -5.4908   -0.1386 C   0  0  0  0  0  0  0  0  0  0  0  0
   -7.8458   -6.3734    1.1015 C   0  0  0  0  0  0  0  0  0  0  0  0
   -8.2763   -5.8616    2.4106 N   0  0  0  0  0  0  0  0  0  0  0  0
   -7.3203   -6.3481    3.5029 C   0  0  0  0  0  0  0  0  0  0  0  0
   -5.6981   -6.0192    3.6723 C   0  0  0  0  0  0  0  0  0  0  0  0
   -5.1700   -4.5096    4.1399 C   0  0  0  0  0  0  0  0  0  0  0  0
   -6.1043   -3.8526    5.1129 C   0  0  0  0  0  0  0  0  0  0  0  0
   -8.2992   -4.4321    2.4601 C   0  0  0  0  0  0  0  0  0  0  0  0
   -6.9538   -4.2275    1.9700 C   0  0  0  0  0  0  0  0  0  0  0  0
   -5.8367   -5.2096    0.6628 C   0  0  0  0  0  0  0  0  0  0  0  0
   -5.7929   -4.7098   -0.6780 C   0  0  0  0  0  0  0  0  0  0  0  0
  1  2  2  0
  1  6  1  0
  2  3  1  0
  3  4  2  0
  3 10  1  0
  4  5  1  0
  5  8  1  0
  6  5  2  0
  7  6  1  0
  7  9  1  0
  8  9  2  0
  8 20  1  0
  9 16  1  0
 10 11  1  0
 10 12  2  0
 11 13  1  0
 13 14  1  0
 13 15  1  0
 16 17  1  0
 17 18  1  0
 18 19  1  0
 20 21  1  0
 20 22  2  0
 21 24  1  0
 23 21  2  0
 23 27  1  0
 24 25  2  0
 25 26  1  0
 26 27  2  0
 26 28  1  0
 28 29  1  0
 29 30  1  0
 30 31  1  0
 31 32  1  0
 31 36  1  0
 32 33  1  0
 33 34  1  0
 34 35  1  0
 36 37  1  0
 37 38  1  0
 38 39  1  0
M  END
>  <DRUGBANK_ID>  (1) 
DB16012

>  <COMMON_NAME>  (1) 
Celivarone

>  <CAS_NUMBER>  (1) 
401925-43-7

>  <UNII>  (1) 
K45001587E

>  <SYNONYMS>  (1) 
Celivarone; Isopropyl 2-butyl-3-(4-(3-(dibutylamino)propyl)benzoyl)-1-benzofuran-5-carboxylate

$$$$
