
     RDKit          3D

 20 18  0  0  0  0  0  0  0  0999 V2000
    0.9129   -0.0363    0.0331 F   0  0  0  0  0  0  0  0  0  0  0  0
    1.0591   -0.0250   -0.0767 N   0  0  0  0  0  0  0  0  0  0  0  0
    0.5691   -0.2461   -1.4449 C   0  0  0  0  0  0  0  0  0  0  0  0
    1.0758   -1.5855   -1.9543 C   0  0  0  0  0  0  0  0  0  0  0  0
    0.5691   -2.6964   -1.0491 C   0  0  0  0  0  0  0  0  0  0  0  0
   -0.9509   -2.6965   -1.0491 C   0  0  0  0  0  0  0  0  0  0  0  0
   -1.4576   -2.9250   -2.4638 C   0  0  0  0  0  0  0  0  0  0  0  0
   -0.9509   -4.2644   -2.9733 C   0  0  0  0  0  0  0  0  0  0  0  0
   -1.4576   -5.3754   -2.0680 C   0  0  0  0  0  0  0  0  0  0  0  0
   -2.9776   -5.3754   -2.0680 C   0  0  0  0  0  0  0  0  0  0  0  0
   -3.4842   -5.6039   -3.4827 C   0  0  0  0  0  0  0  0  0  0  0  0
   -4.2663   -6.6821   -3.7593 C   0  0  0  0  0  0  0  0  0  0  0  0
   -4.6335   -7.6583   -2.6536 C   0  0  0  0  0  0  0  0  0  0  0  0
   -6.1450   -7.7040   -2.4994 C   0  0  0  0  0  0  0  0  0  0  0  0
   -6.7741   -8.1588   -3.8062 C   0  0  0  0  0  0  0  0  0  0  0  0
   -6.2589   -9.5439   -4.1615 C   0  0  0  0  0  0  0  0  0  0  0  0
   -6.6261  -10.5201   -3.0558 C   0  0  0  0  0  0  0  0  0  0  0  0
   -8.1376  -10.5659   -2.9016 C   0  0  0  0  0  0  0  0  0  0  0  0
   -8.7666  -11.0206   -4.2085 C   0  0  0  0  0  0  0  0  0  0  0  0
   -8.2514  -12.4058   -4.5637 C   0  0  0  0  0  0  0  0  0  0  0  0
  2  3  1  0
  3  4  1  0
  4  5  1  0
  5  6  1  0
  6  7  1  0
  7  8  1  0
  8  9  1  0
  9 10  1  0
 10 11  1  0
 11 12  2  0
 12 13  1  0
 13 14  1  0
 14 15  1  0
 15 16  1  0
 16 17  1  0
 17 18  1  0
 18 19  1  0
 19 20  1  0
M  END
>  <DRUGBANK_ID>  (1) 
DB16622

>  <COMMON_NAME>  (1) 
Dectaflur

>  <CAS_NUMBER>  (1) 
7333-84-8

>  <UNII>  (1) 
Q3B1Y93C1S

>  <SYNONYMS>  (1) 
Dectaflur; Oleylamine HF; Oleylamine hydrofluoride; Oleylaminhydrofluorid

$$$$
