
     RDKit          3D

 17 19  0  0  0  0  0  0  0  0999 V2000
   -1.7212    2.0247    0.0158 O   0  0  0  0  0  0  0  0  0  0  0  0
   -1.3648    0.8494    0.0237 C   0  0  0  0  0  0  0  0  0  0  0  0
   -2.3259   -0.2811    0.0428 C   0  0  0  0  0  0  0  0  0  0  0  0
   -1.8194   -1.5240   -0.0052 C   0  0  0  0  0  0  0  0  0  0  0  0
   -0.4894   -1.8693   -0.0130 O   0  0  0  0  0  0  0  0  0  0  0  0
    0.4287   -0.8509    0.0049 C   0  0  0  0  0  0  0  0  0  0  0  0
    1.7776   -1.2045    0.0089 C   0  0  0  0  0  0  0  0  0  0  0  0
    2.7561   -0.2078   -0.0024 C   0  0  0  0  0  0  0  0  0  0  0  0
    2.3875    1.1390   -0.0169 C   0  0  0  0  0  0  0  0  0  0  0  0
    1.0392    1.4930   -0.0090 C   0  0  0  0  0  0  0  0  0  0  0  0
    0.0627    0.4935    0.0067 C   0  0  0  0  0  0  0  0  0  0  0  0
   -3.7805   -0.0790    0.0343 C   0  0  0  0  0  0  0  0  0  0  0  0
   -4.3838    0.6447   -1.0017 C   0  0  0  0  0  0  0  0  0  0  0  0
   -5.7723    0.7684   -1.0614 C   0  0  0  0  0  0  0  0  0  0  0  0
   -6.5685    0.1582   -0.0940 C   0  0  0  0  0  0  0  0  0  0  0  0
   -5.9782   -0.5639    0.9415 C   0  0  0  0  0  0  0  0  0  0  0  0
   -4.5881   -0.6484    1.0288 C   0  0  0  0  0  0  0  0  0  0  0  0
  1  2  2  0
  2  3  1  0
  2 11  1  0
  3  4  2  0
  3 12  1  0
  4  5  1  0
  5  6  1  0
  6  7  1  0
  6 11  2  0
  7  8  2  0
  8  9  1  0
  9 10  2  0
 10 11  1  0
 12 13  2  0
 12 17  1  0
 13 14  1  0
 14 15  2  0
 15 16  1  0
 16 17  2  0
M  END
>  <DRUGBANK_ID>  (1) 
DB12007

>  <COMMON_NAME>  (1) 
Isoflavone

>  <CAS_NUMBER>  (1) 
574-12-9

>  <UNII>  (1) 
OVO2KUW8H8

>  <SYNONYMS>  (1) 
3-phenyl-4H-1-benzopyran-4-one; 3-Phenylchromone; Isoflavon

$$$$
