
     RDKit          3D

 20 21  0  0  0  0  0  0  0  0999 V2000
   -3.2442    0.0082   -3.0662 O   0  0  0  0  0  0  0  0  0  0  0  0
   -3.3263    1.1356   -2.3344 C   0  0  0  0  0  0  0  0  0  0  0  0
   -3.6923    2.1863   -2.8423 O   0  0  0  0  0  0  0  0  0  0  0  0
   -2.9012    0.9531   -0.9073 C   0  0  0  0  0  0  0  0  0  0  0  0
   -3.7644   -0.0740   -0.1728 C   0  0  1  0  0  0  0  0  0  0  0  0
   -3.5875   -1.3521   -0.8010 O   0  0  0  0  0  0  0  0  0  0  0  0
   -3.3620   -0.2096    1.3144 C   0  0  1  0  0  0  0  0  0  0  0  0
   -3.9201    0.8801    2.2260 C   0  0  2  0  0  0  0  0  0  0  0  0
   -2.9839    2.0805    2.3860 C   0  0  0  0  0  0  0  0  0  0  0  0
   -4.1792    0.1753    3.4606 O   0  0  0  0  0  0  0  0  0  0  0  0
   -4.2646   -1.1377    3.0934 C   0  0  0  0  0  0  0  0  0  0  0  0
   -3.9122   -1.4579    1.8917 N   0  0  0  0  0  0  0  0  0  0  0  0
   -4.7482   -2.1235    4.0993 C   0  0  0  0  0  0  0  0  0  0  0  0
   -6.0070   -1.9937    4.7052 C   0  0  0  0  0  0  0  0  0  0  0  0
   -6.4463   -2.9631    5.6236 C   0  0  0  0  0  0  0  0  0  0  0  0
   -7.9791   -2.7976    6.3957 Cl  0  0  0  0  0  0  0  0  0  0  0  0
   -5.6599   -4.0724    5.9362 C   0  0  0  0  0  0  0  0  0  0  0  0
   -4.4282   -4.2325    5.3075 C   0  0  0  0  0  0  0  0  0  0  0  0
   -3.9807   -3.2665    4.3945 C   0  0  0  0  0  0  0  0  0  0  0  0
   -2.7560   -3.4429    3.8119 O   0  0  0  0  0  0  0  0  0  0  0  0
  1  2  1  0
  2  3  2  0
  2  4  1  0
  5  4  1  0
  5  6  1  6
  7  8  1  0
  7 12  1  1
  7  5  1  0
  8  9  1  1
  8 10  1  0
 10 11  1  0
 11 12  2  0
 11 13  1  0
 13 14  2  0
 13 19  1  0
 14 15  1  0
 15 16  1  0
 15 17  2  0
 17 18  1  0
 18 19  2  0
 19 20  1  0
M  END
>  <DRUGBANK_ID>  (1) 
DB15551

>  <COMMON_NAME>  (1) 
Leptazoline A

$$$$
