
     RDKit          3D

 21 20  0  0  0  0  0  0  0  0999 V2000
    0.9570   -0.0000   -0.1522 O   0  0  0  0  0  0  0  0  0  0  0  0
    0.3675    1.1839    0.1033 C   0  0  0  0  0  0  0  0  0  0  0  0
   -1.1408    1.1186    0.0640 C   0  0  0  0  0  0  0  0  0  0  0  0
   -1.6127    0.5536   -1.2028 N   0  0  0  0  0  0  0  0  0  0  0  0
   -2.4284   -0.5645   -1.2310 C   0  0  0  0  0  0  0  0  0  0  0  0
   -3.0301   -0.9300   -2.6058 C   0  0  1  0  0  0  0  0  0  0  0  0
   -2.6066   -2.3209   -2.9279 N   0  0  0  0  0  0  0  0  0  0  0  0
   -3.4861   -3.3539   -3.1414 C   0  0  0  0  0  0  0  0  0  0  0  0
   -2.9170   -4.7414   -3.3217 C   0  0  0  0  0  0  0  0  0  0  0  0
   -3.5350   -5.7194   -2.3017 C   0  0  0  0  0  0  0  0  0  0  0  0
   -5.0814   -5.8084   -2.3156 C   0  0  1  0  0  0  0  0  0  0  0  0
   -5.6222   -6.2317   -3.7050 C   0  0  0  0  0  0  0  0  0  0  0  0
   -6.3785   -7.3557   -3.6991 O   0  0  0  0  0  0  0  0  0  0  0  0
    1.0362    2.1714    0.3856 O   0  0  0  0  0  0  0  0  0  0  0  0
   -2.6899   -1.2010   -0.2118 O   0  0  0  0  0  0  0  0  0  0  0  0
   -4.5642   -0.7207   -2.5512 C   0  0  0  0  0  0  0  0  0  0  0  0
   -5.2158    0.9813   -2.3838 S   0  0  0  0  0  0  0  0  0  0  0  0
   -4.7320    1.3788   -0.6932 C   0  0  0  0  0  0  0  0  0  0  0  0
   -4.7007   -3.1957   -3.2023 O   0  0  0  0  0  0  0  0  0  0  0  0
   -5.5380   -6.7251   -1.2451 N   0  0  0  0  0  0  0  0  0  0  0  0
   -5.3914   -5.6500   -4.7586 O   0  0  0  0  0  0  0  0  0  0  0  0
  1  2  1  0
  2 14  2  0
  2  3  1  0
  3  4  1  0
  4  5  1  0
  5  6  1  0
  5 15  2  0
  6  7  1  0
  6 16  1  1
  7  8  1  0
  8  9  1  0
  8 19  2  0
  9 10  1  0
 10 11  1  0
 11 12  1  0
 11 20  1  1
 12 13  1  0
 12 21  2  0
 16 17  1  0
 17 18  1  0
M  END
>  <DRUGBANK_ID>  (1) 
DB04701

>  <COMMON_NAME>  (1) 
S-Methyl glutathione

>  <CAS_NUMBER>  (1) 
2922-56-7

>  <UNII>  (1) 
OOW3025SR1

>  <SYNONYMS>  (1) 
Glutathione ester; Glutathione S-methyl ester; L-gamma-Glutamyl-S-methyl-L-cysteinylglycine

$$$$
