008
     RDKit          3D

 26 28  0  0  0  0  0  0  0  0999 V2000
    1.7371    0.3881   -0.0915 F   0  0  0  0  0  0  0  0  0  0  0  0
    0.3926    0.2066    0.0699 C   0  0  0  0  0  0  0  0  0  0  0  0
   -0.1787    1.4339   -0.0503 C   0  0  0  0  0  0  0  0  0  0  0  0
   -1.5424    1.4723   -0.0173 C   0  0  0  0  0  0  0  0  0  0  0  0
   -2.3071    0.2994   -0.0620 C   0  0  0  0  0  0  0  0  0  0  0  0
   -1.7424   -0.9489   -0.0165 C   0  0  0  0  0  0  0  0  0  0  0  0
   -0.4104   -1.0400    0.2896 C   0  0  0  0  0  0  0  0  0  0  0  0
   -0.1093   -2.5396    0.5925 C   0  0  0  0  0  0  0  0  0  0  0  0
    0.0937   -3.4651    1.7674 C   0  0  1  0  0  0  0  0  0  0  0  0
   -1.2834   -3.9348    1.8039 N   0  0  0  0  0  0  0  0  0  0  0  0
    1.2757   -4.6048    1.3846 C   0  0  0  0  0  0  0  0  0  0  0  0
    2.9194   -4.2925    1.1689 C   0  0  0  0  0  0  0  0  0  0  0  0
    3.6742   -4.6905    2.0672 O   0  0  0  0  0  0  0  0  0  0  0  0
    3.4740   -3.8848   -0.1193 N   0  0  0  0  0  0  0  0  0  0  0  0
    4.8152   -4.2080   -0.5671 C   0  0  0  0  0  0  0  0  0  0  0  0
    5.5885   -3.0208   -1.2642 C   0  0  0  0  0  0  0  0  0  0  0  0
    6.9346   -2.8460   -1.1444 C   0  0  0  0  0  0  0  0  0  0  0  0
    7.5410   -1.7342   -1.7626 C   0  0  0  0  0  0  0  0  0  0  0  0
    6.8269   -0.7439   -2.4595 C   0  0  0  0  0  0  0  0  0  0  0  0
    4.9269   -1.9973   -2.0041 C   0  0  0  0  0  0  0  0  0  0  0  0
    5.4766   -0.8524   -2.5598 C   0  0  0  0  0  0  0  0  0  0  0  0
    3.4934   -2.0644   -2.0263 C   0  0  0  0  0  0  0  0  0  0  0  0
    3.3087   -2.5624   -0.6025 C   0  0  1  0  0  0  0  0  0  0  0  0
    1.9575   -2.4999   -0.8543 C   0  0  0  0  0  0  0  0  0  0  0  0
    1.7347   -1.5338   -0.2450 O   0  0  0  0  0  0  0  0  0  0  0  0
    1.3122   -3.4703   -1.5981 N   0  0  0  0  0  0  0  0  0  0  0  0
  1  2  1  0
  2  3  2  0
  2  7  1  0
  3  4  1  0
  4  5  2  0
  5  6  1  0
  6  7  2  0
  7  8  1  0
  8  9  1  0
  9 10  1  6
  9 11  1  0
 11 12  1  0
 12 13  2  0
 12 14  1  0
 14 15  1  0
 14 23  1  0
 15 16  1  0
 16 17  2  0
 16 20  1  0
 17 18  1  0
 18 19  2  0
 19 21  1  0
 20 21  2  0
 20 22  1  0
 22 23  1  0
 23 24  1  6
 24 25  2  0
 24 26  1  0
M  END
>  <DRUGBANK_ID>  (1) 
DB04578

>  <COMMON_NAME>  (1) 
(S)-2-[(R)-3-amino-4-(2-fluorophenyl)butyryl]-1,2,3,4-tetrahydroisoquinoline-3-carboxamide

$$$$
