
     RDKit          3D

  1  0  0  0  0  0  0  0  0  0999 V2000
    0.9608    0.0610    0.0689 K   0  0  0  0  0 15  0  0  0  0  0  0
M  CHG  1   1   1
M  END
>  <DRUGBANK_ID>  (1) 
DB01345

>  <COMMON_NAME>  (1) 
Potassium cation

>  <CAS_NUMBER>  (1) 
24203-36-9

>  <UNII>  (1) 
295O53K152

>  <SYNONYMS>  (1) 
Potassium (ion); Potassium ion; potassium(1+); potassium(1+) ion; potassium(I) cation

$$$$
