
     RDKit          3D

 30 33  0  0  1  0  0  0  0  0999 V2000
   -8.6032   -1.7636    1.3651 C   0  0  0  0  0  0  0  0  0  0  0  0
   -7.9752   -0.3668    1.1643 C   0  0  0  0  0  0  0  0  0  0  0  0
   -8.0797    0.3611    2.5249 C   0  0  0  0  0  0  0  0  0  0  0  0
   -6.4951   -0.4800    0.7038 C   0  0  1  0  0  0  0  0  0  0  0  0
   -5.7387    0.8511    0.8616 C   0  0  0  0  0  0  0  0  0  0  0  0
   -4.7764    0.4550    1.9668 C   0  0  0  0  0  0  0  0  0  0  0  0
   -5.1839   -0.5969    2.6078 N   0  0  0  0  0  0  0  0  0  0  0  0
   -5.9632   -1.3468    1.6966 O   0  0  0  0  0  0  0  0  0  0  0  0
   -3.4632    1.1977    2.3305 C   0  0  0  0  0  0  0  0  0  0  0  0
   -3.5667    2.2564    3.1386 C   0  0  0  0  0  0  0  0  0  0  0  0
   -4.8393    2.6382    3.5125 C   0  0  0  0  0  0  0  0  0  0  0  0
   -5.0007    3.7904    4.2065 C   0  0  0  0  0  0  0  0  0  0  0  0
   -3.8681    4.4946    4.5920 C   0  0  0  0  0  0  0  0  0  0  0  0
   -2.5673    4.0551    4.2896 C   0  0  0  0  0  0  0  0  0  0  0  0
   -2.3820    2.9129    3.5321 C   0  0  0  0  0  0  0  0  0  0  0  0
   -1.1097    2.4176    3.1813 C   0  0  0  0  0  0  0  0  0  0  0  0
   -1.0765    1.3126    2.3785 C   0  0  0  0  0  0  0  0  0  0  0  0
   -2.2210    0.7727    1.9004 N   0  0  0  0  0  0  0  0  0  0  0  0
   -6.3534   -1.0420   -0.7631 C   0  0  0  0  0  0  0  0  0  0  0  0
   -7.3418   -1.1382   -1.5061 O   0  0  0  0  0  0  0  0  0  0  0  0
   -5.1523   -1.3308   -1.3621 N   0  0  0  0  0  0  0  0  0  0  0  0
   -3.7451   -1.5537   -0.9202 C   0  0  1  0  0  0  0  0  0  0  0  0
   -3.2347   -0.6312    0.1104 C   0  0  0  0  0  0  0  0  0  0  0  0
   -3.2763   -1.5854    1.4159 C   0  0  0  0  0  0  0  0  0  0  0  0
   -2.7712   -1.4856    2.5484 O   0  0  0  0  0  0  0  0  0  0  0  0
   -3.8832   -2.7498    1.0746 O   0  0  0  0  0  0  0  0  0  0  0  0
   -3.3896   -2.8634   -0.2202 C   0  0  2  0  0  0  0  0  0  0  0  0
   -1.8304   -3.0209   -0.0177 C   0  0  0  0  0  0  0  0  0  0  0  0
   -1.1729   -2.2663   -0.9362 F   0  0  0  0  0  0  0  0  0  0  0  0
   -4.0023   -3.9371   -0.8863 O   0  0  0  0  0  0  0  0  0  0  0  0
  1  2  1  0
  2  3  1  0
  4  2  1  1
  4  5  1  0
  4  8  1  0
  4 19  1  0
  5  6  1  0
  6  7  2  0
  6  9  1  0
  7  8  1  0
  9 10  1  0
  9 18  2  0
 10 11  2  0
 10 15  1  0
 11 12  1  0
 12 13  2  0
 13 14  1  0
 14 15  2  0
 15 16  1  0
 16 17  2  0
 17 18  1  0
 19 20  2  0
 19 21  1  0
 22 23  1  0
 22 27  1  0
 22 21  1  1
 23 24  1  0
 24 25  2  0
 24 26  1  0
 26 27  1  0
 27 30  1  6
 27 28  1  0
 28 29  1  0
M  END
>  <DRUGBANK_ID>  (1) 
DB12720

>  <COMMON_NAME>  (1) 
Nivocasan

>  <CAS_NUMBER>  (1) 
908253-63-4

>  <UNII>  (1) 
9554OW6MVU

>  <SYNONYMS>  (1) 
Nivocasan

$$$$
