2-Hydroxyestradiol.mol
     RDKit          3D

 21 24  0  0  0  0  0  0  0  0999 V2000
    3.4862   -0.3723    0.2844 C   0  0  0  0  0  0  0  0  0  0  0  0
    4.8299   -0.4394    0.5378 O   0  0  0  0  0  0  0  0  0  0  0  0
    2.8323   -1.5581    0.0133 C   0  0  0  0  0  0  0  0  0  0  0  0
    1.4676   -1.5533   -0.2375 C   0  0  0  0  0  0  0  0  0  0  0  0
    2.7578    0.8270    0.2884 C   0  0  0  0  0  0  0  0  0  0  0  0
    1.3458    0.8381    0.0515 C   0  0  0  0  0  0  0  0  0  0  0  0
    0.5505    2.1342    0.0905 C   0  0  0  0  0  0  0  0  0  0  0  0
   -1.0198    2.0383   -0.2600 C   0  0  0  0  0  0  0  0  0  0  0  0
   -1.7015    0.7518    0.4558 C   0  0  1  0  0  0  0  0  0  0  0  0
   -3.4823    0.5545    1.1161 C   0  0  2  0  0  0  0  0  0  0  0  0
   -4.8951   -0.7651    1.7721 C   0  0  0  0  0  0  0  0  0  0  0  0
   -5.6412   -1.4638    0.5883 C   0  0  0  0  0  0  0  0  0  0  0  0
   -4.9322   -0.4260   -0.1015 C   0  0  2  0  0  0  0  0  0  0  0  0
   -4.9273   -0.3112   -1.4866 O   0  0  0  0  0  0  0  0  0  0  0  0
   -3.4251   -0.7915    0.5756 C   0  0  2  0  0  0  0  0  0  0  0  0
   -2.6994   -0.9004    2.3015 C   0  0  0  0  0  0  0  0  0  0  0  0
   -2.7740   -1.8007   -0.2502 C   0  0  0  0  0  0  0  0  0  0  0  0
   -1.3251   -1.7971    0.0126 C   0  0  0  0  0  0  0  0  0  0  0  0
   -0.8507   -0.4198   -0.3546 C   0  0  2  0  0  0  0  0  0  0  0  0
    0.6822   -0.3731   -0.1721 C   0  0  0  0  0  0  0  0  0  0  0  0
    3.4812   -2.7618   -0.0014 O   0  0  0  0  0  0  0  0  0  0  0  0
  1  2  1  0
  1  3  2  0
  1  5  1  0
  3  4  1  0
  3 21  1  0
  4 20  2  0
  5  6  2  0
  6  7  1  0
  6 20  1  0
  7  8  1  0
  9  8  1  6
  9 10  1  0
  9 19  1  0
 10 11  1  1
 10 15  1  0
 11 12  1  0
 12 13  1  0
 13 15  1  0
 13 14  1  6
 15 16  1  1
 15 17  1  0
 17 18  1  0
 19 18  1  1
 19 20  1  0
M  END
>  <DRUGBANK_ID>  (1) 
DB07706

>  <COMMON_NAME>  (1) 
2-Hydroxyestradiol

>  <CAS_NUMBER>  (1) 
362-05-0

>  <UNII>  (1) 
AYU2L67YUU

>  <SYNONYMS>  (1) 
(17β)-estra-1,3,5(10)-triene-2,3,17-triol; 2-hydroxy-17beta-estradiol; 2-hydroxy-17β-estradiol; 2-Hydroxyestradiol-17beta; 2-OH-Estradiol

$$$$
