157
     RDKit          3D

 16 16  0  0  0  0  0  0  0  0999 V2000
    0.8489    2.4360   -1.8783 C   0  0  0  0  0  0  0  0  0  0  0  0
    2.7305    2.4176   -2.2636 C   0  0  0  0  0  0  0  0  0  0  0  0
    4.0679    2.6814   -0.9131 C   0  0  0  0  0  0  0  0  0  0  0  0
    4.6099    1.6299    0.5290 C   0  0  0  0  0  0  0  0  0  0  0  0
    4.7229   -0.0037    0.5533 C   0  0  0  0  0  0  0  0  0  0  0  0
    5.1485   -0.6228    1.6688 N   0  0  0  0  0  0  0  0  0  0  0  0
    4.0969   -0.7646   -0.3300 N   0  0  0  0  0  0  0  0  0  0  0  0
   -2.1042    1.9735    0.5870 O   0  0  0  0  0  0  0  0  0  0  0  0
    2.1410   -0.6571    1.8050 O   0  0  0  0  0  0  0  0  0  0  0  0
    0.5347    0.1297   -0.0014 C   0  0  1  0  0  0  0  0  0  0  0  0
    2.3668    1.0625   -0.3593 C   0  0  0  0  0  0  0  0  0  0  0  0
    1.5325    0.0180   -1.0686 C   0  0  0  0  0  0  0  0  0  0  0  0
    1.2652    0.3959    1.3896 C   0  0  2  0  0  0  0  0  0  0  0  0
    1.9876    1.6239    1.0144 C   0  0  0  0  0  0  0  0  0  0  0  0
   -0.0568    1.5286   -0.5412 C   0  0  2  0  0  0  0  0  0  0  0  0
   -1.5224    1.4555   -0.4257 C   0  0  0  0  0  0  0  0  0  0  0  0
  1  2  1  0
  2  3  1  0
  3  4  1  0
  4  5  1  0
  5  6  1  0
  5  7  2  0
  8 16  2  0
 10 12  1  6
 10 13  1  0
 11 12  1  0
 11 14  1  0
 13  9  1  6
 13 14  1  0
 15 16  1  6
 15 10  1  0
 15  1  1  0
M  END
>  <DRUGBANK_ID>  (1) 
DB06861

>  <COMMON_NAME>  (1) 
6-(2-HYDROXY-CYCLOPENTYL)-7-OXO-HEPTANAMIDINE

$$$$
