
     RDKit          3D

 37 40  0  0  0  0  0  0  0  0999 V2000
   -1.2241    0.3789   -0.2642 C   0  0  0  0  0  0  0  0  0  0  0  0
   -0.1061    1.2582   -0.9108 C   0  0  2  0  0  0  0  0  0  0  0  0
    1.1932    1.2103   -0.1507 C   0  0  0  0  0  0  0  0  0  0  0  0
    2.0017   -0.0694   -0.2310 C   0  0  0  0  0  0  0  0  0  0  0  0
    1.1157   -1.2800   -0.3905 C   0  0  0  0  0  0  0  0  0  0  0  0
   -1.2398   -1.0627   -0.1772 C   0  0  0  0  0  0  0  0  0  0  0  0
   -2.2702    0.8434    0.1861 O   0  0  0  0  0  0  0  0  0  0  0  0
   -0.0176   -1.3067    0.5730 N   0  0  0  0  0  0  0  0  0  0  0  0
    0.3454    1.0651    2.7332 C   0  0  0  0  0  0  0  0  0  0  0  0
    1.9238    2.7822    2.5680 C   0  0  0  0  0  0  0  0  0  0  0  0
   -0.6378    1.9640    2.3339 C   0  0  0  0  0  0  0  0  0  0  0  0
   -0.2983    3.2793    1.9576 C   0  0  0  0  0  0  0  0  0  0  0  0
    1.0110    3.7038    2.0653 C   0  0  0  0  0  0  0  0  0  0  0  0
    1.6452    1.4677    2.8766 N   0  0  0  0  0  0  0  0  0  0  0  0
    0.0832   -0.8660    2.3094 S   0  0  0  0  0  0  0  0  0  0  0  0
    1.2862   -1.5304    2.7696 O   0  0  0  0  0  0  0  0  0  0  0  0
   -1.2086   -1.1791    2.8930 O   0  0  0  0  0  0  0  0  0  0  0  0
   -0.7594    2.5542   -1.0656 N   0  0  0  0  0  0  0  0  0  0  0  0
   -1.9420    2.3656   -1.7646 C   0  0  0  0  0  0  0  0  0  0  0  0
   -2.0007    1.4357   -2.5817 O   0  0  0  0  0  0  0  0  0  0  0  0
   -3.1874    3.1533   -1.3752 C   0  0  2  0  0  0  0  0  0  0  0  0
   -4.1978    2.3395   -0.4926 C   0  0  0  0  0  0  0  0  0  0  0  0
   -4.0738    2.2248    1.0389 C   0  0  0  0  0  0  0  0  0  0  0  0
   -3.8274    3.5334    1.7192 C   0  0  0  0  0  0  0  0  0  0  0  0
   -5.0540    1.2189    1.6227 C   0  0  0  0  0  0  0  0  0  0  0  0
   -3.6863    3.4247   -2.7375 N   0  0  0  0  0  0  0  0  0  0  0  0
   -4.7467    2.7275   -3.2895 C   0  0  0  0  0  0  0  0  0  0  0  0
   -5.5149    2.0098   -2.6611 O   0  0  0  0  0  0  0  0  0  0  0  0
   -5.0702    3.0394   -4.6438 C   0  0  0  0  0  0  0  0  0  0  0  0
   -6.3272    3.3724   -5.0917 C   0  0  0  0  0  0  0  0  0  0  0  0
   -4.1864    2.9441   -5.6763 O   0  0  0  0  0  0  0  0  0  0  0  0
   -4.9076    3.2361   -6.8047 C   0  0  0  0  0  0  0  0  0  0  0  0
   -6.2273    3.5372   -6.4772 C   0  0  0  0  0  0  0  0  0  0  0  0
   -7.1259    3.9133   -7.4822 C   0  0  0  0  0  0  0  0  0  0  0  0
   -6.6553    3.9891   -8.7935 C   0  0  0  0  0  0  0  0  0  0  0  0
   -5.3286    3.6703   -9.0991 C   0  0  0  0  0  0  0  0  0  0  0  0
   -4.4231    3.2640   -8.1085 C   0  0  0  0  0  0  0  0  0  0  0  0
  1  2  1  0
  1  6  1  0
  1  7  2  0
  2  3  1  0
  2 18  1  1
  3  4  1  0
  4  5  1  0
  5  8  1  0
  6  8  1  0
  8 15  1  0
  9 15  1  0
  9 14  1  0
  9 11  2  0
 10 14  2  0
 10 13  1  0
 11 12  1  0
 12 13  2  0
 15 17  2  0
 15 16  2  0
 18 19  1  0
 19 21  1  0
 19 20  2  0
 21 26  1  0
 21 22  1  1
 22 23  1  0
 23 24  1  0
 23 25  1  0
 26 27  1  0
 27 29  1  0
 27 28  2  0
 29 31  1  0
 29 30  2  0
 30 33  1  0
 31 32  1  0
 32 37  1  0
 32 33  2  0
 33 34  1  0
 34 35  2  0
 35 36  1  0
 36 37  2  0
M  END
>  <DRUGBANK_ID>  (1) 
DB03642

>  <SECONDARY_ACCESSION_NUMBERS>  (1) 
EXPT00107

>  <COMMON_NAME>  (1) 
N-[(2S)-4-Methyl-1-oxo-1-{[(4S)-3-oxo-1-(2-pyridinylsulfonyl)-4-azepanyl]amino}-2-pentanyl]-1-benzofuran-2-carboxamide

$$$$
