20A
     RDKit          3D

 28 31  0  0  0  0  0  0  0  0999 V2000
    1.0768   -0.1630   -0.1429 O   0  0  0  0  0  0  0  0  0  0  0  0
    2.3119   -0.1321   -0.0995 C   0  0  0  0  0  0  0  0  0  0  0  0
    2.9905    0.9374   -0.6560 N   0  0  0  0  0  0  0  0  0  0  0  0
    4.4248    1.0750   -0.8042 C   0  0  0  0  0  0  0  0  0  0  0  0
    4.9061    1.1763   -2.1983 C   0  0  0  0  0  0  0  0  0  0  0  0
    5.2841    0.0048   -2.8677 C   0  0  0  0  0  0  0  0  0  0  0  0
    5.9454    0.1000   -4.0785 C   0  0  0  0  0  0  0  0  0  0  0  0
    6.1418    1.3551   -4.6536 C   0  0  0  0  0  0  0  0  0  0  0  0
    5.7382    2.5188   -3.9942 C   0  0  0  0  0  0  0  0  0  0  0  0
    5.1287    2.4326   -2.7549 C   0  0  0  0  0  0  0  0  0  0  0  0
    3.0674   -1.2317    0.5748 C   0  0  0  0  0  0  0  0  0  0  0  0
    2.7478   -2.5650    0.3086 C   0  0  0  0  0  0  0  0  0  0  0  0
    3.4322   -3.6749    0.7415 N   0  0  0  0  0  0  0  0  0  0  0  0
    4.5078   -3.3632    1.4994 C   0  0  0  0  0  0  0  0  0  0  0  0
    5.4449   -4.1987    2.0766 N   0  0  0  0  0  0  0  0  0  0  0  0
    5.5922   -5.6310    2.0945 C   0  0  0  0  0  0  0  0  0  0  0  0
    6.9507   -6.0478    1.5317 C   0  0  0  0  0  0  0  0  0  0  0  0
    6.3962   -3.5665    2.7668 N   0  0  0  0  0  0  0  0  0  0  0  0
    4.8889   -2.0781    1.8690 C   0  0  0  0  0  0  0  0  0  0  0  0
    6.0596   -2.3072    2.6196 C   0  0  0  0  0  0  0  0  0  0  0  0
    4.1325   -0.9493    1.4553 C   0  0  0  0  0  0  0  0  0  0  0  0
    4.4392    0.3747    1.7759 N   0  0  0  0  0  0  0  0  0  0  0  0
    5.6399    0.8309    2.4380 C   0  0  0  0  0  0  0  0  0  0  0  0
    6.9269    0.4466    1.6816 C   0  0  0  0  0  0  0  0  0  0  0  0
    8.1369    0.5543    2.5955 C   0  0  0  0  0  0  0  0  0  0  0  0
    7.9118   -0.0077    3.8871 O   0  0  0  0  0  0  0  0  0  0  0  0
    6.8282    0.5682    4.6121 C   0  0  0  0  0  0  0  0  0  0  0  0
    5.5106    0.4268    3.8985 C   0  0  0  0  0  0  0  0  0  0  0  0
  1  2  2  0
  2  3  1  0
  3  4  1  0
  5  4  1  0
  5 10  1  0
  6  5  2  0
  7  6  1  0
  7  8  2  0
  8  9  1  0
  9 10  2  0
 11  2  1  0
 11 12  2  0
 13 12  1  0
 14 13  2  0
 15 14  1  0
 15 16  1  0
 16 17  1  0
 18 15  1  0
 18 20  2  0
 19 14  1  0
 19 21  2  0
 20 19  1  0
 21 11  1  0
 22 21  1  0
 23 22  1  0
 23 24  1  0
 25 24  1  0
 26 25  1  0
 27 26  1  0
 27 28  1  0
 28 23  1  0
M  END
>  <DRUGBANK_ID>  (1) 
DB06909

>  <COMMON_NAME>  (1) 
1-ethyl-N-(phenylmethyl)-4-(tetrahydro-2H-pyran-4-ylamino)-1H-pyrazolo[3,4-b]pyridine-5-carboxamide

$$$$
