
     RDKit          3D

 34 38  0  0  1  0  0  0  0  0999 V2000
    2.5046   -0.2891    0.1807 C   0  0  0  0  0  0  0  0  0  0  0  0
    1.0990   -0.0312   -0.3530 C   0  0  1  0  0  0  0  0  0  0  0  0
    0.1883   -1.2006    0.1348 C   0  0  0  0  0  0  0  0  0  0  0  0
   -1.1884   -1.0213   -0.2386 O   0  0  0  0  0  0  0  0  0  0  0  0
   -1.6986    0.1894    0.3375 C   0  0  0  0  0  0  0  0  0  0  0  0
   -0.9058    1.4174   -0.1644 C   0  0  0  0  0  0  0  0  0  0  0  0
    0.5271    1.2333    0.1481 N   0  0  0  0  0  0  0  0  0  0  0  0
    1.3129    2.3318    0.5150 C   0  0  0  0  0  0  0  0  0  0  0  0
    1.1130    2.8922    1.7788 C   0  0  0  0  0  0  0  0  0  0  0  0
    0.1884    2.3731    2.6950 C   0  0  0  0  0  0  0  0  0  0  0  0
    0.1654    2.8294    3.9826 C   0  0  0  0  0  0  0  0  0  0  0  0
    0.8603    3.9877    4.2595 C   0  0  0  0  0  0  0  0  0  0  0  0
    1.7515    4.5244    3.3846 N   0  0  0  0  0  0  0  0  0  0  0  0
    1.9524    3.9252    2.1854 C   0  0  0  0  0  0  0  0  0  0  0  0
    2.9682    4.3102    1.4134 N   0  0  0  0  0  0  0  0  0  0  0  0
    3.1504    3.7252    0.2187 C   0  0  0  0  0  0  0  0  0  0  0  0
    2.3411    2.7495   -0.2521 N   0  0  0  0  0  0  0  0  0  0  0  0
    4.1181    4.2875   -0.5880 N   0  0  0  0  0  0  0  0  0  0  0  0
    5.5391    4.1447   -0.2432 C   0  0  0  0  0  0  0  0  0  0  0  0
    6.2979    5.4293   -0.6369 C   0  0  0  0  0  0  0  0  0  0  0  0
    6.1122    5.7340   -2.0306 O   0  0  0  0  0  0  0  0  0  0  0  0
    4.7162    5.9451   -2.2959 C   0  0  0  0  0  0  0  0  0  0  0  0
    3.8589    4.6832   -1.9808 C   0  0  2  0  0  0  0  0  0  0  0  0
    2.3970    5.0478   -2.2182 C   0  0  0  0  0  0  0  0  0  0  0  0
    0.5807    4.6396    5.5452 C   0  0  0  0  0  0  0  0  0  0  0  0
   -0.1307    5.8287    5.6629 C   0  0  0  0  0  0  0  0  0  0  0  0
   -0.6928    6.1713    6.9010 C   0  0  0  0  0  0  0  0  0  0  0  0
   -0.2661    5.5372    8.0755 C   0  0  0  0  0  0  0  0  0  0  0  0
    0.5775    4.4338    7.9918 C   0  0  0  0  0  0  0  0  0  0  0  0
    0.7782    3.9124    6.7224 C   0  0  0  0  0  0  0  0  0  0  0  0
    1.1830    3.8416    9.2274 C   0  0  0  0  0  0  0  0  0  0  0  0
    0.8813    4.2935   10.3203 O   0  0  0  0  0  0  0  0  0  0  0  0
    2.1266    2.8302    9.1759 N   0  0  0  0  0  0  0  0  0  0  0  0
    2.7722    2.1400    8.0788 C   0  0  0  0  0  0  0  0  0  0  0  0
  2  1  1  1
  2  3  1  0
  2  7  1  0
  3  4  1  0
  4  5  1  0
  5  6  1  0
  6  7  1  0
  7  8  1  0
  8  9  1  0
  8 17  2  0
  9 10  2  0
  9 14  1  0
 10 11  1  0
 11 12  2  0
 12 13  1  0
 12 25  1  0
 13 14  2  0
 14 15  1  0
 15 16  2  0
 16 17  1  0
 16 18  1  0
 18 19  1  0
 18 23  1  0
 19 20  1  0
 20 21  1  0
 21 22  1  0
 22 23  1  0
 23 24  1  1
 25 26  2  0
 25 30  1  0
 26 27  1  0
 27 28  2  0
 28 29  1  0
 29 30  2  0
 29 31  1  0
 31 32  2  0
 31 33  1  0
 33 34  1  0
M  END
>  <DRUGBANK_ID>  (1) 
DB11925

>  <COMMON_NAME>  (1) 
Vistusertib

>  <CAS_NUMBER>  (1) 
1009298-59-2

>  <UNII>  (1) 
0BSC3P4H5X

>  <SYNONYMS>  (1) 
Vistusertib

$$$$
