
     RDKit          3D

 27 30  0  0  1  0  0  0  0  0999 V2000
   -1.9986    0.5707    0.0756 C   0  0  0  0  0  0  0  0  0  0  0  0
   -2.0265   -0.7722   -0.0010 N   0  0  0  0  0  0  0  0  0  0  0  0
   -0.8414   -1.4241   -0.0071 C   0  0  0  0  0  0  0  0  0  0  0  0
    0.3423   -0.6474    0.0555 C   0  0  0  0  0  0  0  0  0  0  0  0
    0.2300    0.7194    0.1210 C   0  0  0  0  0  0  0  0  0  0  0  0
   -0.9228    1.3848    0.1737 N   0  0  0  0  0  0  0  0  0  0  0  0
    1.5234    1.1812    0.0872 N   0  0  0  0  0  0  0  0  0  0  0  0
    2.3566    0.1074    0.0598 C   0  0  0  0  0  0  0  0  0  0  0  0
    1.6762   -0.9960    0.0792 N   0  0  0  0  0  0  0  0  0  0  0  0
    2.0464    2.5150   -0.0202 C   0  0  1  0  0  0  0  0  0  0  0  0
    1.6815    3.2278   -1.3131 C   0  0  1  0  0  0  0  0  0  0  0  0
    1.7316    4.6825   -0.8561 C   0  0  1  0  0  0  0  0  0  0  0  0
    1.2459    4.6047    0.5947 C   0  0  2  0  0  0  0  0  0  0  0  0
    1.6033    3.2992    1.0912 O   0  0  0  0  0  0  0  0  0  0  0  0
   -0.2722    4.8351    0.7860 C   0  0  0  0  0  0  0  0  0  0  0  0
   -1.1555    3.8727    0.2147 O   0  0  0  0  0  0  0  0  0  0  0  0
   -1.4091    3.9564   -1.1794 N   0  0  0  0  0  0  0  0  0  0  0  0
   -0.9102    4.9145   -1.7766 O   0  0  0  0  0  0  0  0  0  0  0  0
   -2.0566    3.0275   -1.6379 O   0  0  0  0  0  0  0  0  0  0  0  0
    3.0684    5.1931   -0.9691 O   0  0  0  0  0  0  0  0  0  0  0  0
    2.5545    2.9188   -2.3923 O   0  0  0  0  0  0  0  0  0  0  0  0
   -0.8728   -2.8020   -0.0931 N   0  0  0  0  0  0  0  0  0  0  0  0
    0.3217   -3.6167   -0.0095 C   0  0  0  0  0  0  0  0  0  0  0  0
    1.1163   -3.4118    1.2870 C   0  0  0  0  0  0  0  0  0  0  0  0
    2.5649   -3.7098    0.9148 C   0  0  0  0  0  0  0  0  0  0  0  0
    2.6455   -3.7948   -0.6149 C   0  0  0  0  0  0  0  0  0  0  0  0
    1.2918   -3.3792   -1.1731 C   0  0  0  0  0  0  0  0  0  0  0  0
  1  2  2  0
  1  6  1  0
  2  3  1  0
  3  4  2  0
  3 22  1  0
  4  5  1  0
  4  9  1  0
  5  6  2  0
  5  7  1  0
  7  8  1  0
  8  9  2  0
 10  7  1  6
 10 11  1  0
 10 14  1  0
 11 12  1  0
 11 21  1  6
 12 13  1  0
 12 20  1  1
 13 14  1  0
 13 15  1  6
 15 16  1  0
 16 17  1  0
 17 18  2  0
 17 19  1  0
 22 23  1  0
 23 24  1  0
 23 27  1  0
 24 25  1  0
 25 26  1  0
 26 27  1  0
M  CHG  2  17   1  19  -1
M  END
>  <DRUGBANK_ID>  (1) 
DB13122

>  <COMMON_NAME>  (1) 
Trabodenoson

>  <CAS_NUMBER>  (1) 
871108-05-3

>  <UNII>  (1) 
1T237110W4

>  <SYNONYMS>  (1) 
Trabodenoson

$$$$
