
     RDKit          3D

 12 11  0  0  0  0  0  0  0  0999 V2000
    0.8041   -0.0489   -0.1480 C   0  0  0  0  0  0  0  0  0  0  0  0
    0.4404    1.1023    0.7319 N   0  0  0  0  0  0  0  0  0  0  0  0
    0.4790    0.1816   -1.5596 N   0  0  0  0  0  0  0  0  0  0  0  0
    0.4125   -1.4698    0.4854 C   0  0  0  0  0  0  0  0  0  0  0  0
   -0.3958    2.1123    0.3930 C   0  0  0  0  0  0  0  0  0  0  0  0
   -0.3325   -0.6488   -2.2635 C   0  0  0  0  0  0  0  0  0  0  0  0
    1.3880   -2.2729    0.6266 O   0  0  0  0  0  0  0  0  0  0  0  0
   -0.7728   -1.5603    0.9317 O   0  0  0  0  0  0  0  0  0  0  0  0
   -0.7129    2.9581    1.4058 N   0  0  0  0  0  0  0  0  0  0  0  0
   -0.7718    2.3875   -0.7415 O   0  0  0  0  0  0  0  0  0  0  0  0
   -0.7121   -0.1722   -3.4718 N   0  0  0  0  0  0  0  0  0  0  0  0
   -0.6913   -1.7850   -1.9773 O   0  0  0  0  0  0  0  0  0  0  0  0
  1  2  1  0
  1  3  1  0
  1  4  1  0
  2  5  1  0
  3  6  1  0
  4  7  1  0
  4  8  2  0
  5  9  1  0
  5 10  2  0
  6 11  1  0
  6 12  2  0
M  CHG  1   7  -1
M  END
>  <DRUGBANK_ID>  (1) 
DB04380

>  <SECONDARY_ACCESSION_NUMBERS>  (1) 
EXPT00066

>  <COMMON_NAME>  (1) 
Allantoate

>  <SYNONYMS>  (1) 
bis[(aminocarbonyl)amino]acetate; diureido-acetate; diureidoacetate

$$$$
