
     RDKit          3D

 12 11  0  0  0  0  0  0  0  0999 V2000
    1.0811   -0.1552   -0.1059 C   0  0  0  0  0  0  0  0  0  0  0  0
    0.6623   -0.2791    1.3417 C   0  0  0  0  0  0  0  0  0  0  0  0
    1.3707    0.7182    2.2783 C   0  0  0  0  0  0  0  0  0  0  0  0
    1.3227    2.2603    2.0844 C   0  0  0  0  0  0  0  0  0  0  0  0
    0.9575    2.9685    3.0016 O   0  0  0  0  0  0  0  0  0  0  0  0
    1.6672    2.9686    0.4685 S   0  0  0  0  0  0  0  0  0  0  0  0
    0.4021    4.3310    0.1122 C   0  0  0  0  0  0  0  0  0  0  0  0
   -1.1814    4.2270    0.1121 C   0  0  0  0  0  0  0  0  0  0  0  0
   -1.7866    3.7485    1.4369 N   0  0  0  0  0  0  0  0  0  0  0  0
   -1.2569    4.6557    2.5621 C   0  0  0  0  0  0  0  0  0  0  0  0
   -3.3025    3.7594    1.5141 C   0  0  0  0  0  0  0  0  0  0  0  0
   -1.4908    2.2884    1.5619 C   0  0  0  0  0  0  0  0  0  0  0  0
  1  2  1  0
  2  3  1  0
  3  4  1  0
  4  5  2  0
  4  6  1  0
  6  7  1  0
  7  8  1  0
  8  9  1  0
  9 10  1  0
  9 11  1  0
  9 12  1  0
M  CHG  1   9   1
M  END
>  <DRUGBANK_ID>  (1) 
DB04250

>  <SECONDARY_ACCESSION_NUMBERS>  (1) 
EXPT00639

>  <COMMON_NAME>  (1) 
Butyrylthiocholine

>  <UNII>  (1) 
K8D83KI04M

$$$$
