
     RDKit          3D

 21 22  0  0  0  0  0  0  0  0999 V2000
   -0.0832   -0.2853    0.6765 C   0  0  0  0  0  0  0  0  0  0  0  0
   -1.7450   -0.4233   -0.9779 C   0  0  0  0  0  0  0  0  0  0  0  0
    4.5499    0.4318    2.2755 C   0  0  0  0  0  0  0  0  0  0  0  0
    4.0545   -0.8919    1.7336 C   0  0  0  0  0  0  0  0  0  0  0  0
   -1.6119    1.1825   -3.9623 C   0  0  0  0  0  0  0  0  0  0  0  0
   -1.0323    2.4167   -3.6428 C   0  0  0  0  0  0  0  0  0  0  0  0
   -0.7491    0.0966   -4.2215 C   0  0  0  0  0  0  0  0  0  0  0  0
    4.4219    1.6598    1.3582 C   0  0  0  0  0  0  0  0  0  0  0  0
    2.7083   -0.7060    1.1296 C   0  0  0  0  0  0  0  0  0  0  0  0
    0.2538    2.3481   -0.7932 C   0  0  0  0  0  0  0  0  0  0  0  0
    0.4151    2.5773   -3.6154 C   0  0  0  0  0  0  0  0  0  0  0  0
    0.6761    0.1929   -3.9760 C   0  0  0  0  0  0  0  0  0  0  0  0
    4.4445    1.4508   -0.2258 C   0  0  0  0  0  0  0  0  0  0  0  0
    2.8046   -0.3367   -0.3721 C   0  0  0  0  0  0  0  0  0  0  0  0
    0.1264    0.9167   -1.2676 C   0  0  0  0  0  0  0  0  0  0  0  0
    1.1184    2.5816    0.3422 C   0  0  0  0  0  0  0  0  0  0  0  0
    2.7830    1.3331   -2.6148 C   0  0  0  0  0  0  0  0  0  0  0  0
    1.3166    1.4304   -3.5970 C   0  0  0  0  0  0  0  0  0  0  0  0
    2.9949    1.2002   -0.8126 C   0  0  0  0  0  0  0  0  0  0  0  0
   -0.3422   -0.3106   -0.6962 N   0  0  0  0  0  0  0  0  0  0  0  0
    2.4371    2.3369   -0.1011 O   0  0  0  0  0  0  0  0  0  0  0  0
  4  3  1  0
  6  5  2  0
  7  5  1  0
  8  3  1  0
  9  4  1  0
 11  6  1  0
 12  7  2  0
 13  8  1  0
 14  9  1  0
 15 10  1  0
 16 10  1  0
 18 11  2  0
 18 12  1  0
 18 17  1  0
 19 13  1  0
 19 14  1  0
 19 17  1  0
 20  1  1  0
 20  2  1  0
 20 15  1  0
 21 16  1  0
 21 19  1  0
M  END
>  <DRUGBANK_ID>  (1) 
DB13488

>  <COMMON_NAME>  (1) 
Bencyclane

>  <CAS_NUMBER>  (1) 
2179-37-5

>  <UNII>  (1) 
6I97Z6S135

>  <SYNONYMS>  (1) 
3-((1-Benzylcycloheptyl)oxy)-N,N-dimethylpropylamin; Benciclano; Bencyclane; Bencyclanum

$$$$
