78P
     RDKit          3D

 18 20  0  0  0  0  0  0  0  0999 V2000
   -4.5365    3.5178    0.5770 C   0  0  0  0  0  0  0  0  0  0  0  0
   -4.5549    4.7816    1.1890 C   0  0  0  0  0  0  0  0  0  0  0  0
   -5.2455    5.7901    0.4917 C   0  0  0  0  0  0  0  0  0  0  0  0
   -4.2821    1.3838   -0.0454 C   0  0  0  0  0  0  0  0  0  0  0  0
   -3.8794    4.9989    2.4963 C   0  0  0  0  0  0  0  0  0  0  0  0
   -3.7844   -0.0512    0.0095 C   0  0  1  0  0  0  0  0  0  0  0  0
   -5.6824   -1.2618   -0.6839 C   0  0  0  0  0  0  0  0  0  0  0  0
   -4.3210   -0.7812    1.2545 C   0  0  0  0  0  0  0  0  0  0  0  0
   -5.8686    5.5425   -0.7354 C   0  0  0  0  0  0  0  0  0  0  0  0
   -5.8350    4.2719   -1.3104 C   0  0  0  0  0  0  0  0  0  0  0  0
   -5.1589    3.2512   -0.6350 C   0  0  0  0  0  0  0  0  0  0  0  0
   -5.0005    1.9452   -0.9996 N   0  0  0  0  0  0  0  0  0  0  0  0
   -3.9738    2.3141    0.9266 N   0  0  0  0  0  0  0  0  0  0  0  0
   -3.9354    6.2467    3.0555 N   0  0  0  0  0  0  0  0  0  0  0  0
   -3.2870    4.0841    3.0642 O   0  0  0  0  0  0  0  0  0  0  0  0
   -4.3389   -0.8588   -1.1068 N   0  0  0  0  0  0  0  0  0  0  0  0
   -5.5504   -1.5571    0.7957 C   0  0  0  0  0  0  0  0  0  0  0  0
   -2.2423   -0.0434   -0.0297 C   0  0  0  0  0  0  0  0  0  0  0  0
  1  2  2  0
  2  3  1  0
  2  5  1  0
  4 13  1  0
  5 15  2  0
  6  8  1  0
  6 16  1  0
  6 18  1  1
  6  4  1  0
  7 17  1  0
  8 17  1  0
  9  3  2  0
 10  9  1  0
 11 10  2  0
 11  1  1  0
 12  4  2  0
 12 11  1  0
 13  1  1  0
 14  5  1  0
 16  7  1  0
M  END
>  <DRUGBANK_ID>  (1) 
DB07232

>  <COMMON_NAME>  (1) 
Veliparib

>  <CAS_NUMBER>  (1) 
912444-00-9

>  <UNII>  (1) 
01O4K0631N

>  <SYNONYMS>  (1) 
(2R)-2-(7-carbamoyl-1H-benzimidazol-2-yl)-2-methylpyrrolidinium; 2-((2R)-2-methylpyrrolidin-2-yl)-1H-benzimidazole-4-carboxamide; 2-[(R)-2-methylpyrrolidin-2-yl]-1H-benzimadazole-4-carboxamide; Veliparib

$$$$
