PF6
     RDKit          3D

 30 34  0  0  0  0  0  0  0  0999 V2000
    1.1957    0.0044    0.6827 C   0  0  0  0  0  0  0  0  0  0  0  0
    3.2986    3.4673   -1.2897 C   0  0  0  0  0  0  0  0  0  0  0  0
    2.5182   -0.8939   -1.6518 C   0  0  0  0  0  0  0  0  0  0  0  0
   -1.2365   -3.3524    0.0109 C   0  0  0  0  0  0  0  0  0  0  0  0
   -0.4221   -3.6776   -1.2245 C   0  0  0  0  0  0  0  0  0  0  0  0
   -0.6066    1.4146    0.0482 C   0  0  0  0  0  0  0  0  0  0  0  0
    3.0723   -1.9592   -0.9560 C   0  0  0  0  0  0  0  0  0  0  0  0
    0.7054   -4.7811   -3.4816 C   0  0  0  0  0  0  0  0  0  0  0  0
    0.3647   -3.3496   -5.8444 C   0  0  0  0  0  0  0  0  0  0  0  0
    1.2275   -4.4498   -5.8250 C   0  0  0  0  0  0  0  0  0  0  0  0
    1.3440   -5.2057   -4.6613 C   0  0  0  0  0  0  0  0  0  0  0  0
    0.9827   -5.2533   -2.2044 C   0  0  0  0  0  0  0  0  0  0  0  0
    0.7032   -4.4730   -1.1011 C   0  0  0  0  0  0  0  0  0  0  0  0
   -0.2254   -3.7113   -3.5244 C   0  0  0  0  0  0  0  0  0  0  0  0
   -0.3820   -3.0427   -4.7105 C   0  0  0  0  0  0  0  0  0  0  0  0
   -0.8955   -3.3254   -2.4372 N   0  0  0  0  0  0  0  0  0  0  0  0
   -1.8251   -2.0399    0.0028 O   0  0  0  0  0  0  0  0  0  0  0  0
   -0.9850   -0.9828    0.2221 C   0  0  0  0  0  0  0  0  0  0  0  0
   -1.4814    0.3052    0.0469 C   0  0  0  0  0  0  0  0  0  0  0  0
    0.3395   -1.1050    0.6061 C   0  0  0  0  0  0  0  0  0  0  0  0
    0.7710    1.2335    0.2026 C   0  0  0  0  0  0  0  0  0  0  0  0
    1.7638    2.2310   -0.2344 C   0  0  0  0  0  0  0  0  0  0  0  0
    2.6365    2.2548   -1.4173 C   0  0  0  0  0  0  0  0  0  0  0  0
    2.8747    4.0397   -0.1324 N   0  0  0  0  0  0  0  0  0  0  0  0
    1.9463    3.3300    0.5158 N   0  0  0  0  0  0  0  0  0  0  0  0
    2.7809    1.3614   -2.6484 C   0  0  0  0  0  0  0  0  0  0  0  0
    3.3499    0.0157   -2.2685 C   0  0  0  0  0  0  0  0  0  0  0  0
    4.3391   -2.3572   -1.0766 N   0  0  0  0  0  0  0  0  0  0  0  0
    5.0715   -1.6352   -1.9369 C   0  0  0  0  0  0  0  0  0  0  0  0
    4.6469   -0.4345   -2.5145 C   0  0  0  0  0  0  0  0  0  0  0  0
  3  7  2  0
  4 17  1  0
  5  4  1  0
  6 21  2  0
  7 28  1  0
  8 14  2  0
  8 12  1  0
  9 15  2  0
 10  9  1  0
 10 11  2  0
 11  8  1  0
 12 13  2  0
 13  5  1  0
 14 16  1  0
 15 14  1  0
 16  5  2  0
 17 18  1  0
 18 20  1  0
 19  6  1  0
 19 18  2  0
 20  1  2  0
 21  1  1  0
 21 22  1  0
 22 23  1  0
 23  2  2  0
 23 26  1  0
 24  2  1  0
 25 22  2  0
 25 24  1  0
 26 27  1  0
 27  3  1  0
 27 30  2  0
 29 28  2  0
 30 29  1  0
M  END
>  <DRUGBANK_ID>  (1) 
DB08384

>  <COMMON_NAME>  (1) 
2-({4-[4-(pyridin-4-ylmethyl)-1H-pyrazol-3-yl]phenoxy}methyl)quinoline

$$$$
