
     RDKit          3D

 15 14  0  0  1  0  0  0  0  0999 V2000
    1.1514   -2.2157    1.4046 C   0  0  0  0  0  0  0  0  0  0  0  0
   -1.9169   -0.2393    1.6202 C   0  0  0  0  0  0  0  0  0  0  0  0
    2.5789   -1.5335    1.7807 C   0  0  1  0  0  0  0  0  0  0  0  0
   -1.6170   -0.4262    3.1425 C   0  0  1  0  0  0  0  0  0  0  0  0
    0.4091   -1.5647    0.1945 C   0  0  2  0  0  0  0  0  0  0  0  0
    3.5732   -2.0759    0.8084 C   0  0  0  0  0  0  0  0  0  0  0  0
   -0.2280   -0.0146    3.5459 C   0  0  0  0  0  0  0  0  0  0  0  0
    2.7011   -0.0499    1.8819 N   0  0  0  0  0  0  0  0  0  0  0  0
   -2.3620    0.4543    4.0557 N   0  0  0  0  0  0  0  0  0  0  0  0
    0.7977   -0.2279   -0.1073 O   0  0  0  0  0  0  0  0  0  0  0  0
    4.2029   -1.4520   -0.0263 O   0  0  0  0  0  0  0  0  0  0  0  0
    3.6444   -3.4139    0.9274 O   0  0  0  0  0  0  0  0  0  0  0  0
    0.2198    0.3279    4.5946 O   0  0  0  0  0  0  0  0  0  0  0  0
    0.5580   -0.2285    2.5474 O   0  0  0  0  0  0  0  0  0  0  0  0
   -1.4567   -1.6114    0.3760 S   0  0  0  0  0  0  0  0  0  0  0  0
  3  1  1  0
  3  8  1  6
  4  2  1  0
  4  9  1  1
  5 10  1  1
  5  1  1  0
  6  3  1  0
  7  4  1  0
 11  6  2  0
 12  6  1  0
 13  7  2  0
 14  7  1  0
 15  2  1  0
 15  5  1  0
M  END
>  <DRUGBANK_ID>  (1) 
DB03502

>  <SECONDARY_ACCESSION_NUMBERS>  (1) 
EXPT01789

>  <COMMON_NAME>  (1) 
(4s)-4-{[(2s)-2-Amino-3-Oxopropyl]Sulfanyl}-L-Homoserinate

$$$$
