
     RDKit          3D

 22 25  0  0  0  0  0  0  0  0999 V2000
    1.4848   -0.3795    0.1352 C   0  0  0  0  0  0  0  0  0  0  0  0
   -4.4075    2.7648    3.3144 C   0  0  0  0  0  0  0  0  0  0  0  0
    0.5535   -1.4139    0.1401 C   0  0  0  0  0  0  0  0  0  0  0  0
    1.0432    0.9275    0.2509 C   0  0  0  0  0  0  0  0  0  0  0  0
   -3.4428    3.3300    2.5153 C   0  0  0  0  0  0  0  0  0  0  0  0
   -4.8788    1.4847    3.0244 C   0  0  0  0  0  0  0  0  0  0  0  0
   -0.8246   -1.1481    0.1768 C   0  0  0  0  0  0  0  0  0  0  0  0
   -0.3195    1.1789    0.3463 C   0  0  0  0  0  0  0  0  0  0  0  0
   -2.9686    2.6159    1.4254 C   0  0  0  0  0  0  0  0  0  0  0  0
   -4.3590    0.7534    1.9444 C   0  0  0  0  0  0  0  0  0  0  0  0
   -3.0142    1.2650   -4.0372 C   0  0  0  0  0  0  0  0  0  0  0  0
   -1.0416    0.4286   -2.8824 C   0  0  0  0  0  0  0  0  0  0  0  0
   -2.3740    2.6617   -4.0520 C   0  0  0  0  0  0  0  0  0  0  0  0
   -0.4842    1.8585   -2.8296 C   0  0  0  0  0  0  0  0  0  0  0  0
   -2.4279    2.7060   -1.6731 C   0  0  0  0  0  0  0  0  0  0  0  0
   -2.5706    0.4770   -2.7752 C   0  0  0  0  0  0  0  0  0  0  0  0
   -1.2979    0.1801    0.2054 C   0  0  0  0  0  0  0  0  0  0  0  0
   -3.3985    1.3161    1.0928 C   0  0  0  0  0  0  0  0  0  0  0  0
   -3.0039    1.2784   -1.5021 C   0  0  0  0  0  0  0  0  0  0  0  0
   -2.7722    0.5431   -0.0945 C   0  0  0  0  0  0  0  0  0  0  0  0
   -1.5608    2.8730   -2.8559 N   0  0  0  0  0  0  0  0  0  0  0  0
   -3.5003   -0.7070   -0.2368 O   0  0  0  0  0  0  0  0  0  0  0  0
  3  1  2  0
  4  1  1  0
  5  2  2  0
  6  2  1  0
  7  3  1  0
  8  4  2  0
  9  5  1  0
 10  6  2  0
 13 11  1  0
 14 12  1  0
 16 11  1  0
 16 12  1  0
 17  7  2  0
 17  8  1  0
 18  9  2  0
 18 10  1  0
 19 15  1  0
 19 16  1  0
 20 17  1  0
 20 18  1  0
 20 19  1  0
 21 13  1  0
 21 14  1  0
 21 15  1  0
 22 20  1  0
M  END
>  <DRUGBANK_ID>  (1) 
DB13713

>  <COMMON_NAME>  (1) 
Quifenadine

>  <CAS_NUMBER>  (1) 
10447-39-9

>  <UNII>  (1) 
W9A18RJ49B

>  <SYNONYMS>  (1) 
Quifenadine

$$$$
