E04
     RDKit          3D

 29 33  0  0  0  0  0  0  0  0999 V2000
    1.0484   -0.0049    0.1420 O   0  0  0  0  0  0  0  0  0  0  0  0
    2.2797    0.0174    0.1484 C   0  0  0  0  0  0  0  0  0  0  0  0
    3.1162    1.2827    0.1530 C   0  0  0  0  0  0  0  0  0  0  0  0
    2.2239    2.5059   -0.0164 C   0  0  0  0  0  0  0  0  0  0  0  0
    3.8829    1.4445    1.4655 C   0  0  0  0  0  0  0  0  0  0  0  0
    4.0964    1.1651   -1.0049 C   0  0  0  0  0  0  0  0  0  0  0  0
    5.0642    0.0227   -0.7160 C   0  0  0  0  0  0  0  0  0  0  0  0
    4.4608   -1.1175    0.1499 C   0  0  2  0  0  0  0  0  0  0  0  0
    2.9985   -1.1223    0.1129 O   0  0  0  0  0  0  0  0  0  0  0  0
    5.0650   -1.5524    1.8597 C   0  0  2  0  0  0  0  0  0  0  0  0
    6.5878   -1.4767    2.3208 C   0  0  0  0  0  0  0  0  0  0  0  0
    4.8248   -2.9360    1.3736 C   0  0  1  0  0  0  0  0  0  0  0  0
    5.7614   -2.9909    0.1651 C   0  0  0  0  0  0  0  0  0  0  0  0
    4.8151   -2.4018   -0.7861 C   0  0  0  0  0  0  0  0  0  0  0  0
    4.8770   -4.1710    2.1394 C   0  0  1  0  0  0  0  0  0  0  0  0
    4.1253   -4.1061    3.4583 C   0  0  2  0  0  0  0  0  0  0  0  0
    4.5963   -2.8506    4.2021 C   0  0  0  0  0  0  0  0  0  0  0  0
    4.3275   -1.5388    3.3188 C   0  0  0  0  0  0  0  0  0  0  0  0
    4.3653   -5.4760    4.0673 C   0  0  0  0  0  0  0  0  0  0  0  0
    4.3701   -5.6694    5.4458 C   0  0  0  0  0  0  0  0  0  0  0  0
    4.6470   -6.9346    5.9678 C   0  0  0  0  0  0  0  0  0  0  0  0
    4.9153   -8.0199    5.1211 C   0  0  0  0  0  0  0  0  0  0  0  0
    5.2051   -9.3508    5.7200 C   0  0  0  0  0  0  0  0  0  0  0  0
    5.2115   -9.5200    6.9164 O   0  0  0  0  0  0  0  0  0  0  0  0
    5.4623  -10.3944    4.8590 N   0  0  0  0  0  0  0  0  0  0  0  0
    4.8925   -7.8376    3.7469 C   0  0  0  0  0  0  0  0  0  0  0  0
    4.5936   -6.5938    3.2130 C   0  0  0  0  0  0  0  0  0  0  0  0
    4.6305   -6.5207    1.7063 C   0  0  0  0  0  0  0  0  0  0  0  0
    4.1761   -5.1904    1.2301 C   0  0  0  0  0  0  0  0  0  0  0  0
  1  2  2  0
  2  3  1  0
  2  9  1  0
  3  4  1  0
  3  5  1  0
  3  6  1  0
  6  7  1  0
  8  7  1  6
  8  9  1  0
  8 10  1  0
  8 14  1  0
 10 11  1  1
 10 12  1  0
 10 18  1  0
 12 13  1  6
 12 15  1  0
 13 14  1  0
 15 16  1  0
 15 29  1  6
 16 17  1  1
 16 19  1  0
 17 18  1  0
 19 20  2  0
 19 27  1  0
 20 21  1  0
 21 22  2  0
 22 23  1  0
 22 26  1  0
 23 24  2  0
 23 25  1  0
 26 27  2  0
 27 28  1  0
 28 29  1  0
M  END
>  <DRUGBANK_ID>  (1) 
DB07700

>  <COMMON_NAME>  (1) 
3-carboxamido-1,3,5(10)-estratrien-17(R)-spiro-2'(5',5'-dimethyl-6'oxo)tetrahydropyran

$$$$
