
     RDKit          3D

 24 26  0  0  1  0  0  0  0  0999 V2000
    2.0482    9.6262   -4.5122 C   0  0  0  0  0  0  0  0  0  0  0  0
    1.4781    8.2969   -4.1150 C   0  0  0  0  0  0  0  0  0  0  0  0
    0.2931    7.8833   -4.5895 C   0  0  0  0  0  0  0  0  0  0  0  0
   -0.3225    6.5901   -4.2478 C   0  0  0  0  0  0  0  0  0  0  0  0
   -1.3934    6.2542   -4.7233 O   0  0  0  0  0  0  0  0  0  0  0  0
    0.3690    5.7919   -3.3622 O   0  0  0  0  0  0  0  0  0  0  0  0
    1.6116    6.1931   -2.8467 C   0  0  0  0  0  0  0  0  0  0  0  0
    2.2163    5.2536   -2.0170 C   0  0  0  0  0  0  0  0  0  0  0  0
    3.4806    5.5033   -1.5333 C   0  0  0  0  0  0  0  0  0  0  0  0
    4.2199    4.5190   -0.9519 O   0  0  0  0  0  0  0  0  0  0  0  0
    3.6513    3.5953    0.0040 C   0  0  2  0  0  0  0  0  0  0  0  0
    2.9846    2.3844   -0.4473 O   0  0  0  0  0  0  0  0  0  0  0  0
    3.0198    1.4079    0.6453 C   0  0  2  0  0  0  0  0  0  0  0  0
    2.5013    0.0248    0.2259 C   0  0  0  0  0  0  0  0  0  0  0  0
    3.2848   -0.4818   -0.8492 O   0  0  0  0  0  0  0  0  0  0  0  0
    2.2390    1.9075    1.8754 C   0  0  1  0  0  0  0  0  0  0  0  0
    2.3508    0.9822    2.9628 O   0  0  0  0  0  0  0  0  0  0  0  0
    2.7264    3.2989    2.3016 C   0  0  2  0  0  0  0  0  0  0  0  0
    1.8725    3.8277    3.3216 O   0  0  0  0  0  0  0  0  0  0  0  0
    2.8054    4.2612    1.1086 C   0  0  1  0  0  0  0  0  0  0  0  0
    3.3535    5.5085    1.5391 O   0  0  0  0  0  0  0  0  0  0  0  0
    4.0893    6.7430   -1.8058 C   0  0  0  0  0  0  0  0  0  0  0  0
    3.4558    7.6929   -2.6332 C   0  0  0  0  0  0  0  0  0  0  0  0
    2.2043    7.4118   -3.1910 C   0  0  0  0  0  0  0  0  0  0  0  0
  1  2  1  0
  2  3  2  0
  2 24  1  0
  3  4  1  0
  4  5  2  0
  4  6  1  0
  6  7  1  0
  7  8  1  0
  7 24  2  0
  8  9  2  0
  9 10  1  0
  9 22  1  0
 11 12  1  0
 11 20  1  0
 11 10  1  6
 12 13  1  0
 13 14  1  6
 13 16  1  0
 14 15  1  0
 16 17  1  1
 16 18  1  0
 18 19  1  1
 18 20  1  0
 20 21  1  1
 22 23  2  0
 23 24  1  0
M  END
>  <DRUGBANK_ID>  (1) 
DB13177

>  <COMMON_NAME>  (1) 
4-methylumbelliferyl beta-D-glucoside

>  <CAS_NUMBER>  (1) 
18997-57-4

>  <SYNONYMS>  (1) 
4-methylumbelliferyl beta-D-glucoside; 4-Methylumbelliferyl glucoside; 4-methylumbelliferyl Î²-D-glucoside; 4-Methylumbelliferyl-beta-D-glucoside; 4-Methylumbelliferyl-beta-glucoside; 7-(beta-D-Glucopyranosyloxy)-4-methyl-2H-1-benzopyran-2-one

$$$$
