
     RDKit          3D

 38 42  0  0  0  0  0  0  0  0999 V2000
    0.9294   -0.0560   -0.0743 C   0  0  0  0  0  0  0  0  0  0  0  0
    0.4733   -1.4744    0.1293 C   0  0  0  0  0  0  0  0  0  0  0  0
   -0.0414   -1.7683    1.3340 C   0  0  0  0  0  0  0  0  0  0  0  0
    0.7644   -2.4556   -0.9988 C   0  0  0  0  0  0  0  0  0  0  0  0
    1.4617   -2.0990   -1.9410 O   0  0  0  0  0  0  0  0  0  0  0  0
    0.3070   -3.7584   -0.9727 N   0  0  0  0  0  0  0  0  0  0  0  0
   -0.6908   -4.3434   -0.1838 C   0  0  0  0  0  0  0  0  0  0  0  0
   -1.8484   -3.6308    0.1347 C   0  0  0  0  0  0  0  0  0  0  0  0
   -2.6758   -4.0709    1.1592 C   0  0  0  0  0  0  0  0  0  0  0  0
   -2.4680   -5.3248    1.7312 C   0  0  0  0  0  0  0  0  0  0  0  0
   -1.4024   -6.1175    1.2855 C   0  0  0  0  0  0  0  0  0  0  0  0
   -0.4804   -5.6088    0.3671 C   0  0  0  0  0  0  0  0  0  0  0  0
   -3.2661   -5.7516    2.8774 C   0  0  0  0  0  0  0  0  0  0  0  0
   -2.8333   -6.1197    4.1462 C   0  0  0  0  0  0  0  0  0  0  0  0
   -1.4464   -6.0829    4.5816 C   0  0  0  0  0  0  0  0  0  0  0  0
   -0.7570   -4.8695    4.5833 C   0  0  0  0  0  0  0  0  0  0  0  0
    0.5316   -4.7869    5.1117 C   0  0  0  0  0  0  0  0  0  0  0  0
    1.1419   -5.9028    5.6902 C   0  0  0  0  0  0  0  0  0  0  0  0
    2.4260   -5.9230    6.2008 O   0  0  0  0  0  0  0  0  0  0  0  0
    3.2016   -4.7766    6.0623 C   0  0  0  0  0  0  0  0  0  0  0  0
    2.8115   -3.6737    6.7297 N   0  0  0  0  0  0  0  0  0  0  0  0
    3.5867   -2.5868    6.5719 C   0  0  0  0  0  0  0  0  0  0  0  0
    4.7303   -2.5705    5.8106 C   0  0  0  0  0  0  0  0  0  0  0  0
    5.0683   -3.7564    5.1893 C   0  0  0  0  0  0  0  0  0  0  0  0
    6.3195   -3.8206    4.3582 C   0  0  0  0  0  0  0  0  0  0  0  0
    4.3123   -4.8755    5.3029 N   0  0  0  0  0  0  0  0  0  0  0  0
    0.4184   -7.1024    5.7273 C   0  0  0  0  0  0  0  0  0  0  0  0
    0.8908   -8.1624    6.4012 F   0  0  0  0  0  0  0  0  0  0  0  0
   -0.8355   -7.2173    5.1214 C   0  0  0  0  0  0  0  0  0  0  0  0
   -3.9804   -6.4190    4.9338 C   0  0  0  0  0  0  0  0  0  0  0  0
   -4.2054   -6.8036    6.2663 C   0  0  0  0  0  0  0  0  0  0  0  0
   -3.1940   -6.9791    7.1823 N   0  0  0  0  0  0  0  0  0  0  0  0
   -5.4680   -7.0286    6.6679 N   0  0  0  0  0  0  0  0  0  0  0  0
   -6.4580   -6.8548    5.7696 C   0  0  0  0  0  0  0  0  0  0  0  0
   -6.3696   -6.4638    4.4817 N   0  0  0  0  0  0  0  0  0  0  0  0
   -5.0911   -6.2573    4.1157 C   0  0  0  0  0  0  0  0  0  0  0  0
   -4.6495   -5.8470    2.8768 N   0  0  0  0  0  0  0  0  0  0  0  0
   -5.4841   -5.5909    1.7206 C   0  0  0  0  0  0  0  0  0  0  0  0
  1  2  1  0
  2  3  2  0
  2  4  1  0
  4  5  2  0
  4  6  1  0
  6  7  1  0
  7  8  2  0
  7 12  1  0
  8  9  1  0
  9 10  2  0
 10 11  1  0
 10 13  1  0
 11 12  2  0
 13 14  2  0
 13 37  1  0
 14 15  1  0
 14 30  1  0
 15 16  2  0
 15 29  1  0
 16 17  1  0
 17 18  2  0
 18 19  1  0
 18 27  1  0
 19 20  1  0
 20 21  2  0
 20 26  1  0
 21 22  1  0
 22 23  2  0
 23 24  1  0
 24 25  1  0
 24 26  2  0
 27 28  1  0
 27 29  2  0
 30 31  2  0
 30 36  1  0
 31 32  1  0
 31 33  1  0
 33 34  2  0
 34 35  1  0
 35 36  2  0
 36 37  1  0
 37 38  1  0
M  END
>  <DRUGBANK_ID>  (1) 
DB18300

>  <COMMON_NAME>  (1) 
Lirafugratinib

>  <CAS_NUMBER>  (1) 
2549174-42-5

>  <UNII>  (1) 
7HY6IMH87S

>  <SYNONYMS>  (1) 
2-Propenamide, N-[4-[4-amino-5-[3-fluoro-4-[(4-methyl-2-pyrimidinyl)oxy]phenyl]-7-methyl-7H-pyrrolo[2,3-d]pyrimidin-6-yl]phenyl]-2-methyl-; N-(4-(4-amino-5-(3-fluoro-4-((4-methylpyrimidin-2-yl)oxy)phenyl)-7-methyl-7H-pyrrolo[2,3-d]pyrimidin-6-yl)phenyl)methacrylamide; N-[4-(4-amino-5-{3-fluoro-4-[(4-methylpyrimidin-2- yl)oxy]phenyl}-7-methyl-7H-pyrrolo[2,3-d]pyrimidin-6- yl)phenyl]-2-methylprop-2-enamide

$$$$
