295
     RDKit          3D

 21 25  0  0  1  0  0  0  0  0999 V2000
   -6.2991    8.0238    3.3368 O   0  0  0  0  0  0  0  0  0  0  0  0
   -3.0051    9.8185    3.6705 O   0  0  0  0  0  0  0  0  0  0  0  0
   -6.9555    5.3739    1.9921 O   0  0  0  0  0  0  0  0  0  0  0  0
   -6.0828    8.9028    8.8284 N   0  0  0  0  0  0  0  0  0  0  0  0
   -6.3481    8.0866    5.9280 C   0  0  2  0  0  0  0  0  0  0  0  0
   -5.8915    9.6271    6.3058 C   0  0  1  0  0  0  0  0  0  0  0  0
   -5.2561    9.2149    7.5549 C   0  0  2  0  0  0  0  0  0  0  0  0
   -5.7944    8.7397    4.4713 C   0  0  1  0  0  0  0  0  0  0  0  0
   -6.1474    7.0589    7.4734 C   0  0  0  0  0  0  0  0  0  0  0  0
   -5.8022    6.8760    5.1758 C   0  0  0  0  0  0  0  0  0  0  0  0
   -4.0430    7.9646    6.5920 C   0  0  0  0  0  0  0  0  0  0  0  0
   -6.8569    7.6916    8.6652 C   0  0  0  0  0  0  0  0  0  0  0  0
   -4.4358    6.7881    5.2719 C   0  0  0  0  0  0  0  0  0  0  0  0
   -4.2032    9.7517    4.4417 C   0  0  2  0  0  0  0  0  0  0  0  0
   -4.8916   10.8767    6.1665 C   0  0  0  0  0  0  0  0  0  0  0  0
   -6.4627    6.6557    3.9293 C   0  0  0  0  0  0  0  0  0  0  0  0
   -4.5063   11.1131    4.9613 C   0  0  0  0  0  0  0  0  0  0  0  0
   -6.8657    9.9712    9.5712 C   0  0  0  0  0  0  0  0  0  0  0  0
   -3.8536    6.3607    3.9311 C   0  0  0  0  0  0  0  0  0  0  0  0
   -6.0485    5.8377    2.8939 C   0  0  0  0  0  0  0  0  0  0  0  0
   -4.6781    5.8054    2.7928 C   0  0  0  0  0  0  0  0  0  0  0  0
  8  1  1  6
  1 16  1  0
  3 20  1  0
  4  7  1  0
  4 12  1  0
  4 18  1  0
  5  6  1  0
  5  8  1  0
  5  9  1  1
  5 10  1  0
  6  7  1  0
  6 15  1  6
  7 11  1  6
  8 14  1  0
  9 12  1  0
 10 13  2  0
 10 16  1  0
 11 13  1  0
 13 19  1  0
 14 17  1  0
 14  2  1  6
 15 17  2  0
 16 20  2  0
 19 21  2  0
 20 21  1  0
M  END
>  <DRUGBANK_ID>  (1) 
DB00295

>  <SECONDARY_ACCESSION_NUMBERS>  (1) 
APRD00215; DB05354

>  <COMMON_NAME>  (1) 
Morphine

>  <CAS_NUMBER>  (1) 
57-27-2

>  <UNII>  (1) 
76I7G6D29C

>  <SYNONYMS>  (1) 
(−)-morphine; (5alpha,6alpha)-17-methyl-7,8-didehydro-4,5-epoxymorphinan-3,6-diol; (5alpha,6alpha)-didehydro-4,5-epoxy-17-methylmorphinan-3,6-diol; (5R,6S,9R,13S,14R)-4,5-epoxy-N-methyl-7-morphinen-3,6-diol; (5α,6α)-17-methyl-7,8-didehydro-4,5-epoxymorphinan-3,6-diol; (5α,6α)-didehydro-4,5-epoxy-17-methylmorphinan-3,6-diol; (7R,7AS,12bs)-3-methyl-2,3,4,4a,7,7a-hexahydro-1H-4,12-methano[1]benzofuro[3,2-e]isoquinoline-7,9-diol; Anhydrous morphine; Morfina; Morphia; Morphin; Morphine; Morphinum; Morphium

$$$$
