1100
     RDKit          3D

 34 38  0  0  0  0  0  0  0  0999 V2000
    2.2606    0.0504   -0.0391 F   0  0  0  0  0  0  0  0  0  0  0  0
   -5.5050   -2.2049    4.9813 F   0  0  0  0  0  0  0  0  0  0  0  0
  -10.0244   -4.8325    0.1148 O   0  0  0  0  0  0  0  0  0  0  0  0
   -5.5051   -3.0556   -0.4309 N   0  0  0  0  0  0  0  0  0  0  0  0
   -9.6491   -2.8841   -1.1790 N   0  0  0  0  0  0  0  0  0  0  0  0
  -11.7031   -3.3742   -0.4416 N   0  0  0  0  0  0  0  0  0  0  0  0
   -8.2316   -2.9393   -1.3615 C   0  0  0  0  0  0  0  0  0  0  0  0
   -7.6278   -1.7389   -0.7137 C   0  0  0  0  0  0  0  0  0  0  0  0
   -7.5544   -4.2095   -0.7901 C   0  0  0  0  0  0  0  0  0  0  0  0
   -6.1784   -1.8636   -1.0165 C   0  0  0  0  0  0  0  0  0  0  0  0
   -6.0502   -4.2709   -0.9617 C   0  0  0  0  0  0  0  0  0  0  0  0
   -4.0253   -3.0813   -0.4098 C   0  0  0  0  0  0  0  0  0  0  0  0
   -3.4566   -2.1566   -1.4737 C   0  0  0  0  0  0  0  0  0  0  0  0
  -10.5051   -1.8373   -1.5841 C   0  0  0  0  0  0  0  0  0  0  0  0
   -3.6822   -0.6193   -1.2601 C   0  0  0  0  0  0  0  0  0  0  0  0
  -10.3868   -3.8293   -0.4322 C   0  0  0  0  0  0  0  0  0  0  0  0
   -3.3407    0.0601    0.1538 C   0  0  0  0  0  0  0  0  0  0  0  0
  -11.7780   -2.1771   -1.1304 C   0  0  0  0  0  0  0  0  0  0  0  0
  -10.2958   -0.6549   -2.2764 C   0  0  0  0  0  0  0  0  0  0  0  0
   -1.8320    0.0640    0.1502 C   0  0  0  0  0  0  0  0  0  0  0  0
   -3.8893   -0.3529    1.5461 C   0  0  0  0  0  0  0  0  0  0  0  0
  -12.8850   -1.4043   -1.3677 C   0  0  0  0  0  0  0  0  0  0  0  0
  -11.4093    0.1623   -2.5169 C   0  0  0  0  0  0  0  0  0  0  0  0
  -12.6920   -0.2183   -2.0770 C   0  0  0  0  0  0  0  0  0  0  0  0
   -1.1526    1.2728    0.0371 C   0  0  0  0  0  0  0  0  0  0  0  0
   -3.4699    0.0261    2.7970 C   0  0  0  0  0  0  0  0  0  0  0  0
   -1.1118   -1.1432    0.1996 C   0  0  0  0  0  0  0  0  0  0  0  0
   -4.9198   -1.2506    1.6515 C   0  0  0  0  0  0  0  0  0  0  0  0
    0.2342    1.2607   -0.0082 C   0  0  0  0  0  0  0  0  0  0  0  0
   -4.0431   -0.5876    3.9599 C   0  0  0  0  0  0  0  0  0  0  0  0
    0.2613   -1.1600    0.0715 C   0  0  0  0  0  0  0  0  0  0  0  0
   -5.4649   -1.9778    2.6890 C   0  0  0  0  0  0  0  0  0  0  0  0
    0.9245    0.0493   -0.0017 C   0  0  0  0  0  0  0  0  0  0  0  0
   -5.0098   -1.6054    3.8953 C   0  0  0  0  0  0  0  0  0  0  0  0
  1 33  1  0
  2 34  1  0
  3 16  2  0
  4 10  1  0
  4 11  1  0
  4 12  1  0
  5  7  1  0
  5 14  1  0
  5 16  1  0
  6 16  1  0
  6 18  1  0
  7  8  1  0
  7  9  1  0
  8 10  1  0
  9 11  1  0
 12 13  1  0
 13 15  1  0
 14 18  2  0
 14 19  1  0
 15 17  1  0
 17 20  1  0
 17 21  1  0
 18 22  1  0
 19 23  2  0
 20 25  2  0
 20 27  1  0
 21 26  2  0
 21 28  1  0
 22 24  2  0
 23 24  1  0
 25 29  1  0
 26 30  1  0
 27 31  2  0
 28 32  2  0
 29 33  2  0
 30 34  2  0
 31 33  1  0
 32 34  1  0
M  END
>  <DRUGBANK_ID>  (1) 
DB01100

>  <SECONDARY_ACCESSION_NUMBERS>  (1) 
APRD00218

>  <COMMON_NAME>  (1) 
Pimozide

>  <CAS_NUMBER>  (1) 
2062-78-4

>  <UNII>  (1) 
1HIZ4DL86F

>  <SYNONYMS>  (1) 
Pimozida; Pimozide; Pimozidum

$$$$
