
     RDKit          3D

 17 16  0  0  0  0  0  0  0  0999 V2000
    0.9403    0.0060   -0.0434 C   0  0  0  0  0  0  0  0  0  0  0  0
    0.3927   -1.4063    0.0635 C   0  0  0  0  0  0  0  0  0  0  0  0
    0.8187   -2.0222    1.3191 N   0  0  0  0  0  0  0  0  0  0  0  0
    0.3749   -3.4169    1.4297 C   0  0  0  0  0  0  0  0  0  0  0  0
    0.9207   -4.3654    0.3488 C   0  0  0  0  0  0  0  0  0  0  0  0
    2.4479   -4.3964    0.2526 C   0  0  0  0  0  0  0  0  0  0  0  0
    3.0365   -4.9427    1.4751 N   0  0  0  0  0  0  0  0  0  0  0  0
    4.4999   -4.8616    1.4854 C   0  0  0  0  0  0  0  0  0  0  0  0
    5.0741   -3.4360    1.4555 C   0  0  0  0  0  0  0  0  0  0  0  0
    4.5829   -2.5297    2.5855 C   0  0  0  0  0  0  0  0  0  0  0  0
    5.0103   -3.0120    3.8966 N   0  0  0  0  0  0  0  0  0  0  0  0
    4.4398   -2.2183    4.9907 C   0  0  0  0  0  0  0  0  0  0  0  0
    2.9076   -2.2759    5.1104 C   0  0  0  0  0  0  0  0  0  0  0  0
    2.3418   -3.6915    5.2333 C   0  0  0  0  0  0  0  0  0  0  0  0
    2.8392   -4.3717    6.4277 N   0  0  0  0  0  0  0  0  0  0  0  0
    2.3728   -5.7546    6.5198 C   0  0  0  0  0  0  0  0  0  0  0  0
    2.9075   -6.6453    5.4047 C   0  0  0  0  0  0  0  0  0  0  0  0
  1  2  1  0
  2  3  1  0
  3  4  1  0
  4  5  1  0
  5  6  1  0
  6  7  1  0
  7  8  1  0
  8  9  1  0
  9 10  1  0
 10 11  1  0
 11 12  1  0
 12 13  1  0
 13 14  1  0
 14 15  1  0
 15 16  1  0
 16 17  1  0
M  END
>  <DRUGBANK_ID>  (1) 
DB06445

>  <COMMON_NAME>  (1) 
Diethylnorspermine

>  <CAS_NUMBER>  (1) 
121749-39-1

>  <UNII>  (1) 
HLI827Z1ST

>  <SYNONYMS>  (1) 
1,3-PROPANEDIAMINE, N,N'-BIS(3-(ETHYLAMINO)PROPYL)-; DENSPM; N(1),N(11)-Diethylnorspermine; N1,N11-Diethylnorspermine

$$$$
