
     RDKit          3D

 17 17  0  0  1  0  0  0  0  0999 V2000
   -1.1673    0.6436    0.3282 C   0  0  1  0  0  0  0  0  0  0  0  0
   -0.8609   -0.7490   -0.2307 C   0  0  1  0  0  0  0  0  0  0  0  0
   -0.0577    1.6492   -0.0500 C   0  0  2  0  0  0  0  0  0  0  0  0
    0.5947   -1.1920   -0.0544 C   0  0  2  0  0  0  0  0  0  0  0  0
   -0.1343    1.9854   -1.5622 C   0  0  0  0  0  0  0  0  0  0  0  0
    1.5791   -0.0299   -0.3075 C   0  0  2  0  0  0  0  0  0  0  0  0
   -2.4380    1.1022   -0.1480 O   0  0  0  0  0  0  0  0  0  0  0  0
   -1.7535   -1.7699    0.2373 O   0  0  0  0  0  0  0  0  0  0  0  0
    0.1552    3.2537   -1.9026 O   0  0  0  0  0  0  0  0  0  0  0  0
   -0.4542    1.1635   -2.4108 O   0  0  0  0  0  0  0  0  0  0  0  0
    2.9081   -0.3740    0.0438 O   0  0  0  0  0  0  0  0  0  0  0  0
   -0.6493   -1.9389   -2.8947 O   0  0  0  0  0  0  0  0  0  0  0  0
    1.7199   -1.2529   -2.9320 O   0  0  0  0  0  0  0  0  0  0  0  0
    1.0524   -3.6756   -2.9478 O   0  0  0  0  0  0  0  0  0  0  0  0
    1.2028    1.1523    0.4019 O   0  0  0  0  0  0  0  0  0  0  0  0
    0.8463   -2.3595   -0.8503 O   0  0  0  0  0  0  0  0  0  0  0  0
    0.8621   -2.3167   -2.4855 S   0  0  0  0  0  0  0  0  0  0  0  0
  1  7  1  6
  2  1  1  0
  2  8  1  1
  3  1  1  0
  3  5  1  6
  4  2  1  0
  4 16  1  6
  6  4  1  0
  6 11  1  1
  9  5  1  0
 10  5  2  0
 15  3  1  0
 15  6  1  0
 17 12  1  0
 17 13  2  0
 17 14  2  0
 17 16  1  0
M  END
>  <DRUGBANK_ID>  (1) 
DB02264

>  <SECONDARY_ACCESSION_NUMBERS>  (1) 
EXPT01843

>  <COMMON_NAME>  (1) 
O2-Sulfo-Glucuronic Acid

$$$$
