
     RDKit          3D

 16 17  0  0  0  0  0  0  0  0999 V2000
    1.1022    0.0706   -0.0445 C   0  0  0  0  0  0  0  0  0  0  0  0
    0.6214   -0.2508   -1.4499 C   0  0  0  0  0  0  0  0  0  0  0  0
   -2.1039   -3.4502   -5.2104 C   0  0  0  0  0  0  0  0  0  0  0  0
   -2.1014   -2.1489   -4.7196 C   0  0  0  0  0  0  0  0  0  0  0  0
   -2.0230   -4.5203   -4.3267 C   0  0  0  0  0  0  0  0  0  0  0  0
    0.5560   -5.8543   -0.0670 C   0  0  0  0  0  0  0  0  0  0  0  0
    1.9098   -5.4505    0.4716 C   0  0  0  0  0  0  0  0  0  0  0  0
    1.0547   -1.6508   -1.9053 C   0  0  0  0  0  0  0  0  0  0  0  0
   -1.8802   -1.9115   -3.3651 C   0  0  0  0  0  0  0  0  0  0  0  0
   -1.9837   -4.2685   -2.9653 C   0  0  0  0  0  0  0  0  0  0  0  0
    0.6600   -5.3420   -1.4774 C   0  0  0  0  0  0  0  0  0  0  0  0
    2.3036   -4.2052   -0.3298 C   0  0  0  0  0  0  0  0  0  0  0  0
   -1.1260   -2.8239   -1.1148 C   0  0  0  0  0  0  0  0  0  0  0  0
   -1.7236   -2.9897   -2.4871 C   0  0  0  0  0  0  0  0  0  0  0  0
    0.4406   -2.8147   -1.0650 C   0  0  0  0  0  0  0  0  0  0  0  0
    1.2646   -4.0194   -1.3704 N   0  0  0  0  0  0  0  0  0  0  0  0
  2  1  1  0
  4  3  2  0
  5  3  1  0
  7  6  1  0
  8  2  1  0
  9  4  1  0
 10  5  2  0
 11  6  1  0
 12  7  1  0
 14  9  2  0
 14 10  1  0
 14 13  1  0
 15  8  1  0
 15 13  1  0
 16 11  1  0
 16 12  1  0
 16 15  1  0
M  END
>  <DRUGBANK_ID>  (1) 
DB13438

>  <COMMON_NAME>  (1) 
Prolintane

>  <CAS_NUMBER>  (1) 
493-92-5

>  <UNII>  (1) 
EM4YZW677H

>  <SYNONYMS>  (1) 
Prolintane

$$$$
