
     RDKit          3D

 27 26  0  0  1  0  0  0  0  0999 V2000
    2.8054    1.4524   11.7179 C   0  0  0  0  0  0  0  0  0  0  0  0
    2.4804    0.6461   10.5513 C   0  0  0  0  0  0  0  0  0  0  0  0
    2.8585    0.9300    9.4014 O   0  0  0  0  0  0  0  0  0  0  0  0
    1.7110   -0.3950   10.8854 O   0  0  0  0  0  0  0  0  0  0  0  0
    1.3337   -1.0759    9.7089 C   0  0  0  0  0  0  0  0  0  0  0  0
    0.2501   -0.1932    8.8919 C   0  0  0  0  0  0  0  0  0  0  0  0
    0.7625    0.8067    8.0203 N   0  0  0  0  0  0  0  0  0  0  0  0
    0.8379    0.7747    6.6699 C   0  0  0  0  0  0  0  0  0  0  0  0
    1.4355    1.6782    6.0913 O   0  0  0  0  0  0  0  0  0  0  0  0
    0.1590   -0.3459    5.9076 C   0  0  0  0  0  0  0  0  0  0  0  0
    0.8535   -1.7018    6.0113 C   0  0  0  0  0  0  0  0  0  0  0  0
    0.6139   -2.4667    7.2171 N   0  0  0  0  0  0  0  0  0  0  0  0
   -0.0875   -3.5503    7.6071 C   0  0  0  0  0  0  0  0  0  0  0  0
   -0.0828   -3.8586    8.8022 O   0  0  0  0  0  0  0  0  0  0  0  0
   -0.8419   -4.3889    6.6164 C   0  0  2  0  0  0  0  0  0  0  0  0
   -0.4014   -4.2570    5.2732 O   0  0  0  0  0  0  0  0  0  0  0  0
   -2.3790   -4.2864    6.7721 C   0  0  0  0  0  0  0  0  0  0  0  0
   -2.9639   -5.1116    5.6135 C   0  0  0  0  0  0  0  0  0  0  0  0
   -2.8294   -4.9862    8.0687 C   0  0  0  0  0  0  0  0  0  0  0  0
   -2.9252   -2.8230    6.7416 C   0  0  0  0  0  0  0  0  0  0  0  0
   -2.5284   -2.0216    7.8976 O   0  0  0  0  0  0  0  0  0  0  0  0
   -3.2101   -2.1999    9.0810 C   0  0  0  0  0  0  0  0  0  0  0  0
   -4.2125   -2.8955    9.1902 O   0  0  0  0  0  0  0  0  0  0  0  0
   -2.6372   -1.4330   10.2784 C   0  0  0  0  0  0  0  0  0  0  0  0
   -1.2021   -1.7552   10.5255 C   0  0  0  0  0  0  0  0  0  0  0  0
   -2.9253    0.0518   10.0181 C   0  0  0  0  0  0  0  0  0  0  0  0
   -3.1414   -1.9247   11.6222 C   0  0  0  0  0  0  0  0  0  0  0  0
  1  2  1  0
  2  3  2  0
  2  4  1  0
  4  5  1  0
  5  6  1  0
  6  7  1  0
  7  8  1  0
  8  9  2  0
  8 10  1  0
 10 11  1  0
 11 12  1  0
 12 13  1  0
 13 14  2  0
 15 17  1  0
 15 16  1  6
 15 13  1  0
 17 18  1  0
 17 19  1  0
 17 20  1  0
 20 21  1  0
 21 22  1  0
 22 23  2  0
 22 24  1  0
 24 25  1  0
 24 26  1  0
 24 27  1  0
M  END
>  <DRUGBANK_ID>  (1) 
DB03045

>  <SECONDARY_ACCESSION_NUMBERS>  (1) 
EXPT00046

>  <COMMON_NAME>  (1) 
Pantothenyl-Aminoethanol-Acetate Pivalic Acid

$$$$
