
     RDKit          3D

 29 31  0  0  0  0  0  0  0  0999 V2000
    1.0855    0.0709   -0.5966 C   0  0  0  0  0  0  0  0  0  0  0  0
    0.2763   -1.2705   -0.5842 C   0  0  0  0  0  0  0  0  0  0  0  0
    0.4729    1.2052   -0.0735 N   0  0  0  0  0  0  0  0  0  0  0  0
   -0.6044   -1.7432    0.5969 C   0  0  0  0  0  0  0  0  0  0  0  0
   -1.6788   -0.7293    0.9988 C   0  0  0  0  0  0  0  0  0  0  0  0
   -2.5386   -0.4600   -0.2028 C   0  0  0  0  0  0  0  0  0  0  0  0
   -3.3854   -1.6567   -0.5306 C   0  0  0  0  0  0  0  0  0  0  0  0
   -4.2395   -2.0225    0.6850 C   0  0  0  0  0  0  0  0  0  0  0  0
   -5.1737   -0.8821    1.0656 C   0  0  0  0  0  0  0  0  0  0  0  0
   -3.6435    4.5450   -0.2461 C   0  0  0  0  0  0  0  0  0  0  0  0
   -3.1782    3.2546   -0.3259 C   0  0  0  0  0  0  0  0  0  0  0  0
   -3.9734    2.1586   -0.2477 O   0  0  0  0  0  0  0  0  0  0  0  0
   -5.3385    2.4320   -0.4888 C   0  0  0  0  0  0  0  0  0  0  0  0
   -5.7423    3.6797    0.2644 C   0  0  0  0  0  0  0  0  0  0  0  0
   -4.9768    4.8295   -0.1362 O   0  0  0  0  0  0  0  0  0  0  0  0
   -2.7243    5.5858   -0.3373 C   0  0  0  0  0  0  0  0  0  0  0  0
   -1.3442    5.3278   -0.4322 C   0  0  0  0  0  0  0  0  0  0  0  0
   -0.8605    4.0202   -0.4801 C   0  0  0  0  0  0  0  0  0  0  0  0
   -1.8257    3.0114   -0.5011 C   0  0  0  0  0  0  0  0  0  0  0  0
    0.6269    3.6920   -0.5522 C   0  0  2  0  0  0  0  0  0  0  0  0
    1.0765    2.5123    0.3721 C   0  0  1  0  0  0  0  0  0  0  0  0
    0.7653    2.9024    1.9109 C   0  0  0  0  0  0  0  0  0  0  0  0
    1.4244    4.8470   -0.2447 O   0  0  0  0  0  0  0  0  0  0  0  0
    2.2252    0.0864   -1.0110 O   0  0  0  0  0  0  0  0  0  0  0  0
    1.2075    2.0929    3.0822 N   0  0  0  0  0  0  0  0  0  0  0  0
    2.5299    1.4572    2.8715 C   0  0  0  0  0  0  0  0  0  0  0  0
    0.2564    1.0289    3.3997 C   0  0  0  0  0  0  0  0  0  0  0  0
    2.1903    0.1816    2.1915 C   0  0  0  0  0  0  0  0  0  0  0  0
    0.8935   -0.2050    2.8248 C   0  0  0  0  0  0  0  0  0  0  0  0
  1  2  1  0
  1  3  1  0
  1 24  2  0
  2  4  1  0
  4  5  1  0
  5  6  1  0
  6  7  1  0
  7  8  1  0
  8  9  1  0
 10 11  2  0
 10 15  1  0
 10 16  1  0
 11 12  1  0
 11 19  1  0
 12 13  1  0
 13 14  1  0
 14 15  1  0
 16 17  2  0
 17 18  1  0
 18 19  2  0
 18 20  1  0
 20 21  1  0
 20 23  1  1
 21  3  1  0
 21 22  1  1
 22 25  1  0
 26 25  1  0
 27 25  1  0
 28 26  1  0
 29 27  1  0
 29 28  1  0
M  END
>  <DRUGBANK_ID>  (1) 
DB09039

>  <SECONDARY_ACCESSION_NUMBERS>  (1) 
DB05715

>  <COMMON_NAME>  (1) 
Eliglustat

>  <CAS_NUMBER>  (1) 
491833-29-5

>  <UNII>  (1) 
DR40J4WA67

>  <SYNONYMS>  (1) 
Eliglustat; Ã©liglustat; Eliglustatum; N-[(1R,2R)-1-(2,3-Dihydro-1,4-benzodioxin-6-yl)-1-hydroxy-3-(1-pyrrolidinyl)-2-propanyl]octanamide

$$$$
