
     RDKit          3D

 32 34  0  0  1  0  0  0  0  0999 V2000
   -6.8803   -4.8339    0.0804 C   0  0  2  0  0  0  0  0  0  0  0  0
   -7.0866   -6.3158    0.5038 C   0  0  2  0  0  0  0  0  0  0  0  0
   -7.3272   -6.4422    2.0237 C   0  0  1  0  0  0  0  0  0  0  0  0
   -6.1214   -5.8402    2.7569 C   0  0  2  0  0  0  0  0  0  0  0  0
   -5.9215   -4.3682    2.2771 C   0  0  2  0  0  0  0  0  0  0  0  0
   -5.9773   -4.0957    0.8881 O   0  0  0  0  0  0  0  0  0  0  0  0
   -8.1896   -4.0419   -0.0610 C   0  0  0  0  0  0  0  0  0  0  0  0
   -8.3073   -2.8770    0.7498 O   0  0  0  0  0  0  0  0  0  0  0  0
   -5.9653   -7.1541    0.1492 O   0  0  0  0  0  0  0  0  0  0  0  0
   -8.6051   -5.8702    2.4607 N   0  0  0  0  0  0  0  0  0  0  0  0
   -5.0007   -6.7401    2.6091 O   0  0  0  0  0  0  0  0  0  0  0  0
   -4.8005   -3.7128    2.8202 O   0  0  0  0  0  0  0  0  0  0  0  0
   -3.5687   -4.3878    2.6114 C   0  0  1  0  0  0  0  0  0  0  0  0
   -3.1185   -4.4551    1.1258 C   0  0  1  0  0  0  0  0  0  0  0  0
   -1.7380   -5.0707    0.9592 C   0  0  0  0  0  0  0  0  0  0  0  0
   -0.7384   -4.3224    1.7869 C   0  0  1  0  0  0  0  0  0  0  0  0
   -1.2119   -4.2738    3.2453 C   0  0  2  0  0  0  0  0  0  0  0  0
   -2.5825   -3.6550    3.4719 C   0  0  2  0  0  0  0  0  0  0  0  0
   -3.9213   -5.3768    0.3196 N   0  0  0  0  0  0  0  0  0  0  0  0
    0.5687   -4.9903    1.6666 N   0  0  0  0  0  0  0  0  0  0  0  0
   -2.9678   -3.7990    4.8614 O   0  0  0  0  0  0  0  0  0  0  0  0
   -0.2809   -3.6217    4.0598 O   0  0  0  0  0  0  0  0  0  0  0  0
    0.0443   -2.2771    3.7066 C   0  0  1  0  0  0  0  0  0  0  0  0
   -1.0367   -1.3460    3.6520 O   0  0  0  0  0  0  0  0  0  0  0  0
   -0.6600    0.0296    3.4236 C   0  0  1  0  0  0  0  0  0  0  0  0
    0.3643    0.4900    4.4813 C   0  0  2  0  0  0  0  0  0  0  0  0
    1.5206   -0.5071    4.5756 C   0  0  0  0  0  0  0  0  0  0  0  0
    1.0237   -1.9187    4.8199 C   0  0  1  0  0  0  0  0  0  0  0  0
   -0.1072    0.2460    1.9926 C   0  0  0  0  0  0  0  0  0  0  0  0
   -1.1062    0.0144    0.9535 N   0  0  0  0  0  0  0  0  0  0  0  0
   -0.2919    0.5999    5.7484 O   0  0  0  0  0  0  0  0  0  0  0  0
    0.3755   -2.0845    6.1398 N   0  0  0  0  0  0  0  0  0  0  0  0
  1  2  1  0
  1  6  1  0
  1  7  1  1
  2  3  1  0
  2  9  1  1
  3  4  1  0
  3 10  1  1
  4  5  1  0
  4 11  1  6
  5  6  1  0
  5 12  1  6
  7  8  1  0
 13 14  1  0
 13 18  1  0
 13 12  1  6
 14 15  1  0
 14 19  1  6
 15 16  1  0
 16 17  1  0
 16 20  1  1
 17 18  1  0
 17 22  1  1
 18 21  1  1
 23 24  1  0
 23 28  1  0
 23 22  1  1
 24 25  1  0
 25 26  1  0
 25 29  1  6
 26 27  1  0
 26 31  1  1
 27 28  1  0
 28 32  1  1
 29 30  1  0
M  END
>  <DRUGBANK_ID>  (1) 
DB00684

>  <SECONDARY_ACCESSION_NUMBERS>  (1) 
APRD00582

>  <COMMON_NAME>  (1) 
Tobramycin

>  <CAS_NUMBER>  (1) 
32986-56-4

>  <UNII>  (1) 
VZ8RRZ51VK

>  <SYNONYMS>  (1) 
3'-Deoxykanamycin B; Nebramycin 6; O-3-Amino-3-deoxy-alpha-D-glucopyranosyl-(1-4)-O-(2,6-diamino-2,3,6-trideoxy-alpha-D-ribohexopyranosyl-(1-4))-2-deoxy-D-streptamine; Tobramicina; Tobramycin; Tobramycine; Tobramycinum

$$$$
