B2Y
     RDKit          3D

 14 15  0  0  0  0  0  0  0  0999 V2000
    1.2165    0.2658    0.2646 N   0  0  0  0  0  0  0  0  0  0  0  0
    1.2308    2.3661   -2.8135 C   0  0  0  0  0  0  0  0  0  0  0  0
    1.4878    2.4238   -4.1845 C   0  0  0  0  0  0  0  0  0  0  0  0
    1.5914    1.2540   -4.9203 C   0  0  0  0  0  0  0  0  0  0  0  0
    1.4908    0.0276   -4.2704 C   0  0  0  0  0  0  0  0  0  0  0  0
    1.2903   -0.0550   -2.8758 C   0  0  0  0  0  0  0  0  0  0  0  0
    2.7333   -1.9605   -2.2588 C   0  0  0  0  0  0  0  0  0  0  0  0
    0.6580   -3.2182   -0.9035 C   0  0  0  0  0  0  0  0  0  0  0  0
    0.6569    1.2227   -0.6786 C   0  0  0  0  0  0  0  0  0  0  0  0
    1.1015    1.1344   -2.1312 C   0  0  0  0  0  0  0  0  0  0  0  0
    1.4507   -1.3800   -2.2643 C   0  0  0  0  0  0  0  0  0  0  0  0
    2.9735   -3.1590   -1.5908 C   0  0  0  0  0  0  0  0  0  0  0  0
    1.9341   -3.7823   -0.9100 C   0  0  0  0  0  0  0  0  0  0  0  0
    0.4042   -2.0453   -1.6201 C   0  0  0  0  0  0  0  0  0  0  0  0
  1  9  1  0
  2  3  2  0
  2 10  1  0
  3  4  1  0
  4  5  2  0
  5  6  1  0
  6 10  2  0
  6 11  1  0
  7 11  2  0
  7 12  1  0
  8 13  1  0
  8 14  2  0
  9 10  1  0
 11 14  1  0
 12 13  2  0
M  END
>  <DRUGBANK_ID>  (1) 
DB07412

>  <COMMON_NAME>  (1) 
1-biphenyl-2-ylmethanamine

$$$$
