DTC
     RDKit          3D

 25 28  0  0  0  0  0  0  0  0999 V2000
    0.7682   -1.3640   -0.3927 O   0  0  0  0  0  0  0  0  0  0  0  0
   -0.4814   -0.7961   -0.1861 C   0  0  0  0  0  0  0  0  0  0  0  0
   -0.6922    0.5824   -0.0781 C   0  0  0  0  0  0  0  0  0  0  0  0
    0.4880    1.4832   -0.0901 C   0  0  0  0  0  0  0  0  0  0  0  0
    0.3633    2.6892    0.0787 O   0  0  0  0  0  0  0  0  0  0  0  0
    1.8096    0.7924   -0.3746 C   0  0  1  0  0  0  0  0  0  0  0  0
    3.0418    1.5531    0.1662 C   0  0  0  0  0  0  0  0  0  0  0  0
    1.6959   -0.5847    0.2357 C   0  0  0  0  0  0  0  0  0  0  0  0
    2.3371   -0.9957    1.1905 O   0  0  0  0  0  0  0  0  0  0  0  0
   -1.9908    1.0696    0.0470 C   0  0  0  0  0  0  0  0  0  0  0  0
   -3.0615    0.1689    0.0731 C   0  0  0  0  0  0  0  0  0  0  0  0
   -2.8350   -1.2100    0.0177 C   0  0  0  0  0  0  0  0  0  0  0  0
   -1.5390   -1.6968   -0.1044 C   0  0  0  0  0  0  0  0  0  0  0  0
    4.3888   -2.7743   -0.0621 C   0  0  0  0  0  0  0  0  0  0  0  0
    4.5615   -1.4875   -0.5844 C   0  0  0  0  0  0  0  0  0  0  0  0
    4.3175   -1.2551   -1.9286 C   0  0  0  0  0  0  0  0  0  0  0  0
    3.9314   -2.2931   -2.7767 C   0  0  0  0  0  0  0  0  0  0  0  0
    3.7588   -3.5767   -2.2582 C   0  0  0  0  0  0  0  0  0  0  0  0
    3.9747   -3.8149   -0.8995 C   0  0  0  0  0  0  0  0  0  0  0  0
    4.4261    0.0197   -2.5021 O   0  0  0  0  0  0  0  0  0  0  0  0
    4.6679    1.1539   -1.7427 C   0  0  0  0  0  0  0  0  0  0  0  0
    4.9618    2.2162   -2.2809 O   0  0  0  0  0  0  0  0  0  0  0  0
    4.4433    1.0291   -0.2601 C   0  0  2  0  0  0  0  0  0  0  0  0
    4.8175   -0.3269    0.2902 C   0  0  0  0  0  0  0  0  0  0  0  0
    5.2397   -0.4800    1.4317 O   0  0  0  0  0  0  0  0  0  0  0  0
  1  2  1  0
  1  8  1  0
  2  3  2  0
  2 13  1  0
  3  4  1  0
  3 10  1  0
  4  5  2  0
  4  6  1  0
  6  7  1  1
  6  8  1  0
  8  9  2  0
 10 11  2  0
 11 12  1  0
 12 13  2  0
 14 15  2  0
 14 19  1  0
 15 16  1  0
 15 24  1  0
 16 17  2  0
 16 20  1  0
 17 18  1  0
 18 19  2  0
 20 21  1  0
 21 22  2  0
 21 23  1  0
 23  7  1  6
 23 24  1  0
 24 25  2  0
M  END
>  <DRUGBANK_ID>  (1) 
DB04392

>  <SECONDARY_ACCESSION_NUMBERS>  (1) 
EXPT01281

>  <COMMON_NAME>  (1) 
Bishydroxy[2h-1-Benzopyran-2-One,1,2-Benzopyrone]

$$$$
