
     RDKit          3D

 21 22  0  0  1  0  0  0  0  0999 V2000
   -0.0732   -1.2292    0.5175 C   0  0  0  0  0  0  0  0  0  0  0  0
    2.1072   -3.0640   -0.2829 C   0  0  0  0  0  0  0  0  0  0  0  0
    0.6048    1.6408    1.8087 C   0  0  0  0  0  0  0  0  0  0  0  0
    3.0572   -3.9835   -0.0976 C   0  0  0  0  0  0  0  0  0  0  0  0
   -0.8788    0.0339    0.5292 C   0  0  1  0  0  0  0  0  0  0  0  0
    0.1899    1.1088    0.4337 C   0  0  2  0  0  0  0  0  0  0  0  0
    1.1232   -0.8693   -0.3567 C   0  0  2  0  0  0  0  0  0  0  0  0
    4.3357   -3.5232    0.4904 C   0  0  0  0  0  0  0  0  0  0  0  0
    3.4722   -1.2262    0.4952 C   0  0  0  0  0  0  0  0  0  0  0  0
    2.7646   -5.9334   -0.6132 I   0  0  0  0  0  0  0  0  0  0  0  0
    4.3829   -2.2015    0.8443 N   0  0  0  0  0  0  0  0  0  0  0  0
    2.2808   -1.7101   -0.0371 N   0  0  0  0  0  0  0  0  0  0  0  0
   -1.7398    0.0613   -0.6088 O   0  0  0  0  0  0  0  0  0  0  0  0
    5.3020   -4.2665    0.6595 O   0  0  0  0  0  0  0  0  0  0  0  0
    3.7608   -0.0477    0.6805 O   0  0  0  0  0  0  0  0  0  0  0  0
   -0.9475    4.4456    0.6304 O   0  0  0  0  0  0  0  0  0  0  0  0
    0.9222    4.9869    2.1267 O   0  0  0  0  0  0  0  0  0  0  0  0
    1.1710    5.0355   -0.2181 O   0  0  0  0  0  0  0  0  0  0  0  0
    0.0099    2.9214    2.0023 O   0  0  0  0  0  0  0  0  0  0  0  0
    1.3415    0.5300   -0.2012 O   0  0  0  0  0  0  0  0  0  0  0  0
    0.6226    4.0370    0.8306 P   0  0  0  0  0  0  0  0  0  0  0  0
  4  2  2  0
  5  1  1  0
  5 13  1  6
  6  5  1  0
  6  3  1  1
  7  1  1  0
  7 12  1  1
  8  4  1  0
 10  4  1  0
 11  8  1  0
 11  9  1  0
 12  2  1  0
 12  9  1  0
 14  8  2  0
 15  9  2  0
 19  3  1  0
 20  6  1  0
 20  7  1  0
 21 16  1  0
 21 17  1  0
 21 18  2  0
 21 19  1  0
M  END
>  <DRUGBANK_ID>  (1) 
DB02324

>  <SECONDARY_ACCESSION_NUMBERS>  (1) 
EXPT00249

>  <COMMON_NAME>  (1) 
5-Iodo-2'-Deoxyuridine-5'-Monophosphate

$$$$
