
     RDKit          3D

 37 40  0  0  1  0  0  0  0  0999 V2000
   -2.4823    0.6819   -0.1784 C   0  0  0  0  0  0  0  0  0  0  0  0
   -1.3267    1.4091    0.0636 C   0  0  0  0  0  0  0  0  0  0  0  0
   -0.0933    0.7558    0.0938 C   0  0  0  0  0  0  0  0  0  0  0  0
    1.1344    1.4935    0.2274 C   0  0  0  0  0  0  0  0  0  0  0  0
    2.4270    0.8055   -0.0190 C   0  0  0  0  0  0  0  0  0  0  0  0
    2.4036   -0.5444   -0.1059 C   0  0  0  0  0  0  0  0  0  0  0  0
    3.6978   -1.4123   -0.1886 C   0  0  1  0  0  0  0  0  0  0  0  0
    4.2793   -1.9526    1.2252 C   0  0  0  0  0  0  0  0  0  0  0  0
    3.4020   -2.8683    2.0307 C   0  0  0  0  0  0  0  0  0  0  0  0
    5.5506   -2.7686    0.9996 C   0  0  0  0  0  0  0  0  0  0  0  0
    3.7160   -2.3117   -1.4341 N   0  0  0  0  0  0  0  0  0  0  0  0
    4.6785   -1.9604   -2.4411 C   0  0  0  0  0  0  0  0  0  0  0  0
    4.7113   -2.6916   -3.7422 C   0  0  0  0  0  0  0  0  0  0  0  0
    3.5420   -2.9297   -4.4699 C   0  0  0  0  0  0  0  0  0  0  0  0
    3.5129   -3.9507   -5.4154 C   0  0  0  0  0  0  0  0  0  0  0  0
    4.7038   -4.5309   -5.8499 C   0  0  0  0  0  0  0  0  0  0  0  0
    5.9156   -4.0747   -5.3164 C   0  0  0  0  0  0  0  0  0  0  0  0
    5.9187   -3.2147   -4.2124 C   0  0  0  0  0  0  0  0  0  0  0  0
    4.6542   -5.6354   -6.8615 C   0  0  0  0  0  0  0  0  0  0  0  0
    5.5495   -1.0967   -2.2805 O   0  0  0  0  0  0  0  0  0  0  0  0
    2.6605   -3.3557   -1.7152 C   0  0  0  0  0  0  0  0  0  0  0  0
    2.5553   -4.6036   -0.8330 C   0  0  0  0  0  0  0  0  0  0  0  0
    1.8262   -4.2647    0.4222 C   0  0  0  0  0  0  0  0  0  0  0  0
    0.5313   -3.6938    0.6529 N   0  0  0  0  0  0  0  0  0  0  0  0
    1.1981   -1.2556   -0.0698 O   0  0  0  0  0  0  0  0  0  0  0  0
   -0.0139   -0.6105    0.0108 C   0  0  0  0  0  0  0  0  0  0  0  0
   -1.2131   -1.3384    0.0429 C   0  0  0  0  0  0  0  0  0  0  0  0
   -2.4377   -0.6956   -0.0752 C   0  0  0  0  0  0  0  0  0  0  0  0
   -3.8909   -1.6108   -0.0525 Cl  0  0  0  0  0  0  0  0  0  0  0  0
    3.6499    1.6849   -0.0919 C   0  0  0  0  0  0  0  0  0  0  0  0
    3.6627    2.5130   -1.3535 C   0  0  0  0  0  0  0  0  0  0  0  0
    2.6928    3.4989   -1.5669 C   0  0  0  0  0  0  0  0  0  0  0  0
    2.4909    4.0618   -2.8126 C   0  0  0  0  0  0  0  0  0  0  0  0
    3.4341    3.8429   -3.7988 C   0  0  0  0  0  0  0  0  0  0  0  0
    4.5315    3.0194   -3.5416 C   0  0  0  0  0  0  0  0  0  0  0  0
    4.5960    2.2787   -2.3621 C   0  0  0  0  0  0  0  0  0  0  0  0
    1.0354    2.6804    0.5987 O   0  0  0  0  0  0  0  0  0  0  0  0
  1 28  2  0
  2  1  1  0
  3  2  2  0
  3  4  1  0
  4  5  1  0
  4 37  2  0
  5  6  2  0
  5 30  1  0
  6  7  1  0
  6 25  1  0
  7  8  1  1
  7 11  1  0
  8  9  1  0
  8 10  1  0
 11 12  1  0
 11 21  1  0
 12 13  1  0
 12 20  2  0
 13 14  2  0
 14 15  1  0
 15 16  2  0
 16 17  1  0
 16 19  1  0
 17 18  2  0
 18 13  1  0
 21 22  1  0
 22 23  1  0
 23 24  1  0
 25 26  1  0
 26  3  1  0
 27 26  2  0
 28 27  1  0
 28 29  1  0
 30 31  1  0
 31 36  1  0
 32 31  2  0
 33 32  1  0
 34 33  2  0
 35 34  1  0
 36 35  2  0
M  END
>  <DRUGBANK_ID>  (1) 
DB05546

>  <COMMON_NAME>  (1) 
SB-743921

>  <CAS_NUMBER>  (1) 
618430-39-0

>  <UNII>  (1) 
24DSZ1VN92

$$$$
