
     RDKit          3D

 21  0  0  0  0  0  0  0  0  0999 V2000
    0.9335    0.0503    0.0552 Si  0  0  0  0  0  8  0  0  0  0  0  0
    0.9368   -0.0765   -0.0123 Si  0  0  0  0  0  8  0  0  0  0  0  0
    0.9884    0.0792   -0.0600 Si  0  0  0  0  0  8  0  0  0  0  0  0
    1.0506   -0.0475   -0.0720 Si  0  0  0  0  0  8  0  0  0  0  0  0
    1.0033   -0.0762    0.0647 Al  0  0  0  0  0 15  0  0  0  0  0  0
    0.9452    0.0797    0.0252 Mg  0  0  0  0  0 15  0  0  0  0  0  0
    0.9195    0.0532   -0.0261 O   0  0  0  0  0  0  0  0  0  0  0  0
    0.9726   -0.0905    0.0325 O   0  0  0  0  0  0  0  0  0  0  0  0
    0.9317    0.0476    0.0554 O   0  0  0  0  0  0  0  0  0  0  0  0
    0.9809    0.0531   -0.0825 O   0  0  0  0  0  0  0  0  0  0  0  0
    0.9944    0.0661   -0.0749 O   0  0  0  0  0  0  0  0  0  0  0  0
    1.0414   -0.0676   -0.0610 O   0  0  0  0  0  0  0  0  0  0  0  0
    1.0325    0.0760    0.0563 O   0  0  0  0  0  0  0  0  0  0  0  0
    0.9294    0.0314   -0.0635 O   0  0  0  0  0  0  0  0  0  0  0  0
    1.0995   -0.0028    0.0097 O   0  0  0  0  0  0  0  0  0  0  0  0
    1.0717    0.0627    0.0305 O   0  0  0  0  0  0  0  0  0  0  0  0
    1.0175    0.0569    0.0803 O   0  0  0  0  0  0  0  0  0  0  0  0
    1.0958   -0.0157   -0.0239 O   0  0  0  0  0  0  0  0  0  0  0  0
    1.0727   -0.0659    0.0192 O   0  0  0  0  0  0  0  0  0  0  0  0
    0.9098   -0.0431    0.0019 O   0  0  0  0  0  0  0  0  0  0  0  0
    1.0799   -0.0251   -0.0547 O   0  0  0  0  0  0  0  0  0  0  0  0
M  CHG  8   1   4   2   4   3   4   4   4   5   3   6   2  11  -1  12  -2
M  CHG  8  13  -2  14  -2  15  -2  16  -2  17  -2  18  -2  19  -2  20  -2
M  CHG  1  21  -2
M  END
>  <DRUGBANK_ID>  (1) 
DB01574

>  <COMMON_NAME>  (1) 
Attapulgite

>  <CAS_NUMBER>  (1) 
12174-11-7

>  <UNII>  (1) 
U6V729APAM

>  <SYNONYMS>  (1) 
Activated attapulgite; Aluminium magnesium silicate (attapulgite); Attapulgite (activated); Attapulgite, activated; Attapulgite,activated; Attapulgus clay

$$$$
