
     RDKit          3D

 10 12  0  0  0  0  0  0  0  0999 V2000
   -1.1049   -1.1974    0.0178 C   0  0  0  0  0  0  0  0  0  0  0  0
   -0.3152    0.0066    0.5820 C   0  0  0  0  0  0  0  0  0  0  0  0
   -0.9665    1.3324    0.1584 C   0  0  0  0  0  0  0  0  0  0  0  0
    0.0777    1.4638   -0.8536 C   0  0  0  0  0  0  0  0  0  0  0  0
    0.0394   -0.0081   -1.7504 C   0  0  0  0  0  0  0  0  0  0  0  0
    0.0412   -1.4798   -0.8314 C   0  0  0  0  0  0  0  0  0  0  0  0
    1.1835   -1.6313    0.4090 C   0  0  0  0  0  0  0  0  0  0  0  0
    1.2555    0.0799    1.3766 C   0  0  0  0  0  0  0  0  0  0  0  0
    1.6846   -0.1390    0.0895 C   0  0  0  0  0  0  0  0  0  0  0  0
    1.2641    1.6440    0.3341 C   0  0  0  0  0  0  0  0  0  0  0  0
  1  6  1  0
  2  1  1  0
  2  9  1  0
  2  3  1  0
  4 10  1  0
  4  3  1  0
  4  5  1  0
  6  7  1  0
  6  5  1  0
  8  7  1  0
  8  9  1  0
  8 10  1  0
M  END
>  <DRUGBANK_ID>  (1) 
DB03627

>  <SECONDARY_ACCESSION_NUMBERS>  (1) 
EXPT00433

>  <COMMON_NAME>  (1) 
Adamantane

>  <UNII>  (1) 
PJY633525U

$$$$
