578
     RDKit          3D

 31 32  0  0  0  0  0  0  0  0999 V2000
    0.9869   -0.2365   -0.9353 C   0  0  0  0  0  0  0  0  0  0  0  0
    0.6189    1.0834   -0.5817 C   0  0  0  0  0  0  0  0  0  0  0  0
   -0.6782    1.3375   -0.1714 C   0  0  0  0  0  0  0  0  0  0  0  0
   -1.6076    0.2968   -0.1897 C   0  0  0  0  0  0  0  0  0  0  0  0
   -1.2122   -1.0296   -0.4130 C   0  0  0  0  0  0  0  0  0  0  0  0
    0.1152   -1.3297   -0.6682 C   0  0  0  0  0  0  0  0  0  0  0  0
    0.5834   -2.7712   -0.3609 C   0  0  0  0  0  0  0  0  0  0  0  0
    0.3316   -3.3759    1.2259 O   0  0  0  0  0  0  0  0  0  0  0  0
    0.8927   -3.6137    2.5832 C   0  0  0  0  0  0  0  0  0  0  0  0
    0.5327   -4.6118    3.2116 O   0  0  0  0  0  0  0  0  0  0  0  0
    1.8083   -2.7788    3.3658 N   0  0  0  0  0  0  0  0  0  0  0  0
    2.0731   -1.2808    3.9181 C   0  0  1  0  0  0  0  0  0  0  0  0
    3.6707   -1.3174    4.3864 C   0  0  0  0  0  0  0  0  0  0  0  0
    3.9606   -0.8007    5.7820 C   0  0  0  0  0  0  0  0  0  0  0  0
    4.6179   -0.5848    3.5172 C   0  0  0  0  0  0  0  0  0  0  0  0
    1.4088    0.4049    4.1755 P   0  0  2  0  0  0  0  0  0  0  0  0
    2.6493    1.1795    3.7930 O   0  0  0  0  0  0  0  0  0  0  0  0
    0.7809    1.9984    4.4188 O   0  0  0  0  0  0  0  0  0  0  0  0
    0.3323    0.2784    2.9625 O   0  0  0  0  0  0  0  0  0  0  0  0
    0.2481   -1.0131    2.4117 C   0  0  2  0  0  0  0  0  0  0  0  0
   -0.5509   -1.9146    3.6671 C   0  0  0  0  0  0  0  0  0  0  0  0
   -1.5177   -2.6946    3.5033 O   0  0  0  0  0  0  0  0  0  0  0  0
   -0.0623   -1.8585    4.9385 O   0  0  0  0  0  0  0  0  0  0  0  0
    1.8444   -1.2013    1.5236 C   0  0  0  0  0  0  0  0  0  0  0  0
    2.5886   -0.0463    1.3045 C   0  0  0  0  0  0  0  0  0  0  0  0
    2.6494   -2.4060    1.0971 C   0  0  0  0  0  0  0  0  0  0  0  0
    3.9679   -2.5090    0.7011 C   0  0  0  0  0  0  0  0  0  0  0  0
    4.5820   -1.3299    0.4492 C   0  0  0  0  0  0  0  0  0  0  0  0
    3.9142   -0.1062    0.7529 C   0  0  0  0  0  0  0  0  0  0  0  0
    4.7292    1.1572    0.7178 C   0  0  0  0  0  0  0  0  0  0  0  0
    5.9579    1.0934    1.5163 N   0  0  0  0  0  0  0  0  0  0  0  0
  1  6  2  0
  1  2  1  0
  2  3  2  0
  3  4  1  0
  4  5  2  0
  5  6  1  0
  6  7  1  0
  7  8  1  0
  8  9  1  0
  9 11  1  0
  9 10  2  0
 12 11  1  6
 12 13  1  0
 12 16  1  0
 13 15  1  0
 13 14  1  0
 16 17  2  0
 16 19  1  0
 16 18  1  0
 20 19  1  1
 20 24  1  0
 20 21  1  0
 21 22  2  0
 21 23  1  0
 24 25  2  0
 24 26  1  0
 25 29  1  0
 26 27  2  0
 27 28  1  0
 28 29  2  0
 29 30  1  0
 30 31  1  0
M  END
>  <DRUGBANK_ID>  (1) 
DB07157

>  <COMMON_NAME>  (1) 
(5R,6S,8S)-8-[3-(AMINOMETHYL)PHENYL]-6-HYDROXY-5-ISOPROPYL-3-OXO-1-PHENYL-2,7-DIOXA-4-AZA-6-PHOSPHANONAN-9-OIC ACID 6-OXIDE

$$$$
