
     RDKit          3D

 28 31  0  0  1  0  0  0  0  0999 V2000
    9.5135    7.5418    2.6536 C   0  0  0  0  0  0  0  0  0  0  0  0
    9.3916    6.7398    1.1475 C   0  0  1  0  0  0  0  0  0  0  0  0
    8.4078    7.2093   -0.3967 C   0  0  0  0  0  0  0  0  0  0  0  0
    9.1626    7.4197   -1.3234 O   0  0  0  0  0  0  0  0  0  0  0  0
    6.4901    7.3198   -0.7974 C   0  0  1  0  0  0  0  0  0  0  0  0
    4.6762    6.4948   -0.8547 C   0  0  0  0  0  0  0  0  0  0  0  0
    4.6855    5.2291   -0.0798 C   0  0  0  0  0  0  0  0  0  0  0  0
    6.0218    5.7340   -0.2219 C   0  0  1  0  0  0  0  0  0  0  0  0
    5.7472    7.5250    0.3888 C   0  0  1  0  0  0  0  0  0  0  0  0
    5.5422    7.3100    1.9060 C   0  0  0  0  0  0  0  0  0  0  0  0
    6.6916    6.4915    2.3605 C   0  0  1  0  0  0  0  0  0  0  0  0
    6.8545    4.9947    1.8013 C   0  0  1  0  0  0  0  0  0  0  0  0
    7.1016    4.8754    0.3165 C   0  0  1  0  0  0  0  0  0  0  0  0
    7.0494    3.4731   -0.2871 C   0  0  0  0  0  0  0  0  0  0  0  0
    8.2130    2.7057    0.3025 C   0  0  0  0  0  0  0  0  0  0  0  0
    8.1432    2.7376    1.8146 C   0  0  0  0  0  0  0  0  0  0  0  0
    8.3589    1.6228    2.5369 C   0  0  0  0  0  0  0  0  0  0  0  0
    8.1167    1.6301    4.0185 C   0  0  0  0  0  0  0  0  0  0  0  0
    8.6617    0.8251    4.7549 O   0  0  0  0  0  0  0  0  0  0  0  0
    7.2584    2.7187    4.6224 C   0  0  0  0  0  0  0  0  0  0  0  0
    6.7334    3.4895    3.6674 C   0  0  0  0  0  0  0  0  0  0  0  0
    7.7190    3.9978    2.5954 C   0  0  2  0  0  0  0  0  0  0  0  0
    8.9501    4.5511    3.3581 C   0  0  0  0  0  0  0  0  0  0  0  0
    5.5773    4.4686    1.9171 F   0  0  0  0  0  0  0  0  0  0  0  0
    7.5180    7.4178    1.7006 O   0  0  0  0  0  0  0  0  0  0  0  0
    4.7934    8.8049   -0.1513 C   0  0  0  0  0  0  0  0  0  0  0  0
    6.5871    8.3110   -1.8196 O   0  0  0  0  0  0  0  0  0  0  0  0
   10.7418    6.2841    0.9782 O   0  0  0  0  0  0  0  0  0  0  0  0
  2  1  1  1
  2  3  1  0
  2 28  1  0
  3  4  2  0
  5  6  1  0
  5  9  1  0
  5 27  1  6
  5  3  1  0
  6  7  1  0
  8  7  1  1
  8  9  1  0
  8 13  1  0
  9 10  1  0
  9 26  1  6
 10 11  1  0
 11 12  1  0
 11 25  1  6
 12 13  1  0
 12 22  1  0
 12 24  1  6
 13 14  1  6
 14 15  1  0
 15 16  1  0
 16 17  2  0
 16 22  1  0
 17 18  1  0
 18 19  2  0
 18 20  1  0
 20 21  2  0
 21 22  1  0
 22 23  1  1
M  END
>  <DRUGBANK_ID>  (1) 
DB13491

>  <COMMON_NAME>  (1) 
Fluperolone

>  <CAS_NUMBER>  (1) 
3841-11-0

>  <UNII>  (1) 
S33056JLS5

>  <SYNONYMS>  (1) 
Fluperolone

$$$$
