
     RDKit          3D

 24 22  0  0  0  0  0  0  0  0999 V2000
   -4.0016    6.2190    0.3282 O   0  0  0  0  0  0  0  0  0  0  0  0
   -3.6045    6.2339    1.6914 C   0  0  0  0  0  0  0  0  0  0  0  0
   -2.8711    4.9437    2.0197 C   0  0  2  0  0  0  0  0  0  0  0  0
   -1.6376    4.8240    1.1397 C   0  0  2  0  0  0  0  0  0  0  0  0
   -0.9030    3.5349    1.4695 C   0  0  1  0  0  0  0  0  0  0  0  0
   -1.4078    2.1266    1.7386 C   0  0  2  0  0  0  0  0  0  0  0  0
   -0.8999    1.1905    0.6542 C   0  0  0  0  0  0  0  0  0  0  0  0
   -0.0345    1.5873   -0.3994 O   0  0  0  0  0  0  0  0  0  0  0  0
   -3.7300    3.8378    1.7837 O   0  0  0  0  0  0  0  0  0  0  0  0
   -0.7796    5.9310    1.3742 O   0  0  0  0  0  0  0  0  0  0  0  0
   -0.0392    3.1942    0.3952 O   0  0  0  0  0  0  0  0  0  0  0  0
   -2.8278    2.1248    1.7386 O   0  0  0  0  0  0  0  0  0  0  0  0
   -1.4042    0.0239    0.6571 O   0  0  0  0  0  0  0  0  0  0  0  0
    0.7074    3.3038   -0.4037 Al  0  0  0  0  0  3  0  0  0  0  0  0
    0.3096    4.4978    0.9795 O   0  0  0  0  0  0  0  0  0  0  0  0
    1.8472    3.8263   -1.7911 O   0  0  0  0  0  0  0  0  0  0  0  0
    1.0657   -0.0126   -0.0744 C   0  0  0  0  0  0  0  0  0  0  0  0
    0.5590    0.9801    0.9592 C   0  0  0  0  0  0  0  0  0  0  0  0
    0.5757    0.3731   -1.4055 N   0  0  0  0  0  0  0  0  0  0  0  0
    0.5590   -1.4040    0.2685 C   0  0  0  0  0  0  0  0  0  0  0  0
    2.5857   -0.0126   -0.0744 C   0  0  0  0  0  0  0  0  0  0  0  0
    1.0323    2.2800    0.6389 O   0  0  0  0  0  0  0  0  0  0  0  0
    1.0323   -2.3314   -0.6971 O   0  0  0  0  0  0  0  0  0  0  0  0
    3.0590    1.2873   -0.3947 O   0  0  0  0  0  0  0  0  0  0  0  0
  1  2  1  0
  3  9  1  6
  3  4  1  0
  3  2  1  0
  4 10  1  1
  4  5  1  0
  5 11  1  6
  6 12  1  6
  6  7  1  0
  6  5  1  0
  7  8  1  0
  7 13  2  0
  8 14  1  0
 14 15  1  0
 14 16  1  0
 17 18  1  0
 17 19  1  0
 17 20  1  0
 17 21  1  0
 18 22  1  0
 20 23  1  0
 21 24  1  0
M  END
>  <DRUGBANK_ID>  (1) 
DB13650

>  <COMMON_NAME>  (1) 
Aloglutamol

>  <CAS_NUMBER>  (1) 
13755-41-4

>  <UNII>  (1) 
I670EI8M2N

>  <SYNONYMS>  (1) 
Trometamolgluconate aluminum

$$$$
