
     RDKit          3D

 18 20  0  0  0  0  0  0  0  0999 V2000
   -0.5212    0.3487    0.2987 C   0  0  0  0  0  0  0  0  0  0  0  0
   -1.0427   -0.9569    0.1059 C   0  0  0  0  0  0  0  0  0  0  0  0
   -1.4262    1.4082    0.5135 C   0  0  0  0  0  0  0  0  0  0  0  0
   -2.4261   -1.0935    0.0166 C   0  0  0  0  0  0  0  0  0  0  0  0
   -2.7904    1.2647    0.2569 C   0  0  0  0  0  0  0  0  0  0  0  0
   -3.3006   -0.0036    0.0296 C   0  0  0  0  0  0  0  0  0  0  0  0
    1.6899   -0.6778    0.0525 C   0  0  0  0  0  0  0  0  0  0  0  0
    1.0772   -1.9510    0.0034 C   0  0  0  0  0  0  0  0  0  0  0  0
    0.9042    0.4720    0.1785 C   0  0  0  0  0  0  0  0  0  0  0  0
   -0.2727   -2.0452   -0.0026 N   0  0  0  0  0  0  0  0  0  0  0  0
    3.0352   -0.3761    0.0034 N   0  0  0  0  0  0  0  0  0  0  0  0
    3.0876    0.9333    0.0150 C   0  0  0  0  0  0  0  0  0  0  0  0
    1.8338    1.5009    0.0536 N   0  0  0  0  0  0  0  0  0  0  0  0
    1.6407    2.9426   -0.0358 C   0  0  0  0  0  0  0  0  0  0  0  0
    1.0294    3.4952   -1.3515 C   0  0  0  0  0  0  0  0  0  0  0  0
   -0.3508    2.9575   -1.6770 C   0  0  0  0  0  0  0  0  0  0  0  0
    0.8571    5.0144   -1.2680 C   0  0  0  0  0  0  0  0  0  0  0  0
    1.8149   -3.1082   -0.0768 N   0  0  0  0  0  0  0  0  0  0  0  0
  1  9  1  0
  2 10  1  0
  2  1  1  0
  3  1  2  0
  4  2  2  0
  5  3  1  0
  6  4  1  0
  6  5  2  0
  8  7  1  0
  8 18  1  0
  9  7  2  0
 10  8  2  0
 11  7  1  0
 12 11  2  0
 13  9  1  0
 13 12  1  0
 13 14  1  0
 14 15  1  0
 15 16  1  0
 15 17  1  0
M  END
>  <DRUGBANK_ID>  (1) 
DB00724

>  <SECONDARY_ACCESSION_NUMBERS>  (1) 
APRD01030

>  <COMMON_NAME>  (1) 
Imiquimod

>  <CAS_NUMBER>  (1) 
99011-02-6

>  <UNII>  (1) 
P1QW714R7M

>  <SYNONYMS>  (1) 
1-isobutyl-1H-imidazo[4,5-c]quinolin-4-amine; 4-Amino-1-isobutyl-1H-imidazo(4,5-c)quinoline; Imiquimod; Imiquimodum

$$$$
