
     RDKit          3D

 27 31  0  0  0  0  0  0  0  0999 V2000
    1.6658    1.1931    0.0113 C   0  0  0  0  0  0  0  0  0  0  0  0
    0.2706    1.2082   -0.0113 C   0  0  0  0  0  0  0  0  0  0  0  0
   -0.4322    0.0076   -0.0167 C   0  0  0  0  0  0  0  0  0  0  0  0
    0.2451   -1.2041   -0.0175 C   0  0  0  0  0  0  0  0  0  0  0  0
    1.6355   -1.2163    0.0037 C   0  0  0  0  0  0  0  0  0  0  0  0
    2.3743   -0.0239    0.0282 C   0  0  0  0  0  0  0  0  0  0  0  0
    3.9016   -0.0411    0.0660 C   0  0  0  0  0  0  0  0  0  0  0  0
    4.4158    0.7015    1.3308 C   0  0  0  0  0  0  0  0  0  0  0  0
    5.9511    0.6837    1.3948 C   0  0  0  0  0  0  0  0  0  0  0  0
    6.4762   -0.7462    1.3910 C   0  0  0  0  0  0  0  0  0  0  0  0
    6.0219   -1.4559    0.1105 C   0  0  0  0  0  0  0  0  0  0  0  0
    4.4934   -1.4752    0.0815 C   0  0  0  0  0  0  0  0  0  0  0  0
    6.5340   -0.7099   -1.1354 C   0  0  0  0  0  0  0  0  0  0  0  0
    5.9983    0.7461   -1.1466 C   0  0  0  0  0  0  0  0  0  0  0  0
    6.5005    1.3920    0.1653 C   0  0  0  0  0  0  0  0  0  0  0  0
    4.4544    0.6503   -1.1981 C   0  0  0  0  0  0  0  0  0  0  0  0
    6.5206    1.5151   -2.3665 C   0  0  0  0  0  0  0  0  0  0  0  0
    7.2433    0.9838   -3.2173 O   0  0  0  0  0  0  0  0  0  0  0  0
    6.1877    2.8247   -2.5416 N   0  0  0  0  0  0  0  0  0  0  0  0
    5.3429    3.6763   -1.7376 C   0  0  0  0  0  0  0  0  0  0  0  0
    6.0679    4.8626   -1.1842 C   0  0  0  0  0  0  0  0  0  0  0  0
    7.1902    4.7496   -0.3520 C   0  0  0  0  0  0  0  0  0  0  0  0
    7.7221    5.8939    0.2113 C   0  0  0  0  0  0  0  0  0  0  0  0
    7.2259    7.1260   -0.0091 N   0  0  0  0  0  0  0  0  0  0  0  0
    6.1519    7.2130   -0.8225 C   0  0  0  0  0  0  0  0  0  0  0  0
    5.5406    6.1270   -1.4176 C   0  0  0  0  0  0  0  0  0  0  0  0
   -2.1496    0.0157   -0.0148 Cl  0  0  0  0  0  0  0  0  0  0  0  0
  1  2  2  0
  1  6  1  0
  2  3  1  0
  3  4  2  0
  3 27  1  0
  4  5  1  0
  5  6  2  0
  6  7  1  0
  7  8  1  0
  7 16  1  0
  7 12  1  0
  8  9  1  0
  9 15  1  0
  9 10  1  0
 10 11  1  0
 11 12  1  0
 11 13  1  0
 13 14  1  0
 14 16  1  0
 14 15  1  0
 14 17  1  0
 17 18  2  0
 17 19  1  0
 19 20  1  0
 20 21  1  0
 21 22  2  0
 21 26  1  0
 22 23  1  0
 23 24  2  0
 24 25  1  0
 25 26  2  0
M  END
>  <DRUGBANK_ID>  (1) 
DB12764

>  <COMMON_NAME>  (1) 
Opaganib

>  <CAS_NUMBER>  (1) 
915385-81-8

>  <UNII>  (1) 
DRG21OQ517

>  <SYNONYMS>  (1) 
4-Pyridinylmethyl 3(4-Chlorophenyl)Adamantine Carboxamide; 4-Pyridinylmethyl-3-(4-Chlorophenyl) Adamantine Carboxamide; ABC-294640; ABC294640; Opaganib; Yeliva

$$$$
