11M
     RDKit          3D

 29 33  0  0  0  0  0  0  0  0999 V2000
    2.8906   -0.7487    0.0180 C   0  0  0  0  0  0  0  0  0  0  0  0
    3.5180    0.4944   -0.0169 C   0  0  0  0  0  0  0  0  0  0  0  0
    2.7461    1.6719   -0.0498 C   0  0  0  0  0  0  0  0  0  0  0  0
   -0.5834   -1.5915    0.0438 C   0  0  0  0  0  0  0  0  0  0  0  0
   -1.6233    0.4219   -1.1600 C   0  0  0  0  0  0  0  0  0  0  0  0
   -2.9575    0.0166    1.4756 C   0  0  0  0  0  0  0  0  0  0  0  0
   -0.7668   -0.0404    0.0572 C   0  0  0  0  0  0  0  0  0  0  0  0
   -4.7449    1.5728    0.5990 C   0  0  0  0  0  0  0  0  0  0  0  0
   -7.1889    4.1593    2.6446 C   0  0  0  0  0  0  0  0  0  0  0  0
   -6.8749    3.9835    5.0281 C   0  0  0  0  0  0  0  0  0  0  0  0
   -5.3202    2.3787    5.8660 C   0  0  0  0  0  0  0  0  0  0  0  0
    1.3267    1.5858   -0.0333 C   0  0  0  0  0  0  0  0  0  0  0  0
    0.6993    0.3425    0.0028 C   0  0  0  0  0  0  0  0  0  0  0  0
    1.5011   -0.7910    0.0240 C   0  0  0  0  0  0  0  0  0  0  0  0
    0.8121   -1.9674    0.0627 O   0  0  0  0  0  0  0  0  0  0  0  0
   -3.1538    0.1411   -0.9545 C   0  0  0  0  0  0  0  0  0  0  0  0
   -3.6819    0.6214    0.4083 N   0  0  0  0  0  0  0  0  0  0  0  0
   -1.4777    0.4232    1.3702 C   0  0  0  0  0  0  0  0  0  0  0  0
   -5.1940    1.9250   -0.5371 O   0  0  0  0  0  0  0  0  0  0  0  0
    3.4405    3.0150   -0.0977 C   0  0  0  0  0  0  0  0  0  0  0  0
    3.0693    3.7565   -1.2961 N   0  0  0  0  0  0  0  0  0  0  0  0
   -5.4227    2.2753    1.9103 C   0  0  0  0  0  0  0  0  0  0  0  0
   -5.5715    2.4526    3.3530 C   0  0  0  0  0  0  0  0  0  0  0  0
   -6.5689    3.5678    3.7109 C   0  0  0  0  0  0  0  0  0  0  0  0
   -6.6005    3.4827    1.2056 S   0  0  0  0  0  0  0  0  0  0  0  0
   -6.1928    3.4452    6.0946 C   0  0  0  0  0  0  0  0  0  0  0  0
   -5.0020    1.8090    4.5411 C   0  0  0  0  0  0  0  0  0  0  0  0
   -8.4067    5.4583    2.4824 S   0  0  0  0  0  0  0  0  0  0  0  0
   -8.9118    6.0261    4.1190 C   0  0  0  0  0  0  0  0  0  0  0  0
  1  2  2  0
  1 14  1  0
  2  3  1  0
  3 12  2  0
  3 20  1  0
  4  7  1  0
  4 15  1  0
  5  7  1  0
  5 16  1  0
  6 17  1  0
  6 18  1  0
  7 13  1  0
  7 18  1  0
  8 17  1  0
  8 19  2  0
  8 22  1  0
  9 24  2  0
  9 25  1  0
  9 28  1  0
 10 24  1  0
 10 26  2  0
 11 26  1  0
 11 27  2  0
 12 13  1  0
 13 14  2  0
 14 15  1  0
 16 17  1  0
 20 21  1  0
 22 23  2  0
 22 25  1  0
 23 24  1  0
 23 27  1  0
 28 29  1  0
M  END
>  <DRUGBANK_ID>  (1) 
DB06848

>  <COMMON_NAME>  (1) 
1-(1'-{[3-(methylsulfanyl)-2-benzothiophen-1-yl]carbonyl}spiro[1-benzofuran-3,4'-piperidin]-5-yl)methanamine

$$$$
