
     RDKit          3D

 29 32  0  0  1  0  0  0  0  0999 V2000
    1.1911   -0.1115   -0.0211 C   0  0  0  0  0  0  0  0  0  0  0  0
    0.4526   -0.3634   -1.6104 S   0  0  0  0  0  0  0  0  0  0  0  0
    1.0999   -1.5161   -2.1857 O   0  0  0  0  0  0  0  0  0  0  0  0
   -1.0022   -0.3251   -1.5008 O   0  0  0  0  0  0  0  0  0  0  0  0
    0.9055    1.1000   -2.5321 C   0  0  0  0  0  0  0  0  0  0  0  0
    1.6984    0.8245   -3.6849 C   0  0  0  0  0  0  0  0  0  0  0  0
    2.0325    1.8138   -4.5849 C   0  0  0  0  0  0  0  0  0  0  0  0
    1.6020    3.1060   -4.3845 C   0  0  0  0  0  0  0  0  0  0  0  0
    0.8485    3.4264   -3.2368 C   0  0  0  0  0  0  0  0  0  0  0  0
    0.4878    2.4567   -2.2688 C   0  0  0  0  0  0  0  0  0  0  0  0
   -0.2666    3.1520   -1.2341 N   0  0  0  0  0  0  0  0  0  0  0  0
   -0.3348    4.5186   -1.6240 C   0  0  0  0  0  0  0  0  0  0  0  0
    0.3091    4.6383   -2.8336 C   0  0  0  0  0  0  0  0  0  0  0  0
    0.2859    5.9920   -3.4334 C   0  0  0  0  0  0  0  0  0  0  0  0
   -0.1636    6.8506   -2.2589 C   0  0  0  0  0  0  0  0  0  0  0  0
   -0.9596    5.9034   -1.2797 C   0  0  2  0  0  0  0  0  0  0  0  0
   -0.7419    6.5817    0.0473 C   0  0  0  0  0  0  0  0  0  0  0  0
   -1.5616    7.7785    0.3935 C   0  0  0  0  0  0  0  0  0  0  0  0
   -2.4708    7.7720    1.2095 O   0  0  0  0  0  0  0  0  0  0  0  0
   -1.1894    8.9109   -0.2001 O   0  0  0  0  0  0  0  0  0  0  0  0
   -0.9031    2.4807   -0.0385 C   0  0  0  0  0  0  0  0  0  0  0  0
   -0.3633    2.8845    1.3331 C   0  0  0  0  0  0  0  0  0  0  0  0
   -0.7036    4.1545    1.6889 C   0  0  0  0  0  0  0  0  0  0  0  0
   -0.0432    4.9138    2.6544 C   0  0  0  0  0  0  0  0  0  0  0  0
    0.6968    4.2469    3.5916 C   0  0  0  0  0  0  0  0  0  0  0  0
    0.7366    2.8607    3.5187 C   0  0  0  0  0  0  0  0  0  0  0  0
    0.2644    2.1848    2.3617 C   0  0  0  0  0  0  0  0  0  0  0  0
    1.4349    5.1231    4.8675 Cl  0  0  0  0  0  0  0  0  0  0  0  0
    2.7583    1.5233   -5.6737 F   0  0  0  0  0  0  0  0  0  0  0  0
  1  2  1  0
  2  3  2  0
  2  4  2  0
  2  5  1  0
  5  6  2  0
  5 10  1  0
  6  7  1  0
  7  8  2  0
  7 29  1  0
  8  9  1  0
  9 10  2  0
  9 13  1  0
 10 11  1  0
 11 12  1  0
 11 21  1  0
 12 13  2  0
 12 16  1  0
 13 14  1  0
 14 15  1  0
 15 16  1  0
 16 17  1  1
 17 18  1  0
 18 19  2  0
 18 20  1  0
 21 22  1  0
 22 23  2  0
 22 27  1  0
 23 24  1  0
 24 25  2  0
 25 26  1  0
 25 28  1  0
 26 27  2  0
M  END
>  <DRUGBANK_ID>  (1) 
DB11629

>  <COMMON_NAME>  (1) 
Laropiprant

>  <CAS_NUMBER>  (1) 
571170-77-9

>  <UNII>  (1) 
G7N11T8O78

>  <SYNONYMS>  (1) 
Laropiprant

$$$$
