DEM
     RDKit          3D

 13 12  0  0  0  0  0  0  0  0999 V2000
    0.8467    0.3500    0.3323 C   0  0  0  0  0  0  0  0  0  0  0  0
    0.8357   -1.8321    1.3400 C   0  0  0  0  0  0  0  0  0  0  0  0
    0.3200   -2.6300    0.1332 C   0  0  0  0  0  0  0  0  0  0  0  0
    0.9001   -2.2227   -1.2240 C   0  0  0  0  0  0  0  0  0  0  0  0
    2.4296   -2.1565   -1.1768 C   0  0  0  0  0  0  0  0  0  0  0  0
    2.9837   -3.5738   -1.1060 C   0  0  0  0  0  0  0  0  0  0  0  0
    2.5240   -4.3674   -2.3321 C   0  0  0  0  0  0  0  0  0  0  0  0
    2.9898   -3.6776   -3.6221 C   0  0  0  0  0  0  0  0  0  0  0  0
    4.5192   -3.6475   -3.6905 C   0  0  0  0  0  0  0  0  0  0  0  0
    5.1024   -5.0588   -3.6073 C   0  0  0  0  0  0  0  0  0  0  0  0
    4.5878   -5.9160   -4.7531 C   0  0  0  0  0  0  0  0  0  0  0  0
    0.4009   -0.4717    1.3942 O   0  0  0  0  0  0  0  0  0  0  0  0
    0.3906    1.6729    0.4759 O   0  0  0  0  0  0  0  0  0  0  0  0
  1 12  1  0
  1 13  1  0
  2  3  1  0
  2 12  1  0
  3  4  1  0
  4  5  1  0
  5  6  1  0
  6  7  1  0
  7  8  1  0
  8  9  1  0
  9 10  1  0
 10 11  1  0
M  END
>  <DRUGBANK_ID>  (1) 
DB04082

>  <SECONDARY_ACCESSION_NUMBERS>  (1) 
EXPT01158

>  <COMMON_NAME>  (1) 
Decyloxy-Methanol

$$$$
