LDT
     RDKit          3D

 24 25  0  0  0  0  0  0  0  0999 V2000
    0.3816    1.0772   -0.0739 C   0  0  0  0  0  0  0  0  0  0  0  0
   -1.2448   -1.1592   -0.0068 C   0  0  0  0  0  0  0  0  0  0  0  0
   -1.0029    1.2188    0.0192 C   0  0  0  0  0  0  0  0  0  0  0  0
    0.9546   -0.1659   -0.0485 C   0  0  0  0  0  0  0  0  0  0  0  0
    0.1589   -1.2896   -0.0125 C   0  0  0  0  0  0  0  0  0  0  0  0
   -1.9034    0.1008    0.0203 C   0  0  0  0  0  0  0  0  0  0  0  0
   -4.2387    5.8646   -5.2105 Br  0  0  0  0  0  0  0  0  0  0  0  0
    2.2888   -0.2551   -0.0314 F   0  0  0  0  0  0  0  0  0  0  0  0
   -3.5050    0.0830    0.0533 C   0  0  0  0  0  0  0  0  0  0  0  0
   -4.0617    2.5779    0.0073 C   0  0  0  0  0  0  0  0  0  0  0  0
   -4.4128    1.4296   -2.5579 F   0  0  0  0  0  0  0  0  0  0  0  0
   -1.4517    2.4640    0.2474 O   0  0  0  0  0  0  0  0  0  0  0  0
   -4.3937   -1.3701   -0.0011 S   0  0  0  0  0  0  0  0  0  0  0  0
   -4.3777    1.1861    0.1027 N   0  0  0  0  0  0  0  0  0  0  0  0
   -0.8273    3.7120    0.1013 C   0  0  0  0  0  0  0  0  0  0  0  0
   -4.1820    3.3905   -1.2435 C   0  0  0  0  0  0  0  0  0  0  0  0
   -4.1127    4.8605   -3.6180 C   0  0  0  0  0  0  0  0  0  0  0  0
   -3.8644    4.7665   -1.2277 C   0  0  0  0  0  0  0  0  0  0  0  0
   -4.3221    2.7632   -2.4794 C   0  0  0  0  0  0  0  0  0  0  0  0
   -4.3305    3.4883   -3.6581 C   0  0  0  0  0  0  0  0  0  0  0  0
   -3.8307    5.5009   -2.4138 C   0  0  0  0  0  0  0  0  0  0  0  0
   -0.1093    3.8917    1.4041 C   0  0  0  0  0  0  0  0  0  0  0  0
    1.2246    4.0436    1.2454 O   0  0  0  0  0  0  0  0  0  0  0  0
   -0.6561    3.8331    2.4832 O   0  0  0  0  0  0  0  0  0  0  0  0
  1  3  2  0
  1  4  1  0
  2  5  1  0
  2  6  2  0
  3  6  1  0
  3 12  1  0
  4  5  2  0
  4  8  1  0
  6  9  1  0
  7 17  1  0
  9 13  2  0
  9 14  1  0
 10 14  1  0
 10 16  1  0
 11 19  1  0
 12 15  1  0
 15 22  1  0
 16 18  1  0
 16 19  2  0
 17 20  2  0
 17 21  1  0
 18 21  2  0
 19 20  1  0
 22 23  1  0
 22 24  2  0
M  END
>  <DRUGBANK_ID>  (1) 
DB08084

>  <COMMON_NAME>  (1) 
IDD594

$$$$
