
     RDKit          3D

 28 30  0  0  0  0  0  0  0  0999 V2000
    1.7144    1.6989    0.0616 C   0  0  0  0  0  0  0  0  0  0  0  0
    0.5146    0.8050    0.0781 C   0  0  0  0  0  0  0  0  0  0  0  0
   -0.7662    1.3312    0.1459 C   0  0  0  0  0  0  0  0  0  0  0  0
   -1.8055    0.4404    0.0640 C   0  0  0  0  0  0  0  0  0  0  0  0
   -1.7108   -0.9196    0.0315 C   0  0  0  0  0  0  0  0  0  0  0  0
   -0.4364   -1.4617    0.0125 C   0  0  0  0  0  0  0  0  0  0  0  0
    0.6602   -0.5911    0.0195 C   0  0  0  0  0  0  0  0  0  0  0  0
    1.8939   -1.1095   -0.0252 F   0  0  0  0  0  0  0  0  0  0  0  0
   -2.9500   -1.7163    0.0713 C   0  0  0  0  0  0  0  0  0  0  0  0
   -2.8438   -2.9338    0.0845 O   0  0  0  0  0  0  0  0  0  0  0  0
   -4.2262   -1.1678    0.1366 N   0  0  0  0  0  0  0  0  0  0  0  0
   -4.9609    0.0736    0.0281 C   0  0  0  0  0  0  0  0  0  0  0  0
   -4.7642    1.3982   -0.6578 C   0  0  0  0  0  0  0  0  0  0  0  0
   -4.7606    1.3261    0.8595 C   0  0  0  0  0  0  0  0  0  0  0  0
   -1.1019    2.7421    0.1076 C   0  0  0  0  0  0  0  0  0  0  0  0
   -0.7138    3.4291   -1.0036 C   0  0  0  0  0  0  0  0  0  0  0  0
   -0.8998    4.7834   -1.0192 C   0  0  0  0  0  0  0  0  0  0  0  0
   -1.5138    5.4778    0.0170 C   0  0  0  0  0  0  0  0  0  0  0  0
   -1.9899    4.6761    1.0498 C   0  0  0  0  0  0  0  0  0  0  0  0
   -1.7978    3.3206    1.1179 N   0  0  0  0  0  0  0  0  0  0  0  0
   -1.6986    6.9619    0.1041 C   0  0  0  0  0  0  0  0  0  0  0  0
   -2.3261    7.4355    1.0407 O   0  0  0  0  0  0  0  0  0  0  0  0
   -1.1776    7.8385   -0.8270 N   0  0  0  0  0  0  0  0  0  0  0  0
   -0.4173    7.6194   -2.0383 C   0  0  0  0  0  0  0  0  0  0  0  0
   -1.2207    7.7846   -3.3388 C   0  0  0  0  0  0  0  0  0  0  0  0
   -1.3384    9.2913   -3.5607 C   0  0  0  0  0  0  0  0  0  0  0  0
   -0.4390    7.1338   -4.4982 C   0  0  0  0  0  0  0  0  0  0  0  0
   -2.6156    7.1298   -3.2914 C   0  0  0  0  0  0  0  0  0  0  0  0
  1  2  1  0
  2  3  2  0
  2  7  1  0
  3  4  1  0
  3 15  1  0
  4  5  2  0
  5  6  1  0
  5  9  1  0
  6  7  2  0
  7  8  1  0
  9 10  2  0
  9 11  1  0
 11 12  1  0
 12 13  1  0
 12 14  1  0
 13 14  1  0
 15 16  2  0
 15 20  1  0
 16 17  1  0
 17 18  2  0
 18 19  1  0
 18 21  1  0
 19 20  2  0
 21 22  2  0
 21 23  1  0
 23 24  1  0
 24 25  1  0
 25 26  1  0
 25 27  1  0
 25 28  1  0
M  END
>  <DRUGBANK_ID>  (1) 
DB12270

>  <COMMON_NAME>  (1) 
Losmapimod

>  <CAS_NUMBER>  (1) 
585543-15-3

>  <UNII>  (1) 
F2DQF16BXE

>  <SYNONYMS>  (1) 
Losmapimod

$$$$
