DSC
     RDKit          3D

 16 15  0  0  0  0  0  0  0  0999 V2000
    0.8714    0.0127    0.1959 S   0  0  0  0  0  0  0  0  0  0  0  0
    0.4451    1.2856   -0.3574 O   0  0  0  0  0  0  0  0  0  0  0  0
    0.4900   -1.1674   -0.5820 O   0  0  0  0  0  0  0  0  0  0  0  0
    0.6502   -0.1066    1.6410 O   0  0  0  0  0  0  0  0  0  0  0  0
    2.6558    0.0047    0.0738 C   0  0  0  0  0  0  0  0  0  0  0  0
    3.1644    0.0343   -1.3670 C   0  0  0  0  0  0  0  0  0  0  0  0
    2.7757    1.3188   -2.0996 C   0  0  0  0  0  0  0  0  0  0  0  0
    3.3057    2.5536   -1.3620 C   0  0  0  0  0  0  0  0  0  0  0  0
    4.8367    2.5543   -1.3673 C   0  0  0  0  0  0  0  0  0  0  0  0
    5.3569    2.5826   -2.8081 C   0  0  0  0  0  0  0  0  0  0  0  0
    4.8541    3.8393   -3.5268 C   0  0  0  0  0  0  0  0  0  0  0  0
    5.3575    5.0939   -2.8069 C   0  0  0  0  0  0  0  0  0  0  0  0
    6.8899    5.1211   -2.7917 C   0  0  0  0  0  0  0  0  0  0  0  0
    7.4534    5.1567   -4.2168 C   0  0  0  0  0  0  0  0  0  0  0  0
    6.9588    6.3819   -4.9872 C   0  0  0  0  0  0  0  0  0  0  0  0
    7.3919    7.6620   -4.2911 C   0  0  0  0  0  0  0  0  0  0  0  0
  1  2  2  0
  1  3  2  0
  1  4  1  0
  1  5  1  0
  5  6  1  0
  6  7  1  0
  7  8  1  0
  8  9  1  0
  9 10  1  0
 10 11  1  0
 11 12  1  0
 12 13  1  0
 13 14  1  0
 14 15  1  0
 15 16  1  0
M  CHG  1   4  -1
M  END
>  <DRUGBANK_ID>  (1) 
DB07681

>  <COMMON_NAME>  (1) 
DODECANESULFONATE ION

$$$$
