396
     RDKit          3D

 23 26  0  0  1  0  0  0  0  0999 V2000
    1.0242   -0.2335    0.1481 O   0  0  0  0  0  0  0  0  0  0  0  0
    2.5028   10.9341    0.8486 O   0  0  0  0  0  0  0  0  0  0  0  0
    3.0487    3.4787   -0.9589 C   0  0  2  0  0  0  0  0  0  0  0  0
    2.1453    2.5300   -0.1385 C   0  0  1  0  0  0  0  0  0  0  0  0
    2.4204    4.8635   -1.1503 C   0  0  1  0  0  0  0  0  0  0  0  0
    2.1721    5.5232    0.2414 C   0  0  1  0  0  0  0  0  0  0  0  0
    1.4701    6.9298    0.0901 C   0  0  2  0  0  0  0  0  0  0  0  0
    2.9666    1.2115   -0.2315 C   0  0  2  0  0  0  0  0  0  0  0  0
    2.0526    3.1323    1.2708 C   0  0  0  0  0  0  0  0  0  0  0  0
    1.4806    4.5647    1.2511 C   0  0  0  0  0  0  0  0  0  0  0  0
    3.3945    2.6640   -2.1993 C   0  0  0  0  0  0  0  0  0  0  0  0
    3.3137    5.7690   -2.0061 C   0  0  0  0  0  0  0  0  0  0  0  0
    3.5033    1.2179   -1.6826 C   0  0  0  0  0  0  0  0  0  0  0  0
    2.3425    7.7970   -0.8290 C   0  0  0  0  0  0  0  0  0  0  0  0
    0.7317    2.3795   -0.7559 C   0  0  0  0  0  0  0  0  0  0  0  0
    2.7600    7.1820   -2.1429 C   0  0  0  0  0  0  0  0  0  0  0  0
    1.3374    7.6035    1.4860 C   0  0  0  0  0  0  0  0  0  0  0  0
    0.0606    6.8026   -0.5344 C   0  0  0  0  0  0  0  0  0  0  0  0
    2.2496   -0.1054    0.1049 C   0  0  0  0  0  0  0  0  0  0  0  0
    1.0547    9.0995    1.4007 C   0  0  0  0  0  0  0  0  0  0  0  0
    2.7148    9.0573   -0.5410 C   0  0  0  0  0  0  0  0  0  0  0  0
    2.1485    9.7807    0.6209 C   0  0  0  0  0  0  0  0  0  0  0  0
    3.0839   -1.3222    0.3860 C   0  0  0  0  0  0  0  0  0  0  0  0
  1 19  2  0
  2 22  2  0
  3  4  1  0
  3  5  1  0
  3 11  1  6
  4  8  1  0
  4  9  1  0
  4 15  1  6
  5  6  1  0
  5 12  1  6
  6  7  1  0
  6 10  1  1
  7 14  1  0
  7 17  1  0
  7 18  1  6
  8 13  1  0
  8 19  1  6
  9 10  1  0
 11 13  1  0
 12 16  1  0
 14 16  1  0
 14 21  2  0
 17 20  1  0
 19 23  1  0
 20 22  1  0
 21 22  1  0
M  END
>  <DRUGBANK_ID>  (1) 
DB00396

>  <SECONDARY_ACCESSION_NUMBERS>  (1) 
APRD00700

>  <COMMON_NAME>  (1) 
Progesterone

>  <CAS_NUMBER>  (1) 
57-83-0

>  <UNII>  (1) 
4G7DS2Q64Y

>  <SYNONYMS>  (1) 
(S)-4-Pregnene-3,20-dione; (S)-Pregn-4-en-3,20-dione; (S)-Progesterone; 17alpha-Progesterone; 17α-progesterone; 4-Pregnene-3,20-dione; Agolutin; Akrolutin; Corpus Luteum Hormone; delta(4)-Pregnene-3,20-dione; Gelbkörperhormon; Luteohormone; Lutogynon; Pregn-4-ene-3,20-dione; Progesteron; Progesterona; Progestérone; Progesterone; Progesteronum

$$$$
