
     RDKit          3D

 23 25  0  0  1  0  0  0  0  0999 V2000
   -7.4088   -6.9216    0.3214 C   0  0  0  0  0  0  0  0  0  0  0  0
   -5.1611   -5.8017    0.1934 C   0  0  0  0  0  0  0  0  0  0  0  0
   -3.7738   -5.8510    0.2025 C   0  0  0  0  0  0  0  0  0  0  0  0
   -5.3336   -8.2499    0.2385 C   0  0  0  0  0  0  0  0  0  0  0  0
    2.6647   -6.5847    0.8734 C   0  0  0  0  0  0  0  0  0  0  0  0
   -2.0076   -8.9577    0.6862 C   0  0  0  0  0  0  0  0  0  0  0  0
   -5.9243   -6.9789    0.2452 C   0  0  0  0  0  0  0  0  0  0  0  0
   -3.9611   -8.3172    0.3017 C   0  0  0  0  0  0  0  0  0  0  0  0
   -3.2498   -7.1384    0.3460 C   0  0  0  0  0  0  0  0  0  0  0  0
    1.3718   -7.6338    0.7770 C   0  0  2  0  0  0  0  0  0  0  0  0
    0.9992   -8.2661   -0.6540 C   0  0  2  0  0  0  0  0  0  0  0  0
   -0.3956   -7.5804   -1.1632 C   0  0  2  0  0  0  0  0  0  0  0  0
   -0.8441   -6.9075    0.1992 C   0  0  1  0  0  0  0  0  0  0  0  0
   -3.1561   -9.4336    0.3777 N   0  0  0  0  0  0  0  0  0  0  0  0
   -1.9927   -7.6002    0.5678 N   0  0  0  0  0  0  0  0  0  0  0  0
    0.7847   -9.6710   -0.5670 O   0  0  0  0  0  0  0  0  0  0  0  0
   -1.0124   -8.2497   -2.2369 O   0  0  0  0  0  0  0  0  0  0  0  0
    0.9049   -6.0053   -0.8305 O   0  0  0  0  0  0  0  0  0  0  0  0
    1.3985   -3.7944   -1.0147 O   0  0  0  0  0  0  0  0  0  0  0  0
    1.5939   -5.2992   -2.7851 O   0  0  0  0  0  0  0  0  0  0  0  0
    2.5991   -5.1940    0.3336 O   0  0  0  0  0  0  0  0  0  0  0  0
    0.1468   -7.0473    1.2756 O   0  0  0  0  0  0  0  0  0  0  0  0
    2.0686   -5.2495   -1.3122 P   0  0  0  0  0  0  0  0  0  0  0  0
  3  2  2  0
  7  1  1  0
  7  2  1  0
  7  4  2  0
  8  4  1  0
  9  3  1  0
  9  8  2  0
 10  5  1  6
 11 10  1  0
 11 16  1  1
 12 11  1  0
 12 17  1  1
 13 12  1  0
 13 15  1  1
 14  6  2  0
 14  8  1  0
 15  6  1  0
 15  9  1  0
 21  5  1  0
 22 10  1  0
 22 13  1  0
 23 18  1  0
 23 19  1  0
 23 20  2  0
 23 21  1  0
M  END
>  <DRUGBANK_ID>  (1) 
DB02819

>  <SECONDARY_ACCESSION_NUMBERS>  (1) 
EXPT02793

>  <COMMON_NAME>  (1) 
Mono-[3,4-Dihydroxy-5-(5-Methyl-Benzoimidazol-1-Yl)-Tetrahydor-Furan-2-Ylmethyl] Ester

$$$$
