
     RDKit          3D

 27 26  0  0  0  0  0  0  0  0999 V2000
    1.0156   -0.1027   -0.2744 C   0  0  0  0  0  0  0  0  0  0  0  0
    0.6607   -0.9393    0.9413 C   0  0  0  0  0  0  0  0  0  0  0  0
    1.2562   -0.3061    2.2020 C   0  0  0  0  0  0  0  0  0  0  0  0
    0.6714    1.0829    2.4817 C   0  0  0  0  0  0  0  0  0  0  0  0
   -0.8414    1.0226    2.5909 C   0  0  0  0  0  0  0  0  0  0  0  0
   -1.2183    0.0974    3.7467 C   0  0  0  0  0  0  0  0  0  0  0  0
   -1.0894    0.7775    5.1109 C   0  0  0  0  0  0  0  0  0  0  0  0
   -1.6921    2.1814    5.2608 C   0  0  0  0  0  0  0  0  0  0  0  0
   -3.2224    2.2813    5.2586 C   0  0  0  0  0  0  0  0  0  0  0  0
   -3.6837    1.5909    6.3377 F   0  0  0  0  0  0  0  0  0  0  0  0
   -3.5461    3.5824    5.4740 F   0  0  0  0  0  0  0  0  0  0  0  0
   -3.9123    1.7736    3.9980 C   0  0  0  0  0  0  0  0  0  0  0  0
   -3.3570    2.3841    2.9050 F   0  0  0  0  0  0  0  0  0  0  0  0
   -3.6910    0.4579    3.8930 F   0  0  0  0  0  0  0  0  0  0  0  0
   -5.3933    1.8823    3.9279 C   0  0  0  0  0  0  0  0  0  0  0  0
   -5.9402    1.2014    4.9748 F   0  0  0  0  0  0  0  0  0  0  0  0
   -5.8211    3.1603    4.0291 F   0  0  0  0  0  0  0  0  0  0  0  0
   -5.8232    1.2484    2.5983 C   0  0  0  0  0  0  0  0  0  0  0  0
   -5.3296    1.9742    1.5554 F   0  0  0  0  0  0  0  0  0  0  0  0
   -5.3110   -0.0038    2.4402 F   0  0  0  0  0  0  0  0  0  0  0  0
   -7.3142    1.1673    2.5238 C   0  0  0  0  0  0  0  0  0  0  0  0
   -7.7937    0.4064    3.5491 F   0  0  0  0  0  0  0  0  0  0  0  0
   -7.8593    2.4040    2.6808 F   0  0  0  0  0  0  0  0  0  0  0  0
   -7.7187    0.5648    1.1962 C   0  0  0  0  0  0  0  0  0  0  0  0
   -7.2841    1.2952    0.1429 F   0  0  0  0  0  0  0  0  0  0  0  0
   -7.2498   -0.6936    1.0287 F   0  0  0  0  0  0  0  0  0  0  0  0
   -9.0696    0.4937    1.0924 F   0  0  0  0  0  0  0  0  0  0  0  0
  1  2  1  0
  2  3  1  0
  3  4  1  0
  4  5  1  0
  5  6  1  0
  6  7  1  0
  7  8  1  0
  8  9  1  0
  9 10  1  0
  9 11  1  0
  9 12  1  0
 12 13  1  0
 12 14  1  0
 12 15  1  0
 15 16  1  0
 15 17  1  0
 15 18  1  0
 18 19  1  0
 18 20  1  0
 18 21  1  0
 21 22  1  0
 21 23  1  0
 21 24  1  0
 24 25  1  0
 24 26  1  0
 24 27  1  0
M  END
>  <DRUGBANK_ID>  (1) 
DB17823

>  <COMMON_NAME>  (1) 
Perfluorohexyloctane

>  <CAS_NUMBER>  (1) 
133331-77-8

>  <UNII>  (1) 
7VYX4ELWQM

>  <SYNONYMS>  (1) 
1-(perfluorohexyl)octane; F6H8; NOV03; Tetradecane, 1,1,1,2,2,3,3,4,4,5,5,6,6-tridecafluoro-

$$$$
