
     RDKit          3D

 28 32  0  0  1  0  0  0  0  0999 V2000
    0.5665    0.0363    0.0758 C   0  0  0  0  0  0  0  0  0  0  0  0
    0.2489   -0.2852    1.4222 O   0  0  0  0  0  0  0  0  0  0  0  0
    0.7348   -1.4861    1.8688 C   0  0  0  0  0  0  0  0  0  0  0  0
    2.0823   -1.8389    1.9184 C   0  0  0  0  0  0  0  0  0  0  0  0
    2.4147   -3.0804    2.5427 C   0  0  0  0  0  0  0  0  0  0  0  0
    1.4671   -4.0081    2.9321 C   0  0  0  0  0  0  0  0  0  0  0  0
    0.1448   -3.6258    2.8973 C   0  0  0  0  0  0  0  0  0  0  0  0
   -1.0426   -4.7250    3.4717 Cl  0  0  0  0  0  0  0  0  0  0  0  0
   -0.2157   -2.3577    2.4241 C   0  0  0  0  0  0  0  0  0  0  0  0
    3.2008   -1.0388    1.2486 C   0  0  2  0  0  0  0  0  0  0  0  0
    3.5924   -1.7559   -0.0171 N   0  0  0  0  0  0  0  0  0  0  0  0
    4.2826   -3.0294    0.2035 C   0  0  0  0  0  0  0  0  0  0  0  0
    5.5927   -2.6719    0.9227 C   0  0  0  0  0  0  0  0  0  0  0  0
    6.5939   -2.1170   -0.1017 C   0  0  0  0  0  0  0  0  0  0  0  0
    6.7981   -3.4407    0.5761 C   0  0  0  0  0  0  0  0  0  0  0  0
    5.4605   -1.7847    2.1504 C   0  0  0  0  0  0  0  0  0  0  0  0
    4.3756   -0.9539    2.1633 C   0  0  0  0  0  0  0  0  0  0  0  0
    4.5788   -0.0107    3.1361 N   0  0  0  0  0  0  0  0  0  0  0  0
    5.7251   -0.3272    3.8388 C   0  0  0  0  0  0  0  0  0  0  0  0
    6.2444   -1.5110    3.2861 C   0  0  0  0  0  0  0  0  0  0  0  0
    7.3528   -2.0971    3.9151 C   0  0  0  0  0  0  0  0  0  0  0  0
    7.8119   -3.2945    3.5280 F   0  0  0  0  0  0  0  0  0  0  0  0
    7.9805   -1.4530    4.9790 C   0  0  0  0  0  0  0  0  0  0  0  0
    7.5013   -0.2314    5.4445 C   0  0  0  0  0  0  0  0  0  0  0  0
    6.3514    0.3477    4.8964 C   0  0  0  0  0  0  0  0  0  0  0  0
    3.6217   -1.3347   -1.3431 C   0  0  0  0  0  0  0  0  0  0  0  0
    3.3154    0.0855   -1.7326 C   0  0  0  0  0  0  0  0  0  0  0  0
    3.9290   -2.0892   -2.2558 O   0  0  0  0  0  0  0  0  0  0  0  0
  1  2  1  0
  2  3  1  0
  3  4  2  0
  3  9  1  0
  4  5  1  0
  5  6  2  0
  6  7  1  0
  7  8  1  0
  7  9  2  0
 10  4  1  1
 10 11  1  0
 10 17  1  0
 11 12  1  0
 11 26  1  0
 12 13  1  0
 13 14  1  0
 13 15  1  0
 13 16  1  0
 14 15  1  0
 16 17  2  0
 16 20  1  0
 17 18  1  0
 18 19  1  0
 19 20  2  0
 19 25  1  0
 20 21  1  0
 21 22  1  0
 21 23  2  0
 23 24  1  0
 24 25  2  0
 26 27  1  0
 26 28  2  0
M  END
>  <DRUGBANK_ID>  (1) 
DB14802

>  <COMMON_NAME>  (1) 
ONO-2952

>  <CAS_NUMBER>  (1) 
895169-20-7

>  <UNII>  (1) 
ZH8CPX4YNB

$$$$
