
     RDKit          3D

  9  8  0  0  1  0  0  0  0  0999 V2000
    0.9789    0.2389   -0.2357 C   0  0  0  0  0  0  0  0  0  0  0  0
    0.2393    1.7073    0.5604 S   0  0  0  0  0  0  0  0  0  0  0  0
    0.9289    1.7453    2.2771 C   0  0  0  0  0  0  0  0  0  0  0  0
    0.4765    0.6086    3.2043 C   0  0  0  0  0  0  0  0  0  0  0  0
    0.9887   -0.7625    2.7783 C   0  0  1  0  0  0  0  0  0  0  0  0
    2.4547   -0.7963    2.6570 N   0  0  0  0  0  0  0  0  0  0  0  0
    0.4637   -1.9108    3.6474 C   0  0  0  0  0  0  0  0  0  0  0  0
   -0.3005   -2.8013    2.9510 O   0  0  0  0  0  0  0  0  0  0  0  0
    0.6996   -2.0596    4.8307 O   0  0  0  0  0  0  0  0  0  0  0  0
  1  2  1  0
  2  3  1  0
  3  4  1  0
  4  5  1  0
  5  6  1  1
  5  7  1  0
  7  8  1  0
  7  9  2  0
M  END
>  <DRUGBANK_ID>  (1) 
DB02893

>  <SECONDARY_ACCESSION_NUMBERS>  (1) 
EXPT02150

>  <COMMON_NAME>  (1) 
D-Methionine

>  <CAS_NUMBER>  (1) 
348-67-4

>  <UNII>  (1) 
868496F25R

$$$$
