
     RDKit          3D

 19 16  0  0  0  0  0  0  0  0999 V2000
    2.0081    0.3359    0.6927 O   0  0  0  0  0  0  0  0  0  0  0  0
    3.2438    0.6114    0.4761 C   0  0  0  0  0  0  0  0  0  0  0  0
    3.8196    1.3526    1.5597 C   0  0  0  0  0  0  0  0  0  0  0  0
    3.0509    2.5530    0.9900 C   0  0  0  0  0  0  0  0  0  0  0  0
    1.4367    2.7926    1.1023 C   0  0  0  0  0  0  0  0  0  0  0  0
    0.6657    2.3693    0.1718 O   0  0  0  0  0  0  0  0  0  0  0  0
    4.0197    0.4401   -0.4695 O   0  0  0  0  0  0  0  0  0  0  0  0
    3.7385    3.5719    1.8273 N   0  0  0  0  0  0  0  0  0  0  0  0
    1.1619    3.5095    2.1056 O   0  0  0  0  0  0  0  0  0  0  0  0
    0.3251    0.5974   -0.4742 Zn  0  0  0  0  0 15  0  0  0  0  0  0
    0.4456   -1.3430   -0.9121 O   0  0  0  0  0  0  0  0  0  0  0  0
    1.6820   -1.1711   -1.1623 C   0  0  0  0  0  0  0  0  0  0  0  0
    2.7398   -1.9691   -0.3341 C   0  0  0  0  0  0  0  0  0  0  0  0
    2.5342   -2.2798    1.1758 C   0  0  0  0  0  0  0  0  0  0  0  0
    1.0517   -2.6074    1.4954 C   0  0  0  0  0  0  0  0  0  0  0  0
    0.3036   -1.6470    1.8539 O   0  0  0  0  0  0  0  0  0  0  0  0
    1.8802   -0.0829   -1.7856 O   0  0  0  0  0  0  0  0  0  0  0  0
    3.4667   -3.4743    1.4548 N   0  0  0  0  0  0  0  0  0  0  0  0
    0.8673   -3.8575    1.4719 O   0  0  0  0  0  0  0  0  0  0  0  0
  1  2  1  0
  2  7  2  0
  2  3  1  0
  3  4  1  0
  4  5  1  0
  4  8  1  0
  5  9  2  0
  5  6  1  0
 11 12  1  0
 12 17  2  0
 12 13  1  0
 13 14  1  0
 14 15  1  0
 14 18  1  0
 15 19  2  0
 15 16  1  0
M  CHG  7   1  -1   6  -1   8   1  10   2  11  -1  16  -1  18   1
M  END
>  <DRUGBANK_ID>  (1) 
DB16006

>  <COMMON_NAME>  (1) 
Zinc DL-aspartate

>  <CAS_NUMBER>  (1) 
15281-32-0

>  <UNII>  (1) 
T967Q579KA

$$$$
