
     RDKit          3D

 33 38  0  0  0  0  0  0  0  0999 V2000
    3.5027   -1.0741   -0.4864 C   0  0  0  0  0  0  0  0  0  0  0  0
   -3.4579   -1.0859   -0.5364 C   0  0  0  0  0  0  0  0  0  0  0  0
    3.6068    0.2867   -0.7576 C   0  0  0  0  0  0  0  0  0  0  0  0
   -3.5952    0.2835   -0.7359 C   0  0  0  0  0  0  0  0  0  0  0  0
    2.3267   -1.5753    0.0513 C   0  0  0  0  0  0  0  0  0  0  0  0
   -2.2471   -1.5987   -0.0707 C   0  0  0  0  0  0  0  0  0  0  0  0
    2.5415    1.1484   -0.4860 C   0  0  0  0  0  0  0  0  0  0  0  0
   -2.5279    1.1395   -0.4627 C   0  0  0  0  0  0  0  0  0  0  0  0
   -3.8122   -7.1690    3.2331 C   0  0  0  0  0  0  0  0  0  0  0  0
   -4.1305   -7.3401    1.8709 C   0  0  0  0  0  0  0  0  0  0  0  0
   -2.5330   -4.0644    4.7407 C   0  0  0  0  0  0  0  0  0  0  0  0
   -0.2845   -4.8731    4.4996 C   0  0  0  0  0  0  0  0  0  0  0  0
   -2.7527   -4.0152    3.2175 C   0  0  0  0  0  0  0  0  0  0  0  0
   -0.4331   -4.6843    2.9798 C   0  0  0  0  0  0  0  0  0  0  0  0
   -1.4696   -7.5012    2.7466 C   0  0  0  0  0  0  0  0  0  0  0  0
   -2.1207   -6.5052    5.0426 C   0  0  0  0  0  0  0  0  0  0  0  0
   -1.1662   -2.4050    2.6212 C   0  0  0  0  0  0  0  0  0  0  0  0
   -1.8030   -7.3004   -0.7699 C   0  0  0  0  0  0  0  0  0  0  0  0
   -2.4659   -7.1299    3.6742 C   0  0  0  0  0  0  0  0  0  0  0  0
    1.2410   -0.7196    0.2981 C   0  0  0  0  0  0  0  0  0  0  0  0
   -1.1782   -0.7427    0.2571 C   0  0  0  0  0  0  0  0  0  0  0  0
   -3.0947   -7.4082    0.9645 C   0  0  0  0  0  0  0  0  0  0  0  0
   -1.7968   -7.4687    1.3932 C   0  0  0  0  0  0  0  0  0  0  0  0
    1.3513    0.6488    0.0345 C   0  0  0  0  0  0  0  0  0  0  0  0
   -1.3217    0.6339    0.0309 C   0  0  0  0  0  0  0  0  0  0  0  0
    0.1129   -2.0939    1.9057 C   0  0  0  0  0  0  0  0  0  0  0  0
   -1.5858   -5.1127    5.1575 N   0  0  0  0  0  0  0  0  0  0  0  0
   -1.5023   -3.8061    2.4694 N   0  0  0  0  0  0  0  0  0  0  0  0
    0.0364   -1.2750    0.7934 N   0  0  0  0  0  0  0  0  0  0  0  0
    1.1868   -2.4946    2.4135 O   0  0  0  0  0  0  0  0  0  0  0  0
   -3.1960   -7.3726   -0.3920 O   0  0  0  0  0  0  0  0  0  0  0  0
   -0.9093   -7.3142    0.3642 O   0  0  0  0  0  0  0  0  0  0  0  0
    0.0079    1.7632    0.3851 S   0  0  0  0  0  0  0  0  0  0  0  0
  3  1  2  0
  4  2  2  0
  5  1  1  0
  6  2  1  0
  7  3  1  0
  8  4  1  0
 10  9  2  0
 13 11  1  0
 14 12  1  0
 19  9  1  0
 19 15  2  0
 19 16  1  0
 20  5  2  0
 21  6  2  0
 22 10  1  0
 23 15  1  0
 23 22  2  0
 24  7  2  0
 24 20  1  0
 25  8  2  0
 25 21  1  0
 26 17  1  0
 27 11  1  0
 27 12  1  0
 27 16  1  0
 28 13  1  0
 28 14  1  0
 28 17  1  0
 29 20  1  0
 29 21  1  0
 29 26  1  0
 30 26  2  0
 31 18  1  0
 31 22  1  0
 32 18  1  0
 32 23  1  0
 33 24  1  0
 33 25  1  0
M  END
>  <DRUGBANK_ID>  (1) 
DB13042

>  <COMMON_NAME>  (1) 
Fenoverine

>  <CAS_NUMBER>  (1) 
37561-27-6

>  <UNII>  (1) 
N274ZQ6PZJ

>  <SYNONYMS>  (1) 
Fenoverine

$$$$
