
     RDKit          3D

  8  8  0  0  0  0  0  0  0  0999 V2000
   -2.6780   -0.1302   -0.0243 O   0  0  0  0  0  0  0  0  0  0  0  0
   -1.4556   -0.0360    0.0077 C   0  0  0  0  0  0  0  0  0  0  0  0
   -0.5596   -1.2567    0.0578 C   0  0  0  0  0  0  0  0  0  0  0  0
    0.8505   -1.1650   -0.0394 O   0  0  0  0  0  0  0  0  0  0  0  0
    1.4556    0.0360   -0.0077 C   0  0  0  0  0  0  0  0  0  0  0  0
    2.6780    0.1302    0.0243 O   0  0  0  0  0  0  0  0  0  0  0  0
    0.5596    1.2567   -0.0578 C   0  0  0  0  0  0  0  0  0  0  0  0
   -0.8505    1.1650    0.0394 O   0  0  0  0  0  0  0  0  0  0  0  0
  1  2  2  0
  2  3  1  0
  2  8  1  0
  3  4  1  0
  4  5  1  0
  5  6  2  0
  5  7  1  0
  7  8  1  0
M  END
>  <DRUGBANK_ID>  (1) 
DB16177

>  <COMMON_NAME>  (1) 
ABH001

>  <CAS_NUMBER>  (1) 
502-97-6

>  <UNII>  (1) 
YRZ676PGU6

>  <SYNONYMS>  (1) 
Glycolide

$$$$
