
     RDKit          3D

 23 26  0  0  0  0  0  0  0  0999 V2000
    0.9167   -0.0380    0.0129 C   0  0  0  0  0  0  0  0  0  0  0  0
    0.4852   -1.2918    0.6968 C   0  0  0  0  0  0  0  0  0  0  0  0
    0.8354   -2.5836    0.3696 C   0  0  0  0  0  0  0  0  0  0  0  0
    0.3333   -3.5563    1.3062 C   0  0  0  0  0  0  0  0  0  0  0  0
    0.4771   -4.9443    1.4303 C   0  0  0  0  0  0  0  0  0  0  0  0
   -0.1539   -5.5956    2.4573 N   0  0  0  0  0  0  0  0  0  0  0  0
   -0.9341   -4.9000    3.3168 C   0  0  0  0  0  0  0  0  0  0  0  0
   -1.1488   -3.5836    3.2371 N   0  0  0  0  0  0  0  0  0  0  0  0
   -0.4748   -2.9614    2.2522 C   0  0  0  0  0  0  0  0  0  0  0  0
   -0.5501   -1.2640    2.0592 S   0  0  0  0  0  0  0  0  0  0  0  0
   -1.5454   -5.5580    4.3596 N   0  0  0  0  0  0  0  0  0  0  0  0
   -0.8070   -6.3858    5.2997 C   0  0  0  0  0  0  0  0  0  0  0  0
   -1.3511   -7.8330    5.2839 C   0  0  0  0  0  0  0  0  0  0  0  0
   -2.8173   -7.9238    5.4916 N   0  0  0  0  0  0  0  0  0  0  0  0
   -3.4893   -7.0598    4.4910 C   0  0  0  0  0  0  0  0  0  0  0  0
   -2.9966   -5.5843    4.5041 C   0  0  0  0  0  0  0  0  0  0  0  0
    1.2414   -5.6952    0.4240 C   0  0  0  0  0  0  0  0  0  0  0  0
    0.6246   -6.6783   -0.3676 C   0  0  0  0  0  0  0  0  0  0  0  0
    1.3168   -7.3104   -1.4121 C   0  0  0  0  0  0  0  0  0  0  0  0
    2.6417   -6.9747   -1.6878 C   0  0  0  0  0  0  0  0  0  0  0  0
    3.2753   -6.0057   -0.9182 C   0  0  0  0  0  0  0  0  0  0  0  0
    2.5807   -5.3844    0.1224 C   0  0  0  0  0  0  0  0  0  0  0  0
    3.2250   -4.4300    0.8129 F   0  0  0  0  0  0  0  0  0  0  0  0
  1  2  1  0
  2  3  2  0
  2 10  1  0
  3  4  1  0
  4  5  2  0
  4  9  1  0
  5  6  1  0
  5 17  1  0
  6  7  2  0
  7  8  1  0
  7 11  1  0
  8  9  2  0
  9 10  1  0
 11 12  1  0
 11 16  1  0
 12 13  1  0
 13 14  1  0
 14 15  1  0
 15 16  1  0
 17 18  2  0
 17 22  1  0
 18 19  1  0
 19 20  2  0
 20 21  1  0
 21 22  2  0
 22 23  1  0
M  END
>  <DRUGBANK_ID>  (1) 
DB18047

>  <COMMON_NAME>  (1) 
DDP-225 free base anhydrous

>  <CAS_NUMBER>  (1) 
99487-25-9

>  <UNII>  (1) 
CU79LWT2HF

>  <SYNONYMS>  (1) 
Thieno(2,3-d)pyrimidine, 4-(2-fluorophenyl)-6-methyl-2-(1-piperazinyl)-

$$$$
