MTB
     RDKit          3D

 22 23  0  0  0  0  0  0  0  0999 V2000
    1.4858   -0.2954   -0.0244 C   0  0  0  0  0  0  0  0  0  0  0  0
    0.5678   -1.3856   -0.0584 C   0  0  0  0  0  0  0  0  0  0  0  0
   -0.8234   -1.1146   -0.0286 C   0  0  0  0  0  0  0  0  0  0  0  0
   -1.3280    0.1848    0.0016 C   0  0  0  0  0  0  0  0  0  0  0  0
   -0.4474    1.2532    0.0331 C   0  0  0  0  0  0  0  0  0  0  0  0
    0.9344    1.0139   -0.0077 C   0  0  0  0  0  0  0  0  0  0  0  0
    4.6684   -1.7489    0.3657 C   0  0  0  0  0  0  0  0  0  0  0  0
    5.4282   -1.0995    1.3132 C   0  0  0  0  0  0  0  0  0  0  0  0
    6.7516   -1.4617    1.6143 C   0  0  0  0  0  0  0  0  0  0  0  0
    7.2975   -2.5513    0.9167 C   0  0  0  0  0  0  0  0  0  0  0  0
    6.5287   -3.2680    0.0076 C   0  0  0  0  0  0  0  0  0  0  0  0
    5.2308   -2.8482   -0.2918 C   0  0  0  0  0  0  0  0  0  0  0  0
    0.8726   -2.8585   -0.1329 C   0  0  0  0  0  0  0  0  0  0  0  0
    7.4695   -0.6780    2.7051 C   0  0  0  0  0  0  0  0  0  0  0  0
    7.8829   -1.6383    3.8339 C   0  0  0  0  0  0  0  0  0  0  0  0
    8.6622    0.0610    2.0801 C   0  0  0  0  0  0  0  0  0  0  0  0
    6.5584    0.4046    3.3470 C   0  0  0  0  0  0  0  0  0  0  0  0
    2.9187   -0.3531   -0.0096 N   0  0  0  0  0  0  0  0  0  0  0  0
    3.3003   -1.4795    0.3425 N   0  0  0  0  0  0  0  0  0  0  0  0
    0.0511   -3.7418    0.1012 O   0  0  0  0  0  0  0  0  0  0  0  0
    2.1009   -3.2126   -0.5140 O   0  0  0  0  0  0  0  0  0  0  0  0
    8.5767   -3.0108    1.0449 O   0  0  0  0  0  0  0  0  0  0  0  0
  1  2  2  0
  1  6  1  0
  1 18  1  0
  2  3  1  0
  2 13  1  0
  3  4  2  0
  4  5  1  0
  5  6  2  0
  7  8  2  0
  7 12  1  0
  7 19  1  0
  8  9  1  0
  9 10  2  0
  9 14  1  0
 10 11  1  0
 10 22  1  0
 11 12  2  0
 13 20  2  0
 13 21  1  0
 14 15  1  0
 14 16  1  0
 14 17  1  0
 18 19  2  0
M  END
>  <DRUGBANK_ID>  (1) 
DB08216

>  <COMMON_NAME>  (1) 
2-((3'-TERTBUTYL-4'-HYDROXYPHENYL)AZO)BENZOIC ACID

$$$$
