UFO
     RDKit          3D

 14 15  0  0  0  0  0  0  0  0999 V2000
    2.4412   -0.6935   -0.0485 C   0  0  0  0  0  0  0  0  0  0  0  0
    1.2221   -1.3840   -0.0908 C   0  0  0  0  0  0  0  0  0  0  0  0
   -0.0208    0.7184    0.0440 C   0  0  0  0  0  0  0  0  0  0  0  0
    1.2108    1.3900    0.0960 C   0  0  0  0  0  0  0  0  0  0  0  0
    2.4224    0.6971    0.0481 C   0  0  0  0  0  0  0  0  0  0  0  0
    4.5448   -1.0520   -1.2468 N   0  0  0  0  0  0  0  0  0  0  0  0
    3.7486   -1.4396   -0.0882 C   0  0  0  0  0  0  0  0  0  0  0  0
   -1.2248    1.4362    0.0383 N   0  0  0  0  0  0  0  0  0  0  0  0
   -1.3360    2.8137    0.4678 C   0  0  0  0  0  0  0  0  0  0  0  0
   -2.4110    0.6770   -0.3498 C   0  0  0  0  0  0  0  0  0  0  0  0
   -2.4079   -0.6866    0.3518 C   0  0  0  0  0  0  0  0  0  0  0  0
   -1.2159   -1.4414   -0.0314 N   0  0  0  0  0  0  0  0  0  0  0  0
   -1.3233   -2.8165   -0.4699 C   0  0  0  0  0  0  0  0  0  0  0  0
   -0.0169   -0.7156   -0.0378 C   0  0  0  0  0  0  0  0  0  0  0  0
  1  2  2  0
  1  7  1  0
  3 14  2  0
  4  3  1  0
  4  5  2  0
  5  1  1  0
  7  6  1  0
  8  3  1  0
  8 10  1  0
  9  8  1  0
 10 11  1  0
 11 12  1  0
 12 13  1  0
 14  2  1  0
 14 12  1  0
M  END
>  <DRUGBANK_ID>  (1) 
DB08685

>  <COMMON_NAME>  (1) 
1-(1,4-dimethyl-1,2,3,4-tetrahydroquinoxalin-6-yl)methanamine

$$$$
