1001
     RDKit          3D

 17 17  0  0  1  0  0  0  0  0999 V2000
    0.9800   -0.0839    0.1510 O   0  0  0  0  0  0  0  0  0  0  0  0
    2.5214   -6.0588   -1.3953 O   0  0  0  0  0  0  0  0  0  0  0  0
   -1.0111   -5.5984    0.4386 O   0  0  0  0  0  0  0  0  0  0  0  0
    2.4472    0.2496   -2.3547 N   0  0  0  0  0  0  0  0  0  0  0  0
    2.9558    0.9045   -3.5596 C   0  0  0  0  0  0  0  0  0  0  0  0
    0.9824    0.0879   -2.2716 C   0  0  0  0  0  0  0  0  0  0  0  0
    0.5408   -0.7390   -1.0400 C   0  0  0  0  0  0  0  0  0  0  0  0
    2.5087    2.3681   -3.5351 C   0  0  0  0  0  0  0  0  0  0  0  0
    4.4948    0.8382   -3.4971 C   0  0  0  0  0  0  0  0  0  0  0  0
    2.4998    0.1895   -4.8407 C   0  0  0  0  0  0  0  0  0  0  0  0
    1.0448   -2.1710   -1.0783 C   0  0  0  0  0  0  0  0  0  0  0  0
    0.1537   -3.2424   -0.9537 C   0  0  0  0  0  0  0  0  0  0  0  0
    2.4039   -2.4661   -1.2657 C   0  0  0  0  0  0  0  0  0  0  0  0
    0.5945   -4.5843   -1.0315 C   0  0  0  0  0  0  0  0  0  0  0  0
    1.9543   -4.8226   -1.2716 C   0  0  0  0  0  0  0  0  0  0  0  0
    2.8477   -3.7746   -1.3906 C   0  0  0  0  0  0  0  0  0  0  0  0
   -0.4271   -5.6702   -0.8554 C   0  0  0  0  0  0  0  0  0  0  0  0
  1  7  1  0
  2 15  1  0
  3 17  1  0
  4  5  1  0
  4  6  1  0
  5  8  1  0
  5  9  1  0
  5 10  1  0
  6  7  1  0
  7 11  1  0
 11 12  2  0
 11 13  1  0
 12 14  1  0
 13 16  2  0
 14 15  2  0
 14 17  1  0
 15 16  1  0
M  END
>  <DRUGBANK_ID>  (1) 
DB01001

>  <SECONDARY_ACCESSION_NUMBERS>  (1) 
APRD00553

>  <COMMON_NAME>  (1) 
Salbutamol

>  <CAS_NUMBER>  (1) 
18559-94-9

>  <UNII>  (1) 
QF8SVZ843E

>  <SYNONYMS>  (1) 
Albuterol; Salbutamol; Salbutamolum

$$$$
