
     RDKit          3D

 20 22  0  0  0  0  0  0  0  0999 V2000
    2.4675   -0.0122   -0.0153 C   0  0  0  0  0  0  0  0  0  0  0  0
    0.9651    0.0142   -0.0041 C   0  0  0  0  0  0  0  0  0  0  0  0
    0.2754    1.2298    0.0023 C   0  0  0  0  0  0  0  0  0  0  0  0
   -1.1274    1.2723    0.0092 C   0  0  0  0  0  0  0  0  0  0  0  0
   -1.8863    0.1035   -0.0009 C   0  0  0  0  0  0  0  0  0  0  0  0
   -1.1874   -1.1236   -0.0005 C   0  0  0  0  0  0  0  0  0  0  0  0
    0.2217   -1.1692   -0.0018 C   0  0  0  0  0  0  0  0  0  0  0  0
   -3.6878    0.1059    0.0041 S   0  0  0  0  0  0  0  0  0  0  0  0
   -4.2766    1.8145   -0.0872 C   0  0  0  0  0  0  0  0  0  0  0  0
   -4.9974    2.2262    1.0322 C   0  0  0  0  0  0  0  0  0  0  0  0
   -5.5172    3.5267    1.1462 C   0  0  0  0  0  0  0  0  0  0  0  0
   -5.1620    4.4908    0.2002 C   0  0  0  0  0  0  0  0  0  0  0  0
   -4.4280    4.1192   -0.8758 C   0  0  0  0  0  0  0  0  0  0  0  0
   -4.2101    2.7542   -1.1526 C   0  0  0  0  0  0  0  0  0  0  0  0
   -4.2836    2.5469   -2.6471 C   0  0  0  0  0  0  0  0  0  0  0  0
   -5.7776    3.1450   -3.2706 C   0  0  0  0  0  0  0  0  0  0  0  0
   -5.9602    2.8861   -4.7916 C   0  0  0  0  0  0  0  0  0  0  0  0
   -4.9314    1.9309   -5.1468 N   0  0  0  0  0  0  0  0  0  0  0  0
   -5.0538    0.8491   -4.1480 C   0  0  0  0  0  0  0  0  0  0  0  0
   -3.9595    1.1251   -3.1658 C   0  0  0  0  0  0  0  0  0  0  0  0
  1  2  1  0
  2  3  2  0
  2  7  1  0
  3  4  1  0
  4  5  2  0
  5  6  1  0
  5  8  1  0
  6  7  2  0
  8  9  1  0
  9 10  2  0
  9 14  1  0
 10 11  1  0
 11 12  2  0
 12 13  1  0
 13 14  2  0
 14 15  1  0
 15 16  1  0
 15 20  1  0
 16 17  1  0
 17 18  1  0
 18 19  1  0
 19 20  1  0
M  END
>  <DRUGBANK_ID>  (1) 
DB12641

>  <COMMON_NAME>  (1) 
Tedatioxetine

>  <CAS_NUMBER>  (1) 
508233-95-2

>  <UNII>  (1) 
5H681S8O3S

>  <SYNONYMS>  (1) 
Tedatioxetine

$$$$
