
     RDKit          3D

 20 21  0  0  1  0  0  0  0  0999 V2000
    1.0502   -0.0640   -0.0303 C   0  0  0  0  0  0  0  0  0  0  0  0
    0.6272   -0.3190    1.4111 C   0  0  0  0  0  0  0  0  0  0  0  0
    1.1409    0.6945    2.3379 N   0  0  0  0  0  0  0  0  0  0  0  0
    0.1788    1.5044    3.0680 C   0  0  0  0  0  0  0  0  0  0  0  0
    2.5265    0.7910    2.5184 C   0  0  0  0  0  0  0  0  0  0  0  0
    3.3103    0.0382    1.9373 O   0  0  0  0  0  0  0  0  0  0  0  0
    2.9470    1.8072    3.3940 O   0  0  0  0  0  0  0  0  0  0  0  0
    4.3490    2.0244    3.5317 C   0  0  0  0  0  0  0  0  0  0  0  0
    5.1924    2.1222    2.4187 C   0  0  0  0  0  0  0  0  0  0  0  0
    6.5581    2.3204    2.6203 C   0  0  0  0  0  0  0  0  0  0  0  0
    7.0788    2.4838    3.9094 C   0  0  0  0  0  0  0  0  0  0  0  0
    8.5616    2.7113    3.8605 C   0  0  0  0  0  0  0  0  0  0  0  0
    8.7468    3.1189    2.3861 C   0  0  0  0  0  0  0  0  0  0  0  0
    7.6442    2.3803    1.5738 C   0  0  1  0  0  0  0  0  0  0  0  0
    8.1581    1.0801    1.1324 N   0  0  0  0  0  0  0  0  0  0  0  0
    7.1480    0.1352    0.6559 C   0  0  0  0  0  0  0  0  0  0  0  0
    7.8643   -1.1245    0.1971 C   0  0  0  0  0  0  0  0  0  0  0  0
    8.4787   -2.2051   -0.1964 C   0  0  0  0  0  0  0  0  0  0  0  0
    6.2474    2.4109    5.0190 C   0  0  0  0  0  0  0  0  0  0  0  0
    4.8707    2.1890    4.8261 C   0  0  0  0  0  0  0  0  0  0  0  0
  1  2  1  0
  2  3  1  0
  3  4  1  0
  3  5  1  0
  5  6  2  0
  5  7  1  0
  7  8  1  0
  8  9  2  0
  8 20  1  0
  9 10  1  0
 10 11  2  0
 11 12  1  0
 11 19  1  0
 12 13  1  0
 14 13  1  0
 14 10  1  0
 14 15  1  1
 15 16  1  0
 16 17  1  0
 17 18  3  0
 19 20  2  0
M  END
>  <DRUGBANK_ID>  (1) 
DB16213

>  <COMMON_NAME>  (1) 
Ladostigil

>  <CAS_NUMBER>  (1) 
209394-27-4

>  <UNII>  (1) 
SW3H1USR4Q

>  <SYNONYMS>  (1) 
Ladostigil; Tv-3326 free base

$$$$
