TNK
     RDKit          3D

 27 29  0  0  0  0  0  0  0  0999 V2000
    1.0968   -0.2730   -0.1887 C   0  0  0  0  0  0  0  0  0  0  0  0
    0.2858   -1.3910   -0.0754 C   0  0  0  0  0  0  0  0  0  0  0  0
   -1.0963   -1.2205   -0.0185 C   0  0  0  0  0  0  0  0  0  0  0  0
   -1.6747    0.0528    0.0267 C   0  0  0  0  0  0  0  0  0  0  0  0
   -0.8819    1.1647    0.0226 C   0  0  0  0  0  0  0  0  0  0  0  0
    0.4592    0.9761   -0.1797 C   0  0  0  0  0  0  0  0  0  0  0  0
    3.5575    0.0602   -1.1025 C   0  0  0  0  0  0  0  0  0  0  0  0
    3.6819    1.4464   -1.3601 N   0  0  0  0  0  0  0  0  0  0  0  0
    4.3851    1.9392   -2.4427 C   0  0  0  0  0  0  0  0  0  0  0  0
    4.3730    3.1149   -2.8108 O   0  0  0  0  0  0  0  0  0  0  0  0
    5.1390    1.0433   -3.1177 N   0  0  0  0  0  0  0  0  0  0  0  0
    5.2541   -0.2827   -2.8365 C   0  0  0  0  0  0  0  0  0  0  0  0
    6.0124   -0.9775   -3.4754 O   0  0  0  0  0  0  0  0  0  0  0  0
    4.3793   -0.8086   -1.7384 C   0  0  0  0  0  0  0  0  0  0  0  0
    2.5837   -0.4441   -0.0415 C   0  0  0  0  0  0  0  0  0  0  0  0
    4.5172   -2.2994   -1.4504 C   0  0  0  0  0  0  0  0  0  0  0  0
    4.0316   -3.1342   -2.6279 C   0  0  0  0  0  0  0  0  0  0  0  0
    5.9281   -2.6653   -0.9838 C   0  0  0  0  0  0  0  0  0  0  0  0
    2.9844    2.4572   -0.5967 C   0  0  0  0  0  0  0  0  0  0  0  0
    3.7908    3.4376    0.0324 O   0  0  0  0  0  0  0  0  0  0  0  0
    4.6317    2.8718    1.0297 C   0  0  0  0  0  0  0  0  0  0  0  0
    3.9812    2.1137    2.1786 C   0  0  0  0  0  0  0  0  0  0  0  0
    4.2464    0.7390    2.3060 C   0  0  0  0  0  0  0  0  0  0  0  0
    3.5964   -0.0486    3.2597 C   0  0  0  0  0  0  0  0  0  0  0  0
    2.8352    0.5661    4.2394 C   0  0  0  0  0  0  0  0  0  0  0  0
    2.6590    1.9502    4.2022 C   0  0  0  0  0  0  0  0  0  0  0  0
    3.1406    2.7077    3.1233 C   0  0  0  0  0  0  0  0  0  0  0  0
  1  2  2  0
  1  6  1  0
  1 15  1  0
  2  3  1  0
  3  4  2  0
  4  5  1  0
  5  6  2  0
  7  8  1  0
  7 14  2  0
  7 15  1  0
  8  9  1  0
  8 19  1  0
  9 10  2  0
  9 11  1  0
 11 12  1  0
 12 13  2  0
 12 14  1  0
 14 16  1  0
 16 17  1  0
 16 18  1  0
 19 20  1  0
 20 21  1  0
 21 22  1  0
 22 23  2  0
 22 27  1  0
 23 24  1  0
 24 25  2  0
 25 26  1  0
 26 27  2  0
M  END
>  <DRUGBANK_ID>  (1) 
DB08634

>  <COMMON_NAME>  (1) 
6-BENZYL-1-BENZYLOXYMETHYL-5-ISOPROPYL URACIL

>  <UNII>  (1) 
2HRU1H9M1I

$$$$
