AM3
     RDKit          3D

 22 23  0  0  0  0  0  0  0  0999 V2000
    0.9159   -0.0109    0.0228 O   0  0  0  0  0  0  0  0  0  0  0  0
    0.4513   -0.2621   -1.3122 C   0  0  1  0  0  0  0  0  0  0  0  0
    1.3512    0.4243   -2.3138 C   0  0  1  0  0  0  0  0  0  0  0  0
    1.5840    1.8774   -1.9526 C   0  0  0  0  0  0  0  0  0  0  0  0
    2.9904    2.0589   -2.1633 O   0  0  0  0  0  0  0  0  0  0  0  0
    0.4705   -1.7536   -1.6281 C   0  0  2  0  0  0  0  0  0  0  0  0
   -0.4003   -2.4365   -0.7104 O   0  0  0  0  0  0  0  0  0  0  0  0
    1.8799   -2.3688   -1.5850 C   0  0  1  0  0  0  0  0  0  0  0  0
    1.8981   -3.5155   -2.4555 O   0  0  0  0  0  0  0  0  0  0  0  0
    3.0528   -1.4433   -1.9557 C   0  0  2  0  0  0  0  0  0  0  0  0
    3.8780   -1.4143   -0.7904 O   0  0  0  0  0  0  0  0  0  0  0  0
    2.7009   -0.0903   -2.2347 N   0  0  0  0  0  0  0  0  0  0  0  0
    3.6143    0.8846   -2.3737 C   0  0  0  0  0  0  0  0  0  0  0  0
    4.8710    0.7307   -2.6122 N   0  0  0  0  0  0  0  0  0  0  0  0
    5.7912    1.8427   -2.8320 C   0  0  0  0  0  0  0  0  0  0  0  0
    5.5541    2.4899   -4.2033 C   0  0  0  0  0  0  0  0  0  0  0  0
    4.1644    3.1078   -4.2950 C   0  0  0  0  0  0  0  0  0  0  0  0
    3.9665    4.1326   -3.1491 C   0  0  0  0  0  0  0  0  0  0  0  0
    4.8492    5.3423   -3.3414 C   0  0  0  0  0  0  0  0  0  0  0  0
    4.4716    6.0244   -4.6460 C   0  0  0  0  0  0  0  0  0  0  0  0
    2.9968    6.4397   -4.6504 C   0  0  0  0  0  0  0  0  0  0  0  0
    2.7225    7.4157   -3.5181 C   0  0  0  0  0  0  0  0  0  0  0  0
  2  1  1  1
  2  3  1  0
  2  6  1  0
  3  4  1  1
  3 12  1  0
  4  5  1  0
  5 13  1  0
  6  8  1  0
  6  7  1  1
  8 10  1  0
  8  9  1  6
 10 12  1  0
 10 11  1  1
 12 13  1  0
 13 14  2  0
 14 15  1  0
 15 16  1  0
 16 17  1  0
 17 18  1  0
 18 19  1  0
 19 20  1  0
 20 21  1  0
 21 22  1  0
M  END
>  <DRUGBANK_ID>  (1) 
DB07367

>  <COMMON_NAME>  (1) 
(3Z,5S,6R,7S,8S,8aR)-3-(octylimino)hexahydro[1,3]oxazolo[3,4-a]pyridine-5,6,7,8-tetrol

$$$$
