23N
     RDKit          3D

 15 15  0  0  0  0  0  0  0  0999 V2000
   -2.2670   -4.4977    3.0064 C   0  0  0  0  0  0  0  0  0  0  0  0
   -2.7563   -5.6066    3.6957 C   0  0  0  0  0  0  0  0  0  0  0  0
   -2.3761   -6.8920    3.3122 C   0  0  0  0  0  0  0  0  0  0  0  0
   -1.5709   -7.0771    2.1918 C   0  0  0  0  0  0  0  0  0  0  0  0
   -1.1065   -5.9734    1.4828 C   0  0  0  0  0  0  0  0  0  0  0  0
   -1.4379   -4.6740    1.8927 C   0  0  0  0  0  0  0  0  0  0  0  0
   -0.9313   -3.4890    1.1130 C   0  0  0  0  0  0  0  0  0  0  0  0
    0.5998   -3.4075    1.1148 C   0  0  1  0  0  0  0  0  0  0  0  0
    1.0132   -2.6000   -0.0833 C   0  0  0  0  0  0  0  0  0  0  0  0
    0.8539   -1.3975   -0.2227 O   0  0  0  0  0  0  0  0  0  0  0  0
    1.5505   -3.3525   -1.0590 O   0  0  0  0  0  0  0  0  0  0  0  0
    1.0758   -2.7432    2.3998 C   0  0  0  0  0  0  0  0  0  0  0  0
    2.5711   -2.7007    2.4207 N   0  0  0  0  0  0  0  0  0  0  0  0
    3.1007   -1.5852    2.4684 O   0  0  0  0  0  0  0  0  0  0  0  0
    3.1679   -3.7837    2.4049 O   0  0  0  0  0  0  0  0  0  0  0  0
  1  6  2  0
  2  1  1  0
  2  3  2  0
  3  4  1  0
  4  5  2  0
  6  7  1  0
  6  5  1  0
  8 12  1  1
  8  9  1  0
  8  7  1  0
  9 10  2  0
  9 11  1  0
 12 13  1  0
 13 14  1  0
 15 13  2  0
M  CHG  2  13   1  14  -1
M  END
>  <DRUGBANK_ID>  (1) 
DB06924

>  <COMMON_NAME>  (1) 
(2R)-2-benzyl-3-nitropropanoic acid

$$$$
