RBS
     RDKit          3D

 22 24  0  0  0  0  0  0  0  0999 V2000
    0.9922   -0.1373   -0.1564 O   0  0  0  0  0  0  0  0  0  0  0  0
    2.2172   -0.0875   -0.0290 C   0  0  0  0  0  0  0  0  0  0  0  0
    3.0485   -0.4360   -1.2134 C   0  0  0  0  0  0  0  0  0  0  0  0
    4.3848   -0.4562   -1.2963 C   0  0  0  0  0  0  0  0  0  0  0  0
    2.8866    0.3323    1.0996 N   0  0  0  0  0  0  0  0  0  0  0  0
    2.2320    0.6933    2.2939 C   0  0  0  0  0  0  0  0  0  0  0  0
    2.7120    1.7662    3.0486 C   0  0  0  0  0  0  0  0  0  0  0  0
    1.1269   -0.0128    2.7516 C   0  0  0  0  0  0  0  0  0  0  0  0
    0.5200    0.3428    3.9567 C   0  0  0  0  0  0  0  0  0  0  0  0
    0.9720    1.4073    4.7201 C   0  0  0  0  0  0  0  0  0  0  0  0
    2.0664    2.1593    4.2596 C   0  0  0  0  0  0  0  0  0  0  0  0
    2.4113    3.2574    5.0779 C   0  0  0  0  0  0  0  0  0  0  0  0
    1.7676    3.5105    6.2347 N   0  0  0  0  0  0  0  0  0  0  0  0
    0.7632    2.7058    6.5696 C   0  0  0  0  0  0  0  0  0  0  0  0
    0.3272    1.6659    5.8595 N   0  0  0  0  0  0  0  0  0  0  0  0
    3.3213    4.2431    4.6347 N   0  0  0  0  0  0  0  0  0  0  0  0
    3.9234    5.2315    5.4478 C   0  0  0  0  0  0  0  0  0  0  0  0
    4.1575    6.4950    4.8962 C   0  0  0  0  0  0  0  0  0  0  0  0
    4.3883    4.9683    6.7434 C   0  0  0  0  0  0  0  0  0  0  0  0
    5.0493    5.9553    7.4795 C   0  0  0  0  0  0  0  0  0  0  0  0
    5.2818    7.2062    6.9131 C   0  0  0  0  0  0  0  0  0  0  0  0
    4.8522    7.4700    5.6143 C   0  0  0  0  0  0  0  0  0  0  0  0
  1  2  2  0
  2  3  1  0
  2  5  1  0
  3  4  2  0
  5  6  1  0
  6  8  2  0
  6  7  1  0
  7 11  2  0
  8  9  1  0
  9 10  2  0
 10 11  1  0
 10 15  1  0
 11 12  1  0
 12 16  1  0
 12 13  2  0
 13 14  1  0
 14 15  2  0
 16 17  1  0
 17 19  1  0
 17 18  2  0
 18 22  1  0
 19 20  2  0
 20 21  1  0
 21 22  2  0
M  END
>  <DRUGBANK_ID>  (1) 
DB08462

>  <COMMON_NAME>  (1) 
N-(4-PHENYLAMINO-QUINAZOLIN-6-YL)-ACRYLAMIDE

$$$$
