PCS
     RDKit          3D

 13 13  0  0  0  0  0  0  0  0999 V2000
    1.0145    2.3743    0.5799 N   0  0  0  0  0  0  0  0  0  0  0  0
    0.5504    0.9801    0.8702 C   0  0  2  0  0  0  0  0  0  0  0  0
    1.3139    0.0613   -0.2417 C   0  0  0  0  0  0  0  0  0  0  0  0
   -1.0415    1.0373    1.0286 C   0  0  0  0  0  0  0  0  0  0  0  0
    2.2781    0.5085   -0.8519 O   0  0  0  0  0  0  0  0  0  0  0  0
   -2.8687   -0.3495    2.3889 C   0  0  0  0  0  0  0  0  0  0  0  0
   -1.7559   -0.1892    1.5941 C   0  0  0  0  0  0  0  0  0  0  0  0
   -1.1361   -1.3840    1.3562 C   0  0  0  0  0  0  0  0  0  0  0  0
   -1.5507   -2.6888    1.5172 C   0  0  0  0  0  0  0  0  0  0  0  0
   -2.5939   -2.8316    2.3676 C   0  0  0  0  0  0  0  0  0  0  0  0
   -3.2540   -1.6677    2.8024 C   0  0  0  0  0  0  0  0  0  0  0  0
    0.9742   -1.4123   -0.4473 C   0  0  0  0  0  0  0  0  0  0  0  0
    1.8029   -2.3648    0.8465 Cl  0  0  0  0  0  0  0  0  0  0  0  0
  2  4  1  0
  2  3  1  0
  2  1  1  6
  3  5  2  0
  3 12  1  0
  4  7  1  0
  6  7  2  0
  6 11  1  0
  7  8  1  0
  8  9  2  0
  9 10  1  0
 10 11  2  0
 12 13  1  0
M  END
>  <DRUGBANK_ID>  (1) 
DB08374

>  <COMMON_NAME>  (1) 
Phenylalanylmethylchloride

>  <CAS_NUMBER>  (1) 
52735-71-4

>  <SYNONYMS>  (1) 
(3S)-3-Amino-1-chloro-4-phenyl-2-butanone; L-Phenylalanine chloromethyl ketone

$$$$
