
     RDKit          3D

 11 11  0  0  1  0  0  0  0  0999 V2000
   -1.0306    0.1684    2.3085 C   0  0  0  0  0  0  0  0  0  0  0  0
    0.3662   -0.2653    2.7362 C   0  0  0  0  0  0  0  0  0  0  0  0
    0.9327   -1.3894    1.8492 C   0  0  2  0  0  0  0  0  0  0  0  0
    0.5553   -1.1751    0.4350 N   0  0  0  0  0  0  0  0  0  0  0  0
    0.4915   -2.7754    2.3789 C   0  0  0  0  0  0  0  0  0  0  0  0
    0.9846   -3.9588    1.5743 C   0  0  0  0  0  0  0  0  0  0  0  0
    2.0195   -3.8584    0.6343 C   0  0  0  0  0  0  0  0  0  0  0  0
    2.3795   -4.9356   -0.1641 C   0  0  0  0  0  0  0  0  0  0  0  0
    1.7752   -6.1706    0.0503 C   0  0  0  0  0  0  0  0  0  0  0  0
    0.8076   -6.3121    1.0397 C   0  0  0  0  0  0  0  0  0  0  0  0
    0.3831   -5.2084    1.7791 C   0  0  0  0  0  0  0  0  0  0  0  0
  1  2  1  0
  3  5  1  0
  3  4  1  6
  3  2  1  0
  5  6  1  0
  6  7  2  0
  6 11  1  0
  7  8  1  0
  8  9  2  0
  9 10  1  0
 10 11  2  0
M  END
>  <DRUGBANK_ID>  (1) 
DB02972

>  <SECONDARY_ACCESSION_NUMBERS>  (1) 
EXPT02626

>  <COMMON_NAME>  (1) 
1-Benzyl-(R)-Propylamine

>  <UNII>  (1) 
6TJ3786QZV

$$$$
