BP4
     RDKit          3D

 16 17  0  0  0  0  0  0  0  0999 V2000
    1.0279    0.0721    0.0209 C   0  0  0  0  0  0  0  0  0  0  0  0
    0.5314    0.2321   -1.3996 C   0  0  0  0  0  0  0  0  0  0  0  0
   -0.1679   -0.5360   -2.0476 O   0  0  0  0  0  0  0  0  0  0  0  0
   -0.2778   -3.7915    1.4635 C   0  0  0  0  0  0  0  0  0  0  0  0
   -1.0320   -2.6473    1.7475 C   0  0  0  0  0  0  0  0  0  0  0  0
   -0.5983   -1.3849    1.3265 C   0  0  0  0  0  0  0  0  0  0  0  0
    0.6043   -1.2481    0.6189 C   0  0  0  0  0  0  0  0  0  0  0  0
    1.3685   -2.3869    0.3482 C   0  0  0  0  0  0  0  0  0  0  0  0
    0.9059   -3.6454    0.7210 C   0  0  0  0  0  0  0  0  0  0  0  0
   -1.1163   -7.6572    3.0834 C   0  0  0  0  0  0  0  0  0  0  0  0
   -1.8298   -5.7600    1.7531 C   0  0  0  0  0  0  0  0  0  0  0  0
   -0.6241   -5.1009    2.0256 C   0  0  0  0  0  0  0  0  0  0  0  0
   -2.0760   -7.0299    2.2877 C   0  0  0  0  0  0  0  0  0  0  0  0
    0.3045   -5.7296    2.8731 C   0  0  0  0  0  0  0  0  0  0  0  0
    0.0833   -7.0126    3.3636 C   0  0  0  0  0  0  0  0  0  0  0  0
    0.9526    1.3808   -1.9664 O   0  0  0  0  0  0  0  0  0  0  0  0
  1  2  1  0
  1  7  1  0
  2  3  2  0
  2 16  1  0
  4  5  2  0
  4  9  1  0
  4 12  1  0
  5  6  1  0
  6  7  2  0
  7  8  1  0
  8  9  2  0
 10 13  2  0
 10 15  1  0
 11 12  2  0
 11 13  1  0
 12 14  1  0
 14 15  2  0
M  END
>  <DRUGBANK_ID>  (1) 
DB07477

>  <COMMON_NAME>  (1) 
Felbinac

>  <CAS_NUMBER>  (1) 
5728-52-9

>  <UNII>  (1) 
94WNJ5U8L7

>  <SYNONYMS>  (1) 
Felbinac

$$$$
