
     RDKit          3D

 28 31  0  0  0  0  0  0  0  0999 V2000
   -2.1149   -0.0208   -0.0441 C   0  0  0  0  0  0  0  0  0  0  0  0
   -0.6727   -0.0770    0.0207 N   0  0  0  0  0  0  0  0  0  0  0  0
    0.1406   -1.1857    0.0579 C   0  0  0  0  0  0  0  0  0  0  0  0
    1.4297   -0.6913    0.0044 C   0  0  0  0  0  0  0  0  0  0  0  0
    1.2923    0.7027   -0.0186 C   0  0  0  0  0  0  0  0  0  0  0  0
    0.0152    1.0864    0.0030 N   0  0  0  0  0  0  0  0  0  0  0  0
   -0.2868   -2.5743    0.0689 C   0  0  0  0  0  0  0  0  0  0  0  0
   -1.0896   -3.0720   -0.9561 C   0  0  0  0  0  0  0  0  0  0  0  0
   -1.4288   -4.4209   -0.9889 C   0  0  0  0  0  0  0  0  0  0  0  0
   -0.9375   -5.3068   -0.0279 C   0  0  0  0  0  0  0  0  0  0  0  0
   -0.0953   -4.8122    0.9744 C   0  0  0  0  0  0  0  0  0  0  0  0
    0.1894   -3.4477    1.0508 C   0  0  0  0  0  0  0  0  0  0  0  0
   -1.3551   -7.0319    0.0363 S   0  0  0  0  0  0  0  0  0  0  0  0
   -2.4548   -7.3007   -1.3362 C   0  0  0  0  0  0  0  0  0  0  0  0
   -2.0170   -7.2013   -2.6516 C   0  0  0  0  0  0  0  0  0  0  0  0
   -2.8755   -7.5204   -3.6958 C   0  0  0  0  0  0  0  0  0  0  0  0
   -4.1348   -8.0543   -3.4212 C   0  0  0  0  0  0  0  0  0  0  0  0
   -4.5728   -8.2624   -2.0957 C   0  0  0  0  0  0  0  0  0  0  0  0
   -3.7520   -7.7464   -1.0820 C   0  0  0  0  0  0  0  0  0  0  0  0
   -5.8620   -9.0973   -1.8100 C   0  0  0  0  0  0  0  0  0  0  0  0
   -5.7031  -10.4840   -2.5025 C   0  0  0  0  0  0  0  0  0  0  0  0
   -7.0130  -11.2535   -2.5858 C   0  0  0  0  0  0  0  0  0  0  0  0
   -8.0764  -10.4671   -3.1189 O   0  0  0  0  0  0  0  0  0  0  0  0
   -8.2991   -9.1877   -2.5295 C   0  0  0  0  0  0  0  0  0  0  0  0
   -7.0373   -8.3519   -2.4743 C   0  0  0  0  0  0  0  0  0  0  0  0
   -6.1309   -9.3719   -0.2677 C   0  0  0  0  0  0  0  0  0  0  0  0
   -5.3903   -9.0638    0.6702 O   0  0  0  0  0  0  0  0  0  0  0  0
   -7.2302  -10.0467    0.1535 N   0  0  0  0  0  0  0  0  0  0  0  0
  1  2  1  0
  2  3  1  0
  2  6  1  0
  3  4  2  0
  3  7  1  0
  4  5  1  0
  5  6  2  0
  7  8  2  0
  7 12  1  0
  8  9  1  0
  9 10  2  0
 10 11  1  0
 10 13  1  0
 11 12  2  0
 13 14  1  0
 14 15  2  0
 14 19  1  0
 15 16  1  0
 16 17  2  0
 17 18  1  0
 18 19  2  0
 18 20  1  0
 20 21  1  0
 20 25  1  0
 20 26  1  0
 21 22  1  0
 22 23  1  0
 23 24  1  0
 24 25  1  0
 26 27  2  0
 26 28  1  0
M  END
>  <DRUGBANK_ID>  (1) 
DB11645

>  <COMMON_NAME>  (1) 
PF-4191834

>  <CAS_NUMBER>  (1) 
1029317-21-2

>  <UNII>  (1) 
YX55DXP4T1

$$$$
