
     RDKit          3D

 19 19  0  0  0  0  0  0  0  0999 V2000
    1.0757   -0.0489   -0.0255 C   0  0  0  0  0  0  0  0  0  0  0  0
    0.6712    0.3997   -1.4278 C   0  0  0  0  0  0  0  0  0  0  0  0
    1.1482   -0.5038   -2.4715 O   0  0  0  0  0  0  0  0  0  0  0  0
    2.5083   -0.4982   -2.6523 C   0  0  0  0  0  0  0  0  0  0  0  0
    3.2391    0.1946   -1.9779 O   0  0  0  0  0  0  0  0  0  0  0  0
    3.0318   -1.4189   -3.7539 C   0  0  0  0  0  0  0  0  0  0  0  0
    2.1888   -2.1995   -4.4759 C   0  0  0  0  0  0  0  0  0  0  0  0
    2.5351   -3.0746   -5.5620 C   0  0  0  0  0  0  0  0  0  0  0  0
    2.1733   -2.8952   -6.8231 N   0  0  0  0  0  0  0  0  0  0  0  0
    2.9032   -3.7727   -7.5824 C   0  0  0  0  0  0  0  0  0  0  0  0
    3.6888   -4.5496   -6.7721 C   0  0  0  0  0  0  0  0  0  0  0  0
    3.3620   -4.2141   -5.4639 N   0  0  0  0  0  0  0  0  0  0  0  0
    4.0233   -4.7202   -4.2646 C   0  0  0  0  0  0  0  0  0  0  0  0
    4.7293   -5.4372   -7.1853 N   0  0  0  0  0  0  0  0  0  0  0  0
    4.8391   -5.6310   -8.4018 O   0  0  0  0  0  0  0  0  0  0  0  0
    5.4627   -5.9137   -6.3150 O   0  0  0  0  0  0  0  0  0  0  0  0
    4.5463   -1.3802   -3.9358 C   0  0  0  0  0  0  0  0  0  0  0  0
    5.2819   -0.9753   -3.0357 O   0  0  0  0  0  0  0  0  0  0  0  0
    5.2198   -1.9058   -5.1728 C   0  0  0  0  0  0  0  0  0  0  0  0
  1  2  1  0
  2  3  1  0
  3  4  1  0
  4  5  2  0
  4  6  1  0
  6  7  2  0
  6 17  1  0
  7  8  1  0
  8  9  2  0
  8 12  1  0
  9 10  1  0
 10 11  2  0
 11 12  1  0
 11 14  1  0
 12 13  1  0
 14 15  2  0
 14 16  1  0
 17 18  2  0
 17 19  1  0
M  CHG  2  14   1  16  -1
M  END
>  <DRUGBANK_ID>  (1) 
DB13319

>  <COMMON_NAME>  (1) 
Propenidazole

>  <CAS_NUMBER>  (1) 
76448-31-2

>  <UNII>  (1) 
F0O89MB7QE

>  <SYNONYMS>  (1) 
Propenidazole

$$$$
