SG2
     RDKit          3D

 15 16  0  0  0  0  0  0  0  0999 V2000
    1.1220    0.0611   -0.0359 S   0  0  0  0  0  0  0  0  0  0  0  0
    0.5377   -0.5127   -1.6115 C   0  0  0  0  0  0  0  0  0  0  0  0
    0.6292   -1.8781   -1.9376 C   0  0  0  0  0  0  0  0  0  0  0  0
    0.2367   -2.3366   -3.2084 C   0  0  0  0  0  0  0  0  0  0  0  0
   -0.2421   -1.4337   -4.1536 C   0  0  0  0  0  0  0  0  0  0  0  0
   -0.6452   -1.6912   -5.4543 N   0  0  0  0  0  0  0  0  0  0  0  0
   -0.6675   -2.9548   -6.1555 C   0  0  0  0  0  0  0  0  0  0  0  0
   -1.1404   -0.3026   -6.2613 S   0  0  0  0  0  0  0  0  0  0  0  0
   -0.8418    0.7478   -4.8794 C   0  0  0  0  0  0  0  0  0  0  0  0
   -1.0271    1.9519   -4.8554 O   0  0  0  0  0  0  0  0  0  0  0  0
   -0.3344   -0.0784   -3.7767 C   0  0  0  0  0  0  0  0  0  0  0  0
    0.0331    0.4062   -2.5273 C   0  0  0  0  0  0  0  0  0  0  0  0
    0.4629   -1.0576    1.0065 N   0  0  0  0  0  0  0  0  0  0  0  0
    0.4763    1.3195    0.2532 O   0  0  0  0  0  0  0  0  0  0  0  0
    2.5530   -0.1194   -0.0241 O   0  0  0  0  0  0  0  0  0  0  0  0
  1  2  1  0
  1 13  1  0
  1 14  2  0
  1 15  2  0
  2  3  2  0
  2 12  1  0
  3  4  1  0
  4  5  2  0
  5  6  1  0
  5 11  1  0
  6  7  1  0
  6  8  1  0
  8  9  1  0
  9 10  2  0
  9 11  1  0
 11 12  2  0
M  END
>  <DRUGBANK_ID>  (1) 
DB03294

>  <SECONDARY_ACCESSION_NUMBERS>  (1) 
EXPT02893

>  <COMMON_NAME>  (1) 
1-Methyl-3-Oxo-1,3-Dihydro-Benzo[C]Isothiazole-5-Sulfonic Acid Amide

$$$$
