V25
     RDKit          3D

 22 23  0  0  0  0  0  0  0  0999 V2000
    1.1289   -0.0438    0.2783 C   0  0  0  0  0  0  0  0  0  0  0  0
    0.7694   -0.0557   -1.1633 C   0  0  0  0  0  0  0  0  0  0  0  0
    1.3104   -1.2743   -1.7627 O   0  0  0  0  0  0  0  0  0  0  0  0
    2.5948   -1.2304   -2.1923 C   0  0  0  0  0  0  0  0  0  0  0  0
    3.4110   -0.3569   -1.8416 O   0  0  0  0  0  0  0  0  0  0  0  0
    2.9292   -2.3250   -3.1093 C   0  0  0  0  0  0  0  0  0  0  0  0
    4.0314   -3.1493   -2.9071 N   0  0  0  0  0  0  0  0  0  0  0  0
    4.8543   -3.1052   -1.7096 C   0  0  0  0  0  0  0  0  0  0  0  0
    4.2587   -4.0134   -3.9745 C   0  0  0  0  0  0  0  0  0  0  0  0
    5.2736   -5.0020   -4.2313 C   0  0  0  0  0  0  0  0  0  0  0  0
    6.5271   -5.3321   -3.0873 Cl  0  0  0  0  0  0  0  0  0  0  0  0
    5.2760   -5.7320   -5.4386 C   0  0  0  0  0  0  0  0  0  0  0  0
    6.4317   -6.9447   -5.8546 Cl  0  0  0  0  0  0  0  0  0  0  0  0
    4.3124   -5.5115   -6.3740 C   0  0  0  0  0  0  0  0  0  0  0  0
    3.3272   -4.5854   -6.0987 C   0  0  0  0  0  0  0  0  0  0  0  0
    3.2355   -3.7726   -4.9097 C   0  0  0  0  0  0  0  0  0  0  0  0
    2.3626   -2.6961   -4.3473 C   0  0  0  0  0  0  0  0  0  0  0  0
    1.1845   -2.0187   -4.9195 C   0  0  0  0  0  0  0  0  0  0  0  0
    0.4506   -0.9363   -4.1448 C   0  0  0  0  0  0  0  0  0  0  0  0
   -0.1582   -0.0384   -3.5020 N   0  0  0  0  0  0  0  0  0  0  0  0
    0.5483   -2.2469   -6.0951 C   0  0  0  0  0  0  0  0  0  0  0  0
    0.8904   -3.2197   -6.9588 N   0  0  0  0  0  0  0  0  0  0  0  0
  1  2  1  0
  2  3  1  0
  3  4  1  0
  4  5  2  0
  4  6  1  0
  6  7  1  0
  6 17  2  0
  7  8  1  0
  7  9  1  0
  9 10  2  0
  9 16  1  0
 10 11  1  0
 10 12  1  0
 12 13  1  0
 12 14  2  0
 14 15  1  0
 15 16  2  0
 16 17  1  0
 17 18  1  0
 18 19  1  0
 18 21  2  0
 19 20  3  0
 21 22  1  0
M  END
>  <DRUGBANK_ID>  (1) 
DB08691

>  <COMMON_NAME>  (1) 
ethyl 3-[(E)-2-amino-1-cyanoethenyl]-6,7-dichloro-1-methyl-1H-indole-2-carboxylate

$$$$
