179
     RDKit          3D

 22 23  0  0  1  0  0  0  0  0999 V2000
    1.7471   -1.3686    0.0209 O   0  0  0  0  0  0  0  0  0  0  0  0
  -10.2098    0.8364   -0.1008 O   0  0  0  0  0  0  0  0  0  0  0  0
    1.7546    1.3661    0.0216 O   0  0  0  0  0  0  0  0  0  0  0  0
  -10.1948   -1.9094   -0.1658 O   0  0  0  0  0  0  0  0  0  0  0  0
   -4.0186   -1.0298    1.3270 C   0  0  2  0  0  0  0  0  0  0  0  0
   -4.5443    0.4388    1.2554 C   0  0  1  0  0  0  0  0  0  0  0  0
   -3.2074   -1.4178    0.0475 C   0  0  0  0  0  0  0  0  0  0  0  0
   -5.2794    0.8395   -0.0841 C   0  0  0  0  0  0  0  0  0  0  0  0
   -5.1705   -1.9776    1.6965 C   0  0  0  0  0  0  0  0  0  0  0  0
   -5.3018    0.8576    2.5147 C   0  0  0  0  0  0  0  0  0  0  0  0
   -1.8684   -0.6929   -0.0541 C   0  0  0  0  0  0  0  0  0  0  0  0
   -6.6073    0.1713   -0.3947 C   0  0  0  0  0  0  0  0  0  0  0  0
   -0.6655   -1.4065   -0.0046 C   0  0  0  0  0  0  0  0  0  0  0  0
   -7.8061    0.8769   -0.2088 C   0  0  0  0  0  0  0  0  0  0  0  0
   -1.7939    0.7096   -0.1750 C   0  0  0  0  0  0  0  0  0  0  0  0
   -6.6895   -1.1871   -0.7413 C   0  0  0  0  0  0  0  0  0  0  0  0
    0.5475   -0.7126   -0.0004 C   0  0  0  0  0  0  0  0  0  0  0  0
   -9.0126    0.1802   -0.2133 C   0  0  0  0  0  0  0  0  0  0  0  0
   -0.5923    1.4013   -0.0786 C   0  0  0  0  0  0  0  0  0  0  0  0
   -7.8675   -1.9042   -0.5312 C   0  0  0  0  0  0  0  0  0  0  0  0
    0.5766    0.6808   -0.0082 C   0  0  0  0  0  0  0  0  0  0  0  0
   -9.0380   -1.2031   -0.2918 C   0  0  0  0  0  0  0  0  0  0  0  0
  1 17  1  0
  2 18  1  0
  3 21  1  0
  4 22  1  0
  5  6  1  0
  5  7  1  0
  5  9  1  6
  6  8  1  0
  6 10  1  1
  7 11  1  0
  8 12  1  0
 11 13  2  0
 11 15  1  0
 12 14  2  0
 12 16  1  0
 13 17  1  0
 14 18  1  0
 15 19  2  0
 16 20  2  0
 17 21  2  0
 18 22  2  0
 19 21  1  0
 20 22  1  0
M  END
>  <DRUGBANK_ID>  (1) 
DB00179

>  <SECONDARY_ACCESSION_NUMBERS>  (1) 
APRD01084; DB05900

>  <COMMON_NAME>  (1) 
Masoprocol

>  <CAS_NUMBER>  (1) 
27686-84-6

>  <UNII>  (1) 
7BO8G1BYQU

>  <SYNONYMS>  (1) 
erythro-nordihydroguaiaretic acid; Masoprocol; Masoprocolum; meso-1,4-bis(3,4-dihydroxyphenyl)-2,3-dimethylbutane; meso-2,3-bis(3,4-dihydroxyphenylmethyl)butane; meso-4-[4-(3,4-dihydroxyphenyl)-2,3-dimethylbutyl]benzene-1,2-diol; meso-4,4'-(2,3-dimethyl-1,4-butanediyl)bis(pyrocatechol); meso-4,4'-(2,3-dimethyltetramethylene)dipyrocatechol; meso-NDGA; meso-nordihydroguaiaretic acid; meso-β,γ-dimethyl-α,δ-bis(3,4-dihydroxyphenyl)butan; Nordihydroguaiaretic acid

$$$$
