Thymol
     RDKit          3D

 11 11  0  0  0  0  0  0  0  0999 V2000
   -1.1393   -1.0828   -0.0177 C   0  0  0  0  0  0  0  0  0  0  0  0
   -1.1282    0.3187   -0.0101 C   0  0  0  0  0  0  0  0  0  0  0  0
    0.1049   -1.7466    0.0027 C   0  0  0  0  0  0  0  0  0  0  0  0
   -2.4082   -1.9162   -0.0598 C   0  0  0  0  0  0  0  0  0  0  0  0
    0.0683    1.0279   -0.0033 C   0  0  0  0  0  0  0  0  0  0  0  0
   -2.2345    1.1162   -0.0130 O   0  0  0  0  0  0  0  0  0  0  0  0
    1.3102   -1.0303    0.0188 C   0  0  0  0  0  0  0  0  0  0  0  0
   -3.2583   -1.7123    1.1985 C   0  0  0  0  0  0  0  0  0  0  0  0
   -3.1949   -1.6650   -1.3514 C   0  0  0  0  0  0  0  0  0  0  0  0
    1.2940    0.3648    0.0069 C   0  0  0  0  0  0  0  0  0  0  0  0
    2.5435    1.1884    0.0008 C   0  0  0  0  0  0  0  0  0  0  0  0
  1  2  2  0
  1  3  1  0
  1  4  1  0
  2  5  1  0
  2  6  1  0
  3  7  2  0
  4  8  1  0
  4  9  1  0
  5 10  2  0
  7 10  1  0
 10 11  1  0
M  END
>  <DRUGBANK_ID>  (1) 
DB02513

>  <SECONDARY_ACCESSION_NUMBERS>  (1) 
EXPT01913

>  <COMMON_NAME>  (1) 
Thymol

>  <CAS_NUMBER>  (1) 
89-83-8

>  <UNII>  (1) 
3J50XA376E

>  <SYNONYMS>  (1) 
2-isopropyl-5-methylphenol; 5-Methyl-2-(1-Methylethyl)Phenol; IPMP

$$$$
