
     RDKit          3D

  9  9  0  0  0  0  0  0  0  0999 V2000
    0.9691   -0.0102    0.0861 N   0  0  0  0  0  0  0  0  0  0  0  0
    0.4878    0.0022   -1.2955 C   0  0  0  0  0  0  0  0  0  0  0  0
    0.9214   -1.2248   -2.0590 C   0  0  0  0  0  0  0  0  0  0  0  0
    0.4226   -2.4832   -1.6777 C   0  0  0  0  0  0  0  0  0  0  0  0
    0.7746   -3.6359   -2.3800 C   0  0  0  0  0  0  0  0  0  0  0  0
    1.6300   -3.5476   -3.4742 C   0  0  0  0  0  0  0  0  0  0  0  0
    2.1405   -2.3086   -3.8652 C   0  0  0  0  0  0  0  0  0  0  0  0
    1.7841   -1.1573   -3.1584 C   0  0  0  0  0  0  0  0  0  0  0  0
    2.2749    0.0582   -3.5458 O   0  0  0  0  0  0  0  0  0  0  0  0
  1  2  1  0
  2  3  1  0
  3  4  2  0
  3  8  1  0
  4  5  1  0
  5  6  2  0
  6  7  1  0
  7  8  2  0
  8  9  1  0
M  END
>  <DRUGBANK_ID>  (1) 
DB14855

>  <COMMON_NAME>  (1) 
2-(aminomethyl)phenol

>  <CAS_NUMBER>  (1) 
932-30-9

>  <UNII>  (1) 
696R5N4NRM

>  <SYNONYMS>  (1) 
2-HOBA

$$$$
