
     RDKit          3D

 24 24  0  0  0  0  0  0  0  0999 V2000
    0.8425    0.1658   -0.4296 O   0  0  0  0  0  0  0  0  0  0  0  0
    0.2355    1.3124   -0.0872 C   0  0  0  0  0  0  0  0  0  0  0  0
    0.8328    2.3297    0.2197 O   0  0  0  0  0  0  0  0  0  0  0  0
   -1.2636    1.2137   -0.0801 C   0  0  0  0  0  0  0  0  0  0  0  0
   -1.9584    0.4406    0.9339 C   0  0  0  0  0  0  0  0  0  0  0  0
   -1.0401   -0.4732    1.8025 C   0  0  0  0  0  0  0  0  0  0  0  0
   -1.5110   -1.5718    2.4144 O   0  0  0  0  0  0  0  0  0  0  0  0
    0.1689   -0.3065    1.8718 O   0  0  0  0  0  0  0  0  0  0  0  0
   -3.4158    0.5811    1.0328 C   0  0  0  0  0  0  0  0  0  0  0  0
   -4.1308   -0.1038    2.2140 C   0  0  0  0  0  0  0  0  0  0  0  0
   -5.4212   -0.0004    2.5300 O   0  0  0  0  0  0  0  0  0  0  0  0
   -3.4878   -0.7348    3.0413 O   0  0  0  0  0  0  0  0  0  0  0  0
   -4.1037    1.5018    0.1231 C   0  0  0  0  0  0  0  0  0  0  0  0
   -5.6342    1.3860   -0.0607 C   0  0  0  0  0  0  0  0  0  0  0  0
   -6.2988    1.9887   -1.0600 O   0  0  0  0  0  0  0  0  0  0  0  0
   -6.2890    0.5783    0.5647 O   0  0  0  0  0  0  0  0  0  0  0  0
   -3.3293    2.3652   -0.7448 C   0  0  0  0  0  0  0  0  0  0  0  0
   -3.9660    3.6661   -1.1945 C   0  0  0  0  0  0  0  0  0  0  0  0
   -3.2902    4.5630   -1.9273 O   0  0  0  0  0  0  0  0  0  0  0  0
   -5.1165    3.9332   -0.9341 O   0  0  0  0  0  0  0  0  0  0  0  0
   -1.9516    2.1100   -0.9621 C   0  0  0  0  0  0  0  0  0  0  0  0
   -1.1955    2.6253   -2.1819 C   0  0  0  0  0  0  0  0  0  0  0  0
   -1.9064    3.1758   -3.1886 O   0  0  0  0  0  0  0  0  0  0  0  0
    0.0021    2.5363   -2.3332 O   0  0  0  0  0  0  0  0  0  0  0  0
  1  2  1  0
  2  3  2  0
  2  4  1  0
  4  5  2  0
  4 21  1  0
  5  6  1  0
  5  9  1  0
  6  7  1  0
  6  8  2  0
  9 10  1  0
  9 13  2  0
 10 11  1  0
 10 12  2  0
 13 14  1  0
 13 17  1  0
 14 15  1  0
 14 16  2  0
 17 18  1  0
 17 21  2  0
 18 19  1  0
 18 20  2  0
 21 22  1  0
 22 23  1  0
 22 24  2  0
M  END
>  <DRUGBANK_ID>  (1) 
DB01681

>  <SECONDARY_ACCESSION_NUMBERS>  (1) 
EXPT00695

>  <COMMON_NAME>  (1) 
Benzene Hexacarboxylic Acid

>  <CAS_NUMBER>  (1) 
517-60-2

>  <UNII>  (1) 
P80QSP14DM

$$$$
