OA2
     RDKit          3D

 23 25  0  0  0  0  0  0  0  0999 V2000
    1.0459    0.0239   -0.0652 O   0  0  0  0  0  0  0  0  0  0  0  0
    2.2666    0.0714   -0.1710 C   0  0  0  0  0  0  0  0  0  0  0  0
    2.8592    1.2806   -0.7456 C   0  0  0  0  0  0  0  0  0  0  0  0
    3.6179    1.3205   -1.9030 O   0  0  0  0  0  0  0  0  0  0  0  0
    3.9821    2.6422   -2.0351 C   0  0  0  0  0  0  0  0  0  0  0  0
    4.9534    2.9672   -2.8890 N   0  0  0  0  0  0  0  0  0  0  0  0
    3.3775    3.4471   -1.2040 N   0  0  0  0  0  0  0  0  0  0  0  0
    2.6058    2.6048   -0.4456 C   0  0  0  0  0  0  0  0  0  0  0  0
    3.0506   -0.9925    0.3833 N   0  0  0  0  0  0  0  0  0  0  0  0
    2.2708   -2.0730    1.1315 C   0  0  0  0  0  0  0  0  0  0  0  0
    2.4357   -3.4945    0.6028 C   0  0  0  0  0  0  0  0  0  0  0  0
    3.3407   -3.7167   -0.4133 C   0  0  0  0  0  0  0  0  0  0  0  0
    3.7670   -4.9545   -0.8777 C   0  0  0  0  0  0  0  0  0  0  0  0
    3.1233   -6.0699   -0.4164 C   0  0  0  0  0  0  0  0  0  0  0  0
    2.1004   -5.9048    0.5198 C   0  0  0  0  0  0  0  0  0  0  0  0
    1.7526   -4.6286    1.0290 C   0  0  0  0  0  0  0  0  0  0  0  0
    4.5532   -0.9929    0.5195 C   0  0  0  0  0  0  0  0  0  0  0  0
    5.3686   -1.0755   -0.7811 C   0  0  0  0  0  0  0  0  0  0  0  0
    5.8265    0.0799   -1.3762 C   0  0  0  0  0  0  0  0  0  0  0  0
    6.2822    0.0775   -2.7038 C   0  0  0  0  0  0  0  0  0  0  0  0
    6.3282   -1.0772   -3.4640 C   0  0  0  0  0  0  0  0  0  0  0  0
    6.1156   -2.2685   -2.8158 C   0  0  0  0  0  0  0  0  0  0  0  0
    5.7192   -2.2495   -1.4714 C   0  0  0  0  0  0  0  0  0  0  0  0
  1  2  2  0
  2  3  1  0
  2  9  1  0
  3  4  1  0
  3  8  2  0
  4  5  1  0
  5  6  1  0
  5  7  2  0
  7  8  1  0
  9 10  1  0
  9 17  1  0
 10 11  1  0
 11 12  2  0
 11 16  1  0
 12 13  1  0
 13 14  2  0
 14 15  1  0
 15 16  2  0
 17 18  1  0
 18 19  2  0
 18 23  1  0
 19 20  1  0
 20 21  2  0
 21 22  1  0
 22 23  2  0
M  END
>  <DRUGBANK_ID>  (1) 
DB08315

>  <COMMON_NAME>  (1) 
2-AMINO-N,N-BIS(PHENYLMETHYL)-1,3-OXAZOLE-5-CARBOXAMIDE

$$$$
