ChEBI
     RDKit          3D

 20 19  0  0  1  0  0  0  0  0999 V2000
   -2.0288   -3.6873    1.1999 C   0  0  0  0  0  0  0  0  0  0  0  0
   -1.5626   -2.3558    0.5465 C   0  0  0  0  0  0  0  0  0  0  0  0
   -0.1705   -1.7691    0.9022 C   0  0  2  0  0  0  0  0  0  0  0  0
    0.6551   -1.3082   -0.2362 C   0  0  1  0  0  0  0  0  0  0  0  0
    2.0138   -0.8472    0.4087 C   0  0  1  0  0  0  0  0  0  0  0  0
    3.1792   -1.7811    0.1105 C   0  0  0  0  0  0  0  0  0  0  0  0
    3.4254   -2.6607    1.1872 O   0  0  0  0  0  0  0  0  0  0  0  0
   -1.1617   -4.3107    2.1300 O   0  0  0  0  0  0  0  0  0  0  0  0
   -2.3964   -1.6688   -0.0863 O   0  0  0  0  0  0  0  0  0  0  0  0
    0.7224   -2.6075    1.5989 O   0  0  0  0  0  0  0  0  0  0  0  0
    0.7165   -2.4883   -1.0468 O   0  0  0  0  0  0  0  0  0  0  0  0
    2.3409    0.4798   -0.0042 O   0  0  0  0  0  0  0  0  0  0  0  0
   -0.7943   -3.3559    3.5251 P   0  0  0  0  0  0  0  0  0  0  0  0
    0.6589   -3.7861    3.5667 O   0  0  0  0  0  0  0  0  0  0  0  0
   -1.2508   -1.9354    2.9383 O   0  0  0  0  0  0  0  0  0  0  0  0
   -0.4269   -2.4012    4.9202 O   0  0  0  0  0  0  0  0  0  0  0  0
    4.2017   -2.3076    2.5349 P   0  0  0  0  0  0  0  0  0  0  0  0
    4.3627   -3.3987    3.5297 O   0  0  0  0  0  0  0  0  0  0  0  0
    5.5817   -1.7975    1.9090 O   0  0  0  0  0  0  0  0  0  0  0  0
    3.7194   -0.8838    3.0717 O   0  0  0  0  0  0  0  0  0  0  0  0
  2  1  1  0
  2  9  2  0
  3 10  1  6
  3  4  1  0
  3  2  1  0
  4 11  1  6
  4  5  1  0
  5 12  1  6
  5  6  1  0
  7  6  1  0
  7 17  1  0
  8  1  1  0
  8 13  1  0
 14 13  2  0
 15 13  1  0
 16 13  1  0
 18 17  2  0
 19 17  1  0
 20 17  1  0
M  END
>  <DRUGBANK_ID>  (1) 
DB13863

>  <COMMON_NAME>  (1) 
Fosfructose

>  <CAS_NUMBER>  (1) 
488-69-7

>  <UNII>  (1) 
M7522JYX1H

>  <SYNONYMS>  (1) 
1,6-di-O-phosphono-D-fructose; D-fructose 1,6-bisphosphate; Fosfructose; Fructose 1,6-bisphosphate; Fructose 1,6-diphosphate; Fructose-1,6-diphosphate; Harden-young ester; keto-D-fructose 1,6-bisphosphate

$$$$
