
     RDKit          3D

 15 15  0  0  0  0  0  0  0  0999 V2000
   -0.6557   -1.8086    0.5550 N   0  0  0  0  0  0  0  0  0  0  0  0
    0.1774   -1.1358   -0.4618 C   0  0  2  0  0  0  0  0  0  0  0  0
    1.0329    0.0221    0.0913 C   0  0  0  0  0  0  0  0  0  0  0  0
    1.9587    0.5808   -0.4825 O   0  0  0  0  0  0  0  0  0  0  0  0
    0.6685    0.4802    1.3072 O   0  0  0  0  0  0  0  0  0  0  0  0
   -0.6963   -0.6803   -1.6453 C   0  0  0  0  0  0  0  0  0  0  0  0
    0.0987   -0.0705   -2.7773 C   0  0  0  0  0  0  0  0  0  0  0  0
    0.0152    1.3092   -3.0089 C   0  0  0  0  0  0  0  0  0  0  0  0
    0.8390    1.9212   -3.9518 C   0  0  0  0  0  0  0  0  0  0  0  0
    1.7653    1.1633   -4.6632 C   0  0  0  0  0  0  0  0  0  0  0  0
    1.8675   -0.2075   -4.4318 C   0  0  0  0  0  0  0  0  0  0  0  0
    1.0082   -0.8325   -3.5251 C   0  0  0  0  0  0  0  0  0  0  0  0
   -0.2120   -2.9500    1.1464 C   0  0  0  0  0  0  0  0  0  0  0  0
   -1.0101   -3.4393    2.1174 N   0  0  0  0  0  0  0  0  0  0  0  0
    0.8075   -3.5506    0.8228 O   0  0  0  0  0  0  0  0  0  0  0  0
  1 13  1  0
  2  6  1  6
  2  3  1  0
  2  1  1  0
  3  5  1  0
  4  3  2  0
  6  7  1  0
  7 12  2  0
  8  7  1  0
  9  8  2  0
 10  9  1  0
 11 10  2  0
 12 11  1  0
 13 14  1  0
 13 15  2  0
M  END
>  <DRUGBANK_ID>  (1) 
DB04058

>  <SECONDARY_ACCESSION_NUMBERS>  (1) 
EXPT01885

>  <COMMON_NAME>  (1) 
N-Carbamoylphenylalanine

>  <CAS_NUMBER>  (1) 
949-45-1

>  <UNII>  (1) 
7XS3UG99LC

>  <SYNONYMS>  (1) 
(-)-N-Carbamoylphenylalanine; N-(Aminocarbonyl)-L-phenylalanine

$$$$
