S98
     RDKit          3D

 22 25  0  0  0  0  0  0  0  0999 V2000
    2.6779    1.1760    0.0229 N   0  0  0  0  0  0  0  0  0  0  0  0
    1.4220    0.6851    0.1597 C   0  0  0  0  0  0  0  0  0  0  0  0
    1.5275   -0.6870    0.0299 C   0  0  0  0  0  0  0  0  0  0  0  0
    2.8863   -0.9999   -0.1539 N   0  0  0  0  0  0  0  0  0  0  0  0
    3.5373    0.1564   -0.2280 C   0  0  0  0  0  0  0  0  0  0  0  0
    4.8252    0.4396   -0.5387 N   0  0  0  0  0  0  0  0  0  0  0  0
    5.4571    1.7677   -0.4831 C   0  0  0  0  0  0  0  0  0  0  0  0
    6.4809    1.9684    0.6060 C   0  0  0  0  0  0  0  0  0  0  0  0
    0.3071   -1.4394    0.0769 C   0  0  0  0  0  0  0  0  0  0  0  0
   -0.9474   -0.7458    0.0752 C   0  0  0  0  0  0  0  0  0  0  0  0
   -0.9157    0.6460    0.1922 C   0  0  0  0  0  0  0  0  0  0  0  0
   -2.1546    1.4070    0.0803 C   0  0  0  0  0  0  0  0  0  0  0  0
   -2.1687    2.6386    0.1213 O   0  0  0  0  0  0  0  0  0  0  0  0
   -3.2796    0.6780   -0.1099 N   0  0  0  0  0  0  0  0  0  0  0  0
   -3.2900   -0.6848   -0.1759 C   0  0  0  0  0  0  0  0  0  0  0  0
   -4.5292   -1.2050   -0.3500 N   0  0  0  0  0  0  0  0  0  0  0  0
   -2.2076   -1.4071   -0.0788 N   0  0  0  0  0  0  0  0  0  0  0  0
    0.2506    1.3812    0.3334 C   0  0  0  0  0  0  0  0  0  0  0  0
    6.9498    3.1435    1.1762 C   0  0  0  0  0  0  0  0  0  0  0  0
    7.9112    2.8947    2.2057 C   0  0  0  0  0  0  0  0  0  0  0  0
    8.1525    1.5505    2.3674 C   0  0  0  0  0  0  0  0  0  0  0  0
    7.2685    0.5979    1.2722 S   0  0  0  0  0  0  0  0  0  0  0  0
  1  2  1  0
  1  5  1  0
  2  3  2  0
  2 18  1  0
  3  4  1  0
  3  9  1  0
  4  5  2  0
  5  6  1  0
  6  7  1  0
  7  8  1  0
  8 19  2  0
  8 22  1  0
  9 10  2  0
 10 11  1  0
 10 17  1  0
 11 12  1  0
 11 18  2  0
 12 13  2  0
 12 14  1  0
 14 15  1  0
 15 16  1  0
 15 17  2  0
 19 20  1  0
 20 21  2  0
 21 22  1  0
M  END
>  <DRUGBANK_ID>  (1) 
DB08514

>  <COMMON_NAME>  (1) 
6-amino-2-[(thiophen-2-ylmethyl)amino]-1,7-dihydro-8H-imidazo[4,5-g]quinazolin-8-one

$$$$
