
     RDKit          3D

 21 22  0  0  1  0  0  0  0  0999 V2000
    1.7371   -0.2654    0.0000 C   0  0  0  0  0  0  0  0  0  0  0  0
    0.9707   -1.4646    0.0053 C   0  0  0  0  0  0  0  0  0  0  0  0
    1.1881    1.0634    0.0113 C   0  0  0  0  0  0  0  0  0  0  0  0
   -0.7854   -0.0351   -0.0519 C   0  0  0  0  0  0  0  0  0  0  0  0
   -3.5577    0.7769   -2.5652 C   0  0  0  0  0  0  0  0  0  0  0  0
   -0.3736   -1.3481   -0.0219 C   0  0  0  0  0  0  0  0  0  0  0  0
   -0.1700    1.2044    0.0723 C   0  0  0  0  0  0  0  0  0  0  0  0
   -3.1183    1.1994   -1.1594 C   0  0  2  0  0  0  0  0  0  0  0  0
   -3.6799    0.2342    0.0019 C   0  0  1  0  0  0  0  0  0  0  0  0
   -3.0002    0.4500    1.4976 C   0  0  1  0  0  0  0  0  0  0  0  0
   -2.9187    1.9483    1.7437 C   0  0  2  0  0  0  0  0  0  0  0  0
   -2.2991    2.6504    0.4740 C   0  0  1  0  0  0  0  0  0  0  0  0
   -1.2961   -2.5279    0.0912 N   0  0  0  0  0  0  0  0  0  0  0  0
   -2.9628    1.6248   -3.5501 O   0  0  0  0  0  0  0  0  0  0  0  0
   -5.0844    0.3320    0.1294 O   0  0  0  0  0  0  0  0  0  0  0  0
   -3.5002   -0.3657    2.5507 O   0  0  0  0  0  0  0  0  0  0  0  0
   -2.1584    2.2677    2.9151 O   0  0  0  0  0  0  0  0  0  0  0  0
   -2.5163   -2.3322    0.3086 O   0  0  0  0  0  0  0  0  0  0  0  0
   -0.8208   -3.6429   -0.0038 O   0  0  0  0  0  0  0  0  0  0  0  0
   -0.8253    2.4112    0.2287 O   0  0  0  0  0  0  0  0  0  0  0  0
   -3.1781    2.5331   -0.6988 O   0  0  0  0  0  0  0  0  0  0  0  0
  2  1  2  0
  3  1  1  0
  6  2  1  0
  6  4  2  0
  7  3  2  0
  7  4  1  0
  8  5  1  6
  9  8  1  0
  9 15  1  1
 10  9  1  0
 10 16  1  1
 11 10  1  0
 11 17  1  1
 12 11  1  0
 12 20  1  6
 13  6  1  0
 14  5  1  0
 18 13  1  0
 19 13  2  0
 20  7  1  0
 21  8  1  0
 21 12  1  0
M  CHG  2  13   1  18  -1
M  END
>  <DRUGBANK_ID>  (1) 
DB02213

>  <SECONDARY_ACCESSION_NUMBERS>  (1) 
EXPT01541

>  <COMMON_NAME>  (1) 
Metanitrophenyl-Alpha-D-Galactoside

$$$$
