
     RDKit          3D

 18 19  0  0  0  0  0  0  0  0999 V2000
   -0.2278   -0.2082    0.2131 C   0  0  1  0  0  0  0  0  0  0  0  0
    0.3735    1.1362    0.7062 C   0  0  2  0  0  0  0  0  0  0  0  0
   -0.5277    2.2464    0.6063 O   0  0  0  0  0  0  0  0  0  0  0  0
    1.6281    1.4400   -0.1067 C   0  0  1  0  0  0  0  0  0  0  0  0
    2.2613    2.6437    0.3419 O   0  0  0  0  0  0  0  0  0  0  0  0
    2.5983    0.2669   -0.0088 C   0  0  2  0  0  0  0  0  0  0  0  0
    3.7445    0.5484   -0.8214 O   0  0  0  0  0  0  0  0  0  0  0  0
    1.9154   -1.0557   -0.4218 C   0  0  1  0  0  0  0  0  0  0  0  0
    2.9107   -2.2333   -0.2819 C   0  0  0  0  0  0  0  0  0  0  0  0
    4.2058   -1.9287   -0.7923 O   0  0  0  0  0  0  0  0  0  0  0  0
    0.6984   -1.2816    0.3320 O   0  0  0  0  0  0  0  0  0  0  0  0
   -1.4266   -0.5007    0.9634 N   0  0  0  0  0  0  0  0  0  0  0  0
   -2.5422   -0.0083    0.3085 C   0  0  0  0  0  0  0  0  0  0  0  0
   -3.6044    0.2435    0.8651 O   0  0  0  0  0  0  0  0  0  0  0  0
   -2.2255    0.1678   -1.0005 N   0  0  0  0  0  0  0  0  0  0  0  0
   -0.8849   -0.0055   -1.1779 C   0  0  0  0  0  0  0  0  0  0  0  0
   -0.2830    0.0390   -2.2435 O   0  0  0  0  0  0  0  0  0  0  0  0
   -3.1484    0.4100   -2.0786 C   0  0  0  0  0  0  0  0  0  0  0  0
  1  2  1  0
  1 11  1  0
  1 12  1  1
  1 16  1  0
  2  4  1  0
  2  3  1  6
  4  5  1  1
  4  6  1  0
  6  7  1  6
  6  8  1  0
  8 11  1  0
  8  9  1  1
  9 10  1  0
 13 12  1  0
 13 14  2  0
 13 15  1  0
 16 15  1  0
 16 17  2  0
 18 15  1  0
M  END
>  <DRUGBANK_ID>  (1) 
DB03479

>  <SECONDARY_ACCESSION_NUMBERS>  (1) 
EXPT01600

>  <COMMON_NAME>  (1) 
8,9,10-trihydroxy-7-hydroxymethyl-3-methyl-6-oxa-1,3-diaza-spiro[4.5]decane-2,4-dione

$$$$
