
     RDKit          3D

 27 29  0  0  1  0  0  0  0  0999 V2000
   -3.0372   -0.2599   -0.0250 C   0  0  0  0  0  0  0  0  0  0  0  0
   -1.5814   -0.3221   -0.0969 N   0  0  0  0  0  0  0  0  0  0  0  0
   -1.0214    0.6988   -0.7220 N   0  0  0  0  0  0  0  0  0  0  0  0
   -0.1458    1.0888    0.0577 N   0  0  0  0  0  0  0  0  0  0  0  0
    0.9572    0.4031    0.0250 C   0  0  0  0  0  0  0  0  0  0  0  0
    2.2923    0.6781    0.0055 C   0  0  0  0  0  0  0  0  0  0  0  0
    2.8860   -0.6005   -0.0209 N   0  0  0  0  0  0  0  0  0  0  0  0
    1.9026   -1.5044   -0.0015 C   0  0  0  0  0  0  0  0  0  0  0  0
    0.6718   -0.9232    0.0251 N   0  0  0  0  0  0  0  0  0  0  0  0
   -0.6984   -1.4043    0.0481 C   0  0  0  0  0  0  0  0  0  0  0  0
   -0.9641   -2.5734    0.1526 O   0  0  0  0  0  0  0  0  0  0  0  0
    3.0387    1.9876    0.0043 C   0  0  0  0  0  0  0  0  0  0  0  0
    4.2781    1.9980   -0.0038 O   0  0  0  0  0  0  0  0  0  0  0  0
    2.4515    3.2962    0.0067 N   0  0  0  0  0  0  0  0  0  0  0  0
    1.2143    3.9548   -0.0491 C   0  0  0  0  0  0  0  0  0  0  0  0
    1.1192    5.1724   -0.0858 O   0  0  0  0  0  0  0  0  0  0  0  0
    0.1963    3.1137   -0.0870 O   0  0  0  0  0  0  0  0  0  0  0  0
   -1.2499    3.2650   -0.0503 C   0  0  0  0  0  0  0  0  0  0  0  0
   -1.5990    3.6521    1.3007 C   0  0  0  0  0  0  0  0  0  0  0  0
   -1.6069    4.9719    1.3367 C   0  0  0  0  0  0  0  0  0  0  0  0
   -1.7470    5.7007    2.5720 C   0  0  0  0  0  0  0  0  0  0  0  0
   -1.6452    4.7927    3.8088 C   0  0  2  0  0  0  0  0  0  0  0  0
   -2.3608    3.4356    3.6539 C   0  0  0  0  0  0  0  0  0  0  0  0
   -1.8052    2.6776    2.4553 C   0  0  0  0  0  0  0  0  0  0  0  0
   -2.2423    5.5675    4.9443 C   0  0  0  0  0  0  0  0  0  0  0  0
   -1.3356    5.9456    6.0648 C   0  0  0  0  0  0  0  0  0  0  0  0
   -3.5296    5.9527    4.9024 C   0  0  0  0  0  0  0  0  0  0  0  0
  1  2  1  0
  2  3  1  0
  2 10  1  0
  3  4  2  0
  4  5  1  0
  5  6  2  0
  5  9  1  0
  6  7  1  0
  6 12  1  0
  7  8  2  0
  8  9  1  0
  9 10  1  0
 10 11  2  0
 12 13  2  0
 12 14  1  0
 14 15  1  0
 15 16  2  0
 15 17  1  0
 17 18  1  0
 18 19  1  0
 19 20  2  0
 19 24  1  0
 20 21  1  0
 22 21  1  0
 22 23  1  0
 22 25  1  1
 23 24  1  0
 25 26  1  0
 25 27  2  0
M  END
>  <DRUGBANK_ID>  (1) 
DB17100

>  <COMMON_NAME>  (1) 
NEO-212

>  <CAS_NUMBER>  (1) 
1361198-79-9

>  <UNII>  (1) 
237TB781D9

>  <SYNONYMS>  (1) 
(s)-perillyl alcohol temozolomide carbamate; Carbamic acid, n-((3,4-dihydro-3-methyl-4-oxoimidazo(5,1-d)-1,2,3,5-tetrazin-8-yl)carbonyl)-, ((4s)-4-(1-methylethenyl)-1-cyclohexen-1-yl)methyl ester; Tmz-poh carbamate

$$$$
