
     RDKit          3D

 34 37  0  0  0  0  0  0  0  0999 V2000
   -1.1846    1.4137   -0.0198 N   0  0  0  0  0  0  0  0  0  0  0  0
    3.0590    3.6130    1.2209 N   0  0  0  0  0  0  0  0  0  0  0  0
    0.0160    0.7050    0.0435 C   0  0  0  0  0  0  0  0  0  0  0  0
    3.6341    2.9254    0.1983 C   0  0  0  0  0  0  0  0  0  0  0  0
   -2.3452    0.7231   -0.3025 C   0  0  0  0  0  0  0  0  0  0  0  0
    1.1509    1.4307    0.0879 N   0  0  0  0  0  0  0  0  0  0  0  0
    3.1011    4.9592    1.1883 C   0  0  0  0  0  0  0  0  0  0  0  0
   -1.1878   -1.4292   -0.0070 O   0  0  0  0  0  0  0  0  0  0  0  0
   -2.3434   -0.6585    0.3874 C   0  0  0  0  0  0  0  0  0  0  0  0
    3.5350    1.5132    0.1669 N   0  0  0  0  0  0  0  0  0  0  0  0
    4.2784    3.5909   -0.8374 C   0  0  0  0  0  0  0  0  0  0  0  0
    2.4734    9.9453    2.4275 C   0  0  0  0  0  0  0  0  0  0  0  0
   -0.0215   -0.6910   -0.0114 C   0  0  0  0  0  0  0  0  0  0  0  0
    2.3367    0.7801    0.0687 C   0  0  0  0  0  0  0  0  0  0  0  0
    1.8617    9.2701    1.3506 C   0  0  0  0  0  0  0  0  0  0  0  0
    3.0733    9.1572    3.4665 C   0  0  0  0  0  0  0  0  0  0  0  0
    3.7042    5.6516    0.2069 N   0  0  0  0  0  0  0  0  0  0  0  0
    2.4656    7.0760    2.3601 C   0  0  0  0  0  0  0  0  0  0  0  0
    1.8878    7.8534    1.3489 C   0  0  0  0  0  0  0  0  0  0  0  0
    3.0536    7.7470    3.4255 C   0  0  0  0  0  0  0  0  0  0  0  0
    2.5289    5.6790    2.2409 N   0  0  0  0  0  0  0  0  0  0  0  0
    4.2781    4.9592   -0.7864 C   0  0  0  0  0  0  0  0  0  0  0  0
   -3.2507    1.1829   -0.9645 O   0  0  0  0  0  0  0  0  0  0  0  0
    1.1910   -1.3600   -0.0630 C   0  0  0  0  0  0  0  0  0  0  0  0
    4.8617    2.9512   -1.8611 F   0  0  0  0  0  0  0  0  0  0  0  0
    2.3822   -0.6192   -0.0135 C   0  0  0  0  0  0  0  0  0  0  0  0
    2.6336   11.2644    2.6927 O   0  0  0  0  0  0  0  0  0  0  0  0
    3.7357    9.6352    4.5925 O   0  0  0  0  0  0  0  0  0  0  0  0
    1.2022    9.6687    0.2108 O   0  0  0  0  0  0  0  0  0  0  0  0
   -2.3185   -0.4251    1.9151 C   0  0  0  0  0  0  0  0  0  0  0  0
   -3.6386   -1.4240    0.0806 C   0  0  0  0  0  0  0  0  0  0  0  0
    2.1669   12.3791    2.0056 C   0  0  0  0  0  0  0  0  0  0  0  0
    3.8337   11.0455    4.7946 C   0  0  0  0  0  0  0  0  0  0  0  0
    1.0415   11.0252   -0.0959 C   0  0  0  0  0  0  0  0  0  0  0  0
  3  1  1  0
  3  6  1  0
  4  2  2  0
  4 10  1  0
  5  1  1  0
  5  9  1  0
  5 23  2  0
  7  2  1  0
  7 17  2  0
  7 21  1  0
  9  8  1  0
 11  4  1  0
 11 22  2  0
 11 25  1  0
 12 15  2  0
 12 16  1  0
 12 27  1  0
 13  3  2  0
 13  8  1  0
 13 24  1  0
 14  6  2  0
 14 10  1  0
 14 26  1  0
 15 19  1  0
 15 29  1  0
 16 20  2  0
 16 28  1  0
 18 19  2  0
 18 20  1  0
 18 21  1  0
 22 17  1  0
 24 26  2  0
 30  9  1  0
 31  9  1  0
 32 27  1  0
 33 28  1  0
 34 29  1  0
M  END
>  <DRUGBANK_ID>  (1) 
DB07159

>  <SECONDARY_ACCESSION_NUMBERS>  (1) 
DB06646

>  <COMMON_NAME>  (1) 
Tamatinib

>  <CAS_NUMBER>  (1) 
841290-80-0

>  <UNII>  (1) 
RC3A285J2G

>  <SYNONYMS>  (1) 
6-({5-fluoro-2-[(3,4,5-trimethoxyphenyl)amino]pyrimidin-4-yl}amino)-2,2-dimethyl-2H-pyrido[3,2-b][1,4]oxazin-3(4H)-one

$$$$
