
     RDKit          3D

 10 10  0  0  0  0  0  0  0  0999 V2000
   -1.4027   -0.0898   -0.0142 C   0  0  0  0  0  0  0  0  0  0  0  0
   -0.6391   -1.2524   -0.0127 C   0  0  0  0  0  0  0  0  0  0  0  0
   -0.7778    1.1582    0.0192 C   0  0  0  0  0  0  0  0  0  0  0  0
    0.7512   -1.1841    0.0232 C   0  0  0  0  0  0  0  0  0  0  0  0
    1.3933    0.0638   -0.0401 C   0  0  0  0  0  0  0  0  0  0  0  0
    0.6242    1.2445   -0.0389 C   0  0  0  0  0  0  0  0  0  0  0  0
   -3.1233   -0.1717   -0.1114 Cl  0  0  0  0  0  0  0  0  0  0  0  0
   -1.2016   -2.4984   -0.0865 O   0  0  0  0  0  0  0  0  0  0  0  0
    2.8908    0.1176   -0.1813 C   0  0  0  0  0  0  0  0  0  0  0  0
    1.2817    2.5926   -0.1673 C   0  0  0  0  0  0  0  0  0  0  0  0
  2  1  2  0
  3  1  1  0
  4  2  1  0
  4  5  2  0
  5  6  1  0
  6  3  2  0
  7  1  1  0
  8  2  1  0
  9  5  1  0
 10  6  1  0
M  END
>  <DRUGBANK_ID>  (1) 
DB15658

>  <COMMON_NAME>  (1) 
2-chloro-4,5-dimethylphenol

>  <CAS_NUMBER>  (1) 
1124-04-5

>  <UNII>  (1) 
601F79M480

>  <SYNONYMS>  (1) 
2-Chloro-4,5-dimethylphenol; 2-Chloro-4,5-xylenol; 3,4-Dimethyl-6-chlorophenol; 6-Chloro-3,4-xylenol; Banol phenol

$$$$
