1010
     RDKit          3D

 12 12  0  0  0  0  0  0  0  0999 V2000
    2.3776   -0.0969    0.1337 O   0  0  0  0  0  0  0  0  0  0  0  0
   -2.2814   -2.2653    0.0971 N   0  0  0  0  0  0  0  0  0  0  0  0
   -3.2755   -1.2376    0.6671 C   0  0  0  0  0  0  0  0  0  0  0  0
   -1.1858   -1.0683   -0.4494 C   0  0  0  0  0  0  0  0  0  0  0  0
   -3.5635   -3.1566   -0.2496 C   0  0  0  0  0  0  0  0  0  0  0  0
   -1.3788   -3.5120    0.2689 C   0  0  0  0  0  0  0  0  0  0  0  0
   -4.0654   -0.7421   -0.7982 C   0  0  0  0  0  0  0  0  0  0  0  0
    0.1977   -1.1816   -0.2010 C   0  0  0  0  0  0  0  0  0  0  0  0
   -1.5872    0.3290   -0.5036 C   0  0  0  0  0  0  0  0  0  0  0  0
    1.0355   -0.0269   -0.0597 C   0  0  0  0  0  0  0  0  0  0  0  0
   -0.7867    1.4486   -0.2376 C   0  0  0  0  0  0  0  0  0  0  0  0
    0.5230    1.2730   -0.0413 C   0  0  0  0  0  0  0  0  0  0  0  0
  1 10  1  0
  2  3  1  0
  2  4  1  0
  2  5  1  0
  2  6  1  0
  3  7  1  0
  4  8  2  0
  4  9  1  0
  8 10  1  0
  9 11  2  0
 10 12  2  0
 11 12  1  0
M  CHG  1   2   1
M  END
>  <DRUGBANK_ID>  (1) 
DB01010

>  <SECONDARY_ACCESSION_NUMBERS>  (1) 
APRD00944

>  <COMMON_NAME>  (1) 
Edrophonium

>  <CAS_NUMBER>  (1) 
312-48-1

>  <UNII>  (1) 
70FP3JLY7N

>  <SYNONYMS>  (1) 
(3-hydroxyphenyl)dimethylethylammonium; 3-hydroxy-N,N-dimethyl-N-ethylanilinium; Edrophonium cation; Edrophonium ion; Ethyl-(3-hydroxy-phenyl)-dimethyl-ammonium; N-ethyl-3-hydroxy-N,N-dimethylanilinium; N-ethyl-3-hydroxy-N,N-dimethylbenzenaminium

$$$$
