
     RDKit          3D

  1  0  0  0  0  0  0  0  0  0999 V2000
    0.9259   -0.0393    0.0545 I   0  0  0  0  0 15  0  0  0  0  0  0
M  ISO  1   1 125
M  END
>  <DRUGBANK_ID>  (1) 
DB14804

>  <COMMON_NAME>  (1) 
Iodine I-125

>  <CAS_NUMBER>  (1) 
14158-31-7

>  <UNII>  (1) 
GVO776611R

>  <SYNONYMS>  (1) 
125-IODINE

$$$$
