
     RDKit          3D

 13 14  0  0  0  0  0  0  0  0999 V2000
    1.0691    0.0583   -0.0335 C   0  0  0  0  0  0  0  0  0  0  0  0
    0.5738    0.9903   -1.1270 C   0  0  0  0  0  0  0  0  0  0  0  0
    1.0411    0.5972   -2.4789 C   0  0  0  0  0  0  0  0  0  0  0  0
    0.9928   -0.6614   -2.9367 N   0  0  0  0  0  0  0  0  0  0  0  0
    1.4890   -0.5506   -4.2360 O   0  0  0  0  0  0  0  0  0  0  0  0
    1.7747    0.7694   -4.4252 C   0  0  0  0  0  0  0  0  0  0  0  0
    1.5317    1.5139   -3.3705 N   0  0  0  0  0  0  0  0  0  0  0  0
    2.2661    1.1705   -5.7621 C   0  0  0  0  0  0  0  0  0  0  0  0
    3.6254    1.8570   -5.6578 C   0  0  0  0  0  0  0  0  0  0  0  0
    3.9870    2.3692   -6.9620 N   0  0  0  0  0  0  0  0  0  0  0  0
    3.0301    2.7610   -7.8456 C   0  0  0  0  0  0  0  0  0  0  0  0
    1.7560    2.6745   -7.7066 N   0  0  0  0  0  0  0  0  0  0  0  0
    1.2819    2.1451   -6.4158 C   0  0  0  0  0  0  0  0  0  0  0  0
  1  2  1  0
  2  3  1  0
  3  4  2  0
  3  7  1  0
  4  5  1  0
  5  6  1  0
  6  7  2  0
  6  8  1  0
  8  9  1  0
  8 13  1  0
  9 10  1  0
 10 11  1  0
 11 12  2  0
 12 13  1  0
M  END
>  <DRUGBANK_ID>  (1) 
DB16945

>  <COMMON_NAME>  (1) 
CDD-0102

>  <CAS_NUMBER>  (1) 
146422-58-4

>  <UNII>  (1) 
9F064NJ81D

>  <SYNONYMS>  (1) 
5-(3-ethyl-1,2,4-oxadiazol-5-yl)-1,4,5,6-tetrahydropyrimidine; Cdd-0102 free base; Mcd-386cr free base; Pyrimidine, 5-(3-ethyl-1,2,4-oxadiazol-5-yl)-1,4,5,6-tetrahydro-

$$$$
