
     RDKit          3D

 31 33  0  0  0  0  0  0  0  0999 V2000
    1.2066   -0.4805    0.8276 Cl  0  0  0  0  0  0  0  0  0  0  0  0
    9.5319   -0.2502   -1.1239 F   0  0  0  0  0  0  0  0  0  0  0  0
    9.4117   -2.4181   -1.1210 F   0  0  0  0  0  0  0  0  0  0  0  0
    5.0419    1.8466   -1.1395 O   0  0  0  0  0  0  0  0  0  0  0  0
    2.6767    0.0201   -4.8652 N   0  0  0  0  0  0  0  0  0  0  0  0
    0.7024    1.5221   -1.1490 N   0  0  0  0  0  0  0  0  0  0  0  0
    4.2948    1.1635   -6.0865 N   0  0  0  0  0  0  0  0  0  0  0  0
    3.3414    1.0739    0.3084 N   0  0  0  0  0  0  0  0  0  0  0  0
    6.9354   -0.0622    0.2295 N   0  0  0  0  0  0  0  0  0  0  0  0
    4.9729   -1.2982    0.0471 N   0  0  0  0  0  0  0  0  0  0  0  0
    7.4433   -0.0400   -2.9337 N   0  0  0  0  0  0  0  0  0  0  0  0
    0.9188    1.3686   -3.6785 C   0  0  2  0  0  0  0  0  0  0  0  0
    1.7578    0.0535   -3.6951 C   0  0  1  0  0  0  0  0  0  0  0  0
    1.7885    2.6160   -3.8853 C   0  0  0  0  0  0  0  0  0  0  0  0
    2.6958    2.4903   -5.0595 C   0  0  0  0  0  0  0  0  0  0  0  0
    3.4986    1.2114   -4.8962 C   0  0  1  0  0  0  0  0  0  0  0  0
    0.0258    1.5340   -2.4323 C   0  0  0  0  0  0  0  0  0  0  0  0
    0.8403   -1.1837   -3.7143 C   0  0  0  0  0  0  0  0  0  0  0  0
    1.7297    2.5227   -0.8943 C   0  0  0  0  0  0  0  0  0  0  0  0
    2.5733    2.3367    0.3711 C   0  0  0  0  0  0  0  0  0  0  0  0
    4.7819    1.2331    0.1132 C   0  0  1  0  0  0  0  0  0  0  0  0
    2.8505   -0.2285    0.3663 C   0  0  0  0  0  0  0  0  0  0  0  0
    5.5571   -0.1355    0.1372 C   0  0  0  0  0  0  0  0  0  0  0  0
    3.6014   -1.3036    0.1533 C   0  0  0  0  0  0  0  0  0  0  0  0
    7.7819   -1.2473    0.0927 C   0  0  0  0  0  0  0  0  0  0  0  0
    8.6383   -1.2874   -1.1799 C   0  0  0  0  0  0  0  0  0  0  0  0
    7.7729   -1.2556   -2.4205 C   0  0  0  0  0  0  0  0  0  0  0  0
    7.3215   -2.4538   -2.9761 C   0  0  0  0  0  0  0  0  0  0  0  0
    6.5277   -2.4114   -4.1092 C   0  0  0  0  0  0  0  0  0  0  0  0
    6.6835   -0.0332   -4.0406 C   0  0  0  0  0  0  0  0  0  0  0  0
    6.2130   -1.1814   -4.6554 C   0  0  0  0  0  0  0  0  0  0  0  0
  1 22  1  0
  2 26  1  0
  3 26  1  0
 21  4  1  6
  5 13  1  0
  5 16  1  0
  6 17  1  0
  6 19  1  0
  8 20  1  0
  8 21  1  0
  8 22  1  0
  9 23  1  0
  9 25  1  0
 10 23  2  0
 10 24  1  0
 11 27  2  0
 11 30  1  0
 12 13  1  0
 12 14  1  0
 12 17  1  1
 13 18  1  6
 14 15  1  0
 15 16  1  0
 16  7  1  6
 19 20  1  0
 21 23  1  0
 22 24  2  0
 25 26  1  0
 26 27  1  0
 27 28  1  0
 28 29  2  0
 29 31  1  0
 30 31  2  0
M  END
>  <DRUGBANK_ID>  (1) 
DB07515

>  <COMMON_NAME>  (1) 
1-(2-{[(6-amino-2-methylpyridin-3-yl)methyl]amino}ethyl)-6-chloro-3-[(2,2-difluoro-2-pyridin-2-ylethyl)amino]-1,4-dihydropyrazin-2-ol

$$$$
