B1L
     RDKit          3D

 27 29  0  0  0  0  0  0  0  0999 V2000
   -3.0896    3.8020    1.3531 O   0  0  0  0  0  0  0  0  0  0  0  0
   -3.2188    2.7042    0.5654 C   0  0  0  0  0  0  0  0  0  0  0  0
   -3.2820    1.4614    1.1508 C   0  0  0  0  0  0  0  0  0  0  0  0
   -3.3794    0.3929    0.3073 C   0  0  0  0  0  0  0  0  0  0  0  0
   -3.4149    0.5274   -1.0729 C   0  0  0  0  0  0  0  0  0  0  0  0
   -3.3793    1.7721   -1.6631 C   0  0  0  0  0  0  0  0  0  0  0  0
   -3.2728    2.8706   -0.8235 C   0  0  0  0  0  0  0  0  0  0  0  0
   -3.3369   -0.6518   -1.9069 C   0  0  0  0  0  0  0  0  0  0  0  0
   -3.5431   -0.6277   -3.1164 O   0  0  0  0  0  0  0  0  0  0  0  0
   -2.8181   -1.7714   -1.3251 N   0  0  0  0  0  0  0  0  0  0  0  0
   -3.5032   -2.6350   -0.2779 C   0  0  1  0  0  0  0  0  0  0  0  0
   -3.4430   -3.9329   -1.0820 C   0  0  1  0  0  0  0  0  0  0  0  0
   -3.8263   -5.2534   -0.5165 C   0  0  0  0  0  0  0  0  0  0  0  0
   -2.9965   -5.6371    0.6880 C   0  0  0  0  0  0  0  0  0  0  0  0
   -3.6120   -5.1071    1.9711 C   0  0  0  0  0  0  0  0  0  0  0  0
   -3.8545   -3.6711    2.0185 N   0  0  0  0  0  0  0  0  0  0  0  0
   -2.9527   -2.8293    1.2077 C   0  0  0  0  0  0  0  0  0  0  0  0
   -4.1462   -3.7286   -2.3549 O   0  0  0  0  0  0  0  0  0  0  0  0
   -5.4370   -3.3109   -2.2593 C   0  0  0  0  0  0  0  0  0  0  0  0
   -6.0994   -3.2463   -1.2193 O   0  0  0  0  0  0  0  0  0  0  0  0
   -6.0004   -2.8611   -3.5400 C   0  0  0  0  0  0  0  0  0  0  0  0
   -5.6186   -3.4493   -4.7473 C   0  0  0  0  0  0  0  0  0  0  0  0
   -6.3194   -3.1399   -5.9171 C   0  0  0  0  0  0  0  0  0  0  0  0
   -7.3750   -2.2295   -5.8706 C   0  0  0  0  0  0  0  0  0  0  0  0
   -7.7155   -1.5908   -4.6846 C   0  0  0  0  0  0  0  0  0  0  0  0
   -7.0267   -1.9037   -3.5153 C   0  0  0  0  0  0  0  0  0  0  0  0
   -8.1247   -1.9368   -6.9713 O   0  0  0  0  0  0  0  0  0  0  0  0
  1  2  1  0
  2  3  2  0
  2  7  1  0
  3  4  1  0
  4  5  2  0
  5  6  1  0
  5  8  1  0
  6  7  2  0
  8  9  2  0
  8 10  1  0
 11 12  1  0
 11 17  1  0
 11 10  1  6
 12 13  1  0
 12 18  1  6
 13 14  1  0
 14 15  1  0
 15 16  1  0
 16 17  1  0
 18 19  1  0
 19 20  2  0
 19 21  1  0
 21 22  2  0
 21 26  1  0
 22 23  1  0
 23 24  2  0
 24 25  1  0
 24 27  1  0
 25 26  2  0
M  END
>  <DRUGBANK_ID>  (1) 
DB02611

>  <SECONDARY_ACCESSION_NUMBERS>  (1) 
EXPT00607

>  <COMMON_NAME>  (1) 
Balanol Analog 1

$$$$
