PHC
     RDKit          3D

 12 12  0  0  0  0  0  0  0  0999 V2000
    0.8530    0.0517   -0.0568 N   0  0  0  0  0  0  0  0  0  0  0  0
    0.0806    1.1933   -0.1528 C   0  0  0  0  0  0  0  0  0  0  0  0
   -1.1492    1.2387   -0.1623 O   0  0  0  0  0  0  0  0  0  0  0  0
    0.1480   -1.2188    0.0630 C   0  0  0  0  0  0  0  0  0  0  0  0
    2.3457    0.0551   -0.0275 C   0  0  1  0  0  0  0  0  0  0  0  0
    2.9506    1.4491   -0.2768 C   0  0  0  0  0  0  0  0  0  0  0  0
    2.8615   -0.5476    1.2808 C   0  0  0  0  0  0  0  0  0  0  0  0
    3.1883    0.2675    2.3758 C   0  0  0  0  0  0  0  0  0  0  0  0
    2.8769   -1.9416    1.4672 C   0  0  0  0  0  0  0  0  0  0  0  0
    3.4285   -0.2756    3.6334 C   0  0  0  0  0  0  0  0  0  0  0  0
    3.0403   -2.4800    2.7456 C   0  0  0  0  0  0  0  0  0  0  0  0
    3.3286   -1.6475    3.8244 C   0  0  0  0  0  0  0  0  0  0  0  0
  1  2  1  0
  1  4  1  0
  1  5  1  0
  2  3  2  0
  5  6  1  1
  5  7  1  0
  7  8  2  0
  7  9  1  0
  8 10  1  0
  9 11  2  0
 10 12  2  0
 11 12  1  0
M  END
>  <DRUGBANK_ID>  (1) 
DB04379

>  <SECONDARY_ACCESSION_NUMBERS>  (1) 
EXPT02581

>  <COMMON_NAME>  (1) 
N-Methyl-N-(Methylbenzyl)Formamide

$$$$
