
     RDKit          3D

 16 17  0  0  1  0  0  0  0  0999 V2000
   -3.0268    0.0596    0.2144 Cl  0  0  0  0  0  0  0  0  0  0  0  0
    2.5644    0.8387    0.0139 Cl  0  0  0  0  0  0  0  0  0  0  0  0
   -0.0903    1.9089    0.1168 O   0  0  0  0  0  0  0  0  0  0  0  0
   -2.8371    3.3859   -1.9765 N   0  0  0  0  0  0  0  0  0  0  0  0
   -1.7840    1.3839   -2.0640 N   0  0  0  0  0  0  0  0  0  0  0  0
   -1.2320    2.7381   -0.0436 C   0  0  0  0  0  0  0  0  0  0  0  0
   -1.9621    2.4897   -1.3973 C   0  0  0  0  0  0  0  0  0  0  0  0
   -3.4518    2.7329   -3.1207 C   0  0  0  0  0  0  0  0  0  0  0  0
   -2.7410    1.3832   -3.1786 C   0  0  0  0  0  0  0  0  0  0  0  0
   -2.0085    2.7162    1.2790 C   0  0  0  0  0  0  0  0  0  0  0  0
   -0.1812    0.5345    0.1054 C   0  0  0  0  0  0  0  0  0  0  0  0
   -1.3187   -0.3207    0.1214 C   0  0  0  0  0  0  0  0  0  0  0  0
    1.0897   -0.0831    0.0491 C   0  0  0  0  0  0  0  0  0  0  0  0
   -1.1560   -1.7072    0.0481 C   0  0  0  0  0  0  0  0  0  0  0  0
    1.2251   -1.4738    0.0146 C   0  0  0  0  0  0  0  0  0  0  0  0
    0.1001   -2.2840    0.0071 C   0  0  0  0  0  0  0  0  0  0  0  0
  1 12  1  0
  2 13  1  0
  3  6  1  0
  3 11  1  0
  4  7  1  0
  4  8  1  0
  5  7  2  0
  5  9  1  0
  6  7  1  0
  6 10  1  0
  8  9  1  0
 11 12  2  0
 11 13  1  0
 12 14  1  0
 13 15  2  0
 14 16  2  0
 15 16  1  0
M  END
>  <DRUGBANK_ID>  (1) 
DB04948

>  <COMMON_NAME>  (1) 
Lofexidine

>  <CAS_NUMBER>  (1) 
31036-80-3

>  <UNII>  (1) 
UI82K0T627

>  <SYNONYMS>  (1) 
2-(alpha-(2,6-Dichlorophenoxy)ethyl)2-imidazoline; Lofexidina; Lofexidine; Lofexidinum

$$$$
