M29
     RDKit          3D

 17 17  0  0  0  0  0  0  0  0999 V2000
    1.4334   -0.2851    0.0377 C   0  0  0  0  0  0  0  0  0  0  0  0
    0.5340   -1.3560    0.0341 C   0  0  0  0  0  0  0  0  0  0  0  0
   -0.8429   -1.1101   -0.0242 C   0  0  0  0  0  0  0  0  0  0  0  0
   -1.3193    0.2029   -0.1142 C   0  0  0  0  0  0  0  0  0  0  0  0
   -0.3921    1.2507   -0.1958 C   0  0  0  0  0  0  0  0  0  0  0  0
    0.9736    1.0202   -0.0979 C   0  0  0  0  0  0  0  0  0  0  0  0
    3.1753   -0.5140    0.2037 S   0  0  0  0  0  0  0  0  0  0  0  0
    3.8023   -0.1200   -1.0321 O   0  0  0  0  0  0  0  0  0  0  0  0
    3.5845    0.0161    1.4870 O   0  0  0  0  0  0  0  0  0  0  0  0
    3.3766   -2.1853    0.2936 N   0  0  0  0  0  0  0  0  0  0  0  0
   -2.7956    0.5159   -0.1417 C   0  0  0  0  0  0  0  0  0  0  0  0
   -3.3169    1.2436    1.1110 C   0  0  0  0  0  0  0  0  0  0  0  0
   -2.7391    2.6311    1.3501 C   0  0  0  0  0  0  0  0  0  0  0  0
   -3.4230    3.7166    0.9244 O   0  0  0  0  0  0  0  0  0  0  0  0
   -1.6389    2.7891    1.8732 O   0  0  0  0  0  0  0  0  0  0  0  0
   -4.8497    3.7252    0.7948 C   0  0  0  0  0  0  0  0  0  0  0  0
   -5.2521    3.1476   -0.5455 C   0  0  0  0  0  0  0  0  0  0  0  0
  1  7  1  0
  1  2  2  0
  1  6  1  0
  2  3  1  0
  3  4  2  0
  4  5  1  0
  4 11  1  0
  5  6  2  0
  7  8  2  0
  7  9  2  0
  7 10  1  0
 11 12  1  0
 12 13  1  0
 13 14  1  0
 13 15  2  0
 14 16  1  0
 16 17  1  0
M  END
>  <DRUGBANK_ID>  (1) 
DB08157

>  <COMMON_NAME>  (1) 
ETHYL 3-[4-(AMINOSULFONYL)PHENYL]PROPANOATE

$$$$
