
     RDKit          3D

  8  8  0  0  0  0  0  0  0  0999 V2000
    2.6010   -1.4006   -0.0036 O   0  0  0  0  0  0  0  0  0  0  0  0
    1.6274   -0.4457   -0.0048 C   0  0  0  0  0  0  0  0  0  0  0  0
    1.9429    0.9111   -0.0000 C   0  0  0  0  0  0  0  0  0  0  0  0
    0.9145    1.8554    0.0004 C   0  0  0  0  0  0  0  0  0  0  0  0
   -0.4180    1.4373   -0.0023 C   0  0  0  0  0  0  0  0  0  0  0  0
   -0.7168    0.0744   -0.0069 C   0  0  0  0  0  0  0  0  0  0  0  0
   -2.3601   -0.4370   -0.0068 Cl  0  0  0  0  0  0  0  0  0  0  0  0
    0.3039   -0.8729   -0.0099 C   0  0  0  0  0  0  0  0  0  0  0  0
  1  2  1  0
  2  3  2  0
  2  8  1  0
  3  4  1  0
  4  5  2  0
  5  6  1  0
  6  7  1  0
  6  8  2  0
M  END
>  <DRUGBANK_ID>  (1) 
DB01957

>  <SECONDARY_ACCESSION_NUMBERS>  (1) 
EXPT00165

>  <COMMON_NAME>  (1) 
3-Chlorophenol

>  <CAS_NUMBER>  (1) 
108-43-0

>  <UNII>  (1) 
Z2Z7M2FTAD

$$$$
