
     RDKit          3D

 36 38  0  0  1  0  0  0  0  0999 V2000
   -6.5383    3.0762   -1.9489 C   0  0  0  0  0  0  0  0  0  0  0  0
   -5.6930    4.0400   -2.7825 C   0  0  2  0  0  0  0  0  0  0  0  0
   -5.3546    5.3709   -2.4557 O   0  0  0  0  0  0  0  0  0  0  0  0
   -4.0572    5.6449   -3.0931 C   0  0  1  0  0  0  0  0  0  0  0  0
   -3.0335    4.7072   -2.7685 O   0  0  0  0  0  0  0  0  0  0  0  0
   -2.7611    3.4505   -3.4383 C   0  0  2  0  0  0  0  0  0  0  0  0
   -2.2691    3.3745   -4.9071 C   0  0  1  0  0  0  0  0  0  0  0  0
   -1.1339    4.0994   -5.3652 O   0  0  0  0  0  0  0  0  0  0  0  0
   -2.6523    2.0867   -5.7247 C   0  0  1  0  0  0  0  0  0  0  0  0
   -1.4797    1.2962   -5.9008 O   0  0  0  0  0  0  0  0  0  0  0  0
   -3.7087    1.1686   -5.0713 C   0  0  1  0  0  0  0  0  0  0  0  0
   -3.9663   -0.1983   -5.6974 C   0  0  0  0  0  0  0  0  0  0  0  0
   -4.5196   -1.0724   -4.7040 O   0  0  0  0  0  0  0  0  0  0  0  0
   -3.2368    0.9455   -3.7199 O   0  0  0  0  0  0  0  0  0  0  0  0
   -3.5314    2.1274   -2.9812 C   0  0  1  0  0  0  0  0  0  0  0  0
   -3.4431    1.9469   -1.5796 O   0  0  0  0  0  0  0  0  0  0  0  0
   -2.2296    1.3480   -1.1706 C   0  0  1  0  0  0  0  0  0  0  0  0
   -0.9972    2.0527   -1.6965 C   0  0  2  0  0  0  0  0  0  0  0  0
   -0.8638    1.7368   -3.1136 O   0  0  0  0  0  0  0  0  0  0  0  0
    0.3118    1.5634   -1.2512 C   0  0  1  0  0  0  0  0  0  0  0  0
    1.4140    2.4739   -1.7311 N   0  0  0  0  0  0  0  0  0  0  0  0
    1.2872    3.5238   -2.6662 C   0  0  0  0  0  0  0  0  0  0  0  0
    2.5808    4.1325   -3.1314 C   0  0  0  0  0  0  0  0  0  0  0  0
    0.2876    4.0139   -3.1043 O   0  0  0  0  0  0  0  0  0  0  0  0
    0.2216    1.2967    0.2518 C   0  0  2  0  0  0  0  0  0  0  0  0
    1.3117    0.4440    0.5556 O   0  0  0  0  0  0  0  0  0  0  0  0
   -0.9699    0.6113    0.6752 O   0  0  0  0  0  0  0  0  0  0  0  0
   -2.1943    1.2780    0.3334 C   0  0  2  0  0  0  0  0  0  0  0  0
   -3.4551    0.5136    0.8120 C   0  0  0  0  0  0  0  0  0  0  0  0
   -3.3915   -0.8789    0.5083 O   0  0  0  0  0  0  0  0  0  0  0  0
   -4.2620    5.8392   -4.6004 C   0  0  1  0  0  0  0  0  0  0  0  0
   -3.0917    6.3725   -5.2472 O   0  0  0  0  0  0  0  0  0  0  0  0
   -4.9174    4.5589   -5.2192 C   0  0  2  0  0  0  0  0  0  0  0  0
   -4.9584    4.5292   -6.6436 O   0  0  0  0  0  0  0  0  0  0  0  0
   -5.9613    3.8849   -4.3168 C   0  0  2  0  0  0  0  0  0  0  0  0
   -7.2189    4.3863   -4.6785 O   0  0  0  0  0  0  0  0  0  0  0  0
  2  1  1  1
  2  3  1  0
  2 35  1  0
  3  4  1  0
  4  5  1  6
  4 31  1  0
  6  7  1  0
  6 15  1  0
  6  5  1  6
  7  8  1  1
  7  9  1  0
  9 10  1  1
  9 11  1  0
 11 14  1  0
 11 12  1  6
 12 13  1  0
 14 15  1  0
 15 16  1  1
 17 18  1  0
 17 28  1  0
 17 16  1  1
 18 19  1  6
 18 20  1  0
 20 25  1  0
 20 21  1  1
 21 22  1  0
 22 23  1  0
 22 24  2  0
 25 26  1  6
 25 27  1  0
 27 28  1  0
 28 29  1  6
 29 30  1  0
 31 32  1  6
 31 33  1  0
 33 34  1  6
 33 35  1  0
 35 36  1  1
M  END
>  <DRUGBANK_ID>  (1) 
DB04678

>  <COMMON_NAME>  (1) 
H TYPE II TRISACCHARIDE

$$$$
