
     RDKit          3D

 35 38  0  0  1  0  0  0  0  0999 V2000
    0.4998    0.8542   -0.6041 C   0  0  0  0  0  0  0  0  0  0  0  0
   -0.2413   -1.2291   -0.9941 C   0  0  0  0  0  0  0  0  0  0  0  0
    1.1238   -2.6840    0.1862 O   0  0  0  0  0  0  0  0  0  0  0  0
    2.8778   -2.4153    0.3357 C   0  0  1  0  0  0  0  0  0  0  0  0
    3.5583   -1.8145   -1.4600 C   0  0  1  0  0  0  0  0  0  0  0  0
    3.5222   -0.2513   -1.3119 C   0  0  2  0  0  0  0  0  0  0  0  0
    3.6890   -0.2250    0.3896 C   0  0  2  0  0  0  0  0  0  0  0  0
    3.5956   -1.5249    1.0699 O   0  0  0  0  0  0  0  0  0  0  0  0
    2.9843    1.0389    1.1712 C   0  0  1  0  0  0  0  0  0  0  0  0
    1.4779    1.1911    1.4505 C   0  0  0  0  0  0  0  0  0  0  0  0
    0.6349   -0.2243    2.0153 O   0  0  0  0  0  0  0  0  0  0  0  0
    1.0297   -1.5596    1.9823 C   0  0  0  0  0  0  0  0  0  0  0  0
    0.1672   -1.6948    0.7660 C   0  0  0  0  0  0  0  0  0  0  0  0
    1.6373   -1.6614   -0.9740 C   0  0  0  0  0  0  0  0  0  0  0  0
    1.1485   -1.6431   -2.8209 C   0  0  0  0  0  0  0  0  0  0  0  0
   -0.5548   -2.0896   -3.0261 C   0  0  0  0  0  0  0  0  0  0  0  0
   -1.7460   -2.2908   -1.6000 C   0  0  0  0  0  0  0  0  0  0  0  0
   -1.3947   -2.0147    0.3373 C   0  0  0  0  0  0  0  0  0  0  0  0
    3.4607    1.1442    2.4761 O   0  0  0  0  0  0  0  0  0  0  0  0
    2.9662    0.0731    3.2914 C   0  0  0  0  0  0  0  0  0  0  0  0
    1.5157    0.1403    3.9094 C   0  0  0  0  0  0  0  0  0  0  0  0
    0.9658   -1.1021    4.2860 C   0  0  0  0  0  0  0  0  0  0  0  0
   -0.4434   -1.3036    4.2206 C   0  0  0  0  0  0  0  0  0  0  0  0
   -1.3421   -0.3441    3.7301 C   0  0  0  0  0  0  0  0  0  0  0  0
   -0.8627    0.8949    3.3747 C   0  0  0  0  0  0  0  0  0  0  0  0
    0.5226    1.1696    3.5914 C   0  0  0  0  0  0  0  0  0  0  0  0
    1.8332    0.1536   -1.7289 O   0  0  0  0  0  0  0  0  0  0  0  0
    0.8560   -0.6165   -0.1971 C   0  0  0  0  0  0  0  0  0  0  0  0
    0.4100   -2.7770   -1.2223 C   0  0  0  0  0  0  0  0  0  0  0  0
    1.8621   -3.6442   -1.4761 C   0  0  0  0  0  0  0  0  0  0  0  0
    2.0429   -4.8000   -0.9955 C   0  0  0  0  0  0  0  0  0  0  0  0
    0.8502   -5.3558   -0.8772 C   0  0  0  0  0  0  0  0  0  0  0  0
   -0.3742   -4.9457   -0.5370 C   0  0  0  0  0  0  0  0  0  0  0  0
   -0.5452   -3.7086   -0.6502 C   0  0  0  0  0  0  0  0  0  0  0  0
    4.6601   -2.5740   -1.5708 O   0  0  0  0  0  0  0  0  0  0  0  0
  1  2  1  0
  2  3  1  0
  4  3  1  6
  4  5  1  0
  4  8  1  0
  5  6  1  0
  5 35  1  1
  6  7  1  0
  6 27  1  1
  7  8  1  1
  7  9  1  0
  9 10  1  1
  9 19  1  0
 10 11  1  0
 11 12  1  0
 12 13  1  0
 13 14  2  0
 13 18  1  0
 14 15  1  0
 15 16  2  0
 16 17  1  0
 17 18  2  0
 19 20  1  0
 20 21  1  0
 21 22  2  0
 21 26  1  0
 22 23  1  0
 23 24  2  0
 24 25  1  0
 25 26  2  0
 27 28  1  0
 28 29  1  0
 29 30  2  0
 29 34  1  0
 30 31  1  0
 31 32  2  0
 32 33  1  0
 33 34  2  0
M  END
>  <DRUGBANK_ID>  (1) 
DB13227

>  <COMMON_NAME>  (1) 
Tribenoside

>  <CAS_NUMBER>  (1) 
10310-32-4

>  <UNII>  (1) 
Z7N0Y673NU

>  <SYNONYMS>  (1) 
TBGF; Tribenoside; Tribenosido; Tribenosidum

$$$$
