
     RDKit          3D

 24 25  0  0  0  0  0  0  0  0999 V2000
   -2.5278   -0.8234    1.2780 O   0  0  0  0  0  0  0  0  0  0  0  0
   -2.1253   -0.5786   -0.0831 S   0  0  0  0  0  0  0  0  0  0  0  0
   -2.5409   -1.4429   -1.1690 O   0  0  0  0  0  0  0  0  0  0  0  0
   -0.3599   -0.4471   -0.1419 C   0  0  0  0  0  0  0  0  0  0  0  0
   -2.6065    0.9791   -0.5044 N   0  0  0  0  0  0  0  0  0  0  0  0
    0.2046    0.8208   -0.3207 C   0  0  0  0  0  0  0  0  0  0  0  0
    0.4324   -1.6003   -0.0159 C   0  0  0  0  0  0  0  0  0  0  0  0
   -1.8837    2.0331    0.1824 C   0  0  0  0  0  0  0  0  0  0  0  0
   -0.5457    1.9852   -0.3646 N   0  0  0  0  0  0  0  0  0  0  0  0
    1.6042    0.9061   -0.3233 C   0  0  0  0  0  0  0  0  0  0  0  0
    1.8383   -1.4882   -0.0323 C   0  0  0  0  0  0  0  0  0  0  0  0
   -1.9524    1.9516    1.7298 C   0  0  0  0  0  0  0  0  0  0  0  0
    2.4226   -0.2250   -0.1479 C   0  0  0  0  0  0  0  0  0  0  0  0
    2.7968   -2.9800   -0.1048 S   0  0  0  0  0  0  0  0  0  0  0  0
   -1.1987    3.3566    2.6462 S   0  0  0  0  0  0  0  0  0  0  0  0
    4.1109    0.1147   -0.0233 Cl  0  0  0  0  0  0  0  0  0  0  0  0
    2.4005   -3.8137    1.3064 N   0  0  0  0  0  0  0  0  0  0  0  0
    2.2842   -3.7580   -1.2084 O   0  0  0  0  0  0  0  0  0  0  0  0
    4.2076   -2.7217    0.0388 O   0  0  0  0  0  0  0  0  0  0  0  0
    0.5878    3.1372    2.2672 C   0  0  0  0  0  0  0  0  0  0  0  0
    1.2565    1.8360    2.7025 C   0  0  0  0  0  0  0  0  0  0  0  0
    0.6562    0.7283    2.2309 F   0  0  0  0  0  0  0  0  0  0  0  0
    2.5355    1.8159    2.2544 F   0  0  0  0  0  0  0  0  0  0  0  0
    1.2957    1.7058    4.0408 F   0  0  0  0  0  0  0  0  0  0  0  0
  1  2  2  0
  2  3  2  0
  2  4  1  0
  2  5  1  0
  4  6  2  0
  4  7  1  0
  6  9  1  0
  6 10  1  0
  7 11  2  0
  8  5  1  0
  8  9  1  0
  8 12  1  0
 10 13  2  0
 11 13  1  0
 11 14  1  0
 12 15  1  0
 13 16  1  0
 14 17  1  0
 14 18  2  0
 14 19  2  0
 15 20  1  0
 20 21  1  0
 21 22  1  0
 21 23  1  0
 21 24  1  0
M  END
>  <DRUGBANK_ID>  (1) 
DB13989

>  <COMMON_NAME>  (1) 
Epitizide

>  <CAS_NUMBER>  (1) 
1764-85-8

>  <UNII>  (1) 
5B266B85J1

>  <SYNONYMS>  (1) 
Epithiazide; Epitizide; Epitizidum; Eptizida

$$$$
