M18
     RDKit          3D

 28 29  0  0  0  0  0  0  0  0999 V2000
    0.9378    0.0766   -0.1263 C   0  0  0  0  0  0  0  0  0  0  0  0
    0.3731    1.4852   -0.0414 C   0  0  0  0  0  0  0  0  0  0  0  0
   -0.5193    1.9347   -0.7488 O   0  0  0  0  0  0  0  0  0  0  0  0
    0.9749    2.2332    0.9266 O   0  0  0  0  0  0  0  0  0  0  0  0
    0.4402    3.5763    0.9806 C   0  0  0  0  0  0  0  0  0  0  0  0
    0.8489    4.4259   -0.2405 C   0  0  2  0  0  0  0  0  0  0  0  0
    2.3447    4.3231   -0.5549 C   0  0  0  0  0  0  0  0  0  0  0  0
    2.5569    5.4644   -1.5422 C   0  0  0  0  0  0  0  0  0  0  0  0
    1.5427    6.5328   -1.1177 C   0  0  0  0  0  0  0  0  0  0  0  0
    0.6514    5.8777   -0.1630 N   0  0  0  0  0  0  0  0  0  0  0  0
   -0.3062    6.4713    0.6456 C   0  0  0  0  0  0  0  0  0  0  0  0
   -0.4032    8.0052    0.6909 C   0  0  0  0  0  0  0  0  0  0  0  0
   -1.7648    8.4285    0.4183 N   0  0  0  0  0  0  0  0  0  0  0  0
   -2.5628    9.1120    1.2966 C   0  0  0  0  0  0  0  0  0  0  0  0
   -3.8386    9.4048    0.8894 O   0  0  0  0  0  0  0  0  0  0  0  0
   -4.4587    9.0436   -0.3778 C   0  0  0  0  0  0  0  0  0  0  0  0
   -3.7123    9.7147   -1.5386 C   0  0  0  0  0  0  0  0  0  0  0  0
   -4.5805    7.5182   -0.4760 C   0  0  0  0  0  0  0  0  0  0  0  0
   -5.9008    9.6033   -0.4043 C   0  0  0  0  0  0  0  0  0  0  0  0
   -2.1618    9.4923    2.3955 O   0  0  0  0  0  0  0  0  0  0  0  0
   -1.0783    5.8015    1.3360 O   0  0  0  0  0  0  0  0  0  0  0  0
    0.5384   -0.7100   -1.3722 C   0  0  0  0  0  0  0  0  0  0  0  0
    0.0485   -0.0889   -2.5362 C   0  0  0  0  0  0  0  0  0  0  0  0
   -0.2892   -0.8147   -3.6728 C   0  0  0  0  0  0  0  0  0  0  0  0
   -0.9401    0.0129   -5.0342 Cl  0  0  0  0  0  0  0  0  0  0  0  0
   -0.0872   -2.1835   -3.7045 C   0  0  0  0  0  0  0  0  0  0  0  0
    0.4180   -2.8269   -2.5732 C   0  0  0  0  0  0  0  0  0  0  0  0
    0.7176   -2.1010   -1.4108 C   0  0  0  0  0  0  0  0  0  0  0  0
  1  2  1  0
  1 22  1  0
  2  3  2  0
  2  4  1  0
  4  5  1  0
  6  5  1  1
  6  7  1  0
  6 10  1  0
  7  8  1  0
  8  9  1  0
  9 10  1  0
 10 11  1  0
 11 12  1  0
 11 21  2  0
 12 13  1  0
 13 14  1  0
 14 15  1  0
 14 20  2  0
 15 16  1  0
 16 17  1  0
 16 18  1  0
 16 19  1  0
 22 23  2  0
 22 28  1  0
 23 24  1  0
 24 25  1  0
 24 26  2  0
 26 27  1  0
 27 28  2  0
M  END
>  <DRUGBANK_ID>  (1) 
DB08152

>  <COMMON_NAME>  (1) 
{(2S)-1-[N-(tert-butoxycarbonyl)glycyl]pyrrolidin-2-yl}methyl (3-chlorophenyl)acetate

$$$$
