
     RDKit          3D

 33 37  0  0  0  0  0  0  0  0999 V2000
   -0.6024   -1.2385   -0.6759 C   0  0  0  0  0  0  0  0  0  0  0  0
    0.8693   -1.3586   -0.3460 C   0  0  0  0  0  0  0  0  0  0  0  0
    1.4118    0.0268   -0.6318 C   0  0  0  0  0  0  0  0  0  0  0  0
    0.2249    0.9605   -0.4118 C   0  0  0  0  0  0  0  0  0  0  0  0
   -0.9368    0.0833   -0.1908 N   0  0  0  0  0  0  0  0  0  0  0  0
   -1.2836   -0.1030    1.2131 C   0  0  0  0  0  0  0  0  0  0  0  0
   -0.1266   -0.5024    2.2717 C   0  0  0  0  0  0  0  0  0  0  0  0
    1.0038    0.6923    2.5298 C   0  0  0  0  0  0  0  0  0  0  0  0
    0.6926    2.1449    2.9457 O   0  0  0  0  0  0  0  0  0  0  0  0
   -0.2425    2.9766    2.3407 C   0  0  0  0  0  0  0  0  0  0  0  0
   -2.1480    4.4244    0.7790 C   0  0  0  0  0  0  0  0  0  0  0  0
   -2.3164    3.1560    1.2794 C   0  0  0  0  0  0  0  0  0  0  0  0
   -1.6006    2.7798    2.3816 C   0  0  0  0  0  0  0  0  0  0  0  0
    0.0843    4.2092    1.7319 C   0  0  0  0  0  0  0  0  0  0  0  0
   -0.9114    4.9912    1.0440 C   0  0  0  0  0  0  0  0  0  0  0  0
   -0.6923    6.2581    0.6305 N   0  0  0  0  0  0  0  0  0  0  0  0
   -1.7311    6.8840    0.0372 C   0  0  0  0  0  0  0  0  0  0  0  0
   -2.9581    6.3976   -0.2288 N   0  0  0  0  0  0  0  0  0  0  0  0
   -3.1850    5.1174    0.1398 C   0  0  0  0  0  0  0  0  0  0  0  0
   -2.3958    2.1199    3.2960 O   0  0  0  0  0  0  0  0  0  0  0  0
   -1.7396    1.0254    3.8358 C   0  0  0  0  0  0  0  0  0  0  0  0
   -4.5156    4.7145   -0.0619 O   0  0  0  0  0  0  0  0  0  0  0  0
   -4.9825    3.4373    0.2317 C   0  0  0  0  0  0  0  0  0  0  0  0
   -5.6188    0.7418    0.7496 C   0  0  0  0  0  0  0  0  0  0  0  0
   -5.3444    1.5996    1.8276 C   0  0  0  0  0  0  0  0  0  0  0  0
   -5.1277    2.9742    1.5518 C   0  0  0  0  0  0  0  0  0  0  0  0
   -5.2707    2.5553   -0.8232 C   0  0  0  0  0  0  0  0  0  0  0  0
   -5.6076    1.2010   -0.5688 C   0  0  0  0  0  0  0  0  0  0  0  0
   -5.9370   -0.6078    0.7004 N   0  0  0  0  0  0  0  0  0  0  0  0
   -5.9877    0.0959   -1.3866 C   0  0  0  0  0  0  0  0  0  0  0  0
   -6.4358   -0.9123   -0.5518 C   0  0  0  0  0  0  0  0  0  0  0  0
   -7.3256   -2.0753   -0.8520 C   0  0  0  0  0  0  0  0  0  0  0  0
   -5.2211    2.9918   -2.0907 F   0  0  0  0  0  0  0  0  0  0  0  0
  1  2  1  0
  1  5  1  0
  2  3  1  0
  3  4  1  0
  4  5  1  0
  5  6  1  0
  6  7  1  0
  7  8  1  0
  8  9  1  0
  9 10  1  0
 10 14  1  0
 11 12  2  0
 11 15  1  0
 11 19  1  0
 12 13  1  0
 13 10  2  0
 13 20  1  0
 14 15  2  0
 15 16  1  0
 16 17  2  0
 17 18  1  0
 18 19  2  0
 19 22  1  0
 20 21  1  0
 22 23  1  0
 23 27  1  0
 24 25  2  0
 24 28  1  0
 24 29  1  0
 25 26  1  0
 26 23  2  0
 27 28  2  0
 27 33  1  0
 28 30  1  0
 30 31  2  0
 31 29  1  0
 31 32  1  0
M  END
>  <DRUGBANK_ID>  (1) 
DB04849

>  <SECONDARY_ACCESSION_NUMBERS>  (1) 
DB12033

>  <COMMON_NAME>  (1) 
Cediranib

>  <CAS_NUMBER>  (1) 
288383-20-0

>  <UNII>  (1) 
NQU9IPY4K9

>  <SYNONYMS>  (1) 
Cediranib

$$$$
