AAX
     RDKit          3D

 34 38  0  0  0  0  0  0  0  0999 V2000
    0.9091   -0.0479    0.3924 O   0  0  0  0  0  0  0  0  0  0  0  0
    2.3109   -0.1246    0.0761 S   0  0  0  0  0  0  0  0  0  0  0  0
    2.7282   -0.1396   -1.3143 O   0  0  0  0  0  0  0  0  0  0  0  0
    3.0460    1.1087    0.9729 N   0  0  0  0  0  0  0  0  0  0  0  0
    4.4893    1.3249    1.0115 C   0  0  0  0  0  0  0  0  0  0  0  0
    5.0475    1.7269   -0.3015 C   0  0  0  0  0  0  0  0  0  0  0  0
    4.8308    3.0813   -0.9345 C   0  0  0  0  0  0  0  0  0  0  0  0
    4.1615    1.9007   -1.5179 C   0  0  0  0  0  0  0  0  0  0  0  0
    2.9256   -1.6367    0.6844 C   0  0  0  0  0  0  0  0  0  0  0  0
    3.6941   -1.7664    1.8216 C   0  0  0  0  0  0  0  0  0  0  0  0
    4.0962   -3.0353    2.2056 C   0  0  0  0  0  0  0  0  0  0  0  0
    2.5899   -2.7398   -0.0893 C   0  0  0  0  0  0  0  0  0  0  0  0
    2.7954   -4.0254    0.3926 C   0  0  0  0  0  0  0  0  0  0  0  0
    3.6385   -4.1728    1.5164 C   0  0  0  0  0  0  0  0  0  0  0  0
    3.9521   -5.4542    1.9004 O   0  0  0  0  0  0  0  0  0  0  0  0
    4.8728   -5.5644    2.9870 C   0  0  0  0  0  0  0  0  0  0  0  0
    2.0890   -5.1034   -0.1911 N   0  0  0  0  0  0  0  0  0  0  0  0
    1.3218   -4.9825   -1.2991 C   0  0  0  0  0  0  0  0  0  0  0  0
   -0.0381   -5.2368   -1.2244 O   0  0  0  0  0  0  0  0  0  0  0  0
   -0.5083   -4.8799   -2.4739 C   0  0  0  0  0  0  0  0  0  0  0  0
    0.5721   -4.4800   -3.2205 C   0  0  0  0  0  0  0  0  0  0  0  0
    1.7087   -4.5265   -2.4733 N   0  0  0  0  0  0  0  0  0  0  0  0
   -1.9052   -5.0777   -2.8222 C   0  0  0  0  0  0  0  0  0  0  0  0
   -2.2088   -5.9277   -3.8949 C   0  0  0  0  0  0  0  0  0  0  0  0
   -3.5316   -6.1686   -4.3064 C   0  0  0  0  0  0  0  0  0  0  0  0
   -4.5686   -5.5145   -3.6363 C   0  0  0  0  0  0  0  0  0  0  0  0
   -4.2820   -4.6534   -2.5736 C   0  0  0  0  0  0  0  0  0  0  0  0
   -2.9546   -4.4039   -2.1950 C   0  0  0  0  0  0  0  0  0  0  0  0
   -3.7840   -7.1446   -5.3641 C   0  0  0  0  0  0  0  0  0  0  0  0
   -4.3602   -6.8067   -6.5857 C   0  0  0  0  0  0  0  0  0  0  0  0
   -4.5382   -7.6756   -7.6106 N   0  0  0  0  0  0  0  0  0  0  0  0
   -4.1209   -8.9449   -7.4090 C   0  0  0  0  0  0  0  0  0  0  0  0
   -3.5540   -9.3926   -6.2291 C   0  0  0  0  0  0  0  0  0  0  0  0
   -3.3939   -8.4794   -5.1948 C   0  0  0  0  0  0  0  0  0  0  0  0
  1  2  2  0
  2  3  2  0
  2  4  1  0
  2  9  1  0
  4  5  1  0
  5  6  1  0
  6  7  1  0
  6  8  1  0
  7  8  1  0
  9 10  2  0
  9 12  1  0
 10 11  1  0
 11 14  2  0
 12 13  2  0
 13 14  1  0
 13 17  1  0
 14 15  1  0
 15 16  1  0
 17 18  1  0
 18 19  1  0
 18 22  2  0
 19 20  1  0
 20 21  2  0
 20 23  1  0
 21 22  1  0
 23 24  2  0
 23 28  1  0
 24 25  1  0
 25 26  2  0
 25 29  1  0
 26 27  1  0
 27 28  2  0
 29 30  2  0
 29 34  1  0
 30 31  1  0
 31 32  2  0
 32 33  1  0
 33 34  2  0
M  END
>  <DRUGBANK_ID>  (1) 
DB07333

>  <COMMON_NAME>  (1) 
N-(CYCLOPROPYLMETHYL)-4-(METHYLOXY)-3-({5-[3-(3-PYRIDINYL)PHENYL]-1,3-OXAZOL-2-YL}AMINO)BENZENESULFONAMIDE

$$$$
