MUH
     RDKit          3D

 33 36  0  0  0  0  0  0  0  0999 V2000
   -1.7879   -0.0842   -0.1595 C   0  0  0  0  0  0  0  0  0  0  0  0
   -1.1276    1.1381   -0.1733 C   0  0  0  0  0  0  0  0  0  0  0  0
    0.2843    1.2330   -0.1046 C   0  0  0  0  0  0  0  0  0  0  0  0
    1.0309    0.0435   -0.0451 C   0  0  0  0  0  0  0  0  0  0  0  0
    0.3624   -1.1843   -0.0992 C   0  0  0  0  0  0  0  0  0  0  0  0
   -1.0191   -1.2381   -0.2185 C   0  0  0  0  0  0  0  0  0  0  0  0
    2.5304   -0.0106   -0.0052 C   0  0  0  0  0  0  0  0  0  0  0  0
   -3.2003   -0.1081   -0.0714 N   0  0  0  0  0  0  0  0  0  0  0  0
   -4.0027   -1.2292    0.0138 C   0  0  0  0  0  0  0  0  0  0  0  0
   -2.6892   -2.1454    1.9809 C   0  0  0  0  0  0  0  0  0  0  0  0
   -3.6599   -2.3250    0.9808 C   0  0  0  0  0  0  0  0  0  0  0  0
   -4.3085   -3.5613    0.8931 C   0  0  0  0  0  0  0  0  0  0  0  0
   -3.9509   -4.6101    1.7636 C   0  0  0  0  0  0  0  0  0  0  0  0
   -2.9022   -4.4253    2.6799 C   0  0  0  0  0  0  0  0  0  0  0  0
   -2.2581   -3.2022    2.7721 C   0  0  0  0  0  0  0  0  0  0  0  0
   -4.6904   -5.9215    1.7213 C   0  0  0  0  0  0  0  0  0  0  0  0
   -6.0189   -5.7735    1.9740 F   0  0  0  0  0  0  0  0  0  0  0  0
   -4.5964   -6.5370    0.5125 F   0  0  0  0  0  0  0  0  0  0  0  0
   -4.2360   -6.8232    2.6369 F   0  0  0  0  0  0  0  0  0  0  0  0
    0.9107    2.4905    0.0166 N   0  0  0  0  0  0  0  0  0  0  0  0
   -0.5873    4.0482    1.1374 C   0  0  0  0  0  0  0  0  0  0  0  0
   -1.3028    5.2468    1.0550 C   0  0  0  0  0  0  0  0  0  0  0  0
   -1.1153    6.1025   -0.0234 C   0  0  0  0  0  0  0  0  0  0  0  0
   -0.1943    5.7432   -0.9898 C   0  0  0  0  0  0  0  0  0  0  0  0
    0.5231    4.5991   -0.9528 N   0  0  0  0  0  0  0  0  0  0  0  0
    0.2952    3.7494    0.0808 C   0  0  0  0  0  0  0  0  0  0  0  0
   -2.0145    2.5643    2.5367 C   0  0  0  0  0  0  0  0  0  0  0  0
   -2.0660    1.6670    3.5751 C   0  0  0  0  0  0  0  0  0  0  0  0
   -1.0039    1.3552    4.3347 N   0  0  0  0  0  0  0  0  0  0  0  0
    0.1401    1.9808    4.0161 C   0  0  0  0  0  0  0  0  0  0  0  0
    0.3092    2.8684    3.0262 N   0  0  0  0  0  0  0  0  0  0  0  0
   -0.7822    3.1423    2.2799 C   0  0  0  0  0  0  0  0  0  0  0  0
   -5.0433   -1.2941   -0.6494 O   0  0  0  0  0  0  0  0  0  0  0  0
  1  8  1  0
  1  6  1  0
  1  2  2  0
  2  3  1  0
  3  4  2  0
  3 20  1  0
  4  5  1  0
  4  7  1  0
  5  6  2  0
  8  9  1  0
  9 11  1  0
  9 33  2  0
 10 15  2  0
 10 11  1  0
 11 12  2  0
 12 13  1  0
 13 14  2  0
 13 16  1  0
 14 15  1  0
 16 17  1  0
 16 18  1  0
 16 19  1  0
 20 26  1  0
 21 26  1  0
 21 32  1  0
 21 22  2  0
 22 23  1  0
 23 24  2  0
 24 25  1  0
 25 26  2  0
 27 32  2  0
 27 28  1  0
 28 29  2  0
 29 30  1  0
 30 31  2  0
 31 32  1  0
M  END
>  <DRUGBANK_ID>  (1) 
DB08221

>  <COMMON_NAME>  (1) 
N-{4-METHYL-3-[(3-PYRIMIDIN-4-YLPYRIDIN-2-YL)AMINO]PHENYL}-3-(TRIFLUOROMETHYL)BENZAMIDE

$$$$
