
     RDKit          3D

 12 12  0  0  0  0  0  0  0  0999 V2000
   -0.5975    1.2191   -0.0023 C   0  0  0  0  0  0  0  0  0  0  0  0
    0.7644    1.1378   -0.2622 C   0  0  0  0  0  0  0  0  0  0  0  0
   -1.3864    0.0994    0.0971 N   0  0  0  0  0  0  0  0  0  0  0  0
   -1.3197    2.5095    0.2493 C   0  0  0  0  0  0  0  0  0  0  0  0
    1.3990   -0.0647   -0.2313 N   0  0  0  0  0  0  0  0  0  0  0  0
    1.6458    2.1591   -0.4945 O   0  0  0  0  0  0  0  0  0  0  0  0
   -0.7446   -1.0869    0.0374 C   0  0  0  0  0  0  0  0  0  0  0  0
   -0.9264    3.2881    1.5540 C   0  0  0  0  0  0  0  0  0  0  0  0
    0.6199   -1.1618   -0.0624 C   0  0  0  0  0  0  0  0  0  0  0  0
    1.2203    3.4259   -0.9716 C   0  0  0  0  0  0  0  0  0  0  0  0
    0.5548    3.4822    1.9819 C   0  0  0  0  0  0  0  0  0  0  0  0
   -1.5576    4.6798    1.4451 C   0  0  0  0  0  0  0  0  0  0  0  0
  1  2  2  0
  1  3  1  0
  1  4  1  0
  2  5  1  0
  2  6  1  0
  3  7  2  0
  4  8  1  0
  5  9  2  0
  6 10  1  0
  7  9  1  0
  8 11  1  0
  8 12  1  0
M  END
>  <DRUGBANK_ID>  (1) 
DB04512

>  <SECONDARY_ACCESSION_NUMBERS>  (1) 
EXPT02668

>  <COMMON_NAME>  (1) 
2-Isobutyl-3-methoxypyrazine

>  <CAS_NUMBER>  (1) 
24683-00-9

>  <UNII>  (1) 
S327O0T12O

>  <SYNONYMS>  (1) 
3-Isobutyl-2-methoxypyrazine

$$$$
