PXX
     RDKit          3D

 18 20  0  0  0  0  0  0  0  0999 V2000
    0.7789    0.0359    0.0253 C   0  0  0  0  0  0  0  0  0  0  0  0
    0.4907    0.3675    1.4786 C   0  0  0  0  0  0  0  0  0  0  0  0
   -0.1856    1.3614    1.7701 O   0  0  0  0  0  0  0  0  0  0  0  0
    0.8982   -0.4773    2.4867 N   0  0  0  0  0  0  0  0  0  0  0  0
    1.7723   -1.5841    2.4009 C   0  0  0  0  0  0  0  0  0  0  0  0
    2.9878   -1.5318    1.6885 C   0  0  0  0  0  0  0  0  0  0  0  0
    3.5291   -0.3210    1.2105 C   0  0  0  0  0  0  0  0  0  0  0  0
    4.6023   -0.3050    0.3412 C   0  0  0  0  0  0  0  0  0  0  0  0
    5.2317   -1.4990    0.1108 C   0  0  0  0  0  0  0  0  0  0  0  0
    4.8403   -2.6629    0.6671 N   0  0  0  0  0  0  0  0  0  0  0  0
    3.7300   -2.7077    1.4498 C   0  0  0  0  0  0  0  0  0  0  0  0
    3.3103   -3.9169    2.0238 C   0  0  0  0  0  0  0  0  0  0  0  0
    4.0172   -5.0532    1.8064 N   0  0  0  0  0  0  0  0  0  0  0  0
    3.6070   -6.2144    2.3491 C   0  0  0  0  0  0  0  0  0  0  0  0
    2.4830   -6.3260    3.1348 C   0  0  0  0  0  0  0  0  0  0  0  0
    1.7521   -5.1703    3.3897 C   0  0  0  0  0  0  0  0  0  0  0  0
    2.1497   -3.9395    2.8345 C   0  0  0  0  0  0  0  0  0  0  0  0
    1.4009   -2.7668    3.0404 C   0  0  0  0  0  0  0  0  0  0  0  0
  1  2  1  0
  2  3  2  0
  2  4  1  0
  4  5  1  0
  5  6  2  0
  5 18  1  0
  6  7  1  0
  6 11  1  0
  7  8  2  0
  8  9  1  0
  9 10  2  0
 10 11  1  0
 11 12  2  0
 12 13  1  0
 12 17  1  0
 13 14  2  0
 14 15  1  0
 15 16  2  0
 16 17  1  0
 17 18  2  0
M  END
>  <DRUGBANK_ID>  (1) 
DB08440

>  <COMMON_NAME>  (1) 
N-1,10-phenanthrolin-5-ylacetamide

$$$$
