
     RDKit          3D

 18 18  0  0  0  0  0  0  0  0999 V2000
    0.9905    0.2622    0.0053 C   0  0  0  0  0  0  0  0  0  0  0  0
    0.2927    1.0198   -1.0821 C   0  0  0  0  0  0  0  0  0  0  0  0
    0.3273   -0.2370    1.0755 C   0  0  0  0  0  0  0  0  0  0  0  0
   -0.8271    1.5177   -0.9320 O   0  0  0  0  0  0  0  0  0  0  0  0
    1.0136   -0.6307    2.3261 C   0  0  0  0  0  0  0  0  0  0  0  0
    2.2192   -0.9681    4.8699 C   0  0  0  0  0  0  0  0  0  0  0  0
    0.8999    0.7747   -2.2897 O   0  0  0  0  0  0  0  0  0  0  0  0
    2.0763    0.1764    2.7499 C   0  0  0  0  0  0  0  0  0  0  0  0
    0.5423   -1.6108    3.2117 C   0  0  0  0  0  0  0  0  0  0  0  0
    1.1240   -1.7517    4.4895 C   0  0  0  0  0  0  0  0  0  0  0  0
    2.6776    0.0087    3.9951 C   0  0  0  0  0  0  0  0  0  0  0  0
    2.7681   -1.2326    6.0966 O   0  0  0  0  0  0  0  0  0  0  0  0
   -1.7194   -0.8340   -3.2163 O   0  0  0  0  0  0  0  0  0  0  0  0
    0.1126    0.9651   -3.5165 C   0  0  0  0  0  0  0  0  0  0  0  0
   -0.7115   -0.2574   -4.0589 C   0  0  0  0  0  0  0  0  0  0  0  0
   -1.1953   -1.3762   -2.0225 C   0  0  0  0  0  0  0  0  0  0  0  0
    3.9676   -0.5233    6.4108 C   0  0  0  0  0  0  0  0  0  0  0  0
   -0.1649   -2.4730   -2.1064 C   0  0  0  0  0  0  0  0  0  0  0  0
  2  1  1  0
  3  1  2  0
  4  2  2  0
  5  3  1  0
  6 10  1  0
  7  2  1  0
  8  5  2  0
  9  5  1  0
 10  9  2  0
 11  8  1  0
 11  6  2  0
 12  6  1  0
 13 15  1  0
 14  7  1  0
 15 14  1  0
 16 13  1  0
 17 12  1  0
 18 16  1  0
M  END
>  <DRUGBANK_ID>  (1) 
DB15467

>  <COMMON_NAME>  (1) 
Cinoxate

>  <CAS_NUMBER>  (1) 
104-28-9

>  <UNII>  (1) 
5437O7N5BH

>  <SYNONYMS>  (1) 
2-Ethoxyethyl-p-methoxycinnamate; Cinoxate; Cinoxato; Cinoxatum

$$$$
