
     RDKit          3D

 38 41  0  0  1  0  0  0  0  0999 V2000
   -0.0405   -0.1742    6.9013 C   0  0  0  0  0  0  0  0  0  0  0  0
   -1.3050   -0.4396    6.1798 C   0  0  0  0  0  0  0  0  0  0  0  0
   -2.3758   -0.6636    6.7267 O   0  0  0  0  0  0  0  0  0  0  0  0
   -1.1845   -0.4393    4.8478 O   0  0  0  0  0  0  0  0  0  0  0  0
   -0.1315    0.2629    4.0852 C   0  0  2  0  0  0  0  0  0  0  0  0
    1.0744   -0.7224    4.1550 C   0  0  0  0  0  0  0  0  0  0  0  0
    2.1441   -0.2391    3.2479 C   0  0  1  0  0  0  0  0  0  0  0  0
    2.4002    1.2623    3.5667 C   0  0  1  0  0  0  0  0  0  0  0  0
    3.5388    1.5243    2.5466 C   0  0  0  0  0  0  0  0  0  0  0  0
    4.4979    0.2976    2.6578 C   0  0  0  0  0  0  0  0  0  0  0  0
    3.5817   -0.6697    3.4449 C   0  0  0  0  0  0  0  0  0  0  0  0
    3.9178   -1.5277    4.2505 O   0  0  0  0  0  0  0  0  0  0  0  0
    1.2572    2.3094    3.6940 C   0  0  0  0  0  0  0  0  0  0  0  0
   -0.0836    2.1805    3.9983 C   0  0  0  0  0  0  0  0  0  0  0  0
   -1.4388    3.6017    3.7161 C   0  0  1  0  0  0  0  0  0  0  0  0
   -2.9609    5.1539    3.9740 C   0  0  1  0  0  0  0  0  0  0  0  0
   -2.5145    6.5500    3.4475 O   0  0  0  0  0  0  0  0  0  0  0  0
   -1.2581    6.5972    3.2634 C   0  0  0  0  0  0  0  0  0  0  0  0
   -0.5167    7.0565    4.1180 O   0  0  0  0  0  0  0  0  0  0  0  0
   -1.1420    5.3612    2.3966 C   0  0  0  0  0  0  0  0  0  0  0  0
   -2.1982    4.7679    1.7339 C   0  0  0  0  0  0  0  0  0  0  0  0
   -2.8200    3.3690    1.9684 N   0  0  0  0  0  0  0  0  0  0  0  0
   -2.2247    2.5852    0.7648 C   0  0  0  0  0  0  0  0  0  0  0  0
   -0.7984    2.0012    0.7520 C   0  0  0  0  0  0  0  0  0  0  0  0
   -0.6522    0.7299    0.3512 C   0  0  0  0  0  0  0  0  0  0  0  0
   -3.5797    2.5911    3.5120 C   0  0  0  0  0  0  0  0  0  0  0  0
   -2.7550    2.7482    5.2112 C   0  0  0  0  0  0  0  0  0  0  0  0
   -2.9543    2.9836    6.4931 C   0  0  0  0  0  0  0  0  0  0  0  0
   -0.4181    4.4940    3.2005 C   0  0  0  0  0  0  0  0  0  0  0  0
    0.8818    4.7016    3.3531 C   0  0  0  0  0  0  0  0  0  0  0  0
    1.7461    3.6645    3.8595 C   0  0  0  0  0  0  0  0  0  0  0  0
    2.8351    3.8745    4.3690 O   0  0  0  0  0  0  0  0  0  0  0  0
    1.4338    5.9117    2.9966 O   0  0  0  0  0  0  0  0  0  0  0  0
   -4.4133    6.4998    3.9582 C   0  0  0  0  0  0  0  0  0  0  0  0
   -4.9530    7.1260    5.1800 O   0  0  0  0  0  0  0  0  0  0  0  0
   -5.5097    6.0412    5.8392 C   0  0  0  0  0  0  0  0  0  0  0  0
   -1.6138    1.7989    3.3692 C   0  0  0  0  0  0  0  0  0  0  0  0
    1.7584   -0.6620    1.8405 C   0  0  0  0  0  0  0  0  0  0  0  0
  1  2  1  0
  2  3  2  0
  2  4  1  0
  5  6  1  0
  5 14  1  0
  5  4  1  1
  6  7  1  0
  7  8  1  0
  7 11  1  0
  7 38  1  6
  8  9  1  6
  8 13  1  0
  9 10  1  0
 10 11  1  0
 11 12  2  0
 13 14  2  0
 13 31  1  0
 14 15  1  0
 15 16  1  0
 15 29  1  0
 15 37  1  6
 16 17  1  0
 16 34  1  6
 17 18  1  0
 18 20  1  0
 18 19  2  0
 20 29  1  0
 20 21  2  0
 21 22  1  0
 22 23  1  0
 22 26  1  0
 23 24  1  0
 24 25  2  0
 26 27  1  0
 27 28  2  0
 29 30  2  0
 30 31  1  0
 30 33  1  0
 31 32  2  0
 34 35  1  0
 35 36  1  0
M  END
>  <DRUGBANK_ID>  (1) 
DB12601

>  <COMMON_NAME>  (1) 
Sonolisib

>  <CAS_NUMBER>  (1) 
502632-66-8

>  <UNII>  (1) 
987796874T

>  <SYNONYMS>  (1) 
Sonolisib

$$$$
