NOQ
     RDKit          3D

 24 25  0  0  0  0  0  0  0  0999 V2000
   -1.3075    6.6924    3.1827 C   0  0  0  0  0  0  0  0  0  0  0  0
   -1.3192    8.0244    2.7871 C   0  0  0  0  0  0  0  0  0  0  0  0
   -1.1387    8.3405    1.4342 C   0  0  0  0  0  0  0  0  0  0  0  0
   -0.8786    7.3435    0.4938 C   0  0  0  0  0  0  0  0  0  0  0  0
   -1.1445    5.6927    2.2333 C   0  0  0  0  0  0  0  0  0  0  0  0
   -0.8102    6.0266    0.9191 C   0  0  0  0  0  0  0  0  0  0  0  0
   -1.5191    9.0808    3.6313 O   0  0  0  0  0  0  0  0  0  0  0  0
    0.5591    0.6748   -1.5532 C   0  0  0  0  0  0  0  0  0  0  0  0
    1.0872    1.4616   -0.4520 N   0  0  0  0  0  0  0  0  0  0  0  0
    0.9790    1.1158    0.8749 C   0  0  0  0  0  0  0  0  0  0  0  0
    0.4216    0.0733    1.2149 O   0  0  0  0  0  0  0  0  0  0  0  0
    1.6456    2.0604    1.9221 C   0  0  2  0  0  0  0  0  0  0  0  0
    1.3539    1.4931    3.3432 C   0  0  0  0  0  0  0  0  0  0  0  0
    1.8769    2.3729    4.4796 C   0  0  0  0  0  0  0  0  0  0  0  0
    1.3179    3.7812    4.3986 C   0  0  0  0  0  0  0  0  0  0  0  0
    1.6586    4.3720    3.0488 C   0  0  0  0  0  0  0  0  0  0  0  0
    1.1268    3.5098    1.8876 C   0  0  1  0  0  0  0  0  0  0  0  0
    1.3947    4.2972    0.6096 C   0  0  0  0  0  0  0  0  0  0  0  0
   -0.1453    4.7991   -0.1688 S   0  0  0  0  0  0  0  0  0  0  0  0
   -1.0776    3.6985   -0.1764 O   0  0  0  0  0  0  0  0  0  0  0  0
    0.2321    5.4400   -1.4197 O   0  0  0  0  0  0  0  0  0  0  0  0
   -1.7578    8.7489    4.9979 C   0  0  0  0  0  0  0  0  0  0  0  0
   -0.4849    1.4521   -2.3724 C   0  0  0  0  0  0  0  0  0  0  0  0
    0.0708    2.6651   -2.9934 N   0  0  0  0  0  0  0  0  0  0  0  0
  1  2  2  0
  1  5  1  0
  2  3  1  0
  2  7  1  0
  3  4  2  0
  4  6  1  0
  5  6  2  0
  6 19  1  0
  7 22  1  0
  8  9  1  0
  8 23  1  0
  9 10  1  0
 10 11  2  0
 12 13  1  0
 12 17  1  0
 12 10  1  6
 13 14  1  0
 14 15  1  0
 15 16  1  0
 16 17  1  0
 17 18  1  6
 18 19  1  0
 19 20  2  0
 19 21  2  0
 23 24  1  0
M  END
>  <DRUGBANK_ID>  (1) 
DB08287

>  <COMMON_NAME>  (1) 
(1R,2R)-N-(2-Aminoethyl)-2-{[(4-methoxyphenyl)sulfonyl]methyl}cyclohexanecarboxamide

$$$$
