
     RDKit          3D

 29 33  0  0  0  0  0  0  0  0999 V2000
    2.8527   -3.0537   -0.8695 C   0  0  0  0  0  0  0  0  0  0  0  0
    3.7448   -3.9878   -1.2028 N   0  0  0  0  0  0  0  0  0  0  0  0
    3.4924   -5.2925   -0.8127 C   0  0  0  0  0  0  0  0  0  0  0  0
    2.2197   -5.7182   -0.4901 C   0  0  0  0  0  0  0  0  0  0  0  0
    1.1487   -4.7436   -0.4242 C   0  0  0  0  0  0  0  0  0  0  0  0
    1.5286   -3.4181   -0.6429 N   0  0  0  0  0  0  0  0  0  0  0  0
    3.6305   -7.4315    0.0390 N   0  0  0  0  0  0  0  0  0  0  0  0
    4.3820   -6.3123   -0.2692 N   0  0  0  0  0  0  0  0  0  0  0  0
    2.3534   -7.0557   -0.1026 C   0  0  0  0  0  0  0  0  0  0  0  0
    0.0246   -5.0114    0.0385 O   0  0  0  0  0  0  0  0  0  0  0  0
    8.3516   -6.2482    0.7363 C   0  0  0  0  0  0  0  0  0  0  0  0
    6.8611   -6.0746    0.9679 C   0  0  0  0  0  0  0  0  0  0  0  0
    5.8831   -6.5184   -0.1985 C   0  0  0  0  0  0  0  0  0  0  0  0
    6.4831   -6.0823   -1.5097 C   0  0  0  0  0  0  0  0  0  0  0  0
    7.9853   -6.2717   -1.5852 C   0  0  0  0  0  0  0  0  0  0  0  0
    8.6779   -5.6474   -0.5116 O   0  0  0  0  0  0  0  0  0  0  0  0
    5.6671   -1.3496   -0.7248 N   0  0  0  0  0  0  0  0  0  0  0  0
    4.3569   -1.0084   -1.3562 C   0  0  0  0  0  0  0  0  0  0  0  0
    3.3270   -1.3860   -0.3354 C   0  0  2  0  0  0  0  0  0  0  0  0
    4.2744   -0.8130    1.0345 C   0  0  1  0  0  0  0  0  0  0  0  0
    5.7098   -0.6351    0.5305 C   0  0  0  0  0  0  0  0  0  0  0  0
    3.7890    0.3846    1.8065 C   0  0  0  0  0  0  0  0  0  0  0  0
    5.8070   -2.8128   -0.3172 C   0  0  0  0  0  0  0  0  0  0  0  0
    4.9486   -3.4202    1.0309 C   0  0  0  0  0  0  0  0  0  0  0  0
    3.6610   -3.0814    1.2406 N   0  0  0  0  0  0  0  0  0  0  0  0
    2.7574   -3.7108    1.9874 C   0  0  0  0  0  0  0  0  0  0  0  0
    3.0837   -4.8979    2.4806 C   0  0  0  0  0  0  0  0  0  0  0  0
    4.4374   -5.0503    2.5543 C   0  0  0  0  0  0  0  0  0  0  0  0
    5.3791   -4.2742    1.9220 N   0  0  0  0  0  0  0  0  0  0  0  0
  1  2  2  0
  1  6  1  0
  2  3  1  0
  3  4  2  0
  3  8  1  0
  4  5  1  0
  4  9  1  0
  5  6  1  0
  5 10  2  0
  7  8  1  0
  7  9  2  0
  8 13  1  0
 11 12  1  0
 11 16  1  0
 12 13  1  0
 13 14  1  0
 14 15  1  0
 15 16  1  0
 17 18  1  0
 17 21  1  0
 17 23  1  0
 18 19  1  0
 19 20  1  0
 19  1  1  1
 20 21  1  0
 20 22  1  6
 23 24  1  0
 24 25  2  0
 25 26  1  0
 26 27  2  0
 27 28  1  0
 28 29  2  0
 29 24  1  0
M  END
>  <DRUGBANK_ID>  (1) 
DB11953

>  <COMMON_NAME>  (1) 
PF-04447943

>  <CAS_NUMBER>  (1) 
1082744-20-4

>  <UNII>  (1) 
7N969W8Y4O

>  <SYNONYMS>  (1) 
4H-pyrazolo(3,4-d)pyrimidin-4-one, 1,5-dihydro-6-((3S,4S)-4-methyl-1-(2-pyrimidinylmethyl)-3-pyrrolidinyl)-1-(tetrahydro-2H-pyran-4-yl)-; 6-((3S,4S)-4-Methyl-1-(pyrimidin-2-ylmethyl)pyrrolidin-3-yl)-1-(tetrahydro-2H-pyran-4-yl)-1,5-dihydro-4H-pyrazolo(3,4-d)pyrimidin-4-one

$$$$
