
     RDKit          3D

 30 33  0  0  0  0  0  0  0  0999 V2000
    0.9114   -0.3924   -0.3313 C   0  0  0  0  0  0  0  0  0  0  0  0
    1.4885   -1.3498   -1.3704 C   0  0  0  0  0  0  0  0  0  0  0  0
    1.1306   -2.8593   -1.2336 C   0  0  0  0  0  0  0  0  0  0  0  0
    0.9447   -3.3607    0.0256 C   0  0  0  0  0  0  0  0  0  0  0  0
    1.2117   -2.3637    1.0879 C   0  0  1  0  0  0  0  0  0  0  0  0
    0.3623   -1.1521    0.6212 C   0  0  0  0  0  0  0  0  0  0  0  0
    0.6193   -4.7402    0.5421 C   0  0  2  0  0  0  0  0  0  0  0  0
    1.0481   -5.0503    2.0859 C   0  0  0  0  0  0  0  0  0  0  0  0
    0.3472   -3.9973    3.1613 C   0  0  2  0  0  0  0  0  0  0  0  0
    1.0146   -2.6899    2.5884 C   0  0  2  0  0  0  0  0  0  0  0  0
    0.3819   -4.1257    5.0733 C   0  0  1  0  0  0  0  0  0  0  0  0
    0.7997   -2.7478    5.1452 C   0  0  2  0  0  0  0  0  0  0  0  0
    1.2204   -1.4982    4.5408 C   0  0  0  0  0  0  0  0  0  0  0  0
    0.7236   -1.3213    3.1890 C   0  0  2  0  0  0  0  0  0  0  0  0
   -0.0394   -3.0879    6.8019 C   0  0  0  0  0  0  0  0  0  0  0  0
    1.1973   -2.3515    7.4076 C   0  0  2  0  0  0  0  0  0  0  0  0
    1.8900   -3.1543    6.4440 C   0  0  2  0  0  0  0  0  0  0  0  0
    2.3587   -0.9397   -2.1316 O   0  0  0  0  0  0  0  0  0  0  0  0
    2.7906   -2.1448    1.0108 C   0  0  0  0  0  0  0  0  0  0  0  0
   -0.5728   -0.7568    3.1483 O   0  0  0  0  0  0  0  0  0  0  0  0
   -1.0855   -2.7831    4.9120 C   0  0  0  0  0  0  0  0  0  0  0  0
    2.3206   -3.0022    3.0538 F   0  0  0  0  0  0  0  0  0  0  0  0
    1.1861   -5.6572   -0.2885 F   0  0  0  0  0  0  0  0  0  0  0  0
    1.6912   -2.4482    8.8369 C   0  0  0  0  0  0  0  0  0  0  0  0
    3.4025   -3.0266    6.2481 C   0  0  0  0  0  0  0  0  0  0  0  0
    4.2810   -1.4963    6.3094 S   0  0  0  0  0  0  0  0  0  0  0  0
    4.0767   -4.0435    6.1029 O   0  0  0  0  0  0  0  0  0  0  0  0
    1.7857   -4.5495    7.0818 O   0  0  0  0  0  0  0  0  0  0  0  0
    3.2274   -0.0964    6.6729 C   0  0  0  0  0  0  0  0  0  0  0  0
    2.4364    0.2688    5.6410 F   0  0  0  0  0  0  0  0  0  0  0  0
  1  2  1  0
  1  6  2  0
  2  3  1  0
  2 18  2  0
  3  4  2  0
  4  5  1  0
  4  7  1  0
  5  6  1  0
  5 10  1  0
  5 19  1  1
  7  8  1  0
  7 23  1  6
  9  8  1  6
  9 10  1  0
  9 11  1  0
 10 14  1  0
 10 22  1  1
 11 12  1  0
 11 15  1  1
 12 13  1  0
 12 17  1  0
 12 21  1  1
 13 14  1  0
 14 20  1  1
 15 16  1  0
 16 17  1  0
 16 24  1  1
 17 28  1  1
 17 25  1  0
 25 26  1  0
 25 27  2  0
 26 29  1  0
 29 30  1  0
M  END
>  <DRUGBANK_ID>  (1) 
DB13867

>  <COMMON_NAME>  (1) 
Fluticasone

>  <CAS_NUMBER>  (1) 
90566-53-3

>  <UNII>  (1) 
CUT2W21N7U

>  <SYNONYMS>  (1) 
Fluticason; Fluticasona; Fluticasone; Fluticasonum

$$$$
