1359
     RDKit          3D

 21 22  0  0  1  0  0  0  0  0999 V2000
    0.8340   -0.0820    0.2920 O   0  0  0  0  0  0  0  0  0  0  0  0
    2.4295   -2.5206    0.2442 O   0  0  0  0  0  0  0  0  0  0  0  0
    5.0559   -0.1458    1.5196 N   0  0  0  0  0  0  0  0  0  0  0  0
    2.1220    1.1122   -2.4160 C   0  0  0  0  0  0  0  0  0  0  0  0
    2.2129   -0.3898   -2.6939 C   0  0  0  0  0  0  0  0  0  0  0  0
    3.4042    1.5709   -1.7129 C   0  0  0  0  0  0  0  0  0  0  0  0
    3.6932   -0.7233   -2.6326 C   0  0  0  0  0  0  0  0  0  0  0  0
    4.4219    0.5052   -2.0803 C   0  0  0  0  0  0  0  0  0  0  0  0
    0.8635    1.5134   -1.6848 C   0  0  0  0  0  0  0  0  0  0  0  0
    0.3816    1.0125   -0.4402 C   0  0  0  0  0  0  0  0  0  0  0  0
    0.1016    2.5042   -2.3525 C   0  0  0  0  0  0  0  0  0  0  0  0
    6.5377   -0.1260    1.4687 C   0  0  0  0  0  0  0  0  0  0  0  0
    2.8494   -1.4165    1.0679 C   0  0  1  0  0  0  0  0  0  0  0  0
    4.4129   -1.3574    0.9752 C   0  0  0  0  0  0  0  0  0  0  0  0
    2.2348   -0.1183    0.5421 C   0  0  0  0  0  0  0  0  0  0  0  0
   -0.7832    1.5758    0.0935 C   0  0  0  0  0  0  0  0  0  0  0  0
   -1.0435    3.0510   -1.8012 C   0  0  0  0  0  0  0  0  0  0  0  0
    7.1139   -0.0185    0.0437 C   0  0  0  0  0  0  0  0  0  0  0  0
    6.9943    1.1335    2.2330 C   0  0  0  0  0  0  0  0  0  0  0  0
    7.1113   -1.3654    2.1624 C   0  0  0  0  0  0  0  0  0  0  0  0
   -1.4863    2.5917   -0.5622 C   0  0  0  0  0  0  0  0  0  0  0  0
  1 10  1  0
  1 15  1  0
  3 12  1  0
  3 14  1  0
  4  5  1  0
  4  6  1  0
  4  9  1  0
  5  7  1  0
  6  8  1  0
  7  8  1  0
  9 10  2  0
  9 11  1  0
 10 16  1  0
 11 17  2  0
 12 18  1  0
 12 19  1  0
 12 20  1  0
 13  2  1  6
 13 14  1  0
 13 15  1  0
 16 21  2  0
 17 21  1  0
M  END
>  <DRUGBANK_ID>  (1) 
DB01359

>  <COMMON_NAME>  (1) 
Penbutolol

>  <CAS_NUMBER>  (1) 
38363-40-5

>  <UNII>  (1) 
78W62V43DY

>  <SYNONYMS>  (1) 
(2S)-1-(tert-butylamino)-3-(2-cyclopentylphenoxy)propan-2-ol; Penbutolol; Penbutololum

$$$$
