
     RDKit          3D

 18 19  0  0  1  0  0  0  0  0999 V2000
    0.9604   -0.1163    0.1103 N   0  0  0  0  0  0  0  0  0  0  0  0
    0.2356   -1.1286    0.6657 C   0  0  0  0  0  0  0  0  0  0  0  0
   -0.9906   -1.1485    0.6028 O   0  0  0  0  0  0  0  0  0  0  0  0
    0.9526   -2.2503    1.3002 C   0  0  0  0  0  0  0  0  0  0  0  0
    2.0882   -2.0622    2.0806 C   0  0  0  0  0  0  0  0  0  0  0  0
    2.7984   -3.1327    2.5321 N   0  0  0  0  0  0  0  0  0  0  0  0
    2.3096   -4.3879    2.3846 C   0  0  0  0  0  0  0  0  0  0  0  0
    1.1002   -4.6081    1.7416 C   0  0  0  0  0  0  0  0  0  0  0  0
    0.4477   -3.5387    1.1446 C   0  0  0  0  0  0  0  0  0  0  0  0
    4.1473   -2.9695    3.1320 C   0  0  2  0  0  0  0  0  0  0  0  0
    4.0942   -2.2917    4.3791 O   0  0  0  0  0  0  0  0  0  0  0  0
    5.1121   -1.2505    4.3883 C   0  0  2  0  0  0  0  0  0  0  0  0
    4.3316    0.0718    4.3569 C   0  0  0  0  0  0  0  0  0  0  0  0
    4.1328    0.4989    3.0103 O   0  0  0  0  0  0  0  0  0  0  0  0
    6.0175   -1.5205    3.1704 C   0  0  1  0  0  0  0  0  0  0  0  0
    7.1155   -2.3823    3.4854 O   0  0  0  0  0  0  0  0  0  0  0  0
    5.0976   -2.2372    2.1916 C   0  0  1  0  0  0  0  0  0  0  0  0
    5.7454   -3.1563    1.3153 O   0  0  0  0  0  0  0  0  0  0  0  0
  1  2  1  0
  2  3  2  0
  2  4  1  0
  4  5  2  0
  4  9  1  0
  5  6  1  0
  6  7  2  0
  7  8  1  0
  8  9  2  0
 10  6  1  6
 10 11  1  0
 12 11  1  0
 12 13  1  6
 13 14  1  0
 15 12  1  0
 15 16  1  1
 15 17  1  0
 17 10  1  0
 17 18  1  1
M  CHG  1   6   1
M  END
>  <DRUGBANK_ID>  (1) 
DB14933

>  <COMMON_NAME>  (1) 
Nicotinamide riboside

>  <CAS_NUMBER>  (1) 
1341-23-7

>  <UNII>  (1) 
0I8H2M0L7N

$$$$
