
     RDKit          3D

 29 32  0  0  0  0  0  0  0  0999 V2000
    2.2458   -0.0955    0.1397 N   0  0  0  0  0  0  0  0  0  0  0  0
    0.8700   -0.0570    0.0181 C   0  0  0  0  0  0  0  0  0  0  0  0
    0.2789    1.1458   -0.0007 N   0  0  0  0  0  0  0  0  0  0  0  0
   -1.0862    1.1927   -0.0175 C   0  0  0  0  0  0  0  0  0  0  0  0
   -1.9361    0.0881   -0.0327 C   0  0  0  0  0  0  0  0  0  0  0  0
   -3.4003    0.2603   -0.1074 C   0  0  0  0  0  0  0  0  0  0  0  0
   -4.1233   -0.2196    0.9086 N   0  0  0  0  0  0  0  0  0  0  0  0
   -5.4428   -0.1237    0.7691 C   0  0  0  0  0  0  0  0  0  0  0  0
   -6.0202    0.4696   -0.2727 N   0  0  0  0  0  0  0  0  0  0  0  0
   -5.2233    0.9620   -1.2306 C   0  0  0  0  0  0  0  0  0  0  0  0
   -3.8954    0.8530   -1.1939 N   0  0  0  0  0  0  0  0  0  0  0  0
   -5.8163    1.5472   -2.3171 N   0  0  0  0  0  0  0  0  0  0  0  0
   -5.5582    1.0715   -3.6718 C   0  0  0  0  0  0  0  0  0  0  0  0
   -4.9027    2.1651   -4.5280 C   0  0  0  0  0  0  0  0  0  0  0  0
   -5.6638    3.3857   -4.4953 O   0  0  0  0  0  0  0  0  0  0  0  0
   -5.7626    3.8693   -3.1433 C   0  0  0  0  0  0  0  0  0  0  0  0
   -6.4730    2.8500   -2.2247 C   0  0  0  0  0  0  0  0  0  0  0  0
   -6.2380   -0.6663    1.7507 N   0  0  0  0  0  0  0  0  0  0  0  0
   -6.0423   -0.3584    3.1613 C   0  0  0  0  0  0  0  0  0  0  0  0
   -5.9038   -1.6543    3.9763 C   0  0  0  0  0  0  0  0  0  0  0  0
   -7.0131   -2.5421    3.7437 O   0  0  0  0  0  0  0  0  0  0  0  0
   -7.0865   -2.8858    2.3466 C   0  0  0  0  0  0  0  0  0  0  0  0
   -7.2942   -1.6322    1.4627 C   0  0  0  0  0  0  0  0  0  0  0  0
   -1.2893   -1.1622    0.0092 C   0  0  0  0  0  0  0  0  0  0  0  0
    0.1229   -1.2213    0.0526 C   0  0  0  0  0  0  0  0  0  0  0  0
   -2.0726   -2.4461   -0.0377 C   0  0  0  0  0  0  0  0  0  0  0  0
   -2.8922   -2.6285    1.0296 F   0  0  0  0  0  0  0  0  0  0  0  0
   -2.8509   -2.5376   -1.1507 F   0  0  0  0  0  0  0  0  0  0  0  0
   -1.2746   -3.5543   -0.0656 F   0  0  0  0  0  0  0  0  0  0  0  0
  1  2  1  0
  2  3  2  0
  2 25  1  0
  3  4  1  0
  4  5  2  0
  5  6  1  0
  5 24  1  0
  6  7  2  0
  6 11  1  0
  7  8  1  0
  8  9  2  0
  8 18  1  0
  9 10  1  0
 10 11  2  0
 10 12  1  0
 12 13  1  0
 12 17  1  0
 13 14  1  0
 14 15  1  0
 15 16  1  0
 16 17  1  0
 18 19  1  0
 18 23  1  0
 19 20  1  0
 20 21  1  0
 21 22  1  0
 22 23  1  0
 24 25  2  0
 24 26  1  0
 26 27  1  0
 26 28  1  0
 26 29  1  0
M  END
>  <DRUGBANK_ID>  (1) 
DB14846

>  <COMMON_NAME>  (1) 
Bimiralisib

>  <CAS_NUMBER>  (1) 
1225037-39-7

>  <UNII>  (1) 
6Z3QHB00LB

>  <SYNONYMS>  (1) 
2-Pyridinamine, 5-(4,6-di-4-morpholinyl-1,3,5-triazin-2-yl)-4-(trifluoromethyl)-; 5-(4,6-Dimorpholino-1,3,5-triazin-2-yl)-4-(trifluoromethyl)pyridin-2-amine; Bimiralisib

$$$$
