
     RDKit          3D

 33 35  0  0  1  0  0  0  0  0999 V2000
    1.3444   -0.2020    0.2541 C   0  0  0  0  0  0  0  0  0  0  0  0
   -2.0886    3.7408   -1.6350 C   0  0  0  0  0  0  0  0  0  0  0  0
   -2.6565    4.5320   -3.8157 C   0  0  0  0  0  0  0  0  0  0  0  0
   -0.9545    6.8697   -0.3775 C   0  0  0  0  0  0  0  0  0  0  0  0
    0.7718    1.0122    0.8281 C   0  0  2  0  0  0  0  0  0  0  0  0
   -3.0227    4.3833   -2.2687 C   0  0  0  0  0  0  0  0  0  0  0  0
   -0.9646    3.0797    0.2640 C   0  0  1  0  0  0  0  0  0  0  0  0
    0.1178    5.7410    0.1047 C   0  0  2  0  0  0  0  0  0  0  0  0
   -0.8064    0.4892   -0.1840 C   0  0  2  0  0  0  0  0  0  0  0  0
   -3.8299    5.1672   -1.3324 C   0  0  2  0  0  0  0  0  0  0  0  0
   -2.1698    4.6264    1.3840 C   0  0  1  0  0  0  0  0  0  0  0  0
   -0.3696    0.8050   -2.1233 C   0  0  1  0  0  0  0  0  0  0  0  0
   -3.8756    4.8771    0.5256 C   0  0  1  0  0  0  0  0  0  0  0  0
   -0.1704    4.3351   -2.5267 C   0  0  2  0  0  0  0  0  0  0  0  0
   -0.9381    2.5990   -1.4005 C   0  0  2  0  0  0  0  0  0  0  0  0
    0.7834    2.4933   -2.2734 C   0  0  2  0  0  0  0  0  0  0  0  0
    1.1196    5.3156   -1.3750 C   0  0  2  0  0  0  0  0  0  0  0  0
   -2.3947    3.4976    0.0539 C   0  0  1  0  0  0  0  0  0  0  0  0
    1.9405    2.8567   -1.2214 C   0  0  2  0  0  0  0  0  0  0  0  0
   -1.7982    1.3971    0.3078 N   0  0  0  0  0  0  0  0  0  0  0  0
   -3.6947    3.8950   -4.4430 O   0  0  0  0  0  0  0  0  0  0  0  0
   -2.2512    7.0615    0.1572 O   0  0  0  0  0  0  0  0  0  0  0  0
   -5.0294    4.6767   -1.7749 O   0  0  0  0  0  0  0  0  0  0  0  0
   -1.9937    4.5924    2.7235 O   0  0  0  0  0  0  0  0  0  0  0  0
    0.6058    0.0059   -2.6502 O   0  0  0  0  0  0  0  0  0  0  0  0
   -4.2866    6.0380    1.1339 O   0  0  0  0  0  0  0  0  0  0  0  0
   -0.8711    5.5117   -2.7413 O   0  0  0  0  0  0  0  0  0  0  0  0
    0.1365    1.9416   -0.6951 O   0  0  0  0  0  0  0  0  0  0  0  0
    0.3089    3.7986   -0.9770 O   0  0  0  0  0  0  0  0  0  0  0  0
   -2.3221    2.6708    1.6862 O   0  0  0  0  0  0  0  0  0  0  0  0
    1.8574    2.3112    0.3125 O   0  0  0  0  0  0  0  0  0  0  0  0
   -0.6298    4.5706    0.7254 O   0  0  0  0  0  0  0  0  0  0  0  0
    2.3001    4.3206   -1.3095 O   0  0  0  0  0  0  0  0  0  0  0  0
  5  1  1  6
  6  2  2  0
  6  3  1  0
  7  2  1  0
  7 20  1  1
  8  4  1  6
  9  5  1  0
  9 20  1  1
 10  6  1  0
 10 23  1  6
 11  7  1  0
 11 24  1  1
 12  9  1  0
 12 25  1  1
 13 10  1  0
 13 11  1  0
 13 26  1  1
 14 27  1  1
 15 14  1  0
 15 28  1  1
 16 12  1  0
 16 29  1  1
 17  8  1  0
 17 14  1  0
 17 33  1  1
 18 15  1  0
 18 30  1  6
 19 16  1  0
 19 33  1  1
 21  3  1  0
 22  4  1  0
 31  5  1  0
 31 19  1  0
 32  8  1  0
 32 18  1  0
M  END
>  <DRUGBANK_ID>  (1) 
DB02889

>  <SECONDARY_ACCESSION_NUMBERS>  (1) 
EXPT00191

>  <COMMON_NAME>  (1) 
4-O-(4,6-Dideoxy-4-{[4,5,6-Trihydroxy-3-(Hydroxymethyl)Cyclohex-2-En-1-Yl]Amino}-Beta-D-Lyxo-Hexopyranosyl)-Alpha-D-Erythro-Hexopyranose

$$$$
