
     RDKit          3D

 15 14  0  0  0  0  0  0  0  0999 V2000
    0.9786   -0.0119   -0.0632 C   0  0  0  0  0  0  0  0  0  0  0  0
   -0.5857    3.4228   -4.8127 C   0  0  0  0  0  0  0  0  0  0  0  0
    0.2392   -0.6217    0.7928 N   0  0  0  0  0  0  0  0  0  0  0  0
   -1.1052    3.9932   -5.7615 O   0  0  0  0  0  0  0  0  0  0  0  0
    0.3972    0.7001   -1.0410 N   0  0  0  0  0  0  0  0  0  0  0  0
   -1.2940    2.6028   -3.7219 C   0  0  1  0  0  0  0  0  0  0  0  0
    2.3145   -0.0515   -0.0279 N   0  0  0  0  0  0  0  0  0  0  0  0
   -2.7457    2.7438   -3.7983 N   0  0  0  0  0  0  0  0  0  0  0  0
    1.0025    1.4311   -2.1208 C   0  0  0  0  0  0  0  0  0  0  0  0
   -0.9166    1.1152   -3.7731 C   0  0  0  0  0  0  0  0  0  0  0  0
    0.5611    0.8527   -3.4637 C   0  0  0  0  0  0  0  0  0  0  0  0
    0.7554    3.4721   -4.6458 O   0  0  0  0  0  0  0  0  0  0  0  0
   -3.5705    3.3229   -2.8761 C   0  0  0  0  0  0  0  0  0  0  0  0
   -4.7702    3.4373   -3.1140 O   0  0  0  0  0  0  0  0  0  0  0  0
   -2.9681    3.7891   -1.5752 C   0  0  0  0  0  0  0  0  0  0  0  0
  1  3  2  0
  1  5  1  0
  1  7  1  0
  2  6  1  0
  2  4  2  0
  5  9  1  0
  6 10  1  6
  6  8  1  0
  8 13  1  0
  9 11  1  0
 10 11  1  0
 12  2  1  0
 14 13  2  0
 15 13  1  0
M  END
>  <DRUGBANK_ID>  (1) 
DB01985

>  <SECONDARY_ACCESSION_NUMBERS>  (1) 
EXPT00382

>  <COMMON_NAME>  (1) 
N-acetyl-L-arginine

>  <CAS_NUMBER>  (1) 
155-84-0

>  <UNII>  (1) 
TQ7DL04CAE

>  <SYNONYMS>  (1) 
N-Ac-L-Arg-OH; N-alpha-L-acetyl-arginine; N2-Acetyl-L-arginine

$$$$
