
     RDKit          3D

 17 16  0  0  0  0  0  0  0  0999 V2000
    0.7879    0.0419   -0.0360 O   0  0  0  0  0  0  0  0  0  0  0  0
    0.3417   -0.8265    0.9911 C   0  0  0  0  0  0  0  0  0  0  0  0
    0.9279   -2.2208    0.7991 C   0  0  0  0  0  0  0  0  0  0  0  0
    2.4592   -2.2087    0.8700 C   0  0  0  0  0  0  0  0  0  0  0  0
    2.9512   -1.6690    2.2170 C   0  0  0  0  0  0  0  0  0  0  0  0
    2.4500   -2.5446    3.3700 C   0  0  0  0  0  0  0  0  0  0  0  0
    2.9780   -3.9746    3.2199 C   0  0  0  0  0  0  0  0  0  0  0  0
    4.5099   -3.9724    3.2326 C   0  0  0  0  0  0  0  0  0  0  0  0
    5.0189   -3.3937    4.5565 C   0  0  0  0  0  0  0  0  0  0  0  0
    4.5106   -4.2459    5.7234 C   0  0  0  0  0  0  0  0  0  0  0  0
    5.0179   -5.6840    5.5753 C   0  0  0  0  0  0  0  0  0  0  0  0
    6.5495   -5.7010    5.5794 C   0  0  0  0  0  0  0  0  0  0  0  0
    7.0788   -5.1195    6.8937 C   0  0  0  0  0  0  0  0  0  0  0  0
    6.5833   -5.9473    8.0844 C   0  0  0  0  0  0  0  0  0  0  0  0
    7.0848   -7.3929    7.9998 C   0  0  0  0  0  0  0  0  0  0  0  0
    8.6124   -7.4631    7.9707 C   0  0  0  0  0  0  0  0  0  0  0  0
    9.2043   -6.8518    9.2303 C   0  0  0  0  0  0  0  0  0  0  0  0
  1  2  1  0
  2  3  1  0
  3  4  1  0
  4  5  1  0
  5  6  1  0
  6  7  1  0
  7  8  1  0
  8  9  1  0
  9 10  1  0
 10 11  1  0
 11 12  1  0
 12 13  1  0
 13 14  1  0
 14 15  1  0
 15 16  1  0
 16 17  1  0
M  END
>  <DRUGBANK_ID>  (1) 
DB09494

>  <COMMON_NAME>  (1) 
Cetyl alcohol

>  <CAS_NUMBER>  (1) 
36653-82-4

>  <UNII>  (1) 
936JST6JCN

>  <SYNONYMS>  (1) 
hexadecan-1-ol; palmityl alcohol

$$$$
