
     RDKit          3D

 18 18  0  0  0  0  0  0  0  0999 V2000
   -0.7275    1.2150   -0.0763 N   0  0  0  0  0  0  0  0  0  0  0  0
   -1.3488    0.0672   -0.0528 C   0  0  0  0  0  0  0  0  0  0  0  0
   -0.6208   -1.0802   -0.0492 N   0  0  0  0  0  0  0  0  0  0  0  0
    0.7405   -1.1069   -0.0149 C   0  0  0  0  0  0  0  0  0  0  0  0
    1.4039    0.0113   -0.0028 N   0  0  0  0  0  0  0  0  0  0  0  0
    0.6511    1.1554   -0.0337 C   0  0  0  0  0  0  0  0  0  0  0  0
    1.3499    2.2624   -0.0018 N   0  0  0  0  0  0  0  0  0  0  0  0
    1.3809   -2.3395    0.0350 N   0  0  0  0  0  0  0  0  0  0  0  0
   -2.7399   -0.0110    0.0099 N   0  0  0  0  0  0  0  0  0  0  0  0
    0.6850    3.4263   -0.0480 N   0  0  0  0  0  0  0  0  0  0  0  0
    2.8615   -2.3829    0.0143 C   0  0  0  0  0  0  0  0  0  0  0  0
    0.7116   -3.6415    0.0185 C   0  0  0  0  0  0  0  0  0  0  0  0
   -0.1018   -3.8574    1.2894 C   0  0  0  0  0  0  0  0  0  0  0  0
    3.4288   -3.0667    1.2521 C   0  0  0  0  0  0  0  0  0  0  0  0
   -3.5571   -1.2323   -0.0046 C   0  0  0  0  0  0  0  0  0  0  0  0
   -3.5105    1.2532   -0.0114 C   0  0  0  0  0  0  0  0  0  0  0  0
   -3.2669    2.0776    1.2491 C   0  0  0  0  0  0  0  0  0  0  0  0
   -4.4455   -1.3456    1.2307 C   0  0  0  0  0  0  0  0  0  0  0  0
  1  2  2  0
  1  6  1  0
  2  9  1  0
  2  3  1  0
  3  4  1  0
  4  5  2  0
  4  8  1  0
  5  6  1  0
  6  7  2  3
  7 10  1  0
  8 11  1  0
  8 12  1  0
  9 15  1  0
  9 16  1  0
 11 14  1  0
 12 13  1  0
 15 18  1  0
 16 17  1  0
M  END
>  <DRUGBANK_ID>  (1) 
DB13272

>  <COMMON_NAME>  (1) 
Meladrazine

>  <CAS_NUMBER>  (1) 
13957-36-3

>  <UNII>  (1) 
2V6Z0JG2X0

>  <SYNONYMS>  (1) 
Meladrazina; Meladrazine; MÃ©ladrazine; Meladrazinum

$$$$
