
     RDKit          3D

 11 10  0  0  1  0  0  0  0  0999 V2000
    0.9293   -0.0107    0.0695 C   0  0  0  0  0  0  0  0  0  0  0  0
    0.3975   -0.6479    1.3575 C   0  0  0  0  0  0  0  0  0  0  0  0
    0.9476    0.1520    2.5505 C   0  0  0  0  0  0  0  0  0  0  0  0
   -1.1601   -0.7492    1.3954 C   0  0  1  0  0  0  0  0  0  0  0  0
   -1.6553   -1.5552    0.2598 N   0  0  0  0  0  0  0  0  0  0  0  0
   -2.5212   -2.5948    0.3872 C   0  0  0  0  0  0  0  0  0  0  0  0
   -2.8019   -3.2478   -0.7569 N   0  0  0  0  0  0  0  0  0  0  0  0
   -3.0342   -2.9888    1.4246 O   0  0  0  0  0  0  0  0  0  0  0  0
   -1.5291   -1.3143    2.7957 C   0  0  0  0  0  0  0  0  0  0  0  0
   -2.3195   -0.4989    3.5388 O   0  0  0  0  0  0  0  0  0  0  0  0
   -1.0862   -2.3625    3.2489 O   0  0  0  0  0  0  0  0  0  0  0  0
  1  2  1  0
  2  3  1  0
  2  4  1  0
  4  5  1  6
  4  9  1  0
  5  6  1  0
  6  7  1  0
  6  8  2  0
  9 10  1  0
  9 11  2  0
M  END
>  <DRUGBANK_ID>  (1) 
DB01847

>  <SECONDARY_ACCESSION_NUMBERS>  (1) 
EXPT00879

>  <COMMON_NAME>  (1) 
N-Carbamyl-D-Valine

$$$$
