
     RDKit          3D

 13 13  0  0  1  0  0  0  0  0999 V2000
    0.3796   -0.2435   -0.4004 C   0  0  0  0  0  0  0  0  0  0  0  0
    0.3300    1.1111   -0.8140 O   0  0  0  0  0  0  0  0  0  0  0  0
    1.1299    2.1218   -0.1827 C   0  0  1  0  0  0  0  0  0  0  0  0
    1.0810    2.1825    1.2547 O   0  0  0  0  0  0  0  0  0  0  0  0
    1.6962    1.0646    1.8946 C   0  0  2  0  0  0  0  0  0  0  0  0
    1.5541    1.1512    3.4220 C   0  0  0  0  0  0  0  0  0  0  0  0
    0.1726    1.3145    3.7714 O   0  0  0  0  0  0  0  0  0  0  0  0
    3.1401    0.8051    1.3904 C   0  0  1  0  0  0  0  0  0  0  0  0
    3.5784   -0.4735    1.8560 O   0  0  0  0  0  0  0  0  0  0  0  0
    3.3157    0.9160   -0.1587 C   0  0  2  0  0  0  0  0  0  0  0  0
    4.7047    0.9147   -0.5262 O   0  0  0  0  0  0  0  0  0  0  0  0
    2.5909    2.1476   -0.6982 C   0  0  2  0  0  0  0  0  0  0  0  0
    3.3105    3.3281   -0.2941 O   0  0  0  0  0  0  0  0  0  0  0  0
  1  2  1  0
  3  2  1  1
  3  4  1  0
  3 12  1  0
  4  5  1  0
  5  6  1  1
  5  8  1  0
  6  7  1  0
  8  9  1  6
  8 10  1  0
 10 11  1  1
 10 12  1  0
 12 13  1  1
M  END
>  <DRUGBANK_ID>  (1) 
DB01979

>  <SECONDARY_ACCESSION_NUMBERS>  (1) 
EXPT02195; DB02284

>  <COMMON_NAME>  (1) 
Methyl alpha-D-mannoside

>  <CAS_NUMBER>  (1) 
25281-48-5

$$$$
