
     RDKit          3D

 10  9  0  0  0  0  0  0  0  0999 V2000
    0.6519   -2.5193    0.9619 C   0  0  0  0  0  0  0  0  0  0  0  0
    1.4662   -2.5723    2.2456 C   0  0  1  0  0  0  0  0  0  0  0  0
    0.4480   -2.5454    3.3919 C   0  0  2  0  0  0  0  0  0  0  0  0
   -0.1316   -1.1139    3.5833 C   0  0  1  0  0  0  0  0  0  0  0  0
    0.2318   -0.5769    4.9709 C   0  0  0  0  0  0  0  0  0  0  0  0
   -0.0171   -3.4832    0.5721 O   0  0  0  0  0  0  0  0  0  0  0  0
    2.2964   -3.7250    2.3354 O   0  0  0  0  0  0  0  0  0  0  0  0
    1.0419   -3.0296    4.6098 O   0  0  0  0  0  0  0  0  0  0  0  0
    0.2875   -0.1769    2.5632 O   0  0  0  0  0  0  0  0  0  0  0  0
   -0.1095    0.7955    5.0988 O   0  0  0  0  0  0  0  0  0  0  0  0
  2  7  1  6
  2  1  1  0
  3  2  1  0
  3  8  1  1
  4  9  1  6
  4  3  1  0
  5  4  1  0
  6  1  2  0
 10  5  1  0
M  END
>  <DRUGBANK_ID>  (1) 
DB09419

>  <COMMON_NAME>  (1) 
Xylose

>  <CAS_NUMBER>  (1) 
58-86-6

>  <UNII>  (1) 
A1TA934AKO

>  <SYNONYMS>  (1) 
(+)-Xylose; aldehydo-D-xylose; D-Xylose; Wood sugar; Xylose

$$$$
