1516
     RDKit          3D

 16 16  0  0  1  0  0  0  0  0999 V2000
    0.9215   -0.0274    0.1059 O   0  0  0  0  0  0  0  0  0  0  0  0
    0.3546   -4.1317   -2.4124 O   0  0  0  0  0  0  0  0  0  0  0  0
    1.5579   -2.7027   -0.2169 O   0  0  0  0  0  0  0  0  0  0  0  0
   -3.4462    1.1863   -1.5762 N   0  0  0  0  0  0  0  0  0  0  0  0
   -2.4367   -0.1885   -3.4185 C   0  0  0  0  0  0  0  0  0  0  0  0
   -3.7091    0.2163   -2.6442 C   0  0  0  0  0  0  0  0  0  0  0  0
   -1.3703   -0.8676   -2.5905 C   0  0  0  0  0  0  0  0  0  0  0  0
   -1.0359   -2.1963   -2.8481 C   0  0  0  0  0  0  0  0  0  0  0  0
   -0.6595   -0.1766   -1.6039 C   0  0  0  0  0  0  0  0  0  0  0  0
   -4.7181    0.8397   -3.6058 C   0  0  0  0  0  0  0  0  0  0  0  0
    0.3399   -0.8115   -0.8642 C   0  0  0  0  0  0  0  0  0  0  0  0
   -0.0246   -2.8489   -2.1278 C   0  0  0  0  0  0  0  0  0  0  0  0
    0.6398   -2.1659   -1.0850 C   0  0  0  0  0  0  0  0  0  0  0  0
    2.3403    0.0562   -0.0214 C   0  0  0  0  0  0  0  0  0  0  0  0
   -0.2481   -4.7964   -3.5108 C   0  0  0  0  0  0  0  0  0  0  0  0
    1.9056   -4.0698   -0.3437 C   0  0  0  0  0  0  0  0  0  0  0  0
  1 11  1  0
  1 14  1  0
  2 12  1  0
  2 15  1  0
  3 13  1  0
  3 16  1  0
  4  6  1  0
  5  6  1  0
  5  7  1  0
  6 10  1  0
  7  8  2  0
  7  9  1  0
  8 12  1  0
  9 11  2  0
 11 13  1  0
 12 13  2  0
M  END
>  <DRUGBANK_ID>  (1) 
DB01516

>  <COMMON_NAME>  (1) 
3,4,5-Trimethoxyamphetamine

>  <CAS_NUMBER>  (1) 
1082-88-8

>  <UNII>  (1) 
P2K02L3YON

$$$$
