
     RDKit          3D

 14 15  0  0  0  0  0  0  0  0999 V2000
   -1.2302    0.0392   -0.0110 C   0  0  0  0  0  0  0  0  0  0  0  0
    0.9301    0.6809    0.1202 N   0  0  0  0  0  0  0  0  0  0  0  0
    2.1135    1.5073    0.0083 C   0  0  0  0  0  0  0  0  0  0  0  0
   -0.3903    1.0862    0.0284 C   0  0  0  0  0  0  0  0  0  0  0  0
   -0.7822    2.5223    0.0099 C   0  0  0  0  0  0  0  0  0  0  0  0
    0.9376   -0.7191    0.0878 N   0  0  0  0  0  0  0  0  0  0  0  0
    2.0949   -1.4945    0.0144 C   0  0  0  0  0  0  0  0  0  0  0  0
    4.4728   -2.9262   -0.2060 C   0  0  0  0  0  0  0  0  0  0  0  0
    3.4700   -3.0923   -1.1623 C   0  0  0  0  0  0  0  0  0  0  0  0
    2.2758   -2.3821   -1.0489 C   0  0  0  0  0  0  0  0  0  0  0  0
    3.0849   -1.3621    0.9919 C   0  0  0  0  0  0  0  0  0  0  0  0
    4.2894   -2.0465    0.8603 C   0  0  0  0  0  0  0  0  0  0  0  0
   -0.3723   -1.1704   -0.0157 C   0  0  0  0  0  0  0  0  0  0  0  0
   -0.8117   -2.3109   -0.0622 O   0  0  0  0  0  0  0  0  0  0  0  0
  1  4  2  0
  2  3  1  0
  4  2  1  0
  4  5  1  0
  6 13  1  0
  6  2  1  0
  6  7  1  0
  7 11  1  0
  8  9  2  0
  8 12  1  0
  9 10  1  0
 10  7  2  0
 11 12  2  0
 13  1  1  0
 13 14  2  0
M  END
>  <DRUGBANK_ID>  (1) 
DB01435

>  <COMMON_NAME>  (1) 
Antipyrine

>  <CAS_NUMBER>  (1) 
60-80-0

>  <UNII>  (1) 
T3CHA1B51H

>  <SYNONYMS>  (1) 
1,2-Dihydro-1,5-dimethyl-2-phenyl-3H-pyrazol-3-one; 2,3-Dimethyl-1-phenyl-5-pyrazolone; Analgesine; Antipyrine; Fenazon; Fenazona; Phenazon; Phenazone

$$$$
