
     RDKit          3D

 21 22  0  0  0  0  0  0  0  0999 V2000
   -0.3416   -1.2359    0.0149 C   0  0  0  0  0  0  0  0  0  0  0  0
   -0.3722    1.0825    0.0884 N   0  0  0  0  0  0  0  0  0  0  0  0
   -0.7564    2.4911    0.0017 C   0  0  0  0  0  0  0  0  0  0  0  0
   -1.1382   -0.1159    0.0216 C   0  0  0  0  0  0  0  0  0  0  0  0
   -2.6534   -0.0328    0.0079 C   0  0  0  0  0  0  0  0  0  0  0  0
    0.9749    0.7164    0.0785 N   0  0  0  0  0  0  0  0  0  0  0  0
    2.0727    1.5820   -0.0039 C   0  0  0  0  0  0  0  0  0  0  0  0
    4.2759    3.2870   -0.1829 C   0  0  0  0  0  0  0  0  0  0  0  0
    4.0854    2.2995   -1.1473 C   0  0  0  0  0  0  0  0  0  0  0  0
    2.9895    1.4437   -1.0536 C   0  0  0  0  0  0  0  0  0  0  0  0
    2.3004    2.5361    0.9897 C   0  0  0  0  0  0  0  0  0  0  0  0
    3.3761    3.4159    0.8758 C   0  0  0  0  0  0  0  0  0  0  0  0
    1.0740   -0.6527   -0.0064 C   0  0  0  0  0  0  0  0  0  0  0  0
    2.1085   -1.3073   -0.0493 O   0  0  0  0  0  0  0  0  0  0  0  0
   -0.4740   -2.6442    0.0258 N   0  0  0  0  0  0  0  0  0  0  0  0
   -1.7466   -3.3888   -0.0677 C   0  0  0  0  0  0  0  0  0  0  0  0
    0.7074   -3.5378    0.0669 C   0  0  0  0  0  0  0  0  0  0  0  0
   -2.0867   -4.3678   -1.5849 S   0  0  0  0  0  0  0  0  0  0  0  0
   -0.9890   -5.5458   -1.4013 O   0  0  0  0  0  0  0  0  0  0  0  0
   -3.3991   -4.9788   -1.4667 O   0  0  0  0  0  0  0  0  0  0  0  0
   -1.6936   -3.6236   -2.7547 O   0  0  0  0  0  0  0  0  0  0  0  0
  1  4  2  0
  1 15  1  0
  2  3  1  0
  4  2  1  0
  4  5  1  0
  6 13  1  0
  6  2  1  0
  6  7  1  0
  7 11  1  0
  8  9  2  0
  8 12  1  0
  9 10  1  0
 10  7  2  0
 11 12  2  0
 13  1  1  0
 13 14  2  0
 15 16  1  0
 15 17  1  0
 16 18  1  0
 18 19  1  0
 20 18  2  0
 21 18  2  0
M  END
>  <DRUGBANK_ID>  (1) 
DB04817

>  <COMMON_NAME>  (1) 
Metamizole

>  <CAS_NUMBER>  (1) 
50567-35-6

>  <UNII>  (1) 
934T64RMNJ

>  <SYNONYMS>  (1) 
Dipyrone; Metamizol

$$$$
