
     RDKit          3D

 11 12  0  0  0  0  0  0  0  0999 V2000
    2.0754    0.7473    0.0020 N   0  0  0  0  0  0  0  0  0  0  0  0
   -1.5687    1.0864   -0.0006 N   0  0  0  0  0  0  0  0  0  0  0  0
    0.9008   -1.3510   -0.0022 N   0  0  0  0  0  0  0  0  0  0  0  0
   -1.4942   -1.1285    0.0002 N   0  0  0  0  0  0  0  0  0  0  0  0
    0.9501    2.8622   -0.0017 N   0  0  0  0  0  0  0  0  0  0  0  0
   -0.2364    0.7566   -0.0011 C   0  0  0  0  0  0  0  0  0  0  0  0
    0.9427    1.4838   -0.0009 C   0  0  0  0  0  0  0  0  0  0  0  0
   -0.2297   -0.6268   -0.0011 C   0  0  0  0  0  0  0  0  0  0  0  0
    2.0077   -0.5994   -0.0005 C   0  0  0  0  0  0  0  0  0  0  0  0
    3.3890    1.4012    0.0119 C   0  0  0  0  0  0  0  0  0  0  0  0
   -2.2848   -0.0786    0.0006 C   0  0  0  0  0  0  0  0  0  0  0  0
  1  7  2  0
  1  9  1  0
  1 10  1  0
  2  6  1  0
  2 11  1  0
  3  8  1  0
  3  9  2  0
  4  8  1  0
  4 11  2  0
  5  7  1  0
  6  7  1  0
  6  8  2  0
M  CHG  1   1   1
M  END
>  <DRUGBANK_ID>  (1) 
DB03164

>  <SECONDARY_ACCESSION_NUMBERS>  (1) 
EXPT02082

>  <COMMON_NAME>  (1) 
6-amino-1-methyl-7H-purin-1-ium

>  <UNII>  (1) 
98K2TG3E3W

>  <SYNONYMS>  (1) 
6-amino-1-methylpurine

$$$$
