
     RDKit          3D

 18 20  0  0  0  0  0  0  0  0999 V2000
    0.1264    0.7793    0.0601 C   0  0  0  0  0  0  0  0  0  0  0  0
    0.2084   -0.6079    0.0707 C   0  0  0  0  0  0  0  0  0  0  0  0
   -0.9169   -1.3897    0.0327 C   0  0  0  0  0  0  0  0  0  0  0  0
   -2.1489   -0.7319   -0.0402 C   0  0  0  0  0  0  0  0  0  0  0  0
   -2.2384    0.6921   -0.0551 C   0  0  0  0  0  0  0  0  0  0  0  0
   -1.0905    1.5025   -0.0100 C   0  0  0  0  0  0  0  0  0  0  0  0
    1.5204    1.3120    0.1347 C   0  0  0  0  0  0  0  0  0  0  0  0
    2.3018    0.0539   -0.2205 C   0  0  0  0  0  0  0  0  0  0  0  0
    1.4901   -1.0977    0.0921 O   0  0  0  0  0  0  0  0  0  0  0  0
   -0.9540    3.0094   -0.0443 C   0  0  2  0  0  0  0  0  0  0  0  0
   -1.7264    3.8018    1.0166 C   0  0  0  0  0  0  0  0  0  0  0  0
   -1.6116    4.3135   -0.3814 C   0  0  1  0  0  0  0  0  0  0  0  0
   -0.6793    5.5028   -0.6486 C   0  0  0  0  0  0  0  0  0  0  0  0
   -0.2602    5.5144   -2.0463 N   0  0  0  0  0  0  0  0  0  0  0  0
   -0.5779    6.5486   -2.8954 C   0  0  0  0  0  0  0  0  0  0  0  0
   -0.1422    6.3949   -4.3436 C   0  0  0  0  0  0  0  0  0  0  0  0
   -1.2009    7.5504   -2.5221 O   0  0  0  0  0  0  0  0  0  0  0  0
   -1.3509    6.4177   -5.2693 C   0  0  0  0  0  0  0  0  0  0  0  0
  1  2  1  0
  1  6  2  0
  1  7  1  0
  2  3  2  0
  2  9  1  0
  3  4  1  0
  4  5  2  0
  5  6  1  0
  7  8  1  0
  8  9  1  0
 10  6  1  6
 11 12  1  0
 11 10  1  0
 12 10  1  0
 12 13  1  1
 13 14  1  0
 14 15  1  0
 15 16  1  0
 15 17  2  0
 16 18  1  0
M  END
>  <DRUGBANK_ID>  (1) 
DB09071

>  <SECONDARY_ACCESSION_NUMBERS>  (1) 
DB05359

>  <COMMON_NAME>  (1) 
Tasimelteon

>  <CAS_NUMBER>  (1) 
609799-22-6

>  <UNII>  (1) 
SHS4PU80D9

>  <SYNONYMS>  (1) 
N-{[(1R,2R)-2-(2,3-dihydro-1-benzofuran-4-yl)cyclopropyl]methyl}propanamide; Tasimelteon; Tasimelteón; Tasimeltéon; Tasimelteonum

$$$$
