1598
     RDKit          3D

 20 21  0  0  1  0  0  0  0  0999 V2000
   -4.6996    9.4077    2.0502 S   0  0  0  0  0  0  0  0  0  0  0  0
   -1.6447    3.1915    3.1985 O   0  0  0  0  0  0  0  0  0  0  0  0
   -5.8848    4.2885    3.7032 O   0  0  0  0  0  0  0  0  0  0  0  0
   -7.5526    6.6544    4.5088 O   0  0  0  0  0  0  0  0  0  0  0  0
   -7.4786    7.8050    2.5986 O   0  0  0  0  0  0  0  0  0  0  0  0
   -4.7509    6.2045    4.3420 N   0  0  0  0  0  0  0  0  0  0  0  0
   -7.1690   11.0250    0.4738 N   0  0  0  0  0  0  0  0  0  0  0  0
   -6.8057    9.9889   -1.5892 N   0  0  0  0  0  0  0  0  0  0  0  0
   -3.2750    6.2749    4.0886 C   0  0  1  0  0  0  0  0  0  0  0  0
   -3.3719    4.8248    3.4961 C   0  0  2  0  0  0  0  0  0  0  0  0
   -3.0885    7.4701    3.1580 C   0  0  0  0  0  0  0  0  0  0  0  0
   -4.8815    4.9409    3.8435 C   0  0  0  0  0  0  0  0  0  0  0  0
   -2.6537    3.6244    4.1176 C   0  0  1  0  0  0  0  0  0  0  0  0
   -5.3824    7.2323    3.6510 C   0  0  0  0  0  0  0  0  0  0  0  0
   -4.4924    8.0282    3.0345 C   0  0  0  0  0  0  0  0  0  0  0  0
   -3.6309    2.4752    4.3533 C   0  0  0  0  0  0  0  0  0  0  0  0
   -6.8772    7.2681    3.5158 C   0  0  0  0  0  0  0  0  0  0  0  0
   -6.1114   10.3727    2.6900 C   0  0  0  0  0  0  0  0  0  0  0  0
   -6.5461   11.4930    1.7318 C   0  0  0  0  0  0  0  0  0  0  0  0
   -6.4076   10.4509   -0.3795 C   0  0  0  0  0  0  0  0  0  0  0  0
  1 15  1  0
  1 18  1  0
  3 12  2  0
  4 17  1  0
  5 17  2  0
  6  9  1  0
  6 12  1  0
  6 14  1  0
  7 19  1  0
  7 20  2  0
  8 20  1  0
  9 10  1  0
  9 11  1  6
 10 12  1  1
 11 15  1  0
 13 16  1  6
 13 10  1  0
 13  2  1  0
 14 15  2  0
 14 17  1  0
 18 19  1  0
M  END
>  <DRUGBANK_ID>  (1) 
DB01598

>  <COMMON_NAME>  (1) 
Imipenem

>  <CAS_NUMBER>  (1) 
64221-86-9

>  <UNII>  (1) 
Q20IM7HE75

>  <SYNONYMS>  (1) 
(5R,6S)-3-((2-(Formimidoylamino)ethyl)thio)-6-((R)-1-hydroxyethyl)-7-oxo-1-azabicyclo(3.2.0)hept-2-ene-2-carboxylic acid; (5R,6S)-3-(2-Formimidoylamino-ethylsulfanyl)-6-((R)-1-hydroxy-ethyl)-7-oxo-1-aza-bicyclo[3.2.0]hept-2-ene-2-carboxylic acid; (5R,6S)-6-((R)-1-Hydroxyethyl)-3-(2-(iminomethylamino)ethylthio)-7-oxo-1-azabicyclo(3.2.0)hept-2-ene-2-carbonsaeure; Imipenem; Imipenem anhydrous; Imipenemum; N-formimidoyl thienamycin; N-formimidoylthienamycin

$$$$
