
     RDKit          3D

 30 30  0  0  0  0  0  0  0  0999 V2000
    1.3557   -0.0076   -0.3051 N   0  0  0  0  0  0  0  0  0  0  0  0
    0.8685   -1.1981   -1.1126 C   0  0  1  0  0  0  0  0  0  0  0  0
    1.2380   -2.4945   -0.4904 C   0  0  0  0  0  0  0  0  0  0  0  0
    0.6226   -2.6938    0.9052 C   0  0  0  0  0  0  0  0  0  0  0  0
   -0.9153   -2.6219    1.1316 C   0  0  0  0  0  0  0  0  0  0  0  0
   -1.5505   -3.6787    1.2537 O   0  0  0  0  0  0  0  0  0  0  0  0
   -1.6685   -1.4202    1.1030 N   0  0  0  0  0  0  0  0  0  0  0  0
   -1.3082    0.0068    0.6443 C   0  0  1  0  0  0  0  0  0  0  0  0
   -1.5388    0.7247   -0.9001 C   0  0  0  0  0  0  0  0  0  0  0  0
   -3.2269    0.7633   -1.8458 S   0  0  0  0  0  0  0  0  0  0  0  0
   -1.5182    1.1365    1.6217 C   0  0  0  0  0  0  0  0  0  0  0  0
   -0.5772    1.6637    2.2088 O   0  0  0  0  0  0  0  0  0  0  0  0
   -2.8007    1.5800    1.7518 N   0  0  0  0  0  0  0  0  0  0  0  0
   -3.9291    1.0466    1.0421 C   0  0  0  0  0  0  0  0  0  0  0  0
   -4.9737    0.1902    1.6922 C   0  0  0  0  0  0  0  0  0  0  0  0
   -6.1699    0.2475    1.4687 O   0  0  0  0  0  0  0  0  0  0  0  0
   -4.4231   -0.8686    2.3296 O   0  0  0  0  0  0  0  0  0  0  0  0
   -0.4846   -1.5267   -1.7745 C   0  0  0  0  0  0  0  0  0  0  0  0
   -0.6305   -1.3730   -3.0042 O   0  0  0  0  0  0  0  0  0  0  0  0
   -1.4805   -2.1052   -1.1197 O   0  0  0  0  0  0  0  0  0  0  0  0
   -4.2471   -0.8487   -1.3899 C   0  0  0  0  0  0  0  0  0  0  0  0
   -4.0084   -2.0109   -2.3091 C   0  0  0  0  0  0  0  0  0  0  0  0
   -3.2467   -1.8333   -3.4606 C   0  0  0  0  0  0  0  0  0  0  0  0
   -2.7280   -2.9089   -4.1481 C   0  0  0  0  0  0  0  0  0  0  0  0
   -3.1463   -4.1833   -3.8082 C   0  0  0  0  0  0  0  0  0  0  0  0
   -3.9458   -4.4069   -2.6785 C   0  0  0  0  0  0  0  0  0  0  0  0
   -4.3741   -3.3142   -1.9206 C   0  0  0  0  0  0  0  0  0  0  0  0
   -2.8835   -5.2484   -4.7654 N   0  0  0  0  0  0  0  0  0  0  0  0
   -3.4312   -6.3404   -4.5680 O   0  0  0  0  0  0  0  0  0  0  0  0
   -2.1923   -4.9758   -5.7593 O   0  0  0  0  0  0  0  0  0  0  0  0
  2  1  1  1
  2  3  1  0
  2 18  1  0
  3  4  1  0
  4  5  1  0
  5  6  2  0
  5  7  1  0
  7  8  1  0
  8  9  1  6
  8 11  1  0
  9 10  1  0
 10 21  1  0
 11 12  2  0
 11 13  1  0
 13 14  1  0
 14 15  1  0
 15 16  2  0
 15 17  1  0
 18 19  2  0
 18 20  1  0
 21 22  1  0
 22 23  2  0
 23 24  1  0
 24 25  2  0
 25 26  1  0
 25 28  1  0
 26 27  2  0
 27 22  1  0
 28 29  2  0
 28 30  1  0
M  CHG  2  28   1  30  -1
M  END
>  <DRUGBANK_ID>  (1) 
DB03686

>  <SECONDARY_ACCESSION_NUMBERS>  (1) 
EXPT01653

>  <COMMON_NAME>  (1) 
S-(4-nitrobenzyl)glutathione

>  <CAS_NUMBER>  (1) 
6803-19-6

>  <SYNONYMS>  (1) 
S-(p-nitrobenzyl)glutathione

$$$$
