
     RDKit          3D

 41 46  0  0  1  0  0  0  0  0999 V2000
   -2.0923    0.0030   -0.0709 C   0  0  0  0  0  0  0  0  0  0  0  0
   -0.6542    0.0185   -0.0170 N   0  0  0  0  0  0  0  0  0  0  0  0
    0.1140   -1.0840    0.0404 C   0  0  0  0  0  0  0  0  0  0  0  0
    1.4058   -0.6356    0.0880 C   0  0  0  0  0  0  0  0  0  0  0  0
    1.3347    0.7530   -0.0016 C   0  0  0  0  0  0  0  0  0  0  0  0
    0.0543    1.1627   -0.0469 N   0  0  0  0  0  0  0  0  0  0  0  0
    2.7048   -1.6731    0.3367 S   0  0  0  0  0  0  0  0  0  0  0  0
    3.6866   -1.4224   -0.7213 O   0  0  0  0  0  0  0  0  0  0  0  0
    3.1656   -1.3721    1.6582 O   0  0  0  0  0  0  0  0  0  0  0  0
    1.9385   -3.3085    0.2747 N   0  0  0  0  0  0  0  0  0  0  0  0
    0.8301   -4.1799   -0.6112 C   0  0  0  0  0  0  0  0  0  0  0  0
    0.8921   -5.8756   -0.4732 C   0  0  0  0  0  0  0  0  0  0  0  0
    1.2096   -6.2566    0.8837 C   0  0  0  0  0  0  0  0  0  0  0  0
    1.2083   -7.5690    1.2186 C   0  0  0  0  0  0  0  0  0  0  0  0
    1.4305   -7.8465    2.5627 C   0  0  0  0  0  0  0  0  0  0  0  0
    1.7172   -6.8719    3.4773 C   0  0  0  0  0  0  0  0  0  0  0  0
    1.9646   -5.4683    3.0559 C   0  0  0  0  0  0  0  0  0  0  0  0
    2.1493   -5.2211    1.4899 C   0  0  2  0  0  0  0  0  0  0  0  0
    1.7193   -3.7547    1.5818 C   0  0  0  0  0  0  0  0  0  0  0  0
    3.3679   -5.4581    0.1003 C   0  0  0  0  0  0  0  0  0  0  0  0
    4.2731   -6.2793    0.3075 O   0  0  0  0  0  0  0  0  0  0  0  0
    3.0917   -4.9983   -1.6727 C   0  0  0  0  0  0  0  0  0  0  0  0
    3.2694   -3.7033   -2.1213 C   0  0  0  0  0  0  0  0  0  0  0  0
    2.3565   -3.0716   -3.0771 C   0  0  0  0  0  0  0  0  0  0  0  0
    1.3650   -3.8369   -3.7292 C   0  0  0  0  0  0  0  0  0  0  0  0
    1.3251   -5.1666   -3.4088 C   0  0  0  0  0  0  0  0  0  0  0  0
    2.2033   -5.7398   -2.4902 N   0  0  0  0  0  0  0  0  0  0  0  0
    2.2496   -1.5765   -3.3602 C   0  0  0  0  0  0  0  0  0  0  0  0
    2.9409   -1.2636   -4.4774 F   0  0  0  0  0  0  0  0  0  0  0  0
    0.9484   -1.1997   -3.5873 F   0  0  0  0  0  0  0  0  0  0  0  0
    2.6399   -0.6929   -2.4250 F   0  0  0  0  0  0  0  0  0  0  0  0
    1.4088   -7.4719    4.7010 C   0  0  0  0  0  0  0  0  0  0  0  0
    0.9722   -8.7395    4.5655 N   0  0  0  0  0  0  0  0  0  0  0  0
    1.0771   -9.0121    3.2213 N   0  0  0  0  0  0  0  0  0  0  0  0
    0.7697  -10.3113    2.6613 C   0  0  0  0  0  0  0  0  0  0  0  0
   -0.4337  -10.9766    2.9653 C   0  0  0  0  0  0  0  0  0  0  0  0
   -0.7187  -12.2474    2.4131 C   0  0  0  0  0  0  0  0  0  0  0  0
    0.2062  -12.8761    1.5892 C   0  0  0  0  0  0  0  0  0  0  0  0
   -0.0562  -14.0946    1.0902 F   0  0  0  0  0  0  0  0  0  0  0  0
    1.4035  -12.2435    1.2830 C   0  0  0  0  0  0  0  0  0  0  0  0
    1.6790  -10.9566    1.7978 C   0  0  0  0  0  0  0  0  0  0  0  0
  1  2  1  0
  2  3  1  0
  2  6  1  0
  3  4  2  0
  4  5  1  0
  4  7  1  0
  5  6  2  0
  7  8  2  0
  7  9  2  0
  7 10  1  0
 10 11  1  0
 10 19  1  0
 11 12  1  0
 12 13  1  0
 13 14  2  0
 14 15  1  0
 15 16  2  0
 15 34  1  0
 16 17  1  0
 16 32  1  0
 18 17  1  0
 18 13  1  0
 18 19  1  0
 18 20  1  6
 20 21  2  0
 20 22  1  0
 22 23  2  0
 22 27  1  0
 23 24  1  0
 24 25  2  0
 24 28  1  0
 25 26  1  0
 26 27  2  0
 28 29  1  0
 28 30  1  0
 28 31  1  0
 32 33  2  0
 33 34  1  0
 34 35  1  0
 35 36  2  0
 35 41  1  0
 36 37  1  0
 37 38  2  0
 38 39  1  0
 38 40  1  0
 40 41  2  0
M  END
>  <DRUGBANK_ID>  (1) 
DB14976

>  <COMMON_NAME>  (1) 
Relacorilant

>  <CAS_NUMBER>  (1) 
1496510-51-0

>  <UNII>  (1) 
2158753C7E

>  <SYNONYMS>  (1) 
CORT125134; Relacorilant

$$$$
