
     RDKit          3D

 28 29  0  0  0  0  0  0  0  0999 V2000
    0.9522   -0.0333    0.0538 C   0  0  1  0  0  0  0  0  0  0  0  0
    0.7504    0.9308    1.1941 C   0  0  0  0  0  0  0  0  0  0  0  0
    1.4421    1.8949    1.4987 O   0  0  0  0  0  0  0  0  0  0  0  0
   -0.3927    0.6899    1.8408 O   0  0  0  0  0  0  0  0  0  0  0  0
    0.5173   -1.4819    0.3293 C   0  0  0  0  0  0  0  0  0  0  0  0
    1.0515   -2.1282    1.6121 C   0  0  0  0  0  0  0  0  0  0  0  0
    0.5329   -1.5392    2.9070 C   0  0  0  0  0  0  0  0  0  0  0  0
   -0.4696   -1.8769    3.5137 O   0  0  0  0  0  0  0  0  0  0  0  0
    1.2420   -0.4544    3.2875 O   0  0  0  0  0  0  0  0  0  0  0  0
    0.2652    0.5574   -1.1361 N   0  0  0  0  0  0  0  0  0  0  0  0
   -1.4297    0.5564   -1.3357 S   0  0  0  0  0  0  0  0  0  0  0  0
   -1.6715    1.2818   -2.5746 O   0  0  0  0  0  0  0  0  0  0  0  0
   -1.9269   -0.7782   -1.1609 O   0  0  0  0  0  0  0  0  0  0  0  0
   -2.0775    1.5976   -0.0326 C   0  0  0  0  0  0  0  0  0  0  0  0
   -2.9784    1.8666    2.1871 C   0  0  0  0  0  0  0  0  0  0  0  0
   -3.3062    1.2992    3.3931 C   0  0  0  0  0  0  0  0  0  0  0  0
   -3.2862    2.1134    4.5276 C   0  0  0  0  0  0  0  0  0  0  0  0
   -3.3131    3.4846    4.5244 C   0  0  0  0  0  0  0  0  0  0  0  0
   -2.8419    4.0538    3.3647 C   0  0  0  0  0  0  0  0  0  0  0  0
   -2.6066    3.2395    2.2209 C   0  0  0  0  0  0  0  0  0  0  0  0
   -1.9284    3.7429    1.1192 C   0  0  0  0  0  0  0  0  0  0  0  0
   -1.6581    2.9342    0.0090 C   0  0  0  0  0  0  0  0  0  0  0  0
   -2.7970    1.0579    1.0400 C   0  0  0  0  0  0  0  0  0  0  0  0
   -4.4589    3.6183    6.7004 C   0  0  0  0  0  0  0  0  0  0  0  0
   -3.7637    4.2369    5.5743 O   0  0  0  0  0  0  0  0  0  0  0  0
   -5.8693    3.0154    6.4459 C   0  0  0  0  0  0  0  0  0  0  0  0
   -5.9023    1.7539    5.5844 C   0  0  0  0  0  0  0  0  0  0  0  0
   -5.1268    0.5768    6.2246 C   0  0  0  0  0  0  0  0  0  0  0  0
  1 10  1  0
  1  5  1  1
  1  2  1  0
  2  3  2  0
  2  4  1  0
  5  6  1  0
  6  7  1  0
  7  8  2  0
  7  9  1  0
 10 11  1  0
 11 14  1  0
 11 12  2  0
 11 13  2  0
 14 22  2  0
 14 23  1  0
 15 16  1  0
 15 20  1  0
 15 23  2  0
 16 17  2  0
 17 18  1  0
 18 19  2  0
 18 25  1  0
 19 20  1  0
 20 21  2  0
 21 22  1  0
 24 25  1  0
 24 26  1  0
 26 27  1  0
 27 28  1  0
M  END
>  <DRUGBANK_ID>  (1) 
DB08106

>  <COMMON_NAME>  (1) 
N-[(6-butoxynaphthalen-2-yl)sulfonyl]-D-glutamic acid

$$$$
