
     RDKit          3D

 23 24  0  0  1  0  0  0  0  0999 V2000
    1.0397    0.0322    0.0449 O   0  0  0  0  0  0  0  0  0  0  0  0
    0.5571   -1.2844    0.2744 C   0  0  0  0  0  0  0  0  0  0  0  0
    1.0495   -2.1937   -0.8340 C   0  0  1  0  0  0  0  0  0  0  0  0
    2.4854   -2.2484   -0.7905 O   0  0  0  0  0  0  0  0  0  0  0  0
    0.5603   -3.6007   -0.6027 C   0  0  0  0  0  0  0  0  0  0  0  0
   -0.8834   -3.8099   -0.6647 N   0  0  0  0  0  0  0  0  0  0  0  0
   -1.5840   -4.5904   -1.5550 C   0  0  0  0  0  0  0  0  0  0  0  0
   -2.8172   -4.5250   -1.5807 O   0  0  0  0  0  0  0  0  0  0  0  0
   -0.8735   -5.5290   -2.4610 C   0  0  0  0  0  0  0  0  0  0  0  0
    0.1746   -6.3473   -2.0048 C   0  0  0  0  0  0  0  0  0  0  0  0
    0.6113   -6.3402   -0.6678 N   0  0  0  0  0  0  0  0  0  0  0  0
    1.7755   -6.8842   -0.1113 C   0  0  0  0  0  0  0  0  0  0  0  0
    3.0521   -6.7677   -0.6861 C   0  0  0  0  0  0  0  0  0  0  0  0
    3.2618   -5.9244   -1.7100 F   0  0  0  0  0  0  0  0  0  0  0  0
    4.1147   -7.5433   -0.2415 C   0  0  0  0  0  0  0  0  0  0  0  0
    3.8661   -8.5202    0.7173 C   0  0  0  0  0  0  0  0  0  0  0  0
    5.3259   -9.9189    1.1781 I   0  0  0  0  0  0  0  0  0  0  0  0
    2.6208   -8.6025    1.3419 C   0  0  0  0  0  0  0  0  0  0  0  0
    1.6058   -7.7225    0.9866 C   0  0  0  0  0  0  0  0  0  0  0  0
    0.7803   -7.1544   -2.9645 C   0  0  0  0  0  0  0  0  0  0  0  0
    0.4015   -7.2503   -4.2568 N   0  0  0  0  0  0  0  0  0  0  0  0
   -0.6454   -6.4948   -4.6335 C   0  0  0  0  0  0  0  0  0  0  0  0
   -1.3096   -5.6238   -3.7878 C   0  0  0  0  0  0  0  0  0  0  0  0
  1  2  1  0
  3  2  1  0
  3  4  1  1
  3  5  1  0
  5  6  1  0
  6  7  1  0
  7  8  2  0
  7  9  1  0
  9 10  2  0
  9 23  1  0
 10 11  1  0
 10 20  1  0
 11 12  1  0
 12 13  2  0
 12 19  1  0
 13 14  1  0
 13 15  1  0
 15 16  2  0
 16 17  1  0
 16 18  1  0
 18 19  2  0
 20 21  2  0
 21 22  1  0
 22 23  2  0
M  END
>  <DRUGBANK_ID>  (1) 
DB14904

>  <COMMON_NAME>  (1) 
Pimasertib

>  <CAS_NUMBER>  (1) 
1236699-92-5

>  <UNII>  (1) 
6ON9RK82AL

>  <SYNONYMS>  (1) 
N-[(2S)-2,3-dihydroxypropyl]-3-(2-fluoro-4-iodoanilino)pyridine-4-carboxamide; Pimasertib

$$$$
