
     RDKit          3D

 21 22  0  0  0  0  0  0  0  0999 V2000
    0.9529    0.1445   -0.0672 C   0  0  0  0  0  0  0  0  0  0  0  0
    0.4290   -0.5054   -1.3184 C   0  0  0  0  0  0  0  0  0  0  0  0
   -0.2241   -1.5430   -1.3005 O   0  0  0  0  0  0  0  0  0  0  0  0
    0.8413    0.1835   -2.4649 O   0  0  0  0  0  0  0  0  0  0  0  0
    0.3845   -0.3097   -3.7101 C   0  0  0  0  0  0  0  0  0  0  0  0
   -0.9867   -0.5928   -3.8484 C   0  0  0  0  0  0  0  0  0  0  0  0
   -1.5020   -1.0814   -5.0472 C   0  0  0  0  0  0  0  0  0  0  0  0
   -0.6731   -1.2067   -6.1520 C   0  0  0  0  0  0  0  0  0  0  0  0
    0.6733   -0.8532   -6.0478 C   0  0  0  0  0  0  0  0  0  0  0  0
    1.2413   -0.4567   -4.8151 C   0  0  0  0  0  0  0  0  0  0  0  0
    2.7302   -0.3439   -4.8191 C   0  0  0  0  0  0  0  0  0  0  0  0
    3.3861   -0.6007   -5.8287 O   0  0  0  0  0  0  0  0  0  0  0  0
    3.2552   -0.0087   -3.5871 O   0  0  0  0  0  0  0  0  0  0  0  0
    4.6638    0.0701   -3.4348 C   0  0  0  0  0  0  0  0  0  0  0  0
    5.4021    0.8120   -4.3656 C   0  0  0  0  0  0  0  0  0  0  0  0
    6.7694    1.0099   -4.1872 C   0  0  0  0  0  0  0  0  0  0  0  0
    7.3950    0.5281   -3.0427 C   0  0  0  0  0  0  0  0  0  0  0  0
    6.6549   -0.1775   -2.0914 C   0  0  0  0  0  0  0  0  0  0  0  0
    5.2992   -0.4723   -2.3047 C   0  0  0  0  0  0  0  0  0  0  0  0
    4.7749   -1.3087   -1.3526 O   0  0  0  0  0  0  0  0  0  0  0  0
    3.4854   -1.8309   -1.6144 C   0  0  0  0  0  0  0  0  0  0  0  0
  1  2  1  0
  2  3  2  0
  2  4  1  0
  4  5  1  0
  5  6  2  0
  5 10  1  0
  6  7  1  0
  7  8  2  0
  8  9  1  0
  9 10  2  0
 10 11  1  0
 11 12  2  0
 11 13  1  0
 13 14  1  0
 14 15  2  0
 14 19  1  0
 15 16  1  0
 16 17  2  0
 17 18  1  0
 18 19  2  0
 19 20  1  0
 20 21  1  0
M  END
>  <DRUGBANK_ID>  (1) 
DB13538

>  <COMMON_NAME>  (1) 
Guacetisal

>  <CAS_NUMBER>  (1) 
55482-89-8

>  <UNII>  (1) 
T6EKB9V2O2

>  <SYNONYMS>  (1) 
Guacetisal

$$$$
