
     RDKit          3D

 21 23  0  0  0  0  0  0  0  0999 V2000
    1.2859   -0.9918   -0.2143 C   0  0  0  0  0  0  0  0  0  0  0  0
    0.6631    1.6660    0.0200 C   0  0  0  0  0  0  0  0  0  0  0  0
    2.0125    1.2324    0.0210 C   0  0  0  0  0  0  0  0  0  0  0  0
   -0.3888    0.7450    0.0029 C   0  0  0  0  0  0  0  0  0  0  0  0
   -0.0362   -0.5999   -0.0683 C   0  0  0  0  0  0  0  0  0  0  0  0
   -1.8191    0.8782    0.0063 N   0  0  0  0  0  0  0  0  0  0  0  0
   -2.0111    3.2628    0.0080 N   0  0  0  0  0  0  0  0  0  0  0  0
   -2.6025    2.0341    0.0050 C   0  0  0  0  0  0  0  0  0  0  0  0
   -3.8330    2.0679    0.0023 O   0  0  0  0  0  0  0  0  0  0  0  0
    2.3179   -0.1065   -0.0751 C   0  0  0  0  0  0  0  0  0  0  0  0
    3.9211   -0.7168   -0.0484 Cl  0  0  0  0  0  0  0  0  0  0  0  0
   -2.4061   -0.4525   -0.0191 C   0  0  0  0  0  0  0  0  0  0  0  0
   -3.5737   -0.7774   -0.0055 O   0  0  0  0  0  0  0  0  0  0  0  0
   -1.2293   -1.4408   -0.0280 C   0  0  0  0  0  0  0  0  0  0  0  0
   -0.0241   -3.5960    0.1635 C   0  0  0  0  0  0  0  0  0  0  0  0
    2.0933   -4.8336   -0.3892 C   0  0  0  0  0  0  0  0  0  0  0  0
    2.1684   -4.2098    0.8342 C   0  0  0  0  0  0  0  0  0  0  0  0
    0.9288   -3.5792    1.1863 C   0  0  0  0  0  0  0  0  0  0  0  0
   -1.2383   -2.8013    0.0275 C   0  0  0  0  0  0  0  0  0  0  0  0
   -2.3992   -3.5433   -0.0060 O   0  0  0  0  0  0  0  0  0  0  0  0
    0.5450   -4.6297   -1.1133 S   0  0  0  0  0  0  0  0  0  0  0  0
  1  5  2  0
  1 10  1  0
  2  3  1  0
  3 10  2  0
  4  2  2  0
  5  4  1  0
  6  4  1  0
  6  8  1  0
  8  7  1  0
  8  9  2  0
 10 11  1  0
 12  6  1  0
 12 13  2  0
 14  5  1  0
 14 12  1  0
 14 19  2  0
 15 21  1  0
 16 17  2  0
 16 21  1  0
 17 18  1  0
 18 15  2  0
 19 15  1  0
 19 20  1  0
M  END
>  <DRUGBANK_ID>  (1) 
DB13481

>  <COMMON_NAME>  (1) 
Tenidap

>  <CAS_NUMBER>  (1) 
120210-48-2

>  <UNII>  (1) 
9K7CJ74ONH

>  <SYNONYMS>  (1) 
Tenidap; Tenidapum

$$$$
