
     RDKit          3D

 26 28  0  0  0  0  0  0  0  0999 V2000
    0.9199   -0.2868    0.3218 C   0  0  0  0  0  0  0  0  0  0  0  0
    0.4803   -1.3535   -0.5169 O   0  0  0  0  0  0  0  0  0  0  0  0
    0.9116   -1.2910   -1.8954 C   0  0  0  0  0  0  0  0  0  0  0  0
    0.0456   -0.2505   -2.6969 C   0  0  0  0  0  0  0  0  0  0  0  0
    0.3812    1.0721   -2.3045 N   0  0  0  0  0  0  0  0  0  0  0  0
   -0.4620    2.0798   -1.6803 C   0  0  0  0  0  0  0  0  0  0  0  0
   -0.9150    3.1165   -2.7202 C   0  0  0  0  0  0  0  0  0  0  0  0
    0.1392    3.6975   -3.5959 N   0  0  0  0  0  0  0  0  0  0  0  0
    0.8570    2.6132   -4.2730 C   0  0  0  0  0  0  0  0  0  0  0  0
    1.2971    1.6226   -3.2412 C   0  0  0  0  0  0  0  0  0  0  0  0
    1.0614    4.6509   -2.9293 C   0  0  0  0  0  0  0  0  0  0  0  0
    2.0744    4.2999   -1.7691 C   0  0  0  0  0  0  0  0  0  0  0  0
    3.3260    3.4126   -2.0686 C   0  0  0  0  0  0  0  0  0  0  0  0
    4.2637    3.8500   -3.1199 C   0  0  0  0  0  0  0  0  0  0  0  0
    4.2480    5.1820   -3.5184 C   0  0  0  0  0  0  0  0  0  0  0  0
    5.0251    5.5854   -4.5499 C   0  0  0  0  0  0  0  0  0  0  0  0
    5.8919    4.6837   -5.1751 C   0  0  0  0  0  0  0  0  0  0  0  0
    5.8640    3.3239   -4.8397 C   0  0  0  0  0  0  0  0  0  0  0  0
    4.9961    2.9013   -3.8767 C   0  0  0  0  0  0  0  0  0  0  0  0
    3.8402    2.8335   -0.8763 O   0  0  0  0  0  0  0  0  0  0  0  0
    2.4584   -1.3043   -1.9729 C   0  0  0  0  0  0  0  0  0  0  0  0
    3.2358   -0.1551   -1.7814 C   0  0  0  0  0  0  0  0  0  0  0  0
    4.6290   -0.1207   -1.7696 C   0  0  0  0  0  0  0  0  0  0  0  0
    5.3164   -1.3072   -1.7886 C   0  0  0  0  0  0  0  0  0  0  0  0
    4.5879   -2.4936   -1.8558 C   0  0  0  0  0  0  0  0  0  0  0  0
    3.1840   -2.4951   -2.0103 C   0  0  0  0  0  0  0  0  0  0  0  0
  1  2  1  0
  2  3  1  0
  3  4  1  0
  3 21  1  0
  4  5  1  0
  5  6  1  0
  5 10  1  0
  6  7  1  0
  7  8  1  0
  8  9  1  0
  8 11  1  0
  9 10  1  0
 11 12  1  0
 12 13  1  0
 13 14  1  0
 13 20  1  0
 14 15  2  0
 14 19  1  0
 15 16  1  0
 16 17  2  0
 17 18  1  0
 18 19  2  0
 21 22  2  0
 21 26  1  0
 22 23  1  0
 23 24  2  0
 24 25  1  0
 25 26  2  0
M  END
>  <DRUGBANK_ID>  (1) 
DB13395

>  <COMMON_NAME>  (1) 
Eprozinol

>  <CAS_NUMBER>  (1) 
32665-36-4

>  <UNII>  (1) 
IJ21AK8IVJ

>  <SYNONYMS>  (1) 
Eprozinol

$$$$
