
     RDKit          3D

 12 12  0  0  0  0  0  0  0  0999 V2000
    1.2820    1.9756   -1.4326 O   0  0  0  0  0  0  0  0  0  0  0  0
    0.6898    0.7040   -1.1769 C   0  0  1  0  0  0  0  0  0  0  0  0
    1.0627   -0.2327   -2.3343 C   0  0  0  0  0  0  0  0  0  0  0  0
    0.5516   -1.6492   -2.2055 C   0  0  0  0  0  0  0  0  0  0  0  0
   -0.6010   -1.9605   -1.4701 C   0  0  0  0  0  0  0  0  0  0  0  0
   -0.9135   -3.2839   -1.1749 C   0  0  0  0  0  0  0  0  0  0  0  0
   -0.1596   -4.3144   -1.7260 C   0  0  0  0  0  0  0  0  0  0  0  0
    0.9382   -4.0209   -2.5322 C   0  0  0  0  0  0  0  0  0  0  0  0
    1.2987   -2.6941   -2.7654 C   0  0  0  0  0  0  0  0  0  0  0  0
    1.1211    0.1015    0.1710 C   0  0  0  0  0  0  0  0  0  0  0  0
    2.0455   -0.6733    0.3837 O   0  0  0  0  0  0  0  0  0  0  0  0
    0.3333    0.4961    1.1960 O   0  0  0  0  0  0  0  0  0  0  0  0
  2  3  1  0
  2 10  1  0
  2  1  1  6
  3  4  1  0
  4  9  2  0
  4  5  1  0
  5  6  2  0
  6  7  1  0
  7  8  2  0
  8  9  1  0
 10 11  2  0
 10 12  1  0
M  END
>  <DRUGBANK_ID>  (1) 
DB02494

>  <SECONDARY_ACCESSION_NUMBERS>  (1) 
EXPT01733

>  <COMMON_NAME>  (1) 
(S)-3-phenyllactic acid

>  <CAS_NUMBER>  (1) 
20312-36-1

>  <UNII>  (1) 
KW7SNV9X8B

>  <SYNONYMS>  (1) 
alpha-hydroxy-beta-phenyl-propionic acid; L-(−)-3-phenyllactic acid; L-3-phenyllactic acid; L-beta-Phenyllactic acid; L-β-phenyllactic acid

$$$$
