
     RDKit          3D

 22 24  0  0  0  0  0  0  0  0999 V2000
   -2.7456   -0.5897    0.0857 S   0  0  0  0  0  0  0  0  0  0  0  0
   -4.5714    4.2482    0.1589 N   0  0  0  0  0  0  0  0  0  0  0  0
   -1.8428    1.0339    0.1028 C   0  0  0  0  0  0  0  0  0  0  0  0
   -1.2459   -1.6081   -0.0233 C   0  0  0  0  0  0  0  0  0  0  0  0
   -0.3593    0.6859   -0.0751 C   0  0  0  0  0  0  0  0  0  0  0  0
   -0.0647   -0.6821   -0.0409 C   0  0  0  0  0  0  0  0  0  0  0  0
   -2.5256    1.8297   -1.1024 C   0  0  0  0  0  0  0  0  0  0  0  0
   -1.9830    1.7237    1.4622 C   0  0  0  0  0  0  0  0  0  0  0  0
   -4.0909    2.0743   -1.0767 C   0  0  0  0  0  0  0  0  0  0  0  0
   -1.2585   -2.3515   -1.3572 C   0  0  0  0  0  0  0  0  0  0  0  0
   -1.2298   -2.4762    1.2325 C   0  0  0  0  0  0  0  0  0  0  0  0
    0.7126    1.5860   -0.0693 C   0  0  0  0  0  0  0  0  0  0  0  0
    1.2550   -1.1536   -0.0243 C   0  0  0  0  0  0  0  0  0  0  0  0
   -4.7837    2.7925    0.1154 C   0  0  0  0  0  0  0  0  0  0  0  0
   -1.9696    1.0993    2.7241 C   0  0  0  0  0  0  0  0  0  0  0  0
   -2.0595    3.0997    1.4738 C   0  0  0  0  0  0  0  0  0  0  0  0
    2.0360    1.1119   -0.0374 C   0  0  0  0  0  0  0  0  0  0  0  0
    2.3072   -0.2554   -0.0202 C   0  0  0  0  0  0  0  0  0  0  0  0
   -2.4633    1.7890    3.8402 C   0  0  0  0  0  0  0  0  0  0  0  0
   -2.4357    3.8138    2.5985 C   0  0  0  0  0  0  0  0  0  0  0  0
   -2.8076    3.1182    3.7411 C   0  0  0  0  0  0  0  0  0  0  0  0
   -5.0055    4.8466    1.4238 C   0  0  0  0  0  0  0  0  0  0  0  0
  1  3  1  0
  1  4  1  0
  2 14  1  0
  2 22  1  0
  3  5  1  0
  3  7  1  0
  3  8  1  0
  4  6  1  0
  4 10  1  0
  4 11  1  0
  5  6  2  0
  5 12  1  0
  6 13  1  0
  7  9  1  0
  8 15  2  0
  8 16  1  0
  9 14  1  0
 12 17  2  0
 13 18  2  0
 15 19  1  0
 16 20  2  0
 17 18  1  0
 19 21  2  0
 20 21  1  0
M  END
>  <DRUGBANK_ID>  (1) 
DB09191

>  <COMMON_NAME>  (1) 
Talsupram

>  <CAS_NUMBER>  (1) 
21489-20-3

>  <UNII>  (1) 
C6Z73MW6CR

>  <SYNONYMS>  (1) 
Talsupram

$$$$
