
     RDKit          3D

 31 32  0  0  1  0  0  0  0  0999 V2000
    0.2096   -0.2560   -0.6034 C   0  0  0  0  0  0  0  0  0  0  0  0
    0.6076   -1.6477   -0.3657 O   0  0  0  0  0  0  0  0  0  0  0  0
    1.3014   -2.3867   -1.2862 C   0  0  0  0  0  0  0  0  0  0  0  0
    0.3532   -2.9974   -2.0532 C   0  0  0  0  0  0  0  0  0  0  0  0
    0.6541   -3.9188   -3.0249 C   0  0  0  0  0  0  0  0  0  0  0  0
   -0.4392   -4.7998   -3.5541 C   0  0  0  0  0  0  0  0  0  0  0  0
   -1.1132   -5.7091   -2.5300 C   0  0  0  0  0  0  0  0  0  0  0  0
   -1.0073   -7.0877   -2.6589 C   0  0  0  0  0  0  0  0  0  0  0  0
   -1.6844   -7.8920   -1.8313 N   0  0  0  0  0  0  0  0  0  0  0  0
   -2.3982   -7.3903   -0.8295 C   0  0  0  0  0  0  0  0  0  0  0  0
   -3.1634   -8.2177   -0.0621 N   0  0  0  0  0  0  0  0  0  0  0  0
   -2.4874   -6.0933   -0.5824 N   0  0  0  0  0  0  0  0  0  0  0  0
   -1.9126   -5.2698   -1.4689 C   0  0  0  0  0  0  0  0  0  0  0  0
   -2.3717   -3.9904   -1.3480 N   0  0  0  0  0  0  0  0  0  0  0  0
    1.9737   -3.9094   -3.4840 C   0  0  0  0  0  0  0  0  0  0  0  0
    2.9667   -3.2021   -2.7999 C   0  0  0  0  0  0  0  0  0  0  0  0
    4.1504   -2.9862   -3.4616 O   0  0  0  0  0  0  0  0  0  0  0  0
    5.0569   -1.9763   -2.9429 C   0  0  0  0  0  0  0  0  0  0  0  0
    4.4900   -0.5127   -2.7186 C   0  0  0  0  0  0  0  0  0  0  0  0
    3.1490   -0.1297   -1.8827 C   0  0  0  0  0  0  0  0  0  0  0  0
    3.0471   -0.2061   -0.1546 C   0  0  1  0  0  0  0  0  0  0  0  0
    4.1222    0.6832    0.3793 C   0  0  0  0  0  0  0  0  0  0  0  0
    3.7148    2.1130    0.0764 C   0  0  0  0  0  0  0  0  0  0  0  0
    2.4549    2.8057    0.6542 C   0  0  0  0  0  0  0  0  0  0  0  0
    2.6024    3.2524    1.8319 O   0  0  0  0  0  0  0  0  0  0  0  0
    1.5493    3.0565   -0.2096 O   0  0  0  0  0  0  0  0  0  0  0  0
    2.0814   -0.3625    1.2524 C   0  0  0  0  0  0  0  0  0  0  0  0
    1.9696   -1.5738    1.7162 O   0  0  0  0  0  0  0  0  0  0  0  0
    1.4991    0.6286    1.6826 O   0  0  0  0  0  0  0  0  0  0  0  0
    2.6510   -2.7882   -1.5101 C   0  0  0  0  0  0  0  0  0  0  0  0
    4.1134   -3.2442   -0.2320 Br  0  0  0  0  0  0  0  0  0  0  0  0
  1  2  1  0
  2  3  1  0
  3  4  2  0
  3 30  1  0
  4  5  1  0
  5  6  1  0
  5 15  2  0
  6  7  1  0
  7  8  2  0
  7 13  1  0
  8  9  1  0
  9 10  2  0
 10 11  1  0
 10 12  1  0
 12 13  2  0
 13 14  1  0
 15 16  1  0
 16 17  1  0
 16 30  2  0
 17 18  1  0
 18 19  1  0
 19 20  1  0
 21 20  1  6
 21 22  1  0
 21 27  1  0
 22 23  1  0
 23 24  1  0
 24 25  1  0
 24 26  2  0
 27 28  1  0
 27 29  2  0
 30 31  1  0
M  CHG  3   9   1  25  -1  28  -1
M  END
>  <DRUGBANK_ID>  (1) 
DB02809

>  <SECONDARY_ACCESSION_NUMBERS>  (1) 
EXPT00651

>  <COMMON_NAME>  (1) 
Brodimoprim-4,6-Dicarboxylate

$$$$
