
     RDKit          3D

 11 11  0  0  0  0  0  0  0  0999 V2000
    0.9569   -0.0552    0.0823 C   0  0  0  0  0  0  0  0  0  0  0  0
    1.3861   -3.2982   -3.6530 C   0  0  0  0  0  0  0  0  0  0  0  0
    2.4295   -2.7126   -2.9299 C   0  0  0  0  0  0  0  0  0  0  0  0
   -0.1775   -2.6169   -1.9440 C   0  0  0  0  0  0  0  0  0  0  0  0
   -1.0571   -3.8706   -3.9553 C   0  0  0  0  0  0  0  0  0  0  0  0
    0.0736   -3.2626   -3.1675 C   0  0  0  0  0  0  0  0  0  0  0  0
    2.1633   -2.0671   -1.7206 C   0  0  0  0  0  0  0  0  0  0  0  0
    0.8561   -1.9908   -1.2360 C   0  0  0  0  0  0  0  0  0  0  0  0
   -1.6853   -4.9139   -3.2259 O   0  0  0  0  0  0  0  0  0  0  0  0
    3.2011   -1.5433   -1.0014 O   0  0  0  0  0  0  0  0  0  0  0  0
    0.4990   -1.4002   -0.0502 O   0  0  0  0  0  0  0  0  0  0  0  0
  3  2  2  0
  6  2  1  0
  6  4  2  0
  6  5  1  0
  7  3  1  0
  8  4  1  0
  8  7  2  0
  9  5  1  0
 10  7  1  0
 11  1  1  0
 11  8  1  0
M  END
>  <DRUGBANK_ID>  (1) 
DB12087

>  <COMMON_NAME>  (1) 
Vanillyl alcohol

>  <CAS_NUMBER>  (1) 
498-00-0

>  <UNII>  (1) 
X7EA1JUA6M

$$$$
