
     RDKit          3D

 26 29  0  0  0  0  0  0  0  0999 V2000
   -2.5099    0.6623    0.0009 C   0  0  0  0  0  0  0  0  0  0  0  0
   -2.5071   -0.7304    0.0026 C   0  0  0  0  0  0  0  0  0  0  0  0
   -1.3075    1.3494    0.0002 C   0  0  0  0  0  0  0  0  0  0  0  0
   -1.3084   -1.4391    0.0006 C   0  0  0  0  0  0  0  0  0  0  0  0
    4.5604    3.3853    1.1870 C   0  0  0  0  0  0  0  0  0  0  0  0
    5.8174    1.2774    1.1545 C   0  0  0  0  0  0  0  0  0  0  0  0
    3.7050    2.8919    0.0196 C   0  0  0  0  0  0  0  0  0  0  0  0
    4.9858    0.7979   -0.0325 C   0  0  0  0  0  0  0  0  0  0  0  0
    6.9586    4.6082   -0.3508 C   0  0  0  0  0  0  0  0  0  0  0  0
    7.2076    2.3515   -1.1165 C   0  0  0  0  0  0  0  0  0  0  0  0
    7.7035    5.0189   -1.4580 C   0  0  0  0  0  0  0  0  0  0  0  0
    7.7171    2.7769   -2.3285 C   0  0  0  0  0  0  0  0  0  0  0  0
    5.9758    2.7920    1.1096 C   0  0  0  0  0  0  0  0  0  0  0  0
    6.7396    3.2500   -0.1337 C   0  0  0  0  0  0  0  0  0  0  0  0
    3.5968    1.3482    0.0306 C   0  0  0  0  0  0  0  0  0  0  0  0
    8.0638    4.1044   -2.4479 C   0  0  0  0  0  0  0  0  0  0  0  0
   -0.1069    0.6312    0.0022 C   0  0  0  0  0  0  0  0  0  0  0  0
   -0.0962   -0.7599    0.0015 C   0  0  0  0  0  0  0  0  0  0  0  0
    2.4628    0.6086    0.0236 C   0  0  0  0  0  0  0  0  0  0  0  0
    1.1475    1.3902    0.0019 C   0  0  0  0  0  0  0  0  0  0  0  0
    1.1563   -1.4801   -0.0007 C   0  0  0  0  0  0  0  0  0  0  0  0
    2.3365   -0.8603    0.0046 C   0  0  0  0  0  0  0  0  0  0  0  0
    9.0332    4.5831   -3.7790 Cl  0  0  0  0  0  0  0  0  0  0  0  0
    1.0274    2.6005   -0.0256 O   0  0  0  0  0  0  0  0  0  0  0  0
    1.1184   -2.8645   -0.0040 O   0  0  0  0  0  0  0  0  0  0  0  0
    3.3836   -1.7715   -0.0093 O   0  0  0  0  0  0  0  0  0  0  0  0
  2  1  2  0
  3  1  1  0
  4  2  1  0
  7  5  1  0
  8  6  1  0
 11  9  2  0
 12 10  1  0
 13  5  1  0
 13  6  1  0
 13 14  1  0
 14  9  1  0
 14 10  2  0
 15  7  1  0
 15  8  1  0
 16 11  1  0
 16 12  2  0
 17  3  2  0
 18  4  2  0
 18 17  1  0
 19 15  2  3
 20 17  1  0
 20 19  1  0
 21 18  1  0
 22 19  1  0
 22 21  2  0
 23 16  1  0
 24 20  2  0
 25 21  1  0
 26 22  1  0
M  END
>  <DRUGBANK_ID>  (1) 
DB04281

>  <SECONDARY_ACCESSION_NUMBERS>  (1) 
EXPT00451

>  <COMMON_NAME>  (1) 
2-[4-(4-Chlorophenyl)Cyclohexylidene]-3,4-Dihydroxy-1(2h)-Naphthalenone

$$$$
