VGA
     RDKit          3D

 27 31  0  0  0  0  0  0  0  0999 V2000
   -0.9231   -1.6228   -0.6655 N   0  0  0  0  0  0  0  0  0  0  0  0
   -2.0413   -1.3622   -0.0265 C   0  0  0  0  0  0  0  0  0  0  0  0
   -2.2451   -0.0676    0.8528 C   0  0  2  0  0  0  0  0  0  0  0  0
   -1.0412    1.4221   -0.6322 C   0  0  0  0  0  0  0  0  0  0  0  0
   -2.1284    1.1454    0.0260 N   0  0  0  0  0  0  0  0  0  0  0  0
    0.2193    0.6306   -0.5987 C   0  0  0  0  0  0  0  0  0  0  0  0
    0.2185   -0.7773   -0.5578 C   0  0  0  0  0  0  0  0  0  0  0  0
    1.4501   -1.3978   -0.2390 C   0  0  0  0  0  0  0  0  0  0  0  0
    2.6180   -0.6629    0.0596 C   0  0  0  0  0  0  0  0  0  0  0  0
    2.5982    0.7261    0.0252 C   0  0  0  0  0  0  0  0  0  0  0  0
    1.4081    1.3716   -0.3076 C   0  0  0  0  0  0  0  0  0  0  0  0
   -0.9924    2.6885   -1.4085 C   0  0  0  0  0  0  0  0  0  0  0  0
   -3.1278   -2.2523    0.0166 N   0  0  0  0  0  0  0  0  0  0  0  0
   -4.2952   -2.1632   -0.8341 C   0  0  0  0  0  0  0  0  0  0  0  0
   -4.5305   -3.6548   -0.4679 C   0  0  0  0  0  0  0  0  0  0  0  0
   -2.9978   -3.6599   -0.2447 C   0  0  0  0  0  0  0  0  0  0  0  0
   -0.4552    2.6574   -2.6997 C   0  0  0  0  0  0  0  0  0  0  0  0
   -0.1543    3.8498   -3.3496 C   0  0  0  0  0  0  0  0  0  0  0  0
   -0.4766    5.0680   -2.7517 C   0  0  0  0  0  0  0  0  0  0  0  0
   -1.1065    5.0960   -1.5044 C   0  0  0  0  0  0  0  0  0  0  0  0
   -1.3304    3.9065   -0.8090 C   0  0  0  0  0  0  0  0  0  0  0  0
   -1.4942   -0.0264    2.2091 C   0  0  0  0  0  0  0  0  0  0  0  0
    0.1969    0.1553    2.3544 S   0  0  0  0  0  0  0  0  0  0  0  0
    0.2664    0.1417    4.0154 C   0  0  0  0  0  0  0  0  0  0  0  0
   -0.9966    0.0451    4.5308 C   0  0  0  0  0  0  0  0  0  0  0  0
   -2.0068   -0.0433    3.5025 C   0  0  0  0  0  0  0  0  0  0  0  0
   -5.3613   -3.8955    0.6996 O   0  0  0  0  0  0  0  0  0  0  0  0
  1  2  2  0
  1  7  1  0
  2  3  1  0
  2 13  1  0
  3  5  1  0
  3 22  1  1
  4  5  2  0
  4  6  1  0
  4 12  1  0
  6  7  2  0
  6 11  1  0
  7  8  1  0
  8  9  2  0
  9 10  1  0
 10 11  2  0
 12 17  2  0
 12 21  1  0
 13 14  1  0
 13 16  1  0
 14 15  1  0
 15 16  1  0
 15 27  1  0
 17 18  1  0
 18 19  2  0
 19 20  1  0
 20 21  2  0
 22 23  1  0
 22 26  2  0
 23 24  1  0
 24 25  2  0
 25 26  1  0
M  END
>  <DRUGBANK_ID>  (1) 
DB08698

>  <COMMON_NAME>  (1) 
1-[(3S)-5-PHENYL-3-THIOPHEN-2-YL-3H-1,4-BENZODIAZEPIN-2-YL]AZETIDIN-3-OL

$$$$
