Bergapten
     RDKit          3D

 16 18  0  0  0  0  0  0  0  0999 V2000
    0.8397    0.0714   -0.0819 C   0  0  0  0  0  0  0  0  0  0  0  0
    0.5481   -1.0174    0.7951 O   0  0  0  0  0  0  0  0  0  0  0  0
    0.9685   -2.2783    0.4317 C   0  0  0  0  0  0  0  0  0  0  0  0
    2.3133   -2.6095    0.1219 C   0  0  0  0  0  0  0  0  0  0  0  0
    3.4137   -1.6534    0.0633 C   0  0  0  0  0  0  0  0  0  0  0  0
    4.6360   -1.9928   -0.3390 C   0  0  0  0  0  0  0  0  0  0  0  0
    5.0055   -3.3863   -0.5860 C   0  0  0  0  0  0  0  0  0  0  0  0
    6.1576   -3.6866   -0.8513 O   0  0  0  0  0  0  0  0  0  0  0  0
    3.9903   -4.3200   -0.4443 O   0  0  0  0  0  0  0  0  0  0  0  0
    2.6607   -3.9509   -0.1125 C   0  0  0  0  0  0  0  0  0  0  0  0
    1.7609   -5.0111   -0.0262 C   0  0  0  0  0  0  0  0  0  0  0  0
    0.4596   -4.6554    0.2909 C   0  0  0  0  0  0  0  0  0  0  0  0
    0.0284   -3.3496    0.5225 C   0  0  0  0  0  0  0  0  0  0  0  0
   -1.3640   -3.4829    0.8215 C   0  0  0  0  0  0  0  0  0  0  0  0
   -1.6709   -4.8235    0.7369 C   0  0  0  0  0  0  0  0  0  0  0  0
   -0.5653   -5.5408    0.4207 O   0  0  0  0  0  0  0  0  0  0  0  0
  1  2  1  0
  2  3  1  0
  3  4  2  0
  3 13  1  0
  4  5  1  0
  4 10  1  0
  5  6  2  0
  6  7  1  0
  7  8  2  0
  7  9  1  0
  9 10  1  0
 10 11  2  0
 11 12  1  0
 12 13  2  0
 12 16  1  0
 13 14  1  0
 14 15  2  0
 15 16  1  0
M  END
>  <DRUGBANK_ID>  (1) 
DB12216

>  <COMMON_NAME>  (1) 
Bergapten

>  <CAS_NUMBER>  (1) 
484-20-8

>  <UNII>  (1) 
4FVK84C92X

>  <SYNONYMS>  (1) 
5 methoxypsoralen; 5-methoxypsoralen

$$$$
