
     RDKit          3D

 15 15  0  0  1  0  0  0  0  0999 V2000
    0.9463   -2.5418    0.1533 N   0  0  0  0  0  0  0  0  0  0  0  0
    0.4257   -1.3264   -0.5155 C   0  0  2  0  0  0  0  0  0  0  0  0
    0.9907    0.0275   -0.0210 C   0  0  0  0  0  0  0  0  0  0  0  0
    1.7065   -0.0216    1.3080 C   0  0  0  0  0  0  0  0  0  0  0  0
    3.0152    0.4546    1.3998 C   0  0  0  0  0  0  0  0  0  0  0  0
    3.7187    0.3432    2.5969 C   0  0  0  0  0  0  0  0  0  0  0  0
    3.1411   -0.2822    3.7034 C   0  0  0  0  0  0  0  0  0  0  0  0
    3.7641   -0.5311    4.8936 O   0  0  0  0  0  0  0  0  0  0  0  0
    5.0980   -0.0581    5.0154 C   0  0  0  0  0  0  0  0  0  0  0  0
    5.8795   -0.6826    4.0948 F   0  0  0  0  0  0  0  0  0  0  0  0
    1.8227   -0.7251    3.6279 C   0  0  0  0  0  0  0  0  0  0  0  0
    1.1004   -0.5688    2.4485 C   0  0  0  0  0  0  0  0  0  0  0  0
   -1.1091   -1.2836   -0.4219 C   0  0  0  0  0  0  0  0  0  0  0  0
   -1.7428   -1.5418   -1.5912 O   0  0  0  0  0  0  0  0  0  0  0  0
   -1.7255   -1.0339    0.6022 O   0  0  0  0  0  0  0  0  0  0  0  0
  2 13  1  0
  2  3  1  0
  2  1  1  1
  3  4  1  0
  4  5  2  0
  4 12  1  0
  5  6  1  0
  6  7  2  0
  7  8  1  0
  7 11  1  0
  8  9  1  0
  9 10  1  0
 11 12  2  0
 13 14  1  0
 13 15  2  0
M  ISO  1  10  18
M  END
>  <DRUGBANK_ID>  (1) 
DB15296

>  <COMMON_NAME>  (1) 
D-fluoromethyltyrosine F-18

>  <CAS_NUMBER>  (1) 
870452-26-9

>  <UNII>  (1) 
58HVN5SR99

$$$$
