166
     RDKit          3D

 28 30  0  0  0  0  0  0  0  0999 V2000
    0.8748    0.3764   -2.4201 C   0  0  0  0  0  0  0  0  0  0  0  0
    2.3046    0.8582   -2.7113 C   0  0  0  0  0  0  0  0  0  0  0  0
    2.5063    2.3848   -2.7179 C   0  0  0  0  0  0  0  0  0  0  0  0
    2.3245    3.1548   -1.4109 C   0  0  0  0  0  0  0  0  0  0  0  0
    3.3300    2.7415   -0.3407 C   0  0  0  0  0  0  0  0  0  0  0  0
    3.4500    3.4500    0.8099 N   0  0  0  0  0  0  0  0  0  0  0  0
    4.0859    1.7032   -0.4790 N   0  0  0  0  0  0  0  0  0  0  0  0
   -1.8249    1.8341   -0.9710 O   0  0  0  0  0  0  0  0  0  0  0  0
   -1.9024   -0.3672   -1.2589 O   0  0  0  0  0  0  0  0  0  0  0  0
    1.9457    1.1477    1.7086 O   0  0  0  0  0  0  0  0  0  0  0  0
    0.6779   -0.2946    0.1887 C   0  0  1  0  0  0  0  0  0  0  0  0
    2.2458   -2.1081    0.3958 C   0  0  0  0  0  0  0  0  0  0  0  0
    1.0352   -1.6924   -0.1774 C   0  0  0  0  0  0  0  0  0  0  0  0
    2.0375    0.1284    0.7391 C   0  0  2  0  0  0  0  0  0  0  0  0
    2.8306   -1.0558    1.2617 C   0  0  0  0  0  0  0  0  0  0  0  0
    0.3614   -2.4879   -1.0673 C   0  0  0  0  0  0  0  0  0  0  0  0
    0.9012   -3.7191   -1.3895 C   0  0  0  0  0  0  0  0  0  0  0  0
    2.1093   -4.1391   -0.7963 C   0  0  0  0  0  0  0  0  0  0  0  0
    2.8009   -3.3283    0.0941 C   0  0  0  0  0  0  0  0  0  0  0  0
    0.1685   -4.5861   -2.2869 C   0  0  0  0  0  0  0  0  0  0  0  0
   -0.3945   -5.7514   -1.7575 C   0  0  0  0  0  0  0  0  0  0  0  0
   -1.0573   -6.6470   -2.5824 C   0  0  0  0  0  0  0  0  0  0  0  0
   -1.1753   -6.3554   -3.9374 C   0  0  0  0  0  0  0  0  0  0  0  0
   -0.6606   -5.1790   -4.4730 C   0  0  0  0  0  0  0  0  0  0  0  0
    0.0037   -4.2810   -3.6444 C   0  0  0  0  0  0  0  0  0  0  0  0
   -1.7988   -7.2137   -4.7923 O   0  0  0  0  0  0  0  0  0  0  0  0
    0.2669    0.6115   -1.0009 C   0  0  2  0  0  0  0  0  0  0  0  0
   -1.2332    0.7827   -1.0685 C   0  0  0  0  0  0  0  0  0  0  0  0
  1  2  1  0
  2  3  1  0
  3  4  1  0
  4  5  1  0
  5  6  1  0
  5  7  2  0
  8 28  2  0
  9 28  1  0
 11 13  1  6
 11 14  1  0
 12 13  2  0
 12 15  1  0
 12 19  1  0
 13 16  1  0
 14 15  1  0
 14 10  1  1
 16 17  2  0
 17 18  1  0
 17 20  1  0
 18 19  2  0
 20 21  2  0
 20 25  1  0
 21 22  1  0
 22 23  2  0
 23 24  1  0
 23 26  1  0
 24 25  2  0
 27 28  1  0
 27 11  1  0
 27  1  1  6
M  END
>  <DRUGBANK_ID>  (1) 
DB06865

>  <COMMON_NAME>  (1) 
6-CARBAMIMIDOYL-2-[2-HYDROXY-6-(4-HYDROXY-PHENYL)-INDAN-1-YL]-HEXANOIC ACID

$$$$
