BEY
     RDKit          3D

 25 26  0  0  0  0  0  0  0  0999 V2000
   -2.1156   -4.8612   -0.5048 O   0  0  0  0  0  0  0  0  0  0  0  0
   -0.5516   -4.4397   -1.1124 P   0  0  1  0  0  0  0  0  0  0  0  0
    0.1376   -5.1717    0.0482 O   0  0  0  0  0  0  0  0  0  0  0  0
   -1.0686   -5.7388   -2.3329 C   0  0  1  0  0  0  0  0  0  0  0  0
   -0.8816   -4.9582   -3.5241 C   0  0  0  0  0  0  0  0  0  0  0  0
    0.9246   -4.9527   -3.7617 C   0  0  0  0  0  0  0  0  0  0  0  0
    1.9625   -5.5064   -4.6042 C   0  0  0  0  0  0  0  0  0  0  0  0
    3.2898   -4.9908   -4.4823 C   0  0  0  0  0  0  0  0  0  0  0  0
    4.2397   -5.9473   -4.5363 C   0  0  0  0  0  0  0  0  0  0  0  0
    3.7902   -7.2808   -4.4617 C   0  0  0  0  0  0  0  0  0  0  0  0
    2.4354   -7.6588   -4.4421 C   0  0  0  0  0  0  0  0  0  0  0  0
    1.5309   -6.7574   -4.8398 C   0  0  0  0  0  0  0  0  0  0  0  0
   -0.3229   -6.9667   -2.2807 N   0  0  0  0  0  0  0  0  0  0  0  0
    1.1028   -3.9937   -1.7551 C   0  0  0  0  0  0  0  0  0  0  0  0
    0.5134   -2.7303   -3.0803 C   0  0  2  0  0  0  0  0  0  0  0  0
   -0.5615   -1.7703   -2.5986 C   0  0  0  0  0  0  0  0  0  0  0  0
   -0.8329   -0.6595   -3.1254 O   0  0  0  0  0  0  0  0  0  0  0  0
   -1.3490   -2.2406   -1.6390 O   0  0  0  0  0  0  0  0  0  0  0  0
    0.0727   -3.3334   -4.8191 C   0  0  0  0  0  0  0  0  0  0  0  0
   -0.3492   -2.6070   -5.9115 C   0  0  0  0  0  0  0  0  0  0  0  0
   -0.9972   -3.3370   -6.9260 C   0  0  0  0  0  0  0  0  0  0  0  0
   -1.1423   -2.6382   -8.0455 C   0  0  0  0  0  0  0  0  0  0  0  0
   -0.6570   -1.3074   -8.0174 C   0  0  0  0  0  0  0  0  0  0  0  0
    0.0379   -0.6940   -6.9409 C   0  0  0  0  0  0  0  0  0  0  0  0
    0.3243   -1.4276   -5.8883 C   0  0  0  0  0  0  0  0  0  0  0  0
  2  1  1  0
  2  3  2  0
  2  4  1  0
  2 14  1  0
  4  5  1  0
  4 13  1  6
  5  6  1  0
  6  7  1  0
  7  8  2  0
  7 12  1  0
  8  9  1  0
  9 10  2  0
 10 11  1  0
 11 12  2  0
 15 19  1  6
 15 16  1  0
 15 14  1  0
 16 17  2  0
 16 18  1  0
 19 20  1  0
 20 21  2  0
 20 25  1  0
 21 22  1  0
 22 23  2  0
 23 24  1  0
 24 25  2  0
M  END
>  <DRUGBANK_ID>  (1) 
DB07448

>  <COMMON_NAME>  (1) 
(2S)-3-[(R)-[(1S)-1-amino-3-phenylpropyl](hydroxy)phosphoryl]-2-benzylpropanoic acid

$$$$
