P2N
     RDKit          3D

 23 24  0  0  0  0  0  0  0  0999 V2000
   -0.8530   -3.8855    1.8847 C   0  0  0  0  0  0  0  0  0  0  0  0
   -1.9417   -6.0171    2.1934 C   0  0  0  0  0  0  0  0  0  0  0  0
   -2.5286   -7.9028    2.7165 C   0  0  0  0  0  0  0  0  0  0  0  0
   -3.4477   -9.6152    2.3807 C   0  0  0  0  0  0  0  0  0  0  0  0
   -3.8253   -9.4886    1.1328 C   0  0  0  0  0  0  0  0  0  0  0  0
   -4.1340   -8.1452    1.2551 C   0  0  0  0  0  0  0  0  0  0  0  0
   -3.4832   -6.8403    2.2159 C   0  0  0  0  0  0  0  0  0  0  0  0
   -4.5421   -6.5790    3.4850 C   0  0  0  0  0  0  0  0  0  0  0  0
   -3.7458   -5.4118    3.3860 C   0  0  0  0  0  0  0  0  0  0  0  0
   -4.1768   -4.5538    2.0775 C   0  0  0  0  0  0  0  0  0  0  0  0
   -3.7943   -3.2613    2.5978 C   0  0  0  0  0  0  0  0  0  0  0  0
   -2.4034   -3.2780    2.6131 C   0  0  0  0  0  0  0  0  0  0  0  0
   -2.1594   -3.7960    0.6549 C   0  0  0  0  0  0  0  0  0  0  0  0
   -2.3326   -2.5791   -0.1450 C   0  0  0  0  0  0  0  0  0  0  0  0
   -1.4034   -1.8579   -0.8249 C   0  0  0  0  0  0  0  0  0  0  0  0
   -1.7156   -0.5379   -1.2251 C   0  0  0  0  0  0  0  0  0  0  0  0
   -0.9567   -0.1508    0.0929 C   0  0  0  0  0  0  0  0  0  0  0  0
   -1.0216   -1.9406    1.2757 O   0  0  0  0  0  0  0  0  0  0  0  0
    0.2110   -3.1733    1.4278 O   0  0  0  0  0  0  0  0  0  0  0  0
   -3.9651   -8.9729    3.6904 O   0  0  0  0  0  0  0  0  0  0  0  0
   -3.1299   -9.9069    0.0415 O   0  0  0  0  0  0  0  0  0  0  0  0
   -3.3687   -7.1445    0.0797 Cl  0  0  0  0  0  0  0  0  0  0  0  0
   -2.6580   -5.5256    4.0229 O   0  0  0  0  0  0  0  0  0  0  0  0
  1  2  1  0
  1 18  1  0
  1 19  2  0
  2  3  1  0
  2  7  2  0
  3  4  2  0
  3 20  1  0
  4  5  1  0
  5  6  2  0
  5 21  1  0
  6  7  1  0
  6 22  1  0
  7  8  1  0
  8  9  1  0
  9 10  1  0
  9 23  2  0
 10 11  1  0
 11 12  1  0
 12 13  1  0
 13 14  1  0
 14 15  2  0
 15 16  1  0
 16 17  1  0
 17 18  1  0
M  END
>  <DRUGBANK_ID>  (1) 
DB08346

>  <COMMON_NAME>  (1) 
(5Z)-13-CHLORO-14,16-DIHYDROXY-3,4,7,8,9,10-HEXAHYDRO-1H-2-BENZOXACYCLOTETRADECINE-1,11(12H)-DIONE

$$$$
