TYI
     RDKit          3D

 15 15  0  0  0  0  0  0  0  0999 V2000
    1.0040   -0.1726    0.0509 N   0  0  0  0  0  0  0  0  0  0  0  0
    0.4035    0.3375    1.3200 C   0  0  1  0  0  0  0  0  0  0  0  0
    0.9007    1.7547    1.6893 C   0  0  0  0  0  0  0  0  0  0  0  0
    0.5428    2.8845    0.7353 C   0  0  0  0  0  0  0  0  0  0  0  0
    0.8656    4.2056    1.0447 C   0  0  0  0  0  0  0  0  0  0  0  0
    0.5434    5.2305    0.1354 C   0  0  0  0  0  0  0  0  0  0  0  0
   -0.1126    2.6614   -0.4884 C   0  0  0  0  0  0  0  0  0  0  0  0
   -0.4606    3.6594   -1.3788 C   0  0  0  0  0  0  0  0  0  0  0  0
   -0.1187    4.9569   -1.0747 C   0  0  0  0  0  0  0  0  0  0  0  0
   -0.4369    5.9244   -1.9827 O   0  0  0  0  0  0  0  0  0  0  0  0
   -1.1423    0.2094    1.4210 C   0  0  0  0  0  0  0  0  0  0  0  0
   -1.7427   -0.5847    2.1401 O   0  0  0  0  0  0  0  0  0  0  0  0
   -1.8542    1.0811    0.6840 O   0  0  0  0  0  0  0  0  0  0  0  0
    1.0993    7.1846    0.6115 I   0  0  0  0  0  0  0  0  0  0  0  0
   -1.4797    3.0772   -3.1107 I   0  0  0  0  0  0  0  0  0  0  0  0
  2  1  1  6
  2  3  1  0
  2 11  1  0
  3  4  1  0
  4  5  2  0
  4  7  1  0
  5  6  1  0
  6  9  2  0
  6 14  1  0
  7  8  2  0
  8  9  1  0
  8 15  1  0
  9 10  1  0
 11 12  2  0
 11 13  1  0
M  END
>  <DRUGBANK_ID>  (1) 
DB03374

>  <SECONDARY_ACCESSION_NUMBERS>  (1) 
EXPT03137

>  <COMMON_NAME>  (1) 
3,5-Diiodotyrosine

>  <CAS_NUMBER>  (1) 
300-39-0

>  <UNII>  (1) 
6L57Q44ZWW

$$$$
