
     RDKit          3D

 33 36  0  0  0  0  0  0  0  0999 V2000
    0.7559    0.2878   -0.1850 N   0  0  0  0  0  0  0  0  0  0  0  0
    0.0142    0.2694    1.0155 C   0  0  0  0  0  0  0  0  0  0  0  0
    0.4640    1.0859    2.1087 C   0  0  0  0  0  0  0  0  0  0  0  0
   -0.2467    1.1203    3.2986 C   0  0  0  0  0  0  0  0  0  0  0  0
   -1.4552    0.4379    3.3660 C   0  0  0  0  0  0  0  0  0  0  0  0
   -1.8065   -0.4513    2.3467 C   0  0  0  0  0  0  0  0  0  0  0  0
   -1.0578   -0.5745    1.2211 N   0  0  0  0  0  0  0  0  0  0  0  0
   -1.1810   -1.8731    0.4398 C   0  0  0  0  0  0  0  0  0  0  0  0
   -1.0705   -3.0916    1.1965 O   0  0  0  0  0  0  0  0  0  0  0  0
    0.4788   -3.2749    1.9440 P   0  0  0  0  0  0  0  0  0  0  0  0
    0.6950   -1.7140    2.1772 O   0  0  0  0  0  0  0  0  0  0  0  0
   -0.3325   -3.8040    3.1247 O   0  0  0  0  0  0  0  0  0  0  0  0
    1.8655   -3.4391    2.6130 O   0  0  0  0  0  0  0  0  0  0  0  0
    1.6017    1.9751    1.9032 C   0  0  0  0  0  0  0  0  0  0  0  0
    1.8174    2.9250    0.9590 C   0  0  0  0  0  0  0  0  0  0  0  0
    3.1012    3.4317    1.2122 C   0  0  0  0  0  0  0  0  0  0  0  0
    3.7833    4.4976    0.4084 C   0  0  0  0  0  0  0  0  0  0  0  0
    4.0691    5.6775    1.3002 C   0  0  0  0  0  0  0  0  0  0  0  0
    4.9200    5.5261    2.4029 C   0  0  0  0  0  0  0  0  0  0  0  0
    5.0811    6.5521    3.3214 C   0  0  0  0  0  0  0  0  0  0  0  0
    4.4842    7.7925    3.0950 C   0  0  0  0  0  0  0  0  0  0  0  0
    4.4641    8.8098    4.2072 C   0  0  0  0  0  0  0  0  0  0  0  0
    3.8697    8.3345    5.4319 O   0  0  0  0  0  0  0  0  0  0  0  0
    2.5063    8.1367    5.3531 C   0  0  0  0  0  0  0  0  0  0  0  0
    2.0110    7.3365    4.3902 N   0  0  0  0  0  0  0  0  0  0  0  0
    0.6777    7.1440    4.3578 C   0  0  0  0  0  0  0  0  0  0  0  0
   -0.2015    7.7638    5.2257 C   0  0  0  0  0  0  0  0  0  0  0  0
    0.3345    8.5401    6.2470 C   0  0  0  0  0  0  0  0  0  0  0  0
    1.7172    8.6874    6.3466 C   0  0  0  0  0  0  0  0  0  0  0  0
    3.7873    8.0154    1.8995 C   0  0  0  0  0  0  0  0  0  0  0  0
    3.5334    6.9484    1.0338 C   0  0  0  0  0  0  0  0  0  0  0  0
    3.6770    2.7443    2.2181 N   0  0  0  0  0  0  0  0  0  0  0  0
    2.7072    1.8585    2.6914 O   0  0  0  0  0  0  0  0  0  0  0  0
  1  2  1  0
  2  3  2  0
  2  7  1  0
  3  4  1  0
  3 14  1  0
  4  5  2  0
  5  6  1  0
  6  7  2  0
  7  8  1  0
  8  9  1  0
  9 10  1  0
 10 11  1  0
 10 12  1  0
 10 13  2  0
 14 15  2  0
 14 33  1  0
 15 16  1  0
 16 17  1  0
 16 32  2  0
 17 18  1  0
 18 19  2  0
 18 31  1  0
 19 20  1  0
 20 21  2  0
 21 22  1  0
 21 30  1  0
 22 23  1  0
 23 24  1  0
 24 25  2  0
 24 29  1  0
 25 26  1  0
 26 27  2  0
 27 28  1  0
 28 29  2  0
 30 31  2  0
 32 33  1  0
M  CHG  2   7   1  12  -1
M  END
>  <DRUGBANK_ID>  (1) 
DB15183

>  <COMMON_NAME>  (1) 
Fosmanogepix

>  <CAS_NUMBER>  (1) 
2091769-17-2

>  <UNII>  (1) 
1XQ871489P

>  <SYNONYMS>  (1) 
[2-amino-3-[3-[[4-(2-pyridyloxymethyl)phenyl]methyl]isoxazol-5-yl]pyridin-1-ium-1-yl]methyl hydrogen phosphate; Fosmanogepix

$$$$
