
     RDKit          3D

  8  8  0  0  0  0  0  0  0  0999 V2000
   -0.7055   -0.9020   -0.2088 N   0  0  0  0  0  0  0  0  0  0  0  0
    0.6344   -1.0093   -0.0314 C   0  0  0  0  0  0  0  0  0  0  0  0
    1.2324    0.3908    0.0408 C   0  0  1  0  0  0  0  0  0  0  0  0
    2.2475    0.5712   -1.0027 N   0  0  0  0  0  0  0  0  0  0  0  0
    0.0190    1.2824   -0.1909 C   0  0  0  0  0  0  0  0  0  0  0  0
   -1.1073    0.3483    0.1242 C   0  0  0  0  0  0  0  0  0  0  0  0
    1.2523   -2.0522    0.1201 O   0  0  0  0  0  0  0  0  0  0  0  0
   -2.1811    0.6493    0.6205 O   0  0  0  0  0  0  0  0  0  0  0  0
  1  2  1  0
  1  6  1  0
  2  3  1  0
  2  7  2  0
  3  5  1  0
  3  4  1  6
  5  6  1  0
  6  8  2  0
M  END
>  <DRUGBANK_ID>  (1) 
DB03487

>  <SECONDARY_ACCESSION_NUMBERS>  (1) 
EXPT02930

>  <COMMON_NAME>  (1) 
(S)-Aspartimide

>  <CAS_NUMBER>  (1) 
73537-92-5

>  <SYNONYMS>  (1) 
3-aminosuccinimide

$$$$
