
     RDKit          3D

 21 23  0  0  1  0  0  0  0  0999 V2000
    0.9525    1.2859   -1.8734 O   0  0  0  0  0  0  0  0  0  0  0  0
   -3.6317    1.8800   -1.2829 O   0  0  0  0  0  0  0  0  0  0  0  0
   -2.7923    6.5348   -1.5789 O   0  0  0  0  0  0  0  0  0  0  0  0
    5.3024    3.6257    2.4369 O   0  0  0  0  0  0  0  0  0  0  0  0
    6.6168    1.2566    1.2802 O   0  0  0  0  0  0  0  0  0  0  0  0
    0.7517    3.5989   -0.2042 O   0  0  0  0  0  0  0  0  0  0  0  0
    0.4624    1.1884   -0.5200 C   0  0  1  0  0  0  0  0  0  0  0  0
    1.0543    2.2985    0.3709 C   0  0  1  0  0  0  0  0  0  0  0  0
   -1.0416    1.2853   -0.5240 C   0  0  0  0  0  0  0  0  0  0  0  0
   -2.7823    2.9459   -1.1672 C   0  0  0  0  0  0  0  0  0  0  0  0
   -2.3161    5.2846   -1.3013 C   0  0  0  0  0  0  0  0  0  0  0  0
    4.6757    2.7166    1.6346 C   0  0  0  0  0  0  0  0  0  0  0  0
    5.3085    1.5964    1.0926 C   0  0  0  0  0  0  0  0  0  0  0  0
   -0.5658    3.7664   -0.6000 C   0  0  0  0  0  0  0  0  0  0  0  0
   -1.4635    2.6994   -0.7663 C   0  0  0  0  0  0  0  0  0  0  0  0
    2.5665    2.0907    0.5775 C   0  0  0  0  0  0  0  0  0  0  0  0
   -3.2158    4.2332   -1.4398 C   0  0  0  0  0  0  0  0  0  0  0  0
   -0.9950    5.0673   -0.8901 C   0  0  0  0  0  0  0  0  0  0  0  0
    3.3144    2.9627    1.3803 C   0  0  0  0  0  0  0  0  0  0  0  0
    4.5900    0.7263    0.2965 C   0  0  0  0  0  0  0  0  0  0  0  0
    3.2424    0.9705    0.0441 C   0  0  0  0  0  0  0  0  0  0  0  0
  2 10  1  0
  3 11  1  0
  4 12  1  0
  5 13  1  0
  6  8  1  0
  6 14  1  0
  7  8  1  0
  7  9  1  0
  7  1  1  6
  8 16  1  6
  9 15  1  0
 10 15  1  0
 10 17  2  0
 11 17  1  0
 11 18  2  0
 12 13  2  0
 12 19  1  0
 13 20  1  0
 14 15  2  0
 14 18  1  0
 16 19  2  0
 16 21  1  0
 20 21  2  0
M  END
>  <DRUGBANK_ID>  (1) 
DB12039

>  <COMMON_NAME>  (1) 
Epicatechin

>  <CAS_NUMBER>  (1) 
490-46-0

>  <UNII>  (1) 
34PHS7TU43

$$$$
