888
     RDKit          3D

 29 32  0  0  0  0  0  0  0  0999 V2000
    0.0739   -1.0183   -0.6688 C   0  0  0  0  0  0  0  0  0  0  0  0
    1.2940   -1.6423   -0.2387 C   0  0  0  0  0  0  0  0  0  0  0  0
    2.5031   -0.7804   -0.0233 C   0  0  0  0  0  0  0  0  0  0  0  0
    2.5383    0.6450   -0.0035 C   0  0  0  0  0  0  0  0  0  0  0  0
    1.3460    1.2963   -0.1572 C   0  0  0  0  0  0  0  0  0  0  0  0
    0.1937    0.4886   -0.5881 C   0  0  0  0  0  0  0  0  0  0  0  0
   -1.2365    1.5078   -0.7205 S   0  0  0  0  0  0  0  0  0  0  0  0
   -2.7614    0.3657   -1.0222 N   0  0  0  0  0  0  0  0  0  0  0  0
   -3.0409   -0.9866   -0.6851 C   0  0  0  0  0  0  0  0  0  0  0  0
   -1.5268   -1.8403   -0.9134 N   0  0  0  0  0  0  0  0  0  0  0  0
   -4.7846   -1.0341    0.5032 C   0  0  0  0  0  0  0  0  0  0  0  0
   -6.1127   -0.3805    1.2182 C   0  0  0  0  0  0  0  0  0  0  0  0
   -7.0537    1.0766    0.7025 C   0  0  0  0  0  0  0  0  0  0  0  0
   -6.2670    1.6987   -0.2083 C   0  0  0  0  0  0  0  0  0  0  0  0
   -5.1623    0.9949   -0.4234 N   0  0  0  0  0  0  0  0  0  0  0  0
   -5.4559   -0.3759   -0.5392 C   0  0  0  0  0  0  0  0  0  0  0  0
   -8.2710    1.8042    0.8400 C   0  0  0  0  0  0  0  0  0  0  0  0
   -8.6078    2.8457   -0.1335 C   0  0  0  0  0  0  0  0  0  0  0  0
   -7.6749    3.3250   -1.0528 C   0  0  0  0  0  0  0  0  0  0  0  0
   -6.4222    2.8373   -0.9628 C   0  0  0  0  0  0  0  0  0  0  0  0
   -6.9835   -0.5740    2.3505 O   0  0  0  0  0  0  0  0  0  0  0  0
   -6.3549   -1.0332   -1.0796 O   0  0  0  0  0  0  0  0  0  0  0  0
   -4.0448    1.7369    0.2132 C   0  0  0  0  0  0  0  0  0  0  0  0
   -3.2743    1.1554    1.6088 C   0  0  0  0  0  0  0  0  0  0  0  0
   -2.7476   -0.2661    1.9254 C   0  0  0  0  0  0  0  0  0  0  0  0
   -1.7381   -0.7716    1.0718 C   0  0  0  0  0  0  0  0  0  0  0  0
   -1.0713    2.3122   -1.9111 O   0  0  0  0  0  0  0  0  0  0  0  0
   -1.1660    2.3167    0.5116 O   0  0  0  0  0  0  0  0  0  0  0  0
   -1.8125   -0.7359    3.0079 C   0  0  0  0  0  0  0  0  0  0  0  0
  1  2  2  0
  1  6  1  0
  1 10  1  0
  2  3  1  0
  3  4  2  0
  4  5  1  0
  5  6  2  0
  6  7  1  0
  7  8  1  0
  7 27  2  0
  7 28  2  0
  8  9  2  0
  9 10  1  0
  9 11  1  0
 11 12  2  0
 11 16  1  0
 12 13  1  0
 12 21  1  0
 13 14  2  0
 13 17  1  0
 14 15  1  0
 14 20  1  0
 15 16  1  0
 15 23  1  0
 16 22  2  0
 17 18  2  0
 18 19  1  0
 19 20  2  0
 23 24  1  0
 24 25  1  0
 25 26  1  0
 25 29  1  0
M  END
>  <DRUGBANK_ID>  (1) 
DB07275

>  <COMMON_NAME>  (1) 
3-(1,1-dioxido-4H-1,2,4-benzothiadiazin-3-yl)-4-hydroxy-1-(3-methylbutyl)quinolin-2(1H)-one

$$$$
