
     RDKit          3D

 38 42  0  0  1  0  0  0  0  0999 V2000
   -3.6449    1.1687   -1.4551 C   0  0  0  0  0  0  0  0  0  0  0  0
   -2.4653    0.3079   -1.7670 C   0  0  1  0  0  0  0  0  0  0  0  0
   -2.9303   -1.1540   -1.6612 C   0  0  2  0  0  0  0  0  0  0  0  0
   -1.9495   -2.1116   -2.2596 C   0  0  2  0  0  0  0  0  0  0  0  0
   -1.0683   -1.6847   -3.4336 C   0  0  0  0  0  0  0  0  0  0  0  0
   -0.5764   -0.2498   -3.1179 C   0  0  1  0  0  0  0  0  0  0  0  0
   -1.7070    0.6175   -2.9275 O   0  0  0  0  0  0  0  0  0  0  0  0
    0.4835   -0.2278   -2.1077 O   0  0  0  0  0  0  0  0  0  0  0  0
    0.2898   -0.6220   -0.7407 C   0  0  1  0  0  0  0  0  0  0  0  0
    0.2067   -2.1094   -0.4063 C   0  0  0  0  0  0  0  0  0  0  0  0
    1.4149   -2.8691   -0.8554 C   0  0  1  0  0  0  0  0  0  0  0  0
    2.1932   -2.6174    0.4189 C   0  0  0  0  0  0  0  0  0  0  0  0
    2.2706   -1.0969    0.7359 C   0  0  0  0  0  0  0  0  0  0  0  0
    1.3906   -0.1319    0.1534 C   0  0  0  0  0  0  0  0  0  0  0  0
    1.3990    1.2229    0.5228 C   0  0  0  0  0  0  0  0  0  0  0  0
    2.3351    1.6460    1.4508 C   0  0  0  0  0  0  0  0  0  0  0  0
    3.1993    0.7044    2.0276 C   0  0  0  0  0  0  0  0  0  0  0  0
    3.1449   -0.6582    1.7010 C   0  0  0  0  0  0  0  0  0  0  0  0
    3.9325   -1.5690    2.3380 O   0  0  0  0  0  0  0  0  0  0  0  0
    4.2161    1.1480    2.9897 C   0  0  0  0  0  0  0  0  0  0  0  0
    4.9966    0.3875    3.5115 O   0  0  0  0  0  0  0  0  0  0  0  0
    4.3008    2.5759    3.3127 C   0  0  0  0  0  0  0  0  0  0  0  0
    5.3031    2.9410    4.2085 C   0  0  0  0  0  0  0  0  0  0  0  0
    5.4444    4.2685    4.5626 C   0  0  0  0  0  0  0  0  0  0  0  0
    4.5888    5.2268    4.0223 C   0  0  0  0  0  0  0  0  0  0  0  0
    3.5791    4.8728    3.1200 C   0  0  0  0  0  0  0  0  0  0  0  0
    3.4381    3.5239    2.7635 C   0  0  0  0  0  0  0  0  0  0  0  0
    2.3955    3.0771    1.8122 C   0  0  0  0  0  0  0  0  0  0  0  0
    1.5884    3.8356    1.3050 O   0  0  0  0  0  0  0  0  0  0  0  0
    2.7169    5.7742    2.5626 O   0  0  0  0  0  0  0  0  0  0  0  0
    2.8539    7.1399    2.9194 C   0  0  0  0  0  0  0  0  0  0  0  0
    0.4429    2.0550   -0.0108 O   0  0  0  0  0  0  0  0  0  0  0  0
    1.0447   -4.3439   -1.2437 C   0  0  0  0  0  0  0  0  0  0  0  0
    0.4375   -4.6702   -2.6590 C   0  0  0  0  0  0  0  0  0  0  0  0
    1.3229   -4.4230   -3.7308 O   0  0  0  0  0  0  0  0  0  0  0  0
    2.1575   -2.3436   -1.9443 O   0  0  0  0  0  0  0  0  0  0  0  0
   -2.3095   -3.4912   -1.8080 N   0  0  0  0  0  0  0  0  0  0  0  0
   -4.1540   -1.5278   -2.2557 O   0  0  0  0  0  0  0  0  0  0  0  0
  2  7  1  0
  2  1  1  6
  3  2  1  0
  3  4  1  0
  3 38  1  6
  4  5  1  0
  4 37  1  6
  6  5  1  0
  6  7  1  0
  6  8  1  1
  9 10  1  0
  9 14  1  0
  9  8  1  6
 11 10  1  0
 11 12  1  0
 11 33  1  0
 11 36  1  6
 12 13  1  0
 13 14  2  0
 13 18  1  0
 14 15  1  0
 15 16  2  0
 15 32  1  0
 16 17  1  0
 16 28  1  0
 17 18  2  0
 17 20  1  0
 18 19  1  0
 20 21  2  0
 20 22  1  0
 22 23  2  0
 22 27  1  0
 23 24  1  0
 24 25  2  0
 25 26  1  0
 26 27  2  0
 26 30  1  0
 27 28  1  0
 28 29  2  0
 30 31  1  0
 33 34  1  0
 34 35  1  0
M  END
>  <DRUGBANK_ID>  (1) 
DB05706

>  <COMMON_NAME>  (1) 
13-deoxydoxorubicin

>  <CAS_NUMBER>  (1) 
628290-43-7

>  <UNII>  (1) 
1S9VO1DQG5

$$$$
