
     RDKit          3D

 16 15  0  0  0  0  0  0  0  0999 V2000
    5.1457    0.1969    2.5331 O   0  0  0  0  0  0  0  0  0  0  0  0
    4.8891    1.3475    2.2245 C   0  0  0  0  0  0  0  0  0  0  0  0
    5.2901    2.0689    0.8005 C   0  0  1  0  0  0  0  0  0  0  0  0
    4.0337    2.4127   -0.3705 C   0  0  2  0  0  0  0  0  0  0  0  0
    3.0954    1.3403   -1.3495 C   0  0  1  0  0  0  0  0  0  0  0  0
    3.7956    0.1094   -2.1407 C   0  0  1  0  0  0  0  0  0  0  0  0
    4.7559   -0.9053   -1.4509 C   0  0  0  0  0  0  0  0  0  0  0  0
    4.1675   -1.5614   -0.2655 O   0  0  0  0  0  0  0  0  0  0  0  0
    3.2115   -0.5933    0.8030 P   0  0  0  0  0  0  0  0  0  0  0  0
    4.3170    0.3319    0.3612 O   0  0  0  0  0  0  0  0  0  0  0  0
    6.0720    3.1609    1.2344 O   0  0  0  0  0  0  0  0  0  0  0  0
    4.7054    3.1871   -1.3701 O   0  0  0  0  0  0  0  0  0  0  0  0
    1.8313    1.0048   -0.7481 O   0  0  0  0  0  0  0  0  0  0  0  0
    2.7919   -0.7087   -2.7758 O   0  0  0  0  0  0  0  0  0  0  0  0
    2.0311   -1.1593    0.0370 O   0  0  0  0  0  0  0  0  0  0  0  0
    2.2555    0.3749    1.8715 O   0  0  0  0  0  0  0  0  0  0  0  0
  1  2  2  0
  2  3  1  0
  3 11  1  1
  4 12  1  6
  4  5  1  0
  4  3  1  0
  5  6  1  0
  5 13  1  1
  6  7  1  0
  6 14  1  1
  7  8  1  0
  8  9  1  0
  9 10  1  0
  9 15  2  0
  9 16  1  0
M  END
>  <DRUGBANK_ID>  (1) 
DB03581

>  <SECONDARY_ACCESSION_NUMBERS>  (1) 
EXPT01538

>  <COMMON_NAME>  (1) 
Glucose-6-Phosphate

>  <CAS_NUMBER>  (1) 
56-73-5

>  <UNII>  (1) 
375AW34SQA

$$$$
