
     RDKit          3D

 31 36  0  0  0  0  0  0  0  0999 V2000
    0.8068    0.3974    0.6574 C   0  0  0  0  0  0  0  0  0  0  0  0
   -0.2194    0.1875    1.5324 F   0  0  0  0  0  0  0  0  0  0  0  0
    0.3810    1.4178   -0.1566 F   0  0  0  0  0  0  0  0  0  0  0  0
    0.7853   -0.9495   -0.4230 C   0  0  0  0  0  0  0  0  0  0  0  0
   -0.0506   -1.0686   -1.6328 N   0  0  0  0  0  0  0  0  0  0  0  0
   -0.0861   -2.4375   -1.9730 C   0  0  0  0  0  0  0  0  0  0  0  0
    0.6594   -3.1004   -1.1175 N   0  0  0  0  0  0  0  0  0  0  0  0
    1.1900   -2.2032   -0.1732 N   0  0  0  0  0  0  0  0  0  0  0  0
   -0.8667   -2.8742   -3.1041 C   0  0  0  0  0  0  0  0  0  0  0  0
   -1.5562   -1.9827   -3.8313 C   0  0  0  0  0  0  0  0  0  0  0  0
   -1.4358   -0.5673   -3.3877 C   0  0  0  0  0  0  0  0  0  0  0  0
   -0.7363   -0.0989   -2.3830 N   0  0  0  0  0  0  0  0  0  0  0  0
   -2.1363    0.3527   -4.2818 C   0  0  0  0  0  0  0  0  0  0  0  0
   -3.4897    0.4774   -4.5861 C   0  0  0  0  0  0  0  0  0  0  0  0
   -3.5950    1.4978   -5.5082 N   0  0  0  0  0  0  0  0  0  0  0  0
   -2.3976    1.9812   -5.8800 N   0  0  0  0  0  0  0  0  0  0  0  0
   -1.5297    1.3219   -5.1114 C   0  0  0  0  0  0  0  0  0  0  0  0
   -4.8018    1.9956   -6.1562 C   0  0  0  0  0  0  0  0  0  0  0  0
   -5.9679    2.6298   -5.4154 C   0  0  0  0  0  0  0  0  0  0  0  0
   -6.1502    1.3026   -6.0728 C   0  0  0  0  0  0  0  0  0  0  0  0
    2.1560    1.0961    1.5539 C   0  0  0  0  0  0  0  0  0  0  0  0
    2.1907    2.2253    2.6933 C   0  0  0  0  0  0  0  0  0  0  0  0
    3.2028    3.3544    2.4283 C   0  0  0  0  0  0  0  0  0  0  0  0
    3.6346    3.4263    1.0441 C   0  0  0  0  0  0  0  0  0  0  0  0
    2.9221    2.6470    0.1090 C   0  0  0  0  0  0  0  0  0  0  0  0
    3.0924    1.3619    0.5896 C   0  0  0  0  0  0  0  0  0  0  0  0
    4.3639    0.9687    0.8241 F   0  0  0  0  0  0  0  0  0  0  0  0
    4.6374    4.2013    0.8339 N   0  0  0  0  0  0  0  0  0  0  0  0
    4.7743    4.9009    1.9621 N   0  0  0  0  0  0  0  0  0  0  0  0
    3.8206    4.5264    2.9316 C   0  0  0  0  0  0  0  0  0  0  0  0
    5.8301    5.8841    1.8346 C   0  0  0  0  0  0  0  0  0  0  0  0
  1  2  1  0
  1  3  1  0
  1  4  1  0
  1 21  1  0
  4  5  1  0
  4  8  2  0
  5  6  1  0
  5 12  1  0
  6  7  2  0
  6  9  1  0
  8  7  1  0
  9 10  2  0
 11 10  1  0
 11 13  1  0
 12 11  2  0
 13 14  2  0
 13 17  1  0
 14 15  1  0
 15 16  1  0
 15 18  1  0
 17 16  2  0
 18 19  1  0
 18 20  1  0
 19 20  1  0
 21 22  2  0
 21 26  1  0
 22 23  1  0
 23 24  1  0
 23 30  2  0
 24 28  2  0
 25 24  1  0
 26 25  2  0
 26 27  1  0
 28 29  1  0
 29 31  1  0
 30 29  1  0
M  END
>  <DRUGBANK_ID>  (1) 
DB16823

>  <COMMON_NAME>  (1) 
Vebreltinib

>  <CAS_NUMBER>  (1) 
1440964-89-5

>  <UNII>  (1) 
2WZP8A9VFN

>  <SYNONYMS>  (1) 
Bozitinib; Vebreltinib

$$$$
