DCN
     RDKit          3D

 16 17  0  0  0  0  0  0  0  0999 V2000
    0.2240   -0.8827   -0.0018 C   0  0  0  0  0  0  0  0  0  0  0  0
   -0.7428    0.1099   -0.0184 C   0  0  0  0  0  0  0  0  0  0  0  0
    1.5791   -0.5477    0.0406 C   0  0  0  0  0  0  0  0  0  0  0  0
    1.9934    0.7949    0.0039 C   0  0  0  0  0  0  0  0  0  0  0  0
    0.9955    1.7866   -0.0111 C   0  0  0  0  0  0  0  0  0  0  0  0
   -0.3657    1.4492   -0.0132 C   0  0  0  0  0  0  0  0  0  0  0  0
    6.3848   -1.4388   -0.0302 C   0  0  0  0  0  0  0  0  0  0  0  0
    5.5346   -1.3661   -1.1333 C   0  0  0  0  0  0  0  0  0  0  0  0
    4.5501   -0.3762   -1.1902 C   0  0  0  0  0  0  0  0  0  0  0  0
    4.3604    0.4692   -0.0928 C   0  0  0  0  0  0  0  0  0  0  0  0
    6.2645   -0.5237    1.0162 C   0  0  0  0  0  0  0  0  0  0  0  0
    5.2485    0.4352    0.9850 C   0  0  0  0  0  0  0  0  0  0  0  0
    3.2800    1.3091   -0.0028 O   0  0  0  0  0  0  0  0  0  0  0  0
   -2.4056   -0.3269   -0.0201 Cl  0  0  0  0  0  0  0  0  0  0  0  0
    7.5670   -2.6852    0.0561 Cl  0  0  0  0  0  0  0  0  0  0  0  0
    2.3835   -1.6458    0.1391 O   0  0  0  0  0  0  0  0  0  0  0  0
  1  2  2  0
  1  3  1  0
  2  6  1  0
  2 14  1  0
  3  4  2  0
  3 16  1  0
  4  5  1  0
  4 13  1  0
  5  6  2  0
  7  8  2  0
  7 11  1  0
  7 15  1  0
  8  9  1  0
  9 10  2  0
 10 12  1  0
 10 13  1  0
 11 12  2  0
M  END
>  <DRUGBANK_ID>  (1) 
DB04393

>  <SECONDARY_ACCESSION_NUMBERS>  (1) 
EXPT01135

>  <COMMON_NAME>  (1) 
Soneclosan

>  <CAS_NUMBER>  (1) 
3380-30-1

>  <UNII>  (1) 
814H7B74XK

>  <SYNONYMS>  (1) 
5-chloro-2-(p-chlorophenoxy)phenol; Hydroxydichlorodiphenyl ether; Soneclosan

$$$$
