
     RDKit          3D

 30 32  0  0  0  0  0  0  0  0999 V2000
    0.9799    0.1042   -0.0342 C   0  0  0  0  0  0  0  0  0  0  0  0
    0.5069    0.9780   -1.0557 O   0  0  0  0  0  0  0  0  0  0  0  0
    0.7716    2.3146   -0.8963 C   0  0  0  0  0  0  0  0  0  0  0  0
    2.0748    2.7278   -0.6473 C   0  0  0  0  0  0  0  0  0  0  0  0
    2.3907    4.0909   -0.6480 C   0  0  0  0  0  0  0  0  0  0  0  0
    1.4386    5.0329   -0.9523 C   0  0  0  0  0  0  0  0  0  0  0  0
    0.1495    4.6495   -1.2783 C   0  0  0  0  0  0  0  0  0  0  0  0
   -0.2212    3.2848   -1.1652 C   0  0  0  0  0  0  0  0  0  0  0  0
   -1.5645    3.0260   -1.3076 O   0  0  0  0  0  0  0  0  0  0  0  0
   -2.0129    1.7094   -1.0058 C   0  0  0  0  0  0  0  0  0  0  0  0
   -0.7593    5.5825   -1.7269 O   0  0  0  0  0  0  0  0  0  0  0  0
   -0.2257    6.8887   -2.0008 C   0  0  0  0  0  0  0  0  0  0  0  0
    3.7179    4.5216   -0.2661 C   0  0  0  0  0  0  0  0  0  0  0  0
    4.3126    5.7175   -0.4147 C   0  0  0  0  0  0  0  0  0  0  0  0
    5.7041    6.1263    0.0135 C   0  0  0  0  0  0  0  0  0  0  0  0
    6.0890    7.2340   -0.2413 O   0  0  0  0  0  0  0  0  0  0  0  0
    6.4242    5.1670    0.7393 N   0  0  0  0  0  0  0  0  0  0  0  0
    6.4347    3.8324    0.2451 C   0  0  0  0  0  0  0  0  0  0  0  0
    6.9761    2.5909    0.9255 C   0  0  0  0  0  0  0  0  0  0  0  0
    8.2999    2.9651    1.4096 N   0  0  0  0  0  0  0  0  0  0  0  0
    8.1706    4.2754    2.1268 C   0  0  0  0  0  0  0  0  0  0  0  0
    7.7631    5.4984    1.2622 C   0  0  0  0  0  0  0  0  0  0  0  0
    9.3726    2.8981    0.3358 C   0  0  0  0  0  0  0  0  0  0  0  0
    9.4274    3.8359   -0.9799 C   0  0  0  0  0  0  0  0  0  0  0  0
   10.3158    4.6991   -1.0241 O   0  0  0  0  0  0  0  0  0  0  0  0
    8.6099    3.5963   -2.1195 N   0  0  0  0  0  0  0  0  0  0  0  0
    7.2136    3.3200   -2.1148 C   0  0  0  0  0  0  0  0  0  0  0  0
    6.7416    2.7905   -3.3890 C   0  0  0  0  0  0  0  0  0  0  0  0
    7.5281    3.7363   -4.2586 C   0  0  0  0  0  0  0  0  0  0  0  0
    8.8007    4.1830   -3.4326 C   0  0  0  0  0  0  0  0  0  0  0  0
  1  2  1  0
  2  3  1  0
  3  4  2  0
  3  8  1  0
  4  5  1  0
  5  6  2  0
  5 13  1  0
  6  7  1  0
  7  8  2  0
  7 11  1  0
  8  9  1  0
  9 10  1  0
 11 12  1  0
 13 14  2  0
 14 15  1  0
 15 16  2  0
 15 17  1  0
 17 18  1  0
 17 22  1  0
 18 19  1  0
 19 20  1  0
 20 21  1  0
 20 23  1  0
 21 22  1  0
 23 24  1  0
 24 25  2  0
 24 26  1  0
 26 27  1  0
 26 30  1  0
 27 28  1  0
 28 29  1  0
 29 30  1  0
M  END
>  <DRUGBANK_ID>  (1) 
DB12123

>  <COMMON_NAME>  (1) 
Cinepazide

>  <CAS_NUMBER>  (1) 
23887-46-9

>  <UNII>  (1) 
67Y4P5C84X

>  <SYNONYMS>  (1) 
Cinepazide

$$$$
