
     RDKit          3D

 23 25  0  0  1  0  0  0  0  0999 V2000
    0.7982    0.0225    0.1837 C   0  0  0  0  0  0  0  0  0  0  0  0
    0.2043    2.8836   -7.1778 C   0  0  0  0  0  0  0  0  0  0  0  0
   -2.0713    2.6764   -3.4963 C   0  0  0  0  0  0  0  0  0  0  0  0
    0.2448    0.5407   -1.1639 C   0  0  2  0  0  0  0  0  0  0  0  0
   -0.0930    2.6515   -4.5451 C   0  0  0  0  0  0  0  0  0  0  0  0
    1.4656    1.0320   -1.9799 C   0  0  2  0  0  0  0  0  0  0  0  0
    1.2962    2.5373   -1.7240 C   0  0  2  0  0  0  0  0  0  0  0  0
    1.2014    2.6283   -5.1205 C   0  0  0  0  0  0  0  0  0  0  0  0
   -1.1701    2.7818   -5.4149 C   0  0  0  0  0  0  0  0  0  0  0  0
   -0.1853    2.6991   -1.9087 C   0  0  1  0  0  0  0  0  0  0  0  0
    2.4288    2.6105   -4.4932 N   0  0  0  0  0  0  0  0  0  0  0  0
    1.3083    2.7403   -6.4504 N   0  0  0  0  0  0  0  0  0  0  0  0
   -1.0520    2.9109   -6.7569 N   0  0  0  0  0  0  0  0  0  0  0  0
   -2.3701    2.7868   -4.7712 N   0  0  0  0  0  0  0  0  0  0  0  0
   -0.7089    2.6212   -3.2820 N   0  0  0  0  0  0  0  0  0  0  0  0
    1.4427    0.5711   -3.3279 O   0  0  0  0  0  0  0  0  0  0  0  0
    2.0745    3.5428   -2.3142 O   0  0  0  0  0  0  0  0  0  0  0  0
    0.8384   -1.5712   -1.9677 O   0  0  0  0  0  0  0  0  0  0  0  0
    2.5499   -2.0504   -0.2423 O   0  0  0  0  0  0  0  0  0  0  0  0
    1.5775   -3.5827   -1.7280 O   0  0  0  0  0  0  0  0  0  0  0  0
    0.4847   -1.3610    0.4209 O   0  0  0  0  0  0  0  0  0  0  0  0
   -0.7039    1.6299   -1.0824 O   0  0  0  0  0  0  0  0  0  0  0  0
    1.0613   -2.5334   -0.7131 P   0  0  0  0  0  0  0  0  0  0  0  0
  4  1  1  1
  6  4  1  0
  6 16  1  6
  7  6  1  0
  7 17  1  6
  8  5  2  0
  9  5  1  0
 10  7  1  0
 10 15  1  6
 11  8  1  0
 12  2  2  0
 12  8  1  0
 13  2  1  0
 13  9  2  0
 14  3  2  0
 14  9  1  0
 15  3  1  0
 15  5  1  0
 21  1  1  0
 22  4  1  0
 22 10  1  0
 23 18  1  0
 23 19  1  0
 23 20  2  0
 23 21  1  0
M  END
>  <DRUGBANK_ID>  (1) 
DB03887

>  <SECONDARY_ACCESSION_NUMBERS>  (1) 
EXPT00383

>  <COMMON_NAME>  (1) 
Alpha-Adenosine Monophosphate

$$$$
