
     RDKit          3D

 31 35  0  0  0  0  0  0  0  0999 V2000
    7.1205   -0.3422   -6.0332 C   0  0  0  0  0  0  0  0  0  0  0  0
    6.5734   -8.2691    4.2288 C   0  0  0  0  0  0  0  0  0  0  0  0
    4.2586   -8.3625    3.5501 C   0  0  0  0  0  0  0  0  0  0  0  0
    6.9009   -7.6405    3.0245 C   0  0  0  0  0  0  0  0  0  0  0  0
    4.5661   -7.6063    2.4107 C   0  0  0  0  0  0  0  0  0  0  0  0
    5.8186   -4.0412   -3.8737 C   0  0  0  0  0  0  0  0  0  0  0  0
    7.8160    0.6319   -6.7702 C   0  0  0  0  0  0  0  0  0  0  0  0
    6.3317   -3.3012   -4.9573 C   0  0  0  0  0  0  0  0  0  0  0  0
    9.1399   -0.9962   -4.8357 C   0  0  0  0  0  0  0  0  0  0  0  0
    5.8881   -3.8198   -1.3551 C   0  0  0  0  0  0  0  0  0  0  0  0
    7.7638   -1.1564   -5.0570 C   0  0  0  0  0  0  0  0  0  0  0  0
    5.2650   -8.6857    4.4568 C   0  0  0  0  0  0  0  0  0  0  0  0
    5.9019   -7.3025    2.1031 C   0  0  0  0  0  0  0  0  0  0  0  0
    6.2168   -3.4252   -2.6914 C   0  0  0  0  0  0  0  0  0  0  0  0
    9.1612    0.7577   -6.5138 C   0  0  0  0  0  0  0  0  0  0  0  0
    9.8047   -0.0315   -5.5803 C   0  0  0  0  0  0  0  0  0  0  0  0
    7.0194   -2.2409   -4.4170 C   0  0  0  0  0  0  0  0  0  0  0  0
    6.2054   -5.0129   -0.8218 C   0  0  0  0  0  0  0  0  0  0  0  0
   10.2083    1.6007   -7.0350 C   0  0  0  0  0  0  0  0  0  0  0  0
   11.2155    0.3793   -5.6127 C   0  0  0  0  0  0  0  0  0  0  0  0
    5.7028   -5.4465    0.5239 C   0  0  0  0  0  0  0  0  0  0  0  0
    7.1614   -7.1867   -0.0121 C   0  0  0  0  0  0  0  0  0  0  0  0
    4.8633   -9.7125    5.9919 Br  0  0  0  0  0  0  0  0  0  0  0  0
    7.8890   -8.2399    0.1036 N   0  0  0  0  0  0  0  0  0  0  0  0
   11.3825    1.4047   -6.5380 N   0  0  0  0  0  0  0  0  0  0  0  0
    6.2405   -6.6797    0.8710 N   0  0  0  0  0  0  0  0  0  0  0  0
    9.9259    2.5098   -7.9638 O   0  0  0  0  0  0  0  0  0  0  0  0
   12.0748   -0.1368   -4.9133 O   0  0  0  0  0  0  0  0  0  0  0  0
    4.9637   -4.7494    1.2084 O   0  0  0  0  0  0  0  0  0  0  0  0
    6.9448   -2.2916   -3.0477 O   0  0  0  0  0  0  0  0  0  0  0  0
    7.2321   -6.2320   -1.4723 S   0  0  0  0  0  0  0  0  0  0  0  0
  4  2  2  0
  5  3  1  0
  7  1  2  0
  8  6  1  0
 11  1  1  0
 11  9  2  0
 12  2  1  0
 12  3  2  0
 13  4  1  0
 13  5  2  0
 14  6  2  0
 14 10  1  0
 15  7  1  0
 16  9  1  0
 16 15  2  0
 17  8  2  0
 17 11  1  0
 18 10  2  0
 19 15  1  0
 20 16  1  0
 21 18  1  0
 23 12  1  0
 24 22  2  0
 25 19  2  0
 25 20  1  0
 26 13  1  0
 26 21  1  0
 26 22  1  0
 27 19  1  0
 28 20  2  0
 29 21  2  0
 30 14  1  0
 30 17  1  0
 31 18  1  0
 31 22  1  0
M  END
>  <DRUGBANK_ID>  (1) 
DB17493

>  <COMMON_NAME>  (1) 
Bioymifi

>  <CAS_NUMBER>  (1) 
1420071-30-2

>  <SYNONYMS>  (1) 
5-(5-((3-(4-bromophenyl)-2-imino-4-oxothiazolidin-5-ylidene)methyl)furan-2-yl)isoindoline-1,3-dione; 5-[5-[(Z)-[3-(4-bromophenyl)-2-imino-4-oxo-1,3-thiazolidin-5-ylidene]methyl]furan-2-yl]isoindole-1,3-dione

$$$$
