
     RDKit          3D

 19 20  0  0  0  0  0  0  0  0999 V2000
   -2.0140    0.6245    0.0088 C   0  0  0  0  0  0  0  0  0  0  0  0
   -2.0901   -0.7277    0.0166 N   0  0  0  0  0  0  0  0  0  0  0  0
   -0.9376   -1.4286    0.0149 C   0  0  0  0  0  0  0  0  0  0  0  0
    0.2746   -0.7242   -0.0155 C   0  0  0  0  0  0  0  0  0  0  0  0
    0.2021    0.6651   -0.0182 C   0  0  0  0  0  0  0  0  0  0  0  0
   -0.9107    1.4108    0.0049 N   0  0  0  0  0  0  0  0  0  0  0  0
    1.5099    1.0723   -0.0729 N   0  0  0  0  0  0  0  0  0  0  0  0
    2.2823   -0.0565   -0.1829 C   0  0  0  0  0  0  0  0  0  0  0  0
    1.5749   -1.1602   -0.0697 N   0  0  0  0  0  0  0  0  0  0  0  0
    2.0060    2.4374   -0.0652 C   0  0  0  0  0  0  0  0  0  0  0  0
    2.8552    2.7726    1.1690 C   0  0  0  0  0  0  0  0  0  0  0  0
    4.1017    1.9929    1.2461 N   0  0  0  0  0  0  0  0  0  0  0  0
    4.8386    2.2290    2.4856 C   0  0  0  0  0  0  0  0  0  0  0  0
    4.0114    1.8618    3.7260 C   0  0  0  0  0  0  0  0  0  0  0  0
    3.5316    0.3985    3.7276 C   0  0  0  0  0  0  0  0  0  0  0  0
    4.6969   -0.5970    3.7556 C   0  0  0  0  0  0  0  0  0  0  0  0
    5.5938   -0.3942    4.9725 C   0  0  0  0  0  0  0  0  0  0  0  0
    4.8594   -0.5908    6.1723 O   0  0  0  0  0  0  0  0  0  0  0  0
   -0.9780   -2.8057    0.0270 N   0  0  0  0  0  0  0  0  0  0  0  0
  1  2  2  0
  1  6  1  0
  2  3  1  0
  3  4  2  0
  3 19  1  0
  4  5  1  0
  4  9  1  0
  5  6  2  0
  5  7  1  0
  7  8  1  0
  7 10  1  0
  8  9  2  0
 10 11  1  0
 11 12  1  0
 12 13  1  0
 13 14  1  0
 14 15  1  0
 15 16  1  0
 16 17  1  0
 17 18  1  0
M  END
>  <DRUGBANK_ID>  (1) 
DB12716

>  <SECONDARY_ACCESSION_NUMBERS>  (1) 
DB05008

>  <COMMON_NAME>  (1) 
NB-001

>  <CAS_NUMBER>  (1) 
686301-48-4

>  <UNII>  (1) 
J89QT81NBQ

$$$$
