
     RDKit          3D

 22 25  0  0  0  0  0  0  0  0999 V2000
    0.0407    0.6763   -1.2331 C   0  0  0  0  0  0  0  0  0  0  0  0
   -1.2536    0.0807   -0.6455 C   0  0  0  0  0  0  0  0  0  0  0  0
    1.1719   -0.0169   -0.4229 C   0  0  0  0  0  0  0  0  0  0  0  0
    0.0065    2.1741   -0.7681 C   0  0  0  0  0  0  0  0  0  0  0  0
    0.0894    0.6263   -2.7951 C   0  0  0  0  0  0  0  0  0  0  0  0
   -1.2964    0.1589    0.7792 C   0  0  0  0  0  0  0  0  0  0  0  0
   -2.2807   -0.5438   -1.3491 C   0  0  0  0  0  0  0  0  0  0  0  0
    1.1566    0.1830    0.9723 C   0  0  0  0  0  0  0  0  0  0  0  0
    2.0624   -0.9445   -0.8578 C   0  0  0  0  0  0  0  0  0  0  0  0
   -0.0463    2.2838    0.7831 C   0  0  0  0  0  0  0  0  0  0  0  0
    1.2576    1.3231   -3.5350 C   0  0  0  0  0  0  0  0  0  0  0  0
   -0.1044    0.8809    1.4248 C   0  0  0  0  0  0  0  0  0  0  0  0
   -2.3262   -0.4422    1.4805 C   0  0  0  0  0  0  0  0  0  0  0  0
   -3.3315   -1.1142   -0.6344 C   0  0  0  0  0  0  0  0  0  0  0  0
    2.1691   -0.3307    1.7979 C   0  0  0  0  0  0  0  0  0  0  0  0
    3.1815   -1.3201   -0.1049 C   0  0  0  0  0  0  0  0  0  0  0  0
    2.6575    0.7123   -3.3204 C   0  0  0  0  0  0  0  0  0  0  0  0
    0.9775    1.2231   -4.9430 O   0  0  0  0  0  0  0  0  0  0  0  0
   -3.3459   -1.0744    0.7670 C   0  0  0  0  0  0  0  0  0  0  0  0
    3.2406   -1.0013    1.2402 C   0  0  0  0  0  0  0  0  0  0  0  0
    2.7268   -0.6448   -3.9283 N   0  0  0  0  0  0  0  0  0  0  0  0
    3.8674   -1.4007   -3.4209 C   0  0  0  0  0  0  0  0  0  0  0  0
  1  2  1  0
  1  3  1  0
  1  4  1  0
  1  5  1  0
  2  6  2  0
  2  7  1  0
  3  8  2  0
  3  9  1  0
  4 10  1  0
  5 11  1  0
  6 12  1  0
  6 13  1  0
  7 14  2  0
  8 15  1  0
  8 12  1  0
  9 16  2  0
 10 12  1  0
 11 17  1  0
 11 18  1  0
 13 19  2  0
 14 19  1  0
 15 20  2  0
 16 20  1  0
 17 21  1  0
 21 22  1  0
M  END
>  <DRUGBANK_ID>  (1) 
DB09307

>  <COMMON_NAME>  (1) 
Oxaprotiline

>  <CAS_NUMBER>  (1) 
56433-44-4

>  <UNII>  (1) 
3V3Z2HK4LS

>  <SYNONYMS>  (1) 
Hydroxymaprotiline; Oxaprotilina; Oxaprotiline; Oxaprotilinum

$$$$
