
     RDKit          3D

 31 37  0  0  0  0  0  0  0  0999 V2000
    1.9953    2.5218   -3.4319 C   0  0  1  0  0  0  0  0  0  0  0  0
    2.4015    2.9485   -4.8640 C   0  0  2  0  0  0  0  0  0  0  0  0
    2.9637    3.1388   -2.3482 C   0  0  2  0  0  0  0  0  0  0  0  0
    0.8282    3.3679   -2.9725 C   0  0  0  0  0  0  0  0  0  0  0  0
    4.5219    2.9840   -3.3933 C   0  0  1  0  0  0  0  0  0  0  0  0
    0.7777    3.4784   -1.6645 C   0  0  0  0  0  0  0  0  0  0  0  0
    1.9753    2.9423   -1.1755 O   0  0  0  0  0  0  0  0  0  0  0  0
    1.1544    2.8278   -5.6592 C   0  0  1  0  0  0  0  0  0  0  0  0
    4.5244    1.7887   -4.4565 C   0  0  2  0  0  0  0  0  0  0  0  0
    1.0269    1.5428   -6.3146 N   0  0  0  0  0  0  0  0  0  0  0  0
   -0.1271    3.8800   -3.8334 C   0  0  0  0  0  0  0  0  0  0  0  0
    3.4106    1.9914   -5.3970 C   0  0  0  0  0  0  0  0  0  0  0  0
    0.1216    3.8274   -5.2478 C   0  0  0  0  0  0  0  0  0  0  0  0
    3.0371    4.3232   -4.9815 C   0  0  0  0  0  0  0  0  0  0  0  0
    4.1448    4.4148   -3.9622 C   0  0  0  0  0  0  0  0  0  0  0  0
    1.2389    1.0512   -3.4237 C   0  0  0  0  0  0  0  0  0  0  0  0
    4.3593    0.3411   -3.8879 C   0  0  0  0  0  0  0  0  0  0  0  0
    0.6359    2.1809   -7.7026 C   0  0  0  0  0  0  0  0  0  0  0  0
   -0.4102    4.0723   -1.1386 C   0  0  0  0  0  0  0  0  0  0  0  0
   -0.5421    3.2295   -7.8006 C   0  0  0  0  0  0  0  0  0  0  0  0
    0.4600    0.6297   -4.9217 C   0  0  0  0  0  0  0  0  0  0  0  0
   -1.0333    4.3981   -8.7161 C   0  0  0  0  0  0  0  0  0  0  0  0
   -0.6331    4.7620   -7.3639 C   0  0  0  0  0  0  0  0  0  0  0  0
   -1.3081    4.4563   -3.3699 C   0  0  0  0  0  0  0  0  0  0  0  0
    5.9690    3.1581   -3.0540 O   0  0  0  0  0  0  0  0  0  0  0  0
   -1.4295    4.5552   -2.0352 C   0  0  0  0  0  0  0  0  0  0  0  0
    3.3966    0.5071   -2.8780 O   0  0  0  0  0  0  0  0  0  0  0  0
   -0.6204    4.2615    0.1805 O   0  0  0  0  0  0  0  0  0  0  0  0
    3.7853   -0.7612   -4.8867 C   0  0  0  0  0  0  0  0  0  0  0  0
    5.3336   -0.1778   -2.8709 C   0  0  0  0  0  0  0  0  0  0  0  0
    7.0761    2.4729   -3.8201 C   0  0  0  0  0  0  0  0  0  0  0  0
  1  4  1  0
  1 16  1  6
  2  1  1  0
  2 12  1  6
  2 14  1  0
  3  1  1  0
  3  7  1  6
  5  3  1  0
  5 15  1  0
  5 25  1  1
  6  4  2  0
  6  7  1  0
  8  2  1  0
  8 10  1  0
  8 13  1  1
  9  5  1  0
  9 17  1  1
 10 21  1  0
 11  4  1  0
 12  9  1  0
 13 11  1  0
 14 15  1  0
 18 10  1  0
 19  6  1  0
 19 26  2  0
 20 18  1  0
 21 16  1  0
 22 20  1  0
 22 23  1  0
 23 20  1  0
 24 11  2  0
 26 24  1  0
 27 17  1  0
 28 19  1  0
 29 17  1  0
 30 17  1  0
 31 25  1  0
M  END
>  <DRUGBANK_ID>  (1) 
DB01548

>  <COMMON_NAME>  (1) 
Diprenorphine

>  <CAS_NUMBER>  (1) 
14357-78-9

>  <UNII>  (1) 
1F0L5N25ZZ

>  <SYNONYMS>  (1) 
Diprenorfin; Diprenorphine

$$$$
