
     RDKit          3D

 22 25  0  0  0  0  0  0  0  0999 V2000
    0.0459    0.0061    1.2933 N   0  0  0  0  0  0  0  0  0  0  0  0
   -4.9564   -1.7092   -0.0981 C   0  0  0  0  0  0  0  0  0  0  0  0
   -2.5387   -1.3723    0.0192 C   0  0  0  0  0  0  0  0  0  0  0  0
    0.0235   -1.0891    0.3037 C   0  0  0  0  0  0  0  0  0  0  0  0
   -1.2546   -0.7769   -0.5207 C   0  0  0  0  0  0  0  0  0  0  0  0
   -3.7759   -1.1403   -0.6097 C   0  0  0  0  0  0  0  0  0  0  0  0
   -3.6498   -2.7470    1.6768 N   0  0  0  0  0  0  0  0  0  0  0  0
   -4.8149   -2.4921    1.0507 C   0  0  0  0  0  0  0  0  0  0  0  0
  -11.0655   -0.4847   -3.0526 N   0  0  0  0  0  0  0  0  0  0  0  0
  -10.0627   -0.7645   -2.5444 C   0  0  0  0  0  0  0  0  0  0  0  0
   -6.2731   -1.4971   -0.7238 C   0  0  0  0  0  0  0  0  0  0  0  0
   -2.5492   -2.1908    1.1455 C   0  0  0  0  0  0  0  0  0  0  0  0
    0.0035    1.1053    0.3158 C   0  0  0  0  0  0  0  0  0  0  0  0
   -1.2561    0.7707   -0.4967 C   0  0  0  0  0  0  0  0  0  0  0  0
    1.2638   -0.7473   -0.5178 C   0  0  0  0  0  0  0  0  0  0  0  0
   -6.5274   -1.8936   -2.0480 C   0  0  0  0  0  0  0  0  0  0  0  0
   -7.3299   -0.9145   -0.0018 C   0  0  0  0  0  0  0  0  0  0  0  0
   -8.8064   -1.0672   -1.9179 C   0  0  0  0  0  0  0  0  0  0  0  0
   -5.9027   -3.0534    1.6006 F   0  0  0  0  0  0  0  0  0  0  0  0
    1.2518    0.7822   -0.5096 C   0  0  0  0  0  0  0  0  0  0  0  0
   -7.7814   -1.6826   -2.6404 C   0  0  0  0  0  0  0  0  0  0  0  0
   -8.5845   -0.7062   -0.5883 C   0  0  0  0  0  0  0  0  0  0  0  0
  2  6  2  0
  2  8  1  0
  3  5  1  0
  4  1  1  0
  5  4  1  0
  6  3  1  0
  7 12  1  0
  8  7  2  0
  9 10  3  0
 10 18  1  0
 11  2  1  0
 12  3  2  0
 13  1  1  0
 14 13  1  0
 14  5  1  0
 15  4  1  0
 16 11  2  0
 17 11  1  0
 18 22  1  0
 18 21  2  0
 19  8  1  0
 20 13  1  0
 20 15  1  0
 21 16  1  0
 22 17  2  0
M  END
>  <DRUGBANK_ID>  (1) 
DB14029

>  <COMMON_NAME>  (1) 
Furafylline

>  <CAS_NUMBER>  (1) 
80288-49-9

>  <UNII>  (1) 
C2087G0XX3

>  <SYNONYMS>  (1) 
Furafilina; Furafylline; Furafyllinum

$$$$
