
     RDKit          3D

  5  4  0  0  0  0  0  0  0  0999 V2000
    1.0051    0.0447    0.1135 C   0  0  0  0  0  0  0  0  0  0  0  0
    1.0051    0.0493   -2.3718 C   0  0  0  0  0  0  0  0  0  0  0  0
   -1.0241    0.7644   -1.1278 C   0  0  0  0  0  0  0  0  0  0  0  0
    0.4978    0.7644   -1.1278 N   0  0  0  0  0  0  0  0  0  0  0  0
    1.0051    2.1993   -1.1252 C   0  0  0  0  0  0  0  0  0  0  0  0
  4  1  1  0
  4  2  1  0
  4  3  1  0
  4  5  1  0
M  CHG  1   4   1
M  END
>  <DRUGBANK_ID>  (1) 
DB03095

>  <SECONDARY_ACCESSION_NUMBERS>  (1) 
EXPT03069

>  <COMMON_NAME>  (1) 
Tetramethylammonium

>  <CAS_NUMBER>  (1) 
51-92-3

>  <UNII>  (1) 
H0W55235FC

>  <SYNONYMS>  (1) 
Trimethylaminomethane

$$$$
