
     RDKit          3D

 36 35  0  0  0  0  0  0  0  0999 V2000
    1.1315    0.0698    0.0939 C   0  0  0  0  0  0  0  0  0  0  0  0
    0.2750    1.3446    0.2579 C   0  0  1  0  0  0  0  0  0  0  0  0
    2.4832    0.1654   -0.0007 N   0  0  0  0  0  0  0  0  0  0  0  0
    0.6112   -1.0480    0.0335 O   0  0  0  0  0  0  0  0  0  0  0  0
   -0.5901    1.6301   -0.9990 C   0  0  0  0  0  0  0  0  0  0  0  0
   -0.5348    1.2454    1.4321 O   0  0  0  0  0  0  0  0  0  0  0  0
    3.3450    1.3157    0.2067 C   0  0  0  0  0  0  0  0  0  0  0  0
   -1.6256    0.5143   -1.2377 C   0  0  0  0  0  0  0  0  0  0  0  0
   -1.3645    2.9479   -0.7742 C   0  0  0  0  0  0  0  0  0  0  0  0
    4.2127    1.1640    1.4491 C   0  0  0  0  0  0  0  0  0  0  0  0
    5.1390   -0.0217    1.2906 C   0  0  0  0  0  0  0  0  0  0  0  0
    6.4725    0.2484    1.4251 N   0  0  0  0  0  0  0  0  0  0  0  0
    4.7146   -1.1532    1.0460 O   0  0  0  0  0  0  0  0  0  0  0  0
    7.4998   -0.7432    1.1655 C   0  0  0  0  0  0  0  0  0  0  0  0
    8.3437   -0.4355   -0.0738 C   0  0  0  0  0  0  0  0  0  0  0  0
    9.3231    1.1149    0.0071 S   0  0  0  0  0  0  0  0  0  0  0  0
    7.9412    2.6296    0.2456 S   0  0  0  0  0  0  0  0  0  0  0  0
   16.1628    3.5569    0.4711 C   0  0  0  0  0  0  0  0  0  0  0  0
   16.9178    4.8832    0.7427 C   0  0  1  0  0  0  0  0  0  0  0  0
   14.7947    3.5954    0.5436 N   0  0  0  0  0  0  0  0  0  0  0  0
   16.7688    2.5227    0.1871 O   0  0  0  0  0  0  0  0  0  0  0  0
   17.8208    4.7944    2.0121 C   0  0  0  0  0  0  0  0  0  0  0  0
   17.7188    5.1970   -0.4030 O   0  0  0  0  0  0  0  0  0  0  0  0
   13.9733    2.4047    0.3878 C   0  0  0  0  0  0  0  0  0  0  0  0
   18.8727    3.6678    1.8989 C   0  0  0  0  0  0  0  0  0  0  0  0
   18.6025    6.1169    2.1950 C   0  0  0  0  0  0  0  0  0  0  0  0
   13.0737    2.1501    1.5942 C   0  0  0  0  0  0  0  0  0  0  0  0
   12.1352    3.3222    1.8011 C   0  0  0  0  0  0  0  0  0  0  0  0
   10.8014    3.0178    1.8567 N   0  0  0  0  0  0  0  0  0  0  0  0
   12.5514    4.4766    1.9047 O   0  0  0  0  0  0  0  0  0  0  0  0
    9.7698    4.0393    1.9160 C   0  0  0  0  0  0  0  0  0  0  0  0
    8.9225    4.1284    0.6438 C   0  0  0  0  0  0  0  0  0  0  0  0
    0.3087    1.7691   -2.2477 C   0  0  0  0  0  0  0  0  0  0  0  0
    1.2729    2.8061   -2.0859 O   0  0  0  0  0  0  0  0  0  0  0  0
   16.9459    4.5391    3.2547 C   0  0  0  0  0  0  0  0  0  0  0  0
   15.9840    5.5705    3.4338 O   0  0  0  0  0  0  0  0  0  0  0  0
  1  2  1  0
  1  4  2  0
  1  3  1  0
  2  5  1  0
  2  6  1  1
  3  7  1  0
  5  8  1  0
  5  9  1  0
  5 33  1  0
  7 10  1  0
 10 11  1  0
 11 12  1  0
 11 13  2  0
 14 15  1  0
 14 12  1  0
 15 16  1  0
 16 17  1  0
 18 19  1  0
 18 21  2  0
 18 20  1  0
 19 22  1  0
 19 23  1  6
 20 24  1  0
 22 25  1  0
 22 26  1  0
 22 35  1  0
 24 27  1  0
 27 28  1  0
 28 29  1  0
 28 30  2  0
 31 32  1  0
 31 29  1  0
 32 17  1  0
 33 34  1  0
 35 36  1  0
M  END
>  <DRUGBANK_ID>  (1) 
DB11190

>  <COMMON_NAME>  (1) 
Pantethine

>  <CAS_NUMBER>  (1) 
16816-67-4

>  <UNII>  (1) 
7K81IL792L

>  <SYNONYMS>  (1) 
Bis(pantothenamidoethyl) disulfide; D-Bis(N-pantothenyl-beta-aminoethyl) disulfide; D-pantethine; Pantethine; Pantetina; Pantomin

$$$$
