TQ6
     RDKit          3D

 25 28  0  0  0  0  0  0  0  0999 V2000
    1.3103   -1.3617   -0.0058 C   0  0  0  0  0  0  0  0  0  0  0  0
    2.4474   -0.6573   -0.0391 N   0  0  0  0  0  0  0  0  0  0  0  0
    2.3418    0.6719    0.0005 C   0  0  0  0  0  0  0  0  0  0  0  0
    1.1883    1.3374    0.0825 N   0  0  0  0  0  0  0  0  0  0  0  0
   -2.4113   -0.7092   -0.0334 C   0  0  0  0  0  0  0  0  0  0  0  0
   -1.2405   -1.4586    0.1159 C   0  0  0  0  0  0  0  0  0  0  0  0
    0.0269   -0.7804    0.0691 C   0  0  0  0  0  0  0  0  0  0  0  0
    0.0590    0.6281    0.0851 C   0  0  0  0  0  0  0  0  0  0  0  0
   -1.1407    1.3233    0.0406 C   0  0  0  0  0  0  0  0  0  0  0  0
   -2.3560    0.6741   -0.1352 C   0  0  0  0  0  0  0  0  0  0  0  0
    3.4940    1.3895   -0.0796 N   0  0  0  0  0  0  0  0  0  0  0  0
    1.4696   -2.7227   -0.2673 N   0  0  0  0  0  0  0  0  0  0  0  0
   -1.2919   -3.2444    0.4158 S   0  0  0  0  0  0  0  0  0  0  0  0
   -2.9749   -3.7532    0.4223 C   0  0  0  0  0  0  0  0  0  0  0  0
   -3.7897   -3.5870   -0.6941 C   0  0  0  0  0  0  0  0  0  0  0  0
   -5.1535   -3.8532   -0.5994 C   0  0  0  0  0  0  0  0  0  0  0  0
   -5.7055   -4.3893    0.5675 C   0  0  0  0  0  0  0  0  0  0  0  0
   -4.8384   -4.7185    1.6144 C   0  0  0  0  0  0  0  0  0  0  0  0
   -3.4892   -4.3708    1.5610 C   0  0  0  0  0  0  0  0  0  0  0  0
   -8.5675   -5.1276    2.5198 C   0  0  0  0  0  0  0  0  0  0  0  0
   -7.8181   -3.9959    1.8069 C   0  0  0  0  0  0  0  0  0  0  0  0
   -7.0611   -4.5450    0.6813 N   0  0  0  0  0  0  0  0  0  0  0  0
   -7.8332   -5.3649   -0.2489 C   0  0  0  0  0  0  0  0  0  0  0  0
   -8.5639   -6.4528    0.5580 C   0  0  0  0  0  0  0  0  0  0  0  0
   -9.3804   -5.8822    1.6003 O   0  0  0  0  0  0  0  0  0  0  0  0
  1  2  2  0
  1  7  1  0
  1 12  1  0
  2  3  1  0
  3  4  2  0
  3 11  1  0
  4  8  1  0
  5  6  1  0
  5 10  2  0
  6  7  2  0
  6 13  1  0
  7  8  1  0
  8  9  2  0
  9 10  1  0
 13 14  1  0
 14 15  2  0
 14 19  1  0
 15 16  1  0
 16 17  2  0
 17 18  1  0
 17 22  1  0
 18 19  2  0
 20 21  1  0
 20 25  1  0
 21 22  1  0
 22 23  1  0
 23 24  1  0
 24 25  1  0
M  END
>  <DRUGBANK_ID>  (1) 
DB02001

>  <SECONDARY_ACCESSION_NUMBERS>  (1) 
EXPT03102

>  <COMMON_NAME>  (1) 
5-(4-Morpholin-4-Yl-Phenylsulfanyl)-2,4-Quinazolinediamine

$$$$
