CED
     RDKit          3D

 22 23  0  0  0  0  0  0  0  0999 V2000
    0.4385    1.7278    0.5664 S   0  0  0  0  0  0  0  0  0  0  0  0
   -1.1683    1.0738    0.1991 C   0  0  0  0  0  0  0  0  0  0  0  0
   -1.4110   -0.3937    0.3520 C   0  0  0  0  0  0  0  0  0  0  0  0
   -2.9073   -0.6251    0.2917 C   0  0  0  0  0  0  0  0  0  0  0  0
   -0.4231   -1.3146    0.4288 C   0  0  0  0  0  0  0  0  0  0  0  0
   -0.7703   -2.8096    0.5238 C   0  0  0  0  0  0  0  0  0  0  0  0
   -1.8590   -3.3271    0.6172 O   0  0  0  0  0  0  0  0  0  0  0  0
    0.3192   -3.5973    0.3273 O   0  0  0  0  0  0  0  0  0  0  0  0
    0.9201   -0.9592    0.2980 N   0  0  0  0  0  0  0  0  0  0  0  0
    1.5083    0.3620    0.0970 C   0  0  1  0  0  0  0  0  0  0  0  0
    2.1426    0.5682   -1.3033 C   0  0  1  0  0  0  0  0  0  0  0  0
    2.7225    1.9727   -1.4951 C   0  0  0  0  0  0  0  0  0  0  0  0
    3.9133    2.2344   -1.6410 O   0  0  0  0  0  0  0  0  0  0  0  0
    3.1594   -0.4510   -1.5702 N   0  0  0  0  0  0  0  0  0  0  0  0
    3.1605   -1.3991   -2.5484 C   0  0  0  0  0  0  0  0  0  0  0  0
    4.1102   -2.1845   -2.5896 O   0  0  0  0  0  0  0  0  0  0  0  0
    2.0640   -1.4319   -3.6046 C   0  0  0  0  0  0  0  0  0  0  0  0
    0.7241   -1.8719   -3.1023 C   0  0  0  0  0  0  0  0  0  0  0  0
    0.3357   -3.1466   -2.7435 C   0  0  0  0  0  0  0  0  0  0  0  0
   -1.0294   -3.2057   -2.3587 C   0  0  0  0  0  0  0  0  0  0  0  0
   -1.6268   -1.9702   -2.4043 C   0  0  0  0  0  0  0  0  0  0  0  0
   -0.6157   -0.7934   -3.0977 S   0  0  0  0  0  0  0  0  0  0  0  0
  1  2  1  0
  1 10  1  0
  2  3  1  0
  3  4  1  0
  3  5  2  0
  5  6  1  0
  5  9  1  0
  6  7  2  0
  6  8  1  0
 10  9  1  6
 10 11  1  0
 11 12  1  1
 11 14  1  0
 12 13  2  0
 14 15  1  0
 15 16  2  0
 15 17  1  0
 17 18  1  0
 18 19  2  0
 18 22  1  0
 19 20  1  0
 20 21  2  0
 21 22  1  0
M  END
>  <DRUGBANK_ID>  (1) 
DB04133

>  <SECONDARY_ACCESSION_NUMBERS>  (1) 
EXPT00884

>  <COMMON_NAME>  (1) 
Degraded Cephaloridine

$$$$
