
     RDKit          3D

  9  9  0  0  0  0  0  0  0  0999 V2000
    1.0564   -0.0240   -0.0075 C   0  0  0  0  0  0  0  0  0  0  0  0
    0.5875   -0.7872    1.1957 C   0  0  0  0  0  0  0  0  0  0  0  0
    0.9003   -2.1406    1.3102 C   0  0  0  0  0  0  0  0  0  0  0  0
    0.4703   -2.8703    2.4171 C   0  0  0  0  0  0  0  0  0  0  0  0
   -0.3547   -2.2760    3.3859 C   0  0  0  0  0  0  0  0  0  0  0  0
   -0.9065   -3.1285    4.4944 C   0  0  0  0  0  0  0  0  0  0  0  0
   -0.6958   -0.9183    3.2727 C   0  0  0  0  0  0  0  0  0  0  0  0
   -1.3813   -0.2544    4.3053 N   0  0  0  0  0  0  0  0  0  0  0  0
   -0.1536   -0.1693    2.2159 C   0  0  0  0  0  0  0  0  0  0  0  0
  1  2  1  0
  2  3  2  0
  2  9  1  0
  3  4  1  0
  4  5  2  0
  5  6  1  0
  5  7  1  0
  7  8  1  0
  7  9  2  0
M  END
>  <DRUGBANK_ID>  (1) 
DB02163

>  <SECONDARY_ACCESSION_NUMBERS>  (1) 
EXPT03265

>  <COMMON_NAME>  (1) 
2,5-Xylidine

>  <CAS_NUMBER>  (1) 
95-78-3

>  <UNII>  (1) 
XWK0W8DA04

$$$$
