
     RDKit          3D

 37 40  0  0  0  0  0  0  0  0999 V2000
    1.7135   -2.5446   -0.5618 C   0  0  0  0  0  0  0  0  0  0  0  0
    1.2298   -3.6556    0.4445 C   0  0  0  0  0  0  0  0  0  0  0  0
   -2.5630   -1.5266   -0.1120 C   0  0  0  0  0  0  0  0  0  0  0  0
   -2.1715   -0.2242   -0.7047 C   0  0  0  0  0  0  0  0  0  0  0  0
    0.9089   -1.4624    0.1719 C   0  0  1  0  0  0  0  0  0  0  0  0
    1.9669    2.0170   -0.0050 C   0  0  0  0  0  0  0  0  0  0  0  0
   -1.3987    2.5855   -0.3307 C   0  0  0  0  0  0  0  0  0  0  0  0
    2.5474   -1.6299    1.2190 C   0  0  0  0  0  0  0  0  0  0  0  0
    0.5121    0.0382   -0.0631 C   0  0  1  0  0  0  0  0  0  0  0  0
   -1.5015    0.5815    0.3581 C   0  0  2  0  0  0  0  0  0  0  0  0
   -1.2122    1.9444    0.9136 C   0  0  1  0  0  0  0  0  0  0  0  0
    0.6228    2.5670    0.6009 C   0  0  2  0  0  0  0  0  0  0  0  0
   -3.3809    0.6841    0.1766 C   0  0  0  0  0  0  0  0  0  0  0  0
   -3.0199    2.5915    1.3657 C   0  0  0  0  0  0  0  0  0  0  0  0
   -0.9258   -2.1567   -0.2020 C   0  0  1  0  0  0  0  0  0  0  0  0
   -0.0760   -3.9172   -0.1351 C   0  0  1  0  0  0  0  0  0  0  0  0
   -0.3560   -5.1478   -0.7269 O   0  0  0  0  0  0  0  0  0  0  0  0
   -1.0344   -3.1277    0.8288 C   0  0  1  0  0  0  0  0  0  0  0  0
   -0.8547   -1.8823    1.8992 C   0  0  0  0  0  0  0  0  0  0  0  0
   -0.8090    3.9126   -0.0894 C   0  0  2  0  0  0  0  0  0  0  0  0
   -1.4606    5.0746    0.1820 O   0  0  0  0  0  0  0  0  0  0  0  0
   -1.7053    4.1147    2.6692 C   0  0  0  0  0  0  0  0  0  0  0  0
   -1.9008    5.1813    1.5024 C   0  0  0  0  0  0  0  0  0  0  0  0
   -2.6995    6.0853    1.7205 O   0  0  0  0  0  0  0  0  0  0  0  0
    0.4653    3.5687   -0.7105 C   0  0  0  0  0  0  0  0  0  0  0  0
    1.9862    0.7624    0.6570 C   0  0  2  0  0  0  0  0  0  0  0  0
    0.5806    3.1001   -2.0264 C   0  0  0  0  0  0  0  0  0  0  0  0
   -1.8080    2.5948   -2.6889 O   0  0  0  0  0  0  0  0  0  0  0  0
   -0.6842    3.0536   -2.8677 C   0  0  0  0  0  0  0  0  0  0  0  0
   -0.5458    3.6084   -4.0487 O   0  0  0  0  0  0  0  0  0  0  0  0
    1.8922    2.7741   -2.7751 C   0  0  0  0  0  0  0  0  0  0  0  0
    2.0275    1.5332   -3.6945 C   0  0  0  0  0  0  0  0  0  0  0  0
    1.0207    1.5810   -4.7799 C   0  0  0  0  0  0  0  0  0  0  0  0
    0.1380    2.4552   -6.9055 C   0  0  0  0  0  0  0  0  0  0  0  0
    1.2652    2.0940   -5.9912 C   0  0  0  0  0  0  0  0  0  0  0  0
    2.6758    2.2970   -6.4343 C   0  0  0  0  0  0  0  0  0  0  0  0
    2.0182    0.8544    2.0521 O   0  0  0  0  0  0  0  0  0  0  0  0
  2  1  1  0
  3  4  1  0
  5 15  1  0
  5  1  1  0
  5  8  1  1
  9 26  1  1
  9  5  1  0
 10  9  1  0
 10  4  1  0
 10 13  1  6
 11 12  1  0
 11 10  1  0
 11  7  1  0
 11 14  1  1
 12 25  1  0
 12  6  1  6
 15 18  1  0
 15  3  1  1
 16 18  1  0
 16  2  1  0
 16 17  1  1
 18 19  1  1
 20 25  1  0
 20  7  1  0
 20 21  1  6
 21 23  1  0
 23 22  1  0
 23 24  2  0
 25 27  2  0
 26  6  1  0
 26 37  1  1
 27 31  1  0
 27 29  1  0
 29 28  2  0
 29 30  1  0
 31 32  1  0
 32 33  1  0
 33 35  2  3
 35 34  1  0
 35 36  1  0
M  END
>  <DRUGBANK_ID>  (1) 
DB02703

>  <SECONDARY_ACCESSION_NUMBERS>  (1) 
EXPT01507

>  <COMMON_NAME>  (1) 
Fusidic acid

>  <CAS_NUMBER>  (1) 
6990-06-3

>  <UNII>  (1) 
59XE10C19C

>  <SYNONYMS>  (1) 
Acide fusidique; Acido fusidico; Acidum fusidicum; Fucidate; Fucidin acid; Fusidate; Fusidic acid; Fusidine; Ramycin

$$$$
