
     RDKit          3D

  6  5  0  0  0  0  0  0  0  0999 V2000
    1.0700    0.0119   -0.1000 N   0  0  0  0  0  0  0  0  0  0  0  0
    0.3347    1.0804   -0.5618 C   0  0  0  0  0  0  0  0  0  0  0  0
   -0.8881    1.0314   -0.5406 O   0  0  0  0  0  0  0  0  0  0  0  0
    1.0847    2.3396   -1.1061 C   0  0  0  0  0  0  0  0  0  0  0  0
    2.4256    2.2868   -1.0832 O   0  0  0  0  0  0  0  0  0  0  0  0
    0.4785    3.3108   -1.5258 O   0  0  0  0  0  0  0  0  0  0  0  0
  1  2  1  0
  2  3  2  0
  2  4  1  0
  4  5  1  0
  4  6  2  0
M  END
>  <DRUGBANK_ID>  (1) 
DB03940

>  <SECONDARY_ACCESSION_NUMBERS>  (1) 
EXPT02460

>  <COMMON_NAME>  (1) 
Oxamic Acid

>  <CAS_NUMBER>  (1) 
471-47-6

>  <UNII>  (1) 
QU60N5OPLG

$$$$
