ALZ
     RDKit          3D

 24 25  0  0  0  0  0  0  0  0999 V2000
    1.1066    0.0348   -0.0535 N   0  0  0  0  0  0  0  0  0  0  0  0
    0.6541   -0.8067   -1.1513 C   0  0  0  0  0  0  0  0  0  0  0  0
    1.1422   -2.2453   -0.9641 C   0  0  0  0  0  0  0  0  0  0  0  0
    0.5667   -2.9224    0.2922 C   0  0  0  0  0  0  0  0  0  0  0  0
   -0.9710   -2.9330    0.3935 C   0  0  0  0  0  0  0  0  0  0  0  0
   -1.5489   -3.8452   -0.5862 N   0  0  0  0  0  0  0  0  0  0  0  0
   -2.9045   -3.6141   -0.8037 N   0  0  0  0  0  0  0  0  0  0  0  0
   -3.5341   -3.2445   -1.9688 C   0  0  0  0  0  0  0  0  0  0  0  0
   -4.7662   -3.3969   -1.9963 O   0  0  0  0  0  0  0  0  0  0  0  0
   -2.8370   -2.5310   -3.1636 C   0  0  1  0  0  0  0  0  0  0  0  0
   -2.6744   -1.0772   -3.0947 N   0  0  0  0  0  0  0  0  0  0  0  0
   -1.4165   -2.9525   -3.5220 C   0  0  0  0  0  0  0  0  0  0  0  0
   -0.8648   -1.8880   -4.4450 C   0  0  0  0  0  0  0  0  0  0  0  0
   -1.6180   -0.6311   -4.0023 C   0  0  0  0  0  0  0  0  0  0  0  0
   -3.4902   -0.1603   -2.4480 C   0  0  0  0  0  0  0  0  0  0  0  0
   -3.3363    1.0432   -2.5420 O   0  0  0  0  0  0  0  0  0  0  0  0
   -4.4312   -0.7490   -1.6635 O   0  0  0  0  0  0  0  0  0  0  0  0
   -5.3020    0.0963   -0.8956 C   0  0  0  0  0  0  0  0  0  0  0  0
   -4.6015    0.8544    0.2045 C   0  0  0  0  0  0  0  0  0  0  0  0
   -4.7285    2.2489    0.2591 C   0  0  0  0  0  0  0  0  0  0  0  0
   -4.1545    2.9734    1.3002 C   0  0  0  0  0  0  0  0  0  0  0  0
   -3.4663    2.3068    2.3105 C   0  0  0  0  0  0  0  0  0  0  0  0
   -3.3459    0.9172    2.2754 C   0  0  0  0  0  0  0  0  0  0  0  0
   -3.8735    0.1948    1.2031 C   0  0  0  0  0  0  0  0  0  0  0  0
  1  2  1  0
  2  3  1  0
  3  4  1  0
  4  5  1  0
  5  6  1  0
  6  7  1  0
  7  8  1  0
  8  9  2  0
 10  8  1  1
 10 11  1  0
 10 12  1  0
 11 14  1  0
 11 15  1  0
 12 13  1  0
 13 14  1  0
 15 16  2  0
 15 17  1  0
 17 18  1  0
 18 19  1  0
 19 20  2  0
 19 24  1  0
 20 21  1  0
 21 22  2  0
 22 23  1  0
 23 24  2  0
M  END
>  <DRUGBANK_ID>  (1) 
DB07366

>  <COMMON_NAME>  (1) 
2-[N'-(4-AMINO-BUTYL)-HYDRAZINOCARBONYL]-PYRROLIDINE-1-CARBOXYLIC ACID BENZYL ESTER

$$$$
