
     RDKit          3D

 28 29  0  0  0  0  0  0  0  0999 V2000
   -4.4549   -3.7873    0.1365 C   0  0  0  0  0  0  0  0  0  0  0  0
   -2.7904   -7.3726   -3.3624 C   0  0  0  0  0  0  0  0  0  0  0  0
   -5.0845   -2.5544    0.0748 C   0  0  0  0  0  0  0  0  0  0  0  0
   -2.3470   -8.6829   -3.4341 C   0  0  0  0  0  0  0  0  0  0  0  0
   -3.0796   -3.8021    0.1576 C   0  0  0  0  0  0  0  0  0  0  0  0
   -1.9736   -6.4269   -2.7564 C   0  0  0  0  0  0  0  0  0  0  0  0
   -4.3368   -1.3386    0.0361 C   0  0  0  0  0  0  0  0  0  0  0  0
   -1.0943   -9.0319   -2.9057 C   0  0  0  0  0  0  0  0  0  0  0  0
    3.3067   -2.6072    0.8647 C   0  0  0  0  0  0  0  0  0  0  0  0
    1.9225   -2.6837    0.9549 C   0  0  0  0  0  0  0  0  0  0  0  0
    3.2605   -4.3046   -0.8621 C   0  0  0  0  0  0  0  0  0  0  0  0
   -0.9159   -2.7030    0.0864 C   0  0  0  0  0  0  0  0  0  0  0  0
    0.0175   -5.7269   -1.5252 C   0  0  0  0  0  0  0  0  0  0  0  0
    3.9925   -3.4708    0.0038 C   0  0  0  0  0  0  0  0  0  0  0  0
   -2.3636   -2.5936    0.1263 C   0  0  0  0  0  0  0  0  0  0  0  0
   -0.6924   -6.7888   -2.2753 C   0  0  0  0  0  0  0  0  0  0  0  0
    1.1946   -3.5876    0.1640 C   0  0  0  0  0  0  0  0  0  0  0  0
    1.8520   -4.3916   -0.7973 C   0  0  0  0  0  0  0  0  0  0  0  0
   -2.9193   -1.2782    0.0583 C   0  0  0  0  0  0  0  0  0  0  0  0
   -0.2100   -8.1153   -2.2983 C   0  0  0  0  0  0  0  0  0  0  0  0
    5.4746   -3.5836    0.0785 C   0  0  0  0  0  0  0  0  0  0  0  0
   -0.1827   -3.6891    0.4302 N   0  0  0  0  0  0  0  0  0  0  0  0
    1.2350   -5.3051   -1.6830 N   0  0  0  0  0  0  0  0  0  0  0  0
   -2.2397   -0.1848    0.0265 O   0  0  0  0  0  0  0  0  0  0  0  0
    0.8934   -8.5047   -1.7891 O   0  0  0  0  0  0  0  0  0  0  0  0
    6.1843   -4.3273   -0.5854 O   0  0  0  0  0  0  0  0  0  0  0  0
    6.0097   -2.7643    1.0050 O   0  0  0  0  0  0  0  0  0  0  0  0
   -0.4682    0.2916   -0.0720 Fe  0  0  0  0  0 15  0  0  0  0  0  0
  3  1  2  0
  4  2  2  0
  5  1  1  0
  6  2  1  0
  7  3  1  0
  8  4  1  0
 10  9  2  0
 14  9  1  0
 14 11  2  0
 15  5  2  0
 15 12  1  0
 16  6  2  0
 16 13  1  0
 17 10  1  0
 18 11  1  0
 18 17  2  0
 19  7  2  0
 19 15  1  0
 20  8  2  0
 20 16  1  0
 21 14  1  0
 22 12  2  0
 22 17  1  0
 23 13  2  0
 23 18  1  0
 24 19  1  0
 25 20  1  0
 26 21  2  0
 27 21  1  0
M  CHG  3  24  -1  25  -1  28   4
M  END
>  <DRUGBANK_ID>  (1) 
DB04810

>  <COMMON_NAME>  (1) 
Salophen-10-carboxylate iron chelate

$$$$
