1223
     RDKit          3D

 30 31  0  0  0  0  0  0  0  0999 V2000
    0.3450   -2.7030   -0.0290 O   0  0  0  0  0  0  0  0  0  0  0  0
    0.3450   -2.7030   -0.0290 O   0  0  0  0  0  0  0  0  0  0  0  0
    2.4640    1.3770   -0.0170 O   0  0  0  0  0  0  0  0  0  0  0  0
    2.4640    1.3770   -0.0170 O   0  0  0  0  0  0  0  0  0  0  0  0
    0.2000    1.3930   -0.0170 N   0  0  0  0  0  0  0  0  0  0  0  0
    0.2000    1.3930   -0.0170 N   0  0  0  0  0  0  0  0  0  0  0  0
    1.3960   -0.6460   -0.0070 N   0  0  0  0  0  0  0  0  0  0  0  0
    1.3960   -0.6460   -0.0070 N   0  0  0  0  0  0  0  0  0  0  0  0
   -2.2820   -1.0890    0.0000 N   0  0  0  0  0  0  0  0  0  0  0  0
   -2.2820   -1.0890    0.0000 N   0  0  0  0  0  0  0  0  0  0  0  0
   -2.2190    1.1460    0.0100 N   0  0  0  0  0  0  0  0  0  0  0  0
   -2.2190    1.1460    0.0100 N   0  0  0  0  0  0  0  0  0  0  0  0
    1.0089   -0.4009    3.0088 N   0  0  0  0  0  0  0  0  0  0  0  0
    2.0478    2.9106    2.4277 N   0  0  0  0  0  0  0  0  0  0  0  0
   -0.9620    0.6520    0.0010 C   0  0  0  0  0  0  0  0  0  0  0  0
   -0.9620    0.6520    0.0010 C   0  0  0  0  0  0  0  0  0  0  0  0
   -0.9450   -0.7190    0.0000 C   0  0  0  0  0  0  0  0  0  0  0  0
   -0.9450   -0.7190    0.0000 C   0  0  0  0  0  0  0  0  0  0  0  0
    0.2540   -1.4700   -0.0120 C   0  0  0  0  0  0  0  0  0  0  0  0
    0.2540   -1.4700   -0.0120 C   0  0  0  0  0  0  0  0  0  0  0  0
    1.4060    0.7490   -0.0050 C   0  0  0  0  0  0  0  0  0  0  0  0
    1.4060    0.7490   -0.0050 C   0  0  0  0  0  0  0  0  0  0  0  0
    0.1660    2.8590    0.0040 C   0  0  0  0  0  0  0  0  0  0  0  0
    0.1660    2.8590    0.0040 C   0  0  0  0  0  0  0  0  0  0  0  0
    2.7120   -1.2990    0.0680 C   0  0  0  0  0  0  0  0  0  0  0  0
    2.7120   -1.2990    0.0680 C   0  0  0  0  0  0  0  0  0  0  0  0
   -2.9840    0.0560    0.0210 C   0  0  0  0  0  0  0  0  0  0  0  0
   -2.9840    0.0560    0.0210 C   0  0  0  0  0  0  0  0  0  0  0  0
    0.4532    0.8977    3.3626 C   0  0  0  0  0  0  0  0  0  0  0  0
    1.4657    2.0704    3.4469 C   0  0  0  0  0  0  0  0  0  0  0  0
  1 19  2  0
  2 20  2  0
  3 21  2  0
  4 22  2  0
  5 15  1  0
  5 21  1  0
  5 23  1  0
  6 16  1  0
  6 22  1  0
  6 24  1  0
  7 19  1  0
  7 21  1  0
  7 25  1  0
  8 20  1  0
  8 22  1  0
  8 26  1  0
  9 17  1  0
  9 27  1  0
 10 18  1  0
 10 28  1  0
 11 15  1  0
 11 27  2  0
 12 16  1  0
 12 28  2  0
 13 29  1  0
 14 30  1  0
 15 17  2  0
 16 18  2  0
 17 19  1  0
 18 20  1  0
 29 30  1  0
M  END
>  <DRUGBANK_ID>  (1) 
DB01223

>  <SECONDARY_ACCESSION_NUMBERS>  (1) 
APRD00329

>  <COMMON_NAME>  (1) 
Aminophylline

>  <CAS_NUMBER>  (1) 
317-34-0

>  <UNII>  (1) 
27Y3KJK423

>  <SYNONYMS>  (1) 
Aminofilina; Aminophyllin; Aminophylline; Aminophyllinum; Theophyline ethylenediamine; Theophylline ethylenediamine

$$$$
