F1G
     RDKit          3D

 19 20  0  0  0  0  0  0  0  0999 V2000
    0.9593   -0.0572    0.0604 F   0  0  0  0  0  0  0  0  0  0  0  0
    2.3171   -0.1573    0.1355 C   0  0  0  0  0  0  0  0  0  0  0  0
    2.7626   -0.2495   -1.1493 F   0  0  0  0  0  0  0  0  0  0  0  0
    2.7617    1.0358    0.6109 F   0  0  0  0  0  0  0  0  0  0  0  0
    2.7448   -1.3284    0.9793 C   0  0  0  0  0  0  0  0  0  0  0  0
    3.4880   -1.3857    2.1872 C   0  0  0  0  0  0  0  0  0  0  0  0
    3.4927   -2.6757    2.4737 C   0  0  0  0  0  0  0  0  0  0  0  0
    2.8366   -3.4023    1.5802 N   0  0  0  0  0  0  0  0  0  0  0  0
    2.6824   -4.8328    1.7281 C   0  0  0  0  0  0  0  0  0  0  0  0
    2.3545   -2.6083    0.6041 N   0  0  0  0  0  0  0  0  0  0  0  0
    4.2580   -3.1279    3.8016 S   0  0  0  0  0  0  0  0  0  0  0  0
    4.1977   -0.6514    3.1954 C   0  0  0  0  0  0  0  0  0  0  0  0
    4.6745   -1.5384    4.2134 C   0  0  0  0  0  0  0  0  0  0  0  0
    5.4290   -1.3598    5.4710 C   0  0  0  0  0  0  0  0  0  0  0  0
    5.8242   -0.2660    5.8451 O   0  0  0  0  0  0  0  0  0  0  0  0
    5.7396   -2.4440    6.3204 N   0  0  0  0  0  0  0  0  0  0  0  0
    5.4881   -3.9101    6.3308 C   0  0  0  0  0  0  0  0  0  0  0  0
    6.7241   -4.7635    6.0710 C   0  0  0  0  0  0  0  0  0  0  0  0
    7.7142   -4.8839    7.5760 S   0  0  0  0  0  0  0  0  0  0  0  0
  1  2  1  0
  2  3  1  0
  2  4  1  0
  2  5  1  0
  5  6  1  0
  5 10  2  0
  6  7  2  0
  6 12  1  0
  7  8  1  0
  7 11  1  0
  8  9  1  0
  8 10  1  0
 11 13  1  0
 12 13  2  0
 13 14  1  0
 14 15  2  0
 14 16  1  0
 16 17  1  0
 17 18  1  0
 18 19  1  0
M  END
>  <DRUGBANK_ID>  (1) 
DB07733

>  <COMMON_NAME>  (1) 
1-METHYL-3-TRIFLUOROMETHYL-1H-THIENO[2,3-C]PYRAZOLE-5-CARBOXYLIC ACID (2-MERCAPTO-ETHYL)-AMIDE

$$$$
