
     RDKit          3D

 37 39  0  0  1  0  0  0  0  0999 V2000
   -0.2622    0.8762    9.2850 C   0  0  0  0  0  0  0  0  0  0  0  0
   -1.4143   -2.0919    7.0934 C   0  0  0  0  0  0  0  0  0  0  0  0
    3.3305    1.1489    6.1428 C   0  0  0  0  0  0  0  0  0  0  0  0
    0.6871    3.6777    6.7902 C   0  0  0  0  0  0  0  0  0  0  0  0
   -3.6985    3.8351    5.0432 C   0  0  0  0  0  0  0  0  0  0  0  0
   -1.0056    2.4628    4.3658 C   0  0  0  0  0  0  0  0  0  0  0  0
    2.5005    3.7336   -2.0979 C   0  0  0  0  0  0  0  0  0  0  0  0
    3.3875    4.5329   -1.3735 C   0  0  0  0  0  0  0  0  0  0  0  0
    1.5184    3.0205   -1.4268 C   0  0  0  0  0  0  0  0  0  0  0  0
    0.6173    5.5048    3.3119 C   0  0  0  0  0  0  0  0  0  0  0  0
    0.6192    6.4023    4.5260 C   0  0  0  0  0  0  0  0  0  0  0  0
    3.3364    4.5792    0.0314 C   0  0  0  0  0  0  0  0  0  0  0  0
    1.4341    3.1131   -0.0368 C   0  0  0  0  0  0  0  0  0  0  0  0
    2.0300    5.3527    2.7472 C   0  0  0  0  0  0  0  0  0  0  0  0
   -0.7132    6.4761    5.2700 C   0  0  0  0  0  0  0  0  0  0  0  0
   -2.0150    2.0892    7.5381 C   0  0  0  0  0  0  0  0  0  0  0  0
   -2.0070    3.4394    7.8138 C   0  0  0  0  0  0  0  0  0  0  0  0
   -1.1388    0.8090    8.0146 C   0  0  1  0  0  0  0  0  0  0  0  0
   -0.9265   -1.0925    6.0364 C   0  0  1  0  0  0  0  0  0  0  0  0
    2.6706    0.9831    4.7446 C   0  0  2  0  0  0  0  0  0  0  0  0
    2.3823    3.8327    0.7329 C   0  0  0  0  0  0  0  0  0  0  0  0
    2.1691    3.8989    2.2562 C   0  0  1  0  0  0  0  0  0  0  0  0
   -0.8109    5.6725    6.6478 C   0  0  1  0  0  0  0  0  0  0  0  0
   -2.0117    4.5984    6.6332 C   0  0  2  0  0  0  0  0  0  0  0  0
   -1.3145   -0.1445    4.9026 C   0  0  1  0  0  0  0  0  0  0  0  0
   -0.1723   -0.1165    6.9682 C   0  0  1  0  0  0  0  0  0  0  0  0
    0.0796    0.4319    4.2198 C   0  0  2  0  0  0  0  0  0  0  0  0
    2.5109    1.8303    3.4009 C   0  0  0  0  0  0  0  0  0  0  0  0
    1.3253    0.1691    5.0711 C   0  0  1  0  0  0  0  0  0  0  0  0
   -2.1327   -0.5687    3.8209 O   0  0  0  0  0  0  0  0  0  0  0  0
    2.0105    1.2861    2.4436 O   0  0  0  0  0  0  0  0  0  0  0  0
    1.6623   -1.2140    5.1277 O   0  0  0  0  0  0  0  0  0  0  0  0
    0.4491    5.0513    7.0873 O   0  0  0  0  0  0  0  0  0  0  0  0
   -3.1613    4.9171    5.8182 O   0  0  0  0  0  0  0  0  0  0  0  0
    0.1622    1.8488    4.0625 O   0  0  0  0  0  0  0  0  0  0  0  0
    2.9344    3.1350    3.2895 O   0  0  0  0  0  0  0  0  0  0  0  0
    0.8437    0.6458    6.3561 O   0  0  0  0  0  0  0  0  0  0  0  0
  8  7  2  0
  9  7  1  0
 11 10  1  0
 12  8  1  0
 13  9  2  0
 14 10  1  0
 15 11  1  0
 17 16  2  0
 18 16  1  0
 18  1  1  1
 19  2  1  1
 20  3  1  1
 21 12  2  0
 21 13  1  0
 22 14  1  0
 22 21  1  6
 23 15  1  0
 23 33  1  6
 24 17  1  0
 24 23  1  0
 24 34  1  1
 25 19  1  0
 25 30  1  6
 26 18  1  0
 26 19  1  0
 27 25  1  0
 27 35  1  1
 28 20  1  0
 29 20  1  0
 29 27  1  0
 29 32  1  1
 31 28  2  0
 33  4  1  0
 34  5  1  0
 35  6  1  0
 36 22  1  0
 36 28  1  0
 26 37  1  6
 37 29  1  0
M  END
>  <DRUGBANK_ID>  (1) 
DB02859

>  <SECONDARY_ACCESSION_NUMBERS>  (1) 
EXPT02829

>  <COMMON_NAME>  (1) 
Soraphen A

>  <CAS_NUMBER>  (1) 
122547-72-2

$$$$
