C4H
     RDKit          3D

 27 28  0  0  0  0  0  0  0  0999 V2000
   -0.0578   -0.7162   -0.0197 C   0  0  0  0  0  0  0  0  0  0  0  0
   -1.3983   -1.2198   -0.0664 C   0  0  0  0  0  0  0  0  0  0  0  0
    1.1906   -1.5020   -0.0101 C   0  0  0  0  0  0  0  0  0  0  0  0
    1.2896   -2.9012    0.0295 N   0  0  0  0  0  0  0  0  0  0  0  0
    0.2163   -3.8664    0.1279 C   0  0  0  0  0  0  0  0  0  0  0  0
    2.6043   -3.5587    0.0281 C   0  0  0  0  0  0  0  0  0  0  0  0
    2.4146   -0.7776   -0.0364 C   0  0  0  0  0  0  0  0  0  0  0  0
    2.4721    0.5954   -0.0135 C   0  0  0  0  0  0  0  0  0  0  0  0
    1.2920    1.3014    0.0411 C   0  0  0  0  0  0  0  0  0  0  0  0
    0.0028    0.7097    0.0111 C   0  0  0  0  0  0  0  0  0  0  0  0
   -1.2324    1.4627    0.0066 C   0  0  0  0  0  0  0  0  0  0  0  0
   -2.4984    0.8723   -0.0157 C   0  0  0  0  0  0  0  0  0  0  0  0
   -2.5777   -0.4844   -0.0362 C   0  0  0  0  0  0  0  0  0  0  0  0
   -1.2851    3.2217    0.1310 S   0  0  0  0  0  0  0  0  0  0  0  0
   -2.0809    3.7294   -1.2907 N   0  0  0  0  0  0  0  0  0  0  0  0
   -2.1789    5.2142   -1.3684 C   0  0  0  0  0  0  0  0  0  0  0  0
   -0.8039    5.8427   -1.4761 C   0  0  0  0  0  0  0  0  0  0  0  0
   -0.0895    5.2492   -2.6689 C   0  0  0  0  0  0  0  0  0  0  0  0
   -0.7683    5.7057   -3.9786 C   0  0  0  0  0  0  0  0  0  0  0  0
   -0.5941    7.1297   -4.1594 N   0  0  0  0  0  0  0  0  0  0  0  0
    0.0808    7.7898   -5.1374 C   0  0  0  0  0  0  0  0  0  0  0  0
    0.0778    9.0214   -5.1131 O   0  0  0  0  0  0  0  0  0  0  0  0
    0.7650    7.0185   -6.2565 C   0  0  0  0  0  0  0  0  0  0  0  0
    2.0925    6.3223   -5.9560 C   0  0  0  0  0  0  0  0  0  0  0  0
    2.1537    4.9219   -4.8617 S   0  0  0  0  0  0  0  0  0  0  0  0
   -2.1598    3.5820    1.2374 O   0  0  0  0  0  0  0  0  0  0  0  0
    0.0428    3.7409    0.0514 O   0  0  0  0  0  0  0  0  0  0  0  0
  1  2  2  0
  1  3  1  0
  1 10  1  0
  2 13  1  0
  3  4  1  0
  3  7  2  0
  4  5  1  0
  4  6  1  0
  7  8  1  0
  8  9  2  0
  9 10  1  0
 10 11  2  0
 11 12  1  0
 11 14  1  0
 12 13  2  0
 14 15  1  0
 14 26  2  0
 14 27  2  0
 15 16  1  0
 16 17  1  0
 17 18  1  0
 18 19  1  0
 19 20  1  0
 20 21  1  0
 21 22  2  0
 21 23  1  0
 23 24  1  0
 24 25  1  0
M  END
>  <DRUGBANK_ID>  (1) 
DB07526

>  <COMMON_NAME>  (1) 
N-[4-({[5-(DIMETHYLAMINO)-1-NAPHTHYL]SULFONYL}AMINO)BUTYL]-3-SULFANYLPROPANAMIDE

$$$$
