
     RDKit          3D

 23 27  0  0  0  0  0  0  0  0999 V2000
    1.2703   -0.3079    0.0368 C   0  0  1  0  0  0  0  0  0  0  0  0
    0.9838   -1.6435    1.1944 C   0  0  0  0  0  0  0  0  0  0  0  0
    0.4455   -1.0493   -1.1413 N   0  0  0  0  0  0  0  0  0  0  0  0
    0.4058   -2.7182    0.5145 N   0  0  0  0  0  0  0  0  0  0  0  0
    0.9394   -1.5174    2.4176 O   0  0  0  0  0  0  0  0  0  0  0  0
   -0.8451   -3.3927    0.8407 C   0  0  2  0  0  0  0  0  0  0  0  0
   -1.1113   -4.3125   -0.3649 C   0  0  2  0  0  0  0  0  0  0  0  0
   -0.0899   -3.9515   -1.4177 C   0  0  0  0  0  0  0  0  0  0  0  0
    1.0945   -3.3677   -0.6301 C   0  0  1  0  0  0  0  0  0  0  0  0
    2.0779   -2.6644   -1.5301 C   0  0  0  0  0  0  0  0  0  0  0  0
    2.6317   -1.9273   -2.2507 N   0  0  0  0  0  0  0  0  0  0  0  0
   -2.1914   -3.3920    0.1262 C   0  0  0  0  0  0  0  0  0  0  0  0
    0.5588    1.6719    0.5642 C   0  0  1  0  0  0  0  0  0  0  0  0
   -0.7394    2.5578   -0.5165 C   0  0  0  0  0  0  0  0  0  0  0  0
   -0.0382    2.5069   -1.7519 C   0  0  1  0  0  0  0  0  0  0  0  0
    1.3262    1.6416    0.3242 C   0  0  1  0  0  0  0  0  0  0  0  0
    1.1679    2.9430   -1.1236 C   0  0  0  0  0  0  0  0  0  0  0  0
   -0.9282    0.5607   -0.0158 C   0  0  1  0  0  0  0  0  0  0  0  0
   -0.5115    1.5080    1.5591 C   0  0  0  0  0  0  0  0  0  0  0  0
    1.5091    2.3590    1.5562 C   0  0  0  0  0  0  0  0  0  0  0  0
    0.0888    1.0678   -1.6672 C   0  0  0  0  0  0  0  0  0  0  0  0
   -0.1721    0.1423    1.1478 C   0  0  0  0  0  0  0  0  0  0  0  0
    2.9106    1.9360   -0.0061 O   0  0  0  0  0  0  0  0  0  0  0  0
  1  3  1  6
  1  2  1  0
  1 13  1  0
  2  4  1  0
  2  5  2  0
  4  6  1  0
  4  9  1  0
  6  7  1  0
  7  8  1  6
  7 12  1  0
  8  9  1  0
  9 10  1  6
 10 11  3  0
  6 12  1  6
 13 14  1  6
 13 20  1  0
 13 19  1  0
 15 14  1  1
 15 17  1  0
 16 20  1  0
 16 17  1  0
 16 23  1  6
 18 19  1  1
 21 18  1  0
 21 15  1  0
 22 16  1  0
 22 18  1  0
M  END
>  <DRUGBANK_ID>  (1) 
DB06335

>  <COMMON_NAME>  (1) 
Saxagliptin

>  <CAS_NUMBER>  (1) 
361442-04-8

>  <UNII>  (1) 
8I7IO46IVQ

>  <SYNONYMS>  (1) 
(1S,3S,5S)-2-((2S)-Amino(3-hydroxytricyclo(3.3.1.13,7)dec-1-yl)acetyl)-2-azabicyclo(3.1.0)hexane-3-carbonitrile; Saxagliptin; Saxagliptin anhydrous; Saxagliptina

$$$$
