GNF
     RDKit          3D

 32 35  0  0  0  0  0  0  0  0999 V2000
    1.0966   -0.0633   -0.0930 O   0  0  0  0  0  0  0  0  0  0  0  0
    2.3337   -0.0433   -0.1168 C   0  0  0  0  0  0  0  0  0  0  0  0
    3.1656   -0.6720    1.0397 C   0  0  1  0  0  0  0  0  0  0  0  0
    4.0227   -1.7804    0.5728 N   0  0  0  0  0  0  0  0  0  0  0  0
    5.3693   -1.7390    0.6218 C   0  0  0  0  0  0  0  0  0  0  0  0
    5.9610   -1.4552    1.8266 O   0  0  0  0  0  0  0  0  0  0  0  0
    7.2984   -1.4734    1.5720 C   0  0  0  0  0  0  0  0  0  0  0  0
    8.3418   -1.2216    2.4594 C   0  0  0  0  0  0  0  0  0  0  0  0
    9.6317   -1.3330    1.9242 C   0  0  0  0  0  0  0  0  0  0  0  0
    9.8326   -1.6639    0.5779 C   0  0  0  0  0  0  0  0  0  0  0  0
    8.7477   -1.8976   -0.2836 C   0  0  0  0  0  0  0  0  0  0  0  0
    7.4516   -1.8015    0.2371 C   0  0  0  0  0  0  0  0  0  0  0  0
    6.2188   -1.9835   -0.3495 N   0  0  0  0  0  0  0  0  0  0  0  0
    3.9433    0.4217    1.7706 C   0  0  0  0  0  0  0  0  0  0  0  0
    3.0679    1.5213    2.3637 C   0  0  0  0  0  0  0  0  0  0  0  0
    3.7102    2.8769    2.0582 C   0  0  0  0  0  0  0  0  0  0  0  0
    2.9250    4.0051    2.7030 C   0  0  0  0  0  0  0  0  0  0  0  0
    2.7995    3.7887    4.2076 C   0  0  0  0  0  0  0  0  0  0  0  0
    2.1618    2.4402    4.5306 C   0  0  0  0  0  0  0  0  0  0  0  0
    2.9259    1.3009    3.8764 C   0  0  0  0  0  0  0  0  0  0  0  0
    3.0227    0.6067   -1.1138 N   0  0  0  0  0  0  0  0  0  0  0  0
    2.3395    1.3117   -2.1984 C   0  0  0  0  0  0  0  0  0  0  0  0
    2.7318    2.7934   -2.2790 C   0  0  0  0  0  0  0  0  0  0  0  0
    4.1433    2.8802   -2.6308 N   0  0  0  0  0  0  0  0  0  0  0  0
    4.5711    3.6779   -3.6738 C   0  0  0  0  0  0  0  0  0  0  0  0
    3.9813    4.9101   -3.9540 C   0  0  0  0  0  0  0  0  0  0  0  0
    4.3688    5.6653   -5.0617 C   0  0  0  0  0  0  0  0  0  0  0  0
    5.5933    3.2310   -4.5156 C   0  0  0  0  0  0  0  0  0  0  0  0
    6.0051    3.9980   -5.6142 C   0  0  0  0  0  0  0  0  0  0  0  0
    5.3657    5.2020   -5.9152 C   0  0  0  0  0  0  0  0  0  0  0  0
    5.7726    5.8315   -7.0609 O   0  0  0  0  0  0  0  0  0  0  0  0
    5.0261    6.9878   -7.4351 C   0  0  0  0  0  0  0  0  0  0  0  0
  1  2  2  0
  2  3  1  0
  2 21  1  0
  3  4  1  0
  3 14  1  6
  4  5  1  0
  5  6  1  0
  5 13  2  0
  6  7  1  0
  7  8  2  0
  7 12  1  0
  8  9  1  0
  9 10  2  0
 10 11  1  0
 11 12  2  0
 12 13  1  0
 14 15  1  0
 15 16  1  0
 15 20  1  0
 16 17  1  0
 17 18  1  0
 18 19  1  0
 19 20  1  0
 21 22  1  0
 22 23  1  0
 23 24  1  0
 24 25  1  0
 25 26  2  0
 25 28  1  0
 26 27  1  0
 27 30  2  0
 28 29  2  0
 29 30  1  0
 30 31  1  0
 31 32  1  0
M  END
>  <DRUGBANK_ID>  (1) 
DB07839

>  <COMMON_NAME>  (1) 
N~2~-1,3-BENZOXAZOL-2-YL-3-CYCLOHEXYL-N-{2-[(4-METHOXYPHENYL)AMINO]ETHYL}-L-ALANINAMIDE

$$$$
