
     RDKit          3D

 28 31  0  0  0  0  0  0  0  0999 V2000
    1.0458   -0.6388    0.0306 C   0  0  0  0  0  0  0  0  0  0  0  0
   -0.2720   -1.0315    0.0102 N   0  0  0  0  0  0  0  0  0  0  0  0
   -1.1784   -0.0081    0.0046 N   0  0  0  0  0  0  0  0  0  0  0  0
   -0.4149    1.0867    0.0987 C   0  0  0  0  0  0  0  0  0  0  0  0
    0.9953    0.7355    0.0959 C   0  0  0  0  0  0  0  0  0  0  0  0
    2.2055   -1.5271    0.0283 C   0  0  0  0  0  0  0  0  0  0  0  0
    2.1755    1.6055    0.0397 C   0  0  0  0  0  0  0  0  0  0  0  0
   -0.8020    2.5450    0.0263 C   0  0  0  0  0  0  0  0  0  0  0  0
    3.1603   -1.4187    1.0541 C   0  0  0  0  0  0  0  0  0  0  0  0
    4.3266   -2.1869    1.0310 C   0  0  0  0  0  0  0  0  0  0  0  0
    4.5489   -3.0647   -0.0251 C   0  0  0  0  0  0  0  0  0  0  0  0
    3.6155   -3.1778   -1.0555 C   0  0  0  0  0  0  0  0  0  0  0  0
    2.4466   -2.4066   -1.0322 C   0  0  0  0  0  0  0  0  0  0  0  0
    2.3085    2.4969    1.0431 N   0  0  0  0  0  0  0  0  0  0  0  0
    3.3629    3.3243    0.9571 C   0  0  0  0  0  0  0  0  0  0  0  0
    4.2739    3.3457   -0.0262 N   0  0  0  0  0  0  0  0  0  0  0  0
    4.0948    2.4462   -1.0079 C   0  0  0  0  0  0  0  0  0  0  0  0
    3.0499    1.5519   -1.0317 C   0  0  0  0  0  0  0  0  0  0  0  0
   -0.3004    3.0900   -1.3297 C   0  0  0  0  0  0  0  0  0  0  0  0
    0.3390    4.4465   -1.1344 C   0  0  0  0  0  0  0  0  0  0  0  0
   -0.6433    5.3503   -0.5696 N   0  0  0  0  0  0  0  0  0  0  0  0
   -1.2268    4.8935    0.7033 C   0  0  0  0  0  0  0  0  0  0  0  0
   -1.9093    3.4760    0.5509 C   0  0  0  0  0  0  0  0  0  0  0  0
    5.9880   -4.0061   -0.0633 Cl  0  0  0  0  0  0  0  0  0  0  0  0
   -0.9907    6.4881   -1.2743 C   0  0  0  0  0  0  0  0  0  0  0  0
   -0.4862    6.7672   -2.3772 O   0  0  0  0  0  0  0  0  0  0  0  0
   -2.0377    7.4213   -0.6710 C   0  0  0  0  0  0  0  0  0  0  0  0
   -3.2982    6.8028   -0.4725 O   0  0  0  0  0  0  0  0  0  0  0  0
  1  6  1  0
  1  2  1  0
  1  5  2  0
  2  3  1  0
  4  3  2  0
  4  5  1  0
  4  8  1  0
  5  7  1  0
  6  9  2  0
  7 18  1  0
 10  9  1  0
 10 11  2  0
 11 24  1  0
 11 12  1  0
 12 13  2  0
 13  6  1  0
 14  7  2  0
 14 15  1  0
 15 16  2  0
 17 16  1  0
 17 18  2  0
 19  8  1  0
 19 20  1  0
 20 21  1  0
 22 21  1  0
 22 23  1  0
 23  8  1  0
 25 21  1  0
 25 26  2  0
 25 27  1  0
 27 28  1  0
M  END
>  <DRUGBANK_ID>  (1) 
DB07943

>  <COMMON_NAME>  (1) 
SD-0006

>  <CAS_NUMBER>  (1) 
271576-80-8

>  <UNII>  (1) 
C57VF8YO91

>  <SYNONYMS>  (1) 
2-{4-[5-(4-chlorophenyl)-4-pyrimidin-4-yl-1H-pyrazol-3-yl]piperidin-1-yl}-2-oxoethanol; 5-p-chlorophenyl-3-[N-(2-hydroxyacetyl)piperidin-4-yl]-4-pyrimidin-4-yl-1H-pyrazole

$$$$
