
     RDKit          3D

 33 37  0  0  0  0  0  0  0  0999 V2000
    1.2903    0.8153   -0.5132 C   0  0  2  0  0  0  0  0  0  0  0  0
   -0.0158    1.1650    0.2838 C   0  0  1  0  0  0  0  0  0  0  0  0
   -1.2084    0.6902   -0.5134 C   0  0  0  0  0  0  0  0  0  0  0  0
   -1.1959   -0.6519   -0.4813 C   0  0  0  0  0  0  0  0  0  0  0  0
    0.0006   -1.0729    0.3600 C   0  0  1  0  0  0  0  0  0  0  0  0
    1.2994   -0.7552   -0.4292 C   0  0  2  0  0  0  0  0  0  0  0  0
    5.4089    2.6998   -1.6071 C   0  0  0  0  0  0  0  0  0  0  0  0
    4.6019    1.8842   -0.8787 N   0  0  0  0  0  0  0  0  0  0  0  0
    3.2894    2.2314   -0.7635 C   0  0  0  0  0  0  0  0  0  0  0  0
    2.7883    3.3705   -1.3764 C   0  0  0  0  0  0  0  0  0  0  0  0
    3.6837    4.1619   -2.0367 C   0  0  0  0  0  0  0  0  0  0  0  0
    4.9766    3.8445   -2.1675 N   0  0  0  0  0  0  0  0  0  0  0  0
   10.2804    5.9773   -4.3660 N   0  0  0  0  0  0  0  0  0  0  0  0
   11.5031    6.5038   -3.7460 C   0  0  0  0  0  0  0  0  0  0  0  0
   11.5842    8.0343   -3.9634 C   0  0  0  0  0  0  0  0  0  0  0  0
   11.5341    8.3696   -5.4056 N   0  0  0  0  0  0  0  0  0  0  0  0
   10.2416    7.8771   -5.9439 C   0  0  0  0  0  0  0  0  0  0  0  0
   10.0802    6.3389   -5.7735 C   0  0  0  0  0  0  0  0  0  0  0  0
    9.4783    5.0648   -3.7128 C   0  0  0  0  0  0  0  0  0  0  0  0
    9.2733    3.7672   -4.2129 C   0  0  0  0  0  0  0  0  0  0  0  0
    8.4264    2.8405   -3.5642 C   0  0  0  0  0  0  0  0  0  0  0  0
    7.7211    3.2040   -2.4160 C   0  0  0  0  0  0  0  0  0  0  0  0
    7.9357    4.4905   -1.9090 C   0  0  0  0  0  0  0  0  0  0  0  0
    8.7962    5.4153   -2.5321 C   0  0  0  0  0  0  0  0  0  0  0  0
    8.8766    6.8021   -1.9543 C   0  0  0  0  0  0  0  0  0  0  0  0
   11.6841    9.8044   -5.6143 C   0  0  0  0  0  0  0  0  0  0  0  0
    6.7526    2.3651   -1.8307 N   0  0  0  0  0  0  0  0  0  0  0  0
    1.5138    3.7583   -1.2378 F   0  0  0  0  0  0  0  0  0  0  0  0
    2.4510    1.4932    0.1086 N   0  0  0  0  0  0  0  0  0  0  0  0
    2.5534   -1.3881    0.1524 C   0  0  0  0  0  0  0  0  0  0  0  0
    2.8500   -1.2090    1.4681 N   0  0  0  0  0  0  0  0  0  0  0  0
    3.3614   -1.9995   -0.5536 O   0  0  0  0  0  0  0  0  0  0  0  0
   -0.0550    0.0824    1.3644 C   0  0  0  0  0  0  0  0  0  0  0  0
  1  2  1  0
  1 29  1  1
  1  6  1  0
  2  3  1  6
  2 33  1  0
  3  4  2  0
  5  4  1  6
  5  6  1  0
  5 33  1  0
  6 30  1  1
  7  8  2  0
  8  9  1  0
  9 10  2  0
  9 29  1  0
 10 11  1  0
 10 28  1  0
 11 12  2  0
 12  7  1  0
 13 14  1  0
 13 18  1  0
 14 15  1  0
 15 16  1  0
 16 17  1  0
 16 26  1  0
 17 18  1  0
 19 20  2  0
 19 13  1  0
 20 21  1  0
 21 22  2  0
 22 23  1  0
 22 27  1  0
 23 24  2  0
 24 19  1  0
 24 25  1  0
 27  7  1  0
 30 31  1  0
 30 32  2  0
M  END
>  <DRUGBANK_ID>  (1) 
DB06347

>  <COMMON_NAME>  (1) 
Cenisertib

>  <CAS_NUMBER>  (1) 
871357-89-0

>  <UNII>  (1) 
5277GPA358

>  <SYNONYMS>  (1) 
Cenisertib

$$$$
