655
     RDKit          3D

 20 23  0  0  1  0  0  0  0  0999 V2000
    1.2301    0.7151   -0.2436 O   0  0  0  0  0  0  0  0  0  0  0  0
   -1.4180   -9.4637    2.0805 O   0  0  0  0  0  0  0  0  0  0  0  0
    1.3049   -2.7187   -0.7589 C   0  0  2  0  0  0  0  0  0  0  0  0
    0.7252   -1.6427    0.1845 C   0  0  2  0  0  0  0  0  0  0  0  0
    0.9212   -4.1177   -0.3423 C   0  0  1  0  0  0  0  0  0  0  0  0
   -0.6092   -4.3114   -0.2049 C   0  0  2  0  0  0  0  0  0  0  0  0
   -0.8025   -1.7568    0.1121 C   0  0  0  0  0  0  0  0  0  0  0  0
    2.8020   -2.4461   -0.7297 C   0  0  0  0  0  0  0  0  0  0  0  0
   -1.2415   -3.1583    0.6149 C   0  0  0  0  0  0  0  0  0  0  0  0
    1.4545   -5.1739   -1.3100 C   0  0  0  0  0  0  0  0  0  0  0  0
    1.5323   -0.4670   -0.3663 C   0  0  0  0  0  0  0  0  0  0  0  0
    2.8520   -0.9446   -0.9825 C   0  0  0  0  0  0  0  0  0  0  0  0
    1.1558   -1.7003    1.6666 C   0  0  0  0  0  0  0  0  0  0  0  0
   -0.8407   -5.7127    0.3627 C   0  0  0  0  0  0  0  0  0  0  0  0
    1.4146   -6.5090   -0.5886 C   0  0  0  0  0  0  0  0  0  0  0  0
    0.1264   -6.7346    0.1718 C   0  0  0  0  0  0  0  0  0  0  0  0
   -2.0067   -6.0192    1.0791 C   0  0  0  0  0  0  0  0  0  0  0  0
   -0.0572   -7.9927    0.7634 C   0  0  0  0  0  0  0  0  0  0  0  0
   -2.1839   -7.2797    1.6486 C   0  0  0  0  0  0  0  0  0  0  0  0
   -1.2078   -8.2516    1.4948 C   0  0  0  0  0  0  0  0  0  0  0  0
  1 11  2  0
  2 20  1  0
  3  4  1  0
  3  5  1  0
  3  8  1  1
  4  7  1  0
  4 11  1  0
  4 13  1  1
  5  6  1  0
  5 10  1  6
  6  9  1  1
  6 14  1  0
  7  9  1  0
  8 12  1  0
 10 15  1  0
 11 12  1  0
 14 16  2  0
 14 17  1  0
 15 16  1  0
 16 18  1  0
 17 19  2  0
 18 20  2  0
 19 20  1  0
M  END
>  <DRUGBANK_ID>  (1) 
DB00655

>  <SECONDARY_ACCESSION_NUMBERS>  (1) 
APRD00588

>  <COMMON_NAME>  (1) 
Estrone

>  <CAS_NUMBER>  (1) 
53-16-7

>  <UNII>  (1) 
2DI9HA706A

>  <SYNONYMS>  (1) 
3-Hydroxy-1,3,5(10)-estratrien-17-one; Estrona; Estrone; Estronum; Follicular hormone; Folliculin; Oestrone

$$$$
