
     RDKit          3D

 13 12  0  0  1  0  0  0  0  0999 V2000
   -2.7795   -1.3852   -2.5259 C   0  0  0  0  0  0  0  0  0  0  0  0
   -1.6347   -0.7731   -2.1048 C   0  0  0  0  0  0  0  0  0  0  0  0
   -3.7984   -2.3814   -1.9208 C   0  0  0  0  0  0  0  0  0  0  0  0
   -0.9190   -0.9881   -0.7683 C   0  0  2  0  0  0  0  0  0  0  0  0
   -1.0201    0.3832   -3.0073 C   0  0  0  0  0  0  0  0  0  0  0  0
    0.6636   -0.9924   -0.7185 C   0  0  0  0  0  0  0  0  0  0  0  0
   -4.6186   -2.8675   -2.7549 O   0  0  0  0  0  0  0  0  0  0  0  0
   -3.7839   -2.6078   -0.6750 O   0  0  0  0  0  0  0  0  0  0  0  0
   -1.2977   -2.2510   -0.1693 O   0  0  0  0  0  0  0  0  0  0  0  0
   -1.3685    0.3900   -4.2354 O   0  0  0  0  0  0  0  0  0  0  0  0
   -0.3964    1.3065   -2.3965 O   0  0  0  0  0  0  0  0  0  0  0  0
    1.3218   -1.0774   -1.7998 O   0  0  0  0  0  0  0  0  0  0  0  0
    1.1606   -1.0759    0.4646 O   0  0  0  0  0  0  0  0  0  0  0  0
  2  1  2  0
  3  1  1  0
  4  9  1  6
  4  6  1  0
  4  2  1  0
  5  2  1  0
  7  3  2  0
  8  3  1  0
 10  5  2  0
 11  5  1  0
 12  6  2  0
 13  6  1  0
M  CHG  3   8  -1  11  -1  13  -1
M  END
>  <DRUGBANK_ID>  (1) 
DB03964

>  <SECONDARY_ACCESSION_NUMBERS>  (1) 
EXPT00582

>  <COMMON_NAME>  (1) 
4-Hydroxy-Aconitate Ion

$$$$
