
     RDKit          3D

 34 37  0  0  0  0  0  0  0  0999 V2000
    1.0929    0.1489   -0.0281 C   0  0  0  0  0  0  0  0  0  0  0  0
    0.5908    0.5540   -1.3298 N   0  0  0  0  0  0  0  0  0  0  0  0
   -0.3277   -0.3705   -1.9473 C   0  0  0  0  0  0  0  0  0  0  0  0
   -1.7159    0.1839   -2.0939 C   0  0  0  0  0  0  0  0  0  0  0  0
   -2.8950   -0.4447   -2.4356 C   0  0  0  0  0  0  0  0  0  0  0  0
   -3.0769   -1.9031   -2.5679 C   0  0  0  0  0  0  0  0  0  0  0  0
   -3.8598    0.5874   -2.6348 C   0  0  0  0  0  0  0  0  0  0  0  0
   -5.2169    0.6291   -2.9887 C   0  0  0  0  0  0  0  0  0  0  0  0
   -5.8463    1.8758   -3.1080 C   0  0  0  0  0  0  0  0  0  0  0  0
   -5.1293    3.0654   -2.9530 C   0  0  0  0  0  0  0  0  0  0  0  0
   -3.7669    3.0494   -2.6340 C   0  0  0  0  0  0  0  0  0  0  0  0
   -3.1971    1.7904   -2.4310 C   0  0  0  0  0  0  0  0  0  0  0  0
   -1.9190    1.5396   -2.0396 O   0  0  0  0  0  0  0  0  0  0  0  0
    0.9871    1.7740   -1.8572 C   0  0  0  0  0  0  0  0  0  0  0  0
    1.7010    2.5520   -1.2142 O   0  0  0  0  0  0  0  0  0  0  0  0
    0.5207    2.2475   -3.2145 C   0  0  0  0  0  0  0  0  0  0  0  0
   -0.1658    1.5744   -4.1564 C   0  0  0  0  0  0  0  0  0  0  0  0
   -0.7853    2.1345   -5.3350 C   0  0  0  0  0  0  0  0  0  0  0  0
   -2.1228    1.9563   -5.6946 C   0  0  0  0  0  0  0  0  0  0  0  0
   -2.6741    2.4393   -6.8340 N   0  0  0  0  0  0  0  0  0  0  0  0
   -1.8596    3.1426   -7.6375 C   0  0  0  0  0  0  0  0  0  0  0  0
   -2.3609    3.6517   -8.8550 N   0  0  0  0  0  0  0  0  0  0  0  0
   -3.6440    3.1571   -9.4064 C   0  0  0  0  0  0  0  0  0  0  0  0
   -3.5746    1.7577   -9.8251 O   0  0  0  0  0  0  0  0  0  0  0  0
   -2.6155    1.4037  -11.0656 P   0  0  0  0  0  0  0  0  0  0  0  0
   -3.1037    2.4440  -12.1626 O   0  0  0  0  0  0  0  0  0  0  0  0
   -1.2910    1.9546  -10.4283 O   0  0  0  0  0  0  0  0  0  0  0  0
   -2.4048    0.0173  -11.5512 O   0  0  0  0  0  0  0  0  0  0  0  0
   -1.5646    4.5423   -9.5772 C   0  0  0  0  0  0  0  0  0  0  0  0
   -2.0286    5.5219  -10.1925 O   0  0  0  0  0  0  0  0  0  0  0  0
   -0.0747    4.2138   -9.6397 C   0  0  0  0  0  0  0  0  0  0  0  0
    0.4801    3.9707   -8.2738 C   0  0  0  0  0  0  0  0  0  0  0  0
   -0.4927    3.2942   -7.3720 C   0  0  0  0  0  0  0  0  0  0  0  0
    0.0447    2.7627   -6.2181 C   0  0  0  0  0  0  0  0  0  0  0  0
  1  2  1  0
  2  3  1  0
  2 14  1  0
  3  4  1  0
  4  5  2  0
  4 13  1  0
  5  6  1  0
  5  7  1  0
  7  8  2  0
  7 12  1  0
  8  9  1  0
  9 10  2  0
 10 11  1  0
 11 12  2  0
 12 13  1  0
 14 15  2  0
 14 16  1  0
 16 17  2  0
 17 18  1  0
 18 19  2  0
 18 34  1  0
 19 20  1  0
 20 21  2  0
 21 22  1  0
 21 33  1  0
 22 23  1  0
 22 29  1  0
 23 24  1  0
 24 25  1  0
 25 26  1  0
 25 27  1  0
 25 28  2  0
 29 30  2  0
 29 31  1  0
 31 32  1  0
 32 33  1  0
 33 34  2  0
M  END
>  <DRUGBANK_ID>  (1) 
DB15268

>  <COMMON_NAME>  (1) 
Afabicin

>  <CAS_NUMBER>  (1) 
1518800-35-5

>  <UNII>  (1) 
DMM8663H2R

>  <SYNONYMS>  (1) 
Afabicin

$$$$
