
     RDKit          3D

  6  5  0  0  0  0  0  0  0  0999 V2000
    0.9118   -0.0628   -0.0777 O   0  0  0  0  0  0  0  0  0  0  0  0
    0.3193    0.8566    0.7183 C   0  0  0  0  0  0  0  0  0  0  0  0
    1.0127    1.6201    1.3794 O   0  0  0  0  0  0  0  0  0  0  0  0
   -1.1954    0.8406    0.7045 C   0  0  0  0  0  0  0  0  0  0  0  0
   -1.7885    1.1903   -0.9306 Cl  0  0  0  0  0  0  0  0  0  0  0  0
   -1.7885   -0.7276    1.2846 Cl  0  0  0  0  0  0  0  0  0  0  0  0
  1  2  1  0
  2  3  2  0
  2  4  1  0
  4  5  1  0
  4  6  1  0
M  END
>  <DRUGBANK_ID>  (1) 
DB08809

>  <COMMON_NAME>  (1) 
Dichloroacetic acid

>  <CAS_NUMBER>  (1) 
79-43-6

>  <UNII>  (1) 
9LSH52S3LQ

>  <SYNONYMS>  (1) 
DCA; Dichloracetic acid; Dichloroacetate

$$$$
