864
     RDKit          3D

 31 32  0  0  0  0  0  0  0  0999 V2000
   -2.0231   -3.8444   -3.6820 C   0  0  2  0  0  0  0  0  0  0  0  0
   -2.0399   -4.8532   -2.5103 C   0  0  0  0  0  0  0  0  0  0  0  0
   -2.9907   -4.2295   -4.7822 C   0  0  0  0  0  0  0  0  0  0  0  0
   -2.9111   -3.6586   -6.0609 C   0  0  0  0  0  0  0  0  0  0  0  0
   -3.9114   -3.8633   -6.9967 C   0  0  0  0  0  0  0  0  0  0  0  0
   -4.9706   -4.7044   -6.6945 C   0  0  0  0  0  0  0  0  0  0  0  0
   -5.0756   -5.2910   -5.4297 C   0  0  0  0  0  0  0  0  0  0  0  0
   -4.0877   -5.0445   -4.4814 C   0  0  0  0  0  0  0  0  0  0  0  0
   -6.2715   -6.1154   -5.0574 C   0  0  0  0  0  0  0  0  0  0  0  0
   -7.4836   -5.3176   -5.1794 N   0  0  0  0  0  0  0  0  0  0  0  0
   -1.5325   -6.0639   -2.8311 O   0  0  0  0  0  0  0  0  0  0  0  0
   -2.5889   -4.7083   -1.4253 O   0  0  0  0  0  0  0  0  0  0  0  0
   -0.5896   -3.5162   -4.2051 C   0  0  0  0  0  0  0  0  0  0  0  0
    0.2603   -2.4563   -3.0981 P   0  0  0  0  0  0  0  0  0  0  0  0
    1.3200   -1.3313   -2.2068 C   0  0  2  0  0  0  0  0  0  0  0  0
    1.1566    0.1802   -2.5794 C   0  0  0  0  0  0  0  0  0  0  0  0
    0.7609    0.4741   -4.0355 C   0  0  0  0  0  0  0  0  0  0  0  0
    0.0465    0.7781   -1.7187 C   0  0  0  0  0  0  0  0  0  0  0  0
    2.7219   -1.7773   -2.1777 N   0  0  0  0  0  0  0  0  0  0  0  0
    3.4650   -2.1423   -1.0850 C   0  0  0  0  0  0  0  0  0  0  0  0
    4.6603   -2.4166   -1.2205 O   0  0  0  0  0  0  0  0  0  0  0  0
    2.7935   -2.1576    0.0923 O   0  0  0  0  0  0  0  0  0  0  0  0
    3.5424   -2.5365    1.2652 C   0  0  0  0  0  0  0  0  0  0  0  0
   -0.4629   -3.0229   -1.8518 O   0  0  0  0  0  0  0  0  0  0  0  0
    1.0683   -1.8231   -4.4906 O   0  0  0  0  0  0  0  0  0  0  0  0
    4.0195   -3.9682    1.2379 C   0  0  0  0  0  0  0  0  0  0  0  0
    3.1092   -5.0313    1.2064 C   0  0  0  0  0  0  0  0  0  0  0  0
    3.5706   -6.3479    1.2446 C   0  0  0  0  0  0  0  0  0  0  0  0
    4.9404   -6.6115    1.2232 C   0  0  0  0  0  0  0  0  0  0  0  0
    5.8533   -5.5600    1.2238 C   0  0  0  0  0  0  0  0  0  0  0  0
    5.3945   -4.2449    1.2471 C   0  0  0  0  0  0  0  0  0  0  0  0
  1  3  1  0
  1 13  1  6
  1  2  1  0
  2 12  2  0
  2 11  1  0
  3  8  1  0
  3  4  2  0
  4  5  1  0
  5  6  2  0
  6  7  1  0
  7  9  1  0
  7  8  2  0
  9 10  1  0
 14 25  1  0
 14 24  2  0
 14 13  1  0
 15 19  1  6
 15 16  1  0
 15 14  1  0
 16 17  1  0
 16 18  1  0
 19 20  1  0
 20 21  2  0
 20 22  1  0
 22 23  1  0
 23 26  1  0
 26 31  1  0
 26 27  2  0
 27 28  1  0
 28 29  2  0
 29 30  1  0
 30 31  2  0
M  END
>  <DRUGBANK_ID>  (1) 
DB07269

>  <COMMON_NAME>  (1) 
(2S)-2-[3-(AMINOMETHYL)PHENYL]-3-[(R)-[(1R)-1-{[(BENZYLOXY)CARBONYL]AMINO}-2-METHYLPROPYL](HYDROXY)PHOSPHORYL]PROPANOIC ACID

$$$$
