
     RDKit          3D

 36 39  0  0  1  0  0  0  0  0999 V2000
    1.3651   -0.3936    0.4488 C   0  0  0  0  0  0  0  0  0  0  0  0
    0.5736    0.3485    1.5275 C   0  0  0  0  0  0  0  0  0  0  0  0
    0.9883    1.8215    1.7601 C   0  0  1  0  0  0  0  0  0  0  0  0
    0.4347    2.8490    0.8967 O   0  0  0  0  0  0  0  0  0  0  0  0
    0.6469    2.7358   -0.4378 C   0  0  0  0  0  0  0  0  0  0  0  0
    0.1462    1.6796   -1.1454 C   0  0  0  0  0  0  0  0  0  0  0  0
    0.6938    1.3680   -2.3773 C   0  0  0  0  0  0  0  0  0  0  0  0
    0.4810   -0.0054   -2.8584 C   0  0  0  0  0  0  0  0  0  0  0  0
   -0.6258   -0.0656   -3.7667 N   0  0  0  0  0  0  0  0  0  0  0  0
   -0.0778   -0.6392   -5.0281 C   0  0  0  0  0  0  0  0  0  0  0  0
   -0.8434   -1.6352   -5.8835 C   0  0  0  0  0  0  0  0  0  0  0  0
   -2.2791   -1.3187   -6.1794 C   0  0  0  0  0  0  0  0  0  0  0  0
   -2.6335   -0.0873   -6.9175 O   0  0  0  0  0  0  0  0  0  0  0  0
   -1.9349    1.1071   -6.8705 C   0  0  0  0  0  0  0  0  0  0  0  0
   -0.5718    1.1852   -7.0667 C   0  0  0  0  0  0  0  0  0  0  0  0
    0.1870    2.2977   -6.6337 C   0  0  0  0  0  0  0  0  0  0  0  0
   -0.4184    3.5102   -6.3924 C   0  0  0  0  0  0  0  0  0  0  0  0
    0.2365    4.6717   -6.0826 O   0  0  0  0  0  0  0  0  0  0  0  0
    1.6517    4.6153   -5.8863 C   0  0  0  0  0  0  0  0  0  0  0  0
   -1.8060    3.5439   -6.5377 C   0  0  0  0  0  0  0  0  0  0  0  0
   -2.5650    2.3437   -6.6863 C   0  0  0  0  0  0  0  0  0  0  0  0
   -1.8125    0.7092   -3.6541 C   0  0  0  0  0  0  0  0  0  0  0  0
   -2.4148    1.7062   -2.9640 N   0  0  0  0  0  0  0  0  0  0  0  0
   -3.8416    1.6674   -3.3568 C   0  0  0  0  0  0  0  0  0  0  0  0
   -3.9555    0.6169   -4.2134 C   0  0  0  0  0  0  0  0  0  0  0  0
   -2.7424    0.1381   -4.3973 O   0  0  0  0  0  0  0  0  0  0  0  0
   -5.0679    0.0494   -4.8259 C   0  0  0  0  0  0  0  0  0  0  0  0
   -6.2875    0.5747   -4.4820 C   0  0  0  0  0  0  0  0  0  0  0  0
   -6.3110    1.6843   -3.6372 C   0  0  0  0  0  0  0  0  0  0  0  0
   -5.1012    2.3012   -3.1212 C   0  0  0  0  0  0  0  0  0  0  0  0
    1.3468    2.3363   -3.1095 C   0  0  0  0  0  0  0  0  0  0  0  0
    1.4621    3.5898   -2.5315 C   0  0  0  0  0  0  0  0  0  0  0  0
    1.2328    3.7538   -1.1647 C   0  0  0  0  0  0  0  0  0  0  0  0
    0.4153    2.2094    3.1457 C   0  0  0  0  0  0  0  0  0  0  0  0
    1.3586    2.4483    4.1029 O   0  0  0  0  0  0  0  0  0  0  0  0
   -0.7572    2.2632    3.4070 O   0  0  0  0  0  0  0  0  0  0  0  0
  1  2  1  0
  3  2  1  6
  3  4  1  0
  3 34  1  0
  4  5  1  0
  5  6  2  0
  5 33  1  0
  6  7  1  0
  7  8  1  0
  7 31  2  0
  8  9  1  0
  9 10  1  0
  9 22  1  0
 10 11  1  0
 11 12  1  0
 12 13  1  0
 13 14  1  0
 14 15  2  0
 14 21  1  0
 15 16  1  0
 16 17  2  0
 17 18  1  0
 17 20  1  0
 18 19  1  0
 20 21  2  0
 22 23  2  0
 22 26  1  0
 23 24  1  0
 24 25  2  0
 24 30  1  0
 25 26  1  0
 25 27  1  0
 27 28  2  0
 28 29  1  0
 29 30  2  0
 31 32  1  0
 32 33  2  0
 34 35  1  0
 34 36  2  0
M  END
>  <DRUGBANK_ID>  (1) 
DB15212

>  <COMMON_NAME>  (1) 
Pemafibrate

>  <CAS_NUMBER>  (1) 
848259-27-8

>  <UNII>  (1) 
17VGG92R23

>  <SYNONYMS>  (1) 
Pemafibrate

$$$$
