
     RDKit          3D

 23 24  0  0  0  0  0  0  0  0999 V2000
   -1.2894    1.1335    0.3579 C   0  0  0  0  0  0  0  0  0  0  0  0
   -0.1880    2.0190    0.2814 C   0  0  0  0  0  0  0  0  0  0  0  0
    1.0637    1.5130    0.2837 C   0  0  0  0  0  0  0  0  0  0  0  0
    1.1838    0.1666    0.1475 C   0  0  0  0  0  0  0  0  0  0  0  0
   -1.1489   -0.2629    0.3386 C   0  0  0  0  0  0  0  0  0  0  0  0
    0.1201   -0.8253    0.2736 C   0  0  0  0  0  0  0  0  0  0  0  0
    1.3600   -3.3220   -2.2432 C   0  0  0  0  0  0  0  0  0  0  0  0
    1.3411   -2.3402   -1.1234 C   0  0  1  0  0  0  0  0  0  0  0  0
    0.2591   -2.3686   -0.0440 C   0  0  1  0  0  0  0  0  0  0  0  0
    0.6661   -3.4144    1.0451 C   0  0  0  0  0  0  0  0  0  0  0  0
    1.9326   -3.8784    1.2375 C   0  0  0  0  0  0  0  0  0  0  0  0
    3.1366   -3.3029    0.5575 C   0  0  0  0  0  0  0  0  0  0  0  0
    2.6857   -2.2375   -0.3551 C   0  0  0  0  0  0  0  0  0  0  0  0
    2.3788   -5.0183    2.0899 C   0  0  0  0  0  0  0  0  0  0  0  0
    2.3852    0.0766   -0.5508 O   0  0  0  0  0  0  0  0  0  0  0  0
   -0.1782    3.4958    0.0409 C   0  0  0  0  0  0  0  0  0  0  0  0
   -0.8357    3.8825   -1.2781 C   0  0  0  0  0  0  0  0  0  0  0  0
   -2.3101    3.4911   -1.3244 C   0  0  0  0  0  0  0  0  0  0  0  0
   -3.0420    3.9118   -0.0405 C   0  0  0  0  0  0  0  0  0  0  0  0
   -3.0447    5.4210    0.0788 C   0  0  0  0  0  0  0  0  0  0  0  0
    1.1351   -2.8845   -3.5139 C   0  0  0  0  0  0  0  0  0  0  0  0
    1.7724   -4.7039   -1.9261 C   0  0  0  0  0  0  0  0  0  0  0  0
   -2.2733   -1.0354    0.1974 O   0  0  0  0  0  0  0  0  0  0  0  0
  1  2  2  0
  2  3  1  0
  2 16  1  0
  3  4  2  0
  4 15  1  0
  4  6  1  0
  5  6  2  0
  5  1  1  0
  5 23  1  0
  7 21  2  0
  7 22  1  0
  8 13  1  0
  8  7  1  1
  8  9  1  0
  9 10  1  0
  9  6  1  1
 10 11  2  0
 11 12  1  0
 11 14  1  0
 12 13  1  0
 16 17  1  0
 17 18  1  0
 18 19  1  0
 19 20  1  0
M  END
>  <DRUGBANK_ID>  (1) 
DB09061

>  <COMMON_NAME>  (1) 
Cannabidiol

>  <CAS_NUMBER>  (1) 
13956-29-1

>  <UNII>  (1) 
19GBJ60SN5

>  <SYNONYMS>  (1) 
.DELTA.1(2)-TRANS-CANNABIDIOL; (−)-trans-2-p-mentha-1,8-dien-3-yl-5-pentylresorcinol; (−)-trans-cannabidiol; (1'R,2'R)-5'-methyl-4-pentyl-2'-(prop-1-en-2-yl)-1',2',3',4'-tetrahydrobiphenyl-2,6-diol; Cannabidiol; CBD; Δ1(2)-trans-cannabidiol

$$$$
