
     RDKit          3D

 32 34  0  0  1  0  0  0  0  0999 V2000
    0.9477    0.1533   -0.1297 C   0  0  0  0  0  0  0  0  0  0  0  0
    2.6843   -3.6625    1.4226 C   0  0  0  0  0  0  0  0  0  0  0  0
    0.4285   -4.3225    1.2580 C   0  0  0  0  0  0  0  0  0  0  0  0
    2.3227   -2.3098    1.1347 C   0  0  0  0  0  0  0  0  0  0  0  0
    0.0938   -2.9781    0.8683 C   0  0  0  0  0  0  0  0  0  0  0  0
    0.9730   -8.4185    4.8500 C   0  0  0  0  0  0  0  0  0  0  0  0
   -0.5308   -8.2718    5.1412 C   0  0  0  0  0  0  0  0  0  0  0  0
   -0.4267    0.1065    2.0163 C   0  0  0  0  0  0  0  0  0  0  0  0
   -3.0425    0.1468    2.4061 C   0  0  0  0  0  0  0  0  0  0  0  0
    1.7205   -4.6620    1.6350 C   0  0  0  0  0  0  0  0  0  0  0  0
   -1.8006   -0.4634    2.3426 C   0  0  0  0  0  0  0  0  0  0  0  0
    0.9849   -1.9147    1.0000 C   0  0  0  0  0  0  0  0  0  0  0  0
    1.4609   -8.1473    3.3995 C   0  0  1  0  0  0  0  0  0  0  0  0
   -1.4807   -9.2273    4.4624 C   0  0  0  0  0  0  0  0  0  0  0  0
   -2.0978   -1.7769    2.8003 C   0  0  0  0  0  0  0  0  0  0  0  0
   -1.3491   -2.8378    3.2666 C   0  0  0  0  0  0  0  0  0  0  0  0
    2.1054   -5.9465    2.3604 C   0  0  0  0  0  0  0  0  0  0  0  0
   -3.4390   -2.0202    2.6109 C   0  0  0  0  0  0  0  0  0  0  0  0
    0.9644   -9.1488    2.3302 C   0  0  0  0  0  0  0  0  0  0  0  0
   -3.1531   -4.2313    2.7315 C   0  0  0  0  0  0  0  0  0  0  0  0
   -0.0262   -2.6002    3.6725 N   0  0  0  0  0  0  0  0  0  0  0  0
   -3.5433   -5.5300    2.4716 N   0  0  0  0  0  0  0  0  0  0  0  0
    1.1398   -6.7628    2.9552 N   0  0  0  0  0  0  0  0  0  0  0  0
   -1.8670   -4.0810    3.1181 N   0  0  0  0  0  0  0  0  0  0  0  0
   -4.0392   -3.2284    2.5827 N   0  0  0  0  0  0  0  0  0  0  0  0
    0.5735   -0.5771    1.0776 N   0  0  0  0  0  0  0  0  0  0  0  0
   -1.8906  -10.2849    5.1763 O   0  0  0  0  0  0  0  0  0  0  0  0
   -1.9530   -9.0161    3.3397 O   0  0  0  0  0  0  0  0  0  0  0  0
    3.2984   -6.2300    2.4613 O   0  0  0  0  0  0  0  0  0  0  0  0
    1.7755  -10.1921    2.0590 O   0  0  0  0  0  0  0  0  0  0  0  0
   -0.0805   -9.0126    1.6953 O   0  0  0  0  0  0  0  0  0  0  0  0
   -4.0463   -0.7924    2.4843 O   0  0  0  0  0  0  0  0  0  0  0  0
  4  2  2  0
  5  3  1  0
  7  6  1  0
 10  2  1  0
 10  3  2  0
 11  8  1  0
 11  9  2  0
 12  4  1  0
 12  5  2  0
 13  6  1  1
 13 23  1  0
 14  7  1  0
 15 11  1  0
 16 15  2  0
 17 10  1  0
 18 15  1  0
 19 13  1  0
 21 16  1  0
 22 20  1  0
 23 17  1  0
 24 16  1  0
 24 20  2  0
 25 18  2  0
 25 20  1  0
 26  1  1  0
 26  8  1  0
 26 12  1  0
 27 14  1  0
 28 14  2  0
 29 17  2  0
 30 19  1  0
 31 19  2  0
 32  9  1  0
 32 18  1  0
M  END
>  <DRUGBANK_ID>  (1) 
DB02026

>  <SECONDARY_ACCESSION_NUMBERS>  (1) 
EXPT00981

>  <COMMON_NAME>  (1) 
Furo[2,3d]Pyrimidine Antifolate

>  <UNII>  (1) 
VBP3BN3U2V

$$$$
