
     RDKit          3D

  8  8  0  0  0  0  0  0  0  0999 V2000
    0.5463   -2.0361   -0.0006 O   0  0  0  0  0  0  0  0  0  0  0  0
   -0.2617   -0.9319    0.0019 C   0  0  0  0  0  0  0  0  0  0  0  0
   -1.6493   -1.0846    0.0174 C   0  0  0  0  0  0  0  0  0  0  0  0
   -2.4703    0.0462    0.0140 C   0  0  0  0  0  0  0  0  0  0  0  0
   -1.9078    1.3226   -0.0084 C   0  0  0  0  0  0  0  0  0  0  0  0
   -0.5199    1.4735   -0.0203 C   0  0  0  0  0  0  0  0  0  0  0  0
    0.3044    0.3463   -0.0117 C   0  0  0  0  0  0  0  0  0  0  0  0
    2.0152    0.5742   -0.0144 Cl  0  0  0  0  0  0  0  0  0  0  0  0
  1  2  1  0
  2  3  2  0
  2  7  1  0
  3  4  1  0
  4  5  2  0
  5  6  1  0
  6  7  2  0
  7  8  1  0
M  END
>  <DRUGBANK_ID>  (1) 
DB03110

>  <SECONDARY_ACCESSION_NUMBERS>  (1) 
EXPT00108

>  <COMMON_NAME>  (1) 
2-Chlorophenol

>  <CAS_NUMBER>  (1) 
95-57-8

>  <UNII>  (1) 
K9KAV4K6BN

>  <SYNONYMS>  (1) 
2-chloro-1-hydroxybenzene; o-chlorophenol

$$$$
