
     RDKit          3D

 24 26  0  0  0  0  0  0  0  0999 V2000
   -0.7703    1.2412    0.4104 C   0  0  0  0  0  0  0  0  0  0  0  0
    0.6605    1.1734   -0.0490 C   0  0  0  0  0  0  0  0  0  0  0  0
    1.3660   -0.0659    0.2788 N   0  0  0  0  0  0  0  0  0  0  0  0
    0.6393   -1.2445   -0.2084 C   0  0  0  0  0  0  0  0  0  0  0  0
   -0.7996   -1.2687    0.2936 C   0  0  0  0  0  0  0  0  0  0  0  0
   -1.5401    0.0143   -0.0984 C   0  0  0  0  0  0  0  0  0  0  0  0
   -2.9583    0.0197    0.4683 C   0  0  0  0  0  0  0  0  0  0  0  0
   -3.7060    1.2734    0.0787 C   0  0  0  0  0  0  0  0  0  0  0  0
   -3.9931    1.5562   -1.2653 C   0  0  0  0  0  0  0  0  0  0  0  0
   -4.6128    2.7601   -1.6089 C   0  0  0  0  0  0  0  0  0  0  0  0
   -4.9468    3.6634   -0.6096 C   0  0  0  0  0  0  0  0  0  0  0  0
   -4.6644    3.4048    0.7233 C   0  0  0  0  0  0  0  0  0  0  0  0
   -4.0366    2.2082    1.0694 C   0  0  0  0  0  0  0  0  0  0  0  0
   -5.5513    4.8161   -0.9401 F   0  0  0  0  0  0  0  0  0  0  0  0
    2.7438   -0.0491   -0.2680 C   0  0  0  0  0  0  0  0  0  0  0  0
    2.9338   -0.0195   -1.8280 C   0  0  0  0  0  0  0  0  0  0  0  0
    2.3909    1.2413   -2.4904 C   0  0  0  0  0  0  0  0  0  0  0  0
    2.8869    2.5011   -2.1114 C   0  0  0  0  0  0  0  0  0  0  0  0
    2.2528    3.6729   -2.5240 C   0  0  0  0  0  0  0  0  0  0  0  0
    1.1061    3.6027   -3.3102 C   0  0  0  0  0  0  0  0  0  0  0  0
    0.5836    2.3677   -3.6893 C   0  0  0  0  0  0  0  0  0  0  0  0
    1.2370    1.1886   -3.3062 C   0  0  0  0  0  0  0  0  0  0  0  0
    0.3150    5.0546   -3.7835 Cl  0  0  0  0  0  0  0  0  0  0  0  0
    4.3241   -0.1453   -2.1313 O   0  0  0  0  0  0  0  0  0  0  0  0
  1  2  1  0
  1  6  1  0
  2  3  1  0
  3  4  1  0
  3 15  1  0
  4  5  1  0
  5  6  1  0
  6  7  1  0
  7  8  1  0
  8  9  2  0
  8 13  1  0
  9 10  1  0
 10 11  2  0
 11 12  1  0
 11 14  1  0
 12 13  2  0
 15 16  1  0
 16 17  1  0
 16 24  1  0
 17 18  2  0
 17 22  1  0
 18 19  1  0
 19 20  2  0
 20 21  1  0
 20 23  1  0
 21 22  2  0
M  END
>  <DRUGBANK_ID>  (1) 
DB12869

>  <COMMON_NAME>  (1) 
Eliprodil

>  <CAS_NUMBER>  (1) 
119431-25-3

>  <UNII>  (1) 
YW62A6TW29

>  <SYNONYMS>  (1) 
Eliprodil

$$$$
