1604
     RDKit          3D

 32 34  0  0  1  0  0  0  0  0999 V2000
   -2.2279   -6.1462    4.3449 S   0  0  0  0  0  0  0  0  0  0  0  0
   -2.2631   -1.7845    4.6336 O   0  0  0  0  0  0  0  0  0  0  0  0
   -4.0397   -2.7227    7.8675 O   0  0  0  0  0  0  0  0  0  0  0  0
   -5.1251   -4.5924    7.4996 O   0  0  0  0  0  0  0  0  0  0  0  0
   -0.0357   -4.2438    0.4908 O   0  0  0  0  0  0  0  0  0  0  0  0
   -1.6793   -2.2728    7.9044 O   0  0  0  0  0  0  0  0  0  0  0  0
   -2.3083   -2.6539   10.0639 O   0  0  0  0  0  0  0  0  0  0  0  0
   -3.4361   -3.8378    4.8768 N   0  0  0  0  0  0  0  0  0  0  0  0
   -1.2794   -3.8790    2.2912 N   0  0  0  0  0  0  0  0  0  0  0  0
   -2.1191   -3.5085   -1.3308 N   0  0  0  0  0  0  0  0  0  0  0  0
   -3.2277   -4.8007    3.7605 C   0  0  1  0  0  0  0  0  0  0  0  0
   -2.9223   -5.8732    6.0238 C   0  0  0  0  0  0  0  0  0  0  0  0
   -3.0830   -4.3296    6.1948 C   0  0  2  0  0  0  0  0  0  0  0  0
   -2.5075   -3.7171    3.0566 C   0  0  1  0  0  0  0  0  0  0  0  0
   -2.6572   -2.8825    4.2809 C   0  0  0  0  0  0  0  0  0  0  0  0
   -1.8732   -6.4641    6.9274 C   0  0  0  0  0  0  0  0  0  0  0  0
   -4.2229   -6.6697    6.0731 C   0  0  0  0  0  0  0  0  0  0  0  0
   -4.1355   -3.9106    7.2444 C   0  0  0  0  0  0  0  0  0  0  0  0
   -1.1819   -4.0889    0.9322 C   0  0  0  0  0  0  0  0  0  0  0  0
   -2.4501   -4.1460   -0.0414 C   0  0  1  0  0  0  0  0  0  0  0  0
   -2.9966   -1.7711    7.6626 C   0  0  0  0  0  0  0  0  0  0  0  0
   -3.7443   -3.4794    0.4086 C   0  0  0  0  0  0  0  0  0  0  0  0
   -0.0548   -3.2767    9.3672 C   0  0  0  0  0  0  0  0  0  0  0  0
   -3.7121   -2.1635    0.9465 C   0  0  0  0  0  0  0  0  0  0  0  0
   -4.9549   -4.1885    0.4077 C   0  0  0  0  0  0  0  0  0  0  0  0
   -1.4648   -2.7002    9.1787 C   0  0  0  0  0  0  0  0  0  0  0  0
    0.1820   -4.4875    8.4751 C   0  0  0  0  0  0  0  0  0  0  0  0
    1.0012   -2.2238    9.0465 C   0  0  0  0  0  0  0  0  0  0  0  0
    0.0931   -3.7387   10.8230 C   0  0  0  0  0  0  0  0  0  0  0  0
   -4.7839   -1.7157    1.7236 C   0  0  0  0  0  0  0  0  0  0  0  0
   -6.0882   -3.6087    0.9790 C   0  0  0  0  0  0  0  0  0  0  0  0
   -5.9790   -2.4270    1.7161 C   0  0  0  0  0  0  0  0  0  0  0  0
 11  1  1  1
  1 12  1  0
  2 15  2  0
  3 18  1  0
  3 21  1  0
  4 18  2  0
  5 19  2  0
  6 21  1  0
  6 26  1  0
  7 26  2  0
  8 11  1  0
  8 13  1  0
  8 15  1  0
  9 19  1  0
 11 14  1  0
 12 13  1  0
 12 16  1  0
 12 17  1  0
 13 18  1  1
 14 15  1  0
 14  9  1  1
 20 22  1  0
 20 19  1  0
 20 10  1  6
 22 24  2  0
 22 25  1  0
 23 26  1  0
 23 27  1  0
 23 28  1  0
 23 29  1  0
 24 30  1  0
 25 31  2  0
 30 32  2  0
 31 32  1  0
M  END
>  <DRUGBANK_ID>  (1) 
DB01604

>  <COMMON_NAME>  (1) 
Pivampicillin

>  <CAS_NUMBER>  (1) 
33817-20-8

>  <UNII>  (1) 
0HLM346LL7

>  <SYNONYMS>  (1) 
Ampicillin pivaloyloxymethyl ester; Pivaloylampicillin; Pivaloyloxymethyl ampicillinate; Pivampicilina; Pivampicillin; Pivampicilline; Pivampicillinum

$$$$
