
     RDKit          3D

 34 33  0  0  0  0  0  0  0  0999 V2000
    1.2905   -0.1752    0.2777 C   0  0  0  0  0  0  0  0  0  0  0  0
    0.3720   -0.2290    1.3060 O   0  0  0  0  0  0  0  0  0  0  0  0
    0.7525    0.0448   -1.1040 C   0  0  0  0  0  0  0  0  0  0  0  0
    2.4773   -0.2788    0.4691 O   0  0  0  0  0  0  0  0  0  0  0  0
   -1.1127   -0.3087    1.3321 C   0  0  0  0  0  0  0  0  0  0  0  0
    0.9091    1.4860   -1.6884 C   0  0  0  0  0  0  0  0  0  0  0  0
   -1.8478    1.0144    1.0362 C   0  0  0  0  0  0  0  0  0  0  0  0
    2.3382    1.6246   -2.0785 C   0  0  0  0  0  0  0  0  0  0  0  0
   -1.6001    1.4117   -0.3846 C   0  0  0  0  0  0  0  0  0  0  0  0
    2.5924    0.5674   -3.1393 C   0  0  0  0  0  0  0  0  0  0  0  0
   -2.0368    0.3297   -1.4354 C   0  0  0  0  0  0  0  0  0  0  0  0
    1.7164    0.8492   -4.3714 C   0  0  0  0  0  0  0  0  0  0  0  0
   -3.5160    0.3340   -1.5153 C   0  0  0  0  0  0  0  0  0  0  0  0
    2.0462    2.2503   -4.8883 C   0  0  0  0  0  0  0  0  0  0  0  0
   -3.8837    1.7160   -2.0124 C   0  0  0  0  0  0  0  0  0  0  0  0
    3.5531    2.3194   -5.1550 C   0  0  0  0  0  0  0  0  0  0  0  0
   -3.2449    1.9637   -3.3943 C   0  0  0  0  0  0  0  0  0  0  0  0
    3.9237    1.2457   -6.1834 C   0  0  0  0  0  0  0  0  0  0  0  0
   -3.7039    0.8634   -4.3557 C   0  0  0  0  0  0  0  0  0  0  0  0
    3.1501    1.5081   -7.4776 C   0  0  0  0  0  0  0  0  0  0  0  0
   -5.2346    0.8458   -4.3613 C   0  0  0  0  0  0  0  0  0  0  0  0
    3.5134    2.8967   -8.0099 C   0  0  0  0  0  0  0  0  0  0  0  0
   -5.7448    2.2241   -4.7954 C   0  0  0  0  0  0  0  0  0  0  0  0
    5.0191    2.9631   -8.2812 C   0  0  0  0  0  0  0  0  0  0  0  0
   -5.2292    2.5304   -6.2032 C   0  0  0  0  0  0  0  0  0  0  0  0
    5.4097    1.9064   -9.3202 C   0  0  0  0  0  0  0  0  0  0  0  0
   -5.7307    1.4564   -7.1717 C   0  0  0  0  0  0  0  0  0  0  0  0
    4.6793    2.1564  -10.6442 C   0  0  0  0  0  0  0  0  0  0  0  0
   -7.2632    1.4375   -7.1806 C   0  0  0  0  0  0  0  0  0  0  0  0
    5.0064    3.5419  -11.2026 C   0  0  0  0  0  0  0  0  0  0  0  0
   -7.8154    2.7895   -7.6457 C   0  0  0  0  0  0  0  0  0  0  0  0
    6.4992    3.6686  -11.4588 C   0  0  0  0  0  0  0  0  0  0  0  0
   -7.3165    3.1361   -9.0489 C   0  0  0  0  0  0  0  0  0  0  0  0
   -7.7637    2.0776  -10.0438 C   0  0  0  0  0  0  0  0  0  0  0  0
  1  2  1  0
  1  3  1  0
  1  4  2  0
  2  5  1  0
  3  6  1  0
  5  7  1  0
  6  8  1  0
  7  9  1  0
  8 10  1  0
  9 11  1  0
 10 12  1  0
 11 13  1  0
 12 14  1  0
 13 15  1  0
 14 16  1  0
 15 17  1  0
 16 18  1  0
 17 19  1  0
 18 20  1  0
 19 21  1  0
 20 22  1  0
 21 23  1  0
 22 24  1  0
 23 25  1  0
 24 26  1  0
 25 27  1  0
 26 28  1  0
 27 29  1  0
 28 30  1  0
 29 31  1  0
 30 32  1  0
 31 33  1  0
 33 34  1  0
M  END
>  <DRUGBANK_ID>  (1) 
DB15782

>  <COMMON_NAME>  (1) 
Cetyl palmitate

>  <CAS_NUMBER>  (1) 
540-10-3

>  <UNII>  (1) 
5ZA2S6B08X

>  <SYNONYMS>  (1) 
Hexadecanoic acid, hexadecyl ester; Hexadecyl palmitate; n-Hexadecyl hexadecanoate; Palmityl palmitate

$$$$
