
     RDKit          3D

 28 29  0  0  0  0  0  0  0  0999 V2000
    2.4526   -0.6935   -0.0269 C   0  0  0  0  0  0  0  0  0  0  0  0
    2.4324    0.6946    0.0400 C   0  0  0  0  0  0  0  0  0  0  0  0
    1.2099    1.3705    0.0684 C   0  0  0  0  0  0  0  0  0  0  0  0
    0.0148    0.6509    0.0285 C   0  0  0  0  0  0  0  0  0  0  0  0
    0.0420   -0.7510    0.0151 C   0  0  0  0  0  0  0  0  0  0  0  0
    1.2694   -1.4213   -0.0432 C   0  0  0  0  0  0  0  0  0  0  0  0
   -1.1454    1.3848   -0.0055 O   0  0  0  0  0  0  0  0  0  0  0  0
   -2.3494    0.6489   -0.3325 C   0  0  0  0  0  0  0  0  0  0  0  0
   -2.3872   -0.6732    0.4500 C   0  0  0  0  0  0  0  0  0  0  0  0
   -1.2256   -1.5509    0.0119 C   0  0  0  0  0  0  0  0  0  0  0  0
   -2.3983    0.4145   -1.8693 C   0  0  0  0  0  0  0  0  0  0  0  0
   -3.5257   -0.5105   -2.3531 C   0  0  0  0  0  0  0  0  0  0  0  0
   -4.8957    0.0805   -2.2073 C   0  0  0  0  0  0  0  0  0  0  0  0
   -5.6778    0.4708   -3.2060 C   0  0  0  0  0  0  0  0  0  0  0  0
   -6.9105    1.3043   -2.9169 C   0  0  0  0  0  0  0  0  0  0  0  0
   -6.8674    2.7073   -3.5449 C   0  0  0  0  0  0  0  0  0  0  0  0
   -6.8105    2.6535   -5.0450 C   0  0  0  0  0  0  0  0  0  0  0  0
   -7.8181    2.9671   -5.8667 C   0  0  0  0  0  0  0  0  0  0  0  0
   -7.7623    2.5945   -7.3348 C   0  0  0  0  0  0  0  0  0  0  0  0
   -8.8887    1.6480   -7.7993 C   0  0  0  0  0  0  0  0  0  0  0  0
  -10.2587    2.2507   -7.6512 C   0  0  0  0  0  0  0  0  0  0  0  0
  -11.0518    2.6869   -8.6404 C   0  0  0  0  0  0  0  0  0  0  0  0
  -12.3048    3.4595   -8.3391 C   0  0  0  0  0  0  0  0  0  0  0  0
   -5.3277    0.0615   -4.6039 C   0  0  0  0  0  0  0  0  0  0  0  0
   -9.0000    3.7042   -5.3170 C   0  0  0  0  0  0  0  0  0  0  0  0
  -10.7188    2.4023  -10.0694 C   0  0  0  0  0  0  0  0  0  0  0  0
   -3.5215    1.5299    0.1320 C   0  0  0  0  0  0  0  0  0  0  0  0
    3.6637   -1.3179   -0.0707 O   0  0  0  0  0  0  0  0  0  0  0  0
  1  2  2  0
  1  6  1  0
  1 28  1  0
  2  3  1  0
  3  4  2  0
  4  5  1  0
  4  7  1  0
  5  6  2  0
  5 10  1  0
  7  8  1  0
  8  9  1  0
  8 11  1  0
  8 27  1  0
  9 10  1  0
 11 12  1  0
 12 13  1  0
 13 14  2  0
 14 15  1  0
 14 24  1  0
 15 16  1  0
 16 17  1  0
 17 18  2  0
 18 19  1  0
 18 25  1  0
 19 20  1  0
 20 21  1  0
 21 22  2  3
 22 23  1  0
 22 26  1  0
M  END
>  <DRUGBANK_ID>  (1) 
DB12647

>  <COMMON_NAME>  (1) 
Tocotrienol

>  <CAS_NUMBER>  (1) 
6829-55-6

>  <UNII>  (1) 
0867I0N41V

$$$$
