
     RDKit          3D

 32 35  0  0  1  0  0  0  0  0999 V2000
    0.9347    0.0528    0.0363 C   0  0  0  0  0  0  0  0  0  0  0  0
    0.4707    1.0416    1.0767 C   0  0  0  0  0  0  0  0  0  0  0  0
    0.7393    2.4349    0.8890 C   0  0  0  0  0  0  0  0  0  0  0  0
    0.4123    3.3754    1.8946 C   0  0  0  0  0  0  0  0  0  0  0  0
   -0.1573    2.9206    3.0240 N   0  0  0  0  0  0  0  0  0  0  0  0
   -0.4785    1.5718    3.1854 N   0  0  0  0  0  0  0  0  0  0  0  0
   -0.1602    0.6419    2.2541 C   0  0  0  0  0  0  0  0  0  0  0  0
   -0.5454   -0.7927    2.5792 C   0  0  0  0  0  0  0  0  0  0  0  0
    0.2014   -1.3946    3.7514 C   0  0  0  0  0  0  0  0  0  0  0  0
    0.0855   -0.8134    5.0242 C   0  0  0  0  0  0  0  0  0  0  0  0
    0.8748   -1.2665    6.0800 C   0  0  0  0  0  0  0  0  0  0  0  0
    1.6975   -2.3691    5.9091 C   0  0  0  0  0  0  0  0  0  0  0  0
    1.7368   -3.0307    4.6800 C   0  0  0  0  0  0  0  0  0  0  0  0
    1.0181   -2.5193    3.5945 C   0  0  0  0  0  0  0  0  0  0  0  0
    0.7589    4.7166    1.7698 N   0  0  0  0  0  0  0  0  0  0  0  0
    0.0803    5.5598    0.7639 C   0  0  0  0  0  0  0  0  0  0  0  0
    1.0246    6.7133    0.3242 C   0  0  0  0  0  0  0  0  0  0  0  0
    1.5413    7.4418    1.4957 N   0  0  0  0  0  0  0  0  0  0  0  0
    2.1619    6.6037    2.5470 C   0  0  1  0  0  0  0  0  0  0  0  0
    1.1307    5.4933    2.9818 C   0  0  0  0  0  0  0  0  0  0  0  0
    3.4183    5.9038    2.0002 C   0  0  0  0  0  0  0  0  0  0  0  0
    1.3806    8.8033    1.6403 C   0  0  0  0  0  0  0  0  0  0  0  0
    0.1496    9.4331    1.4097 C   0  0  0  0  0  0  0  0  0  0  0  0
   -0.0512   10.7822    1.3475 N   0  0  0  0  0  0  0  0  0  0  0  0
    1.0416   11.5550    1.5576 C   0  0  0  0  0  0  0  0  0  0  0  0
    2.2470   10.9438    1.9052 C   0  0  0  0  0  0  0  0  0  0  0  0
    2.4347    9.5840    1.9562 N   0  0  0  0  0  0  0  0  0  0  0  0
    0.9105   13.0653    1.3452 C   0  0  0  0  0  0  0  0  0  0  0  0
    0.5338   13.3687   -0.1151 C   0  0  0  0  0  0  0  0  0  0  0  0
   -0.1529   13.6645    2.2733 C   0  0  0  0  0  0  0  0  0  0  0  0
    2.1492   13.7416    1.6155 O   0  0  0  0  0  0  0  0  0  0  0  0
    1.4544    2.8915   -0.3614 C   0  0  0  0  0  0  0  0  0  0  0  0
  1  2  1  0
  2  3  2  0
  2  7  1  0
  3  4  1  0
  3 32  1  0
  4  5  2  0
  4 15  1  0
  5  6  1  0
  6  7  2  0
  7  8  1  0
  8  9  1  0
  9 10  2  0
  9 14  1  0
 10 11  1  0
 11 12  2  0
 12 13  1  0
 13 14  2  0
 15 16  1  0
 15 20  1  0
 16 17  1  0
 17 18  1  0
 18 19  1  0
 18 22  1  0
 19 20  1  0
 19 21  1  6
 22 23  2  0
 22 27  1  0
 23 24  1  0
 24 25  2  0
 25 26  1  0
 25 28  1  0
 26 27  2  0
 28 29  1  0
 28 30  1  0
 28 31  1  0
M  END
>  <DRUGBANK_ID>  (1) 
DB12857

>  <COMMON_NAME>  (1) 
NVP-LEQ-506

>  <CAS_NUMBER>  (1) 
1204975-42-7

>  <UNII>  (1) 
6SJX1T5HJD

$$$$
