517
     RDKit          3D

 21 23  0  0  0  0  0  0  0  0999 V2000
   -1.0243    0.0643   -0.0015 N   0  0  0  0  0  0  0  0  0  0  0  0
   -0.2092    1.1562   -0.0065 C   0  0  0  0  0  0  0  0  0  0  0  0
    1.0829    0.7012   -0.0121 C   0  0  0  0  0  0  0  0  0  0  0  0
    1.0328   -0.7178    0.0002 C   0  0  0  0  0  0  0  0  0  0  0  0
   -0.2978   -1.1050    0.0365 C   0  0  0  0  0  0  0  0  0  0  0  0
   -0.9210   -2.4992    0.1117 C   0  0  2  0  0  0  0  0  0  0  0  0
   -1.6917   -2.7953   -1.1951 C   0  0  0  0  0  0  0  0  0  0  0  0
   -1.7645   -2.7440    1.3425 C   0  0  0  0  0  0  0  0  0  0  0  0
   -2.9058   -2.1865    1.7322 C   0  0  0  0  0  0  0  0  0  0  0  0
   -3.7113   -1.2228    1.1140 C   0  0  0  0  0  0  0  0  0  0  0  0
   -1.4698   -3.7287    2.4120 C   0  0  0  0  0  0  0  0  0  0  0  0
   -0.5220   -4.4840    2.3779 O   0  0  0  0  0  0  0  0  0  0  0  0
   -2.4506   -3.6504    3.4015 N   0  0  0  0  0  0  0  0  0  0  0  0
   -3.2740   -2.7428    3.0098 C   0  0  0  0  0  0  0  0  0  0  0  0
   -4.5145   -2.1666    3.6103 C   0  0  0  0  0  0  0  0  0  0  0  0
   -5.1930   -1.1732    2.9746 C   0  0  0  0  0  0  0  0  0  0  0  0
   -4.7759   -0.6429    1.6617 C   0  0  0  0  0  0  0  0  0  0  0  0
   -5.4769    0.3559    1.0072 N   0  0  0  0  0  0  0  0  0  0  0  0
   -5.2656    1.0504   -0.1618 C   0  0  0  0  0  0  0  0  0  0  0  0
   -6.0644    1.9073   -0.5341 O   0  0  0  0  0  0  0  0  0  0  0  0
   -4.1411    0.8631   -0.9013 N   0  0  0  0  0  0  0  0  0  0  0  0
  1  5  1  0
  1  2  1  0
  2  3  2  0
  3  4  1  0
  4  5  2  0
  5  6  1  0
  6  8  1  0
  6  7  1  6
  8  9  2  0
  8 11  1  0
  9 14  1  0
  9 10  1  0
 10 17  2  0
 11 13  1  0
 11 12  2  0
 13 14  2  0
 14 15  1  0
 15 16  2  0
 16 17  1  0
 17 18  1  0
 18 19  1  0
 19 20  2  0
 19 21  1  0
M  END
>  <DRUGBANK_ID>  (1) 
DB07132

>  <COMMON_NAME>  (1) 
1-{2-OXO-3-[(1R)-1-(1H-PYRROL-2-YL)ETHYL]-2H-INDOL-5-YL}UREA

$$$$
