
     RDKit          3D

 29 33  0  0  1  0  0  0  0  0999 V2000
    3.6427    2.2775   -1.3081 C   0  0  0  0  0  0  0  0  0  0  0  0
    2.4452    2.7456   -1.8664 C   0  0  0  0  0  0  0  0  0  0  0  0
    2.4380    3.5571   -2.9917 C   0  0  0  0  0  0  0  0  0  0  0  0
    3.6800    3.9313   -3.5528 C   0  0  0  0  0  0  0  0  0  0  0  0
    4.8354    3.5167   -3.0343 N   0  0  0  0  0  0  0  0  0  0  0  0
    4.8185    2.7012   -1.9394 C   0  0  0  0  0  0  0  0  0  0  0  0
    6.1469    2.3355   -1.4588 C   0  0  0  0  0  0  0  0  0  0  0  0
    6.4395    1.0084   -1.4396 N   0  0  0  0  0  0  0  0  0  0  0  0
    7.6466    0.6532   -0.9650 C   0  0  0  0  0  0  0  0  0  0  0  0
    8.6061    1.5683   -0.5626 C   0  0  0  0  0  0  0  0  0  0  0  0
    8.2811    2.9241   -0.5731 C   0  0  0  0  0  0  0  0  0  0  0  0
    7.0277    3.3154   -1.0116 C   0  0  0  0  0  0  0  0  0  0  0  0
    3.6702    4.7714   -4.6439 C   0  0  0  0  0  0  0  0  0  0  0  0
    2.4832    5.3469   -5.0771 C   0  0  0  0  0  0  0  0  0  0  0  0
    1.2669    5.0236   -4.4848 C   0  0  0  0  0  0  0  0  0  0  0  0
    1.2382    4.0385   -3.5148 C   0  0  0  0  0  0  0  0  0  0  0  0
    2.5018    6.2252   -6.0846 F   0  0  0  0  0  0  0  0  0  0  0  0
    3.6900    1.3849   -0.0688 C   0  0  2  0  0  0  0  0  0  0  0  0
    2.3362    0.6515    0.1136 C   0  0  0  0  0  0  0  0  0  0  0  0
    4.0640    2.2265    1.0868 N   0  0  0  0  0  0  0  0  0  0  0  0
    4.9580    1.7461    2.0710 C   0  0  0  0  0  0  0  0  0  0  0  0
    6.3923    1.6745    1.9791 C   0  0  0  0  0  0  0  0  0  0  0  0
    7.0467    2.4365    2.9580 C   0  0  0  0  0  0  0  0  0  0  0  0
    6.6627    2.4633    4.2494 N   0  0  0  0  0  0  0  0  0  0  0  0
    5.4033    2.0160    4.3538 C   0  0  0  0  0  0  0  0  0  0  0  0
    4.5017    1.8337    3.3581 N   0  0  0  0  0  0  0  0  0  0  0  0
    8.3685    2.3167    2.5725 N   0  0  0  0  0  0  0  0  0  0  0  0
    8.3823    0.9310    2.5424 C   0  0  0  0  0  0  0  0  0  0  0  0
    7.2689    0.5362    1.9291 N   0  0  0  0  0  0  0  0  0  0  0  0
  1  6  1  0
  2  1  2  0
  3  2  1  0
  3 16  2  0
  4  3  1  0
  4 13  2  0
  5  4  1  0
  6  5  2  0
  6  7  1  0
  7 12  1  0
  8  7  2  0
  9  8  1  0
 10  9  2  0
 11 10  1  0
 12 11  2  0
 13 14  1  0
 14 15  2  0
 14 17  1  0
 15 16  1  0
 18 20  1  0
 18 19  1  1
 18  1  1  0
 20 21  1  0
 21 26  1  0
 22 21  2  0
 22 29  1  0
 23 22  1  0
 23 27  1  0
 24 23  2  0
 25 24  1  0
 26 25  2  0
 27 28  1  0
 28 29  2  0
M  END
>  <DRUGBANK_ID>  (1) 
DB16879

>  <COMMON_NAME>  (1) 
AMG-319

>  <CAS_NUMBER>  (1) 
1608125-21-8

>  <UNII>  (1) 
19DG7G1U5Q

>  <SYNONYMS>  (1) 
AMG319

$$$$
