
     RDKit          3D

 32 34  0  0  0  0  0  0  0  0999 V2000
    1.5631    1.1746    0.6679 C   0  0  0  0  0  0  0  0  0  0  0  0
    1.4518    0.3070    2.1678 O   0  0  0  0  0  0  0  0  0  0  0  0
    1.4732   -1.1531    2.3190 C   0  0  0  0  0  0  0  0  0  0  0  0
    0.3560   -2.0117    2.8222 C   0  0  0  0  0  0  0  0  0  0  0  0
    0.5007   -3.3621    3.2195 C   0  0  0  0  0  0  0  0  0  0  0  0
    1.7988   -3.8434    3.1353 C   0  0  0  0  0  0  0  0  0  0  0  0
    2.8371   -3.0572    2.5192 C   0  0  0  0  0  0  0  0  0  0  0  0
    2.6809   -1.7583    2.0462 C   0  0  0  0  0  0  0  0  0  0  0  0
    3.7687   -1.2361    1.3873 O   0  0  0  0  0  0  0  0  0  0  0  0
    3.5260   -0.1813    0.4648 C   0  0  0  0  0  0  0  0  0  0  0  0
    2.2829   -0.6583   -0.7981 C   0  0  0  0  0  0  0  0  0  0  0  0
    0.4710   -0.9373   -0.1162 C   0  0  0  0  0  0  0  0  0  0  0  0
   -0.5536    0.2369    1.1193 C   0  0  0  0  0  0  0  0  0  0  0  0
   -1.0938    1.6833    0.7279 C   0  0  0  0  0  0  0  0  0  0  0  0
   -1.9114    1.3072   -0.4374 C   0  0  0  0  0  0  0  0  0  0  0  0
   -3.1190    0.5916    0.1480 C   0  0  0  0  0  0  0  0  0  0  0  0
   -4.1500    1.2602    0.2587 O   0  0  0  0  0  0  0  0  0  0  0  0
   -3.1273   -0.6666    0.6751 N   0  0  0  0  0  0  0  0  0  0  0  0
   -2.2547   -1.7491    0.5593 O   0  0  0  0  0  0  0  0  0  0  0  0
    2.0044   -5.1024    3.7203 C   0  0  0  0  0  0  0  0  0  0  0  0
    1.0125   -5.8316    4.2765 N   0  0  0  0  0  0  0  0  0  0  0  0
   -0.2108   -5.3095    4.2449 C   0  0  0  0  0  0  0  0  0  0  0  0
   -0.5214   -4.1091    3.7290 N   0  0  0  0  0  0  0  0  0  0  0  0
    3.3136   -5.6154    3.7476 N   0  0  0  0  0  0  0  0  0  0  0  0
    3.7477   -6.8001    4.3371 C   0  0  0  0  0  0  0  0  0  0  0  0
    3.1799   -8.0166    3.9626 C   0  0  0  0  0  0  0  0  0  0  0  0
    3.6172   -9.2010    4.5409 C   0  0  0  0  0  0  0  0  0  0  0  0
    4.6240   -9.1720    5.5046 C   0  0  0  0  0  0  0  0  0  0  0  0
    5.1932   -7.9552    5.8941 C   0  0  0  0  0  0  0  0  0  0  0  0
    4.7379   -6.7668    5.3215 C   0  0  0  0  0  0  0  0  0  0  0  0
    6.2425   -7.9193    6.8269 C   0  0  0  0  0  0  0  0  0  0  0  0
    7.2028   -7.8617    7.6231 C   0  0  0  0  0  0  0  0  0  0  0  0
  1  2  1  0
  2  3  1  0
  3  4  2  0
  3  8  1  0
  4  5  1  0
  5  6  2  0
  5 23  1  0
  6  7  1  0
  6 20  1  0
  7  8  2  0
  8  9  1  0
  9 10  1  0
 10 11  1  0
 11 12  1  0
 12 13  1  0
 13 14  1  0
 14 15  1  0
 15 16  1  0
 16 17  2  0
 16 18  1  0
 18 19  1  0
 20 21  2  0
 20 24  1  0
 21 22  1  0
 22 23  2  0
 24 25  1  0
 25 26  2  0
 25 30  1  0
 26 27  1  0
 27 28  2  0
 28 29  1  0
 29 30  2  0
 29 31  1  0
 31 32  3  0
M  END
>  <DRUGBANK_ID>  (1) 
DB12174

>  <COMMON_NAME>  (1) 
CUDC-101

>  <CAS_NUMBER>  (1) 
1012054-59-9

>  <UNII>  (1) 
1A7Y9MP123

$$$$
