OHN
     RDKit          3D

 21 21  0  0  0  0  0  0  0  0999 V2000
    1.0902    0.1650    0.1041 C   0  0  0  0  0  0  0  0  0  0  0  0
    0.6519    0.5826   -1.2895 C   0  0  0  0  0  0  0  0  0  0  0  0
    1.1651   -0.4240   -2.3195 C   0  0  0  0  0  0  0  0  0  0  0  0
    0.6475   -1.8380   -2.0158 C   0  0  0  0  0  0  0  0  0  0  0  0
   -0.8776   -1.8702   -2.0215 C   0  0  0  0  0  0  0  0  0  0  0  0
   -1.3674   -1.4489   -3.3904 C   0  0  0  0  0  0  0  0  0  0  0  0
   -0.8117   -2.3897   -4.4631 C   0  0  0  0  0  0  0  0  0  0  0  0
   -1.4007   -3.7862   -4.3220 C   0  0  0  0  0  0  0  0  0  0  0  0
   -2.9117   -3.7385   -4.4092 C   0  0  0  0  0  0  0  0  0  0  0  0
   -3.3024   -3.3220   -5.8178 C   0  0  0  0  0  0  0  0  0  0  0  0
   -3.5841   -4.2115   -6.6319 O   0  0  0  0  0  0  0  0  0  0  0  0
   -3.2930   -1.8745   -6.2838 C   0  0  0  0  0  0  0  0  0  0  0  0
   -3.7919   -0.7941   -5.3594 C   0  0  0  0  0  0  0  0  0  0  0  0
   -3.0945    0.1610   -5.0220 O   0  0  0  0  0  0  0  0  0  0  0  0
   -5.0813   -0.8443   -4.9291 N   0  0  0  0  0  0  0  0  0  0  0  0
   -6.1214   -1.6763   -5.5087 C   0  0  1  0  0  0  0  0  0  0  0  0
   -6.0512   -3.0986   -5.0260 C   0  0  0  0  0  0  0  0  0  0  0  0
   -7.4673   -3.5379   -4.8989 C   0  0  0  0  0  0  0  0  0  0  0  0
   -7.5031   -1.2625   -5.0502 C   0  0  0  0  0  0  0  0  0  0  0  0
   -7.9144   -0.1208   -5.0078 O   0  0  0  0  0  0  0  0  0  0  0  0
   -8.2225   -2.3603   -4.6646 O   0  0  0  0  0  0  0  0  0  0  0  0
  1  2  1  0
  2  3  1  0
  3  4  1  0
  4  5  1  0
  5  6  1  0
  6  7  1  0
  7  8  1  0
  8  9  1  0
  9 10  1  0
 10 11  2  0
 10 12  1  0
 12 13  1  0
 13 14  2  0
 13 15  1  0
 16 15  1  1
 16 17  1  0
 16 19  1  0
 17 18  1  0
 18 21  1  0
 19 20  2  0
 19 21  1  0
M  END
>  <DRUGBANK_ID>  (1) 
DB08324

>  <COMMON_NAME>  (1) 
N-3-OXO-DODECANOYL-L-HOMOSERINE LACTONE

$$$$
