
     RDKit          3D

 14 13  0  0  0  0  0  0  0  0999 V2000
    1.3927    0.2205    0.0570 O   0  0  0  0  0  0  0  0  0  0  0  0
    1.2200   -1.9865   -0.1487 O   0  0  0  0  0  0  0  0  0  0  0  0
   -1.4039   -0.3142    1.1655 N   0  0  0  0  0  0  0  0  0  0  0  0
   -3.2260   -2.1284   -2.9056 N   0  0  0  0  0  0  0  0  0  0  0  0
   -5.2909   -2.0897   -1.9033 N   0  0  0  0  0  0  0  0  0  0  0  0
   -1.3747    0.0132   -1.4734 C   0  0  0  0  0  0  0  0  0  0  0  0
   -0.7961   -0.6545   -0.1914 C   0  0  1  0  0  0  0  0  0  0  0  0
   -1.0970   -0.7356   -2.8203 C   0  0  0  0  0  0  0  0  0  0  0  0
   -1.7956   -2.0694   -3.1782 C   0  0  0  0  0  0  0  0  0  0  0  0
    0.6955   -0.9071   -0.1400 C   0  0  0  0  0  0  0  0  0  0  0  0
   -3.4485   -2.0479   -0.4209 C   0  0  0  0  0  0  0  0  0  0  0  0
   -3.9340   -2.1270   -1.8387 C   0  0  0  0  0  0  0  0  0  0  0  0
   -2.5741   -3.1949    0.1119 C   0  0  0  0  0  0  0  0  0  0  0  0
   -1.4707   -3.7692   -0.7870 C   0  0  0  0  0  0  0  0  0  0  0  0
  1 10  1  0
  2 10  2  0
  4  9  1  0
  4 12  2  0
  5 12  1  0
  6  7  1  0
  6  8  1  0
  7  3  1  1
  7 10  1  0
  8  9  1  0
 11 12  1  0
 11 13  1  0
 13 14  1  0
M  CHG  1   3   1
M  END
>  <DRUGBANK_ID>  (1) 
DB03710

>  <SECONDARY_ACCESSION_NUMBERS>  (1) 
EXPT03224

>  <COMMON_NAME>  (1) 
[(1S)-4-(1-Aminobutylideneamino)-1-carboxybutyl]azanium

$$$$
