KSL
     RDKit          3D

 24 27  0  0  0  0  0  0  0  0999 V2000
    2.5156    1.0904    0.0206 C   0  0  0  0  0  0  0  0  0  0  0  0
    1.1810    0.3877    0.0096 C   0  0  0  0  0  0  0  0  0  0  0  0
    1.2043   -1.0244   -0.0010 C   0  0  0  0  0  0  0  0  0  0  0  0
    0.0300   -1.7612   -0.0086 C   0  0  0  0  0  0  0  0  0  0  0  0
   -1.1821   -1.0968   -0.0205 C   0  0  0  0  0  0  0  0  0  0  0  0
   -0.0599    1.0926    0.0050 C   0  0  0  0  0  0  0  0  0  0  0  0
   -1.2482    0.3102   -0.0207 C   0  0  0  0  0  0  0  0  0  0  0  0
   -2.6443    0.8629   -0.0383 C   0  0  0  0  0  0  0  0  0  0  0  0
   -0.0406    2.5210    0.1378 N   0  0  0  0  0  0  0  0  0  0  0  0
   -1.1531    3.3407    0.0925 C   0  0  0  0  0  0  0  0  0  0  0  0
   -1.4831    4.1684   -1.0519 C   0  0  0  0  0  0  0  0  0  0  0  0
   -0.8707    4.4562   -2.2478 C   0  0  0  0  0  0  0  0  0  0  0  0
   -1.6444    5.3080   -2.9989 N   0  0  0  0  0  0  0  0  0  0  0  0
   -2.7045    5.5552   -2.2581 C   0  0  0  0  0  0  0  0  0  0  0  0
   -2.6764    4.8603   -1.0753 N   0  0  0  0  0  0  0  0  0  0  0  0
   -3.5752    4.7780   -0.0200 C   0  0  0  0  0  0  0  0  0  0  0  0
   -3.1831    4.0209    1.0321 C   0  0  0  0  0  0  0  0  0  0  0  0
   -1.9719    3.3694    1.1245 N   0  0  0  0  0  0  0  0  0  0  0  0
   -4.8900    5.4423    0.0130 C   0  0  0  0  0  0  0  0  0  0  0  0
   -5.2168    6.2629    1.1037 C   0  0  0  0  0  0  0  0  0  0  0  0
   -6.4915    6.8139    1.2264 C   0  0  0  0  0  0  0  0  0  0  0  0
   -7.4230    6.6387    0.2074 C   0  0  0  0  0  0  0  0  0  0  0  0
   -7.0780    5.9138   -0.9321 C   0  0  0  0  0  0  0  0  0  0  0  0
   -5.8362    5.2753   -1.0085 C   0  0  0  0  0  0  0  0  0  0  0  0
  1  2  1  0
  2  3  2  0
  2  6  1  0
  3  4  1  0
  4  5  2  0
  5  7  1  0
  6  7  2  0
  6  9  1  0
  7  8  1  0
  9 10  1  0
 10 11  1  0
 10 18  2  0
 11 12  2  0
 11 15  1  0
 12 13  1  0
 13 14  2  0
 14 15  1  0
 15 16  1  0
 16 17  2  0
 16 19  1  0
 17 18  1  0
 19 20  2  0
 19 24  1  0
 20 21  1  0
 21 22  2  0
 22 23  1  0
 23 24  2  0
M  END
>  <DRUGBANK_ID>  (1) 
DB08056

>  <COMMON_NAME>  (1) 
N-(2,6-dimethylphenyl)-5-phenylimidazo[1,5-a]pyrazin-8-amine

$$$$
