
     RDKit          3D

 14 14  0  0  0  0  0  0  0  0999 V2000
   -0.0881    1.9877    0.2670 O   0  0  0  0  0  0  0  0  0  0  0  0
    0.0611   -2.1788    0.5771 O   0  0  0  0  0  0  0  0  0  0  0  0
   -2.4321   -0.8104   -0.2539 O   0  0  0  0  0  0  0  0  0  0  0  0
    2.4494   -0.6497   -0.2700 O   0  0  0  0  0  0  0  0  0  0  0  0
   -2.4728    3.4458   -0.0466 O   0  0  0  0  0  0  0  0  0  0  0  0
    1.7412    2.5192   -2.3641 O   0  0  0  0  0  0  0  0  0  0  0  0
    0.6505    0.5960   -2.6487 N   0  0  0  0  0  0  0  0  0  0  0  0
    0.0074   -0.9013   -0.0708 C   0  0  1  0  0  0  0  0  0  0  0  0
   -1.2915   -0.1423    0.2880 C   0  0  1  0  0  0  0  0  0  0  0  0
    1.2540   -0.0465    0.2278 C   0  0  2  0  0  0  0  0  0  0  0  0
   -1.2814    1.3298   -0.1686 C   0  0  1  0  0  0  0  0  0  0  0  0
    1.0897    1.3958   -0.2880 C   0  0  1  0  0  0  0  0  0  0  0  0
   -2.5019    2.0829    0.3753 C   0  0  0  0  0  0  0  0  0  0  0  0
    1.2005    1.5481   -1.8333 C   0  0  0  0  0  0  0  0  0  0  0  0
  1 11  1  0
  1 12  1  0
  5 13  1  0
  6 14  2  0
  7 14  1  0
  8  2  1  1
  8  9  1  0
  8 10  1  0
  9  3  1  6
  9 11  1  0
 10  4  1  6
 10 12  1  0
 11 13  1  1
 12 14  1  6
M  END
>  <DRUGBANK_ID>  (1) 
DB02720

>  <SECONDARY_ACCESSION_NUMBERS>  (1) 
EXPT01605

>  <COMMON_NAME>  (1) 
alpha-D-glucopyranosyl-2-carboxylic acid amide

>  <CAS_NUMBER>  (1) 
58825-13-1

$$$$
