
     RDKit          3D

 21 18  0  0  1  0  0  0  0  0999 V2000
   -0.2129   -0.7730   -0.6242 C   0  0  0  0  0  0  0  0  0  0  0  0
   -0.1953   -0.3376   -2.0869 C   0  0  0  0  0  0  0  0  0  0  0  0
   -0.5881   -1.2319   -2.8421 O   0  0  0  0  0  0  0  0  0  0  0  0
    0.7364    0.6508   -2.6735 N   0  0  0  0  0  0  0  0  0  0  0  0
    1.5369    2.1869   -2.5441 C   0  0  1  0  0  0  0  0  0  0  0  0
    2.9029    2.1546   -3.2929 C   0  0  0  0  0  0  0  0  0  0  0  0
    2.7733    1.9741   -5.0578 S   0  0  0  0  0  0  0  0  0  0  0  0
    0.7031    3.4905   -2.7285 C   0  0  0  0  0  0  0  0  0  0  0  0
    0.7271    4.2381   -1.7250 O   0  0  0  0  0  0  0  0  0  0  0  0
    0.1729    3.5845   -3.8647 O   0  0  0  0  0  0  0  0  0  0  0  0
    1.5467    0.3181    0.9800 C   0  0  0  0  0  0  0  0  0  0  0  0
    0.5830    1.5680    0.3109 C   0  0  0  0  0  0  0  0  0  0  0  0
   -0.2748    1.5774   -0.5173 O   0  0  0  0  0  0  0  0  0  0  0  0
    1.1853    2.7604    0.3871 N   0  0  0  0  0  0  0  0  0  0  0  0
    1.9174    3.0151    1.5653 C   0  0  1  0  0  0  0  0  0  0  0  0
    3.1744    3.6683    1.1206 C   0  0  0  0  0  0  0  0  0  0  0  0
    2.9527    5.3349    0.4750 S   0  0  0  0  0  0  0  0  0  0  0  0
    0.9762    3.3934    2.7090 C   0  0  0  0  0  0  0  0  0  0  0  0
    0.7868    2.4249    3.5066 O   0  0  0  0  0  0  0  0  0  0  0  0
    0.4213    4.5070    2.5971 O   0  0  0  0  0  0  0  0  0  0  0  0
    2.4178    0.3088   -1.3914 Zn  0  0  0  0  0 15  0  0  0  0  0  0
  1  2  1  0
  2  3  2  0
  2  4  1  0
  5  4  1  0
  5  6  1  6
  5  8  1  0
  6  7  1  0
  8  9  2  0
  8 10  1  0
 11 12  1  0
 12 13  2  0
 12 14  1  0
 15 14  1  0
 15 16  1  6
 15 18  1  0
 16 17  1  0
 18 19  2  0
 18 20  1  0
M  CHG  3  10  -1  20  -1  21   2
M  END
>  <DRUGBANK_ID>  (1) 
DB14479

>  <SECONDARY_ACCESSION_NUMBERS>  (1) 
DBSALT001548

>  <COMMON_NAME>  (1) 
Acetylcysteine zinc

>  <CAS_NUMBER>  (1) 
49793-39-7

>  <UNII>  (1) 
LP811J9FA1

>  <SYNONYMS>  (1) 
N-acetyl-L-cysteine zinc salt; Zinc acetylcysteine

$$$$
