
     RDKit          3D

 18 20  0  0  0  0  0  0  0  0999 V2000
   -1.5717   -1.0257   -0.0051 O   0  0  0  0  0  0  0  0  0  0  0  0
   -2.3680    0.0867   -0.0035 C   0  0  0  0  0  0  0  0  0  0  0  0
   -0.2697   -0.6031   -0.0035 C   0  0  0  0  0  0  0  0  0  0  0  0
   -0.2369    0.7852   -0.0029 C   0  0  0  0  0  0  0  0  0  0  0  0
   -1.5826    1.2204   -0.0034 C   0  0  0  0  0  0  0  0  0  0  0  0
    0.8875   -1.3868   -0.0021 C   0  0  0  0  0  0  0  0  0  0  0  0
    2.1228   -0.7189   -0.0003 C   0  0  0  0  0  0  0  0  0  0  0  0
    1.0070    1.4358   -0.0006 C   0  0  0  0  0  0  0  0  0  0  0  0
    2.1849    0.6765    0.0019 C   0  0  0  0  0  0  0  0  0  0  0  0
   -4.6998   -2.8717   -0.0003 N   0  0  0  0  0  0  0  0  0  0  0  0
   -3.8606   -0.0713    0.0027 C   0  0  0  0  0  0  0  0  0  0  0  0
    0.8362   -3.2729   -0.0005 Br  0  0  0  0  0  0  0  0  0  0  0  0
    3.3280    1.4304    0.0073 O   0  0  0  0  0  0  0  0  0  0  0  0
   -4.1176   -2.2796    1.2074 C   0  0  0  0  0  0  0  0  0  0  0  0
   -4.1363   -2.2722   -1.2134 C   0  0  0  0  0  0  0  0  0  0  0  0
   -4.3735   -0.7761    1.2606 C   0  0  0  0  0  0  0  0  0  0  0  0
   -4.3886   -0.7676   -1.2537 C   0  0  0  0  0  0  0  0  0  0  0  0
    4.5628    0.7262    0.0169 C   0  0  0  0  0  0  0  0  0  0  0  0
  2  1  1  0
  3  1  1  0
  4  3  2  0
  5  2  2  0
  5  4  1  0
  6  3  1  0
  7  6  2  0
  8  4  1  0
  9  7  1  0
  9  8  2  0
 10 15  1  0
 10 14  1  0
 11  2  1  0
 12  6  1  0
 13  9  1  0
 14 16  1  0
 15 17  1  0
 16 11  1  0
 17 11  1  0
 18 13  1  0
M  END
>  <DRUGBANK_ID>  (1) 
DB13876

>  <COMMON_NAME>  (1) 
Brofaromine

>  <CAS_NUMBER>  (1) 
63638-91-5

>  <UNII>  (1) 
6WV4B8Q07H

>  <SYNONYMS>  (1) 
Brofaromine; Consonar

$$$$
