
     RDKit          3D

 16 17  0  0  0  0  0  0  0  0999 V2000
    1.1581   -0.0585    0.0462 O   0  0  0  0  0  0  0  0  0  0  0  0
    2.3951   -0.0633    0.1323 N   0  0  0  0  0  0  0  0  0  0  0  0
    3.0844    0.7456    0.7632 O   0  0  0  0  0  0  0  0  0  0  0  0
    3.0717   -1.0543   -0.6418 C   0  0  0  0  0  0  0  0  0  0  0  0
    2.8370   -1.4749   -1.9258 C   0  0  0  0  0  0  0  0  0  0  0  0
    3.7424   -2.5423   -2.1369 C   0  0  0  0  0  0  0  0  0  0  0  0
    4.4851   -2.7042   -0.9739 C   0  0  0  0  0  0  0  0  0  0  0  0
    4.0666   -1.7730   -0.0399 O   0  0  0  0  0  0  0  0  0  0  0  0
    5.5156   -3.6852   -0.6767 C   0  0  0  0  0  0  0  0  0  0  0  0
    6.0641   -3.8178    0.4927 N   0  0  0  0  0  0  0  0  0  0  0  0
    6.9934   -4.8292    0.6371 N   0  0  0  0  0  0  0  0  0  0  0  0
    7.1857   -5.4510    1.9062 C   0  0  0  0  0  0  0  0  0  0  0  0
    8.1904   -6.5343    1.6010 C   0  0  0  0  0  0  0  0  0  0  0  0
    8.7978   -6.1574    0.3587 O   0  0  0  0  0  0  0  0  0  0  0  0
    8.0235   -5.1845   -0.2261 C   0  0  0  0  0  0  0  0  0  0  0  0
    8.2525   -4.7416   -1.3452 O   0  0  0  0  0  0  0  0  0  0  0  0
  1  2  1  0
  2  3  2  0
  2  4  1  0
  4  5  2  0
  4  8  1  0
  5  6  1  0
  6  7  2  0
  7  8  1  0
  7  9  1  0
  9 10  2  0
 10 11  1  0
 11 12  1  0
 11 15  1  0
 12 13  1  0
 13 14  1  0
 14 15  1  0
 15 16  2  0
M  CHG  2   1  -1   2   1
M  END
>  <DRUGBANK_ID>  (1) 
DB00614

>  <SECONDARY_ACCESSION_NUMBERS>  (1) 
APRD00988

>  <COMMON_NAME>  (1) 
Furazolidone

>  <CAS_NUMBER>  (1) 
67-45-8

>  <UNII>  (1) 
5J9CPU3RE0

>  <SYNONYMS>  (1) 
3-(5'-Nitrofurfuralamino)-2-oxazolidone; 3-[(5-Nitrofurfurylidene)amino]-2-oxazolidinone; 3-[(5-Nitrofurfurylidene)amino]-2-oxazolidone; 3-[(5-Nitrofurylidene)amino]-2-oxazolidone; 3-{[(5-nitro-2-furanyl)methylene]amino}-2-oxazolidinone; 5-Nitro-N-(2-oxo-3-oxazolidinyl)-2-furanmethanimine; Furazolidona; Furazolidone; Furazolidonum; FZL; N-(5-Nitro-2-furfurylidene)-3-amino-2-oxazolidone; N-(5-Nitro-2-furfurylidene)-3-aminooxazolidine-2-one; Nitrofurazolidone; Nitrofurazolidonum

$$$$
