
     RDKit          3D

 35 39  0  0  1  0  0  0  0  0999 V2000
   -2.6644   -9.4486  -10.0429 C   0  0  0  0  0  0  0  0  0  0  0  0
   -3.0857   -8.9632   -7.6136 C   0  0  0  0  0  0  0  0  0  0  0  0
   -1.9843  -11.1256   -8.2730 C   0  0  0  0  0  0  0  0  0  0  0  0
    4.2677   -8.5644   -8.9671 C   0  0  0  0  0  0  0  0  0  0  0  0
    4.2734   -4.9457   -7.6583 C   0  0  0  0  0  0  0  0  0  0  0  0
    7.4089  -10.6496   -4.3069 C   0  0  0  0  0  0  0  0  0  0  0  0
    4.9575   -4.9150   -6.4412 C   0  0  0  0  0  0  0  0  0  0  0  0
    3.2740   -5.8643   -7.7657 C   0  0  0  0  0  0  0  0  0  0  0  0
    6.3343  -10.9499   -3.4892 C   0  0  0  0  0  0  0  0  0  0  0  0
    7.3385   -9.5865   -5.2046 C   0  0  0  0  0  0  0  0  0  0  0  0
    4.7942   -5.8641   -5.3916 C   0  0  0  0  0  0  0  0  0  0  0  0
    3.1437   -6.7186   -6.6857 C   0  0  0  0  0  0  0  0  0  0  0  0
    5.2186  -10.1366   -3.5445 C   0  0  0  0  0  0  0  0  0  0  0  0
    6.2388   -8.7495   -5.2176 C   0  0  0  0  0  0  0  0  0  0  0  0
    0.1587   -9.0097   -9.6546 C   0  0  0  0  0  0  0  0  0  0  0  0
    1.5269   -8.9616   -9.4646 C   0  0  0  0  0  0  0  0  0  0  0  0
    0.4414   -9.3080   -2.6669 C   0  0  0  0  0  0  0  0  0  0  0  0
    1.2143   -7.6547   -1.0301 C   0  0  0  0  0  0  0  0  0  0  0  0
    1.8350   -9.9550   -2.6219 C   0  0  0  0  0  0  0  0  0  0  0  0
    2.5459   -8.4031   -0.9343 C   0  0  0  0  0  0  0  0  0  0  0  0
   -0.2982   -8.7607   -7.3148 C   0  0  0  0  0  0  0  0  0  0  0  0
    1.3004   -8.7224   -5.6122 C   0  0  0  0  0  0  0  0  0  0  0  0
    3.9350   -6.9328   -5.5449 C   0  0  0  0  0  0  0  0  0  0  0  0
    5.1856   -8.9641   -4.3413 C   0  0  0  0  0  0  0  0  0  0  0  0
    0.6196   -7.8033   -2.4456 C   0  0  0  0  0  0  0  0  0  0  0  0
    1.0324   -8.8694   -7.0877 C   0  0  0  0  0  0  0  0  0  0  0  0
   -0.7425   -9.0440   -8.5705 C   0  0  0  0  0  0  0  0  0  0  0  0
    1.9980   -9.0180   -8.1758 C   0  0  0  0  0  0  0  0  0  0  0  0
    3.8980   -8.1603   -4.5122 C   0  0  0  0  0  0  0  0  0  0  0  0
    1.6069   -7.2780   -3.5285 C   0  0  1  0  0  0  0  0  0  0  0  0
    3.0417   -7.8666   -3.2400 C   0  0  1  0  0  0  0  0  0  0  0  0
   -2.1319   -9.6261   -8.6330 C   0  0  0  0  0  0  0  0  0  0  0  0
    0.9437   -7.4669   -4.8640 N   0  0  0  0  0  0  0  0  0  0  0  0
    2.8930   -8.9833   -2.2366 N   0  0  0  0  0  0  0  0  0  0  0  0
    3.3656   -9.0922   -7.9534 O   0  0  0  0  0  0  0  0  0  0  0  0
  7  5  2  0
  8  5  1  0
  9  6  2  0
 10  6  1  0
 11  7  1  0
 12  8  2  0
 13  9  1  0
 14 10  2  0
 16 15  2  0
 19 17  1  0
 20 18  1  0
 23 11  2  0
 23 12  1  0
 24 13  2  0
 24 14  1  0
 25 17  1  0
 25 18  1  0
 26 21  1  0
 26 22  1  0
 27 15  1  0
 27 21  2  0
 28 16  1  0
 28 26  2  0
 29 23  1  0
 29 24  1  0
 30 25  1  0
 30 33  1  6
 31 30  1  0
 31 29  1  6
 32  1  1  0
 32  2  1  0
 32  3  1  0
 32 27  1  0
 33 22  1  0
 34 19  1  0
 34 20  1  0
 34 31  1  0
 35  4  1  0
 35 28  1  0
M  END
>  <DRUGBANK_ID>  (1) 
DB11427

>  <COMMON_NAME>  (1) 
Maropitant

>  <CAS_NUMBER>  (1) 
147116-67-4

>  <UNII>  (1) 
4XE2T9H4DH

>  <SYNONYMS>  (1) 
Maropitant

$$$$
