
     RDKit          3D

 26 29  0  0  0  0  0  0  0  0999 V2000
   -5.4196   -2.7678    1.7163 C   0  0  0  0  0  0  0  0  0  0  0  0
   -3.3110   -5.1103    0.0393 C   0  0  0  0  0  0  0  0  0  0  0  0
   -3.8222   -1.7759    3.5607 C   0  0  1  0  0  0  0  0  0  0  0  0
   -2.1179   -0.9983    1.9161 C   0  0  0  0  0  0  0  0  0  0  0  0
   -4.3445   -3.0185    2.8993 C   0  0  0  0  0  0  0  0  0  0  0  0
   -1.4818   -4.9056    2.6391 C   0  0  1  0  0  0  0  0  0  0  0  0
   -1.3954   -2.3050    2.2079 C   0  0  0  0  0  0  0  0  0  0  0  0
   -2.6485   -6.4361    1.0927 C   0  0  0  0  0  0  0  0  0  0  0  0
   -1.2312   -6.3161    2.1797 C   0  0  0  0  0  0  0  0  0  0  0  0
   -0.0442   -4.4966    2.7692 C   0  0  0  0  0  0  0  0  0  0  0  0
   -0.1649   -6.9897    2.9884 C   0  0  0  0  0  0  0  0  0  0  0  0
    0.5736   -4.6667    3.9343 C   0  0  0  0  0  0  0  0  0  0  0  0
   -3.3314   -3.8756    0.8861 C   0  0  1  0  0  0  0  0  0  0  0  0
   -1.8720   -3.7525    1.5481 C   0  0  2  0  0  0  0  0  0  0  0  0
   -3.6146   -1.2077    2.1040 C   0  0  2  0  0  0  0  0  0  0  0  0
   -4.4993    0.0833    2.1945 C   0  0  0  0  0  0  0  0  0  0  0  0
   -4.1698   -2.3666    0.9237 C   0  0  2  0  0  0  0  0  0  0  0  0
    2.3109   -6.0828    3.2285 O   0  0  0  0  0  0  0  0  0  0  0  0
    1.1693   -5.9414    3.4115 C   0  0  0  0  0  0  0  0  0  0  0  0
   -2.4181   -5.4385    3.8553 C   0  0  0  0  0  0  0  0  0  0  0  0
   -2.5708   -1.4093    4.3085 O   0  0  0  0  0  0  0  0  0  0  0  0
   -3.9039   -2.6700    4.7802 C   0  0  0  0  0  0  0  0  0  0  0  0
   -0.5264   -2.2099    3.0900 O   0  0  0  0  0  0  0  0  0  0  0  0
   -3.0762   -3.4474    5.2560 O   0  0  0  0  0  0  0  0  0  0  0  0
   -5.0674   -2.2611    5.5490 C   0  0  0  0  0  0  0  0  0  0  0  0
   -4.7258   -0.8802    5.7255 O   0  0  0  0  0  0  0  0  0  0  0  0
  2  8  1  0
  3  5  1  0
  3 22  1  0
  3 21  1  6
  4  7  1  0
  5  1  1  0
  6  9  1  0
  6 10  1  0
  6 20  1  1
  7 23  2  0
  8  9  1  0
  9 11  2  0
 10 12  2  0
 11 19  1  0
 12 19  1  0
 13 14  1  0
 13  2  1  6
 14  6  1  0
 14  7  1  1
 15  3  1  0
 15  4  1  0
 15 16  1  1
 17 13  1  0
 17 15  1  0
 17  1  1  1
 19 18  2  0
 24 22  2  0
 25 22  1  0
 26 25  1  0
M  END
>  <DRUGBANK_ID>  (1) 
DB00635

>  <SECONDARY_ACCESSION_NUMBERS>  (1) 
APRD00340

>  <COMMON_NAME>  (1) 
Prednisone

>  <CAS_NUMBER>  (1) 
53-03-2

>  <UNII>  (1) 
VB0R961HZT

>  <SYNONYMS>  (1) 
1,2-Dehydrocortisone; 1,4-Pregnadiene-17Î±,21-diol-3,11,20-trione; 17,21-Dihydroxypregna-1,4-diene-3,11,20-trione; Dehydrocortisone; Prednisona; Prednisone; Prednisonum

$$$$
