
     RDKit          3D

 35 40  0  0  0  0  0  0  0  0999 V2000
    3.0764   -0.4176   -0.5377 C   0  0  0  0  0  0  0  0  0  0  0  0
    4.0350    0.5942   -0.3755 C   0  0  0  0  0  0  0  0  0  0  0  0
    3.7177    1.8059    0.1810 C   0  0  0  0  0  0  0  0  0  0  0  0
    2.4118    2.0773    0.5310 C   0  0  0  0  0  0  0  0  0  0  0  0
    1.4369    1.1113    0.4081 C   0  0  0  0  0  0  0  0  0  0  0  0
    1.7271   -0.1698   -0.0847 C   0  0  0  0  0  0  0  0  0  0  0  0
    4.8865    2.5740    0.1957 C   0  0  0  0  0  0  0  0  0  0  0  0
    5.8963    1.8999   -0.3701 N   0  0  0  0  0  0  0  0  0  0  0  0
    5.3650    0.6338   -0.7083 O   0  0  0  0  0  0  0  0  0  0  0  0
    3.4404   -1.5725   -1.1166 F   0  0  0  0  0  0  0  0  0  0  0  0
    0.6397   -1.0815   -0.1753 N   0  0  0  0  0  0  0  0  0  0  0  0
   -0.6143   -0.7554    0.6104 C   0  0  1  0  0  0  0  0  0  0  0  0
   -1.0414    0.7057    0.3376 C   0  0  0  0  0  0  0  0  0  0  0  0
    0.0879    1.5728    0.8561 C   0  0  0  0  0  0  0  0  0  0  0  0
    1.0230   -2.4813   -0.0921 C   0  0  0  0  0  0  0  0  0  0  0  0
   -0.1480   -3.4144   -0.4021 C   0  0  2  0  0  0  0  0  0  0  0  0
   -1.2557   -3.1551    0.4609 O   0  0  0  0  0  0  0  0  0  0  0  0
   -1.7397   -1.8018    0.3033 C   0  0  1  0  0  0  0  0  0  0  0  0
   -2.4801    1.2916   -1.5804 N   0  0  0  0  0  0  0  0  0  0  0  0
   -1.2330    0.9553   -1.1544 C   0  0  0  0  0  0  0  0  0  0  0  0
   -2.2319    1.1347    1.1734 C   0  0  0  0  0  0  0  0  0  0  0  0
   -3.4084    1.3742    0.5254 N   0  0  0  0  0  0  0  0  0  0  0  0
   -3.5691    1.5243   -0.8124 C   0  0  0  0  0  0  0  0  0  0  0  0
   -2.9466   -1.7285    1.2453 C   0  0  0  0  0  0  0  0  0  0  0  0
   -0.3526    0.8886   -2.0089 O   0  0  0  0  0  0  0  0  0  0  0  0
   -4.6385    1.8701   -1.2982 O   0  0  0  0  0  0  0  0  0  0  0  0
   -2.1927    1.2157    2.4024 O   0  0  0  0  0  0  0  0  0  0  0  0
    0.3931   -4.8225   -0.1764 C   0  0  0  0  0  0  0  0  0  0  0  0
    4.9121    3.8442    0.7690 N   0  0  0  0  0  0  0  0  0  0  0  0
    5.0328    4.9588   -0.0395 C   0  0  0  0  0  0  0  0  0  0  0  0
    4.6650    6.0795    0.6689 O   0  0  0  0  0  0  0  0  0  0  0  0
    4.2654    5.7144    1.9916 C   0  0  0  0  0  0  0  0  0  0  0  0
    4.3006    4.2037    2.0259 C   0  0  2  0  0  0  0  0  0  0  0  0
    5.3449    5.0084   -1.2088 O   0  0  0  0  0  0  0  0  0  0  0  0
    5.1016    3.6329    3.1788 C   0  0  0  0  0  0  0  0  0  0  0  0
  1  2  2  0
  1  6  1  0
  1 10  1  0
  2  3  1  0
  2  9  1  0
  3  4  2  0
  3  7  1  0
  4  5  1  0
  5  6  2  0
  6 11  1  0
  7  8  2  0
  7 29  1  0
  8  9  1  0
 11 15  1  0
 12 13  1  6
 12 11  1  0
 13 14  1  0
 13 21  1  0
 14  5  1  0
 15 16  1  0
 16 17  1  0
 16 28  1  1
 17 18  1  0
 18 12  1  0
 18 24  1  1
 19 20  1  0
 20 13  1  0
 20 25  2  0
 21 22  1  0
 21 27  2  0
 22 23  1  0
 23 19  1  0
 23 26  2  0
 29 30  1  0
 29 33  1  0
 30 31  1  0
 30 34  2  0
 31 32  1  0
 32 33  1  0
 33 35  1  1
M  END
>  <DRUGBANK_ID>  (1) 
DB12817

>  <COMMON_NAME>  (1) 
Zoliflodacin

>  <CAS_NUMBER>  (1) 
1620458-09-4

>  <UNII>  (1) 
FWL2263R77

>  <SYNONYMS>  (1) 
Zoliflodacin

$$$$
