
     RDKit          3D

 31 35  0  0  1  0  0  0  0  0999 V2000
   -2.0757    0.4534   -3.5195 C   0  0  0  0  0  0  0  0  0  0  0  0
   -1.5283   -0.8648   -3.7755 N   0  0  0  0  0  0  0  0  0  0  0  0
   -0.2007   -1.2130   -3.8903 C   0  0  0  0  0  0  0  0  0  0  0  0
   -0.1239   -2.5938   -3.8078 C   0  0  0  0  0  0  0  0  0  0  0  0
   -1.5009   -2.9728   -3.9068 C   0  0  0  0  0  0  0  0  0  0  0  0
   -2.3467   -1.9310   -3.8403 N   0  0  0  0  0  0  0  0  0  0  0  0
    1.1578   -3.4155   -3.9556 C   0  0  0  0  0  0  0  0  0  0  0  0
    2.3203   -3.7687   -3.1988 C   0  0  0  0  0  0  0  0  0  0  0  0
    3.3109   -4.1598   -4.1322 C   0  0  0  0  0  0  0  0  0  0  0  0
    4.6858   -4.5017   -3.9493 C   0  0  0  0  0  0  0  0  0  0  0  0
    5.1183   -5.7322   -4.5526 C   0  0  0  0  0  0  0  0  0  0  0  0
    4.3988   -6.2866   -5.5947 C   0  0  0  0  0  0  0  0  0  0  0  0
    3.1930   -5.6867   -5.8402 C   0  0  0  0  0  0  0  0  0  0  0  0
    2.5656   -4.7085   -5.1173 C   0  0  0  0  0  0  0  0  0  0  0  0
    1.3222   -4.1276   -5.1385 N   0  0  0  0  0  0  0  0  0  0  0  0
    4.8546   -7.3443   -6.4322 N   0  0  0  0  0  0  0  0  0  0  0  0
    4.3276   -7.8635   -7.6129 C   0  0  0  0  0  0  0  0  0  0  0  0
    5.0098   -8.7295   -8.2185 O   0  0  0  0  0  0  0  0  0  0  0  0
    2.9382   -7.4295   -8.2221 C   0  0  1  0  0  0  0  0  0  0  0  0
    1.7652   -7.7889   -7.2033 C   0  0  0  0  0  0  0  0  0  0  0  0
    1.0907   -9.1074   -7.5320 C   0  0  0  0  0  0  0  0  0  0  0  0
    0.0140   -9.4284   -6.4836 C   0  0  0  0  0  0  0  0  0  0  0  0
   -1.0029   -8.2980   -6.2931 C   0  0  0  0  0  0  0  0  0  0  0  0
   -0.3042   -7.0110   -5.9327 C   0  0  0  0  0  0  0  0  0  0  0  0
    0.6402   -6.7164   -7.0852 C   0  0  0  0  0  0  0  0  0  0  0  0
    3.0450   -6.0240   -8.7496 N   0  0  0  0  0  0  0  0  0  0  0  0
    5.3190   -3.9664   -2.6766 C   0  0  0  0  0  0  0  0  0  0  0  0
    5.4581   -2.8129   -2.2191 O   0  0  0  0  0  0  0  0  0  0  0  0
    5.0965   -4.9213   -1.7496 N   0  0  0  0  0  0  0  0  0  0  0  0
    3.6333   -4.9147   -1.4198 N   0  0  0  0  0  0  0  0  0  0  0  0
    2.8830   -3.8637   -1.8228 C   0  0  0  0  0  0  0  0  0  0  0  0
  1  2  1  0
  2  3  1  0
  2  6  1  0
  3  4  2  0
  4  5  1  0
  4  7  1  0
  5  6  2  0
  7  8  2  0
  7 15  1  0
  8  9  1  0
  8 31  1  0
  9 10  1  0
  9 14  2  0
 10 11  2  0
 10 27  1  0
 11 12  1  0
 12 13  2  0
 12 16  1  0
 13 14  1  0
 14 15  1  0
 16 17  1  0
 17 18  2  0
 17 19  1  0
 19 20  1  0
 19 26  1  1
 20 21  1  0
 20 25  1  0
 21 22  1  0
 22 23  1  0
 23 24  1  0
 24 25  1  0
 27 28  2  0
 27 29  1  0
 29 30  1  0
 30 31  2  0
M  END
>  <DRUGBANK_ID>  (1) 
DB12611

>  <COMMON_NAME>  (1) 
PF-477736

>  <CAS_NUMBER>  (1) 
952021-60-2

>  <UNII>  (1) 
XO23PGZ0SM

$$$$
