
     RDKit          3D

 17 18  0  0  0  0  0  0  0  0999 V2000
    0.8601    0.1506   -0.1372 C   0  0  0  0  0  0  0  0  0  0  0  0
    0.4121   -1.2459   -0.5610 C   0  0  0  0  0  0  0  0  0  0  0  0
    0.9853   -2.4594    0.2468 C   0  0  0  0  0  0  0  0  0  0  0  0
    2.4594   -2.5802   -0.1859 C   0  0  0  0  0  0  0  0  0  0  0  0
    3.3207   -1.7323    0.0552 O   0  0  0  0  0  0  0  0  0  0  0  0
    2.8229   -3.6462   -0.9535 N   0  0  0  0  0  0  0  0  0  0  0  0
    2.0903   -4.7594   -1.1996 C   0  0  0  0  0  0  0  0  0  0  0  0
    2.5486   -5.7062   -1.8206 O   0  0  0  0  0  0  0  0  0  0  0  0
    0.8193   -4.7598   -0.7328 N   0  0  0  0  0  0  0  0  0  0  0  0
    0.1555   -3.6878   -0.2155 C   0  0  0  0  0  0  0  0  0  0  0  0
   -1.0697   -3.7739   -0.0865 O   0  0  0  0  0  0  0  0  0  0  0  0
    0.8509   -2.3603    1.8010 C   0  0  0  0  0  0  0  0  0  0  0  0
    0.2133   -3.2914    2.5482 C   0  0  0  0  0  0  0  0  0  0  0  0
   -0.0846   -3.1782    4.0102 C   0  0  0  0  0  0  0  0  0  0  0  0
    0.1409   -1.7762    4.5523 C   0  0  0  0  0  0  0  0  0  0  0  0
    1.4639   -1.2296    4.0415 C   0  0  0  0  0  0  0  0  0  0  0  0
    1.4220   -1.1456    2.5202 C   0  0  0  0  0  0  0  0  0  0  0  0
  1  2  1  0
  2  3  1  0
  3  4  1  0
  3 10  1  0
  3 12  1  0
  4  5  2  0
  4  6  1  0
  6  7  1  0
  7  8  2  0
  7  9  1  0
  9 10  1  0
 10 11  2  0
 12 13  2  0
 12 17  1  0
 13 14  1  0
 14 15  1  0
 15 16  1  0
 16 17  1  0
M  END
>  <DRUGBANK_ID>  (1) 
DB13737

>  <COMMON_NAME>  (1) 
Cyclobarbital

>  <CAS_NUMBER>  (1) 
52-31-3

>  <UNII>  (1) 
0M8A98AD9H

>  <SYNONYMS>  (1) 
Cyclobarbital

$$$$
