HE1
     RDKit          3D

 16 16  0  0  0  0  0  0  0  0999 V2000
    1.0762   -0.0233   -0.0605 P   0  0  0  0  0  0  0  0  0  0  0  0
    1.2582    1.2022    1.0203 O   0  0  0  0  0  0  0  0  0  0  0  0
    1.1826    0.8526   -1.4511 O   0  0  0  0  0  0  0  0  0  0  0  0
   -0.4722   -0.0233   -0.0605 O   0  0  0  0  0  0  0  0  0  0  0  0
    2.9062   -0.0233   -0.0605 C   0  0  0  0  0  0  0  0  0  0  0  0
    3.6646   -1.0643   -0.4511 C   0  0  0  0  0  0  0  0  0  0  0  0
    5.5067   -1.9482    1.0879 C   0  0  0  0  0  0  0  0  0  0  0  0
    5.1434   -1.1765   -0.1990 C   0  0  0  0  0  0  0  0  0  0  0  0
    5.0113   -3.7191    1.1859 S   0  0  0  0  0  0  0  0  0  0  0  0
    3.2329   -6.1293    0.9997 O   0  0  0  0  0  0  0  0  0  0  0  0
    0.3895   -3.8416    1.2389 C   0  0  0  0  0  0  0  0  0  0  0  0
    1.1281   -5.0161    1.1189 C   0  0  0  0  0  0  0  0  0  0  0  0
    2.5293   -4.9611    1.1566 C   0  0  0  0  0  0  0  0  0  0  0  0
    3.2192   -3.7599    1.3579 C   0  0  0  0  0  0  0  0  0  0  0  0
    2.4426   -2.6368    1.6660 C   0  0  0  0  0  0  0  0  0  0  0  0
    1.0456   -2.6706    1.5471 C   0  0  0  0  0  0  0  0  0  0  0  0
  1  2  1  0
  1  3  1  0
  1  4  2  0
  1  5  1  0
  5  6  2  0
  6  8  1  0
  7  8  1  0
  7  9  1  0
  9 14  1  0
 10 13  1  0
 11 12  2  0
 11 16  1  0
 12 13  1  0
 13 14  2  0
 14 15  1  0
 15 16  2  0
M  END
>  <DRUGBANK_ID>  (1) 
DB07890

>  <COMMON_NAME>  (1) 
4-(2-HYDROXYPHENYLTHIO)-1-BUTENYLPHOSPHONIC ACID

$$$$
