
     RDKit          3D

 19 20  0  0  0  0  0  0  0  0999 V2000
    1.2631   -0.1120   -0.1953 C   0  0  0  0  0  0  0  0  0  0  0  0
    1.6580    1.4448    1.7419 C   0  0  0  0  0  0  0  0  0  0  0  0
   -1.4021   -2.4662    4.1985 C   0  0  0  0  0  0  0  0  0  0  0  0
   -5.2729    0.5279    0.6907 C   0  0  0  0  0  0  0  0  0  0  0  0
   -4.9334   -0.7776    1.0772 C   0  0  0  0  0  0  0  0  0  0  0  0
   -4.6573    1.6416    1.2672 C   0  0  0  0  0  0  0  0  0  0  0  0
   -3.0571   -0.4460    4.1120 C   0  0  0  0  0  0  0  0  0  0  0  0
   -0.7516    0.5965    2.7844 C   0  0  0  0  0  0  0  0  0  0  0  0
   -1.7361    2.8637    2.5759 C   0  0  0  0  0  0  0  0  0  0  0  0
    1.0047    0.1652    1.2632 C   0  0  0  0  0  0  0  0  0  0  0  0
   -2.6023   -1.6921    3.7193 C   0  0  0  0  0  0  0  0  0  0  0  0
   -0.8699    1.9765    3.4571 C   0  0  0  0  0  0  0  0  0  0  0  0
   -3.7102    0.1689    2.9642 C   0  0  0  0  0  0  0  0  0  0  0  0
   -4.0802   -0.9199    2.1795 C   0  0  0  0  0  0  0  0  0  0  0  0
   -3.8049    1.4919    2.3728 C   0  0  0  0  0  0  0  0  0  0  0  0
   -0.4059    0.3019    1.4117 N   0  0  0  0  0  0  0  0  0  0  0  0
   -3.3808   -2.0487    2.6247 N   0  0  0  0  0  0  0  0  0  0  0  0
   -1.4458    1.9506    4.7750 O   0  0  0  0  0  0  0  0  0  0  0  0
   -3.1681    2.6608    2.8240 O   0  0  0  0  0  0  0  0  0  0  0  0
  5  4  2  0
  6  4  1  0
 10  1  1  0
 10  2  1  0
 11  3  1  0
 11  7  2  0
 12  8  1  0
 12  9  1  0
 13  7  1  0
 14  5  1  0
 14 13  2  0
 15  6  2  0
 15 13  1  0
 16  8  1  0
 16 10  1  0
 17 11  1  0
 17 14  1  0
 18 12  1  0
 19  9  1  0
 19 15  1  0
M  END
>  <DRUGBANK_ID>  (1) 
DB13530

>  <COMMON_NAME>  (1) 
Mepindolol

>  <CAS_NUMBER>  (1) 
23694-81-7

>  <UNII>  (1) 
00Q31ER368

>  <SYNONYMS>  (1) 
Mepindolol; Mepindololum

$$$$
