
     RDKit          3D

 22 23  0  0  1  0  0  0  0  0999 V2000
   -0.7865    1.1407    0.0544 C   0  0  0  0  0  0  0  0  0  0  0  0
   -1.4340   -0.0849   -0.0287 C   0  0  0  0  0  0  0  0  0  0  0  0
    0.5986    1.1820   -0.0079 C   0  0  0  0  0  0  0  0  0  0  0  0
    0.7141   -1.1702    0.0028 C   0  0  0  0  0  0  0  0  0  0  0  0
    3.9607   -2.6441   -1.2361 C   0  0  0  0  0  0  0  0  0  0  0  0
   -0.6797   -1.2565   -0.0553 C   0  0  0  0  0  0  0  0  0  0  0  0
    4.4537   -1.2004   -1.0933 C   0  0  2  0  0  0  0  0  0  0  0  0
    4.8896   -0.7219    0.3188 C   0  0  2  0  0  0  0  0  0  0  0  0
    3.5637   -0.3815    0.9981 C   0  0  2  0  0  0  0  0  0  0  0  0
    2.7995    0.1729   -0.1864 C   0  0  2  0  0  0  0  0  0  0  0  0
   -1.2993   -2.5898   -0.1798 C   0  0  0  0  0  0  0  0  0  0  0  0
    1.3291    0.0432   -0.0429 N   0  0  0  0  0  0  0  0  0  0  0  0
    5.7190    0.4429    0.3526 O   0  0  0  0  0  0  0  0  0  0  0  0
    3.6734    0.6086    2.0198 O   0  0  0  0  0  0  0  0  0  0  0  0
   -0.6807   -3.6425   -0.1923 O   0  0  0  0  0  0  0  0  0  0  0  0
   -2.6306   -2.5407   -0.3282 O   0  0  0  0  0  0  0  0  0  0  0  0
    3.6734   -4.3831    1.8926 O   0  0  0  0  0  0  0  0  0  0  0  0
    5.4321   -4.2606    0.0436 O   0  0  0  0  0  0  0  0  0  0  0  0
    5.9185   -3.7472    2.1639 O   0  0  0  0  0  0  0  0  0  0  0  0
    3.5125   -3.0977    0.0339 O   0  0  0  0  0  0  0  0  0  0  0  0
    3.2692   -0.4003   -1.4022 O   0  0  0  0  0  0  0  0  0  0  0  0
    4.7822   -3.4405    1.1579 P   0  0  2  0  0  0  0  0  0  0  0  0
  2  1  2  0
  3  1  1  0
  6  2  1  0
  6  4  2  0
  7  5  1  1
  8  7  1  0
  8 13  1  6
  9  8  1  0
  9 14  1  1
 10  9  1  0
 10 12  1  1
 11  6  1  0
 12  3  2  0
 12  4  1  0
 15 11  2  0
 16 11  1  0
 20  5  1  0
 21  7  1  0
 21 10  1  0
 22 17  1  1
 22 18  1  0
 22 19  2  0
 22 20  1  0
M  CHG  2  12   1  18  -1
M  END
>  <DRUGBANK_ID>  (1) 
DB02382

>  <SECONDARY_ACCESSION_NUMBERS>  (1) 
EXPT02312

>  <COMMON_NAME>  (1) 
Namn

$$$$
