
     RDKit          3D

 31 32  0  0  1  0  0  0  0  0999 V2000
   -5.1832   -8.0304    6.2629 C   0  0  0  0  0  0  0  0  0  0  0  0
   -5.6179   -7.6274    4.8796 C   0  0  0  0  0  0  0  0  0  0  0  0
   -4.9657   -6.2854    4.6583 C   0  0  0  0  0  0  0  0  0  0  0  0
   -3.3943   -6.3875    4.5429 C   0  0  0  0  0  0  0  0  0  0  0  0
   -2.6978   -7.4439    3.5636 C   0  0  0  0  0  0  0  0  0  0  0  0
   -2.8686   -7.5259    2.0245 C   0  0  0  0  0  0  0  0  0  0  0  0
   -2.3277   -6.4539    1.0198 C   0  0  0  0  0  0  0  0  0  0  0  0
   -0.7276   -5.1100   -0.2356 C   0  0  0  0  0  0  0  0  0  0  0  0
   -8.6005   -4.5027   -0.3297 C   0  0  0  0  0  0  0  0  0  0  0  0
   -5.0398   -2.8692   -0.9516 C   0  0  0  0  0  0  0  0  0  0  0  0
   -0.9592   -5.8774    1.0966 C   0  0  2  0  0  0  0  0  0  0  0  0
   -1.7524   -4.0048   -0.7244 C   0  0  2  0  0  0  0  0  0  0  0  0
   -7.2243   -4.7769    0.2226 C   0  0  2  0  0  0  0  0  0  0  0  0
   -6.5840   -6.1440   -0.2330 C   0  0  2  0  0  0  0  0  0  0  0  0
   -1.5234   -2.6057   -0.1863 C   0  0  2  0  0  0  0  0  0  0  0  0
   -5.1263   -6.3163    0.2269 C   0  0  1  0  0  0  0  0  0  0  0  0
   -5.0350   -5.6001    1.6334 C   0  0  2  0  0  0  0  0  0  0  0  0
   -2.9012   -1.9388   -0.2545 C   0  0  1  0  0  0  0  0  0  0  0  0
   -5.4918   -4.1722    1.7217 C   0  0  2  0  0  0  0  0  0  0  0  0
   -3.8804   -3.0894   -0.0190 C   0  0  2  0  0  0  0  0  0  0  0  0
   -8.9471   -3.1496    0.0091 O   0  0  0  0  0  0  0  0  0  0  0  0
   -5.4040   -4.1535   -1.3811 O   0  0  0  0  0  0  0  0  0  0  0  0
   -0.1058   -6.9989    1.2179 O   0  0  0  0  0  0  0  0  0  0  0  0
   -6.6610   -6.3451   -1.6620 O   0  0  0  0  0  0  0  0  0  0  0  0
   -0.5793   -1.9298   -1.0106 O   0  0  0  0  0  0  0  0  0  0  0  0
   -4.7691   -7.7126   -0.0012 O   0  0  0  0  0  0  0  0  0  0  0  0
   -3.9108   -5.4362    2.4693 O   0  0  0  0  0  0  0  0  0  0  0  0
   -3.0709   -0.8449    0.6271 O   0  0  0  0  0  0  0  0  0  0  0  0
   -6.8963   -4.1557    1.4693 O   0  0  0  0  0  0  0  0  0  0  0  0
   -3.1410   -4.2536   -0.4811 O   0  0  0  0  0  0  0  0  0  0  0  0
   -4.4274   -3.1868    1.3252 O   0  0  0  0  0  0  0  0  0  0  0  0
  2  1  1  0
  3  2  1  0
  4  3  1  0
  5  4  1  0
  6  5  1  0
  7  6  1  0
 11 23  1  6
 11  8  1  0
 11  7  1  0
 12  8  1  1
 13  9  1  1
 14 13  1  0
 14 24  1  6
 15 12  1  0
 15 25  1  6
 16 14  1  0
 16 26  1  1
 17 16  1  0
 17 27  1  6
 18 15  1  0
 18 28  1  1
 19 17  1  0
 19 31  1  6
 20 10  1  6
 20 18  1  0
 20 31  1  0
 21  9  1  0
 22 10  1  0
 29 13  1  0
 29 19  1  0
 30 12  1  0
 30 20  1  0
M  END
>  <DRUGBANK_ID>  (1) 
DB01998

>  <SECONDARY_ACCESSION_NUMBERS>  (1) 
EXPT02980

>  <COMMON_NAME>  (1) 
2-[3,4-Dihydroxy-2-Hydroxymethyl-5-(2-Hydroxy-Nonyl)-Tetrahydro-Furan-2-Yloxy]-6-Hydroxymethyl-Tetra Hydro-Pyran-3,4,5-Triol

$$$$
