1484
     RDKit          3D

 15 15  0  0  1  0  0  0  0  0999 V2000
   -1.5807    0.5348   -0.0227 Br  0  0  0  0  0  0  0  0  0  0  0  0
    3.0496    2.5093    0.1661 O   0  0  0  0  0  0  0  0  0  0  0  0
    0.3463   -2.3659   -0.0240 O   0  0  0  0  0  0  0  0  0  0  0  0
    4.6128    1.6145   -2.1681 N   0  0  0  0  0  0  0  0  0  0  0  0
    4.5856   -0.1206   -0.1573 C   0  0  0  0  0  0  0  0  0  0  0  0
    5.1675    0.4127   -1.5137 C   0  0  0  0  0  0  0  0  0  0  0  0
    3.1031    0.0217    0.0226 C   0  0  0  0  0  0  0  0  0  0  0  0
    2.4784    1.2670    0.1438 C   0  0  0  0  0  0  0  0  0  0  0  0
    6.6795    0.5846   -1.3189 C   0  0  0  0  0  0  0  0  0  0  0  0
    2.2982   -1.1452    0.0023 C   0  0  0  0  0  0  0  0  0  0  0  0
    0.8903   -1.1115    0.0110 C   0  0  0  0  0  0  0  0  0  0  0  0
    1.0843    1.3043    0.0939 C   0  0  0  0  0  0  0  0  0  0  0  0
    0.2830    0.1513    0.0313 C   0  0  0  0  0  0  0  0  0  0  0  0
    4.3703    2.7532    0.6412 C   0  0  0  0  0  0  0  0  0  0  0  0
   -1.0628   -2.5281   -0.0357 C   0  0  0  0  0  0  0  0  0  0  0  0
  1 13  1  0
  2  8  1  0
  2 14  1  0
  3 11  1  0
  3 15  1  0
  4  6  1  0
  5  6  1  0
  5  7  1  0
  6  9  1  0
  7  8  2  0
  7 10  1  0
  8 12  1  0
 10 11  2  0
 11 13  1  0
 12 13  2  0
M  END
>  <DRUGBANK_ID>  (1) 
DB01484

>  <COMMON_NAME>  (1) 
4-Bromo-2,5-dimethoxyamphetamine

>  <CAS_NUMBER>  (1) 
32156-26-6

>  <UNII>  (1) 
67WJC4Y2QY

$$$$
