
     RDKit          3D

 13 13  0  0  1  0  0  0  0  0999 V2000
   -0.7853   -0.5021   -0.5443 C   0  0  1  0  0  0  0  0  0  0  0  0
   -1.1277    0.6738    0.3867 C   0  0  1  0  0  0  0  0  0  0  0  0
    0.5551   -1.1380   -0.1623 C   0  0  1  0  0  0  0  0  0  0  0  0
    0.0638    1.6404    0.5157 C   0  0  1  0  0  0  0  0  0  0  0  0
   -0.2142    2.7259    1.5555 C   0  0  0  0  0  0  0  0  0  0  0  0
    1.6401   -0.0451   -0.1158 C   0  0  1  0  0  0  0  0  0  0  0  0
   -1.8261   -1.4841   -0.5182 O   0  0  0  0  0  0  0  0  0  0  0  0
   -2.2854    1.3620   -0.1051 O   0  0  0  0  0  0  0  0  0  0  0  0
    0.4114   -1.7866    1.1163 O   0  0  0  0  0  0  0  0  0  0  0  0
    0.3821    3.7933    1.6434 O   0  0  0  0  0  0  0  0  0  0  0  0
   -1.2027    2.4323    2.4218 O   0  0  0  0  0  0  0  0  0  0  0  0
    1.9309    0.5337   -1.3771 O   0  0  0  0  0  0  0  0  0  0  0  0
    1.2788    0.9591    0.8344 O   0  0  0  0  0  0  0  0  0  0  0  0
  1  7  1  1
  2  1  1  0
  2  8  1  6
  3  1  1  0
  3  9  1  1
  4  2  1  0
  4  5  1  1
  6  3  1  0
  6 12  1  6
 10  5  2  0
 11  5  1  0
 13  4  1  0
 13  6  1  0
M  END
>  <DRUGBANK_ID>  (1) 
DB01982

>  <SECONDARY_ACCESSION_NUMBERS>  (1) 
EXPT02116

>  <COMMON_NAME>  (1) 
D-Mannuronic Acid

>  <CAS_NUMBER>  (1) 
1986-14-7

$$$$
