OEV
     RDKit          3D

 20 20  0  0  0  0  0  0  0  0999 V2000
    0.9777   -1.4992    0.3255 C   0  0  1  0  0  0  0  0  0  0  0  0
    2.0654   -2.4238   -0.0228 N   0  0  0  0  0  0  0  0  0  0  0  0
    1.2269   -0.0760   -0.2387 C   0  0  2  0  0  0  0  0  0  0  0  0
    2.4485    0.5163    0.2369 O   0  0  0  0  0  0  0  0  0  0  0  0
    0.0529    0.8251    0.1984 C   0  0  1  0  0  0  0  0  0  0  0  0
    0.2705    2.1708   -0.2508 O   0  0  0  0  0  0  0  0  0  0  0  0
   -1.3310    0.3443   -0.3136 C   0  0  2  0  0  0  0  0  0  0  0  0
   -2.3272    0.8290    0.5750 O   0  0  0  0  0  0  0  0  0  0  0  0
   -1.4563   -1.1359   -0.3934 C   0  0  0  0  0  0  0  0  0  0  0  0
   -2.7228   -1.8130   -0.8786 C   0  0  0  0  0  0  0  0  0  0  0  0
   -3.7987   -1.6282    0.0191 O   0  0  0  0  0  0  0  0  0  0  0  0
   -0.3972   -1.8919   -0.1427 C   0  0  0  0  0  0  0  0  0  0  0  0
    1.9635   -3.7684    0.5626 C   0  0  0  0  0  0  0  0  0  0  0  0
    0.7267   -4.5486    0.1194 C   0  0  0  0  0  0  0  0  0  0  0  0
    0.6274   -4.5477   -1.4322 C   0  0  0  0  0  0  0  0  0  0  0  0
    1.7210   -5.4396   -1.9946 C   0  0  0  0  0  0  0  0  0  0  0  0
    1.5319   -6.8573   -1.4579 C   0  0  0  0  0  0  0  0  0  0  0  0
    0.1747   -7.4266   -1.8912 C   0  0  0  0  0  0  0  0  0  0  0  0
    0.0738   -7.4982   -3.4141 C   0  0  0  0  0  0  0  0  0  0  0  0
    1.1872   -8.3717   -3.9681 C   0  0  0  0  0  0  0  0  0  0  0  0
  1  2  1  6
  2 13  1  0
  3  1  1  0
  3  4  1  1
  5  3  1  0
  5  6  1  6
  7  5  1  0
  7  9  1  0
  7  8  1  1
  9 12  2  0
 10  9  1  0
 10 11  1  0
 12  1  1  0
 13 14  1  0
 14 15  1  0
 16 15  1  0
 17 16  1  0
 18 17  1  0
 19 18  1  0
 20 19  1  0
M  END
>  <DRUGBANK_ID>  (1) 
DB08321

>  <COMMON_NAME>  (1) 
(1S,2S,3R,6R)-4-(hydroxymethyl)-6-(octylamino)cyclohex-4-ene-1,2,3-triol

$$$$
