LZK
     RDKit          3D

 22 24  0  0  0  0  0  0  0  0999 V2000
    0.8351   -0.0374   -0.0687 N   0  0  0  0  0  0  0  0  0  0  0  0
    0.1482    0.0576   -1.2472 C   0  0  0  0  0  0  0  0  0  0  0  0
   -0.9603    0.8091   -1.2815 N   0  0  0  0  0  0  0  0  0  0  0  0
    0.6583   -0.6169   -2.2734 N   0  0  0  0  0  0  0  0  0  0  0  0
    0.0052   -0.4929   -3.4314 C   0  0  0  0  0  0  0  0  0  0  0  0
   -1.0814    0.3405   -3.5806 C   0  0  0  0  0  0  0  0  0  0  0  0
   -1.5864    0.9680   -2.4554 C   0  0  0  0  0  0  0  0  0  0  0  0
   -2.7116    1.7167   -2.5403 N   0  0  0  0  0  0  0  0  0  0  0  0
   -3.3815    1.8006   -3.7151 C   0  0  0  0  0  0  0  0  0  0  0  0
   -4.5903    2.5117   -3.7422 N   0  0  0  0  0  0  0  0  0  0  0  0
   -1.6875    0.5109   -4.8185 C   0  0  0  0  0  0  0  0  0  0  0  0
   -2.9041    1.1822   -4.8818 C   0  0  0  0  0  0  0  0  0  0  0  0
   -3.6013    1.2620   -6.1638 C   0  0  0  0  0  0  0  0  0  0  0  0
   -4.2729    0.1337   -6.7047 C   0  0  0  0  0  0  0  0  0  0  0  0
   -4.3171   -1.1636   -6.2409 O   0  0  0  0  0  0  0  0  0  0  0  0
   -3.7690   -1.5096   -4.9766 C   0  0  0  0  0  0  0  0  0  0  0  0
   -3.6805    2.5067   -6.8470 C   0  0  0  0  0  0  0  0  0  0  0  0
   -2.9974    3.6733   -6.5720 O   0  0  0  0  0  0  0  0  0  0  0  0
   -1.9000    3.6627   -5.6626 C   0  0  0  0  0  0  0  0  0  0  0  0
   -4.5985    2.6554   -7.8935 C   0  0  0  0  0  0  0  0  0  0  0  0
   -5.3207    1.5638   -8.3636 C   0  0  0  0  0  0  0  0  0  0  0  0
   -5.0613    0.2963   -7.8518 C   0  0  0  0  0  0  0  0  0  0  0  0
  1  2  1  0
  2  3  2  0
  2  4  1  0
  3  7  1  0
  4  5  2  0
  5  6  1  0
  6  7  2  0
  6 11  1  0
  7  8  1  0
  8  9  2  0
  9 10  1  0
  9 12  1  0
 11 12  2  0
 12 13  1  0
 13 14  2  0
 13 17  1  0
 14 15  1  0
 14 22  1  0
 15 16  1  0
 17 18  1  0
 17 20  2  0
 18 19  1  0
 20 21  1  0
 21 22  2  0
M  END
>  <DRUGBANK_ID>  (1) 
DB08145

>  <COMMON_NAME>  (1) 
6-(2,6-DIMETHOXYPHENYL)PYRIDO[2,3-D]PYRIMIDINE-2,7-DIAMINE

$$$$
