
     RDKit          3D

 41 44  0  0  1  0  0  0  0  0999 V2000
   -2.9241    3.3620    3.8226 C   0  0  0  0  0  0  0  0  0  0  0  0
   -2.9436    3.5692    2.3309 C   0  0  0  0  0  0  0  0  0  0  0  0
   -1.6091    6.7371   -5.0628 C   0  0  0  0  0  0  0  0  0  0  0  0
    1.6135    2.1862   -4.5591 C   0  0  0  0  0  0  0  0  0  0  0  0
   -2.3302    5.9699   -4.1601 C   0  0  0  0  0  0  0  0  0  0  0  0
   -0.2438    6.5361   -5.1597 C   0  0  0  0  0  0  0  0  0  0  0  0
    2.2797    3.0409   -3.6891 C   0  0  0  0  0  0  0  0  0  0  0  0
    1.0355    1.0256   -4.0539 C   0  0  0  0  0  0  0  0  0  0  0  0
   -1.9490    4.6423    1.9611 C   0  0  0  0  0  0  0  0  0  0  0  0
   -1.6771    5.1207   -3.2658 C   0  0  0  0  0  0  0  0  0  0  0  0
    0.4142    5.7091   -4.2379 C   0  0  0  0  0  0  0  0  0  0  0  0
    2.3597    2.7452   -2.3182 C   0  0  0  0  0  0  0  0  0  0  0  0
    0.9837    0.7996   -2.6675 C   0  0  0  0  0  0  0  0  0  0  0  0
    0.6912   10.0813   -1.8398 C   0  0  0  0  0  0  0  0  0  0  0  0
    1.7031    8.2328   -3.2231 C   0  0  0  0  0  0  0  0  0  0  0  0
    0.0537    2.9563    1.6081 C   0  0  0  0  0  0  0  0  0  0  0  0
    0.2395    9.1585   -0.7681 C   0  0  0  0  0  0  0  0  0  0  0  0
    1.3727    7.4661   -2.0118 C   0  0  0  0  0  0  0  0  0  0  0  0
    2.0624   11.8090   -3.8506 C   0  0  0  0  0  0  0  0  0  0  0  0
    0.8167   10.2245   -5.1064 C   0  0  0  0  0  0  0  0  0  0  0  0
    0.7390   12.4624   -3.4112 C   0  0  0  0  0  0  0  0  0  0  0  0
   -0.5273   10.7996   -4.6678 C   0  0  0  0  0  0  0  0  0  0  0  0
    1.1436    2.8494    0.8042 C   0  0  0  0  0  0  0  0  0  0  0  0
    0.3449    4.7301   -1.8091 C   0  0  0  0  0  0  0  0  0  0  0  0
   -0.2884    5.1332   -3.1650 C   0  0  0  0  0  0  0  0  0  0  0  0
   -0.4767    4.2373    2.2696 C   0  0  1  0  0  0  0  0  0  0  0  0
    1.8038    9.6593   -2.8365 C   0  0  0  0  0  0  0  0  0  0  0  0
    1.6385    1.6711   -1.7867 C   0  0  0  0  0  0  0  0  0  0  0  0
   -0.2896    5.2046   -0.4905 C   0  0  1  0  0  0  0  0  0  0  0  0
    0.5181    5.6946    0.7592 C   0  0  0  0  0  0  0  0  0  0  0  0
   -1.1212    7.2443   -1.1913 C   0  0  0  0  0  0  0  0  0  0  0  0
    0.4178    5.3299    1.9765 N   0  0  0  0  0  0  0  0  0  0  0  0
   -1.3801    6.1088   -0.7177 N   0  0  0  0  0  0  0  0  0  0  0  0
    1.9175   10.3843   -4.1160 N   0  0  0  0  0  0  0  0  0  0  0  0
    0.0775    7.8935   -1.4184 N   0  0  0  0  0  0  0  0  0  0  0  0
    1.4331    6.6338    0.5958 O   0  0  0  0  0  0  0  0  0  0  0  0
   -2.2423    7.9508   -1.4333 O   0  0  0  0  0  0  0  0  0  0  0  0
    2.9888    1.1164    0.3483 O   0  0  0  0  0  0  0  0  0  0  0  0
    0.5694    0.3894    0.2295 O   0  0  0  0  0  0  0  0  0  0  0  0
   -0.3932   12.1664   -4.2470 O   0  0  0  0  0  0  0  0  0  0  0  0
    1.5847    1.3706   -0.0013 S   0  0  0  0  0  0  0  0  0  0  0  0
  2  1  1  0
  5  3  2  0
  6  3  1  0
  7  4  2  0
  8  4  1  0
  9  2  1  0
 10  5  1  0
 11  6  2  0
 12  7  1  0
 13  8  2  0
 17 14  1  0
 18 15  1  0
 21 19  1  0
 22 20  1  0
 23 16  2  3
 23 41  1  0
 25 10  2  0
 25 11  1  0
 25 24  1  0
 26  9  1  6
 26 16  1  0
 26 32  1  0
 27 14  1  0
 27 15  1  0
 28 12  2  0
 28 13  1  0
 29 33  1  0
 29 30  1  0
 29 24  1  6
 30 36  1  0
 31 37  1  0
 32 30  2  3
 33 31  2  3
 34 19  1  0
 34 20  1  0
 34 27  1  0
 35 17  1  0
 35 18  1  0
 35 31  1  0
 40 21  1  0
 40 22  1  0
 41 28  1  0
 41 38  2  0
 41 39  2  0
M  END
>  <DRUGBANK_ID>  (1) 
DB02243

>  <SECONDARY_ACCESSION_NUMBERS>  (1) 
EXPT02269

>  <COMMON_NAME>  (1) 
4-Morpholin-4-Yl-Piperidine-1-Carboxylic Acid [1-(3-Benzenesulfonyl-1-Propyl-Allylcarbamoyl)-2-Phenylethyl]-Amide

$$$$
