PZZ
     RDKit          3D

 17 18  0  0  0  0  0  0  0  0999 V2000
   -2.3835   -0.2011    0.0030 C   0  0  0  0  0  0  0  0  0  0  0  0
   -1.5634   -1.3009   -0.0105 C   0  0  0  0  0  0  0  0  0  0  0  0
   -1.5984    0.8699    0.3019 N   0  0  0  0  0  0  0  0  0  0  0  0
    1.0372   -1.4673    0.0195 C   0  0  0  0  0  0  0  0  0  0  0  0
    2.1992   -0.6994   -0.0085 C   0  0  0  0  0  0  0  0  0  0  0  0
    2.1269    0.6907   -0.0172 C   0  0  0  0  0  0  0  0  0  0  0  0
    0.8978    1.3825    0.0464 C   0  0  0  0  0  0  0  0  0  0  0  0
   -0.2137   -0.8270    0.0477 C   0  0  0  0  0  0  0  0  0  0  0  0
   -0.2579    0.5646    0.1347 C   0  0  0  0  0  0  0  0  0  0  0  0
   -2.0253   -2.7111   -0.0227 C   0  0  0  0  0  0  0  0  0  0  0  0
   -2.8744   -2.9373    1.1615 N   0  0  0  0  0  0  0  0  0  0  0  0
   -3.3575   -4.3121    1.1439 C   0  0  0  0  0  0  0  0  0  0  0  0
   -2.1530   -2.6697    2.4118 C   0  0  0  0  0  0  0  0  0  0  0  0
    0.9211    2.8964    0.0034 C   0  0  0  0  0  0  0  0  0  0  0  0
    0.2219    3.5181   -1.2190 C   0  0  0  0  0  0  0  0  0  0  0  0
   -1.2626    3.2141   -1.3503 C   0  0  0  0  0  0  0  0  0  0  0  0
   -1.9858    3.4799   -0.1463 O   0  0  0  0  0  0  0  0  0  0  0  0
  1  3  1  0
  1  2  2  0
  2  8  1  0
  2 10  1  0
  3  9  1  0
  4  5  1  0
  4  8  2  0
  5  6  2  0
  6  7  1  0
  7 14  1  0
  7  9  2  0
  8  9  1  0
 10 11  1  0
 11 12  1  0
 11 13  1  0
 14 15  1  0
 15 16  1  0
 16 17  1  0
M  END
>  <DRUGBANK_ID>  (1) 
DB08447

>  <COMMON_NAME>  (1) 
3-{3-[(DIMETHYLAMINO)METHYL]-1H-INDOL-7-YL}PROPAN-1-OL

$$$$
