509
     RDKit          3D

 20 21  0  0  0  0  0  0  0  0999 V2000
    1.3713   -0.2029   -0.0119 C   0  0  0  0  0  0  0  0  0  0  0  0
    0.4903   -1.2791   -0.0391 C   0  0  0  0  0  0  0  0  0  0  0  0
   -0.8834   -1.0466   -0.1511 C   0  0  0  0  0  0  0  0  0  0  0  0
   -1.3944    0.2650   -0.2187 C   0  0  0  0  0  0  0  0  0  0  0  0
   -0.5030    1.3320   -0.0853 C   0  0  0  0  0  0  0  0  0  0  0  0
    0.8749    1.1001   -0.0407 C   0  0  0  0  0  0  0  0  0  0  0  0
   -2.8484    0.4939   -0.2448 C   0  0  0  0  0  0  0  0  0  0  0  0
   -3.7435    0.1718    0.7495 C   0  0  0  0  0  0  0  0  0  0  0  0
   -5.1146    0.3946    0.3781 C   0  0  0  0  0  0  0  0  0  0  0  0
   -5.2043    1.0943   -0.8294 C   0  0  0  0  0  0  0  0  0  0  0  0
   -3.6358    1.2976   -1.5317 S   0  0  0  0  0  0  0  0  0  0  0  0
   -6.4039    1.6238   -1.4758 C   0  0  0  0  0  0  0  0  0  0  0  0
   -7.5713    1.5365   -1.0922 O   0  0  0  0  0  0  0  0  0  0  0  0
   -6.1671    2.3102   -2.6214 O   0  0  0  0  0  0  0  0  0  0  0  0
   -6.2746    0.0874    1.0256 O   0  0  0  0  0  0  0  0  0  0  0  0
   -6.1915   -0.7503    2.1635 C   0  0  0  0  0  0  0  0  0  0  0  0
   -5.7134   -2.1912    1.9626 C   0  0  0  0  0  0  0  0  0  0  0  0
   -4.9360   -2.8118    2.6721 O   0  0  0  0  0  0  0  0  0  0  0  0
   -6.2576   -2.8036    0.8946 O   0  0  0  0  0  0  0  0  0  0  0  0
   -3.0368   -0.4059    2.4323 Br  0  0  0  0  0  0  0  0  0  0  0  0
  1  2  2  0
  1  6  1  0
  2  3  1  0
  3  4  2  0
  4  5  1  0
  4  7  1  0
  5  6  2  0
  7  8  2  0
  7 11  1  0
  8  9  1  0
  8 20  1  0
  9 10  2  0
  9 15  1  0
 10 11  1  0
 10 12  1  0
 12 13  2  0
 12 14  1  0
 15 16  1  0
 16 17  1  0
 17 18  2  0
 17 19  1  0
M  END
>  <DRUGBANK_ID>  (1) 
DB07130

>  <COMMON_NAME>  (1) 
4-BROMO-3-(CARBOXYMETHOXY)-5-PHENYLTHIOPHENE-2-CARBOXYLIC ACID

$$$$
