
     RDKit          3D

 30 32  0  0  0  0  0  0  0  0999 V2000
   -1.0994    0.5249    0.3340 N   0  0  0  0  0  0  0  0  0  0  0  0
   -2.2729    1.0658    0.7812 C   0  0  0  0  0  0  0  0  0  0  0  0
   -0.9561   -0.8837   -0.0744 C   0  0  1  0  0  0  0  0  0  0  0  0
   -2.4451    2.5300    0.9950 C   0  0  0  0  0  0  0  0  0  0  0  0
    0.1470    1.2470    0.0876 C   0  0  0  0  0  0  0  0  0  0  0  0
   -3.6799    3.3648   -0.0668 P   0  0  1  0  0  0  0  0  0  0  0  0
    0.5182   -1.1424    0.2653 C   0  0  0  0  0  0  0  0  0  0  0  0
    1.2314    0.1683   -0.1427 C   0  0  1  0  0  0  0  0  0  0  0  0
   -1.9256   -1.9608    0.3999 C   0  0  0  0  0  0  0  0  0  0  0  0
   -3.2602    0.3811    1.0753 O   0  0  0  0  0  0  0  0  0  0  0  0
   -2.6112    3.4778   -1.1626 O   0  0  0  0  0  0  0  0  0  0  0  0
   -1.6431   -3.0112    0.9711 O   0  0  0  0  0  0  0  0  0  0  0  0
    1.7913    0.1251   -1.5933 C   0  0  0  0  0  0  0  0  0  0  0  0
   -4.5713    2.0007   -0.3187 O   0  0  0  0  0  0  0  0  0  0  0  0
   -3.1853   -1.7174   -0.0287 O   0  0  0  0  0  0  0  0  0  0  0  0
   -4.9146    4.1996   -1.1286 C   0  0  0  0  0  0  0  0  0  0  0  0
   -4.5429    7.5036   -2.4858 C   0  0  0  0  0  0  0  0  0  0  0  0
    2.4553    1.4578   -1.9849 C   0  0  0  0  0  0  0  0  0  0  0  0
    0.7122   -0.2696   -2.6092 C   0  0  0  0  0  0  0  0  0  0  0  0
   -3.5693    6.8179   -1.5577 C   0  0  0  0  0  0  0  0  0  0  0  0
   -5.5638    6.7968   -3.1462 C   0  0  0  0  0  0  0  0  0  0  0  0
   -4.5058    8.8901   -2.6124 C   0  0  0  0  0  0  0  0  0  0  0  0
   -5.3875    5.4452   -0.3849 C   0  0  0  0  0  0  0  0  0  0  0  0
   -4.2353    6.4381   -0.2226 C   0  0  0  0  0  0  0  0  0  0  0  0
    1.1517   -0.2201   -4.0521 C   0  0  0  0  0  0  0  0  0  0  0  0
    2.8970    1.4702   -3.4462 C   0  0  0  0  0  0  0  0  0  0  0  0
   -5.5170    9.5528   -3.3062 C   0  0  0  0  0  0  0  0  0  0  0  0
   -6.5740    7.4541   -3.8359 C   0  0  0  0  0  0  0  0  0  0  0  0
   -6.5427    8.8367   -3.9249 C   0  0  0  0  0  0  0  0  0  0  0  0
    1.7422    1.1356   -4.3848 C   0  0  0  0  0  0  0  0  0  0  0  0
  2  1  1  0
  3  1  1  0
  3  9  1  1
  4  2  1  0
  5  1  1  0
  6  4  1  0
  7  3  1  0
  8  5  1  0
  8  7  1  0
  8 13  1  6
 10  2  2  0
 11  6  2  0
 12  9  2  0
  6 14  1  6
 15  9  1  0
 16  6  1  0
 17 20  1  0
 18 13  1  0
 19 13  1  0
 20 24  1  0
 21 17  2  0
 22 17  1  0
 23 16  1  0
 24 23  1  0
 25 19  1  0
 26 18  1  0
 27 22  2  0
 28 21  1  0
 29 28  2  0
 29 27  1  0
 30 25  1  0
 30 26  1  0
M  END
>  <DRUGBANK_ID>  (1) 
DB14207

>  <COMMON_NAME>  (1) 
Fosinoprilat

>  <CAS_NUMBER>  (1) 
95399-71-6

>  <UNII>  (1) 
S312EY6ZT8

>  <SYNONYMS>  (1) 
Fosinopril diacid; Fosinoprilat; Fosinoprilatum; Fosinoprilic acid

$$$$
