821
     RDKit          3D

 19 21  0  0  1  0  0  0  0  0999 V2000
    3.8791   -0.9304    0.0078 Cl  0  0  0  0  0  0  0  0  0  0  0  0
   -6.9320   -0.7471   -2.1995 O   0  0  0  0  0  0  0  0  0  0  0  0
   -6.0601    1.2443   -1.6460 O   0  0  0  0  0  0  0  0  0  0  0  0
   -1.2900    1.7542   -0.0191 N   0  0  0  0  0  0  0  0  0  0  0  0
   -1.3948   -0.4737   -0.0015 C   0  0  0  0  0  0  0  0  0  0  0  0
   -2.1549    0.6889   -0.0148 C   0  0  0  0  0  0  0  0  0  0  0  0
   -0.0243   -0.0758    0.0011 C   0  0  0  0  0  0  0  0  0  0  0  0
   -4.2031   -0.5676   -0.0275 C   0  0  0  0  0  0  0  0  0  0  0  0
    0.0120    1.3192    0.0079 C   0  0  0  0  0  0  0  0  0  0  0  0
   -5.7200   -0.6094   -0.0933 C   0  0  0  0  0  0  0  0  0  0  0  0
   -3.5457    0.6767   -0.0309 C   0  0  0  0  0  0  0  0  0  0  0  0
   -2.0587   -1.7168    0.0155 C   0  0  0  0  0  0  0  0  0  0  0  0
   -3.4584   -1.7510    0.0268 C   0  0  0  0  0  0  0  0  0  0  0  0
    1.1900   -0.7862    0.0121 C   0  0  0  0  0  0  0  0  0  0  0  0
    1.2032    2.0498    0.0405 C   0  0  0  0  0  0  0  0  0  0  0  0
   -6.3113    0.0884    1.1339 C   0  0  0  0  0  0  0  0  0  0  0  0
    2.3878   -0.0698    0.0228 C   0  0  0  0  0  0  0  0  0  0  0  0
   -6.2340    0.0610   -1.3697 C   0  0  0  0  0  0  0  0  0  0  0  0
    2.3973    1.3235    0.0452 C   0  0  0  0  0  0  0  0  0  0  0  0
  1 17  1  0
  2 18  1  0
  3 18  2  0
  4  6  1  0
  4  9  1  0
  5  6  2  0
  5  7  1  0
  5 12  1  0
  6 11  1  0
  7  9  2  0
  7 14  1  0
  8 10  1  0
  8 11  2  0
  8 13  1  0
  9 15  1  0
 10 16  1  0
 10 18  1  0
 12 13  2  0
 14 17  2  0
 15 19  2  0
 17 19  1  0
M  END
>  <DRUGBANK_ID>  (1) 
DB00821

>  <SECONDARY_ACCESSION_NUMBERS>  (1) 
APRD00849

>  <COMMON_NAME>  (1) 
Carprofen

>  <CAS_NUMBER>  (1) 
53716-49-7

>  <UNII>  (1) 
FFL0D546HO

>  <SYNONYMS>  (1) 
(+/-)-2-(3-chloro-9H-carbazol-7-yl)propanoic acid; (±)-6-chloro-α-methylcarbazole-2-acetic acid; 2-(6-Chloro-9H-carbazol-2-yl)-propionic acid; 6-chloro-α-methyl-9H-carbazole-2-acetic acid; Carprofen; Carprofène; Carprofeno; Carprofenum

$$$$
