
     RDKit          3D

  7  6  0  0  0  0  0  0  0  0999 V2000
    0.9619    0.1779   -0.0860 N   0  0  0  0  0  0  0  0  0  0  0  0
    0.4826   -0.6512   -1.1897 C   0  0  0  0  0  0  0  0  0  0  0  0
    0.9630   -2.0945   -1.1383 C   0  0  0  0  0  0  0  0  0  0  0  0
    0.4235   -2.9555    0.3314 S   0  0  0  0  0  0  0  0  0  0  0  0
   -1.1716   -2.8579    0.0856 O   0  0  0  0  0  0  0  0  0  0  0  0
    0.8176   -4.3442    0.2361 O   0  0  0  0  0  0  0  0  0  0  0  0
    0.7196   -2.1509    1.4941 O   0  0  0  0  0  0  0  0  0  0  0  0
  1  2  1  0
  2  3  1  0
  3  4  1  0
  4  5  1  0
  4  6  2  0
  4  7  2  0
M  END
>  <DRUGBANK_ID>  (1) 
DB01956

>  <SECONDARY_ACCESSION_NUMBERS>  (1) 
EXPT03010; DB11103

>  <COMMON_NAME>  (1) 
Taurine

>  <CAS_NUMBER>  (1) 
107-35-7

>  <UNII>  (1) 
1EQV5MLY3D

>  <SYNONYMS>  (1) 
Aminoethylsulfonic acid; Taurine; Taurineold

$$$$
