
     RDKit          3D

 11 11  0  0  0  0  0  0  0  0999 V2000
    0.7431    1.2392   -0.1794 N   0  0  0  0  0  0  0  0  0  0  0  0
    1.4420   -0.0083    0.1902 C   0  0  0  0  0  0  0  0  0  0  0  0
    0.7147   -1.2826   -0.2844 C   0  0  1  0  0  0  0  0  0  0  0  0
   -0.7558   -1.3061    0.1613 C   0  0  2  0  0  0  0  0  0  0  0  0
   -1.4543    0.0126   -0.2113 C   0  0  2  0  0  0  0  0  0  0  0  0
   -0.6582    1.2360    0.3035 C   0  0  1  0  0  0  0  0  0  0  0  0
   -0.7159    1.3873    1.8441 C   0  0  0  0  0  0  0  0  0  0  0  0
   -0.0927    2.6078    2.2323 O   0  0  0  0  0  0  0  0  0  0  0  0
   -2.7816   -0.0201    0.3266 O   0  0  0  0  0  0  0  0  0  0  0  0
   -0.8660   -1.5155    1.5747 O   0  0  0  0  0  0  0  0  0  0  0  0
    0.8017   -1.3808   -1.7109 O   0  0  0  0  0  0  0  0  0  0  0  0
  1  2  1  0
  2  3  1  0
  3  4  1  0
  3 11  1  6
  4  5  1  0
  4 10  1  1
  5  6  1  0
  5  9  1  1
  6  1  1  0
  6  7  1  1
  7  8  1  0
M  END
>  <DRUGBANK_ID>  (1) 
DB05018

>  <COMMON_NAME>  (1) 
Migalastat

>  <CAS_NUMBER>  (1) 
108147-54-2

>  <UNII>  (1) 
C4XNY919FW

>  <SYNONYMS>  (1) 
1-Deoxygalactonojirimycin; 1-Deoxygalactostatin; Migalastat

$$$$
