
     RDKit          3D

 10 10  0  0  1  0  0  0  0  0999 V2000
   -0.9316    0.0962    2.5188 C   0  0  0  0  0  0  0  0  0  0  0  0
   -0.1754    1.2822    2.9235 N   0  0  0  0  0  0  0  0  0  0  0  0
   -1.0870    2.4168    3.0629 C   0  0  0  0  0  0  0  0  0  0  0  0
    0.9629    1.5485    2.0007 C   0  0  2  0  0  0  0  0  0  0  0  0
    2.0953    0.5269    2.2426 C   0  0  0  0  0  0  0  0  0  0  0  0
    2.6645    0.6451    3.6593 C   0  0  0  0  0  0  0  0  0  0  0  0
    2.8543    2.0691    4.1249 C   0  0  0  0  0  0  0  0  0  0  0  0
    3.5975    2.2178    5.4159 C   0  0  0  0  0  0  0  0  0  0  0  0
    2.3703    3.1208    3.4333 C   0  0  0  0  0  0  0  0  0  0  0  0
    1.5939    2.9614    2.1539 C   0  0  0  0  0  0  0  0  0  0  0  0
  1  2  1  0
  2  3  1  0
  4  5  1  0
  4 10  1  0
  4  2  1  1
  5  6  1  0
  6  7  1  0
  7  8  1  0
  7  9  2  0
  9 10  1  0
M  END
>  <DRUGBANK_ID>  (1) 
DB01802

>  <SECONDARY_ACCESSION_NUMBERS>  (1) 
EXPT00307

>  <COMMON_NAME>  (1) 
(4R)-7-Aza-7,8-dihydrolimonene

$$$$
