
     RDKit          3D

 40 43  0  0  0  0  0  0  0  0999 V2000
    0.8449    0.8108    0.0759 C   0  0  0  0  0  0  0  0  0  0  0  0
    0.7942    0.6760   -1.4037 C   0  0  0  0  0  0  0  0  0  0  0  0
    1.6823   -0.1131   -2.2233 O   0  0  0  0  0  0  0  0  0  0  0  0
    2.6653   -1.0129   -2.1837 C   0  0  0  0  0  0  0  0  0  0  0  0
    3.0996   -1.6547   -3.3672 C   0  0  0  0  0  0  0  0  0  0  0  0
    4.3900   -2.1151   -3.5082 C   0  0  0  0  0  0  0  0  0  0  0  0
    5.2346   -1.8766   -2.4203 C   0  0  0  0  0  0  0  0  0  0  0  0
    4.6165   -1.4077   -1.2485 C   0  0  0  0  0  0  0  0  0  0  0  0
    3.2827   -1.3406   -1.0571 C   0  0  0  0  0  0  0  0  0  0  0  0
    2.7038   -1.4036    0.1979 N   0  0  0  0  0  0  0  0  0  0  0  0
    1.3898   -1.7117    0.5294 C   0  0  0  0  0  0  0  0  0  0  0  0
    1.0987   -1.4614    1.7127 O   0  0  0  0  0  0  0  0  0  0  0  0
    0.1971   -1.9498   -0.5944 C   0  0  0  0  0  0  0  0  0  0  0  0
    0.3288   -2.2048   -1.9292 C   0  0  0  0  0  0  0  0  0  0  0  0
   -0.3999   -1.6689   -3.2455 C   0  0  0  0  0  0  0  0  0  0  0  0
    0.1745   -0.7022   -4.3103 N   0  0  0  0  0  0  0  0  0  0  0  0
   -0.5896   -0.8784   -5.5481 C   0  0  0  0  0  0  0  0  0  0  0  0
    0.1105    0.7635   -4.1039 C   0  0  0  0  0  0  0  0  0  0  0  0
    6.6279   -2.1032   -2.5504 C   0  0  0  0  0  0  0  0  0  0  0  0
    7.0649   -2.5679   -3.8087 C   0  0  0  0  0  0  0  0  0  0  0  0
    6.1345   -2.8000   -4.8233 C   0  0  0  0  0  0  0  0  0  0  0  0
    4.8100   -2.6049   -4.6861 N   0  0  0  0  0  0  0  0  0  0  0  0
    8.4275   -2.7969   -4.0912 C   0  0  0  0  0  0  0  0  0  0  0  0
    9.5759   -2.9632   -4.3096 N   0  0  0  0  0  0  0  0  0  0  0  0
    7.5384   -1.9955   -1.4383 N   0  0  0  0  0  0  0  0  0  0  0  0
    7.2683   -1.5422   -0.1149 C   0  0  0  0  0  0  0  0  0  0  0  0
    6.4164   -2.2872    0.7269 C   0  0  0  0  0  0  0  0  0  0  0  0
    5.7802   -1.6869    1.8358 C   0  0  0  0  0  0  0  0  0  0  0  0
    6.0192   -0.3361    2.1611 C   0  0  0  0  0  0  0  0  0  0  0  0
    6.8880    0.3959    1.3200 C   0  0  0  0  0  0  0  0  0  0  0  0
    7.5375   -0.2172    0.2341 C   0  0  0  0  0  0  0  0  0  0  0  0
    7.1376    2.1158    1.3085 Cl  0  0  0  0  0  0  0  0  0  0  0  0
    5.3325    0.0889    3.2765 O   0  0  0  0  0  0  0  0  0  0  0  0
    5.7173    1.3348    3.8909 C   0  0  0  0  0  0  0  0  0  0  0  0
    7.1932    1.4475    4.2636 C   0  0  0  0  0  0  0  0  0  0  0  0
    7.7960    2.7066    4.3290 C   0  0  0  0  0  0  0  0  0  0  0  0
    9.1840    2.7832    4.4243 C   0  0  0  0  0  0  0  0  0  0  0  0
    9.9295    1.6117    4.4765 C   0  0  0  0  0  0  0  0  0  0  0  0
    9.2574    0.4050    4.4279 C   0  0  0  0  0  0  0  0  0  0  0  0
    7.9166    0.3000    4.3440 N   0  0  0  0  0  0  0  0  0  0  0  0
  1  2  1  0
  2  3  1  0
  3  4  1  0
  4  5  2  0
  4  9  1  0
  5  6  1  0
  6  7  2  0
  6 22  1  0
  7  8  1  0
  7 19  1  0
  8  9  2  0
  9 10  1  0
 10 11  1  0
 11 12  2  0
 11 13  1  0
 13 14  2  0
 14 15  1  0
 15 16  1  0
 16 17  1  0
 16 18  1  0
 19 20  2  0
 19 25  1  0
 20 21  1  0
 20 23  1  0
 21 22  2  0
 23 24  3  0
 25 26  1  0
 26 27  2  0
 26 31  1  0
 27 28  1  0
 28 29  2  0
 29 30  1  0
 29 33  1  0
 30 31  2  0
 30 32  1  0
 33 34  1  0
 34 35  1  0
 35 36  2  0
 35 40  1  0
 36 37  1  0
 37 38  2  0
 38 39  1  0
 39 40  2  0
M  END
>  <DRUGBANK_ID>  (1) 
DB11828

>  <COMMON_NAME>  (1) 
Neratinib

>  <CAS_NUMBER>  (1) 
698387-09-6

>  <UNII>  (1) 
JJH94R3PWB

>  <SYNONYMS>  (1) 
Neratinib

$$$$
