
     RDKit          3D

 16 17  0  0  0  0  0  0  0  0999 V2000
    1.0381    2.3249   -0.5793 N   0  0  0  0  0  0  0  0  0  0  0  0
   -1.4451    0.2547    1.4823 C   0  0  0  0  0  0  0  0  0  0  0  0
    0.6004    1.2611    0.3607 C   0  0  1  0  0  0  0  0  0  0  0  0
   -0.9375    1.1878    0.4163 C   0  0  0  0  0  0  0  0  0  0  0  0
   -1.2949   -1.1171    1.5216 C   0  0  0  0  0  0  0  0  0  0  0  0
   -1.7679   -1.5874    2.7079 N   0  0  0  0  0  0  0  0  0  0  0  0
   -2.3628   -0.5698    3.4023 C   0  0  0  0  0  0  0  0  0  0  0  0
   -2.1882    0.5991    2.6570 C   0  0  0  0  0  0  0  0  0  0  0  0
   -2.7249    1.7980    3.1617 C   0  0  0  0  0  0  0  0  0  0  0  0
   -3.0327   -0.6069    4.6264 C   0  0  0  0  0  0  0  0  0  0  0  0
   -3.5473    0.5968    5.1117 C   0  0  0  0  0  0  0  0  0  0  0  0
    2.5809   -0.1538    0.0817 O   0  0  0  0  0  0  0  0  0  0  0  0
    1.3609   -0.0243   -0.0096 C   0  0  0  0  0  0  0  0  0  0  0  0
    0.6475   -1.0228   -0.5457 O   0  0  0  0  0  0  0  0  0  0  0  0
   -3.3961    1.7733    4.3836 C   0  0  0  0  0  0  0  0  0  0  0  0
   -3.9003    2.9592    4.8356 O   0  0  0  0  0  0  0  0  0  0  0  0
  2  8  1  0
  2  4  1  0
  2  5  2  0
  3 13  1  0
  3  1  1  6
  4  3  1  0
  5  6  1  0
  6  7  1  0
  7  8  2  0
  7 10  1  0
  8  9  1  0
  9 15  2  0
 10 11  2  0
 11 15  1  0
 13 12  2  0
 14 13  1  0
 15 16  1  0
M  END
>  <DRUGBANK_ID>  (1) 
DB02959

>  <SECONDARY_ACCESSION_NUMBERS>  (1) 
EXPT01780

>  <COMMON_NAME>  (1) 
Oxitriptan

>  <CAS_NUMBER>  (1) 
4350-09-8

>  <UNII>  (1) 
C1LJO185Q9

>  <SYNONYMS>  (1) 
5-hydroxy-L-tryptophan; 5-hydroxytryptophan L-form; L-5 Hydroxytrytophan; L-5-HTP; L-5-hydroxytryptophan; Oxitriptan; Oxitriptano; Oxitriptanum

$$$$
