
     RDKit          3D

 28 29  0  0  1  0  0  0  0  0999 V2000
    1.1109   -0.0578   -0.0540 C   0  0  0  0  0  0  0  0  0  0  0  0
    0.6614    0.6964   -1.2729 C   0  0  0  0  0  0  0  0  0  0  0  0
    1.0490    0.0968   -2.5994 C   0  0  0  0  0  0  0  0  0  0  0  0
   -0.8050    0.7198   -1.2466 C   0  0  0  0  0  0  0  0  0  0  0  0
   -1.3855    1.7329   -1.5293 O   0  0  0  0  0  0  0  0  0  0  0  0
   -1.3362   -0.4928   -0.9298 O   0  0  0  0  0  0  0  0  0  0  0  0
   -2.7357   -0.4917   -1.0559 C   0  0  0  0  0  0  0  0  0  0  0  0
   -3.5069    0.1827    0.1138 C   0  0  2  0  0  0  0  0  0  0  0  0
   -3.7593    1.6943   -0.0476 C   0  0  2  0  0  0  0  0  0  0  0  0
   -3.2289    2.2903    1.2744 C   0  0  1  0  0  0  0  0  0  0  0  0
   -2.9632    1.0574    2.1909 C   0  0  1  0  0  0  0  0  0  0  0  0
   -2.7850   -0.0688    1.3186 O   0  0  0  0  0  0  0  0  0  0  0  0
   -1.8136    1.1464    3.1136 N   0  0  0  0  0  0  0  0  0  0  0  0
   -0.6787    0.3845    2.9299 C   0  0  0  0  0  0  0  0  0  0  0  0
    0.4809    0.7423    3.4815 C   0  0  0  0  0  0  0  0  0  0  0  0
    0.3962    1.7523    4.5479 C   0  0  0  0  0  0  0  0  0  0  0  0
   -0.6923    2.4003    4.8112 N   0  0  0  0  0  0  0  0  0  0  0  0
   -1.8184    2.1963    4.0422 C   0  0  0  0  0  0  0  0  0  0  0  0
   -2.7865    2.9386    4.1398 O   0  0  0  0  0  0  0  0  0  0  0  0
    1.5022    1.9917    5.3121 N   0  0  0  0  0  0  0  0  0  0  0  0
   -1.9564    3.1282    1.0391 C   0  0  0  0  0  0  0  0  0  0  0  0
   -4.1794    3.0976    1.8083 F   0  0  0  0  0  0  0  0  0  0  0  0
   -5.1408    2.0419   -0.4334 O   0  0  0  0  0  0  0  0  0  0  0  0
   -5.7155    2.0986   -1.6833 C   0  0  0  0  0  0  0  0  0  0  0  0
   -6.8698    2.5148   -1.8008 O   0  0  0  0  0  0  0  0  0  0  0  0
   -5.0458    1.4965   -2.9286 C   0  0  0  0  0  0  0  0  0  0  0  0
   -3.7686    2.2212   -3.3602 C   0  0  0  0  0  0  0  0  0  0  0  0
   -4.9730    0.0000   -2.7184 C   0  0  0  0  0  0  0  0  0  0  0  0
  1  2  1  0
  2  3  1  0
  2  4  1  0
  4  5  2  0
  4  6  1  0
  6  7  1  0
  8  7  1  6
  8  9  1  0
  8 12  1  0
  9 10  1  0
  9 23  1  1
 10 11  1  0
 10 21  1  6
 10 22  1  0
 11 12  1  0
 11 13  1  6
 13 14  1  0
 13 18  1  0
 14 15  2  0
 15 16  1  0
 16 17  2  0
 16 20  1  0
 17 18  1  0
 18 19  2  0
 23 24  1  0
 24 25  2  0
 24 26  1  0
 26 27  1  0
 26 28  1  0
M  END
>  <DRUGBANK_ID>  (1) 
DB12045

>  <SECONDARY_ACCESSION_NUMBERS>  (1) 
DB05193

>  <COMMON_NAME>  (1) 
Mericitabine

>  <CAS_NUMBER>  (1) 
940908-79-2

>  <UNII>  (1) 
TA63JX8X52

>  <SYNONYMS>  (1) 
Mericitabine

$$$$
