
     RDKit          3D

 24 26  0  0  1  0  0  0  0  0999 V2000
    0.9323   -0.0828    0.1008 C   0  0  0  0  0  0  0  0  0  0  0  0
    0.4696    0.4408   -1.2537 C   0  0  0  0  0  0  0  0  0  0  0  0
    0.9984   -0.4843   -2.3571 C   0  0  0  0  0  0  0  0  0  0  0  0
   -0.9945    0.5195   -1.3536 N   0  0  0  0  0  0  0  0  0  0  0  0
   -1.6678    1.6964   -1.4185 C   0  0  0  0  0  0  0  0  0  0  0  0
   -2.7465    2.0255   -0.7157 N   0  0  0  0  0  0  0  0  0  0  0  0
   -3.1594    3.2627   -1.1649 C   0  0  0  0  0  0  0  0  0  0  0  0
   -4.2168    4.1233   -0.7775 C   0  0  0  0  0  0  0  0  0  0  0  0
   -4.4174    5.3545   -1.4468 C   0  0  0  0  0  0  0  0  0  0  0  0
   -3.6032    5.7162   -2.5062 C   0  0  0  0  0  0  0  0  0  0  0  0
   -2.5974    4.8522   -2.8948 C   0  0  0  0  0  0  0  0  0  0  0  0
   -2.3474    3.6699   -2.2125 C   0  0  0  0  0  0  0  0  0  0  0  0
   -1.3924    2.6839   -2.3451 N   0  0  0  0  0  0  0  0  0  0  0  0
   -0.3283    2.6784   -3.3349 C   0  0  2  0  0  0  0  0  0  0  0  0
    0.7354    3.7836   -3.1927 C   0  0  2  0  0  0  0  0  0  0  0  0
    0.3688    4.7632   -4.3042 C   0  0  2  0  0  0  0  0  0  0  0  0
   -0.3042    3.8563   -5.3453 C   0  0  1  0  0  0  0  0  0  0  0  0
   -0.9068    2.7664   -4.6436 O   0  0  0  0  0  0  0  0  0  0  0  0
   -1.3822    4.5123   -6.2093 C   0  0  0  0  0  0  0  0  0  0  0  0
   -0.8099    5.3224   -7.2171 O   0  0  0  0  0  0  0  0  0  0  0  0
    1.4385    5.5186   -4.8468 O   0  0  0  0  0  0  0  0  0  0  0  0
    2.0632    3.2769   -3.4154 O   0  0  0  0  0  0  0  0  0  0  0  0
   -3.7378    7.1878   -3.4046 Cl  0  0  0  0  0  0  0  0  0  0  0  0
   -5.7051    6.3896   -0.9454 Cl  0  0  0  0  0  0  0  0  0  0  0  0
  1  2  1  0
  2  3  1  0
  2  4  1  0
  4  5  1  0
  5  6  2  0
  5 13  1  0
  6  7  1  0
  7  8  2  0
  7 12  1  0
  8  9  1  0
  9 10  2  0
  9 24  1  0
 10 11  1  0
 10 23  1  0
 11 12  2  0
 12 13  1  0
 14 13  1  1
 14 15  1  0
 14 18  1  0
 15 16  1  0
 15 22  1  6
 16 17  1  0
 16 21  1  6
 17 18  1  0
 17 19  1  1
 19 20  1  0
M  END
>  <DRUGBANK_ID>  (1) 
DB06234

>  <COMMON_NAME>  (1) 
Maribavir

>  <CAS_NUMBER>  (1) 
176161-24-3

>  <UNII>  (1) 
PTB4X93HE1

>  <SYNONYMS>  (1) 
Maribavir

$$$$
