
     RDKit          3D

 33 37  0  0  0  0  0  0  0  0999 V2000
    0.8439   -0.0324    0.0229 C   0  0  0  0  0  0  0  0  0  0  0  0
    0.2495    1.2470   -0.2502 O   0  0  0  0  0  0  0  0  0  0  0  0
    0.7150    2.2654    0.5335 C   0  0  0  0  0  0  0  0  0  0  0  0
    1.9805    2.2606    1.0427 C   0  0  0  0  0  0  0  0  0  0  0  0
    2.3040    3.2264    1.9646 C   0  0  0  0  0  0  0  0  0  0  0  0
    1.6053    4.4241    2.1621 C   0  0  0  0  0  0  0  0  0  0  0  0
    2.1060    5.5700    2.8657 C   0  0  0  0  0  0  0  0  0  0  0  0
    3.3865    5.7672    3.4086 O   0  0  0  0  0  0  0  0  0  0  0  0
    4.4063    4.8906    3.1081 C   0  0  0  0  0  0  0  0  0  0  0  0
    5.0392    4.1646    4.1274 C   0  0  0  0  0  0  0  0  0  0  0  0
    5.9444    3.1028    3.8256 C   0  0  0  0  0  0  0  0  0  0  0  0
    6.6717    2.4236    4.8171 C   0  0  0  0  0  0  0  0  0  0  0  0
    7.6287    1.4574    4.4831 C   0  0  0  0  0  0  0  0  0  0  0  0
    7.8849    1.1492    3.1458 C   0  0  0  0  0  0  0  0  0  0  0  0
    7.1500    1.7681    2.1218 C   0  0  0  0  0  0  0  0  0  0  0  0
    7.5982    1.4817    0.6936 C   0  0  0  0  0  0  0  0  0  0  0  0
    8.2863    0.4687    0.4678 O   0  0  0  0  0  0  0  0  0  0  0  0
    7.2275    2.2703   -0.3834 N   0  0  0  0  0  0  0  0  0  0  0  0
    7.1975    3.6937   -0.4641 C   0  0  0  0  0  0  0  0  0  0  0  0
    7.7181    4.4570    0.5986 C   0  0  0  0  0  0  0  0  0  0  0  0
    7.3185    5.7777    0.7878 C   0  0  0  0  0  0  0  0  0  0  0  0
    6.5610    6.4091   -0.1865 C   0  0  0  0  0  0  0  0  0  0  0  0
    6.1668    5.7019   -1.3300 C   0  0  0  0  0  0  0  0  0  0  0  0
    6.4616    4.3326   -1.4929 C   0  0  0  0  0  0  0  0  0  0  0  0
    5.7156    3.6164   -2.4558 N   0  0  0  0  0  0  0  0  0  0  0  0
    6.1249    2.7016    2.4821 C   0  0  0  0  0  0  0  0  0  0  0  0
    5.3034    3.3401    1.5482 C   0  0  0  0  0  0  0  0  0  0  0  0
    4.6735    4.5612    1.7973 C   0  0  0  0  0  0  0  0  0  0  0  0
    1.2436    6.6398    3.0804 C   0  0  0  0  0  0  0  0  0  0  0  0
   -0.0501    6.5314    2.6034 C   0  0  0  0  0  0  0  0  0  0  0  0
   -0.5190    5.4823    1.8826 N   0  0  0  0  0  0  0  0  0  0  0  0
    0.3066    4.4476    1.6307 C   0  0  0  0  0  0  0  0  0  0  0  0
   -0.1244    3.3433    0.8611 C   0  0  0  0  0  0  0  0  0  0  0  0
  1  2  1  0
  2  3  1  0
  3  4  2  0
  3 33  1  0
  4  5  1  0
  5  6  2  0
  6  7  1  0
  6 32  1  0
  7  8  1  0
  7 29  2  0
  8  9  1  0
  9 10  2  0
  9 28  1  0
 10 11  1  0
 11 12  2  0
 11 26  1  0
 12 13  1  0
 13 14  2  0
 14 15  1  0
 15 16  1  0
 15 26  2  0
 16 17  2  0
 16 18  1  0
 18 19  1  0
 19 20  2  0
 19 24  1  0
 20 21  1  0
 21 22  2  0
 22 23  1  0
 23 24  2  0
 24 25  1  0
 26 27  1  0
 27 28  2  0
 29 30  1  0
 30 31  2  0
 31 32  1  0
 32 33  2  0
M  END
>  <DRUGBANK_ID>  (1) 
DB16124

>  <COMMON_NAME>  (1) 
Chiauranib

>  <CAS_NUMBER>  (1) 
1256349-48-0

>  <UNII>  (1) 
F40IRN5981

$$$$
