
     RDKit          3D

 27 30  0  0  0  0  0  0  0  0999 V2000
    1.0805    0.0059   -0.1206 C   0  0  0  0  0  0  0  0  0  0  0  0
    0.6177   -0.6525    1.1750 C   0  0  0  0  0  0  0  0  0  0  0  0
    1.0836    0.1320    2.4377 C   0  0  0  0  0  0  0  0  0  0  0  0
    0.5436    1.5799    2.3320 C   0  0  0  0  0  0  0  0  0  0  0  0
   -0.9807    1.6608    2.4206 C   0  0  0  0  0  0  0  0  0  0  0  0
    0.6878   -0.5915    3.7764 C   0  0  0  0  0  0  0  0  0  0  0  0
    1.1634   -2.0603    3.7803 C   0  0  0  0  0  0  0  0  0  0  0  0
    2.4482   -2.5207    4.1302 C   0  0  0  0  0  0  0  0  0  0  0  0
    2.7408   -3.9254    4.2889 C   0  0  0  0  0  0  0  0  0  0  0  0
    1.7367   -4.9028    4.1052 C   0  0  0  0  0  0  0  0  0  0  0  0
    0.4769   -4.3622    3.8003 C   0  0  0  0  0  0  0  0  0  0  0  0
    0.2147   -3.0285    3.5084 C   0  0  0  0  0  0  0  0  0  0  0  0
    1.8367   -6.3528    4.3291 N   0  0  0  0  0  0  0  0  0  0  0  0
    0.9120   -7.2864    3.7807 C   0  0  0  0  0  0  0  0  0  0  0  0
    0.5150   -8.5286    4.1425 N   0  0  0  0  0  0  0  0  0  0  0  0
   -0.5838   -9.0240    3.2935 C   0  0  0  0  0  0  0  0  0  0  0  0
   -1.3211  -10.2618    3.1715 C   0  0  0  0  0  0  0  0  0  0  0  0
   -2.2555  -10.4349    2.0913 C   0  0  0  0  0  0  0  0  0  0  0  0
   -2.5889   -9.3833    1.2493 C   0  0  0  0  0  0  0  0  0  0  0  0
   -2.0426   -8.1426    1.4851 C   0  0  0  0  0  0  0  0  0  0  0  0
   -0.9681   -8.0646    2.3739 C   0  0  0  0  0  0  0  0  0  0  0  0
    0.2044   -6.8663    2.2551 S   0  0  0  0  0  0  0  0  0  0  0  0
    1.0355    0.1253    5.0261 N   0  0  0  0  0  0  0  0  0  0  0  0
    0.7923    1.4184    5.4047 C   0  0  0  0  0  0  0  0  0  0  0  0
    1.2849    1.6762    6.5750 N   0  0  0  0  0  0  0  0  0  0  0  0
    1.7102    0.4493    6.9846 C   0  0  0  0  0  0  0  0  0  0  0  0
    1.5420   -0.5257    6.1060 N   0  0  0  0  0  0  0  0  0  0  0  0
  1  2  1  0
  2  3  1  0
  3  4  1  0
  3  6  1  0
  4  5  1  0
  6  7  1  0
  6 23  1  0
  7  8  2  0
  7 12  1  0
  8  9  1  0
  9 10  2  0
 10 11  1  0
 10 13  1  0
 11 12  2  0
 13 14  1  0
 14 15  2  0
 14 22  1  0
 15 16  1  0
 16 17  2  0
 16 21  1  0
 17 18  1  0
 18 19  2  0
 19 20  1  0
 20 21  2  0
 21 22  1  0
 23 24  1  0
 23 27  1  0
 24 25  2  0
 25 26  1  0
 26 27  2  0
M  END
>  <DRUGBANK_ID>  (1) 
DB13083

>  <SECONDARY_ACCESSION_NUMBERS>  (1) 
DB05681

>  <COMMON_NAME>  (1) 
Talarozole

>  <CAS_NUMBER>  (1) 
201410-53-9

>  <UNII>  (1) 
XKD9N5CJ6W

>  <SYNONYMS>  (1) 
Talarozole

$$$$
