
     RDKit          3D

 33 38  0  0  0  0  0  0  0  0999 V2000
   -1.1081    0.0386    0.0473 C   0  0  0  0  0  0  0  0  0  0  0  0
    0.0070    0.7986    0.0133 N   0  0  0  0  0  0  0  0  0  0  0  0
   -0.6836   -1.3773    0.0799 C   0  0  0  0  0  0  0  0  0  0  0  0
    1.1147    0.0269    0.0312 C   0  0  0  0  0  0  0  0  0  0  0  0
    0.6609   -1.3865    0.0576 C   0  0  0  0  0  0  0  0  0  0  0  0
   -2.2489    0.4513    0.0158 O   0  0  0  0  0  0  0  0  0  0  0  0
    2.2605    0.4372    0.0097 O   0  0  0  0  0  0  0  0  0  0  0  0
    1.5276   -2.5076   -0.0130 C   0  0  0  0  0  0  0  0  0  0  0  0
    1.5669   -3.4990   -1.0383 C   0  0  0  0  0  0  0  0  0  0  0  0
    2.4695   -2.8464    0.9314 C   0  0  0  0  0  0  0  0  0  0  0  0
    2.5175   -4.4490   -0.6604 C   0  0  0  0  0  0  0  0  0  0  0  0
    3.0270   -4.0433    0.5547 N   0  0  0  0  0  0  0  0  0  0  0  0
   -1.5930   -2.5339    0.0508 C   0  0  0  0  0  0  0  0  0  0  0  0
   -1.4906   -3.3906    1.1006 N   0  0  0  0  0  0  0  0  0  0  0  0
   -2.4664   -2.7453   -1.0256 C   0  0  0  0  0  0  0  0  0  0  0  0
   -2.2287   -4.5127    1.0636 C   0  0  0  0  0  0  0  0  0  0  0  0
   -3.2296   -3.9105   -0.9324 C   0  0  0  0  0  0  0  0  0  0  0  0
   -3.0906   -4.7871    0.0719 N   0  0  0  0  0  0  0  0  0  0  0  0
    0.8882   -3.6763   -2.2607 C   0  0  0  0  0  0  0  0  0  0  0  0
    1.1915   -4.7711   -3.0717 C   0  0  0  0  0  0  0  0  0  0  0  0
    2.8199   -5.5666   -1.4520 C   0  0  0  0  0  0  0  0  0  0  0  0
    2.1485   -5.6990   -2.6736 C   0  0  0  0  0  0  0  0  0  0  0  0
   -2.6082   -1.9052   -2.1651 C   0  0  0  0  0  0  0  0  0  0  0  0
   -3.5268   -2.1960   -3.1666 C   0  0  0  0  0  0  0  0  0  0  0  0
   -4.1637   -4.1652   -1.9361 C   0  0  0  0  0  0  0  0  0  0  0  0
   -4.3193   -3.3250   -3.0451 C   0  0  0  0  0  0  0  0  0  0  0  0
   -2.1990   -5.3928    2.1102 N   0  0  0  0  0  0  0  0  0  0  0  0
   -1.7814   -6.7803    1.9263 C   0  0  0  0  0  0  0  0  0  0  0  0
   -2.3555   -4.9344    3.4814 C   0  0  0  0  0  0  0  0  0  0  0  0
   -2.6929   -7.7223    2.7547 C   0  0  0  0  0  0  0  0  0  0  0  0
   -3.2523   -5.9416    4.2570 C   0  0  0  0  0  0  0  0  0  0  0  0
   -2.7265   -7.3271    4.1848 N   0  0  0  0  0  0  0  0  0  0  0  0
   -3.5505   -8.2455    4.9645 C   0  0  0  0  0  0  0  0  0  0  0  0
  1  6  2  0
  2  1  1  0
  3  1  1  0
  3 13  1  0
  4  2  1  0
  4  7  2  0
  5  3  2  0
  5  4  1  0
  5  8  1  0
  9  8  1  0
 10  8  2  0
 11  9  2  0
 12 10  1  0
 12 11  1  0
 14 13  2  0
 15 13  1  0
 16 14  1  0
 16 27  1  0
 17 15  2  0
 18 16  2  0
 18 17  1  0
 19  9  1  0
 20 19  2  0
 21 11  1  0
 22 20  1  0
 22 21  2  0
 23 15  1  0
 24 23  2  0
 25 17  1  0
 26 24  1  0
 26 25  2  0
 28 27  1  0
 29 27  1  0
 30 28  1  0
 31 29  1  0
 32 30  1  0
 32 31  1  0
 32 33  1  0
M  END
>  <DRUGBANK_ID>  (1) 
DB12369

>  <COMMON_NAME>  (1) 
Sotrastaurin

>  <CAS_NUMBER>  (1) 
425637-18-9

>  <UNII>  (1) 
7I279E1NZ8

>  <SYNONYMS>  (1) 
Sotrastaurin; Sotrastaurina; Sotrastaurinum

$$$$
