
     RDKit          3D

 34 33  0  0  1  0  0  0  0  0999 V2000
   -7.3695   -5.8760  -25.2144 C   0  0  0  0  0  0  0  0  0  0  0  0
   -5.9598   -6.2350  -24.7714 C   0  0  0  0  0  0  0  0  0  0  0  0
   -5.3061   -5.0627  -24.0349 C   0  0  0  0  0  0  0  0  0  0  0  0
   -6.0904   -4.6806  -22.7835 C   0  0  0  0  0  0  0  0  0  0  0  0
   -6.2433   -5.8755  -21.8560 C   0  0  0  0  0  0  0  0  0  0  0  0
   -4.9069   -6.3137  -21.3270 C   0  0  0  0  0  0  0  0  0  0  0  0
   -4.5923   -6.2838  -20.0306 C   0  0  0  0  0  0  0  0  0  0  0  0
   -5.5570   -5.8273  -18.9967 C   0  0  0  0  0  0  0  0  0  0  0  0
   -5.8167   -6.8789  -17.9798 C   0  0  0  0  0  0  0  0  0  0  0  0
   -5.5458   -6.7333  -16.6754 C   0  0  0  0  0  0  0  0  0  0  0  0
   -4.7595   -5.6290  -16.1263 C   0  0  0  0  0  0  0  0  0  0  0  0
   -4.1681   -5.7101  -14.8964 C   0  0  0  0  0  0  0  0  0  0  0  0
   -3.1164   -4.7095  -14.2299 C   0  0  0  0  0  0  0  0  0  0  0  0
   -3.1495   -3.9427  -12.9582 C   0  0  0  0  0  0  0  0  0  0  0  0
   -4.0991   -2.5213  -12.1342 C   0  0  2  0  0  0  0  0  0  0  0  0
   -4.7988   -2.2990  -10.7658 C   0  0  2  0  0  0  0  0  0  0  0  0
   -6.1562   -2.9281  -10.6771 C   0  0  0  0  0  0  0  0  0  0  0  0
   -6.2888   -4.0607  -11.6492 C   0  0  0  0  0  0  0  0  0  0  0  0
   -5.3200   -5.2620  -11.7038 C   0  0  0  0  0  0  0  0  0  0  0  0
   -5.3376   -6.0213  -10.4828 C   0  0  0  0  0  0  0  0  0  0  0  0
   -5.3316   -7.2761  -10.3968 O   0  0  0  0  0  0  0  0  0  0  0  0
   -5.0914   -5.1978   -9.4625 O   0  0  0  0  0  0  0  0  0  0  0  0
   -4.9845   -0.8644  -10.5381 O   0  0  0  0  0  0  0  0  0  0  0  0
   -5.1290   -0.7800  -13.1344 S   0  0  0  0  0  0  0  0  0  0  0  0
   -6.5872   -1.2476  -14.1383 C   0  0  0  0  0  0  0  0  0  0  0  0
   -6.8376   -2.4217  -15.0899 C   0  0  1  0  0  0  0  0  0  0  0  0
   -6.1217   -3.5157  -14.5425 C   0  0  0  0  0  0  0  0  0  0  0  0
   -6.6562   -4.5837  -14.2181 O   0  0  0  0  0  0  0  0  0  0  0  0
   -4.8518   -3.1503  -14.2862 N   0  0  0  0  0  0  0  0  0  0  0  0
   -3.4298   -2.0027  -14.4771 C   0  0  0  0  0  0  0  0  0  0  0  0
   -2.2893   -1.1696  -13.2771 C   0  0  0  0  0  0  0  0  0  0  0  0
   -1.2082   -1.6583  -12.9412 O   0  0  0  0  0  0  0  0  0  0  0  0
   -2.7584   -0.1490  -12.4624 O   0  0  0  0  0  0  0  0  0  0  0  0
   -8.2545   -2.8197  -15.0806 N   0  0  0  0  0  0  0  0  0  0  0  0
  1  2  1  0
  2  3  1  0
  3  4  1  0
  4  5  1  0
  5  6  1  0
  6  7  2  0
  7  8  1  0
  8  9  1  0
  9 10  2  0
 10 11  1  0
 11 12  2  0
 12 13  1  0
 13 14  2  0
 15 24  1  0
 15 16  1  0
 15 14  1  6
 16 23  1  6
 16 17  1  0
 17 18  1  0
 18 19  1  0
 19 20  1  0
 20 21  2  0
 20 22  1  0
 24 25  1  0
 25 26  1  0
 26 27  1  0
 26 34  1  1
 27 28  2  0
 27 29  1  0
 29 30  1  0
 30 31  1  0
 31 32  2  0
 31 33  1  0
M  END
>  <DRUGBANK_ID>  (1) 
DB11858

>  <COMMON_NAME>  (1) 
Leukotriene D4

>  <CAS_NUMBER>  (1) 
73836-78-9

>  <UNII>  (1) 
5FNY4416UE

>  <SYNONYMS>  (1) 
(R-(R*,S*-(E,E,Z,Z)))-N-(S-(1-(4-Carboxy-1-hydroxybutyl)-2,4,6,9-pentadecatetraenyl)-L-cysteinyl)glycine; 5S-hydroxy-6R-(S-cysteinylglycinyl)-7E,9E,11E,14Z-eicosatetraenoic acid; LTD4; S-{(1R,2E,4E,6Z,9Z)-1-[(1S)-4-carboxy-1-hydroxybutyl]pentadeca-2,4,6,9-tetraen-1-yl}-L-cysteinylglycine

$$$$
