7X3
     RDKit          3D

 29 31  0  0  0  0  0  0  0  0999 V2000
    0.9978    0.0208   -0.0752 C   0  0  0  0  0  0  0  0  0  0  0  0
    0.5538    0.3267   -1.3923 O   0  0  0  0  0  0  0  0  0  0  0  0
    0.9967    1.4879   -1.9676 C   0  0  0  0  0  0  0  0  0  0  0  0
    0.0320    2.1419   -2.7561 C   0  0  0  0  0  0  0  0  0  0  0  0
    0.3470    3.2898   -3.5109 C   0  0  0  0  0  0  0  0  0  0  0  0
    1.6413    3.8145   -3.4981 C   0  0  0  0  0  0  0  0  0  0  0  0
    2.0044    4.9108   -4.3095 N   0  0  0  0  0  0  0  0  0  0  0  0
    3.2891    5.4726   -4.3897 C   0  0  0  0  0  0  0  0  0  0  0  0
    4.2574    4.6644   -4.8073 N   0  0  0  0  0  0  0  0  0  0  0  0
    5.4721    5.1774   -4.8111 C   0  0  0  0  0  0  0  0  0  0  0  0
    5.7781    6.3973   -4.4109 N   0  0  0  0  0  0  0  0  0  0  0  0
    4.7670    7.1352   -3.9709 C   0  0  0  0  0  0  0  0  0  0  0  0
    5.0975    8.3630   -3.3736 N   0  0  0  0  0  0  0  0  0  0  0  0
    6.3302    9.0329   -3.4929 C   0  0  0  0  0  0  0  0  0  0  0  0
    6.9375    9.1802   -4.7439 C   0  0  0  0  0  0  0  0  0  0  0  0
    8.1820    9.8005   -4.8979 C   0  0  0  0  0  0  0  0  0  0  0  0
    8.7758    9.9674   -6.1176 O   0  0  0  0  0  0  0  0  0  0  0  0
    8.0960    9.5259   -7.2768 C   0  0  0  0  0  0  0  0  0  0  0  0
    8.8575   10.2973   -3.7700 C   0  0  0  0  0  0  0  0  0  0  0  0
   10.1237   10.8213   -3.7831 O   0  0  0  0  0  0  0  0  0  0  0  0
   10.8841   10.8822   -4.9755 C   0  0  0  0  0  0  0  0  0  0  0  0
    8.2153   10.2420   -2.5120 C   0  0  0  0  0  0  0  0  0  0  0  0
    8.6712   10.7964   -1.3326 O   0  0  0  0  0  0  0  0  0  0  0  0
    9.7608   11.7150   -1.4217 C   0  0  0  0  0  0  0  0  0  0  0  0
    6.9786    9.5753   -2.3803 C   0  0  0  0  0  0  0  0  0  0  0  0
    3.4880    6.7387   -3.9924 N   0  0  0  0  0  0  0  0  0  0  0  0
    2.5907    3.1461   -2.7147 C   0  0  0  0  0  0  0  0  0  0  0  0
    2.2914    2.0082   -1.9553 C   0  0  0  0  0  0  0  0  0  0  0  0
    3.6498    1.3330   -1.1292 Cl  0  0  0  0  0  0  0  0  0  0  0  0
  1  2  1  0
  2  3  1  0
  3  4  2  0
  3 28  1  0
  4  5  1  0
  5  6  2  0
  6  7  1  0
  6 27  1  0
  7  8  1  0
  8  9  2  0
  8 26  1  0
  9 10  1  0
 10 11  2  0
 11 12  1  0
 12 13  1  0
 12 26  2  0
 13 14  1  0
 14 15  2  0
 14 25  1  0
 15 16  1  0
 16 17  1  0
 16 19  2  0
 17 18  1  0
 19 20  1  0
 19 22  1  0
 20 21  1  0
 22 23  1  0
 22 25  2  0
 23 24  1  0
 27 28  2  0
 28 29  1  0
M  END
>  <DRUGBANK_ID>  (1) 
DB07251

>  <COMMON_NAME>  (1) 
N'-(3-CHLORO-4-METHOXY-PHENYL)-N-(3,4,5-TRIMETHOXYPHENYL)-1,3,5-TRIAZINE-2,4-DIAMINE

$$$$
