
     RDKit          3D

 30 34  0  0  0  0  0  0  0  0999 V2000
    1.1889   -0.1407    0.0492 O   0  0  0  0  0  0  0  0  0  0  0  0
    2.4036   -0.0642    0.2043 C   0  0  0  0  0  0  0  0  0  0  0  0
    3.0474    1.1707    0.2977 N   0  0  0  0  0  0  0  0  0  0  0  0
    4.4567    1.2104    0.4068 C   0  0  0  0  0  0  0  0  0  0  0  0
    5.2084    2.3245    0.8004 C   0  0  0  0  0  0  0  0  0  0  0  0
    6.5185    2.4406    0.2575 C   0  0  0  0  0  0  0  0  0  0  0  0
    7.1777    3.7436   -0.1000 C   0  0  0  0  0  0  0  0  0  0  0  0
    6.6535    4.4922   -1.2633 N   0  0  0  0  0  0  0  0  0  0  0  0
    5.2480    4.9315   -1.1205 C   0  0  0  0  0  0  0  0  0  0  0  0
    4.2401    3.8343   -1.4712 C   0  0  0  0  0  0  0  0  0  0  0  0
    4.4972    3.2076   -2.7627 N   0  0  0  0  0  0  0  0  0  0  0  0
    5.8174    2.5953   -2.8354 C   0  0  0  0  0  0  0  0  0  0  0  0
    6.8048    3.7744   -2.5702 C   0  0  0  0  0  0  0  0  0  0  0  0
    3.3645    2.6330   -3.3037 C   0  0  0  0  0  0  0  0  0  0  0  0
    2.4519    3.5977   -3.7076 C   0  0  0  0  0  0  0  0  0  0  0  0
    1.2474    3.2425   -4.2600 C   0  0  0  0  0  0  0  0  0  0  0  0
    0.9834    1.8975   -4.4634 C   0  0  0  0  0  0  0  0  0  0  0  0
    1.9708    0.9802   -4.1069 C   0  0  0  0  0  0  0  0  0  0  0  0
    3.1513    1.3189   -3.5054 N   0  0  0  0  0  0  0  0  0  0  0  0
   -0.2471    1.5193   -5.0430 C   0  0  0  0  0  0  0  0  0  0  0  0
   -1.3031    1.2763   -5.5240 N   0  0  0  0  0  0  0  0  0  0  0  0
    7.1801    1.3078   -0.1525 C   0  0  0  0  0  0  0  0  0  0  0  0
    6.5160    0.1459    0.0188 C   0  0  0  0  0  0  0  0  0  0  0  0
    5.1379    0.1102   -0.0625 C   0  0  0  0  0  0  0  0  0  0  0  0
    4.3838   -1.0434   -0.5673 C   0  0  0  0  0  0  0  0  0  0  0  0
    5.0659   -2.1440   -1.1172 N   0  0  0  0  0  0  0  0  0  0  0  0
    6.0700   -2.7040   -0.2745 C   0  0  0  0  0  0  0  0  0  0  0  0
    5.2668   -2.9752    1.0367 C   0  0  0  0  0  0  0  0  0  0  0  0
    3.5062   -2.6394    0.8394 C   0  0  0  0  0  0  0  0  0  0  0  0
    3.3558   -1.2391    0.2695 C   0  0  0  0  0  0  0  0  0  0  0  0
  1  2  2  0
  2  3  1  0
  2 30  1  0
  3  4  1  0
  4  5  2  0
  4 24  1  0
  5  6  1  0
  6  7  1  0
  6 22  2  0
  7  8  1  0
  8  9  1  0
  8 13  1  0
  9 10  1  0
 10 11  1  0
 11 12  1  0
 11 14  1  0
 12 13  1  0
 14 15  2  0
 14 19  1  0
 15 16  1  0
 16 17  2  0
 17 18  1  0
 17 20  1  0
 18 19  2  0
 20 21  3  0
 22 23  1  0
 23 24  2  0
 24 25  1  0
 25 26  1  0
 25 30  2  0
 26 27  1  0
 27 28  1  0
 28 29  1  0
 29 30  1  0
M  END
>  <DRUGBANK_ID>  (1) 
DB18110

>  <COMMON_NAME>  (1) 
Nesuparib

>  <CAS_NUMBER>  (1) 
2055357-64-5

>  <UNII>  (1) 
U6N7333GDW

>  <SYNONYMS>  (1) 
6-(4-((5-oxo-1,2,3,4,5,6-hexahydrobenzo(h)(1,6)naphthyridin-8-yl)methyl)piperazin-1-yl)nicotinonitrile

$$$$
