
     RDKit          3D

  9  9  0  0  0  0  0  0  0  0999 V2000
    1.3860   -0.0239    0.2439 N   0  0  0  0  0  0  0  0  0  0  0  0
    0.6748   -1.1741   -0.3193 C   0  0  0  0  0  0  0  0  0  0  0  0
   -0.7769   -1.2337    0.1688 C   0  0  0  0  0  0  0  0  0  0  0  0
   -1.4684    0.0900    0.0250 C   0  0  0  0  0  0  0  0  0  0  0  0
   -0.7755    1.2415   -0.0913 C   0  0  0  0  0  0  0  0  0  0  0  0
    0.7266    1.2543   -0.0593 C   0  0  0  0  0  0  0  0  0  0  0  0
   -1.5651    2.4925   -0.2542 C   0  0  0  0  0  0  0  0  0  0  0  0
   -0.8562    3.6324   -0.3701 O   0  0  0  0  0  0  0  0  0  0  0  0
   -2.7883    2.5085   -0.3000 O   0  0  0  0  0  0  0  0  0  0  0  0
  1  2  1  0
  1  6  1  0
  2  3  1  0
  3  4  1  0
  4  5  2  0
  5  6  1  0
  5  7  1  0
  7  8  1  0
  7  9  2  0
M  END
>  <DRUGBANK_ID>  (1) 
DB08848

>  <COMMON_NAME>  (1) 
Guvacine

>  <CAS_NUMBER>  (1) 
498-96-4

>  <UNII>  (1) 
41538P325K

$$$$
