
     RDKit          3D

 28 31  0  0  1  0  0  0  0  0999 V2000
    2.4674   -0.6976    0.4323 C   0  0  2  0  0  0  0  0  0  0  0  0
    1.0415   -1.3677    0.5830 C   0  0  2  0  0  0  0  0  0  0  0  0
    2.5624    0.5690   -0.4679 C   0  0  0  0  0  0  0  0  0  0  0  0
    3.5859   -1.5269   -0.2913 C   0  0  0  0  0  0  0  0  0  0  0  0
   -0.1418   -0.9007   -0.2159 C   0  0  2  0  0  0  0  0  0  0  0  0
    1.4128    1.4941   -0.3435 C   0  0  1  0  0  0  0  0  0  0  0  0
    0.0093    0.6613   -0.4733 C   0  0  2  0  0  0  0  0  0  0  0  0
   -1.5166   -1.4735   -0.6438 C   0  0  0  0  0  0  0  0  0  0  0  0
    1.8499    2.4468    0.6319 O   0  0  0  0  0  0  0  0  0  0  0  0
   -1.2427    1.5687   -0.1699 C   0  0  2  0  0  0  0  0  0  0  0  0
    0.0186    0.4783   -1.8913 F   0  0  0  0  0  0  0  0  0  0  0  0
   -2.6323   -0.6430    0.0852 C   0  0  0  0  0  0  0  0  0  0  0  0
   -2.5657    0.8291   -0.2412 C   0  0  0  0  0  0  0  0  0  0  0  0
   -1.2076    2.6458   -1.2296 C   0  0  0  0  0  0  0  0  0  0  0  0
   -1.2764    2.4808    1.1147 C   0  0  0  0  0  0  0  0  0  0  0  0
   -3.6680    1.5293   -0.5744 C   0  0  0  0  0  0  0  0  0  0  0  0
   -2.2509    3.4570   -1.4273 C   0  0  0  0  0  0  0  0  0  0  0  0
   -3.5618    2.9546   -0.9887 C   0  0  0  0  0  0  0  0  0  0  0  0
   -4.5684    3.6879   -1.0539 O   0  0  0  0  0  0  0  0  0  0  0  0
    0.4547   -0.8408    2.0596 C   0  0  0  0  0  0  0  0  0  0  0  0
    1.5056   -0.1025    2.8038 C   0  0  1  0  0  0  0  0  0  0  0  0
    2.7407   -0.6251    2.0052 C   0  0  2  0  0  0  0  0  0  0  0  0
    4.0684   -0.0138    2.4263 C   0  0  0  0  0  0  0  0  0  0  0  0
    4.0230    1.1979    3.3070 C   0  0  0  0  0  0  0  0  0  0  0  0
    5.1426   -0.4740    2.0344 O   0  0  0  0  0  0  0  0  0  0  0  0
    4.9613    0.9824    4.7699 Cl  0  0  0  0  0  0  0  0  0  0  0  0
    2.8371   -2.0164    2.4818 O   0  0  0  0  0  0  0  0  0  0  0  0
    1.0169    1.3602    2.7930 C   0  0  0  0  0  0  0  0  0  0  0  0
  1  3  1  0
  1  4  1  6
  1  2  1  0
  2  5  1  0
  3  6  1  0
  5  7  1  0
  5  8  1  1
  6  9  1  1
  6  7  1  0
  7 10  1  0
  7 11  1  6
  8 12  1  0
 10 13  1  0
 10 14  1  0
 10 15  1  1
 12 13  1  0
 13 16  2  0
 14 17  2  0
 16 18  1  0
 17 18  1  0
 18 19  2  0
  2 20  1  1
 21 20  1  0
 21 28  1  6
 22  1  1  0
 22 21  1  0
 22 27  1  1
 22 23  1  0
 23 24  1  0
 23 25  2  0
 24 26  1  0
M  END
>  <DRUGBANK_ID>  (1) 
DB11750

>  <COMMON_NAME>  (1) 
Clobetasol

>  <CAS_NUMBER>  (1) 
25122-41-2

>  <UNII>  (1) 
ADN79D536H

>  <SYNONYMS>  (1) 
Clobetasol

$$$$
