1127
     RDKit          3D

 24 26  0  0  1  0  0  0  0  0999 V2000
   -2.4177    1.1723    0.0061 Cl  0  0  0  0  0  0  0  0  0  0  0  0
    2.8234    0.7822    0.0091 Cl  0  0  0  0  0  0  0  0  0  0  0  0
   -7.1124    1.6801   -2.2318 Cl  0  0  0  0  0  0  0  0  0  0  0  0
   -2.5709   -2.9819   -1.1545 O   0  0  0  0  0  0  0  0  0  0  0  0
   -2.5827   -2.2348    2.5487 N   0  0  0  0  0  0  0  0  0  0  0  0
   -2.4440   -1.7514    4.7162 N   0  0  0  0  0  0  0  0  0  0  0  0
   -2.4711   -2.1324    0.0142 C   0  0  0  0  0  0  0  0  0  0  0  0
   -2.5945   -2.9978    1.3079 C   0  0  0  0  0  0  0  0  0  0  0  0
   -1.1616   -1.3483   -0.0225 C   0  0  0  0  0  0  0  0  0  0  0  0
   -2.5579   -2.2530   -2.4002 C   0  0  0  0  0  0  0  0  0  0  0  0
   -1.0821    0.0655   -0.0375 C   0  0  0  0  0  0  0  0  0  0  0  0
    0.0424   -2.0823   -0.0240 C   0  0  0  0  0  0  0  0  0  0  0  0
   -3.7098   -1.2831   -2.5110 C   0  0  0  0  0  0  0  0  0  0  0  0
   -2.6652   -0.8853    2.6852 C   0  0  0  0  0  0  0  0  0  0  0  0
   -2.4977   -2.7202    3.8231 C   0  0  0  0  0  0  0  0  0  0  0  0
    0.1503    0.7056   -0.0331 C   0  0  0  0  0  0  0  0  0  0  0  0
    1.2725   -1.4283   -0.0111 C   0  0  0  0  0  0  0  0  0  0  0  0
    1.3171   -0.0387   -0.0146 C   0  0  0  0  0  0  0  0  0  0  0  0
   -2.5218   -0.5940    4.0002 C   0  0  0  0  0  0  0  0  0  0  0  0
   -3.4724    0.0922   -2.6326 C   0  0  0  0  0  0  0  0  0  0  0  0
   -5.0292   -1.7313   -2.3885 C   0  0  0  0  0  0  0  0  0  0  0  0
   -4.5194    1.0112   -2.5157 C   0  0  0  0  0  0  0  0  0  0  0  0
   -6.0833   -0.8159   -2.3346 C   0  0  0  0  0  0  0  0  0  0  0  0
   -5.8224    0.5523   -2.3722 C   0  0  0  0  0  0  0  0  0  0  0  0
  1 11  1  0
  2 18  1  0
  3 24  1  0
  4  7  1  0
  4 10  1  0
  5  8  1  0
  5 14  1  0
  5 15  1  0
  6 15  2  0
  6 19  1  0
  7  8  1  0
  7  9  1  0
  9 11  2  0
  9 12  1  0
 10 13  1  0
 11 16  1  0
 12 17  2  0
 13 20  2  0
 13 21  1  0
 14 19  2  0
 16 18  2  0
 17 18  1  0
 20 22  1  0
 21 23  2  0
 22 24  2  0
 23 24  1  0
M  END
>  <DRUGBANK_ID>  (1) 
DB01127

>  <SECONDARY_ACCESSION_NUMBERS>  (1) 
APRD00943

>  <COMMON_NAME>  (1) 
Econazole

>  <CAS_NUMBER>  (1) 
27220-47-9

>  <UNII>  (1) 
6Z1Y2V4A7M

>  <SYNONYMS>  (1) 
(+-)-Econazole; Econazol; Econazole

$$$$
