
     RDKit          3D

 21 23  0  0  0  0  0  0  0  0999 V2000
   -1.2568   -1.4904    0.0361 N   0  0  0  0  0  0  0  0  0  0  0  0
   -3.9832    4.0549    0.3920 N   0  0  0  0  0  0  0  0  0  0  0  0
   -1.8770    0.9051    0.0592 C   0  0  0  0  0  0  0  0  0  0  0  0
   -2.4178   -0.5830    0.0159 C   0  0  0  0  0  0  0  0  0  0  0  0
   -2.5077    1.7876   -1.0611 C   0  0  0  0  0  0  0  0  0  0  0  0
   -0.3767    0.6727   -0.0749 C   0  0  0  0  0  0  0  0  0  0  0  0
   -0.1020   -0.6894   -0.0394 C   0  0  0  0  0  0  0  0  0  0  0  0
   -2.0707    1.5509    1.4376 C   0  0  0  0  0  0  0  0  0  0  0  0
   -4.0505    2.0132   -1.0309 C   0  0  0  0  0  0  0  0  0  0  0  0
    0.6778    1.5872   -0.0642 C   0  0  0  0  0  0  0  0  0  0  0  0
   -1.2989   -2.8711    0.1201 C   0  0  0  0  0  0  0  0  0  0  0  0
    1.2068   -1.1652   -0.0557 C   0  0  0  0  0  0  0  0  0  0  0  0
   -4.6787    2.7945    0.1423 C   0  0  0  0  0  0  0  0  0  0  0  0
    1.9972    1.1062   -0.0350 C   0  0  0  0  0  0  0  0  0  0  0  0
    2.2635   -0.2618   -0.0367 C   0  0  0  0  0  0  0  0  0  0  0  0
   -0.5471   -3.5307    1.1130 C   0  0  0  0  0  0  0  0  0  0  0  0
   -1.9087   -3.6640   -0.8597 C   0  0  0  0  0  0  0  0  0  0  0  0
   -0.3089   -4.9005    1.0690 C   0  0  0  0  0  0  0  0  0  0  0  0
   -1.7351   -5.0532   -0.8636 C   0  0  0  0  0  0  0  0  0  0  0  0
   -0.9047   -5.6686    0.0747 C   0  0  0  0  0  0  0  0  0  0  0  0
   -4.2686    4.5979    1.7126 C   0  0  0  0  0  0  0  0  0  0  0  0
  1  4  1  0
  1  7  1  0
  1 11  1  0
  2 13  1  0
  2 21  1  0
  3  4  1  0
  3  5  1  0
  3  6  1  0
  3  8  1  0
  5  9  1  0
  6  7  2  0
  6 10  1  0
  7 12  1  0
  9 13  1  0
 10 14  2  0
 11 16  2  0
 11 17  1  0
 12 15  2  0
 14 15  1  0
 16 18  1  0
 17 19  2  0
 18 20  2  0
 19 20  1  0
M  END
>  <DRUGBANK_ID>  (1) 
DB09189

>  <COMMON_NAME>  (1) 
Daledalin

>  <CAS_NUMBER>  (1) 
22136-27-2

>  <UNII>  (1) 
IT56261A5A

>  <SYNONYMS>  (1) 
Daledalin

$$$$
