
     RDKit          3D

 28 30  0  0  0  0  0  0  0  0999 V2000
    1.0571   -0.0396   -0.0719 P   0  0  0  0  0  0  0  0  0  0  0  0
   -0.4795   -1.7251    1.4500 P   0  0  2  0  0  0  0  0  0  0  0  0
   -1.3723    0.6123    1.8706 O   0  0  0  0  0  0  0  0  0  0  0  0
   -0.3400   -3.3714    3.0032 O   0  0  0  0  0  0  0  0  0  0  0  0
   -1.0464   -1.3974    4.9288 O   0  0  0  0  0  0  0  0  0  0  0  0
    0.9753    1.3488    0.9257 O   0  0  0  0  0  0  0  0  0  0  0  0
    1.0571   -1.6051    0.6644 O   0  0  0  0  0  0  0  0  0  0  0  0
   -0.6729   -0.0396   -0.0719 O   0  0  0  0  0  0  0  0  0  0  0  0
    2.6055   -0.0396   -0.0719 O   0  0  0  0  0  0  0  0  0  0  0  0
    1.9123   -2.6619   -4.3087 O   0  0  0  0  0  0  0  0  0  0  0  0
    0.5411   -0.6021    1.9311 O   0  0  0  0  0  0  0  0  0  0  0  0
   -1.9940   -1.2986   -0.0636 O   0  0  0  0  0  0  0  0  0  0  0  0
   -0.5375   -1.8049   -0.3384 N   0  0  0  0  0  0  0  0  0  0  0  0
    2.4383   -2.0011   -0.7121 N   0  0  0  0  0  0  0  0  0  0  0  0
   -0.5334   -3.0497   -2.4159 N   0  0  0  0  0  0  0  0  0  0  0  0
    2.9361   -1.2364   -2.8095 N   0  0  0  0  0  0  0  0  0  0  0  0
    4.4205   -0.3868   -0.8863 N   0  0  0  0  0  0  0  0  0  0  0  0
   -2.0606   -1.8486    2.2583 N   0  0  0  0  0  0  0  0  0  0  0  0
   -0.5236   -1.6275    3.1218 C   0  0  1  0  0  0  0  0  0  0  0  0
   -0.0737   -0.7706    4.1208 C   0  0  1  0  0  0  0  0  0  0  0  0
   -1.5436   -0.6570    1.2594 C   0  0  1  0  0  0  0  0  0  0  0  0
   -0.4567    0.6564    3.0774 C   0  0  1  0  0  0  0  0  0  0  0  0
    1.0285    1.3098    2.3805 C   0  0  0  0  0  0  0  0  0  0  0  0
    0.9476   -2.1356   -1.1393 C   0  0  0  0  0  0  0  0  0  0  0  0
   -1.1333   -2.9538   -1.2198 C   0  0  0  0  0  0  0  0  0  0  0  0
    0.6651   -2.3431   -2.4009 C   0  0  0  0  0  0  0  0  0  0  0  0
    1.8677   -2.1200   -3.2246 C   0  0  0  0  0  0  0  0  0  0  0  0
    3.3360   -1.2671   -1.5701 C   0  0  0  0  0  0  0  0  0  0  0  0
  1  8  1  0
  1  9  2  0
  1  7  1  0
  1  6  1  0
  2  7  1  0
  2 11  1  0
  2 12  2  0
  2 18  1  0
  3 21  1  0
  3 22  1  0
  6 23  1  0
 10 27  2  0
 13 24  1  0
 13 25  1  0
 14 24  1  0
 14 28  1  0
 15 25  2  0
 15 26  1  0
 16 27  1  0
 16 28  2  0
 17 28  1  0
 19  4  1  6
 19 20  1  0
 19 21  1  0
 20  5  1  1
 20 22  1  0
 21 13  1  6
 22 23  1  6
 24 26  2  0
 26 27  1  0
M  END
>  <DRUGBANK_ID>  (1) 
DB02623

>  <SECONDARY_ACCESSION_NUMBERS>  (1) 
EXPT01626

>  <COMMON_NAME>  (1) 
Aminophosphonic acid-guanylate ester

$$$$
