
     RDKit          3D

 22 25  0  0  0  0  0  0  0  0999 V2000
   -0.2846    0.8960    0.7346 C   0  0  0  0  0  0  0  0  0  0  0  0
   -0.6875    2.1917    1.7078 C   0  0  0  0  0  0  0  0  0  0  0  0
    0.3747    3.2195    1.9235 C   0  0  0  0  0  0  0  0  0  0  0  0
    0.2182   -0.1013    1.7058 C   0  0  0  0  0  0  0  0  0  0  0  0
    1.2903    0.8568    2.4282 C   0  0  2  0  0  0  0  0  0  0  0  0
    1.4089    2.3869    1.7291 C   0  0  0  0  0  0  0  0  0  0  0  0
    2.0648    2.5493    0.3377 C   0  0  0  0  0  0  0  0  0  0  0  0
    3.4436    1.8495    0.2815 C   0  0  0  0  0  0  0  0  0  0  0  0
    2.7546    0.3747    2.3553 C   0  0  2  0  0  0  0  0  0  0  0  0
    3.4555    0.3099    0.8242 C   0  0  2  0  0  0  0  0  0  0  0  0
    4.2082   -1.2704    3.1569 C   0  0  0  0  0  0  0  0  0  0  0  0
    2.7951   -0.9282    3.1036 C   0  0  0  0  0  0  0  0  0  0  0  0
    4.6840   -1.4033    1.7342 C   0  0  1  0  0  0  0  0  0  0  0  0
    4.8106   -0.9482    0.4268 C   0  0  1  0  0  0  0  0  0  0  0  0
    5.5540   -2.7492    0.7607 C   0  0  0  0  0  0  0  0  0  0  0  0
    6.5250   -2.7706    1.9850 C   0  0  0  0  0  0  0  0  0  0  0  0
    6.3632   -1.3516    1.8115 C   0  0  2  0  0  0  0  0  0  0  0  0
    0.2014    4.4845    1.4027 O   0  0  0  0  0  0  0  0  0  0  0  0
   -1.6156    2.2202    2.5140 O   0  0  0  0  0  0  0  0  0  0  0  0
    0.6789    0.8451    3.8882 C   0  0  0  0  0  0  0  0  0  0  0  0
    3.3536   -2.3220    0.7678 C   0  0  0  0  0  0  0  0  0  0  0  0
    6.9787   -0.4519    2.6790 O   0  0  0  0  0  0  0  0  0  0  0  0
  1  2  1  0
  1  4  1  0
  2  3  1  0
  2 19  2  0
  3  6  2  0
  3 18  1  0
  5  4  1  0
  5  6  1  0
  5  9  1  0
  5 20  1  1
  6  7  1  0
  7  8  1  0
 10  8  1  1
  9 10  1  0
  9 12  1  6
 10 14  1  0
 11 12  1  0
 13 11  1  0
 13 14  1  0
 13 21  1  6
 14 15  1  6
 15 16  1  0
 16 17  1  0
 17 13  1  0
 17 22  1  1
M  END
>  <DRUGBANK_ID>  (1) 
DB01485

>  <COMMON_NAME>  (1) 
4-Hydroxytestosterone

>  <CAS_NUMBER>  (1) 
2141-17-5

>  <UNII>  (1) 
912GOZ167T

>  <SYNONYMS>  (1) 
4-Androstene-7alpha-17beta-diol-3-one; 4,17beta-Dihydroxy-4-androstene-3-one; 7alpha-Hydroxytestosterone

$$$$
