
     RDKit          3D

 10  7  0  0  0  0  0  0  0  0999 V2000
    1.1097   -0.0601   -0.3629 C   0  0  0  0  0  0  0  0  0  0  0  0
    0.5241   -0.2787   -1.7326 C   0  0  0  0  0  0  0  0  0  0  0  0
    0.5803   -1.0928    0.6358 C   0  0  0  0  0  0  0  0  0  0  0  0
    1.0916   -1.6290   -2.1752 C   0  0  0  0  0  0  0  0  0  0  0  0
   -0.2023   -0.5500    1.4618 O   0  0  0  0  0  0  0  0  0  0  0  0
    1.3275   -2.0987    0.8484 O   0  0  0  0  0  0  0  0  0  0  0  0
    0.2177   -2.4797   -2.4550 O   0  0  0  0  0  0  0  0  0  0  0  0
    2.3565   -1.7069   -2.0992 O   0  0  0  0  0  0  0  0  0  0  0  0
    2.7506   -1.3978    1.2977 Li  0  0  0  0  0 15  0  0  0  0  0  0
   -0.9504    0.8582    1.0560 Li  0  0  0  0  0 15  0  0  0  0  0  0
  2  1  1  0
  3  1  1  0
  4  2  1  0
  5  3  2  0
  6  3  1  0
  7  4  2  0
  8  4  1  0
M  CHG  4   6  -1   8  -1   9   1  10   1
M  END
>  <DRUGBANK_ID>  (1) 
DB14508

>  <SECONDARY_ACCESSION_NUMBERS>  (1) 
DBSALT002479

>  <COMMON_NAME>  (1) 
Lithium succinate

>  <CAS_NUMBER>  (1) 
29126-50-9

>  <UNII>  (1) 
MD64P82Y28

>  <SYNONYMS>  (1) 
Butanedioic acid, dilithium salt; Dilithium succinate; Lithium succinate dibasic; Lithium succinate, dibasic; Succinic acid dilithium salt; Succinic acid, dilithium salt

$$$$
