
     RDKit          3D

 18 19  0  0  0  0  0  0  0  0999 V2000
    0.1175    1.7207    0.7505 C   0  0  0  0  0  0  0  0  0  0  0  0
   -0.0571    1.7128   -0.7361 C   0  0  0  0  0  0  0  0  0  0  0  0
    0.0282    0.4064    0.0237 C   0  0  0  0  0  0  0  0  0  0  0  0
    3.5645    2.7024   -6.0847 C   0  0  0  0  0  0  0  0  0  0  0  0
    4.2028    1.3193   -5.7408 C   0  0  0  0  0  0  0  0  0  0  0  0
    0.9789    2.1428   -1.7271 C   0  0  0  0  0  0  0  0  0  0  0  0
    3.3385    3.5376   -4.9287 O   0  0  0  0  0  0  0  0  0  0  0  0
    3.5259    0.2206   -6.1514 O   0  0  0  0  0  0  0  0  0  0  0  0
    1.0795    1.4081   -2.9028 C   0  0  0  0  0  0  0  0  0  0  0  0
    1.7162    3.3356   -1.6500 C   0  0  0  0  0  0  0  0  0  0  0  0
    2.5589    3.0468   -3.9119 C   0  0  0  0  0  0  0  0  0  0  0  0
    5.2591    1.1924   -5.1214 O   0  0  0  0  0  0  0  0  0  0  0  0
    2.4575    3.8104   -2.7503 C   0  0  0  0  0  0  0  0  0  0  0  0
    1.8591    1.8471   -3.9570 C   0  0  0  0  0  0  0  0  0  0  0  0
   -1.4658   -0.5290    0.0978 Cl  0  0  0  0  0  0  0  0  0  0  0  0
    1.4707   -0.5945    0.0097 Cl  0  0  0  0  0  0  0  0  0  0  0  0
    2.2885    2.6740   -6.9489 C   0  0  0  0  0  0  0  0  0  0  0  0
    4.6276    3.4107   -6.9562 C   0  0  0  0  0  0  0  0  0  0  0  0
  2  1  1  0
  3  1  1  0
  3  2  1  0
  3 15  1  0
  3 16  1  0
  4 17  1  0
  4 18  1  0
  5  4  1  0
  6  2  1  0
  7  4  1  0
  8  5  1  0
  9  6  2  0
 10  6  1  0
 11  7  1  0
 12  5  2  0
 13 10  2  0
 13 11  1  0
 14  9  1  0
 14 11  2  0
M  END
>  <DRUGBANK_ID>  (1) 
DB09064

>  <COMMON_NAME>  (1) 
Ciprofibrate

>  <CAS_NUMBER>  (1) 
52214-84-3

>  <UNII>  (1) 
F8252JGO9S

>  <SYNONYMS>  (1) 
Ciprofibrate; ciprofibrato

$$$$
