
     RDKit          3D

 36 40  0  0  1  0  0  0  0  0999 V2000
    3.0737    0.3404    1.1535 C   0  0  0  0  0  0  0  0  0  0  0  0
    2.6593    1.6897    1.3516 O   0  0  0  0  0  0  0  0  0  0  0  0
    1.2431    1.8634    1.2490 C   0  0  2  0  0  0  0  0  0  0  0  0
    0.8397    3.3699    1.2765 C   0  0  0  0  0  0  0  0  0  0  0  0
    1.1236    4.0404    2.5225 O   0  0  0  0  0  0  0  0  0  0  0  0
    0.4569    3.4291    3.6114 C   0  0  0  0  0  0  0  0  0  0  0  0
    0.9571    2.0040    3.7294 C   0  0  0  0  0  0  0  0  0  0  0  0
    0.5213    1.2524    2.4405 C   0  0  2  0  0  0  0  0  0  0  0  0
    0.5679   -0.2226    2.6164 N   0  0  0  0  0  0  0  0  0  0  0  0
   -0.5288   -0.4958    3.5020 C   0  0  2  0  0  0  0  0  0  0  0  0
   -0.4366   -1.5563    4.5448 C   0  0  0  0  0  0  0  0  0  0  0  0
   -1.8095   -1.3604    5.2108 C   0  0  0  0  0  0  0  0  0  0  0  0
   -2.7571   -0.5170    4.2379 C   0  0  2  0  0  0  0  0  0  0  0  0
   -1.9269   -0.4615    2.9358 C   0  0  0  0  0  0  0  0  0  0  0  0
   -3.1430    0.9023    4.8396 C   0  0  0  0  0  0  0  0  0  0  0  0
   -1.9864    1.8721    4.9458 C   0  0  0  0  0  0  0  0  0  0  0  0
   -4.2068    1.6464    4.0232 C   0  0  0  0  0  0  0  0  0  0  0  0
   -4.0245   -1.2842    3.8884 C   0  0  0  0  0  0  0  0  0  0  0  0
   -4.4912   -1.3344    2.7687 O   0  0  0  0  0  0  0  0  0  0  0  0
   -4.5591   -1.9664    4.9384 N   0  0  0  0  0  0  0  0  0  0  0  0
   -5.0538   -1.4181    6.2012 C   0  0  0  0  0  0  0  0  0  0  0  0
   -5.8136   -2.6420    6.7670 C   0  0  2  0  0  0  0  0  0  0  0  0
   -4.9047   -3.7857    6.2563 C   0  0  0  0  0  0  0  0  0  0  0  0
   -5.0428   -3.3347    4.7982 C   0  0  1  0  0  0  0  0  0  0  0  0
   -6.5798   -3.3454    4.6138 C   0  0  0  0  0  0  0  0  0  0  0  0
   -7.0067   -2.8931    5.9451 N   0  0  0  0  0  0  0  0  0  0  0  0
   -8.3068   -2.6531    6.2393 C   0  0  0  0  0  0  0  0  0  0  0  0
   -9.1792   -3.6624    6.0915 N   0  0  0  0  0  0  0  0  0  0  0  0
  -10.4577   -3.4248    6.4151 C   0  0  0  0  0  0  0  0  0  0  0  0
  -10.9579   -2.2582    6.8352 N   0  0  0  0  0  0  0  0  0  0  0  0
  -10.0718   -1.2386    6.9428 C   0  0  0  0  0  0  0  0  0  0  0  0
   -8.7249   -1.4116    6.6629 C   0  0  0  0  0  0  0  0  0  0  0  0
  -10.5673    0.1221    7.3964 C   0  0  0  0  0  0  0  0  0  0  0  0
  -11.5199    0.6521    6.5785 F   0  0  0  0  0  0  0  0  0  0  0  0
  -11.1093    0.0980    8.6471 F   0  0  0  0  0  0  0  0  0  0  0  0
   -9.5746    1.0615    7.4527 F   0  0  0  0  0  0  0  0  0  0  0  0
  1  2  1  0
  3  4  1  0
  3  8  1  0
  3  2  1  1
  4  5  1  0
  5  6  1  0
  6  7  1  0
  8  7  1  0
  8  9  1  1
 10  9  1  6
 10 11  1  0
 10 14  1  0
 11 12  1  0
 13 12  1  0
 13 14  1  0
 13 18  1  6
 13 15  1  0
 15 16  1  0
 15 17  1  0
 18 19  2  0
 18 20  1  0
 20 21  1  0
 22 21  1  6
 22 23  1  0
 22 26  1  0
 24 23  1  0
 24 20  1  0
 24 25  1  1
 25 26  1  0
 26 27  1  0
 27 28  2  0
 27 32  1  0
 28 29  1  0
 29 30  2  0
 30 31  1  0
 31 32  2  0
 31 33  1  0
 33 34  1  0
 33 35  1  0
 33 36  1  0
M  END
>  <DRUGBANK_ID>  (1) 
DB14955

>  <COMMON_NAME>  (1) 
PF-04634817

>  <CAS_NUMBER>  (1) 
1228111-63-4

>  <UNII>  (1) 
51M3FB9B9E

$$$$
