
     RDKit          3D

 18 19  0  0  0  0  0  0  0  0999 V2000
    1.3735   -0.2073    0.0817 C   0  0  0  0  0  0  0  0  0  0  0  0
    2.7878   -0.4116    0.1666 N   0  0  0  0  0  0  0  0  0  0  0  0
    0.4881   -1.2892    0.0636 C   0  0  0  0  0  0  0  0  0  0  0  0
    0.8557    1.0928    0.0455 C   0  0  0  0  0  0  0  0  0  0  0  0
    3.6271   -1.2410   -1.0409 S   0  0  0  0  0  0  0  0  0  0  0  0
    3.5817    0.0619    1.3175 C   0  0  0  0  0  0  0  0  0  0  0  0
   -0.8980   -1.0784    0.0101 C   0  0  0  0  0  0  0  0  0  0  0  0
   -0.5321    1.3139    0.0442 C   0  0  0  0  0  0  0  0  0  0  0  0
    4.3368   -2.5405   -0.0447 C   0  0  0  0  0  0  0  0  0  0  0  0
    2.7050   -1.8511   -1.9786 O   0  0  0  0  0  0  0  0  0  0  0  0
    4.7101   -0.3961   -1.4904 O   0  0  0  0  0  0  0  0  0  0  0  0
    4.2246   -1.1302    2.0385 C   0  0  0  0  0  0  0  0  0  0  0  0
   -1.4062    0.2249   -0.0069 C   0  0  0  0  0  0  0  0  0  0  0  0
    5.1267   -1.9591    1.1206 C   0  0  0  0  0  0  0  0  0  0  0  0
   -3.1461    0.4870   -0.2699 S   0  0  0  0  0  0  0  0  0  0  0  0
   -3.6504    1.3375    1.0953 N   0  0  0  0  0  0  0  0  0  0  0  0
   -3.3089    1.3729   -1.3981 O   0  0  0  0  0  0  0  0  0  0  0  0
   -3.8279   -0.7845   -0.1875 O   0  0  0  0  0  0  0  0  0  0  0  0
  1  2  1  0
  1  3  2  0
  1  4  1  0
  2  5  1  0
  2  6  1  0
  3  7  1  0
  4  8  2  0
  5  9  1  0
  5 10  2  0
  5 11  2  0
  6 12  1  0
  7 13  2  0
  8 13  1  0
  9 14  1  0
 12 14  1  0
 13 15  1  0
 15 16  1  0
 15 17  2  0
 15 18  2  0
M  END
>  <DRUGBANK_ID>  (1) 
DB08329

>  <COMMON_NAME>  (1) 
Sulthiame

>  <CAS_NUMBER>  (1) 
61-56-3

>  <UNII>  (1) 
I00Q766CZ2

>  <SYNONYMS>  (1) 
Sulthiame; Sultiame; Sultiamo; Sultiamum

$$$$
