1105
     RDKit          3D

 19 20  0  0  1  0  0  0  0  0999 V2000
   -2.3480    0.1867   -0.0508 Cl  0  0  0  0  0  0  0  0  0  0  0  0
    3.7796   -2.4036    0.8808 N   0  0  0  0  0  0  0  0  0  0  0  0
    3.8922    0.0200    0.0946 C   0  0  0  0  0  0  0  0  0  0  0  0
    4.6283    0.7573    1.3188 C   0  0  0  0  0  0  0  0  0  0  0  0
    4.6281    1.2003   -0.7486 C   0  0  0  0  0  0  0  0  0  0  0  0
    4.3000   -1.4903   -0.1888 C   0  0  0  0  0  0  0  0  0  0  0  0
    5.6702    1.3051    0.3519 C   0  0  0  0  0  0  0  0  0  0  0  0
    2.2122    0.0975    0.1149 C   0  0  0  0  0  0  0  0  0  0  0  0
    3.7420   -1.8999   -1.6277 C   0  0  0  0  0  0  0  0  0  0  0  0
    4.2955   -1.1003   -2.8043 C   0  0  0  0  0  0  0  0  0  0  0  0
    1.5137    1.3023    0.0603 C   0  0  0  0  0  0  0  0  0  0  0  0
    1.3803   -1.0620    0.1380 C   0  0  0  0  0  0  0  0  0  0  0  0
    3.8615   -3.8303    0.6240 C   0  0  0  0  0  0  0  0  0  0  0  0
    4.1477   -2.0918    2.2514 C   0  0  0  0  0  0  0  0  0  0  0  0
    5.8032   -1.2976   -2.8578 C   0  0  0  0  0  0  0  0  0  0  0  0
    3.6204   -1.4712   -4.1194 C   0  0  0  0  0  0  0  0  0  0  0  0
    0.1099    1.3366    0.0103 C   0  0  0  0  0  0  0  0  0  0  0  0
   -0.0018   -1.0549    0.0536 C   0  0  0  0  0  0  0  0  0  0  0  0
   -0.6349    0.1535    0.0050 C   0  0  0  0  0  0  0  0  0  0  0  0
  1 19  1  0
  2  6  1  0
  2 13  1  0
  2 14  1  0
  3  4  1  0
  3  5  1  0
  3  6  1  0
  3  8  1  0
  4  7  1  0
  5  7  1  0
  6  9  1  0
  8 11  2  0
  8 12  1  0
  9 10  1  0
 10 15  1  0
 10 16  1  0
 11 17  1  0
 12 18  2  0
 17 19  2  0
 18 19  1  0
M  END
>  <DRUGBANK_ID>  (1) 
DB01105

>  <SECONDARY_ACCESSION_NUMBERS>  (1) 
APRD00456

>  <COMMON_NAME>  (1) 
Sibutramine

>  <CAS_NUMBER>  (1) 
106650-56-0

>  <UNII>  (1) 
WV5EC51866

>  <SYNONYMS>  (1) 
Sibutramina; Sibutramine; Sibutraminum

$$$$
