6C3
     RDKit          3D

 24 27  0  0  0  0  0  0  0  0999 V2000
    0.6904   -0.6861   -0.0237 C   0  0  0  0  0  0  0  0  0  0  0  0
    0.2688    0.6468   -0.0331 C   0  0  0  0  0  0  0  0  0  0  0  0
   -1.1125    0.9041   -0.0489 C   0  0  0  0  0  0  0  0  0  0  0  0
    1.2715    1.7536   -0.0097 C   0  0  0  0  0  0  0  0  0  0  0  0
    2.5878    1.4222    0.0360 C   0  0  0  0  0  0  0  0  0  0  0  0
    3.0314   -0.0091   -0.0064 C   0  0  0  0  0  0  0  0  0  0  0  0
    0.0116    3.6873    0.9719 C   0  0  0  0  0  0  0  0  0  0  0  0
   -0.5687    4.9476    0.8444 C   0  0  0  0  0  0  0  0  0  0  0  0
   -0.2743    5.7400   -0.2633 C   0  0  0  0  0  0  0  0  0  0  0  0
    0.6213    5.2864   -1.2298 C   0  0  0  0  0  0  0  0  0  0  0  0
    1.1966    4.0224   -1.1089 C   0  0  0  0  0  0  0  0  0  0  0  0
    0.8511    3.1887   -0.0350 C   0  0  0  0  0  0  0  0  0  0  0  0
    3.7102    3.3828    1.1814 C   0  0  0  0  0  0  0  0  0  0  0  0
    5.3171    5.3762    1.5251 C   0  0  0  0  0  0  0  0  0  0  0  0
   -2.0371   -0.1347   -0.0101 C   0  0  0  0  0  0  0  0  0  0  0  0
   -1.6054   -1.4545    0.0196 C   0  0  0  0  0  0  0  0  0  0  0  0
   -0.2363   -1.7345    0.0020 C   0  0  0  0  0  0  0  0  0  0  0  0
    2.0564   -0.9694   -0.0373 N   0  0  0  0  0  0  0  0  0  0  0  0
   -3.7173    0.2332    0.0092 Cl  0  0  0  0  0  0  0  0  0  0  0  0
    4.2180   -0.3389    0.0124 O   0  0  0  0  0  0  0  0  0  0  0  0
    3.5871    2.4313    0.1827 C   0  0  0  0  0  0  0  0  0  0  0  0
    4.5921    2.6751   -0.7236 O   0  0  0  0  0  0  0  0  0  0  0  0
    5.3233    3.7894   -0.3457 N   0  0  0  0  0  0  0  0  0  0  0  0
    4.7872    4.2002    0.8060 C   0  0  0  0  0  0  0  0  0  0  0  0
  1  2  1  0
  1 17  2  0
  1 18  1  0
  2  3  2  0
  2  4  1  0
  3 15  1  0
  4 12  1  0
  4  5  2  0
  5 21  1  0
  5  6  1  0
  6 18  1  0
  6 20  2  0
  7  8  2  0
  7 12  1  0
  8  9  1  0
  9 10  2  0
 10 11  1  0
 11 12  2  0
 13 21  2  0
 13 24  1  0
 14 24  1  0
 15 19  1  0
 15 16  2  0
 16 17  1  0
 21 22  1  0
 22 23  1  0
 23 24  2  0
M  END
>  <DRUGBANK_ID>  (1) 
DB07202

>  <COMMON_NAME>  (1) 
6-CHLORO-3-(3-METHYLISOXAZOL-5-YL)-4-PHENYLQUINOLIN-2(1H)-ONE

$$$$
