
     RDKit          3D

 30 31  0  0  0  0  0  0  0  0999 V2000
    1.1634    0.0055    0.0325 C   0  0  0  0  0  0  0  0  0  0  0  0
    0.4755   -0.7720   -1.0774 C   0  0  0  0  0  0  0  0  0  0  0  0
   -0.4067   -1.8753   -0.5432 C   0  0  0  0  0  0  0  0  0  0  0  0
   -1.5185   -1.3350    0.3096 C   0  0  0  0  0  0  0  0  0  0  0  0
   -2.5501   -0.4955   -0.3967 C   0  0  0  0  0  0  0  0  0  0  0  0
   -3.8952   -0.6781   -0.4341 C   0  0  0  0  0  0  0  0  0  0  0  0
    0.5897    0.6621    0.8882 O   0  0  0  0  0  0  0  0  0  0  0  0
    2.5067   -0.0939    0.0172 O   0  0  0  0  0  0  0  0  0  0  0  0
   -5.7511    1.0340   -0.3837 C   0  0  0  0  0  0  0  0  0  0  0  0
   -4.6707    0.4552   -1.0571 C   0  0  0  0  0  0  0  0  0  0  0  0
   -4.3875    0.9842   -2.3240 C   0  0  0  0  0  0  0  0  0  0  0  0
   -5.2086    1.9729   -2.8770 C   0  0  0  0  0  0  0  0  0  0  0  0
   -6.2899    2.4244   -2.1396 C   0  0  0  0  0  0  0  0  0  0  0  0
   -6.5723    1.9905   -0.8963 N   0  0  0  0  0  0  0  0  0  0  0  0
   -4.5804   -1.7924    0.3284 C   0  0  0  0  0  0  0  0  0  0  0  0
   -4.1423   -2.1838    1.5966 C   0  0  0  0  0  0  0  0  0  0  0  0
   -4.8295   -2.7869    2.6361 C   0  0  0  0  0  0  0  0  0  0  0  0
   -6.0031   -3.3799    2.2112 C   0  0  0  0  0  0  0  0  0  0  0  0
   -6.4561   -3.1862    0.8716 C   0  0  0  0  0  0  0  0  0  0  0  0
   -5.7637   -2.3756   -0.0546 C   0  0  0  0  0  0  0  0  0  0  0  0
   -4.2846   -2.8103    3.9769 N   0  0  0  0  0  0  0  0  0  0  0  0
   -3.2637   -2.0529    4.3517 C   0  0  0  0  0  0  0  0  0  0  0  0
   -2.6831   -2.2144    5.6141 N   0  0  0  0  0  0  0  0  0  0  0  0
   -1.5308   -1.5447    6.2940 C   0  0  0  0  0  0  0  0  0  0  0  0
   -2.0130   -0.6910    7.4726 C   0  0  0  0  0  0  0  0  0  0  0  0
   -0.5322   -2.6049    6.7867 C   0  0  0  0  0  0  0  0  0  0  0  0
   -0.7095   -0.6049    5.4089 C   0  0  0  0  0  0  0  0  0  0  0  0
   -2.5828   -1.1361    3.6088 N   0  0  0  0  0  0  0  0  0  0  0  0
   -3.1086    0.0210    2.9518 C   0  0  0  0  0  0  0  0  0  0  0  0
   -3.3197    0.9341    2.2659 N   0  0  0  0  0  0  0  0  0  0  0  0
  1  2  1  0
  1  7  2  0
  1  8  1  0
  2  3  1  0
  3  4  1  0
  4  5  1  0
  5  6  2  0
  6 10  1  0
  6 15  1  0
  9 10  2  0
  9 14  1  0
 10 11  1  0
 11 12  2  0
 12 13  1  0
 13 14  2  0
 15 16  2  0
 15 20  1  0
 16 17  1  0
 17 18  2  0
 17 21  1  0
 18 19  1  0
 19 20  2  0
 21 22  2  0
 22 23  1  0
 22 28  1  0
 23 24  1  0
 24 25  1  0
 24 26  1  0
 24 27  1  0
 28 29  1  0
 29 30  3  0
M  END
>  <DRUGBANK_ID>  (1) 
DB12204

>  <COMMON_NAME>  (1) 
Terbogrel

>  <CAS_NUMBER>  (1) 
149979-74-8

>  <UNII>  (1) 
5Z4KWQ5OGN

>  <SYNONYMS>  (1) 
Terbogrel; Terbogrelum

$$$$
