J54
     RDKit          3D

 17 17  0  0  0  0  0  0  0  0999 V2000
    4.1264   -2.0116    2.1219 O   0  0  0  0  0  0  0  0  0  0  0  0
    4.0263   -1.1914    1.2421 C   0  0  0  0  0  0  0  0  0  0  0  0
    3.0213   -0.0394    1.2095 C   0  0  2  0  0  0  0  0  0  0  0  0
    2.2785   -0.0722   -0.0136 O   0  0  0  0  0  0  0  0  0  0  0  0
    3.8395    1.2518    1.2056 C   0  0  0  0  0  0  0  0  0  0  0  0
    3.0748    2.4090    1.5928 N   0  0  0  0  0  0  0  0  0  0  0  0
    3.0665    3.1276    2.7210 C   0  0  0  0  0  0  0  0  0  0  0  0
    2.3823    4.1503    2.7632 O   0  0  0  0  0  0  0  0  0  0  0  0
    3.7663    2.7753    3.8060 N   0  0  0  0  0  0  0  0  0  0  0  0
    4.6945    1.7067    4.1228 C   0  0  0  0  0  0  0  0  0  0  0  0
    6.1393    2.1412    4.1207 C   0  0  0  0  0  0  0  0  0  0  0  0
    6.5227    3.4900    4.0958 C   0  0  0  0  0  0  0  0  0  0  0  0
    7.8502    3.8529    4.3138 C   0  0  0  0  0  0  0  0  0  0  0  0
    8.8100    2.8713    4.5480 C   0  0  0  0  0  0  0  0  0  0  0  0
    8.4552    1.5248    4.5081 C   0  0  0  0  0  0  0  0  0  0  0  0
    7.1353    1.1605    4.2475 C   0  0  0  0  0  0  0  0  0  0  0  0
    4.7977   -1.2045    0.1191 O   0  0  0  0  0  0  0  0  0  0  0  0
  1  2  2  0
  2 17  1  0
  3  5  1  0
  3  4  1  6
  3  2  1  0
  5  6  1  0
  6  7  1  0
  7  8  2  0
  7  9  1  0
  9 10  1  0
 10 11  1  0
 11 12  2  0
 11 16  1  0
 12 13  1  0
 13 14  2  0
 14 15  1  0
 15 16  2  0
M  END
>  <DRUGBANK_ID>  (1) 
DB08007

>  <COMMON_NAME>  (1) 
(2R)-3-{[(BENZYLAMINO)CARBONYL]AMINO}-2-HYDROXYPROPANOIC ACID

$$$$
