
     RDKit          3D

 37 42  0  0  0  0  0  0  0  0999 V2000
    1.4526   -0.7357    0.0754 C   0  0  0  0  0  0  0  0  0  0  0  0
    0.6555   -1.3409   -1.0028 N   0  0  0  0  0  0  0  0  0  0  0  0
   -0.8133   -1.3129   -0.8911 C   0  0  0  0  0  0  0  0  0  0  0  0
    1.0556   -0.7550   -2.2968 C   0  0  0  0  0  0  0  0  0  0  0  0
    0.4938    0.6660   -2.6608 C   0  0  0  0  0  0  0  0  0  0  0  0
    0.7354    1.7408   -1.6787 N   0  0  0  0  0  0  0  0  0  0  0  0
   -0.0665    1.6995   -0.4342 C   0  0  0  0  0  0  0  0  0  0  0  0
    0.7210    2.4580    0.6364 C   0  0  0  0  0  0  0  0  0  0  0  0
    0.7509    3.8802    0.1949 C   0  0  0  0  0  0  0  0  0  0  0  0
    0.6241    4.1462   -1.1809 C   0  0  0  0  0  0  0  0  0  0  0  0
    0.4675    3.0665   -2.2342 C   0  0  0  0  0  0  0  0  0  0  0  0
    0.5063    5.4613   -1.5510 C   0  0  0  0  0  0  0  0  0  0  0  0
    0.5669    6.4327   -0.5679 C   0  0  0  0  0  0  0  0  0  0  0  0
    0.7479    6.1066    0.7803 C   0  0  0  0  0  0  0  0  0  0  0  0
    0.8554    7.1112    1.7430 N   0  0  0  0  0  0  0  0  0  0  0  0
    0.7359    8.4727    1.5211 C   0  0  0  0  0  0  0  0  0  0  0  0
   -0.3892    8.8943    0.9001 N   0  0  0  0  0  0  0  0  0  0  0  0
   -0.4899   10.1931    0.5890 C   0  0  0  0  0  0  0  0  0  0  0  0
    0.5062   11.0882    0.8415 C   0  0  0  0  0  0  0  0  0  0  0  0
    0.3411   12.3861    0.5587 F   0  0  0  0  0  0  0  0  0  0  0  0
    1.6493   10.5962    1.4565 C   0  0  0  0  0  0  0  0  0  0  0  0
    1.7585    9.2953    1.8392 N   0  0  0  0  0  0  0  0  0  0  0  0
    2.6785   11.5443    1.9240 C   0  0  0  0  0  0  0  0  0  0  0  0
    2.1861   12.5703    2.7607 C   0  0  0  0  0  0  0  0  0  0  0  0
    2.9970   13.4364    3.3982 C   0  0  0  0  0  0  0  0  0  0  0  0
    2.6038   14.5122    4.0676 F   0  0  0  0  0  0  0  0  0  0  0  0
    4.3488   13.1455    3.3577 C   0  0  0  0  0  0  0  0  0  0  0  0
    5.2211   13.6866    4.1885 N   0  0  0  0  0  0  0  0  0  0  0  0
    5.9813   14.2503    3.2879 C   0  0  0  0  0  0  0  0  0  0  0  0
    6.7112   15.5407    3.6792 C   0  0  0  0  0  0  0  0  0  0  0  0
    6.0598   13.2262    2.2497 N   0  0  0  0  0  0  0  0  0  0  0  0
    7.2779   13.1003    1.4942 C   0  0  0  0  0  0  0  0  0  0  0  0
    8.4308   13.5250    2.3126 C   0  0  0  0  0  0  0  0  0  0  0  0
    7.8618   14.4249    1.1369 C   0  0  0  0  0  0  0  0  0  0  0  0
    4.8684   12.5078    2.2416 C   0  0  0  0  0  0  0  0  0  0  0  0
    4.0718   11.5527    1.5336 C   0  0  0  0  0  0  0  0  0  0  0  0
    0.8448    4.8247    1.1695 N   0  0  0  0  0  0  0  0  0  0  0  0
  1  2  1  0
  2  3  1  0
  2  4  1  0
  4  5  1  0
  5  6  1  0
  6  7  1  0
  6 11  1  0
  7  8  1  0
  8  9  1  0
  9 10  2  0
  9 37  1  0
 10 11  1  0
 10 12  1  0
 12 13  2  0
 13 14  1  0
 14 15  1  0
 14 37  2  0
 15 16  1  0
 16 17  2  0
 16 22  1  0
 17 18  1  0
 18 19  2  0
 19 20  1  0
 19 21  1  0
 21 22  2  0
 21 23  1  0
 23 24  2  0
 23 36  1  0
 24 25  1  0
 25 26  1  0
 25 27  2  0
 27 28  1  0
 27 35  1  0
 28 29  2  0
 29 30  1  0
 29 31  1  0
 31 32  1  0
 31 35  1  0
 32 33  1  0
 32 34  1  0
 33 34  1  0
 35 36  2  0
M  END
>  <DRUGBANK_ID>  (1) 
DB18299

>  <COMMON_NAME>  (1) 
N-(4-(1-cyclopropyl-4-fluoro-2-methyl-1H-benzo(d)imidazol-6-yl)-5-fluoropyrimidin-2-yl)-6-(2-(dimethylamino)ethyl)-5,6,7,8-tetrahydro-l,6-naphthyridin-2-amine

>  <CAS_NUMBER>  (1) 
2102887-41-0

>  <UNII>  (1) 
484EDA7KEM

$$$$
