
     RDKit          3D

  9  9  0  0  0  0  0  0  0  0999 V2000
    0.9066    0.0058    0.0687 C   0  0  0  0  0  0  0  0  0  0  0  0
    0.3680    1.0089    1.0520 C   0  0  0  0  0  0  0  0  0  0  0  0
   -0.3967    1.9127    0.7111 O   0  0  0  0  0  0  0  0  0  0  0  0
    0.7656    0.8935    2.4759 C   0  0  0  0  0  0  0  0  0  0  0  0
    2.0887    0.6088    2.8269 C   0  0  0  0  0  0  0  0  0  0  0  0
    2.4700    0.6272    4.1695 C   0  0  0  0  0  0  0  0  0  0  0  0
    1.5364    0.9372    5.1584 C   0  0  0  0  0  0  0  0  0  0  0  0
    0.2164    1.2230    4.8095 C   0  0  0  0  0  0  0  0  0  0  0  0
   -0.1782    1.1740    3.4712 C   0  0  0  0  0  0  0  0  0  0  0  0
  1  2  1  0
  2  3  2  0
  2  4  1  0
  4  5  2  0
  4  9  1  0
  5  6  1  0
  6  7  2  0
  7  8  1  0
  8  9  2  0
M  END
>  <DRUGBANK_ID>  (1) 
DB04619

>  <COMMON_NAME>  (1) 
Acetophenone

>  <CAS_NUMBER>  (1) 
98-86-2

>  <UNII>  (1) 
RK493WHV10

>  <SYNONYMS>  (1) 
1-phenylethanone; Acetylbenzene; Benzoyl methide; Methyl phenyl ketone; Phenyl methyl ketone

$$$$
