
     RDKit          3D

  2  0  0  0  0  0  0  0  0  0999 V2000
    0.4945    0.2607    1.2852 K   0  0  0  0  0 15  0  0  0  0  0  0
    1.5315   -0.4445   -1.2228 Cl  0  0  0  0  0  0  0  0  0  0  0  0
M  CHG  2   1   1   2  -1
M  END
>  <DRUGBANK_ID>  (1) 
DB00761

>  <SECONDARY_ACCESSION_NUMBERS>  (1) 
APRD01322

>  <COMMON_NAME>  (1) 
Potassium chloride

>  <CAS_NUMBER>  (1) 
7447-40-7

>  <UNII>  (1) 
660YQ98I10

>  <SYNONYMS>  (1) 
Chlorid draselny; Chloride of potash; Kaliumchlorid; KCl; Monopotassium chloride; Muriate of potash; Potassium chloride; Sylvite

$$$$
