
     RDKit          3D

 38 42  0  0  0  0  0  0  0  0999 V2000
   -6.9042   -0.7978   -6.3070 C   0  0  0  0  0  0  0  0  0  0  0  0
   -7.7968   -1.3821   -5.4069 C   0  0  0  0  0  0  0  0  0  0  0  0
   -5.5888    2.7953   -1.2293 C   0  0  2  0  0  0  0  0  0  0  0  0
   -5.8703    1.2638   -1.3961 C   0  0  2  0  0  0  0  0  0  0  0  0
   -5.2391    2.2646   -3.1190 C   0  0  0  0  0  0  0  0  0  0  0  0
   -6.5754    0.1692   -2.2066 C   0  0  0  0  0  0  0  0  0  0  0  0
   -6.3419    1.2332   -4.3302 C   0  0  2  0  0  0  0  0  0  0  0  0
   -6.8933    0.1581   -3.5000 C   0  0  0  0  0  0  0  0  0  0  0  0
   -7.8661   -0.8607   -4.0127 C   0  0  0  0  0  0  0  0  0  0  0  0
   -5.8775    0.3023   -5.7876 C   0  0  2  0  0  0  0  0  0  0  0  0
   -5.3525    3.2386    0.9151 C   0  0  1  0  0  0  0  0  0  0  0  0
   -6.9025    1.2952   -0.4108 C   0  0  0  0  0  0  0  0  0  0  0  0
   -4.6184    0.7943   -1.4536 O   0  0  0  0  0  0  0  0  0  0  0  0
   -6.6229    2.5367    1.1697 C   0  0  0  0  0  0  0  0  0  0  0  0
   -4.8428    2.9969    2.7291 N   0  0  0  0  0  0  0  0  0  0  0  0
   -6.9978   -0.8897   -1.4150 O   0  0  0  0  0  0  0  0  0  0  0  0
   -6.2448    1.2881    0.8955 C   0  0  0  0  0  0  0  0  0  0  0  0
   -8.0459    1.6410   -0.7351 O   0  0  0  0  0  0  0  0  0  0  0  0
   -7.8106    3.2904    1.0450 O   0  0  0  0  0  0  0  0  0  0  0  0
   -4.7582    4.1161    3.8945 C   0  0  0  0  0  0  0  0  0  0  0  0
   -4.4904    1.7933    3.7515 C   0  0  0  0  0  0  0  0  0  0  0  0
   -4.5557    1.0157    1.1512 C   0  0  0  0  0  0  0  0  0  0  0  0
   -8.8485   -1.0846   -3.3054 O   0  0  0  0  0  0  0  0  0  0  0  0
   -3.3994    1.5696    0.3630 N   0  0  0  0  0  0  0  0  0  0  0  0
   -4.2971    0.1508    1.9839 O   0  0  0  0  0  0  0  0  0  0  0  0
   -7.1374   -1.1105   -7.7145 C   0  0  0  0  0  0  0  0  0  0  0  0
   -8.7918   -2.2854   -5.8866 C   0  0  0  0  0  0  0  0  0  0  0  0
   -8.2015   -1.9023   -8.1797 C   0  0  0  0  0  0  0  0  0  0  0  0
   -9.0092   -2.5263   -7.2520 C   0  0  0  0  0  0  0  0  0  0  0  0
   -9.5978   -2.9631   -5.0101 O   0  0  0  0  0  0  0  0  0  0  0  0
   -5.6126    1.0591   -6.9743 O   0  0  0  0  0  0  0  0  0  0  0  0
   -4.5182   -0.1355   -5.3246 C   0  0  0  0  0  0  0  0  0  0  0  0
   -2.0610    0.9429    0.5148 C   0  0  0  0  0  0  0  0  0  0  0  0
   -1.7318   -0.0650   -0.5093 N   0  0  0  0  0  0  0  0  0  0  0  0
   -0.9958    0.2879   -1.7339 C   0  0  0  0  0  0  0  0  0  0  0  0
   -2.8393   -0.9269   -0.9183 C   0  0  0  0  0  0  0  0  0  0  0  0
   -2.0661    0.4943   -2.7674 C   0  0  0  0  0  0  0  0  0  0  0  0
   -2.9969   -0.6724   -2.4278 C   0  0  0  0  0  0  0  0  0  0  0  0
  1 26  1  0
  1  2  2  0
  2 27  1  0
  3 11  1  0
  3  4  1  0
  3  5  1  6
  4 12  1  0
  4  6  1  0
  4 13  1  1
  7  5  1  1
  6  8  2  0
  6 16  1  0
  7  8  1  0
  7 10  1  0
  8  9  1  0
  9  2  1  0
  9 23  2  0
 10  1  1  0
 10 31  1  0
 10 32  1  1
 11 14  1  0
 11 15  1  1
 12 17  1  0
 12 18  2  0
 14 17  2  0
 14 19  1  0
 15 20  1  0
 15 21  1  0
 17 22  1  0
 22 24  1  0
 22 25  2  0
 24 33  1  0
 26 28  2  0
 27 29  2  0
 27 30  1  0
 28 29  1  0
 33 34  1  0
 35 34  1  0
 36 34  1  0
 37 35  1  0
 38 36  1  0
 38 37  1  0
M  END
>  <DRUGBANK_ID>  (1) 
DB01301

>  <COMMON_NAME>  (1) 
Rolitetracycline

>  <CAS_NUMBER>  (1) 
751-97-3

>  <UNII>  (1) 
GH9IW85221

>  <SYNONYMS>  (1) 
N-(1-Pyrrolidinylmethyl)-tetracycline; N-(Pyrrolidinomethyl)tetracycline; Pyrrolidino-methyl-tetracycline; Rolitetraciclina; Rolitetracycline; Rolitetracyclinum

$$$$
