
     RDKit          3D

 30 34  0  0  0  0  0  0  0  0999 V2000
    2.2178    0.6894    0.0078 C   0  0  0  0  0  0  0  0  0  0  0  0
    1.0597    1.4716   -0.0148 C   0  0  0  0  0  0  0  0  0  0  0  0
   -0.1665    0.7937   -0.0223 C   0  0  0  0  0  0  0  0  0  0  0  0
   -1.5523    1.1167   -0.0490 C   0  0  0  0  0  0  0  0  0  0  0  0
   -2.2993    0.0045    0.0809 N   0  0  0  0  0  0  0  0  0  0  0  0
   -1.4191   -1.0060    0.0318 N   0  0  0  0  0  0  0  0  0  0  0  0
   -0.1267   -0.5938    0.0018 C   0  0  0  0  0  0  0  0  0  0  0  0
    0.9520   -1.3947    0.0065 N   0  0  0  0  0  0  0  0  0  0  0  0
    2.1085   -0.6975    0.0078 C   0  0  0  0  0  0  0  0  0  0  0  0
   -2.1888    2.4775   -0.1163 C   0  0  0  0  0  0  0  0  0  0  0  0
   -3.0459    2.6542   -1.2977 N   0  0  0  0  0  0  0  0  0  0  0  0
   -4.2125    1.9738   -1.5973 C   0  0  0  0  0  0  0  0  0  0  0  0
   -4.8782    0.9578   -0.9168 C   0  0  0  0  0  0  0  0  0  0  0  0
   -5.9612    0.3639   -1.5332 C   0  0  0  0  0  0  0  0  0  0  0  0
   -6.4151    0.7832   -2.7791 C   0  0  0  0  0  0  0  0  0  0  0  0
   -5.8424    1.9058   -3.4370 C   0  0  0  0  0  0  0  0  0  0  0  0
   -4.6769    2.4709   -2.8172 C   0  0  0  0  0  0  0  0  0  0  0  0
   -3.7420    3.5003   -3.1136 C   0  0  0  0  0  0  0  0  0  0  0  0
   -2.7705    3.6295   -2.1988 N   0  0  0  0  0  0  0  0  0  0  0  0
   -6.2507    2.4833   -4.6303 O   0  0  0  0  0  0  0  0  0  0  0  0
   -7.3980    2.0627   -5.2633 C   0  0  0  0  0  0  0  0  0  0  0  0
   -8.6663    2.1597   -4.6734 C   0  0  0  0  0  0  0  0  0  0  0  0
   -9.7729    1.5609   -5.2971 C   0  0  0  0  0  0  0  0  0  0  0  0
   -9.6274    0.9727   -6.5575 C   0  0  0  0  0  0  0  0  0  0  0  0
   -8.3796    0.9777   -7.1805 C   0  0  0  0  0  0  0  0  0  0  0  0
   -7.2620    1.5128   -6.5394 C   0  0  0  0  0  0  0  0  0  0  0  0
   -8.2174    0.2941   -8.7516 Cl  0  0  0  0  0  0  0  0  0  0  0  0
  -11.0331    1.4787   -4.6181 C   0  0  0  0  0  0  0  0  0  0  0  0
  -12.0575    1.3949   -4.0741 N   0  0  0  0  0  0  0  0  0  0  0  0
   -7.6449   -0.2863   -3.3776 Cl  0  0  0  0  0  0  0  0  0  0  0  0
  1  2  2  0
  1  9  1  0
  2  3  1  0
  3  4  1  0
  3  7  2  0
  4  5  2  0
  4 10  1  0
  5  6  1  0
  6  7  1  0
  7  8  1  0
  8  9  2  0
 10 11  1  0
 11 12  1  0
 11 19  1  0
 12 13  2  0
 12 17  1  0
 13 14  1  0
 14 15  2  0
 15 16  1  0
 15 30  1  0
 16 17  2  0
 16 20  1  0
 17 18  1  0
 18 19  2  0
 20 21  1  0
 21 22  2  0
 21 26  1  0
 22 23  1  0
 23 24  2  0
 23 28  1  0
 24 25  1  0
 25 26  2  0
 25 27  1  0
 28 29  3  0
M  END
>  <DRUGBANK_ID>  (1) 
DB12999

>  <COMMON_NAME>  (1) 
MK-6186

>  <CAS_NUMBER>  (1) 
1034474-19-5

>  <UNII>  (1) 
K3978U665M

$$$$
