
     RDKit          3D

  9  8  0  0  0  0  0  0  0  0999 V2000
    2.7374    1.7008    3.9745 C   0  0  0  0  0  0  0  0  0  0  0  0
    1.8167    0.9764    2.9683 C   0  0  0  0  0  0  0  0  0  0  0  0
    3.4960    1.0529    4.6830 O   0  0  0  0  0  0  0  0  0  0  0  0
    1.7143   -0.2424    3.0977 O   0  0  0  0  0  0  0  0  0  0  0  0
    1.0048    1.7690    1.9371 C   0  0  2  0  0  0  0  0  0  0  0  0
    2.6479    3.0286    4.0741 O   0  0  0  0  0  0  0  0  0  0  0  0
    0.2153    0.8253    0.9902 C   0  0  0  0  0  0  0  0  0  0  0  0
    1.8408    2.7258    1.0860 C   0  0  0  0  0  0  0  0  0  0  0  0
    1.0835   -0.2174    0.2839 C   0  0  0  0  0  0  0  0  0  0  0  0
  2  1  1  0
  3  1  2  0
  4  2  2  0
  5  8  1  6
  5  7  1  0
  5  2  1  0
  6  1  1  0
  9  7  1  0
M  END
>  <DRUGBANK_ID>  (1) 
DB15833

>  <COMMON_NAME>  (1) 
alpha-Keto-isoleucine

>  <CAS_NUMBER>  (1) 
24809-08-3

>  <UNII>  (1) 
XQL9PAO004

>  <SYNONYMS>  (1) 
L-2-Keto-3-methylvalerate

$$$$
