LJ3
     RDKit          3D

 15 16  0  0  0  0  0  0  0  0999 V2000
   -1.2125   -1.9366    0.0293 C   0  0  0  0  0  0  0  0  0  0  0  0
   -1.2160   -0.5372    0.0158 C   0  0  0  0  0  0  0  0  0  0  0  0
   -2.8813    0.3707   -0.0142 Br  0  0  0  0  0  0  0  0  0  0  0  0
   -0.0159    0.1776    0.0271 C   0  0  0  0  0  0  0  0  0  0  0  0
   -0.0076    1.5476    0.0438 O   0  0  0  0  0  0  0  0  0  0  0  0
    1.1932   -0.5168    0.0267 C   0  0  0  0  0  0  0  0  0  0  0  0
    2.8595    0.3895   -0.0036 Br  0  0  0  0  0  0  0  0  0  0  0  0
    1.1984   -1.9153    0.0479 C   0  0  0  0  0  0  0  0  0  0  0  0
   -0.0022   -2.6469    0.0664 C   0  0  0  0  0  0  0  0  0  0  0  0
    0.0272   -4.1181    0.1054 C   0  0  0  0  0  0  0  0  0  0  0  0
   -0.5633   -4.8812   -0.9124 C   0  0  0  0  0  0  0  0  0  0  0  0
   -0.4630   -6.2760   -0.9174 C   0  0  0  0  0  0  0  0  0  0  0  0
    0.2390   -6.9289    0.0941 C   0  0  0  0  0  0  0  0  0  0  0  0
    0.8229   -6.1910    1.1185 C   0  0  0  0  0  0  0  0  0  0  0  0
    0.6964   -4.7988    1.1387 C   0  0  0  0  0  0  0  0  0  0  0  0
  1  2  2  0
  1  9  1  0
  2  3  1  0
  2  4  1  0
  4  5  1  0
  4  6  2  0
  6  7  1  0
  6  8  1  0
  8  9  2  0
  9 10  1  0
 10 11  2  0
 10 15  1  0
 11 12  1  0
 12 13  2  0
 13 14  1  0
 14 15  2  0
M  END
>  <DRUGBANK_ID>  (1) 
DB08102

>  <COMMON_NAME>  (1) 
3,5-dibromobiphenyl-4-ol

>  <UNII>  (1) 
X915771SGZ

$$$$
