
     RDKit          3D

  5  4  0  0  0  0  0  0  0  0999 V2000
    1.1290   -0.0629    0.0415 O   0  0  0  0  0  0  0  0  0  0  0  0
    2.5790   -0.0629    0.0415 Cl  0  0  0  0  0  0  0  0  0  0  0  0
    3.0624   -1.4290   -0.0113 O   0  0  0  0  0  0  0  0  0  0  0  0
    3.0624    0.6659   -1.1150 O   0  0  0  0  0  0  0  0  0  0  0  0
    3.0624    0.5743    1.2510 O   0  0  0  0  0  0  0  0  0  0  0  0
  1  2  1  0
  2  3  1  0
  2  4  1  0
  2  5  1  0
M  CHG  5   1  -1   2   3   3  -1   4  -1   5  -1
M  END
>  <DRUGBANK_ID>  (1) 
DB03138

>  <SECONDARY_ACCESSION_NUMBERS>  (1) 
EXPT02010

>  <COMMON_NAME>  (1) 
Perchlorate

>  <CAS_NUMBER>  (1) 
14797-73-0

>  <UNII>  (1) 
VLA4NZX2P4

>  <SYNONYMS>  (1) 
Perchlorate Ion

$$$$
