
     RDKit          3D

 22 25  0  0  0  0  0  0  0  0999 V2000
   -0.6143   -1.0984   -0.8036 C   0  0  0  0  0  0  0  0  0  0  0  0
   -1.9111   -1.5824   -1.3781 C   0  0  0  0  0  0  0  0  0  0  0  0
    1.5392    1.1604    1.0856 C   0  0  2  0  0  0  0  0  0  0  0  0
   -2.8484   -0.8658   -0.4139 C   0  0  0  0  0  0  0  0  0  0  0  0
   -0.3164    0.5252   -0.9642 C   0  0  2  0  0  0  0  0  0  0  0  0
    0.8636    1.3524   -0.2028 C   0  0  1  0  0  0  0  0  0  0  0  0
    0.7843   -1.4192   -0.1932 C   0  0  0  0  0  0  0  0  0  0  0  0
    1.6190   -0.5308    0.5383 C   0  0  0  0  0  0  0  0  0  0  0  0
    0.4007    2.5477    1.9248 C   0  0  1  0  0  0  0  0  0  0  0  0
   -3.8929   -1.4678    0.1582 C   0  0  0  0  0  0  0  0  0  0  0  0
   -0.2235    1.3919    2.6628 C   0  0  0  0  0  0  0  0  0  0  0  0
   -3.2735   -2.6784   -2.1423 C   0  0  0  0  0  0  0  0  0  0  0  0
   -1.6467    1.2071   -0.6945 C   0  0  0  0  0  0  0  0  0  0  0  0
    1.1369    2.8538   -0.3691 C   0  0  0  0  0  0  0  0  0  0  0  0
   -0.5841    0.3227    2.9620 C   0  0  0  0  0  0  0  0  0  0  0  0
   -2.5852    0.4550    0.1753 C   0  0  0  0  0  0  0  0  0  0  0  0
   -3.8633   -2.9001   -0.1089 C   0  0  0  0  0  0  0  0  0  0  0  0
    0.1238    3.4457    0.4892 C   0  0  0  0  0  0  0  0  0  0  0  0
   -2.9843   -3.6879    0.2349 O   0  0  0  0  0  0  0  0  0  0  0  0
   -4.6301   -3.1442   -1.2956 C   0  0  0  0  0  0  0  0  0  0  0  0
   -0.9312    3.2480    2.0281 O   0  0  0  0  0  0  0  0  0  0  0  0
    3.1053    1.4931    1.3178 C   0  0  0  0  0  0  0  0  0  0  0  0
  2  1  2  0
  3  8  1  0
  3 22  1  6
  4  2  1  0
  4 16  1  0
  5  1  1  0
  6  5  1  0
  6  3  1  0
  7  1  1  0
  8  7  2  0
  9  3  1  0
  9 18  1  0
  9 21  1  6
  9 11  1  0
 10  4  2  0
 10 17  1  0
 12  2  1  0
  5 13  1  1
  6 14  1  6
 15 11  3  0
 16 13  1  0
 17 20  1  0
 18 14  1  0
 19 17  2  0
 20 12  1  0
M  END
>  <DRUGBANK_ID>  (1) 
DB13563

>  <COMMON_NAME>  (1) 
Norgestrienone

>  <CAS_NUMBER>  (1) 
848-21-5

>  <UNII>  (1) 
89386PYU9O

>  <SYNONYMS>  (1) 
Norgestrienone

$$$$
