
     RDKit          3D

 43 48  0  0  0  0  0  0  0  0999 V2000
    2.6908    0.7761   -0.0100 C   0  0  1  0  0  0  0  0  0  0  0  0
   -1.4516    0.1015    0.2799 C   0  0  1  0  0  0  0  0  0  0  0  0
    2.1324   -0.5868   -0.5135 C   0  0  2  0  0  0  0  0  0  0  0  0
    4.0968    0.5967   -0.5464 C   0  0  2  0  0  0  0  0  0  0  0  0
    4.4647   -0.9754   -0.2757 C   0  0  1  0  0  0  0  0  0  0  0  0
   -0.1233    0.3559   -0.4758 C   0  0  2  0  0  0  0  0  0  0  0  0
    0.7722   -0.8048    0.0058 C   0  0  1  0  0  0  0  0  0  0  0  0
    5.5481   -1.3147    0.8108 N   0  0  0  0  0  0  0  0  0  0  0  0
   -4.0621    1.2681   -0.0563 C   0  0  2  0  0  0  0  0  0  0  0  0
   -4.5180   -0.0698   -0.6663 C   0  0  2  0  0  0  0  0  0  0  0  0
    3.1065   -1.6471   -0.0363 C   0  0  0  0  0  0  0  0  0  0  0  0
   -2.4760    1.1748   -0.2849 C   0  0  0  0  0  0  0  0  0  0  0  0
   -2.1352   -1.2130   -0.2766 C   0  0  2  0  0  0  0  0  0  0  0  0
   -4.6281    1.7888    1.2395 N   0  0  0  0  0  0  0  0  0  0  0  0
    1.9145    1.9187   -0.6740 C   0  0  0  0  0  0  0  0  0  0  0  0
    4.9749    1.6051   -0.0493 O   0  0  0  0  0  0  0  0  0  0  0  0
   -3.6940   -1.3108   -0.1248 C   0  0  0  0  0  0  0  0  0  0  0  0
    0.4571    1.8112   -0.2609 C   0  0  0  0  0  0  0  0  0  0  0  0
   -4.3821    0.0377   -2.1882 O   0  0  0  0  0  0  0  0  0  0  0  0
    0.1219   -2.2003   -0.1882 C   0  0  0  0  0  0  0  0  0  0  0  0
    5.9336    2.2571   -0.7834 C   0  0  0  0  0  0  0  0  0  0  0  0
   -3.7499    0.8323   -3.1223 C   0  0  0  0  0  0  0  0  0  0  0  0
   -1.3477   -2.3651    0.2776 C   0  0  0  0  0  0  0  0  0  0  0  0
   -3.7175    0.4520   -4.2803 O   0  0  0  0  0  0  0  0  0  0  0  0
    6.8340    2.8053   -0.2210 O   0  0  0  0  0  0  0  0  0  0  0  0
    7.5961   -1.4109   -0.9799 C   0  0  0  0  0  0  0  0  0  0  0  0
    6.9860   -0.7600    0.3116 C   0  0  0  0  0  0  0  0  0  0  0  0
    8.2310   -0.8621   -2.0512 C   0  0  0  0  0  0  0  0  0  0  0  0
    2.7066    1.0590    1.5080 C   0  0  0  0  0  0  0  0  0  0  0  0
   -0.7581   -0.0154    1.8503 C   0  0  0  0  0  0  0  0  0  0  0  0
    5.7037   -2.8424    1.0175 C   0  0  0  0  0  0  0  0  0  0  0  0
    5.0793   -0.7013    2.1593 C   0  0  0  0  0  0  0  0  0  0  0  0
   -4.1117    3.1454    1.5989 C   0  0  0  0  0  0  0  0  0  0  0  0
   -4.4190    0.9054    2.3701 C   0  0  0  0  0  0  0  0  0  0  0  0
    5.9204    2.0473   -2.3071 C   0  0  0  0  0  0  0  0  0  0  0  0
   -2.9868    2.1352   -2.7973 C   0  0  0  0  0  0  0  0  0  0  0  0
    5.8759   -1.0626    3.3836 C   0  0  0  0  0  0  0  0  0  0  0  0
    6.5719   -3.1172    2.2458 C   0  0  0  0  0  0  0  0  0  0  0  0
    5.9919    0.5932   -2.6189 C   0  0  0  0  0  0  0  0  0  0  0  0
   -2.6087    3.3361    1.7233 C   0  0  0  0  0  0  0  0  0  0  0  0
   -2.9673    0.9133    2.5487 C   0  0  0  0  0  0  0  0  0  0  0  0
   -2.1211    2.2442    2.6663 C   0  0  0  0  0  0  0  0  0  0  0  0
    5.9053   -2.5711    3.4964 C   0  0  0  0  0  0  0  0  0  0  0  0
  1 29  1  1
  2  6  1  0
  2 30  1  1
  3  1  1  0
  4  1  1  0
  4 16  1  1
  5  4  1  0
  5  8  1  1
  5 11  1  0
  6 18  1  1
  6  7  1  0
  7  3  1  0
  9 12  1  0
  9 14  1  1
 10 17  1  0
 10  9  1  0
 10 19  1  6
  3 11  1  1
 12  2  1  0
 13  2  1  0
 15  1  1  0
 13 17  1  1
 18 15  1  0
  7 20  1  6
 21 16  1  0
 22 19  1  0
 23 20  1  0
 23 13  1  0
 24 22  2  0
 25 21  2  0
 26 27  1  0
 27  8  1  0
 28 26  2  0
 31  8  1  0
 32  8  1  0
 33 14  1  0
 34 14  1  0
 35 21  1  0
 36 22  1  0
 37 32  1  0
 38 31  1  0
 39 35  1  0
 40 33  1  0
 41 34  1  0
 42 40  1  0
 42 41  1  0
 43 38  1  0
 43 37  1  0
M  CHG  1   8   1
M  END
>  <DRUGBANK_ID>  (1) 
DB04834

>  <COMMON_NAME>  (1) 
Rapacuronium

>  <CAS_NUMBER>  (1) 
465499-11-0

>  <UNII>  (1) 
GG1LBM463S

$$$$
