
     RDKit          3D

 33 35  0  0  0  0  0  0  0  0999 V2000
    2.4451   -0.1186    0.2910 C   0  0  0  0  0  0  0  0  0  0  0  0
    0.9468   -0.0908    0.5888 C   0  0  0  0  0  0  0  0  0  0  0  0
    0.2071   -1.2851    0.7719 C   0  0  0  0  0  0  0  0  0  0  0  0
   -1.1896   -1.1315    0.6743 C   0  0  0  0  0  0  0  0  0  0  0  0
   -1.8096    0.0969    0.3743 C   0  0  0  0  0  0  0  0  0  0  0  0
   -1.0236    1.2251    0.3388 C   0  0  0  0  0  0  0  0  0  0  0  0
    0.3345    1.1544    0.4819 N   0  0  0  0  0  0  0  0  0  0  0  0
   -1.7624    2.9023    0.2563 S   0  0  0  0  0  0  0  0  0  0  0  0
   -1.5326    3.5374    1.5120 O   0  0  0  0  0  0  0  0  0  0  0  0
   -1.3884    3.6021   -0.9914 O   0  0  0  0  0  0  0  0  0  0  0  0
   -3.5170    2.6539    0.0936 C   0  0  0  0  0  0  0  0  0  0  0  0
    0.8057   -2.6002    0.9918 N   0  0  0  0  0  0  0  0  0  0  0  0
    0.1859   -3.8787    0.6872 C   0  0  0  0  0  0  0  0  0  0  0  0
   -0.4032   -4.0878   -0.5463 C   0  0  0  0  0  0  0  0  0  0  0  0
   -1.2940   -5.1477   -0.7810 C   0  0  0  0  0  0  0  0  0  0  0  0
   -1.3478   -6.1150    0.1489 N   0  0  0  0  0  0  0  0  0  0  0  0
   -0.5516   -5.9474    1.2343 C   0  0  0  0  0  0  0  0  0  0  0  0
    0.2056   -4.8759    1.5577 N   0  0  0  0  0  0  0  0  0  0  0  0
   -2.1505   -5.3758   -1.8467 O   0  0  0  0  0  0  0  0  0  0  0  0
   -2.5864   -4.5799   -3.0060 C   0  0  0  0  0  0  0  0  0  0  0  0
   -1.5607   -4.4590   -4.1463 C   0  0  0  0  0  0  0  0  0  0  0  0
   -0.5549   -3.4369   -3.7866 C   0  0  0  0  0  0  0  0  0  0  0  0
   -1.2652   -2.0944   -3.2549 N   0  0  0  0  0  0  0  0  0  0  0  0
   -2.3730   -2.2174   -2.2427 C   0  0  0  0  0  0  0  0  0  0  0  0
   -3.3354   -3.2660   -2.6965 C   0  0  0  0  0  0  0  0  0  0  0  0
   -0.5609   -0.8700   -3.4229 C   0  0  0  0  0  0  0  0  0  0  0  0
    0.4461   -0.8266   -4.1350 O   0  0  0  0  0  0  0  0  0  0  0  0
   -0.9048    0.2036   -2.6314 O   0  0  0  0  0  0  0  0  0  0  0  0
   -0.1398    1.4480   -2.8344 C   0  0  0  0  0  0  0  0  0  0  0  0
    1.3023    1.5846   -2.3317 C   0  0  0  0  0  0  0  0  0  0  0  0
   -0.1783    1.8523   -4.2867 C   0  0  0  0  0  0  0  0  0  0  0  0
   -0.1578   -3.1988   -1.4821 O   0  0  0  0  0  0  0  0  0  0  0  0
    0.9343   -2.3436   -1.7046 C   0  0  0  0  0  0  0  0  0  0  0  0
  1  2  1  0
  2  3  2  0
  2  7  1  0
  3  4  1  0
  3 12  1  0
  4  5  2  0
  5  6  1  0
  6  7  2  0
  6  8  1  0
  8  9  2  0
  8 10  2  0
  8 11  1  0
 12 13  1  0
 13 14  2  0
 13 18  1  0
 14 15  1  0
 14 32  1  0
 15 16  2  0
 15 19  1  0
 16 17  1  0
 17 18  2  0
 19 20  1  0
 20 21  1  0
 20 25  1  0
 21 22  1  0
 22 23  1  0
 23 24  1  0
 23 26  1  0
 24 25  1  0
 26 27  2  0
 26 28  1  0
 28 29  1  0
 29 30  1  0
 29 31  1  0
 32 33  1  0
M  END
>  <DRUGBANK_ID>  (1) 
DB12084

>  <COMMON_NAME>  (1) 
ADP-597

>  <CAS_NUMBER>  (1) 
897732-93-3

>  <UNII>  (1) 
345354O7AT

$$$$
