
     RDKit          3D

 15 14  0  0  0  0  0  0  0  0999 V2000
    0.9828   -0.4152   -0.2526 O   0  0  0  0  0  0  0  0  0  0  0  0
    0.5046   -0.0677   -1.5346 C   0  0  0  0  0  0  0  0  0  0  0  0
    1.1413    1.2400   -1.9618 C   0  0  0  0  0  0  0  0  0  0  0  0
    2.5034    1.6708   -1.8160 O   0  0  0  0  0  0  0  0  0  0  0  0
    2.9994    1.9497   -0.4838 C   0  0  0  0  0  0  0  0  0  0  0  0
    2.3886    2.9999    0.4261 C   0  0  0  0  0  0  0  0  0  0  0  0
    0.9816    2.8626    0.6081 O   0  0  0  0  0  0  0  0  0  0  0  0
    0.2372    3.5042   -0.4133 C   0  0  0  0  0  0  0  0  0  0  0  0
    2.3156   -0.9014   -0.2770 C   0  0  0  0  0  0  0  0  0  0  0  0
    2.9103   -1.2403    1.0602 C   0  0  0  0  0  0  0  0  0  0  0  0
    2.2449   -2.3323    1.6769 O   0  0  0  0  0  0  0  0  0  0  0  0
    0.8544   -1.9507    1.9034 C   0  0  0  0  0  0  0  0  0  0  0  0
    0.4714   -0.7231    2.8543 C   0  0  0  0  0  0  0  0  0  0  0  0
    0.8621    0.6625    2.6430 O   0  0  0  0  0  0  0  0  0  0  0  0
    2.2002    0.9976    2.9843 C   0  0  0  0  0  0  0  0  0  0  0  0
  2  1  1  0
  3  2  1  0
  4  3  1  0
  5  4  1  0
  6  5  1  0
  7  6  1  0
  8  7  1  0
  9  1  1  0
 10  9  1  0
 11 10  1  0
 12 11  1  0
 13 12  1  0
 14 13  1  0
 15 14  1  0
M  END
>  <DRUGBANK_ID>  (1) 
DB14000

>  <COMMON_NAME>  (1) 
Tetraglyme

>  <CAS_NUMBER>  (1) 
143-24-8

>  <UNII>  (1) 
78L136FLZ9

>  <SYNONYMS>  (1) 
bis[2-(2-methoxyethoxy)ethyl] ether; dimethoxytetraethylene glycol; Glyme 5; TEGDME; tetraethylene glycol dimethyl ether

$$$$
