
     RDKit          3D

 18 20  0  0  0  0  0  0  0  0999 V2000
   -1.4825    0.0214   -0.1908 C   0  0  0  0  0  0  0  0  0  0  0  0
   -0.7203    1.2836    0.2176 C   0  0  0  0  0  0  0  0  0  0  0  0
   -0.7335   -1.2452    0.2351 C   0  0  0  0  0  0  0  0  0  0  0  0
    2.2951    2.1094    2.3495 C   0  0  0  0  0  0  0  0  0  0  0  0
    2.8414    3.2959    2.8399 C   0  0  0  0  0  0  0  0  0  0  0  0
    5.9409    5.0606    2.8713 C   0  0  0  0  0  0  0  0  0  0  0  0
    6.7506    4.1941    2.1679 C   0  0  0  0  0  0  0  0  0  0  0  0
    0.7270    1.2335   -0.2686 C   0  0  0  0  0  0  0  0  0  0  0  0
    0.7314   -1.2125   -0.2117 C   0  0  0  0  0  0  0  0  0  0  0  0
    4.4325    1.5548    1.3795 C   0  0  0  0  0  0  0  0  0  0  0  0
    3.0803    1.2482    1.5854 C   0  0  0  0  0  0  0  0  0  0  0  0
    4.1687    3.6289    2.6137 C   0  0  0  0  0  0  0  0  0  0  0  0
    4.9905    2.7353    1.8774 C   0  0  0  0  0  0  0  0  0  0  0  0
    2.4993   -0.0196    1.0638 C   0  0  0  0  0  0  0  0  0  0  0  0
    4.6397    4.7921    3.1049 N   0  0  0  0  0  0  0  0  0  0  0  0
    6.2917    3.0268    1.6574 N   0  0  0  0  0  0  0  0  0  0  0  0
    1.3743    0.0257    0.2372 N   0  0  0  0  0  0  0  0  0  0  0  0
    3.0419   -1.0677    1.4152 O   0  0  0  0  0  0  0  0  0  0  0  0
  2  1  1  0
  3  1  1  0
  5  4  2  0
  7  6  1  0
  8  2  1  0
  9  3  1  0
 11  4  1  0
 11 10  2  0
 12  5  1  0
 13 10  1  0
 13 12  2  0
 14 11  1  0
 15  6  2  0
 15 12  1  0
 16  7  2  0
 16 13  1  0
 17  8  1  0
 17  9  1  0
 17 14  1  0
 18 14  2  0
M  END
>  <DRUGBANK_ID>  (1) 
DB06247

>  <COMMON_NAME>  (1) 
CX516

>  <CAS_NUMBER>  (1) 
154235-83-3

>  <UNII>  (1) 
Z5QU38B4V9

$$$$
