N23
     RDKit          3D

 20 22  0  0  0  0  0  0  0  0999 V2000
   -3.4844    0.0501   -0.0051 C   0  0  0  0  0  0  0  0  0  0  0  0
   -1.9980   -0.0508    0.0148 C   0  0  0  0  0  0  0  0  0  0  0  0
   -1.1850    1.0619   -0.0063 N   0  0  0  0  0  0  0  0  0  0  0  0
    0.1436    0.6954    0.0286 C   0  0  0  0  0  0  0  0  0  0  0  0
    1.3196    1.4612    0.0006 C   0  0  0  0  0  0  0  0  0  0  0  0
    2.5490    0.7834   -0.0155 C   0  0  0  0  0  0  0  0  0  0  0  0
    2.6063   -0.5987    0.0698 C   0  0  0  0  0  0  0  0  0  0  0  0
    1.4323   -1.3234    0.2354 C   0  0  0  0  0  0  0  0  0  0  0  0
    0.1762   -0.6907    0.1308 C   0  0  0  0  0  0  0  0  0  0  0  0
   -1.1729   -1.1629    0.0750 C   0  0  0  0  0  0  0  0  0  0  0  0
   -1.5990   -2.5939    0.0797 C   0  0  0  0  0  0  0  0  0  0  0  0
   -1.1856   -3.3642   -1.1773 C   0  0  0  0  0  0  0  0  0  0  0  0
    0.2501   -3.5484   -1.3721 N   0  0  0  0  0  0  0  0  0  0  0  0
    1.0276   -4.6557   -1.1209 C   0  0  0  0  0  0  0  0  0  0  0  0
    2.2467   -4.5126   -0.9903 O   0  0  0  0  0  0  0  0  0  0  0  0
    0.3465   -5.9267   -1.1058 C   0  0  0  0  0  0  0  0  0  0  0  0
   -0.6793   -6.3181   -1.9440 C   0  0  0  0  0  0  0  0  0  0  0  0
   -1.1960   -7.5919   -1.6179 C   0  0  0  0  0  0  0  0  0  0  0  0
   -0.4827   -8.1806   -0.5989 C   0  0  0  0  0  0  0  0  0  0  0  0
    0.7757   -7.1681   -0.0183 S   0  0  0  0  0  0  0  0  0  0  0  0
  1  2  1  0
  2  3  1  0
  2 10  2  0
  3  4  1  0
  4  5  2  0
  4  9  1  0
  5  6  1  0
  6  7  2  0
  7  8  1  0
  8  9  2  0
  9 10  1  0
 10 11  1  0
 11 12  1  0
 12 13  1  0
 13 14  1  0
 14 15  2  0
 14 16  1  0
 16 17  2  0
 16 20  1  0
 17 18  1  0
 18 19  2  0
 19 20  1  0
M  END
>  <DRUGBANK_ID>  (1) 
DB08235

>  <COMMON_NAME>  (1) 
N-[2-(2-methyl-1H-indol-3-yl)ethyl]thiophene-2-carboxamide

>  <UNII>  (1) 
82XC8RSD8V

$$$$
