
     RDKit          3D

 43 47  0  0  1  0  0  0  0  0999 V2000
    0.9381    0.0088   -0.1317 C   0  0  0  0  0  0  0  0  0  0  0  0
    2.3903   -0.0715    2.9731 C   0  0  0  0  0  0  0  0  0  0  0  0
    0.7179   -6.4611    6.7425 C   0  0  0  0  0  0  0  0  0  0  0  0
   -4.0539   -8.0406    0.0521 C   0  0  0  0  0  0  0  0  0  0  0  0
    0.9766   -6.2233    5.4596 C   0  0  0  0  0  0  0  0  0  0  0  0
   -0.2091   -5.4531    6.8125 C   0  0  0  0  0  0  0  0  0  0  0  0
   -2.7422   -8.2057    0.2843 C   0  0  0  0  0  0  0  0  0  0  0  0
   -4.8924   -7.9634    1.1759 C   0  0  0  0  0  0  0  0  0  0  0  0
    0.3369   -5.1746    4.2648 C   0  0  0  0  0  0  0  0  0  0  0  0
   -0.8407   -4.4192    5.6169 C   0  0  0  0  0  0  0  0  0  0  0  0
   -2.3662   -8.3478    1.6091 C   0  0  0  0  0  0  0  0  0  0  0  0
   -4.4215   -7.9170    2.5241 C   0  0  0  0  0  0  0  0  0  0  0  0
    1.7009   -4.9818   -0.8625 C   0  0  0  0  0  0  0  0  0  0  0  0
    1.7656   -3.7798    5.6307 C   0  0  0  0  0  0  0  0  0  0  0  0
    2.6086   -3.9234   -0.9348 C   0  0  0  0  0  0  0  0  0  0  0  0
    1.1112   -2.4688    5.7768 C   0  0  0  0  0  0  0  0  0  0  0  0
   -0.9220   -3.6881    2.8555 C   0  0  0  0  0  0  0  0  0  0  0  0
   -0.0228   -3.4165   -0.2970 C   0  0  0  0  0  0  0  0  0  0  0  0
    2.6614   -3.6820    3.4612 C   0  0  0  0  0  0  0  0  0  0  0  0
   -2.4306   -7.9438    4.1621 C   0  0  0  0  0  0  0  0  0  0  0  0
   -0.5038   -5.9051   -0.0685 C   0  0  0  0  0  0  0  0  0  0  0  0
    1.8328   -6.4351    3.5550 C   0  0  0  0  0  0  0  0  0  0  0  0
   -2.6091   -5.6056    4.0955 C   0  0  0  0  0  0  0  0  0  0  0  0
   -0.5971   -4.1934    4.2465 C   0  0  0  0  0  0  0  0  0  0  0  0
   -3.0856   -8.1427    2.7864 C   0  0  0  0  0  0  0  0  0  0  0  0
    0.3905   -4.7482   -0.4520 C   0  0  0  0  0  0  0  0  0  0  0  0
    2.4214   -4.7203    4.3510 C   0  0  0  0  0  0  0  0  0  0  0  0
   -1.6638   -4.7885    1.9682 C   0  0  2  0  0  0  0  0  0  0  0  0
    2.2155   -2.6246   -0.6016 C   0  0  0  0  0  0  0  0  0  0  0  0
    1.3692   -1.6542    4.7801 C   0  0  0  0  0  0  0  0  0  0  0  0
   -2.9480   -5.1856    2.7015 C   0  0  2  0  0  0  0  0  0  0  0  0
    0.8964   -2.3665   -0.2467 C   0  0  0  0  0  0  0  0  0  0  0  0
    2.1763   -2.2377    3.7107 C   0  0  0  0  0  0  0  0  0  0  0  0
   -0.1115   -7.0268    2.0091 C   0  0  0  0  0  0  0  0  0  0  0  0
   -1.5333   -6.7648    4.2551 N   0  0  0  0  0  0  0  0  0  0  0  0
   -0.7712   -5.9561    1.3741 N   0  0  0  0  0  0  0  0  0  0  0  0
    0.0201   -6.9997    3.3336 N   0  0  0  0  0  0  0  0  0  0  0  0
    3.1369   -1.6213   -0.6372 O   0  0  0  0  0  0  0  0  0  0  0  0
    0.8761   -0.3845    4.9655 O   0  0  0  0  0  0  0  0  0  0  0  0
   -3.9144   -4.1069    2.7911 O   0  0  0  0  0  0  0  0  0  0  0  0
    0.5158   -7.9827    1.5209 O   0  0  0  0  0  0  0  0  0  0  0  0
    0.3976   -1.2221    0.3194 O   0  0  0  0  0  0  0  0  0  0  0  0
    2.6495   -1.4329    2.7016 O   0  0  0  0  0  0  0  0  0  0  0  0
  5  3  2  0
  6  3  1  0
  7  4  2  0
  8  4  1  0
  9  5  1  0
 10  6  2  0
 11  7  1  0
 12  8  2  0
 15 13  2  0
 16 14  2  0
 24  9  2  0
 24 10  1  0
 24 17  1  0
 25 11  2  0
 25 12  1  0
 25 20  1  0
 26 13  1  0
 26 18  2  0
 26 21  1  0
 27 14  1  0
 27 19  2  0
 27 22  1  0
 28 17  1  1
 29 15  1  0
 30 16  1  0
 31 23  1  0
 31 28  1  0
 31 40  1  1
 32 18  1  0
 32 29  2  0
 33 19  1  0
 33 30  2  0
 35 20  1  0
 35 23  1  0
 36 21  1  0
 36 28  1  0
 36 34  1  0
 37 22  1  0
 37 34  1  0
 37 35  1  0
 38 29  1  0
 39 30  1  0
 41 34  2  0
 42  1  1  0
 42 32  1  0
 43  2  1  0
 43 33  1  0
M  END
>  <DRUGBANK_ID>  (1) 
DB02804

>  <SECONDARY_ACCESSION_NUMBERS>  (1) 
EXPT00377

>  <COMMON_NAME>  (1) 
A-98881

$$$$
