
     RDKit          3D

 35 37  0  0  0  0  0  0  0  0999 V2000
    0.8759   -0.2030   -0.0875 C   0  0  0  0  0  0  0  0  0  0  0  0
    0.5451   -0.1956    1.3960 C   0  0  0  0  0  0  0  0  0  0  0  0
    1.0791    0.9532    2.1515 N   0  0  0  0  0  0  0  0  0  0  0  0
    0.0932    1.8640    2.7704 C   0  0  0  0  0  0  0  0  0  0  0  0
    0.1426    1.9071    4.2814 C   0  0  0  0  0  0  0  0  0  0  0  0
    0.2186    3.1429    4.9446 C   0  0  0  0  0  0  0  0  0  0  0  0
    0.3366    3.1902    6.3330 C   0  0  0  0  0  0  0  0  0  0  0  0
    0.3628    2.0074    7.0715 C   0  0  0  0  0  0  0  0  0  0  0  0
    0.2745    0.7747    6.4265 C   0  0  0  0  0  0  0  0  0  0  0  0
    0.1859    0.7229    5.0369 C   0  0  0  0  0  0  0  0  0  0  0  0
    2.4372    1.2121    2.2843 C   0  0  0  0  0  0  0  0  0  0  0  0
    3.3200    1.1831    1.2011 C   0  0  0  0  0  0  0  0  0  0  0  0
    4.6913    1.4571    1.3174 C   0  0  0  0  0  0  0  0  0  0  0  0
    5.2202    1.8710    2.5355 C   0  0  0  0  0  0  0  0  0  0  0  0
    4.3556    1.9702    3.6112 C   0  0  0  0  0  0  0  0  0  0  0  0
    3.0222    1.5870    3.4988 C   0  0  0  0  0  0  0  0  0  0  0  0
    6.5425    2.2457    2.8039 N   0  0  0  0  0  0  0  0  0  0  0  0
    7.3741    1.8943    1.9576 N   0  0  0  0  0  0  0  0  0  0  0  0
    8.6530    2.2704    2.4144 C   0  0  0  0  0  0  0  0  0  0  0  0
    9.4185    1.4593    3.2505 C   0  0  0  0  0  0  0  0  0  0  0  0
   10.8347    1.6057    3.3445 C   0  0  0  0  0  0  0  0  0  0  0  0
   11.4971    2.5723    2.5736 C   0  0  0  0  0  0  0  0  0  0  0  0
   12.9048    2.5710    2.3159 N   0  0  0  0  0  0  0  0  0  0  0  0
   13.6471    3.1191    1.2777 C   0  0  0  0  0  0  0  0  0  0  0  0
   14.8974    3.1459    1.4129 O   0  0  0  0  0  0  0  0  0  0  0  0
   13.0757    3.5901   -0.1048 C   0  0  0  0  0  0  0  0  0  0  0  0
   12.5316    2.4585   -1.1063 N   0  0  0  0  0  0  0  0  0  0  0  0
   11.4126    1.6147   -0.4791 C   0  0  0  0  0  0  0  0  0  0  0  0
   10.1036    2.3548   -0.5308 C   0  0  0  0  0  0  0  0  0  0  0  0
   11.8611    3.0506   -2.3615 C   0  0  0  0  0  0  0  0  0  0  0  0
   12.6748    3.8691   -3.3023 C   0  0  0  0  0  0  0  0  0  0  0  0
   13.6423    1.4315   -1.3552 C   0  0  0  0  0  0  0  0  0  0  0  0
   14.8013    1.9683   -2.1483 C   0  0  0  0  0  0  0  0  0  0  0  0
   10.6845    3.5145    1.9718 C   0  0  0  0  0  0  0  0  0  0  0  0
    9.2824    3.3723    1.8692 C   0  0  0  0  0  0  0  0  0  0  0  0
  1  2  1  0
  2  3  1  0
  3  4  1  0
  3 11  1  0
  4  5  1  0
  5  6  2  0
  5 10  1  0
  6  7  1  0
  7  8  2  0
  8  9  1  0
  9 10  2  0
 11 12  2  0
 11 16  1  0
 12 13  1  0
 13 14  2  0
 14 15  1  0
 14 17  1  0
 15 16  2  0
 17 18  2  0
 18 19  1  0
 19 20  2  0
 19 35  1  0
 20 21  1  0
 21 22  2  0
 22 23  1  0
 22 34  1  0
 23 24  1  0
 24 25  2  0
 24 26  1  0
 26 27  1  0
 27 28  1  0
 27 30  1  0
 27 32  1  0
 28 29  1  0
 30 31  1  0
 32 33  1  0
 34 35  2  0
M  CHG  1  27   1
M  END
>  <DRUGBANK_ID>  (1) 
DB18465

>  <COMMON_NAME>  (1) 
KIO-301

>  <CAS_NUMBER>  (1) 
1224953-72-3

>  <UNII>  (1) 
57HBP7XKS9

$$$$
