
     RDKit          3D

  2  1  0  0  0  0  0  0  0  0999 V2000
    0.9148   -0.0481    0.0204 O   0  0  0  0  0  0  0  0  0  0  0  0
    3.0807   -0.0481    0.0204 Ca  0  0  0  0  0  2  0  0  0  0  0  0
  1  2  2  0
M  END
>  <DRUGBANK_ID>  (1) 
DB15648

>  <COMMON_NAME>  (1) 
Calcium oxide

>  <CAS_NUMBER>  (1) 
1305-78-8

>  <UNII>  (1) 
C7X2M0VVNH

>  <SYNONYMS>  (1) 
Burnt lime; Calcium monoxide; Calcium oxide; Calx; Lime; Lime (calcium oxide); Quick lime; Quicklime

$$$$
