
     RDKit          3D

 14 16  0  0  1  0  0  0  0  0999 V2000
    2.8593   -0.8766    0.1792 C   0  0  0  0  0  0  0  0  0  0  0  0
    1.5838   -1.3598   -0.2791 C   0  0  0  0  0  0  0  0  0  0  0  0
    3.0374    0.4193    0.4575 C   0  0  0  0  0  0  0  0  0  0  0  0
   -1.7377    0.0470   -1.3968 C   0  0  0  0  0  0  0  0  0  0  0  0
   -2.1503    0.6273    1.0544 C   0  0  0  0  0  0  0  0  0  0  0  0
   -1.5548   -1.7018    0.3345 C   0  0  0  0  0  0  0  0  0  0  0  0
   -0.3823    1.7849   -0.2985 C   0  0  0  0  0  0  0  0  0  0  0  0
   -1.7657    1.1456   -0.3472 C   0  0  1  0  0  0  0  0  0  0  0  0
   -0.8252   -1.0472   -0.8521 C   0  0  2  0  0  0  0  0  0  0  0  0
    0.5419   -0.5225   -0.4278 C   0  0  0  0  0  0  0  0  0  0  0  0
    1.9180    1.3726    0.2926 C   0  0  0  0  0  0  0  0  0  0  0  0
   -2.0581   -0.7964    1.3610 N   0  0  0  0  0  0  0  0  0  0  0  0
    0.7066    0.8358   -0.1379 N   0  0  0  0  0  0  0  0  0  0  0  0
    2.1057    2.5651    0.5412 O   0  0  0  0  0  0  0  0  0  0  0  0
  2  1  1  0
  3  1  2  0
  8  4  1  0
  8  5  1  1
  8  7  1  0
  9  4  1  0
  9  6  1  1
 10  2  2  0
 10  9  1  0
 11  3  1  0
 12  5  1  0
 12  6  1  0
 13  7  1  0
 13 10  1  0
 13 11  1  0
 14 11  2  0
M  END
>  <DRUGBANK_ID>  (1) 
DB09028

>  <COMMON_NAME>  (1) 
Cytisine

>  <CAS_NUMBER>  (1) 
485-35-8

>  <UNII>  (1) 
53S5U404NU

>  <SYNONYMS>  (1) 
(1R,5S)-1,2,3,4,5,6-Hexahydro-1,5-methano-8H-pyrido[1,2a][1,5]diazocin-8-one; Baptitoxine; Sophorine; Ulexin

$$$$
