
     RDKit          3D

 30 34  0  0  1  0  0  0  0  0999 V2000
    2.3662    0.3404   -0.7938 C   0  0  0  0  0  0  0  0  0  0  0  0
    1.6173    1.4780   -0.5753 C   0  0  0  0  0  0  0  0  0  0  0  0
    0.2186    1.3769   -0.6424 C   0  0  0  0  0  0  0  0  0  0  0  0
   -0.4290    0.1012   -0.7113 C   0  0  0  0  0  0  0  0  0  0  0  0
    0.3418   -1.0842   -0.7124 C   0  0  0  0  0  0  0  0  0  0  0  0
    1.7117   -0.8728   -1.0545 C   0  0  0  0  0  0  0  0  0  0  0  0
   -0.1944   -2.5376   -0.1989 C   0  0  0  0  0  0  0  0  0  0  0  0
    0.1170   -3.4964   -1.3885 C   0  0  0  0  0  0  0  0  0  0  0  0
   -0.9264   -3.5898   -2.3487 C   0  0  0  0  0  0  0  0  0  0  0  0
   -0.6849   -4.0611   -3.6410 C   0  0  0  0  0  0  0  0  0  0  0  0
    0.5967   -4.4254   -4.0203 C   0  0  0  0  0  0  0  0  0  0  0  0
    1.6184   -4.3886   -3.0959 C   0  0  0  0  0  0  0  0  0  0  0  0
    1.3935   -3.9899   -1.7812 C   0  0  0  0  0  0  0  0  0  0  0  0
    2.8971   -4.1173   -0.9192 Cl  0  0  0  0  0  0  0  0  0  0  0  0
   -0.0071   -3.2032    1.2158 N   0  0  0  0  0  0  0  0  0  0  0  0
    1.3481   -3.5266    1.6222 C   0  0  2  0  0  0  0  0  0  0  0  0
    1.3736   -4.1031    3.0219 C   0  0  0  0  0  0  0  0  0  0  0  0
    0.1274   -3.5411    3.6403 C   0  0  0  0  0  0  0  0  0  0  0  0
   -0.5378   -2.6981    2.5122 C   0  0  1  0  0  0  0  0  0  0  0  0
   -0.0957   -1.2950    2.8384 C   0  0  0  0  0  0  0  0  0  0  0  0
    1.3308   -1.0340    2.3219 C   0  0  2  0  0  0  0  0  0  0  0  0
    2.0861   -2.2125    1.6178 C   0  0  0  0  0  0  0  0  0  0  0  0
    2.3654   -0.4380    3.1976 C   0  0  0  0  0  0  0  0  0  0  0  0
    2.6424   -1.0757    4.3392 N   0  0  0  0  0  0  0  0  0  0  0  0
    3.5350   -0.4650    5.0900 C   0  0  0  0  0  0  0  0  0  0  0  0
    4.1450    0.7439    4.7854 C   0  0  0  0  0  0  0  0  0  0  0  0
    3.8391    1.2887    3.5584 C   0  0  0  0  0  0  0  0  0  0  0  0
    3.0167    0.6825    2.7485 N   0  0  0  0  0  0  0  0  0  0  0  0
    1.0600    0.1321    1.5835 O   0  0  0  0  0  0  0  0  0  0  0  0
   -2.1125    0.0929   -0.3166 Cl  0  0  0  0  0  0  0  0  0  0  0  0
  1  2  2  0
  1  6  1  0
  2  3  1  0
  3  4  2  0
  4  5  1  0
  4 30  1  0
  5  6  2  0
  5  7  1  0
  7  8  1  0
  7 15  1  0
  8  9  2  0
  8 13  1  0
  9 10  1  0
 10 11  2  0
 11 12  1  0
 12 13  2  0
 13 14  1  0
 16 15  1  0
 16 17  1  1
 16 22  1  0
 17 18  1  0
 19 18  1  1
 19 15  1  0
 19 20  1  0
 20 21  1  0
 21 22  1  0
 21 29  1  6
 21 23  1  0
 23 24  2  0
 23 28  1  0
 24 25  1  0
 25 26  2  0
 26 27  1  0
 27 28  2  0
M  END
>  <DRUGBANK_ID>  (1) 
DB12782

>  <COMMON_NAME>  (1) 
SCH-486757

>  <CAS_NUMBER>  (1) 
524019-25-8

>  <UNII>  (1) 
2HV668N62T

$$$$
