
     RDKit          3D

 32 36  0  0  1  0  0  0  0  0999 V2000
    0.5793   -0.3957   -0.0170 O   0  0  0  0  0  0  0  0  0  0  0  0
    0.3018   -0.3317   -1.3827 C   0  0  0  0  0  0  0  0  0  0  0  0
    1.0414    0.7841   -2.1320 C   0  0  1  0  0  0  0  0  0  0  0  0
    2.6141    0.8696   -1.9620 C   0  0  0  0  0  0  0  0  0  0  0  0
    3.3375    0.8407   -2.9668 O   0  0  0  0  0  0  0  0  0  0  0  0
    3.2006    1.1835   -0.7185 N   0  0  0  0  0  0  0  0  0  0  0  0
    2.9864    0.5703    0.6075 C   0  0  0  0  0  0  0  0  0  0  0  0
    3.7708    1.4137    1.4943 C   0  0  0  0  0  0  0  0  0  0  0  0
    4.5572    2.2217    0.8052 C   0  0  0  0  0  0  0  0  0  0  0  0
    4.4363    1.9985   -0.6654 C   0  0  0  0  0  0  0  0  0  0  0  0
    5.0386    3.2818    1.6967 C   0  0  0  0  0  0  0  0  0  0  0  0
    4.0823    3.2480    2.8762 N   0  0  0  0  0  0  0  0  0  0  0  0
    3.5363    1.8288    2.8921 C   0  0  0  0  0  0  0  0  0  0  0  0
    2.8122    4.4333    2.8745 S   0  0  0  0  0  0  0  0  0  0  0  0
    2.1693    4.3817    1.5658 O   0  0  0  0  0  0  0  0  0  0  0  0
    2.0380    4.2285    4.0701 O   0  0  0  0  0  0  0  0  0  0  0  0
    3.5798    6.0333    2.9969 C   0  0  0  0  0  0  0  0  0  0  0  0
    3.2423    6.9106    4.0168 C   0  0  0  0  0  0  0  0  0  0  0  0
    3.7647    8.1735    4.1334 N   0  0  0  0  0  0  0  0  0  0  0  0
    4.6564    8.5728    3.1935 C   0  0  0  0  0  0  0  0  0  0  0  0
    5.1928    9.8314    3.3619 O   0  0  0  0  0  0  0  0  0  0  0  0
    6.3551   10.0310    2.5397 C   0  0  0  0  0  0  0  0  0  0  0  0
    6.1012    9.5526    1.1191 C   0  0  0  0  0  0  0  0  0  0  0  0
    5.8616    8.1417    1.1104 O   0  0  0  0  0  0  0  0  0  0  0  0
    4.9975    7.7795    2.1087 C   0  0  0  0  0  0  0  0  0  0  0  0
    4.4293    6.5173    2.0060 C   0  0  0  0  0  0  0  0  0  0  0  0
    0.5605    0.5966   -3.6016 C   0  0  0  0  0  0  0  0  0  0  0  0
   -0.0431    1.6310   -4.3307 C   0  0  0  0  0  0  0  0  0  0  0  0
   -0.5529    1.3855   -5.6154 C   0  0  0  0  0  0  0  0  0  0  0  0
   -0.6437    0.0819   -6.1028 C   0  0  0  0  0  0  0  0  0  0  0  0
   -0.1523   -0.9673   -5.3430 C   0  0  0  0  0  0  0  0  0  0  0  0
    0.5681   -0.6889   -4.1845 C   0  0  0  0  0  0  0  0  0  0  0  0
  1  2  1  0
  3  2  1  1
  3  4  1  0
  3 27  1  0
  4  5  2  0
  4  6  1  0
  6  7  1  0
  6 10  1  0
  7  8  1  0
  8  9  2  0
  8 13  1  0
  9 10  1  0
  9 11  1  0
 11 12  1  0
 12 13  1  0
 12 14  1  0
 14 15  2  0
 14 16  2  0
 14 17  1  0
 17 18  2  0
 17 26  1  0
 18 19  1  0
 19 20  2  0
 20 21  1  0
 20 25  1  0
 21 22  1  0
 22 23  1  0
 23 24  1  0
 24 25  1  0
 25 26  2  0
 27 28  2  0
 27 32  1  0
 28 29  1  0
 29 30  2  0
 30 31  1  0
 31 32  2  0
M  END
>  <DRUGBANK_ID>  (1) 
DB18176

>  <COMMON_NAME>  (1) 
Etavopivat

>  <CAS_NUMBER>  (1) 
2245053-57-8

>  <UNII>  (1) 
V4E0A9M44Q

>  <SYNONYMS>  (1) 
1-propanone, 1-(5-((2,3-dihydro-1,4-dioxino(2,3-b)pyridin-7-yl)sulfonyl)-3,4,5,6-tetrahydropyrrolo(3,4-c)pyrrol-2(1h)-yl)-3-hydroxy-2-phenyl-, (2s)-

$$$$
