
     RDKit          3D

 23 25  0  0  0  0  0  0  0  0999 V2000
    1.1159    1.2812    0.2370 C   0  0  0  0  0  0  0  0  0  0  0  0
    1.7961    0.0806   -0.2396 N   0  0  0  0  0  0  0  0  0  0  0  0
    1.1395   -1.1751    0.2051 C   0  0  0  0  0  0  0  0  0  0  0  0
   -0.3663   -1.2359   -0.2804 C   0  0  1  0  0  0  0  0  0  0  0  0
   -1.0583   -0.0011    0.3841 C   0  0  1  0  0  0  0  0  0  0  0  0
   -0.3738    1.2807   -0.1244 C   0  0  0  0  0  0  0  0  0  0  0  0
    2.9355    0.0377   -1.0478 C   0  0  0  0  0  0  0  0  0  0  0  0
    3.5440    1.3281   -1.5910 C   0  0  0  0  0  0  0  0  0  0  0  0
    4.9863    1.4098   -1.1182 C   0  0  0  0  0  0  0  0  0  0  0  0
    3.4622   -1.0272   -1.3596 O   0  0  0  0  0  0  0  0  0  0  0  0
    6.1827    1.4775   -0.7259 N   0  0  0  0  0  0  0  0  0  0  0  0
   -2.5839    0.0207    0.3043 C   0  0  0  0  0  0  0  0  0  0  0  0
   -0.4675   -1.2632   -1.7794 N   0  0  0  0  0  0  0  0  0  0  0  0
    0.6342   -1.6981   -2.6116 C   0  0  0  0  0  0  0  0  0  0  0  0
   -1.6655   -1.1244   -2.4734 C   0  0  0  0  0  0  0  0  0  0  0  0
   -2.2149    0.1164   -2.6032 N   0  0  0  0  0  0  0  0  0  0  0  0
   -3.5131    0.2254   -2.9694 C   0  0  0  0  0  0  0  0  0  0  0  0
   -4.3255   -0.7389   -3.4172 N   0  0  0  0  0  0  0  0  0  0  0  0
   -3.6550   -1.8910   -3.5437 C   0  0  0  0  0  0  0  0  0  0  0  0
   -2.3605   -2.1679   -3.1208 C   0  0  0  0  0  0  0  0  0  0  0  0
   -4.1646   -3.0081   -4.1412 N   0  0  0  0  0  0  0  0  0  0  0  0
   -3.2070   -3.9862   -4.1755 C   0  0  0  0  0  0  0  0  0  0  0  0
   -2.1061   -3.5185   -3.4897 C   0  0  0  0  0  0  0  0  0  0  0  0
  1  2  1  0
  1  6  1  0
  2  3  1  0
  2  7  1  0
  3  4  1  0
  4  5  1  0
  4 13  1  6
  5  6  1  0
  5 12  1  6
  7  8  1  0
  7 10  2  0
  8  9  1  0
  9 11  3  0
 13 14  1  0
 13 15  1  0
 15 16  2  0
 15 20  1  0
 16 17  1  0
 17 18  2  0
 18 19  1  0
 19 20  2  0
 19 21  1  0
 20 23  1  0
 21 22  1  0
 22 23  2  0
M  END
>  <DRUGBANK_ID>  (1) 
DB08895

>  <SECONDARY_ACCESSION_NUMBERS>  (1) 
DB08183

>  <COMMON_NAME>  (1) 
Tofacitinib

>  <CAS_NUMBER>  (1) 
477600-75-2

>  <UNII>  (1) 
87LA6FU830

>  <SYNONYMS>  (1) 
Tasocitinib; Tofacitinib; Tofacitinibum

$$$$
