
     RDKit          3D

 11 11  0  0  0  0  0  0  0  0999 V2000
    0.6452    1.2021   -0.2040 O   0  0  0  0  0  0  0  0  0  0  0  0
    1.3823    0.0718    0.2796 C   0  0  2  0  0  0  0  0  0  0  0  0
   -0.7225    1.2231    0.2169 C   0  0  2  0  0  0  0  0  0  0  0  0
   -1.4583   -0.0177   -0.3233 C   0  0  2  0  0  0  0  0  0  0  0  0
   -0.7594   -1.2936    0.1444 C   0  0  1  0  0  0  0  0  0  0  0  0
    0.7392   -1.2471   -0.1981 C   0  0  2  0  0  0  0  0  0  0  0  0
   -1.3234    2.4000   -0.3152 O   0  0  0  0  0  0  0  0  0  0  0  0
   -1.4701    0.0435   -1.7656 O   0  0  0  0  0  0  0  0  0  0  0  0
   -0.9261   -1.4576    1.5573 O   0  0  0  0  0  0  0  0  0  0  0  0
    1.3838   -2.3892    0.3715 O   0  0  0  0  0  0  0  0  0  0  0  0
    1.6488    0.1482    1.7888 C   0  0  0  0  0  0  0  0  0  0  0  0
  2  1  1  0
  2 11  1  1
  3  1  1  0
  3  4  1  0
  3  7  1  6
  4  8  1  6
  4  5  1  0
  5  6  1  0
  5  9  1  1
  6  2  1  0
  6 10  1  1
M  END
>  <DRUGBANK_ID>  (1) 
DB04473

>  <SECONDARY_ACCESSION_NUMBERS>  (1) 
EXPT00452

>  <COMMON_NAME>  (1) 
alpha-L-fucose

>  <CAS_NUMBER>  (1) 
6696-41-9

>  <UNII>  (1) 
OF086I9H7W

>  <SYNONYMS>  (1) 
α-L-Fuc; α-L-fucose; α-L-Fucp

$$$$
