420
     RDKit          3D

 20 22  0  0  0  0  0  0  0  0999 V2000
    0.0419    1.7787    0.4159 S   0  0  0  0  0  0  0  0  0  0  0  0
    0.0304   -1.2670    0.6308 N   0  0  0  0  0  0  0  0  0  0  0  0
   -3.0400   -2.6541    2.7144 N   0  0  0  0  0  0  0  0  0  0  0  0
    0.1124   -2.0329    1.9229 C   0  0  0  0  0  0  0  0  0  0  0  0
   -0.7278   -1.5817    3.1323 C   0  0  0  0  0  0  0  0  0  0  0  0
   -2.2403   -1.4251    2.9598 C   0  0  0  0  0  0  0  0  0  0  0  0
    1.2854   -0.7122    0.2962 C   0  0  0  0  0  0  0  0  0  0  0  0
   -1.1294   -0.7128    0.0580 C   0  0  0  0  0  0  0  0  0  0  0  0
    1.4084    0.6716    0.0649 C   0  0  0  0  0  0  0  0  0  0  0  0
   -1.3080    0.6861   -0.0165 C   0  0  0  0  0  0  0  0  0  0  0  0
    2.3695   -1.5671    0.0503 C   0  0  0  0  0  0  0  0  0  0  0  0
   -2.1130   -1.4806   -0.5845 C   0  0  0  0  0  0  0  0  0  0  0  0
    2.5928    1.1685   -0.4590 C   0  0  0  0  0  0  0  0  0  0  0  0
   -2.5181    1.2290   -0.4684 C   0  0  0  0  0  0  0  0  0  0  0  0
   -4.3670   -2.2414    2.2426 C   0  0  0  0  0  0  0  0  0  0  0  0
   -2.4482   -3.5397    1.7242 C   0  0  0  0  0  0  0  0  0  0  0  0
    3.5462   -1.0638   -0.4755 C   0  0  0  0  0  0  0  0  0  0  0  0
   -3.3669   -0.9658   -0.9074 C   0  0  0  0  0  0  0  0  0  0  0  0
    3.6521    0.3031   -0.7449 C   0  0  0  0  0  0  0  0  0  0  0  0
   -3.5806    0.4077   -0.8329 C   0  0  0  0  0  0  0  0  0  0  0  0
  1  9  1  0
  1 10  1  0
  2  4  1  0
  2  7  1  0
  2  8  1  0
  3  6  1  0
  3 15  1  0
  3 16  1  0
  4  5  1  0
  5  6  1  0
  7  9  2  0
  7 11  1  0
  8 10  2  0
  8 12  1  0
  9 13  1  0
 10 14  1  0
 11 17  2  0
 12 18  2  0
 13 19  2  0
 14 20  2  0
 17 19  1  0
 18 20  1  0
M  END
>  <DRUGBANK_ID>  (1) 
DB00420

>  <SECONDARY_ACCESSION_NUMBERS>  (1) 
APRD00358

>  <COMMON_NAME>  (1) 
Promazine

>  <CAS_NUMBER>  (1) 
58-40-2

>  <UNII>  (1) 
O9M39HTM5W

>  <SYNONYMS>  (1) 
10-(3-(Dimethylamino)propyl)phenothiazine; N-(3-Dimethylaminopropyl)phenothiazine; N-Dimethylamino-1-methylethyl thiodiphenylamine; N,N-dimethyl-3-(10H-phenothiazin-10-yl)-propan-1-amine; Promazin; Promazina; Promazine; Promazinum

$$$$
