
     RDKit          3D

 22 24  0  0  0  0  0  0  0  0999 V2000
    2.2589   -0.8431    0.0065 C   0  0  0  0  0  0  0  0  0  0  0  0
    2.3205    0.5568   -0.0397 C   0  0  0  0  0  0  0  0  0  0  0  0
    1.1474    1.2605   -0.1810 C   0  0  0  0  0  0  0  0  0  0  0  0
    1.0320   -1.5578   -0.0102 C   0  0  0  0  0  0  0  0  0  0  0  0
   -0.1549   -0.8556   -0.1234 C   0  0  0  0  0  0  0  0  0  0  0  0
   -0.0208    0.5156   -0.2851 C   0  0  0  0  0  0  0  0  0  0  0  0
   -1.3468    1.1271   -0.3579 C   0  0  0  0  0  0  0  0  0  0  0  0
   -2.3025   -0.0260   -0.1413 C   0  0  0  0  0  0  0  0  0  0  0  0
   -1.6096   -1.2030   -0.0485 C   0  0  0  0  0  0  0  0  0  0  0  0
   -3.8115    0.2517   -0.1545 C   0  0  0  0  0  0  0  0  0  0  0  0
   -4.5013    0.7523    1.1938 C   0  0  0  0  0  0  0  0  0  0  0  0
   -4.3647    2.2020    1.4461 N   0  0  0  0  0  0  0  0  0  0  0  0
   -2.9660    2.5157    1.4499 C   0  0  0  0  0  0  0  0  0  0  0  0
   -4.8689    2.6928    2.7096 C   0  0  0  0  0  0  0  0  0  0  0  0
   -2.1449   -2.6259    0.0439 C   0  0  0  0  0  0  0  0  0  0  0  0
   -2.9659   -2.9619    1.3065 C   0  0  0  0  0  0  0  0  0  0  0  0
   -2.9155   -2.9732   -1.2437 C   0  0  0  0  0  0  0  0  0  0  0  0
   -4.2158   -2.3798    1.5481 C   0  0  0  0  0  0  0  0  0  0  0  0
   -4.8958   -2.5674    2.7489 C   0  0  0  0  0  0  0  0  0  0  0  0
   -4.4099   -3.4797    3.6328 C   0  0  0  0  0  0  0  0  0  0  0  0
   -3.2319   -4.1381    3.2946 C   0  0  0  0  0  0  0  0  0  0  0  0
   -2.4903   -3.8727    2.1757 N   0  0  0  0  0  0  0  0  0  0  0  0
  1  2  2  0
  2  3  1  0
  3  6  2  0
  4  1  1  0
  5  6  1  0
  5  4  2  0
  6  7  1  0
  7  8  1  0
  8  9  2  0
  8 10  1  0
  9 15  1  0
  9  5  1  0
 10 11  1  0
 11 12  1  0
 12 14  1  0
 12 13  1  0
 15 16  1  0
 15 17  1  0
 16 18  2  0
 18 19  1  0
 19 20  2  0
 20 21  1  0
 21 22  2  0
 22 16  1  0
M  END
>  <DRUGBANK_ID>  (1) 
DB08801

>  <COMMON_NAME>  (1) 
Dimetindene

>  <CAS_NUMBER>  (1) 
5636-83-9

>  <UNII>  (1) 
661FH77Z3P

>  <SYNONYMS>  (1) 
Dimethindene; Dimetindene; Dimetindeno

$$$$
