
     RDKit          3D

 25 28  0  0  1  0  0  0  0  0999 V2000
    0.2814    4.9536    0.6525 C   0  0  0  0  0  0  0  0  0  0  0  0
    1.7040    4.9478    1.2763 C   0  0  1  0  0  0  0  0  0  0  0  0
    2.9895    4.2200    0.5236 C   0  0  0  0  0  0  0  0  0  0  0  0
    4.0190    4.8797    0.3468 O   0  0  0  0  0  0  0  0  0  0  0  0
    2.9097    2.7312    0.0836 C   0  0  1  0  0  0  0  0  0  0  0  0
    4.3094    2.3919   -1.3133 C   0  0  0  0  0  0  0  0  0  0  0  0
    5.2800    1.2538   -0.8941 C   0  0  0  0  0  0  0  0  0  0  0  0
    4.5869    1.4571    0.3558 C   0  0  1  0  0  0  0  0  0  0  0  0
    3.0704    1.3635   -0.3064 C   0  0  1  0  0  0  0  0  0  0  0  0
    2.6831   -0.0875   -0.0433 C   0  0  0  0  0  0  0  0  0  0  0  0
    3.1159   -0.7831    1.3856 C   0  0  0  0  0  0  0  0  0  0  0  0
    4.6216   -0.7965    1.9647 C   0  0  0  0  0  0  0  0  0  0  0  0
    5.5415   -1.7096    2.6299 C   0  0  0  0  0  0  0  0  0  0  0  0
    6.0300   -3.3465    3.4272 C   0  0  0  0  0  0  0  0  0  0  0  0
    7.2184   -4.2473    2.6882 C   0  0  0  0  0  0  0  0  0  0  0  0
    7.0042   -3.4863    1.5013 C   0  0  0  0  0  0  0  0  0  0  0  0
    5.9901   -3.7428    0.7679 O   0  0  0  0  0  0  0  0  0  0  0  0
    7.6514   -2.1856    1.6426 C   0  0  0  0  0  0  0  0  0  0  0  0
    6.8823   -1.2570    2.2345 C   0  0  0  0  0  0  0  0  0  0  0  0
    7.4051    0.1325    2.1385 C   0  0  0  0  0  0  0  0  0  0  0  0
    6.4652    1.2452    1.8356 C   0  0  0  0  0  0  0  0  0  0  0  0
    5.0181    0.7610    1.6605 C   0  0  1  0  0  0  0  0  0  0  0  0
    2.0493    2.1574   -1.6903 C   0  0  0  0  0  0  0  0  0  0  0  0
    1.5134    2.1595    0.8344 C   0  0  0  0  0  0  0  0  0  0  0  0
    2.0147    6.3453    1.3490 O   0  0  0  0  0  0  0  0  0  0  0  0
  2  1  1  6
  2  3  1  0
  2 25  1  0
  3  4  2  0
  5  6  1  0
  5  9  1  0
  5 24  1  6
  5  3  1  0
  6  7  1  0
  8  7  1  6
  8  9  1  0
  8 22  1  0
  9 10  1  0
  9 23  1  6
 10 11  1  0
 11 12  1  0
 12 13  2  0
 12 22  1  0
 13 14  1  0
 13 19  1  0
 14 15  1  0
 15 16  1  0
 16 17  2  0
 16 18  1  0
 18 19  2  0
 19 20  1  0
 20 21  1  0
 22 21  1  6
M  END
>  <DRUGBANK_ID>  (1) 
DB13129

>  <COMMON_NAME>  (1) 
Trimegestone

>  <CAS_NUMBER>  (1) 
74513-62-5

>  <UNII>  (1) 
4658K0H08W

>  <SYNONYMS>  (1) 
Trimegestone

$$$$
