
     RDKit          3D

 38 44  0  0  1  0  0  0  0  0999 V2000
    1.0205   -0.0596   -0.0569 C   0  0  0  0  0  0  0  0  0  0  0  0
    0.5027    0.2723    1.3535 C   0  0  0  0  0  0  0  0  0  0  0  0
    1.3998    1.2298    2.1404 C   0  0  2  0  0  0  0  0  0  0  0  0
    2.3258    0.5252    3.1779 C   0  0  0  0  0  0  0  0  0  0  0  0
    2.5848   -0.9226    3.2410 C   0  0  0  0  0  0  0  0  0  0  0  0
    3.7023   -1.3512    2.6433 C   0  0  0  0  0  0  0  0  0  0  0  0
    4.5725   -0.3775    2.1733 N   0  0  0  0  0  0  0  0  0  0  0  0
    4.4806    0.9783    2.5007 C   0  0  0  0  0  0  0  0  0  0  0  0
    5.1734    1.8604    2.0142 O   0  0  0  0  0  0  0  0  0  0  0  0
    3.3500    1.3470    3.4629 C   0  0  0  0  0  0  0  0  0  0  0  0
    3.0009    2.8017    3.7004 C   0  0  0  0  0  0  0  0  0  0  0  0
    1.5499    3.0199    3.7928 O   0  0  0  0  0  0  0  0  0  0  0  0
    0.6823    2.3071    2.9900 C   0  0  0  0  0  0  0  0  0  0  0  0
   -0.5098    2.5425    2.9673 O   0  0  0  0  0  0  0  0  0  0  0  0
    5.5870   -0.9815    1.3049 C   0  0  0  0  0  0  0  0  0  0  0  0
    5.3028   -2.4615    1.4228 C   0  0  0  0  0  0  0  0  0  0  0  0
    4.2391   -2.6844    2.2793 C   0  0  0  0  0  0  0  0  0  0  0  0
    3.7830   -3.9110    2.6077 N   0  0  0  0  0  0  0  0  0  0  0  0
    4.4000   -4.9910    2.0262 C   0  0  0  0  0  0  0  0  0  0  0  0
    3.9909   -6.2957    2.3387 C   0  0  0  0  0  0  0  0  0  0  0  0
    4.5026   -7.4376    1.6989 C   0  0  0  0  0  0  0  0  0  0  0  0
    5.3935   -7.2934    0.6518 C   0  0  0  0  0  0  0  0  0  0  0  0
    5.9715   -6.0457    0.4479 C   0  0  0  0  0  0  0  0  0  0  0  0
    5.4645   -4.8687    1.0877 C   0  0  0  0  0  0  0  0  0  0  0  0
    5.9324   -3.5520    0.8068 C   0  0  0  0  0  0  0  0  0  0  0  0
    7.1150   -3.2928   -0.0952 C   0  0  0  0  0  0  0  0  0  0  0  0
    8.1783   -2.6020    0.6264 N   0  0  0  0  0  0  0  0  0  0  0  0
    8.6523   -3.3709    1.7967 C   0  0  0  0  0  0  0  0  0  0  0  0
    9.7075   -2.5583    2.5679 C   0  0  0  0  0  0  0  0  0  0  0  0
   10.8739   -2.1687    1.7482 N   0  0  0  0  0  0  0  0  0  0  0  0
   10.4134   -1.5449    0.4856 C   0  0  0  0  0  0  0  0  0  0  0  0
    9.3224   -2.3411   -0.2617 C   0  0  0  0  0  0  0  0  0  0  0  0
   11.7039   -3.3393    1.4681 C   0  0  0  0  0  0  0  0  0  0  0  0
    5.6976   -8.3131   -0.2216 O   0  0  0  0  0  0  0  0  0  0  0  0
    4.8981   -9.4934    0.0181 C   0  0  0  0  0  0  0  0  0  0  0  0
    4.8491   -9.7315    1.5141 C   0  0  0  0  0  0  0  0  0  0  0  0
    4.0833   -8.6754    2.1288 O   0  0  0  0  0  0  0  0  0  0  0  0
    2.1706    1.9091    1.1059 O   0  0  0  0  0  0  0  0  0  0  0  0
  1  2  1  0
  3  2  1  0
  3  4  1  0
  3 13  1  0
  3 38  1  6
  4  5  1  0
  4 10  2  0
  5  6  2  0
  6  7  1  0
  6 17  1  0
  7  8  1  0
  7 15  1  0
  8  9  2  0
  8 10  1  0
 10 11  1  0
 11 12  1  0
 12 13  1  0
 13 14  2  0
 15 16  1  0
 16 17  2  0
 16 25  1  0
 17 18  1  0
 18 19  2  0
 19 20  1  0
 19 24  1  0
 20 21  2  0
 21 22  1  0
 21 37  1  0
 22 23  2  0
 22 34  1  0
 23 24  1  0
 24 25  2  0
 25 26  1  0
 26 27  1  0
 27 28  1  0
 27 32  1  0
 28 29  1  0
 29 30  1  0
 30 31  1  0
 30 33  1  0
 31 32  1  0
 34 35  1  0
 35 36  1  0
 36 37  1  0
M  END
>  <DRUGBANK_ID>  (1) 
DB12222

>  <COMMON_NAME>  (1) 
Lurtotecan

>  <CAS_NUMBER>  (1) 
149882-10-0

>  <UNII>  (1) 
4J1L80T08I

>  <SYNONYMS>  (1) 
Lurtotecan

$$$$
