
     RDKit          3D

 20 19  0  0  0  0  0  0  0  0999 V2000
    1.0010   -0.0399   -0.0660 C   0  0  0  0  0  0  0  0  0  0  0  0
    0.5115   -1.1596   -0.9624 C   0  0  0  0  0  0  0  0  0  0  0  0
    0.8736   -2.5080   -0.4023 C   0  0  0  0  0  0  0  0  0  0  0  0
    0.0060   -3.4517   -0.0051 C   0  0  0  0  0  0  0  0  0  0  0  0
   -1.4230   -3.2863   -0.0641 C   0  0  0  0  0  0  0  0  0  0  0  0
   -2.3150   -4.1979    0.3285 C   0  0  0  0  0  0  0  0  0  0  0  0
   -3.7227   -3.9168    0.2177 C   0  0  0  0  0  0  0  0  0  0  0  0
   -4.6481   -4.7876    0.6183 C   0  0  0  0  0  0  0  0  0  0  0  0
   -6.1155   -4.5518    0.4412 C   0  0  0  0  0  0  0  0  0  0  0  0
   -6.7145   -5.6392   -0.4519 C   0  0  0  0  0  0  0  0  0  0  0  0
   -6.5272   -7.0341    0.1580 C   0  0  0  0  0  0  0  0  0  0  0  0
   -7.1840   -7.1177    1.5411 C   0  0  0  0  0  0  0  0  0  0  0  0
   -8.6926   -6.8737    1.4356 C   0  0  0  0  0  0  0  0  0  0  0  0
   -9.3369   -7.9269    0.5304 C   0  0  0  0  0  0  0  0  0  0  0  0
   -9.1059   -9.3320    1.0983 C   0  0  0  0  0  0  0  0  0  0  0  0
   -9.7809   -9.4950    2.4653 C   0  0  0  0  0  0  0  0  0  0  0  0
  -11.2883   -9.2466    2.3969 C   0  0  0  0  0  0  0  0  0  0  0  0
  -11.9628  -10.2121    1.4460 C   0  0  0  0  0  0  0  0  0  0  0  0
  -12.8797  -11.0108    2.0204 O   0  0  0  0  0  0  0  0  0  0  0  0
  -11.7231  -10.2849    0.2446 O   0  0  0  0  0  0  0  0  0  0  0  0
  1  2  1  0
  2  3  1  0
  3  4  2  0
  4  5  1  0
  5  6  2  0
  6  7  1  0
  7  8  2  0
  8  9  1  0
  9 10  1  0
 10 11  1  0
 11 12  1  0
 12 13  1  0
 13 14  1  0
 14 15  1  0
 15 16  1  0
 16 17  1  0
 17 18  1  0
 18 19  1  0
 18 20  2  0
M  END
>  <DRUGBANK_ID>  (1) 
DB04747

>  <COMMON_NAME>  (1) 
11-TRANS-13-TRANS-15-CIS-OCTADECATRIENOIC ACID

$$$$
