
     RDKit          3D

 21 23  0  0  0  0  0  0  0  0999 V2000
    1.0623   -1.4393    0.0254 N   0  0  0  0  0  0  0  0  0  0  0  0
    2.2390   -0.7834    0.0158 C   0  0  0  0  0  0  0  0  0  0  0  0
    2.3679    0.5950    0.0006 C   0  0  0  0  0  0  0  0  0  0  0  0
    1.2570    1.3775   -0.0184 N   0  0  0  0  0  0  0  0  0  0  0  0
    0.0413    0.7318    0.0006 C   0  0  0  0  0  0  0  0  0  0  0  0
   -0.0269   -0.6851    0.0082 C   0  0  0  0  0  0  0  0  0  0  0  0
   -1.2305   -1.3653   -0.0019 C   0  0  0  0  0  0  0  0  0  0  0  0
   -1.1891    1.3997    0.0056 C   0  0  0  0  0  0  0  0  0  0  0  0
   -2.4151    0.7075    0.0004 C   0  0  0  0  0  0  0  0  0  0  0  0
   -2.4345   -0.6808   -0.0066 C   0  0  0  0  0  0  0  0  0  0  0  0
    3.5850    1.3045   -0.2473 N   0  0  0  0  0  0  0  0  0  0  0  0
    5.1020    0.5887   -0.0016 S   0  0  0  0  0  0  0  0  0  0  0  0
    5.9575    0.9907   -1.5111 C   0  0  0  0  0  0  0  0  0  0  0  0
    5.7737    1.2821    1.0674 O   0  0  0  0  0  0  0  0  0  0  0  0
    5.0166   -0.8593   -0.0001 O   0  0  0  0  0  0  0  0  0  0  0  0
    6.7241    2.6186   -3.1096 C   0  0  0  0  0  0  0  0  0  0  0  0
    7.3396    1.6156   -3.8678 C   0  0  0  0  0  0  0  0  0  0  0  0
    7.2357    0.2901   -3.4423 C   0  0  0  0  0  0  0  0  0  0  0  0
    6.5492   -0.0276   -2.2680 C   0  0  0  0  0  0  0  0  0  0  0  0
    6.0459    2.3180   -1.9239 C   0  0  0  0  0  0  0  0  0  0  0  0
    7.9587    1.9207   -5.0663 N   0  0  0  0  0  0  0  0  0  0  0  0
  1  2  2  0
  1  6  1  0
  2  3  1  0
  3  4  2  0
  3 11  1  0
  4  5  1  0
  5  6  2  0
  5  8  1  0
  7  6  1  0
  7 10  2  0
  8  9  2  0
  9 10  1  0
 11 12  1  0
 12 13  1  0
 12 14  2  0
 12 15  2  0
 13 20  2  0
 16 17  2  0
 16 20  1  0
 17 18  1  0
 17 21  1  0
 18 19  2  0
 19 13  1  0
M  END
>  <DRUGBANK_ID>  (1) 
DB11464

>  <COMMON_NAME>  (1) 
Sulfaquinoxaline

>  <CAS_NUMBER>  (1) 
59-40-5

>  <UNII>  (1) 
WNW8115TM9

>  <SYNONYMS>  (1) 
Sulfaquinoxaline

$$$$
