
     RDKit          3D

 37 40  0  0  1  0  0  0  0  0999 V2000
  -13.6380   -1.5077   -8.9422 C   0  0  0  0  0  0  0  0  0  0  0  0
  -12.6303   -2.1784   -8.1377 N   0  0  0  0  0  0  0  0  0  0  0  0
  -12.3964   -1.4471   -6.8974 C   0  0  0  0  0  0  0  0  0  0  0  0
  -13.6289   -1.3311   -5.9482 C   0  0  1  0  0  0  0  0  0  0  0  0
  -14.0509   -2.6549   -5.4388 N   0  0  0  0  0  0  0  0  0  0  0  0
  -14.2384   -3.2412   -4.1979 C   0  0  0  0  0  0  0  0  0  0  0  0
  -14.5454   -4.4177   -4.1270 O   0  0  0  0  0  0  0  0  0  0  0  0
  -14.0996   -2.4857   -2.9398 C   0  0  0  0  0  0  0  0  0  0  0  0
  -13.1524   -2.7936   -1.9524 C   0  0  0  0  0  0  0  0  0  0  0  0
  -12.9199   -1.9044   -0.8700 C   0  0  0  0  0  0  0  0  0  0  0  0
  -13.6438   -0.7132   -0.7507 C   0  0  0  0  0  0  0  0  0  0  0  0
  -14.6923   -0.5515   -1.6778 C   0  0  0  0  0  0  0  0  0  0  0  0
  -14.9506   -1.4336   -2.7198 C   0  0  0  0  0  0  0  0  0  0  0  0
  -15.9243   -1.1319   -3.5933 F   0  0  0  0  0  0  0  0  0  0  0  0
  -13.3433    0.3755    0.2301 C   0  0  0  0  0  0  0  0  0  0  0  0
  -12.0182    0.7177    0.4371 N   0  0  0  0  0  0  0  0  0  0  0  0
  -11.7697    1.7326    1.3182 C   0  0  0  0  0  0  0  0  0  0  0  0
  -12.8342    2.3005    2.0014 C   0  0  0  0  0  0  0  0  0  0  0  0
  -14.1283    2.0785    1.7229 N   0  0  0  0  0  0  0  0  0  0  0  0
  -14.3831    1.1237    0.8263 C   0  0  0  0  0  0  0  0  0  0  0  0
  -15.7316    0.8529    0.7184 N   0  0  0  0  0  0  0  0  0  0  0  0
  -10.3400    2.2563    1.5267 C   0  0  1  0  0  0  0  0  0  0  0  0
   -9.7316    2.8356    0.2333 C   0  0  0  0  0  0  0  0  0  0  0  0
  -10.4212    4.1341   -0.1801 C   0  0  0  0  0  0  0  0  0  0  0  0
  -10.2440    5.2110    0.8904 C   0  0  2  0  0  0  0  0  0  0  0  0
   -8.8788    5.6147    0.9699 O   0  0  0  0  0  0  0  0  0  0  0  0
  -10.7289    4.7376    2.2561 C   0  0  1  0  0  0  0  0  0  0  0  0
  -12.0858    4.7621    2.2220 F   0  0  0  0  0  0  0  0  0  0  0  0
  -10.1938    3.3364    2.6380 C   0  0  0  0  0  0  0  0  0  0  0  0
  -13.2940   -0.2700   -4.9485 C   0  0  0  0  0  0  0  0  0  0  0  0
  -14.2192    0.7346   -4.6441 C   0  0  0  0  0  0  0  0  0  0  0  0
  -13.9581    1.5817   -3.5783 C   0  0  0  0  0  0  0  0  0  0  0  0
  -14.9911    2.2623   -3.0552 F   0  0  0  0  0  0  0  0  0  0  0  0
  -12.7584    1.4874   -2.8624 C   0  0  0  0  0  0  0  0  0  0  0  0
  -11.8087    0.5358   -3.2304 C   0  0  0  0  0  0  0  0  0  0  0  0
  -10.2266    0.1635   -2.2756 Br  0  0  0  0  0  0  0  0  0  0  0  0
  -12.0787   -0.3366   -4.2627 C   0  0  0  0  0  0  0  0  0  0  0  0
  1  2  1  0
  2  3  1  0
  4  3  1  1
  4  5  1  0
  4 30  1  0
  5  6  1  0
  6  7  2  0
  6  8  1  0
  8  9  2  0
  8 13  1  0
  9 10  1  0
 10 11  2  0
 11 12  1  0
 11 15  1  0
 12 13  2  0
 13 14  1  0
 15 16  2  0
 15 20  1  0
 16 17  1  0
 17 18  2  0
 18 19  1  0
 19 20  2  0
 20 21  1  0
 22 23  1  0
 22 29  1  0
 22 17  1  6
 23 24  1  0
 25 24  1  0
 25 26  1  1
 25 27  1  0
 27 28  1  6
 27 29  1  0
 30 31  2  0
 30 37  1  0
 31 32  1  0
 32 33  1  0
 32 34  2  0
 34 35  1  0
 35 36  1  0
 35 37  2  0
M  END
>  <DRUGBANK_ID>  (1) 
DB17560

>  <COMMON_NAME>  (1) 
Rineterkib

>  <CAS_NUMBER>  (1) 
1715025-32-3

>  <UNII>  (1) 
15KFN616FK

>  <SYNONYMS>  (1) 
4-(3-amino-6-((1s,3s,4s)-3-fluoro-4-hydroxycyclohexyl)-2-pyrazinyl)-n-((1s)-1-(3-bromo-5-fluorophenyl)-2-(methylamino)ethyl)-2-fluorobenzamide; Benzamide, 4-(3-amino-6-((1s,3s,4s)-3-fluoro-4-hydroxycyclohexyl)-2-pyrazinyl)-n-((1s)-1-(3-bromo-5-fluorophenyl)-2-(methylamino)ethyl)-2-fluoro-; Rineterkib

$$$$
