754
     RDKit          3D

 15 16  0  0  1  0  0  0  0  0999 V2000
   -2.3054    0.5232    0.0963 O   0  0  0  0  0  0  0  0  0  0  0  0
    2.2592    0.5265   -0.0050 O   0  0  0  0  0  0  0  0  0  0  0  0
   -0.0256    0.9202    0.0541 N   0  0  0  0  0  0  0  0  0  0  0  0
    0.7237   -1.1665    0.0111 N   0  0  0  0  0  0  0  0  0  0  0  0
   -0.7064   -1.3300    0.0117 C   0  0  0  0  0  0  0  0  0  0  0  0
   -1.1454    0.1312    0.0592 C   0  0  0  0  0  0  0  0  0  0  0  0
   -1.1762   -2.1542   -1.1598 C   0  0  0  0  0  0  0  0  0  0  0  0
    1.0956    0.1527    0.0161 C   0  0  0  0  0  0  0  0  0  0  0  0
   -0.0390    2.3649    0.1020 C   0  0  0  0  0  0  0  0  0  0  0  0
   -0.7448   -3.4899   -1.2346 C   0  0  0  0  0  0  0  0  0  0  0  0
   -2.0614   -1.6832   -2.1416 C   0  0  0  0  0  0  0  0  0  0  0  0
   -0.7421    2.9589   -1.1068 C   0  0  0  0  0  0  0  0  0  0  0  0
   -1.1735   -4.3259   -2.2622 C   0  0  0  0  0  0  0  0  0  0  0  0
   -2.5377   -2.5408   -3.1356 C   0  0  0  0  0  0  0  0  0  0  0  0
   -2.0684   -3.8495   -3.2148 C   0  0  0  0  0  0  0  0  0  0  0  0
  1  6  2  0
  2  8  2  0
  3  6  1  0
  3  8  1  0
  3  9  1  0
  4  5  1  0
  4  8  1  0
  5  6  1  0
  5  7  1  0
  7 10  2  0
  7 11  1  0
  9 12  1  0
 10 13  1  0
 11 14  2  0
 13 15  2  0
 14 15  1  0
M  END
>  <DRUGBANK_ID>  (1) 
DB00754

>  <SECONDARY_ACCESSION_NUMBERS>  (1) 
APRD00962

>  <COMMON_NAME>  (1) 
Ethotoin

>  <CAS_NUMBER>  (1) 
86-35-1

>  <UNII>  (1) 
46QG38NC4U

>  <SYNONYMS>  (1) 
(±)-3-ethyl-5-phenylhydantoin; 1-ethyl-2,5-dioxo-4-phenylimidazolidine; 3-ethyl-5-phenyl-2,4-imidazolidinedione; 3-Ethyl-5-phenyl-imidazolidine-2,4-dione; 3-ethyl-5-phenylhydantoin; 3-ethyl-5-phenylimidazolidin-2,4-dione; Ethotoin; Ethotoïne; Ethotoinum; Etotoina

$$$$
