MXP
     RDKit          3D

 30 30  0  0  0  0  0  0  0  0999 V2000
   -0.8019    1.3059    0.0859 O   0  0  0  0  0  0  0  0  0  0  0  0
    1.2522    0.2712   -0.3223 C   0  0  0  0  0  0  0  0  0  0  0  0
    6.4725    1.5553   -1.0125 N   0  0  0  0  0  0  0  0  0  0  0  0
    0.6505   -0.9624   -0.1435 C   0  0  0  0  0  0  0  0  0  0  0  0
   -0.6581   -1.2085   -0.0436 C   0  0  0  0  0  0  0  0  0  0  0  0
    1.7004   -1.7754   -0.0407 O   0  0  0  0  0  0  0  0  0  0  0  0
   -1.4783    0.0772   -0.0076 C   0  0  0  0  0  0  0  0  0  0  0  0
    0.6005    1.3566   -0.0849 C   0  0  0  0  0  0  0  0  0  0  0  0
   -1.3108   -2.6021    0.0137 C   0  0  0  0  0  0  0  0  0  0  0  0
   -0.5444   -3.9697    0.0078 C   0  0  0  0  0  0  0  0  0  0  0  0
   -2.7056    0.0833   -0.0110 O   0  0  0  0  0  0  0  0  0  0  0  0
   -1.2942   -5.0808    0.0048 C   0  0  0  0  0  0  0  0  0  0  0  0
   -0.6753   -6.3881    0.0006 C   0  0  0  0  0  0  0  0  0  0  0  0
   -1.3056   -7.5530   -0.0444 C   0  0  0  0  0  0  0  0  0  0  0  0
   -0.4597   -8.8076    0.0279 C   0  0  0  0  0  0  0  0  0  0  0  0
   -0.7443   -9.6448    1.2750 C   0  0  0  0  0  0  0  0  0  0  0  0
   -2.1957  -10.1030    1.3616 C   0  0  0  0  0  0  0  0  0  0  0  0
   -2.6140  -10.8462    0.0938 C   0  0  0  0  0  0  0  0  0  0  0  0
    0.9385   -4.2368   -0.0015 C   0  0  0  0  0  0  0  0  0  0  0  0
   -2.7913   -7.5154   -0.1250 C   0  0  0  0  0  0  0  0  0  0  0  0
    1.4020    2.6085    0.0290 C   0  0  0  0  0  0  0  0  0  0  0  0
    2.3745    2.5810    1.2443 C   0  0  0  0  0  0  0  0  0  0  0  0
    3.4621    1.4742    1.2887 C   0  0  0  0  0  0  0  0  0  0  0  0
    4.3343    1.4576    0.0480 C   0  0  0  0  0  0  0  0  0  0  0  0
    5.6655    1.5196    0.1010 C   0  0  0  0  0  0  0  0  0  0  0  0
    7.8476    1.6582   -0.8911 C   0  0  0  0  0  0  0  0  0  0  0  0
    8.0168    1.6821   -3.3543 C   0  0  0  0  0  0  0  0  0  0  0  0
   -2.5452   -2.6571    0.0347 O   0  0  0  0  0  0  0  0  0  0  0  0
    8.5775    1.7173   -2.0387 O   0  0  0  0  0  0  0  0  0  0  0  0
    8.4201    1.7006    0.1946 O   0  0  0  0  0  0  0  0  0  0  0  0
  1  7  1  0
  1  8  1  0
  2  4  1  0
  2  8  2  0
  3 25  1  0
  3 26  1  0
  4  5  2  0
  4  6  1  0
  5  7  1  0
  5  9  1  0
  7 11  2  0
  8 21  1  0
  9 10  1  0
  9 28  2  0
 10 12  2  0
 10 19  1  0
 12 13  1  0
 13 14  2  0
 14 15  1  0
 14 20  1  0
 15 16  1  0
 16 17  1  0
 17 18  1  0
 21 22  1  0
 22 23  1  0
 23 24  1  0
 24 25  2  0
 26 29  1  0
 26 30  2  0
 27 29  1  0
M  END
>  <DRUGBANK_ID>  (1) 
DB08226

>  <COMMON_NAME>  (1) 
Myxopyronin B

$$$$
