
     RDKit          3D

 22 23  0  0  0  0  0  0  0  0999 V2000
   -1.6154    1.6045    0.0250 N   0  0  0  0  0  0  0  0  0  0  0  0
   -2.9122    1.2596    0.0307 C   0  0  0  0  0  0  0  0  0  0  0  0
   -1.0313   -0.7471   -0.0140 C   0  0  0  0  0  0  0  0  0  0  0  0
   -2.3966   -1.0731   -0.0429 C   0  0  0  0  0  0  0  0  0  0  0  0
   -0.7055    0.6065    0.0060 C   0  0  0  0  0  0  0  0  0  0  0  0
    0.6371    0.9491   -0.0049 C   0  0  0  0  0  0  0  0  0  0  0  0
   -0.0199   -1.7454   -0.0130 C   0  0  0  0  0  0  0  0  0  0  0  0
    1.6313   -0.0337   -0.0022 C   0  0  0  0  0  0  0  0  0  0  0  0
   -3.3377   -0.0348   -0.0025 C   0  0  0  0  0  0  0  0  0  0  0  0
    1.3149   -1.3786    0.0021 C   0  0  0  0  0  0  0  0  0  0  0  0
    3.2834    0.4364    0.0034 Cl  0  0  0  0  0  0  0  0  0  0  0  0
   -2.7601   -2.3859   -0.2867 N   0  0  0  0  0  0  0  0  0  0  0  0
   -5.7405   -6.3341    0.1196 N   0  0  0  0  0  0  0  0  0  0  0  0
   -4.1167   -2.7583   -0.0513 C   0  0  0  0  0  0  0  0  0  0  0  0
   -3.8985   -5.0755   -1.2688 C   0  0  0  0  0  0  0  0  0  0  0  0
   -4.3182   -6.0024   -0.1270 C   0  0  0  0  0  0  0  0  0  0  0  0
   -5.8780   -7.1560    1.3398 C   0  0  0  0  0  0  0  0  0  0  0  0
   -6.8149   -5.3191    0.0551 C   0  0  0  0  0  0  0  0  0  0  0  0
   -4.4555   -3.6642   -1.2465 C   0  0  0  0  0  0  0  0  0  0  0  0
   -4.1716   -3.0490    1.4494 C   0  0  0  0  0  0  0  0  0  0  0  0
   -5.4589   -6.5497    2.6912 C   0  0  0  0  0  0  0  0  0  0  0  0
   -6.7926   -4.3099    1.1709 C   0  0  0  0  0  0  0  0  0  0  0  0
  1  2  2  0
  2  9  1  0
  3  4  1  0
  3  5  2  0
  3  7  1  0
  5  1  1  0
  6  5  1  0
  7 10  2  0
  8  6  2  0
  9  4  2  0
 10  8  1  0
 11  8  1  0
 12  4  1  0
 14 12  1  0
 16 13  1  0
 16 15  1  0
 17 13  1  0
 18 13  1  0
 19 14  1  0
 19 15  1  0
 20 14  1  0
 21 17  1  0
 22 18  1  0
M  END
>  <DRUGBANK_ID>  (1) 
DB00608

>  <SECONDARY_ACCESSION_NUMBERS>  (1) 
APRD00468

>  <COMMON_NAME>  (1) 
Chloroquine

>  <CAS_NUMBER>  (1) 
54-05-7

>  <UNII>  (1) 
886U3H6UFF

>  <SYNONYMS>  (1) 
Chloraquine; Chlorochin; Chloroquina; Chloroquine; Chloroquinium; Chloroquinum; Cloroquina; N4-(7-chloro-4-quinolinyl)-N1,N1-diethyl-1,4-pentanediamine

$$$$
