
     RDKit          3D

 20 23  0  0  0  0  0  0  0  0999 V2000
    0.1349   -0.8263    0.0002 C   0  0  0  0  0  0  0  0  0  0  0  0
   -0.0585    0.5560   -0.0039 C   0  0  0  0  0  0  0  0  0  0  0  0
   -1.7493    0.8815   -0.0084 S   0  0  0  0  0  0  0  0  0  0  0  0
   -2.0955   -0.7997   -0.0219 C   0  0  0  0  0  0  0  0  0  0  0  0
   -1.0332   -1.5813   -0.0073 N   0  0  0  0  0  0  0  0  0  0  0  0
   -3.7060   -1.5477   -0.0538 S   0  0  0  0  0  0  0  0  0  0  0  0
   -5.0397    0.0332   -0.0688 S   0  0  0  0  0  0  0  0  0  0  0  0
   -6.6495   -0.7143   -0.1308 C   0  0  0  0  0  0  0  0  0  0  0  0
   -7.7107    0.0676   -0.1757 N   0  0  0  0  0  0  0  0  0  0  0  0
   -8.8776   -0.6869   -0.2328 C   0  0  0  0  0  0  0  0  0  0  0  0
  -10.2003   -0.1938   -0.3004 C   0  0  0  0  0  0  0  0  0  0  0  0
  -11.2814   -1.0836   -0.3654 C   0  0  0  0  0  0  0  0  0  0  0  0
  -11.0617   -2.4571   -0.3602 C   0  0  0  0  0  0  0  0  0  0  0  0
   -9.7631   -2.9709   -0.2872 C   0  0  0  0  0  0  0  0  0  0  0  0
   -8.6848   -2.0693   -0.2252 C   0  0  0  0  0  0  0  0  0  0  0  0
   -6.9966   -2.3954   -0.1340 S   0  0  0  0  0  0  0  0  0  0  0  0
    1.0212    1.4579   -0.0060 C   0  0  0  0  0  0  0  0  0  0  0  0
    2.3221    0.9446   -0.0058 C   0  0  0  0  0  0  0  0  0  0  0  0
    2.5422   -0.4288    0.0020 C   0  0  0  0  0  0  0  0  0  0  0  0
    1.4595   -1.3189    0.0068 C   0  0  0  0  0  0  0  0  0  0  0  0
  1  2  2  0
  1  5  1  0
  1 20  1  0
  2  3  1  0
  2 17  1  0
  3  4  1  0
  4  5  2  0
  4  6  1  0
  6  7  1  0
  7  8  1  0
  8  9  2  0
  8 16  1  0
  9 10  1  0
 10 11  2  0
 10 15  1  0
 11 12  1  0
 12 13  2  0
 13 14  1  0
 14 15  2  0
 15 16  1  0
 17 18  2  0
 18 19  1  0
 19 20  2  0
M  END
>  <DRUGBANK_ID>  (1) 
DB14201

>  <COMMON_NAME>  (1) 
2,2'-Dibenzothiazyl disulfide

>  <CAS_NUMBER>  (1) 
120-78-5

>  <UNII>  (1) 
6OK753033Z

>  <SYNONYMS>  (1) 
2-Benzothiazolyl disulfide; 2-Mercaptobenzothiazole disulfide; 2,2'-Benzothiazyl disulfide; 2,2'-Bis(benzothiazolyl) disulfide; 2,2'-Dithiobisbenzothiazole; Benzothiazole disulfide; Benzothiazolyl disulfide; Bis(2-benzothiazolyl) disulfide; Bis(2-benzothiazyl) disulfide; Bis(benzothiazolyl) disulfide; BTS-SBT; DBTD; di(1,3-benzothiazol-2-yl) disulfide; dibenzothiazol-2-yl disulfide; Dibenzothiazolyl disulfide; Dibenzothiazolyl disulphide; Dibenzothiazyl disulfide; Dibenzoylthiazyl disulfide; Dwusiarczek dwubenzotiazylu; Thiofide

$$$$
