935
     RDKit          3D

 19 20  0  0  0  0  0  0  0  0999 V2000
    2.4096    0.8633    0.0045 O   0  0  0  0  0  0  0  0  0  0  0  0
   -1.0079    4.1326    1.6203 N   0  0  0  0  0  0  0  0  0  0  0  0
   -2.9927    3.2838    2.2505 N   0  0  0  0  0  0  0  0  0  0  0  0
    1.6775   -1.9598   -0.0294 C   0  0  0  0  0  0  0  0  0  0  0  0
    0.6829   -0.7837   -0.0036 C   0  0  0  0  0  0  0  0  0  0  0  0
   -1.2428    1.3414   -0.0402 C   0  0  0  0  0  0  0  0  0  0  0  0
    1.0774    0.5553   -0.0473 C   0  0  0  0  0  0  0  0  0  0  0  0
    0.1495    1.6008   -0.1504 C   0  0  0  0  0  0  0  0  0  0  0  0
   -1.6757   -0.0042    0.0082 C   0  0  0  0  0  0  0  0  0  0  0  0
   -0.7075   -1.0348    0.0043 C   0  0  0  0  0  0  0  0  0  0  0  0
    1.4487   -2.8693    1.1926 C   0  0  0  0  0  0  0  0  0  0  0  0
    1.4599   -2.7597   -1.3300 C   0  0  0  0  0  0  0  0  0  0  0  0
    3.1703   -1.5567   -0.0054 C   0  0  0  0  0  0  0  0  0  0  0  0
   -2.2128    2.5136    0.0308 C   0  0  0  0  0  0  0  0  0  0  0  0
   -2.0769    3.3260    1.3132 C   0  0  0  0  0  0  0  0  0  0  0  0
    0.7100    2.9742   -0.3877 C   0  0  0  0  0  0  0  0  0  0  0  0
   -3.1220   -0.4440    0.0247 C   0  0  0  0  0  0  0  0  0  0  0  0
   -0.9786    4.3715    3.0255 C   0  0  0  0  0  0  0  0  0  0  0  0
   -2.4705    4.2300    3.2954 C   0  0  0  0  0  0  0  0  0  0  0  0
  1  7  1  0
  2 15  1  0
  2 18  1  0
  3 15  2  0
  3 19  1  0
  4  5  1  0
  4 11  1  0
  4 12  1  0
  4 13  1  0
  5  7  2  0
  5 10  1  0
  6  8  2  0
  6  9  1  0
  6 14  1  0
  7  8  1  0
  8 16  1  0
  9 10  2  0
  9 17  1  0
 14 15  1  0
 18 19  1  0
M  END
>  <DRUGBANK_ID>  (1) 
DB00935

>  <SECONDARY_ACCESSION_NUMBERS>  (1) 
APRD01158

>  <COMMON_NAME>  (1) 
Oxymetazoline

>  <CAS_NUMBER>  (1) 
1491-59-4

>  <UNII>  (1) 
8VLN5B44ZY

>  <SYNONYMS>  (1) 
2-(4-tert-butyl-2,6-dimethyl-3-hydroxybenzyl)-2-imidazoline; 3-[(4,5-dihydro-1H-imidazol-2-yl)methyl]-6-(1,1-dimethylethyl)-2,4-dimethylphenol; 6-t-butyl-3-(2-imidazolin-2-ylmethyl)-2,4-dimethylphenol; 6-tert-butyl-3-(2-imidazolin-2-ylmethyl)-2,4-dimethylphenol; Oximetazolinum; Oxymetazolina; Oxymetazoline; Oxym√©tazoline; Oxymetazolinum; Oxymethazoline; Oxymetozoline

$$$$
