
     RDKit          3D

 13 13  0  0  1  0  0  0  0  0999 V2000
   -0.9382    1.1619   -0.0709 C   0  0  0  0  0  0  0  0  0  0  0  0
   -1.1658   -2.1375    1.0144 C   0  0  0  0  0  0  0  0  0  0  0  0
    0.4453    0.6655    0.2942 C   0  0  1  0  0  0  0  0  0  0  0  0
   -0.9906   -1.1855   -0.1827 C   0  0  2  0  0  0  0  0  0  0  0  0
    0.4508   -0.7069   -0.3770 C   0  0  2  0  0  0  0  0  0  0  0  0
    1.4799    1.5254   -0.1477 O   0  0  0  0  0  0  0  0  0  0  0  0
    1.4258   -1.5992    0.1384 O   0  0  0  0  0  0  0  0  0  0  0  0
   -4.7593   -2.0966    1.4512 O   0  0  0  0  0  0  0  0  0  0  0  0
   -3.1761   -1.3622    3.1512 O   0  0  0  0  0  0  0  0  0  0  0  0
   -4.3318    0.1873    1.8482 O   0  0  0  0  0  0  0  0  0  0  0  0
   -1.7893    0.0089    0.0038 O   0  0  0  0  0  0  0  0  0  0  0  0
   -2.5354   -2.4890    1.2500 O   0  0  0  0  0  0  0  0  0  0  0  0
   -3.4834   -1.0767    1.5657 P   0  0  0  0  0  0  0  0  0  0  0  0
  3  1  1  0
  3  6  1  6
  4  2  1  1
  5  3  1  0
  5  4  1  0
  5  7  1  1
 11  1  1  0
 11  4  1  0
 12  2  1  0
 13  8  1  0
 13  9  1  0
 13 10  2  0
 13 12  1  0
M  END
>  <DRUGBANK_ID>  (1) 
DB03936

>  <SECONDARY_ACCESSION_NUMBERS>  (1) 
EXPT02797

>  <COMMON_NAME>  (1) 
1-Deoxy-Ribofuranose-5'-Phosphate

$$$$
