
     RDKit          3D

 22 22  0  0  0  0  0  0  0  0999 V2000
    1.2593   -0.1046    0.0051 C   0  0  0  0  0  0  0  0  0  0  0  0
    0.7082    0.7251   -1.1643 C   0  0  0  0  0  0  0  0  0  0  0  0
    1.1086    0.1824   -2.5167 C   0  0  0  0  0  0  0  0  0  0  0  0
   -0.7572    0.6113   -0.8088 C   0  0  0  0  0  0  0  0  0  0  0  0
   -1.2093    1.6367   -0.3802 O   0  0  0  0  0  0  0  0  0  0  0  0
   -1.4628   -0.5753   -0.9904 O   0  0  0  0  0  0  0  0  0  0  0  0
   -2.9774   -0.7058   -0.9313 C   0  0  0  0  0  0  0  0  0  0  0  0
   -3.6959    0.0089    0.1906 C   0  0  0  0  0  0  0  0  0  0  0  0
   -3.4737    1.5061    0.2567 C   0  0  0  0  0  0  0  0  0  0  0  0
   -3.7746    2.4184   -1.0235 C   0  0  0  0  0  0  0  0  0  0  0  0
   -4.3636    3.4833   -0.7552 O   0  0  0  0  0  0  0  0  0  0  0  0
   -3.5057    2.1592   -2.4003 N   0  0  0  0  0  0  0  0  0  0  0  0
   -2.6439    1.1996   -3.0802 C   0  0  0  0  0  0  0  0  0  0  0  0
   -4.0436    3.0861   -3.3712 C   0  0  0  0  0  0  0  0  0  0  0  0
    1.2554    2.1101   -1.0745 O   0  0  0  0  0  0  0  0  0  0  0  0
    0.8290    3.1625   -1.8734 C   0  0  0  0  0  0  0  0  0  0  0  0
   -0.4552    3.3689   -2.3466 C   0  0  0  0  0  0  0  0  0  0  0  0
   -0.8684    4.4383   -3.1482 C   0  0  0  0  0  0  0  0  0  0  0  0
    0.0227    5.4150   -3.4818 C   0  0  0  0  0  0  0  0  0  0  0  0
    1.3180    5.3011   -2.9972 C   0  0  0  0  0  0  0  0  0  0  0  0
    1.7144    4.1899   -2.1942 C   0  0  0  0  0  0  0  0  0  0  0  0
   -0.5162    6.7183   -4.4607 Cl  0  0  0  0  0  0  0  0  0  0  0  0
  1  2  1  0
  2  3  1  0
  2  4  1  0
  2 15  1  0
  4  5  2  0
  4  6  1  0
  6  7  1  0
  7  8  1  0
  8  9  1  0
  9 10  1  0
 10 11  2  0
 10 12  1  0
 12 13  1  0
 12 14  1  0
 15 16  1  0
 16 17  2  0
 16 21  1  0
 17 18  1  0
 18 19  2  0
 19 20  1  0
 19 22  1  0
 20 21  2  0
M  END
>  <DRUGBANK_ID>  (1) 
DB13849

>  <COMMON_NAME>  (1) 
Clofibride

>  <CAS_NUMBER>  (1) 
26717-47-5

>  <UNII>  (1) 
0S9SLS3L93

>  <SYNONYMS>  (1) 
Clofibrida; Clofibride; Clofibridum

$$$$
