
     RDKit          3D

 33 37  0  0  0  0  0  0  0  0999 V2000
    0.2314    0.7461   -0.0344 C   0  0  0  0  0  0  0  0  0  0  0  0
    0.1598   -0.6299   -0.0314 C   0  0  0  0  0  0  0  0  0  0  0  0
    1.4245   -1.1563   -0.0556 N   0  0  0  0  0  0  0  0  0  0  0  0
    2.2786   -0.1001   -0.2516 C   0  0  0  0  0  0  0  0  0  0  0  0
    1.6097    1.0586   -0.1531 C   0  0  0  0  0  0  0  0  0  0  0  0
    3.6821   -0.3705   -0.2132 C   0  0  0  0  0  0  0  0  0  0  0  0
    4.3516   -0.9791   -1.2734 C   0  0  0  0  0  0  0  0  0  0  0  0
    5.7363   -1.1750   -1.2681 C   0  0  0  0  0  0  0  0  0  0  0  0
    6.4658   -0.8611   -0.1350 C   0  0  0  0  0  0  0  0  0  0  0  0
    8.1059   -0.4627   -0.6310 C   0  0  0  0  0  0  0  0  0  0  0  0
    8.7884    0.9361   -0.4762 N   0  0  0  0  0  0  0  0  0  0  0  0
    8.3502    1.1754    0.8638 C   0  0  0  0  0  0  0  0  0  0  0  0
    6.9286    1.6615    0.6071 C   0  0  0  0  0  0  0  0  0  0  0  0
    6.3158    2.7614   -0.0611 N   0  0  0  0  0  0  0  0  0  0  0  0
    7.0043    2.8302   -1.3477 C   0  0  0  0  0  0  0  0  0  0  0  0
    8.4820    2.2858   -1.2176 C   0  0  0  0  0  0  0  0  0  0  0  0
    6.2089    3.7486    0.9739 C   0  0  0  0  0  0  0  0  0  0  0  0
    7.5213    3.9207    1.7265 C   0  0  0  0  0  0  0  0  0  0  0  0
    5.6285   -0.4087    1.0583 C   0  0  0  0  0  0  0  0  0  0  0  0
    4.2850   -0.0363    0.9523 C   0  0  0  0  0  0  0  0  0  0  0  0
   -0.9222   -1.4115   -0.0044 N   0  0  0  0  0  0  0  0  0  0  0  0
   -2.0237   -0.6538   -0.0181 C   0  0  0  0  0  0  0  0  0  0  0  0
   -2.1205    0.6936    0.0446 N   0  0  0  0  0  0  0  0  0  0  0  0
   -0.9823    1.4372    0.0799 C   0  0  0  0  0  0  0  0  0  0  0  0
   -1.1183    2.7979    0.2232 N   0  0  0  0  0  0  0  0  0  0  0  0
   -0.0231    3.7425    0.3097 C   0  0  1  0  0  0  0  0  0  0  0  0
   -0.0009    4.7011   -0.8541 C   0  0  0  0  0  0  0  0  0  0  0  0
   -1.1937    5.2640   -1.3154 C   0  0  0  0  0  0  0  0  0  0  0  0
   -1.1778    6.2573   -2.2837 C   0  0  0  0  0  0  0  0  0  0  0  0
    0.0357    6.7156   -2.7884 C   0  0  0  0  0  0  0  0  0  0  0  0
    1.2362    6.1728   -2.3336 C   0  0  0  0  0  0  0  0  0  0  0  0
    1.2196    5.1294   -1.4094 C   0  0  0  0  0  0  0  0  0  0  0  0
   -0.0214    4.4777    1.6408 C   0  0  0  0  0  0  0  0  0  0  0  0
  2  1  2  0
  3  2  1  0
  3  4  1  0
  4  5  2  0
  5  1  1  0
  6  4  1  0
  7  6  2  0
  8  7  1  0
  9  8  2  0
  9 19  1  0
 10  9  1  0
 11 10  1  0
 12 11  1  0
 13 12  1  0
 14 13  1  0
 14 15  1  0
 15 16  1  0
 16 11  1  0
 17 14  1  0
 18 17  1  0
 19 20  2  0
 20  6  1  0
 21  2  1  0
 22 21  2  0
 23 22  1  0
 23 24  2  0
 24  1  1  0
 25 24  1  0
 26 25  1  0
 26 33  1  1
 27 26  1  0
 28 27  2  0
 29 28  1  0
 30 29  2  0
 31 30  1  0
 31 32  2  0
 32 27  1  0
M  END
>  <DRUGBANK_ID>  (1) 
DB12558

>  <COMMON_NAME>  (1) 
AEE-788

>  <CAS_NUMBER>  (1) 
497839-62-0

>  <UNII>  (1) 
F9JLR95I3I

$$$$
