6SC
     RDKit          3D

 24 27  0  0  0  0  0  0  0  0999 V2000
    1.5422   -1.2138    0.0021 C   0  0  0  0  0  0  0  0  0  0  0  0
    0.2246   -0.8121    0.0089 C   0  0  0  0  0  0  0  0  0  0  0  0
    0.2688    0.5940   -0.0031 N   0  0  0  0  0  0  0  0  0  0  0  0
    1.5653    1.0399   -0.0055 N   0  0  0  0  0  0  0  0  0  0  0  0
    2.3143   -0.0575   -0.0024 C   0  0  0  0  0  0  0  0  0  0  0  0
   -0.9463   -1.5137    0.0218 N   0  0  0  0  0  0  0  0  0  0  0  0
   -2.0416   -0.8020   -0.0101 C   0  0  0  0  0  0  0  0  0  0  0  0
   -2.1041    0.6882   -0.0171 C   0  0  0  0  0  0  0  0  0  0  0  0
   -0.9342    1.3629   -0.0043 C   0  0  0  0  0  0  0  0  0  0  0  0
   -0.9232    2.7561    0.0150 N   0  0  0  0  0  0  0  0  0  0  0  0
   -3.3579   -1.4751    0.0033 C   0  0  0  0  0  0  0  0  0  0  0  0
    0.2102    3.6579    0.0188 C   0  0  0  0  0  0  0  0  0  0  0  0
    0.2325    4.5103   -1.2197 C   0  0  0  0  0  0  0  0  0  0  0  0
   -0.8489    5.3283   -1.5463 C   0  0  0  0  0  0  0  0  0  0  0  0
   -0.6664    6.2899   -2.5221 C   0  0  0  0  0  0  0  0  0  0  0  0
    0.4308    6.3712   -3.3030 N   0  0  0  0  0  0  0  0  0  0  0  0
    1.4142    5.4802   -3.0589 C   0  0  0  0  0  0  0  0  0  0  0  0
    1.3897    4.5873   -2.0023 C   0  0  0  0  0  0  0  0  0  0  0  0
   -4.2503   -1.3042   -1.0607 C   0  0  0  0  0  0  0  0  0  0  0  0
   -5.4964   -1.9310   -1.0192 C   0  0  0  0  0  0  0  0  0  0  0  0
   -5.8998   -2.6013    0.1361 C   0  0  0  0  0  0  0  0  0  0  0  0
   -5.0300   -2.7098    1.2220 C   0  0  0  0  0  0  0  0  0  0  0  0
   -3.7237   -2.2326    1.1180 C   0  0  0  0  0  0  0  0  0  0  0  0
    2.2346   -2.9462    0.0004 Br  0  0  0  0  0  0  0  0  0  0  0  0
  1  2  2  0
  1 24  1  0
  2  6  1  0
  3  9  1  0
  3  2  1  0
  4  5  2  0
  4  3  1  0
  5  1  1  0
  7  6  2  0
  7 11  1  0
  8  7  1  0
  9  8  2  0
 10 12  1  0
 10  9  1  0
 11 19  2  0
 11 23  1  0
 13 18  1  0
 13 12  1  0
 14 13  2  0
 15 16  2  0
 15 14  1  0
 16 17  1  0
 17 18  2  0
 19 20  1  0
 20 21  2  0
 22 21  1  0
 23 22  2  0
M  END
>  <DRUGBANK_ID>  (1) 
DB07210

>  <COMMON_NAME>  (1) 
3-bromo-5-phenyl-N-(pyridin-4-ylmethyl)pyrazolo[1,5-a]pyrimidin-7-amine

$$$$
