
     RDKit          3D

 31 33  0  0  0  0  0  0  0  0999 V2000
    0.4761   -0.1537   -0.8443 C   0  0  0  0  0  0  0  0  0  0  0  0
    0.3433   -1.5551   -1.3496 C   0  0  0  0  0  0  0  0  0  0  0  0
    1.0392   -2.6013   -0.5684 O   0  0  0  0  0  0  0  0  0  0  0  0
    2.4010   -2.6438   -0.3757 C   0  0  0  0  0  0  0  0  0  0  0  0
    3.1929   -1.8350   -0.8497 O   0  0  0  0  0  0  0  0  0  0  0  0
    2.8526   -3.8251    0.4707 C   0  0  0  0  0  0  0  0  0  0  0  0
    2.4039   -3.8732    1.8688 N   0  0  0  0  0  0  0  0  0  0  0  0
    2.2661   -5.1115    2.4400 N   0  0  0  0  0  0  0  0  0  0  0  0
    1.8587   -4.8658    3.7039 C   0  0  0  0  0  0  0  0  0  0  0  0
    1.7639   -3.4797    3.9333 C   0  0  0  0  0  0  0  0  0  0  0  0
    2.2609   -2.8620    2.8114 C   0  0  0  0  0  0  0  0  0  0  0  0
    2.4571   -1.4329    2.6404 C   0  0  0  0  0  0  0  0  0  0  0  0
    3.3485   -0.6437    3.3630 C   0  0  0  0  0  0  0  0  0  0  0  0
    3.5074    0.7499    3.0939 C   0  0  0  0  0  0  0  0  0  0  0  0
    2.7855    1.3659    2.0873 C   0  0  0  0  0  0  0  0  0  0  0  0
    1.9555    0.5343    1.4059 C   0  0  0  0  0  0  0  0  0  0  0  0
    1.6667   -0.7800    1.7514 C   0  0  0  0  0  0  0  0  0  0  0  0
    2.8085    2.7357    1.5480 C   0  0  0  0  0  0  0  0  0  0  0  0
    3.9908    3.2378    1.0349 C   0  0  0  0  0  0  0  0  0  0  0  0
    4.0223    4.5024    0.4508 C   0  0  0  0  0  0  0  0  0  0  0  0
    2.8605    5.2686    0.2932 C   0  0  0  0  0  0  0  0  0  0  0  0
    1.6342    4.7104    0.6386 C   0  0  0  0  0  0  0  0  0  0  0  0
    1.6116    3.4633    1.2734 C   0  0  0  0  0  0  0  0  0  0  0  0
    5.6016    5.1552   -0.0037 S   0  0  0  0  0  0  0  0  0  0  0  0
    5.4712    5.5635   -1.7200 C   0  0  0  0  0  0  0  0  0  0  0  0
    5.7860    6.3521    0.7566 O   0  0  0  0  0  0  0  0  0  0  0  0
    6.5628    4.0464    0.0850 O   0  0  0  0  0  0  0  0  0  0  0  0
    1.5686   -5.9088    4.7515 C   0  0  0  0  0  0  0  0  0  0  0  0
    0.5901   -6.7758    4.3860 F   0  0  0  0  0  0  0  0  0  0  0  0
    2.6626   -6.6436    5.0840 F   0  0  0  0  0  0  0  0  0  0  0  0
    1.1433   -5.3261    5.9122 F   0  0  0  0  0  0  0  0  0  0  0  0
  1  2  1  0
  2  3  1  0
  3  4  1  0
  4  5  2  0
  4  6  1  0
  6  7  1  0
  7  8  1  0
  7 11  1  0
  8  9  2  0
  9 10  1  0
  9 28  1  0
 10 11  2  0
 11 12  1  0
 12 13  2  0
 12 17  1  0
 13 14  1  0
 14 15  2  0
 15 16  1  0
 15 18  1  0
 16 17  2  0
 18 19  2  0
 18 23  1  0
 19 20  1  0
 20 21  2  0
 20 24  1  0
 21 22  1  0
 22 23  2  0
 24 25  1  0
 24 26  2  0
 24 27  2  0
 28 29  1  0
 28 30  1  0
 28 31  1  0
M  END
>  <DRUGBANK_ID>  (1) 
DB16320

>  <COMMON_NAME>  (1) 
Rovazolac

>  <CAS_NUMBER>  (1) 
1454288-88-0

>  <UNII>  (1) 
W51K389XIL

>  <SYNONYMS>  (1) 
Rovazolac

$$$$
