
     RDKit          3D

 28 31  0  0  1  0  0  0  0  0999 V2000
   15.1960    3.9091   -5.0051 C   0  0  0  0  0  0  0  0  0  0  0  0
   14.8320    4.9064   -4.1338 C   0  0  0  0  0  0  0  0  0  0  0  0
   15.6788    5.8519   -3.5971 C   0  0  0  0  0  0  0  0  0  0  0  0
   16.9905    5.7942   -4.0210 C   0  0  0  0  0  0  0  0  0  0  0  0
   17.3375    4.7780   -4.9214 C   0  0  0  0  0  0  0  0  0  0  0  0
   16.4808    3.8367   -5.4148 N   0  0  0  0  0  0  0  0  0  0  0  0
   14.1975    2.8858   -5.5343 C   0  0  0  0  0  0  0  0  0  0  0  0
   14.5585    2.0262   -6.3254 O   0  0  0  0  0  0  0  0  0  0  0  0
   12.8504    2.8481   -5.1713 N   0  0  0  0  0  0  0  0  0  0  0  0
   11.9656    3.6086   -4.3090 C   0  0  0  0  0  0  0  0  0  0  0  0
   15.2153    6.8310   -2.7188 O   0  0  0  0  0  0  0  0  0  0  0  0
   10.4239    9.0643   -2.3248 S   0  0  0  0  0  0  0  0  0  0  0  0
    9.2806    7.9763   -1.6169 C   0  0  0  0  0  0  0  0  0  0  0  0
    9.7688    6.7806   -1.3851 N   0  0  0  0  0  0  0  0  0  0  0  0
   11.1355    6.7511   -1.5743 C   0  0  0  0  0  0  0  0  0  0  0  0
   11.6857    7.8772   -2.1820 C   0  0  0  0  0  0  0  0  0  0  0  0
   11.9807    5.6764   -1.2361 C   0  0  0  0  0  0  0  0  0  0  0  0
   13.3466    5.7227   -1.5668 C   0  0  0  0  0  0  0  0  0  0  0  0
   13.8772    6.8056   -2.2836 C   0  0  0  0  0  0  0  0  0  0  0  0
   13.0545    7.9155   -2.5646 C   0  0  0  0  0  0  0  0  0  0  0  0
    7.9979    8.3278   -1.3341 N   0  0  0  0  0  0  0  0  0  0  0  0
    7.0941    7.3739   -0.6649 C   0  0  1  0  0  0  0  0  0  0  0  0
    7.5718    7.0055    0.7803 C   0  0  1  0  0  0  0  0  0  0  0  0
    6.6112    6.0273    1.4379 C   0  0  0  0  0  0  0  0  0  0  0  0
    5.2077    6.5779    1.5285 C   0  0  0  0  0  0  0  0  0  0  0  0
    4.6969    6.9932    0.1542 C   0  0  0  0  0  0  0  0  0  0  0  0
    5.6610    7.9551   -0.5589 C   0  0  0  0  0  0  0  0  0  0  0  0
    8.8265    6.3376    0.8852 O   0  0  0  0  0  0  0  0  0  0  0  0
  1  2  2  0
  1  6  1  0
  1  7  1  0
  2  3  1  0
  3  4  2  0
  3 11  1  0
  4  5  1  0
  5  6  2  0
  7  8  2  0
  7  9  1  0
  9 10  1  0
 11 19  1  0
 12 13  1  0
 12 16  1  0
 13 14  2  0
 13 21  1  0
 14 15  1  0
 15 16  2  0
 17 18  2  0
 17 15  1  0
 18 19  1  0
 19 20  2  0
 20 16  1  0
 22 23  1  0
 22 27  1  0
 22 21  1  1
 23 24  1  0
 23 28  1  6
 24 25  1  0
 25 26  1  0
 26 27  1  0
M  END
>  <DRUGBANK_ID>  (1) 
DB16838

>  <COMMON_NAME>  (1) 
BLZ-945

>  <CAS_NUMBER>  (1) 
953769-46-5

>  <UNII>  (1) 
7W3V82OQ0P

>  <SYNONYMS>  (1) 
Sotuletinib

$$$$
