
     RDKit          3D

 15 16  0  0  0  0  0  0  0  0999 V2000
   -0.0944   -1.1759   -0.0364 N   0  0  0  0  0  0  0  0  0  0  0  0
   -0.7654    0.0071   -0.0351 C   0  0  0  0  0  0  0  0  0  0  0  0
    0.2319    1.1456    0.0189 C   0  0  0  0  0  0  0  0  0  0  0  0
    1.4867    0.4393    0.0641 O   0  0  0  0  0  0  0  0  0  0  0  0
    1.1509   -0.8749    0.0077 C   0  0  0  0  0  0  0  0  0  0  0  0
    0.0597    2.1387    1.1506 C   0  0  0  0  0  0  0  0  0  0  0  0
   -1.0644    2.1369    1.9946 C   0  0  0  0  0  0  0  0  0  0  0  0
   -1.3285    3.2160    2.8382 C   0  0  0  0  0  0  0  0  0  0  0  0
   -0.4188    4.2627    2.9334 C   0  0  0  0  0  0  0  0  0  0  0  0
    0.7336    4.2528    2.1509 C   0  0  0  0  0  0  0  0  0  0  0  0
    0.9685    3.2027    1.2603 C   0  0  0  0  0  0  0  0  0  0  0  0
   -1.9786    0.1142   -0.0928 O   0  0  0  0  0  0  0  0  0  0  0  0
    2.1858   -1.7481   -0.0054 N   0  0  0  0  0  0  0  0  0  0  0  0
    1.9619   -3.1818    0.0189 C   0  0  0  0  0  0  0  0  0  0  0  0
    2.5491   -3.8441   -1.2114 C   0  0  0  0  0  0  0  0  0  0  0  0
  1  2  1  0
  2  3  1  0
  2 12  2  0
  3  4  1  0
  3  6  1  0
  4  5  1  0
  5  1  2  0
  5 13  1  0
  6  7  2  0
  7  8  1  0
  8  9  2  0
  9 10  1  0
 10 11  2  0
 11  6  1  0
 13 14  1  0
 14 15  1  0
M  END
>  <DRUGBANK_ID>  (1) 
DB13341

>  <COMMON_NAME>  (1) 
Fenozolone

>  <CAS_NUMBER>  (1) 
15302-16-6

>  <UNII>  (1) 
1NZI4LMU6G

>  <SYNONYMS>  (1) 
Fenozolona; Fenozolone; Fenozolonum

$$$$
