
     RDKit          3D

 26 28  0  0  0  0  0  0  0  0999 V2000
    0.7382    0.3469   -0.1372 C   0  0  0  0  0  0  0  0  0  0  0  0
    0.2307   -0.9899   -0.2627 N   0  0  0  0  0  0  0  0  0  0  0  0
    1.0056   -2.0065    0.2866 C   0  0  0  0  0  0  0  0  0  0  0  0
    2.7268   -1.8566    0.6620 N   0  0  0  0  0  0  0  0  0  0  0  0
    3.9988   -3.1312    1.0764 C   0  0  0  0  0  0  0  0  0  0  0  0
    3.9365   -3.7010    2.4737 C   0  0  0  0  0  0  0  0  0  0  0  0
    3.9913   -5.1732    2.7557 C   0  0  0  0  0  0  0  0  0  0  0  0
    4.3683   -6.1170    1.7935 C   0  0  0  0  0  0  0  0  0  0  0  0
    4.5616   -8.1620    2.1731 I   0  0  0  0  0  0  0  0  0  0  0  0
    4.5274   -5.6768    0.4980 C   0  0  0  0  0  0  0  0  0  0  0  0
    4.3511   -4.3040    0.1283 C   0  0  0  0  0  0  0  0  0  0  0  0
    4.2929   -4.3096   -1.2217 F   0  0  0  0  0  0  0  0  0  0  0  0
    0.0413   -3.3181   -0.1664 C   0  0  0  0  0  0  0  0  0  0  0  0
    0.2162   -5.0465   -0.2158 C   0  0  0  0  0  0  0  0  0  0  0  0
   -0.4853   -5.8122   -0.8065 O   0  0  0  0  0  0  0  0  0  0  0  0
    1.3727   -5.6667    0.2941 N   0  0  0  0  0  0  0  0  0  0  0  0
    1.8183   -5.1108    1.4334 O   0  0  0  0  0  0  0  0  0  0  0  0
    1.8416   -3.8132    1.0243 C   0  0  0  0  0  0  0  0  0  0  0  0
    2.2594   -3.3549   -0.9081 C   0  0  0  0  0  0  0  0  0  0  0  0
    1.8061   -4.1810   -1.9652 O   0  0  0  0  0  0  0  0  0  0  0  0
   -0.9719   -2.8492   -0.9656 C   0  0  0  0  0  0  0  0  0  0  0  0
   -1.8916   -3.5733   -1.7389 C   0  0  0  0  0  0  0  0  0  0  0  0
   -2.8412   -2.8639   -2.3983 C   0  0  0  0  0  0  0  0  0  0  0  0
   -2.7449   -1.4858   -2.3107 C   0  0  0  0  0  0  0  0  0  0  0  0
   -1.7865   -0.7228   -1.6725 N   0  0  0  0  0  0  0  0  0  0  0  0
   -0.8845   -1.4633   -0.9852 C   0  0  0  0  0  0  0  0  0  0  0  0
  1  2  1  0
  2  3  1  0
  2 26  1  0
  3  4  1  0
  3 13  2  0
  4  5  1  0
  5  6  2  0
  5 11  1  0
  6  7  1  0
  7  8  2  0
  8  9  1  0
  8 10  1  0
 10 11  2  0
 11 12  1  0
 13 14  1  0
 13 21  1  0
 14 15  2  0
 14 16  1  0
 16 17  1  0
 17 18  1  0
 18 19  1  0
 19 20  1  0
 21 22  1  0
 21 26  2  0
 22 23  2  0
 23 24  1  0
 24 25  2  0
 25 26  1  0
M  END
>  <DRUGBANK_ID>  (1) 
DB18102

>  <COMMON_NAME>  (1) 
Nedometinib

>  <CAS_NUMBER>  (1) 
2252314-46-6

>  <UNII>  (1) 
K5T4I78IYZ

>  <SYNONYMS>  (1) 
2-((2-fluoro-4-iodophenyl)amino)-n-(2-hydroxyethoxy)-1-methyl-1h-pyrrolo(2,3-b)pyridine-3-carboxamide

$$$$
