
     RDKit          3D

 34 38  0  0  0  0  0  0  0  0999 V2000
    1.0871    0.0340    0.0671 N   0  0  0  0  0  0  0  0  0  0  0  0
    0.4995    1.0384    0.9570 C   0  0  0  0  0  0  0  0  0  0  0  0
   -0.9571    1.2430    0.5386 C   0  0  0  0  0  0  0  0  0  0  0  0
   -1.0635    1.9958   -0.8085 C   0  0  0  0  0  0  0  0  0  0  0  0
   -0.2611    3.2287   -0.7647 N   0  0  0  0  0  0  0  0  0  0  0  0
    1.1499    3.0559   -0.4142 C   0  0  0  0  0  0  0  0  0  0  0  0
    1.2341    2.3889    0.9527 C   0  0  0  0  0  0  0  0  0  0  0  0
   -0.7695    4.4921   -1.0924 C   0  0  0  0  0  0  0  0  0  0  0  0
   -0.1823    5.3054   -2.0910 C   0  0  0  0  0  0  0  0  0  0  0  0
   -0.7367    6.5712   -2.3119 C   0  0  0  0  0  0  0  0  0  0  0  0
   -1.7826    7.0970   -1.6394 N   0  0  0  0  0  0  0  0  0  0  0  0
   -2.3380    6.3418   -0.6894 C   0  0  0  0  0  0  0  0  0  0  0  0
   -3.4013    6.8627    0.0388 C   0  0  0  0  0  0  0  0  0  0  0  0
   -4.0274    6.1346    1.0515 C   0  0  0  0  0  0  0  0  0  0  0  0
   -3.5973    4.8506    1.3566 C   0  0  0  0  0  0  0  0  0  0  0  0
   -2.5220    4.3504    0.6446 C   0  0  0  0  0  0  0  0  0  0  0  0
   -1.8771    5.0420   -0.3885 C   0  0  0  0  0  0  0  0  0  0  0  0
   -4.2514    4.0564    2.3935 C   0  0  0  0  0  0  0  0  0  0  0  0
   -5.5918    3.6513    2.2823 C   0  0  0  0  0  0  0  0  0  0  0  0
   -6.3172    3.8804    1.1399 O   0  0  0  0  0  0  0  0  0  0  0  0
   -6.2298    3.0188    3.3510 C   0  0  0  0  0  0  0  0  0  0  0  0
   -5.5898    2.9732    4.5942 C   0  0  0  0  0  0  0  0  0  0  0  0
   -4.2816    3.4305    4.7234 C   0  0  0  0  0  0  0  0  0  0  0  0
   -3.5665    3.7890    3.5874 C   0  0  0  0  0  0  0  0  0  0  0  0
   -7.5273    2.4431    3.1949 C   0  0  0  0  0  0  0  0  0  0  0  0
   -8.5727    1.9334    3.0886 N   0  0  0  0  0  0  0  0  0  0  0  0
    0.9407    4.8605   -2.9245 C   0  0  0  0  0  0  0  0  0  0  0  0
    2.1591    5.5576   -2.9326 C   0  0  0  0  0  0  0  0  0  0  0  0
    3.2355    5.0673   -3.6662 C   0  0  0  0  0  0  0  0  0  0  0  0
    4.3980    5.7315   -3.6479 F   0  0  0  0  0  0  0  0  0  0  0  0
    3.1306    3.8946   -4.4002 C   0  0  0  0  0  0  0  0  0  0  0  0
    1.9240    3.2138   -4.4039 C   0  0  0  0  0  0  0  0  0  0  0  0
    1.8089    2.0698   -5.0893 F   0  0  0  0  0  0  0  0  0  0  0  0
    0.8332    3.6884   -3.6887 C   0  0  0  0  0  0  0  0  0  0  0  0
  1  2  1  0
  2  3  1  0
  2  7  1  0
  3  4  1  0
  4  5  1  0
  5  6  1  0
  5  8  1  0
  6  7  1  0
  8  9  1  0
  8 17  2  0
  9 10  2  0
  9 27  1  0
 10 11  1  0
 11 12  2  0
 12 13  1  0
 12 17  1  0
 13 14  2  0
 14 15  1  0
 15 16  2  0
 15 18  1  0
 16 17  1  0
 18 19  2  0
 18 24  1  0
 19 20  1  0
 19 21  1  0
 21 22  2  0
 21 25  1  0
 22 23  1  0
 23 24  2  0
 25 26  3  0
 27 28  2  0
 27 34  1  0
 28 29  1  0
 29 30  1  0
 29 31  2  0
 31 32  1  0
 32 33  1  0
 32 34  2  0
M  END
>  <DRUGBANK_ID>  (1) 
DB16277

>  <COMMON_NAME>  (1) 
Paltusotine

>  <CAS_NUMBER>  (1) 
2172870-89-0

>  <UNII>  (1) 
F2IBD1GMD3

>  <SYNONYMS>  (1) 
Paltusotine

$$$$
