
     RDKit          3D

 24 24  0  0  0  0  0  0  0  0999 V2000
    0.6969    1.1286    0.0046 C   0  0  0  0  0  0  0  0  0  0  0  0
    1.6841    0.0865    0.0020 C   0  0  0  0  0  0  0  0  0  0  0  0
    1.2619   -1.2490   -0.0080 C   0  0  0  0  0  0  0  0  0  0  0  0
   -0.1224   -1.5213   -0.0104 C   0  0  0  0  0  0  0  0  0  0  0  0
   -1.1083   -0.5040   -0.0016 C   0  0  0  0  0  0  0  0  0  0  0  0
   -0.7079    0.8584   -0.0014 C   0  0  0  0  0  0  0  0  0  0  0  0
    1.2137    2.5508    0.0102 C   0  0  0  0  0  0  0  0  0  0  0  0
    3.1102    0.5818    0.0095 C   0  0  0  0  0  0  0  0  0  0  0  0
    3.4342   -2.2663   -0.0086 C   0  0  0  0  0  0  0  0  0  0  0  0
   -2.5639   -0.9263    0.0102 C   0  0  0  0  0  0  0  0  0  0  0  0
   -1.7626    1.9343   -0.0139 C   0  0  0  0  0  0  0  0  0  0  0  0
   -1.6039    3.2711   -0.0344 C   0  0  0  0  0  0  0  0  0  0  0  0
   -2.1664    5.6258   -0.0800 C   0  0  0  0  0  0  0  0  0  0  0  0
   -3.0576    6.7605   -0.1034 C   0  0  0  0  0  0  0  0  0  0  0  0
   -2.7625    8.0715   -0.1248 C   0  0  0  0  0  0  0  0  0  0  0  0
   -3.4916   10.4234   -0.1670 C   0  0  0  0  0  0  0  0  0  0  0  0
    2.0229   -2.3932   -0.0152 O   0  0  0  0  0  0  0  0  0  0  0  0
   -3.9834   12.7611   -0.2083 O   0  0  0  0  0  0  0  0  0  0  0  0
   -4.3858   11.6047   -0.1900 C   0  0  0  0  0  0  0  0  0  0  0  0
   -5.6935   11.3347   -0.1897 O   0  0  0  0  0  0  0  0  0  0  0  0
   -2.5892    4.3367   -0.0580 C   0  0  0  0  0  0  0  0  0  0  0  0
   -4.0173    3.8814   -0.0568 C   0  0  0  0  0  0  0  0  0  0  0  0
   -3.8175    9.1127   -0.1459 C   0  0  0  0  0  0  0  0  0  0  0  0
   -5.2413    8.5951   -0.1417 C   0  0  0  0  0  0  0  0  0  0  0  0
  1  2  2  0
  1  6  1  0
  1  7  1  0
  2  3  1  0
  2  8  1  0
  3  4  2  0
  3 17  1  0
  4  5  1  0
  5  6  2  0
  5 10  1  0
  6 11  1  0
 11 12  2  0
 12 21  1  0
 13 14  1  0
 14 15  2  0
 15 23  1  0
 16 19  1  0
 17  9  1  0
 19 18  2  0
 19 20  1  0
 21 13  2  0
 21 22  1  0
 23 16  2  0
 23 24  1  0
M  END
>  <DRUGBANK_ID>  (1) 
DB00459

>  <SECONDARY_ACCESSION_NUMBERS>  (1) 
APRD00778

>  <COMMON_NAME>  (1) 
Acitretin

>  <CAS_NUMBER>  (1) 
55079-83-9

>  <UNII>  (1) 
LCH760E9T7

>  <SYNONYMS>  (1) 
(all-E)-9-(4-Methoxy-2,3,6-trimethylphenyl)-3,7-dimethyl-2,4,6,8-nonatetraenoic acid; Acitretin; Acitretina; Acitretine; Acitretinum; all-trans-3,7-Dimethyl-9-(4-methoxy-2,3,6-trimethylphenyl)-2,4,6,8-nonatetraenoic acid; Etretin

$$$$
