
     RDKit          3D

 11  8  0  0  0  0  0  0  0  0999 V2000
    2.0324   -0.7853    0.0731 C   0  0  0  0  0  0  0  0  0  0  0  0
    1.1487   -0.9955    1.6305 C   0  0  0  0  0  0  0  0  0  0  0  0
    0.1369   -0.3266    2.0543 O   0  0  0  0  0  0  0  0  0  0  0  0
    1.2799   -2.1473    2.1291 O   0  0  0  0  0  0  0  0  0  0  0  0
    1.7910    0.1196   -1.3149 N   0  0  0  0  0  0  0  0  0  0  0  0
    0.1008    1.1513    0.2125 C   0  0  0  0  0  0  0  0  0  0  0  0
   -0.2477    2.2836   -0.6842 C   0  0  0  0  0  0  0  0  0  0  0  0
   -1.0788    1.9506   -1.5298 O   0  0  0  0  0  0  0  0  0  0  0  0
    0.3889    3.3632   -0.3997 O   0  0  0  0  0  0  0  0  0  0  0  0
   -0.5690   -0.3482   -0.3547 N   0  0  0  0  0  0  0  0  0  0  0  0
   -1.5254   -0.6302    1.3195 Fe  0  0  0  0  0 15  0  0  0  0  0  0
  1  2  1  0
  1  5  1  0
  2  3  2  0
  2  4  1  0
  6  7  1  0
  6 10  1  0
  7  8  2  0
  7  9  1  0
M  CHG  3   4  -1   9  -1  11   2
M  END
>  <DRUGBANK_ID>  (1) 
DB11210

>  <COMMON_NAME>  (1) 
Ferrous bisglycinate

>  <CAS_NUMBER>  (1) 
20150-34-9

>  <UNII>  (1) 
SFW1D987QV

$$$$
