
     RDKit          3D

 11 11  0  0  1  0  0  0  0  0999 V2000
    1.7754    0.0036   -0.7375 C   0  0  0  0  0  0  0  0  0  0  0  0
   -0.0249   -1.1895    0.5802 C   0  0  0  0  0  0  0  0  0  0  0  0
    0.8991    0.0232    0.5244 C   0  0  2  0  0  0  0  0  0  0  0  0
   -1.1042   -0.8027   -0.4214 C   0  0  2  0  0  0  0  0  0  0  0  0
   -0.1134    1.1702    0.4634 C   0  0  2  0  0  0  0  0  0  0  0  0
   -0.5060    1.6930    1.8525 C   0  0  0  0  0  0  0  0  0  0  0  0
   -1.3012    0.6325   -0.2554 N   0  0  0  0  0  0  0  0  0  0  0  0
   -2.3842   -1.4573   -0.2755 N   0  0  0  0  0  0  0  0  0  0  0  0
   -0.3387    2.8420    2.2470 O   0  0  0  0  0  0  0  0  0  0  0  0
   -1.0591    0.7783    2.6745 O   0  0  0  0  0  0  0  0  0  0  0  0
   -2.1133   -2.8885   -0.2931 O   0  0  0  0  0  0  0  0  0  0  0  0
  3  1  1  6
  3  2  1  0
  4  2  1  0
  4  8  1  1
  5  3  1  0
  5  6  1  1
  7  4  1  0
  7  5  1  0
  9  6  2  0
 10  6  1  0
 11  8  1  0
M  END
>  <DRUGBANK_ID>  (1) 
DB02298

>  <SECONDARY_ACCESSION_NUMBERS>  (1) 
EXPT00683

>  <COMMON_NAME>  (1) 
5-Hydroxyamino-3-Methyl-Pyrrolidine-2-Carboxylic Acid

$$$$
