1071
     RDKit          3D

 23 27  0  0  1  0  0  0  0  0999 V2000
    0.0662    1.6594   -0.4955 S   0  0  0  0  0  0  0  0  0  0  0  0
   -2.4894    0.2574    3.2914 N   0  0  0  0  0  0  0  0  0  0  0  0
    0.0172   -1.3265    0.5278 N   0  0  0  0  0  0  0  0  0  0  0  0
    0.0047   -0.3118    3.7835 C   0  0  0  0  0  0  0  0  0  0  0  0
   -0.7167   -1.5256    3.1328 C   0  0  0  0  0  0  0  0  0  0  0  0
   -2.2129   -1.1754    3.0255 C   0  0  0  0  0  0  0  0  0  0  0  0
   -0.0915    0.8424    2.8111 C   0  0  0  0  0  0  0  0  0  0  0  0
   -0.7448    0.2178    5.0304 C   0  0  0  0  0  0  0  0  0  0  0  0
   -1.5744    1.0984    2.5006 C   0  0  0  0  0  0  0  0  0  0  0  0
   -2.2009    0.5725    4.6862 C   0  0  0  0  0  0  0  0  0  0  0  0
   -0.0571   -2.1338    1.8166 C   0  0  0  0  0  0  0  0  0  0  0  0
    1.2861   -0.8075    0.1426 C   0  0  0  0  0  0  0  0  0  0  0  0
   -1.1547   -0.8695   -0.1162 C   0  0  0  0  0  0  0  0  0  0  0  0
    1.4292    0.5412   -0.2797 C   0  0  0  0  0  0  0  0  0  0  0  0
   -1.2656    0.4704   -0.5877 C   0  0  0  0  0  0  0  0  0  0  0  0
    2.3996   -1.6344    0.0435 C   0  0  0  0  0  0  0  0  0  0  0  0
   -2.2781   -1.6913   -0.2612 C   0  0  0  0  0  0  0  0  0  0  0  0
    2.6793    1.0695   -0.6144 C   0  0  0  0  0  0  0  0  0  0  0  0
   -2.5200    1.0163   -0.8920 C   0  0  0  0  0  0  0  0  0  0  0  0
    3.6153   -1.1361   -0.4539 C   0  0  0  0  0  0  0  0  0  0  0  0
   -3.5110   -1.1561   -0.6512 C   0  0  0  0  0  0  0  0  0  0  0  0
    3.7530    0.2222   -0.7466 C   0  0  0  0  0  0  0  0  0  0  0  0
   -3.6450    0.2058   -0.9067 C   0  0  0  0  0  0  0  0  0  0  0  0
  1 14  1  0
  1 15  1  0
  2  6  1  0
  2  9  1  0
  2 10  1  0
  3 11  1  0
  3 12  1  0
  3 13  1  0
  4  5  1  0
  4  7  1  0
  4  8  1  0
  5  6  1  0
  5 11  1  0
  7  9  1  0
  8 10  1  0
 12 14  2  0
 12 16  1  0
 13 15  2  0
 13 17  1  0
 14 18  1  0
 15 19  1  0
 16 20  2  0
 17 21  2  0
 18 22  2  0
 19 23  2  0
 20 22  1  0
 21 23  1  0
M  END
>  <DRUGBANK_ID>  (1) 
DB01071

>  <SECONDARY_ACCESSION_NUMBERS>  (1) 
APRD00386

>  <COMMON_NAME>  (1) 
Mequitazine

>  <CAS_NUMBER>  (1) 
29216-28-2

>  <UNII>  (1) 
Y463242LY2

>  <SYNONYMS>  (1) 
Mequitazina; Mequitazine; Mequitazinum

$$$$
