
     RDKit          3D

 35 35  0  0  1  0  0  0  0  0999 V2000
    1.8481    0.2959   -0.1240 C   0  0  0  0  0  0  0  0  0  0  0  0
    1.5061   -1.1205   -0.5343 C   0  0  0  0  0  0  0  0  0  0  0  0
    1.4625   -2.3034    0.6224 C   0  0  0  0  0  0  0  0  0  0  0  0
    0.6258   -2.4161    2.0004 C   0  0  0  0  0  0  0  0  0  0  0  0
   -0.8213   -2.8607    2.0597 N   0  0  0  0  0  0  0  0  0  0  0  0
   -1.7481   -1.7303    2.0767 C   0  0  0  0  0  0  0  0  0  0  0  0
   -3.3234   -1.4908    1.7138 C   0  0  1  0  0  0  0  0  0  0  0  0
   -3.6443   -2.5861    0.7496 C   0  0  2  0  0  0  0  0  0  0  0  0
   -3.0189   -3.7696    1.5023 C   0  0  1  0  0  0  0  0  0  0  0  0
   -1.4579   -3.9594    1.3382 C   0  0  1  0  0  0  0  0  0  0  0  0
   -1.0413   -4.2519   -0.1431 C   0  0  0  0  0  0  0  0  0  0  0  0
   -2.0039   -4.9067   -0.8712 O   0  0  0  0  0  0  0  0  0  0  0  0
   -1.9963   -6.1993   -0.5167 C   0  0  0  0  0  0  0  0  0  0  0  0
   -1.3736   -6.6844    0.3459 O   0  0  0  0  0  0  0  0  0  0  0  0
   -2.9420   -6.7984   -1.5005 C   0  0  0  0  0  0  0  0  0  0  0  0
   -4.3354   -6.1576   -1.4004 C   0  0  0  0  0  0  0  0  0  0  0  0
   -4.4980   -4.7522   -1.9861 C   0  0  0  0  0  0  0  0  0  0  0  0
   -3.3891   -3.6153    3.0461 O   0  0  0  0  0  0  0  0  0  0  0  0
   -2.9700   -2.7876    4.0870 C   0  0  0  0  0  0  0  0  0  0  0  0
   -2.0328   -1.9955    4.2012 O   0  0  0  0  0  0  0  0  0  0  0  0
   -3.7574   -2.7846    5.3201 C   0  0  0  0  0  0  0  0  0  0  0  0
   -5.2484   -2.8910    5.3048 C   0  0  0  0  0  0  0  0  0  0  0  0
   -5.7413   -4.0221    4.4517 C   0  0  0  0  0  0  0  0  0  0  0  0
   -3.2707   -2.2530   -0.6742 O   0  0  0  0  0  0  0  0  0  0  0  0
   -2.2565   -1.7123   -1.3616 C   0  0  0  0  0  0  0  0  0  0  0  0
   -2.1853   -1.7505   -2.5907 O   0  0  0  0  0  0  0  0  0  0  0  0
   -1.0554   -1.3574   -0.6100 C   0  0  0  0  0  0  0  0  0  0  0  0
   -0.8520    0.0411    0.3351 C   0  0  0  0  0  0  0  0  0  0  0  0
   -1.9492    0.7015    1.1758 C   0  0  0  0  0  0  0  0  0  0  0  0
   -4.0092   -0.9777    2.8488 O   0  0  0  0  0  0  0  0  0  0  0  0
   -5.3124   -0.7788    3.0346 C   0  0  0  0  0  0  0  0  0  0  0  0
   -5.7036   -0.1489    3.9979 O   0  0  0  0  0  0  0  0  0  0  0  0
   -6.2077   -1.4241    2.0325 C   0  0  0  0  0  0  0  0  0  0  0  0
   -6.4555   -0.4518    0.8659 C   0  0  0  0  0  0  0  0  0  0  0  0
   -5.2854    0.1695    0.1159 C   0  0  0  0  0  0  0  0  0  0  0  0
  1  2  1  0
  2  3  1  0
  3  4  1  0
  4  5  1  0
  5  6  1  0
  5 10  1  0
  6  7  1  0
  7  8  1  0
  7 30  1  1
  8  9  1  0
  8 24  1  6
  9 10  1  0
  9 18  1  1
 10 11  1  6
 11 12  1  0
 12 13  1  0
 13 14  2  0
 13 15  1  0
 15 16  1  0
 16 17  1  0
 18 19  1  0
 19 20  2  0
 19 21  1  0
 21 22  1  0
 22 23  1  0
 24 25  1  0
 25 26  2  0
 25 27  1  0
 27 28  1  0
 28 29  1  0
 30 31  1  0
 31 32  2  0
 31 33  1  0
 33 34  1  0
 34 35  1  0
M  END
>  <DRUGBANK_ID>  (1) 
DB13106

>  <COMMON_NAME>  (1) 
Glycovir

>  <CAS_NUMBER>  (1) 
131262-82-3

>  <UNII>  (1) 
QXJ91425UL

$$$$
