
     RDKit          3D

 17 17  0  0  1  0  0  0  0  0999 V2000
    1.4166   -0.2607    0.0831 C   0  0  0  0  0  0  0  0  0  0  0  0
    0.7411    0.5227    1.2156 C   0  0  2  0  0  0  0  0  0  0  0  0
   -0.6923    0.4163    0.9710 O   0  0  0  0  0  0  0  0  0  0  0  0
   -1.3326    1.3646    0.0782 C   0  0  2  0  0  0  0  0  0  0  0  0
   -1.2911    0.8902   -1.3796 C   0  0  0  0  0  0  0  0  0  0  0  0
   -1.7901   -0.4419   -1.4672 O   0  0  0  0  0  0  0  0  0  0  0  0
   -0.8884    2.8223    0.2693 C   0  0  1  0  0  0  0  0  0  0  0  0
   -1.5394    3.3269    1.4481 O   0  0  0  0  0  0  0  0  0  0  0  0
    0.6458    2.9799    0.3165 C   0  0  2  0  0  0  0  0  0  0  0  0
    1.2519    2.8529   -0.9538 O   0  0  0  0  0  0  0  0  0  0  0  0
    1.2744    2.0571    1.3615 C   0  0  1  0  0  0  0  0  0  0  0  0
    1.0499    2.8566    2.5500 O   0  0  0  0  0  0  0  0  0  0  0  0
    1.0843   -0.3427    2.3577 O   0  0  0  0  0  0  0  0  0  0  0  0
    0.5045    0.2424    3.8790 P   0  0  0  0  0  0  0  0  0  0  0  0
    1.9162    1.0291    3.9746 O   0  0  0  0  0  0  0  0  0  0  0  0
   -0.5291    1.2651    3.1481 O   0  0  0  0  0  0  0  0  0  0  0  0
   -0.0144    0.7661    5.2406 O   0  0  0  0  0  0  0  0  0  0  0  0
  2  1  1  6
  2  3  1  0
  2 11  1  0
  2 13  1  0
  3  4  1  0
  4  5  1  6
  4  7  1  0
  5  6  1  0
  7  9  1  0
  7  8  1  1
  9 10  1  6
  9 11  1  0
 11 12  1  1
 13 14  1  0
 14 15  1  0
 14 16  1  0
 14 17  2  0
M  END
>  <DRUGBANK_ID>  (1) 
DB04195

>  <SECONDARY_ACCESSION_NUMBERS>  (1) 
EXPT01677

>  <COMMON_NAME>  (1) 
Heptulose-2-Phosphate

$$$$
