1541
     RDKit          3D

 21 24  0  0  1  0  0  0  0  0999 V2000
    0.6751   -3.2233    7.8523 O   0  0  0  0  0  0  0  0  0  0  0  0
   -6.3400   -8.1536    1.2895 O   0  0  0  0  0  0  0  0  0  0  0  0
   -0.9645   -4.3588    5.0663 C   0  0  2  0  0  0  0  0  0  0  0  0
    0.4787   -4.3549    5.3569 C   0  0  2  0  0  0  0  0  0  0  0  0
   -1.6171   -4.5966    3.7806 C   0  0  1  0  0  0  0  0  0  0  0  0
   -1.2238   -5.8001    2.9755 C   0  0  2  0  0  0  0  0  0  0  0  0
    0.9571   -5.7003    4.6047 C   0  0  0  0  0  0  0  0  0  0  0  0
   -0.0671   -4.1399    7.0643 C   0  0  2  0  0  0  0  0  0  0  0  0
    0.3631   -5.8863    3.0395 C   0  0  0  0  0  0  0  0  0  0  0  0
   -1.4743   -3.0333    5.6630 C   0  0  0  0  0  0  0  0  0  0  0  0
   -2.4277   -6.0827    1.6010 C   0  0  2  0  0  0  0  0  0  0  0  0
   -2.9951   -4.8746    4.3760 C   0  0  0  0  0  0  0  0  0  0  0  0
   -1.5755   -3.5170    7.0505 C   0  0  0  0  0  0  0  0  0  0  0  0
    1.1071   -3.2257    4.4764 C   0  0  0  0  0  0  0  0  0  0  0  0
   -3.7524   -5.6847    3.4456 C   0  0  0  0  0  0  0  0  0  0  0  0
   -3.2982   -6.8763    2.5522 C   0  0  0  0  0  0  0  0  0  0  0  0
   -1.5691   -7.1595    0.8520 C   0  0  0  0  0  0  0  0  0  0  0  0
   -4.1047   -5.3274    1.0727 C   0  0  0  0  0  0  0  0  0  0  0  0
   -4.0293   -7.8605    1.9272 C   0  0  0  0  0  0  0  0  0  0  0  0
   -5.3583   -5.9539    1.3291 C   0  0  0  0  0  0  0  0  0  0  0  0
   -5.3499   -7.3898    1.5489 C   0  0  0  0  0  0  0  0  0  0  0  0
  2 21  2  0
  3  4  1  0
  3  5  1  0
  3 10  1  6
  4  7  1  0
  4  8  1  0
  4 14  1  6
  5  6  1  0
  5 12  1  1
  6  9  1  6
  6 11  1  0
  7  9  1  0
  8  1  1  1
  8 13  1  0
 10 13  1  0
 11 16  1  0
 11 17  1  6
 11 18  1  0
 12 15  1  0
 15 16  1  0
 16 19  2  0
 18 20  2  0
 19 21  1  0
 20 21  1  0
M  END
>  <DRUGBANK_ID>  (1) 
DB01541

>  <COMMON_NAME>  (1) 
Boldenone

>  <CAS_NUMBER>  (1) 
846-48-0

>  <UNII>  (1) 
5H7I2IP58X

>  <SYNONYMS>  (1) 
1,2-Dehydrotestosterone; 1,2-Didehydrotestosterone; 1,4-Androstadien-17beta-ol-3-one; 1,4-Androstadien-17β-ol-3-one; 17beta-Boldenone; 17β-hydroxyandrosta-1,4-dien-3-one; Boldenona; Boldenone; Boldenonum

$$$$
