
     RDKit          3D

 25 27  0  0  0  0  0  0  0  0999 V2000
    0.0531    1.8801   -0.1544 S   0  0  0  0  0  0  0  0  0  0  0  0
    0.0588   -2.4888    0.1582 O   0  0  0  0  0  0  0  0  0  0  0  0
   -2.2480    3.6383    1.0286 O   0  0  0  0  0  0  0  0  0  0  0  0
   -2.4731   -5.4588   -1.1861 N   0  0  0  0  0  0  0  0  0  0  0  0
   -2.5298   -2.6880    0.3051 N   0  0  0  0  0  0  0  0  0  0  0  0
   -3.6304   -4.5627   -0.9703 C   0  0  0  0  0  0  0  0  0  0  0  0
   -3.6144   -3.6593    0.2910 C   0  0  0  0  0  0  0  0  0  0  0  0
   -2.5402   -1.3200    0.1556 C   0  0  0  0  0  0  0  0  0  0  0  0
   -1.3259   -0.5634    0.0415 C   0  0  0  0  0  0  0  0  0  0  0  0
   -1.3839    0.8376   -0.0400 C   0  0  0  0  0  0  0  0  0  0  0  0
   -2.6615   -6.3910   -2.3016 C   0  0  0  0  0  0  0  0  0  0  0  0
   -1.1750   -4.7788   -1.2773 C   0  0  0  0  0  0  0  0  0  0  0  0
   -2.6452    1.4849   -0.0224 C   0  0  0  0  0  0  0  0  0  0  0  0
    0.0032   -1.2755    0.0450 C   0  0  0  0  0  0  0  0  0  0  0  0
   -3.7611   -0.6484    0.1191 C   0  0  0  0  0  0  0  0  0  0  0  0
    1.3112   -0.5898   -0.0111 C   0  0  0  0  0  0  0  0  0  0  0  0
   -3.8182    0.7294    0.0443 C   0  0  0  0  0  0  0  0  0  0  0  0
    1.4158    0.7898   -0.0196 C   0  0  0  0  0  0  0  0  0  0  0  0
   -2.8126   -5.7599   -3.6808 C   0  0  0  0  0  0  0  0  0  0  0  0
   -1.0759   -3.6364   -2.3001 C   0  0  0  0  0  0  0  0  0  0  0  0
   -2.7964    2.9843   -0.1062 C   0  0  0  0  0  0  0  0  0  0  0  0
    2.4821   -1.3758    0.0069 C   0  0  0  0  0  0  0  0  0  0  0  0
    2.6834    1.3821    0.0544 C   0  0  0  0  0  0  0  0  0  0  0  0
    3.7407   -0.7780    0.0625 C   0  0  0  0  0  0  0  0  0  0  0  0
    3.8390    0.6061    0.1010 C   0  0  0  0  0  0  0  0  0  0  0  0
  1 10  1  0
  1 18  1  0
  2 14  2  0
  3 21  1  0
  4  6  1  0
  4 11  1  0
  4 12  1  0
  5  7  1  0
  5  8  1  0
  6  7  1  0
  8  9  1  0
  8 15  2  0
  9 10  2  0
  9 14  1  0
 10 13  1  0
 11 19  1  0
 12 20  1  0
 13 17  2  0
 13 21  1  0
 14 16  1  0
 15 17  1  0
 16 18  2  0
 16 22  1  0
 18 23  1  0
 22 24  2  0
 23 25  2  0
 24 25  1  0
M  END
>  <DRUGBANK_ID>  (1) 
DB14061

>  <COMMON_NAME>  (1) 
Hycanthone

>  <CAS_NUMBER>  (1) 
3105-97-3

>  <UNII>  (1) 
2BXX5EVN2A

>  <SYNONYMS>  (1) 
1-((2-(Diethylamino)ethyl)amino)-4-(hydroxymethyl)-9H-thioxanthen-9-one; 1-((2-(Diethylamino)ethyl)amino)-4-(hydroxymethyl)thioxanthen-9-one; Hicantona; Hycanthon; Hycanthone; Hycanthonum; Lucanthone metabolite

$$$$
