STB
     RDKit          3D

 20 20  0  0  0  0  0  0  0  0999 V2000
    1.2845   -0.2155   -0.0171 C   0  0  0  0  0  0  0  0  0  0  0  0
    0.3120   -1.2003   -0.1903 C   0  0  0  0  0  0  0  0  0  0  0  0
   -1.0441   -0.9759   -0.0651 C   0  0  0  0  0  0  0  0  0  0  0  0
   -1.4838    0.3247   -0.0028 C   0  0  0  0  0  0  0  0  0  0  0  0
   -0.5551    1.3751    0.0447 C   0  0  0  0  0  0  0  0  0  0  0  0
    0.8289    1.1044    0.0317 C   0  0  0  0  0  0  0  0  0  0  0  0
    2.7486   -0.5111    0.1377 C   0  0  0  0  0  0  0  0  0  0  0  0
    3.5674    0.4071    0.1701 O   0  0  0  0  0  0  0  0  0  0  0  0
    3.2182   -1.7897    0.3206 N   0  0  0  0  0  0  0  0  0  0  0  0
    2.5354   -3.0633    0.3785 C   0  0  0  0  0  0  0  0  0  0  0  0
    2.8070   -3.8815   -0.8822 C   0  0  0  0  0  0  0  0  0  0  0  0
    4.1979   -4.5081   -0.7850 C   0  0  0  0  0  0  0  0  0  0  0  0
    4.3551   -5.3222    0.5021 C   0  0  0  0  0  0  0  0  0  0  0  0
    3.3438   -6.3727    0.5914 N   0  0  0  0  0  0  0  0  0  0  0  0
    3.4011   -7.1065    1.8425 C   0  0  0  0  0  0  0  0  0  0  0  0
    2.8455   -6.1295    3.2623 S   0  0  0  0  0  0  0  0  0  0  0  0
   -3.2091    0.6400   -0.1967 S   0  0  0  0  0  0  0  0  0  0  0  0
   -3.7036    1.1997    1.0450 O   0  0  0  0  0  0  0  0  0  0  0  0
   -3.3987    1.2641   -1.4763 O   0  0  0  0  0  0  0  0  0  0  0  0
   -3.9209   -0.8960   -0.3082 N   0  0  0  0  0  0  0  0  0  0  0  0
  1  2  2  0
  1  6  1  0
  1  7  1  0
  2  3  1  0
  3  4  2  0
  4  5  1  0
  4 17  1  0
  5  6  2  0
  7  8  2  0
  7  9  1  0
  9 10  1  0
 10 11  1  0
 11 12  1  0
 12 13  1  0
 13 14  1  0
 14 15  1  0
 15 16  1  0
 17 18  2  0
 17 19  2  0
 17 20  1  0
M  END
>  <DRUGBANK_ID>  (1) 
DB04002

>  <SECONDARY_ACCESSION_NUMBERS>  (1) 
EXPT02964

>  <COMMON_NAME>  (1) 
4-Sulfonamide-[4-(Thiomethylaminobutane)]Benzamide

$$$$
