HPH
     RDKit          3D

 12 12  0  0  0  0  0  0  0  0999 V2000
    1.0350    0.0389   -0.0264 C   0  0  0  0  0  0  0  0  0  0  0  0
    0.4873    1.2941   -0.3651 O   0  0  0  0  0  0  0  0  0  0  0  0
    0.6065   -0.8229   -1.0705 O   0  0  0  0  0  0  0  0  0  0  0  0
    0.5513   -0.5348    1.3423 C   0  0  1  0  0  0  0  0  0  0  0  0
    1.0215   -1.9321    1.5142 N   0  0  0  0  0  0  0  0  0  0  0  0
    1.0338    0.2930    2.5522 C   0  0  0  0  0  0  0  0  0  0  0  0
    0.5187    1.7116    2.5717 C   0  0  0  0  0  0  0  0  0  0  0  0
   -0.8585    1.9595    2.6053 C   0  0  0  0  0  0  0  0  0  0  0  0
    1.4086    2.7936    2.4781 C   0  0  0  0  0  0  0  0  0  0  0  0
   -1.3448    3.2647    2.5454 C   0  0  0  0  0  0  0  0  0  0  0  0
    0.9185    4.1006    2.4438 C   0  0  0  0  0  0  0  0  0  0  0  0
   -0.4531    4.3336    2.4727 C   0  0  0  0  0  0  0  0  0  0  0  0
  1  2  1  0
  1  3  1  0
  1  4  1  0
  4  5  1  1
  4  6  1  0
  6  7  1  0
  7  8  2  0
  7  9  1  0
  8 10  1  0
  9 11  2  0
 10 12  2  0
 11 12  1  0
M  END
>  <DRUGBANK_ID>  (1) 
DB07910

>  <COMMON_NAME>  (1) 
(2S)-2-amino-3-phenylpropane-1,1-diol

$$$$
