
     RDKit          3D

 23 24  0  0  1  0  0  0  0  0999 V2000
    3.2724    2.4836   -2.2010 C   0  0  0  0  0  0  0  0  0  0  0  0
    3.3011    2.9480   -0.6757 C   0  0  0  0  0  0  0  0  0  0  0  0
    4.4696    3.3000    0.0423 C   0  0  0  0  0  0  0  0  0  0  0  0
    4.4953    3.6746    1.3794 C   0  0  0  0  0  0  0  0  0  0  0  0
    3.3199    3.6770    2.0918 C   0  0  0  0  0  0  0  0  0  0  0  0
    2.1305    3.3443    1.4463 C   0  0  0  0  0  0  0  0  0  0  0  0
    2.1134    2.9898    0.0844 C   0  0  0  0  0  0  0  0  0  0  0  0
    4.6138    2.4249   -3.0898 C   0  0  0  0  0  0  0  0  0  0  0  0
    4.6523    1.6722   -4.2818 C   0  0  0  0  0  0  0  0  0  0  0  0
    5.8785    1.2373   -4.8220 C   0  0  0  0  0  0  0  0  0  0  0  0
    7.0828    1.6936   -4.3033 C   0  0  0  0  0  0  0  0  0  0  0  0
    7.0549    2.6541   -3.3107 C   0  0  0  0  0  0  0  0  0  0  0  0
    5.8332    3.0419   -2.7502 C   0  0  0  0  0  0  0  0  0  0  0  0
    2.4042    3.5260   -2.9892 C   0  0  0  0  0  0  0  0  0  0  0  0
    1.3616    3.2346   -3.5450 O   0  0  0  0  0  0  0  0  0  0  0  0
    3.0044    4.9329   -3.1328 C   0  0  0  0  0  0  0  0  0  0  0  0
    3.1747    5.6538   -1.8139 C   0  0  0  0  0  0  0  0  0  0  0  0
    2.5108    1.0540   -2.1930 C   0  0  0  0  0  0  0  0  0  0  0  0
    3.0054   -0.1639   -1.2796 C   0  0  2  0  0  0  0  0  0  0  0  0
    2.4011   -0.1147    0.1296 C   0  0  0  0  0  0  0  0  0  0  0  0
    4.4496   -0.5372   -1.1676 N   0  0  0  0  0  0  0  0  0  0  0  0
    4.9848   -0.8097   -2.4903 C   0  0  0  0  0  0  0  0  0  0  0  0
    5.2214    0.5217   -0.5439 C   0  0  0  0  0  0  0  0  0  0  0  0
  1  2  1  0
  1  8  1  0
  1 14  1  0
  1 18  1  0
  2  3  2  0
  2  7  1  0
  3  4  1  0
  4  5  2  0
  6  5  1  0
  7  6  2  0
  8  9  2  0
  8 13  1  0
  9 10  1  0
 10 11  2  0
 12 11  1  0
 13 12  2  0
 14 15  2  0
 14 16  1  0
 16 17  1  0
 19 21  1  0
 19 20  1  1
 19 18  1  0
 21 22  1  0
 21 23  1  0
M  END
>  <DRUGBANK_ID>  (1) 
DB15198

>  <COMMON_NAME>  (1) 
Dextromethadone

>  <CAS_NUMBER>  (1) 
5653-80-5

>  <UNII>  (1) 
S95RZH8AMH

>  <SYNONYMS>  (1) 
D-methadone

$$$$
