I40
     RDKit          3D

 23 26  0  0  0  0  0  0  0  0999 V2000
   -2.3645    1.4602   -0.0370 C   0  0  0  0  0  0  0  0  0  0  0  0
   -3.6763    0.7220    0.1966 C   0  0  0  0  0  0  0  0  0  0  0  0
   -3.6388   -0.6392   -0.4729 C   0  0  0  0  0  0  0  0  0  0  0  0
   -2.5045   -1.4793    0.1151 C   0  0  0  0  0  0  0  0  0  0  0  0
    0.0888   -1.4940    0.0850 C   0  0  0  0  0  0  0  0  0  0  0  0
    2.6797   -1.1959    0.0192 C   0  0  0  0  0  0  0  0  0  0  0  0
    3.8098   -0.4004   -0.0831 C   0  0  0  0  0  0  0  0  0  0  0  0
    3.6442    0.9578   -0.1154 C   0  0  0  0  0  0  0  0  0  0  0  0
    2.3507    1.4704   -0.0457 C   0  0  0  0  0  0  0  0  0  0  0  0
    0.0344    1.3165    0.0457 N   0  0  0  0  0  0  0  0  0  0  0  0
   -1.1188    0.6133    0.0655 C   0  0  0  0  0  0  0  0  0  0  0  0
   -1.1518   -0.7863    0.0712 C   0  0  0  0  0  0  0  0  0  0  0  0
    1.3262   -0.7326    0.0431 C   0  0  0  0  0  0  0  0  0  0  0  0
    1.2041    0.6781    0.0207 C   0  0  0  0  0  0  0  0  0  0  0  0
    0.0225   -2.8879    0.0826 N   0  0  0  0  0  0  0  0  0  0  0  0
    1.2302   -8.8468    2.2336 I   0  0  0  0  0  0  0  0  0  0  0  0
    1.0754   -3.8639    0.0409 C   0  0  0  0  0  0  0  0  0  0  0  0
    1.1788   -4.6286    1.3239 C   0  0  0  0  0  0  0  0  0  0  0  0
    1.1931   -6.0215    1.2446 C   0  0  0  0  0  0  0  0  0  0  0  0
    1.2761   -6.7820    2.4016 C   0  0  0  0  0  0  0  0  0  0  0  0
    1.3724   -6.1616    3.6463 C   0  0  0  0  0  0  0  0  0  0  0  0
    1.4362   -4.7686    3.7297 C   0  0  0  0  0  0  0  0  0  0  0  0
    1.3564   -4.0009    2.5685 C   0  0  0  0  0  0  0  0  0  0  0  0
  1  2  1  0
  1 11  1  0
  2  3  1  0
  3  4  1  0
  4 12  1  0
  5 12  2  0
  5 13  1  0
  5 15  1  0
  6  7  1  0
  6 13  2  0
  7  8  2  0
  8  9  1  0
  9 14  2  0
 10 11  2  0
 10 14  1  0
 11 12  1  0
 13 14  1  0
 15 17  1  0
 16 20  1  0
 17 18  1  0
 18 19  2  0
 18 23  1  0
 19 20  1  0
 20 21  2  0
 21 22  1  0
 22 23  2  0
M  END
>  <DRUGBANK_ID>  (1) 
DB07940

>  <COMMON_NAME>  (1) 
9-(3-IODOBENZYLAMINO)-1,2,3,4-TETRAHYDROACRIDINE

$$$$
