
     RDKit          3D

 23 25  0  0  0  0  0  0  0  0999 V2000
   -3.7435    5.5547   -3.0027 C   0  0  0  0  0  0  0  0  0  0  0  0
   -3.8398    4.0527   -2.9865 C   0  0  0  0  0  0  0  0  0  0  0  0
   -2.9795    3.4121   -3.9345 N   0  0  0  0  0  0  0  0  0  0  0  0
   -1.9155    2.5682   -3.7216 C   0  0  0  0  0  0  0  0  0  0  0  0
   -1.4141    2.0777   -4.7346 O   0  0  0  0  0  0  0  0  0  0  0  0
   -1.3542    2.2691   -2.3081 C   0  0  1  0  0  0  0  0  0  0  0  0
   -1.7250    2.9800   -0.9938 C   0  0  0  0  0  0  0  0  0  0  0  0
   -2.5731    1.7396   -0.5562 C   0  0  1  0  0  0  0  0  0  0  0  0
   -1.7791    0.9419   -1.6389 C   0  0  0  0  0  0  0  0  0  0  0  0
   -2.2911    1.3657    0.7192 F   0  0  0  0  0  0  0  0  0  0  0  0
   -4.1651    1.6958   -0.6380 C   0  0  0  0  0  0  0  0  0  0  0  0
   -4.9881    2.5979    0.0671 C   0  0  0  0  0  0  0  0  0  0  0  0
   -6.3821    2.5540   -0.0259 C   0  0  0  0  0  0  0  0  0  0  0  0
   -7.0224    1.5653   -0.7637 C   0  0  0  0  0  0  0  0  0  0  0  0
   -6.2296    0.5493   -1.2975 C   0  0  0  0  0  0  0  0  0  0  0  0
   -4.8436    0.6850   -1.3374 C   0  0  0  0  0  0  0  0  0  0  0  0
   -8.4973    1.6500   -1.0866 C   0  0  0  0  0  0  0  0  0  0  0  0
   -8.8542    1.9669   -2.4930 N   0  0  0  0  0  0  0  0  0  0  0  0
   -8.3598    1.0012   -3.4810 C   0  0  0  0  0  0  0  0  0  0  0  0
   -7.0533    1.5826   -4.0019 C   0  0  0  0  0  0  0  0  0  0  0  0
   -7.3457    3.0611   -4.0223 C   0  0  0  0  0  0  0  0  0  0  0  0
   -8.4042    3.2888   -2.9495 C   0  0  0  0  0  0  0  0  0  0  0  0
   -7.0995    3.5026    0.5919 F   0  0  0  0  0  0  0  0  0  0  0  0
  1  2  1  0
  2  3  1  0
  3  4  1  0
  4  5  2  0
  6  7  1  0
  6  9  1  0
  6  4  1  6
  7  8  1  0
  8  9  1  0
  8 10  1  1
  8 11  1  0
 11 12  2  0
 11 16  1  0
 12 13  1  0
 13 14  2  0
 13 23  1  0
 14 15  1  0
 14 17  1  0
 15 16  2  0
 17 18  1  0
 18 19  1  0
 18 22  1  0
 19 20  1  0
 20 21  1  0
 21 22  1  0
M  END
>  <DRUGBANK_ID>  (1) 
DB12201

>  <COMMON_NAME>  (1) 
PF-03654746

>  <CAS_NUMBER>  (1) 
935840-31-6

>  <UNII>  (1) 
G3QE979K1X

$$$$
