
     RDKit          3D

 33 35  0  0  0  0  0  0  0  0999 V2000
    4.2362    0.3484   -5.0795 O   0  0  0  0  0  0  0  0  0  0  0  0
   -1.2546    0.7112   -5.2701 O   0  0  0  0  0  0  0  0  0  0  0  0
   -0.0521   -0.2398   -6.8904 O   0  0  0  0  0  0  0  0  0  0  0  0
    3.5337   -2.0123   -1.7823 N   0  0  0  0  0  0  0  0  0  0  0  0
    2.2574    1.0090   -5.8207 N   0  0  0  0  0  0  0  0  0  0  0  0
    5.7344   -1.9225   -1.0266 N   0  0  0  0  0  0  0  0  0  0  0  0
    4.3362   -3.5593   -0.2556 N   0  0  0  0  0  0  0  0  0  0  0  0
    2.7014    0.1918   -2.3910 C   0  0  1  0  0  0  0  0  0  0  0  0
    1.2735   -0.3551   -2.2977 C   0  0  0  0  0  0  0  0  0  0  0  0
    3.6713   -0.9369   -2.7381 C   0  0  0  0  0  0  0  0  0  0  0  0
    1.1590   -1.6038   -1.4396 C   0  0  0  0  0  0  0  0  0  0  0  0
    2.2021   -2.6346   -1.8561 C   0  0  0  0  0  0  0  0  0  0  0  0
    2.8080    1.3410   -3.4059 C   0  0  0  0  0  0  0  0  0  0  0  0
    3.1539    0.8748   -4.8203 C   0  0  0  0  0  0  0  0  0  0  0  0
    4.5312   -2.5328   -1.0123 C   0  0  0  0  0  0  0  0  0  0  0  0
    0.9742    1.6970   -5.8064 C   0  0  1  0  0  0  0  0  0  0  0  0
    1.0200    2.9168   -6.7495 C   0  0  0  0  0  0  0  0  0  0  0  0
   -0.1328    0.6358   -6.0311 C   0  0  0  0  0  0  0  0  0  0  0  0
    1.1343    2.5782   -8.2094 C   0  0  0  0  0  0  0  0  0  0  0  0
    2.1992    2.9935   -9.0146 C   0  0  0  0  0  0  0  0  0  0  0  0
    0.1138    1.8191   -8.7849 C   0  0  0  0  0  0  0  0  0  0  0  0
    2.2465    2.5928  -10.3562 C   0  0  0  0  0  0  0  0  0  0  0  0
    0.2131    1.3266  -10.0696 C   0  0  0  0  0  0  0  0  0  0  0  0
    1.2637    1.7414  -10.8686 C   0  0  0  0  0  0  0  0  0  0  0  0
   -1.2043    1.2511   -3.9532 C   0  0  0  0  0  0  0  0  0  0  0  0
    1.2553    1.3293  -12.2335 C   0  0  0  0  0  0  0  0  0  0  0  0
    1.1715    0.9493  -13.3601 C   0  0  0  0  0  0  0  0  0  0  0  0
    1.1080    0.4597  -14.7000 C   0  0  0  0  0  0  0  0  0  0  0  0
    0.0724   -0.3857  -15.1012 C   0  0  0  0  0  0  0  0  0  0  0  0
    2.1220    0.8061  -15.5916 C   0  0  0  0  0  0  0  0  0  0  0  0
    0.0663   -0.9015  -16.3976 C   0  0  0  0  0  0  0  0  0  0  0  0
    2.1127    0.2920  -16.8858 C   0  0  0  0  0  0  0  0  0  0  0  0
    1.0878   -0.5647  -17.2868 C   0  0  0  0  0  0  0  0  0  0  0  0
  1 14  2  0
  2 18  1  0
  2 25  1  0
  3 18  2  0
  4 10  1  0
  4 12  1  0
  4 15  1  0
  5 14  1  0
  6 15  1  0
  7 15  2  0
  8  9  1  0
  8 10  1  0
  8 13  1  6
  9 11  1  0
 11 12  1  0
 13 14  1  0
 16  5  1  0
 16 17  1  6
 16 18  1  0
 17 19  1  0
 19 20  2  0
 19 21  1  0
 20 22  1  0
 21 23  2  0
 22 24  2  0
 23 24  1  0
 24 26  1  0
 26 27  3  0
 27 28  1  0
 28 29  2  0
 28 30  1  0
 29 31  1  0
 30 32  2  0
 31 33  2  0
 32 33  1  0
M  END
>  <DRUGBANK_ID>  (1) 
DB03453

>  <SECONDARY_ACCESSION_NUMBERS>  (1) 
EXPT01490

>  <COMMON_NAME>  (1) 
Methyl (2S)-2-[[2-[(3R)-1-carbamimidoylpiperidin-3-yl]acetyl]amino]-3-[4-(2-phenylethynyl)phenyl]propanoate

>  <CAS_NUMBER>  (1) 
193744-04-6

>  <SYNONYMS>  (1) 
Methyl N-{[(3R)-1-carbamimidoyl-3-piperidinyl]acetyl}-4-(phenylethynyl)-L-phenylalaninate

$$$$
