
     RDKit          3D

 31 35  0  0  1  0  0  0  0  0999 V2000
    0.2735    2.4719    1.4092 C   0  0  2  0  0  0  0  0  0  0  0  0
    1.8304    1.3084    1.2992 C   0  0  2  0  0  0  0  0  0  0  0  0
    0.5458    2.4700    2.9168 C   0  0  1  0  0  0  0  0  0  0  0  0
    0.1238    4.1505    1.9518 O   0  0  0  0  0  0  0  0  0  0  0  0
   -0.4667    3.3810    0.1146 C   0  0  0  0  0  0  0  0  0  0  0  0
    2.7765    2.4185    1.6726 C   0  0  2  0  0  0  0  0  0  0  0  0
    2.8004    0.4649    0.2241 C   0  0  0  0  0  0  0  0  0  0  0  0
    1.8500   -0.0155    2.2578 C   0  0  0  0  0  0  0  0  0  0  0  0
    2.0828    2.8474    2.9884 C   0  0  0  0  0  0  0  0  0  0  0  0
   -0.2775    3.2199    3.8100 O   0  0  0  0  0  0  0  0  0  0  0  0
   -0.9669    4.0691    2.9343 C   0  0  1  0  0  0  0  0  0  0  0  0
   -0.5606    2.7257   -1.2528 C   0  0  0  0  0  0  0  0  0  0  0  0
    2.6954    3.1594    0.2887 C   0  0  2  0  0  0  0  0  0  0  0  0
    3.0140    1.1235   -1.0796 C   0  0  1  0  0  0  0  0  0  0  0  0
   -1.8604    5.1466    3.7606 C   0  0  0  0  0  0  0  0  0  0  0  0
   -1.8834    2.4748   -1.6771 O   0  0  0  0  0  0  0  0  0  0  0  0
    3.6542    2.6201   -0.7702 C   0  0  1  0  0  0  0  0  0  0  0  0
    2.5384    4.6278    0.2671 C   0  0  0  0  0  0  0  0  0  0  0  0
    3.7510    0.2750   -1.9604 O   0  0  0  0  0  0  0  0  0  0  0  0
   -3.2814    4.5074    4.0902 C   0  0  0  0  0  0  0  0  0  0  0  0
    3.9145    3.7449   -1.9160 C   0  0  1  0  0  0  0  0  0  0  0  0
    2.0514    5.1064   -1.3617 C   0  0  0  0  0  0  0  0  0  0  0  0
   -3.1604    3.2191    4.8984 C   0  0  0  0  0  0  0  0  0  0  0  0
    3.0117    4.6935   -2.5785 C   0  0  0  0  0  0  0  0  0  0  0  0
    4.4966    5.4260   -1.2456 C   0  0  0  0  0  0  0  0  0  0  0  0
    3.1026    2.7759   -3.1490 C   0  0  0  0  0  0  0  0  0  0  0  0
    3.8130    5.1968   -3.6242 C   0  0  0  0  0  0  0  0  0  0  0  0
    4.6367    6.6240   -1.9196 C   0  0  0  0  0  0  0  0  0  0  0  0
    4.4165    6.5245   -3.3600 C   0  0  0  0  0  0  0  0  0  0  0  0
    4.7086    7.3488   -4.1580 O   0  0  0  0  0  0  0  0  0  0  0  0
   -1.0443    4.4889    0.1509 O   0  0  0  0  0  0  0  0  0  0  0  0
  1  2  1  0
  1  3  1  0
  1  4  1  0
  1  5  1  1
  2  6  1  0
  2  7  1  0
  2  8  1  1
  3  9  1  6
  3 10  1  0
  4 11  1  0
  5 12  1  0
  5 31  2  0
  6 13  1  0
  6  9  1  1
  7 14  1  0
 10 11  1  0
 11 15  1  1
 12 16  1  0
 13 17  1  0
 13 18  1  1
 17 14  1  6
 14 19  1  6
 15 20  1  0
 17 21  1  0
 18 22  1  0
 20 23  1  0
 21 24  1  0
 21 25  1  0
 21 26  1  6
 22 24  1  0
 24 27  2  0
 25 28  2  0
 27 29  1  0
 28 29  1  0
 29 30  2  0
M  END
>  <DRUGBANK_ID>  (1) 
DB01222

>  <SECONDARY_ACCESSION_NUMBERS>  (1) 
APRD00442

>  <COMMON_NAME>  (1) 
Budesonide

>  <CAS_NUMBER>  (1) 
51333-22-3

>  <UNII>  (1) 
Q3OKS62Q6X

>  <SYNONYMS>  (1) 
(11β,16α)-16,17-(Butylidenebis(oxy))-11,21-dihydroxypregna-1,4-diene-3,20-dione; Budesónida; Budesonide

$$$$
