MIB
     RDKit          3D

 15 16  0  0  0  0  0  0  0  0999 V2000
    1.0009   -0.0987   -0.1076 O   0  0  0  0  0  0  0  0  0  0  0  0
    2.2313   -0.0983   -0.1068 C   0  0  0  0  0  0  0  0  0  0  0  0
    3.0164    0.4992    1.0371 C   0  0  0  0  0  0  0  0  0  0  0  0
    3.0124   -0.6966   -1.2299 C   0  0  0  0  0  0  0  0  0  0  0  0
    2.4090   -1.2373   -2.3044 C   0  0  0  0  0  0  0  0  0  0  0  0
    3.0936   -1.8676   -3.3961 C   0  0  0  0  0  0  0  0  0  0  0  0
    4.1958   -2.6858   -3.2557 C   0  0  0  0  0  0  0  0  0  0  0  0
    2.7682   -1.8291   -4.7922 C   0  0  0  0  0  0  0  0  0  0  0  0
    4.5373   -3.1611   -4.4947 N   0  0  0  0  0  0  0  0  0  0  0  0
    5.5979   -4.1099   -4.7548 C   0  0  0  0  0  0  0  0  0  0  0  0
    3.6991   -2.6395   -5.4570 C   0  0  0  0  0  0  0  0  0  0  0  0
    1.7802   -1.1825   -5.5690 C   0  0  0  0  0  0  0  0  0  0  0  0
    3.6790   -2.8275   -6.8503 C   0  0  0  0  0  0  0  0  0  0  0  0
    1.7498   -1.3683   -6.9593 C   0  0  0  0  0  0  0  0  0  0  0  0
    2.6872   -2.1803   -7.5889 C   0  0  0  0  0  0  0  0  0  0  0  0
  1  2  2  0
  2  3  1  0
  2  4  1  0
  4  5  2  0
  5  6  1  0
  6  7  2  0
  6  8  1  0
  7  9  1  0
  8 11  2  0
  8 12  1  0
  9 10  1  0
  9 11  1  0
 11 13  1  0
 12 14  2  0
 13 15  2  0
 14 15  1  0
M  END
>  <DRUGBANK_ID>  (1) 
DB08186

>  <COMMON_NAME>  (1) 
(3E)-4-(1-METHYL-1H-INDOL-3-YL)BUT-3-EN-2-ONE

$$$$
