
     RDKit          3D

 12 13  0  0  0  0  0  0  0  0999 V2000
    1.7252    1.2064   -0.0133 C   0  0  0  0  0  0  0  0  0  0  0  0
    1.7387   -1.2103   -0.0327 C   0  0  0  0  0  0  0  0  0  0  0  0
    0.3279    1.2026   -0.0234 C   0  0  0  0  0  0  0  0  0  0  0  0
    0.3397   -1.2150   -0.0366 C   0  0  0  0  0  0  0  0  0  0  0  0
    4.7291    0.5739    1.0218 C   0  0  0  0  0  0  0  0  0  0  0  0
    6.0258   -0.3113   -0.4167 C   0  0  0  0  0  0  0  0  0  0  0  0
    2.4403    0.0013   -0.0143 C   0  0  0  0  0  0  0  0  0  0  0  0
   -0.3590   -0.0088   -0.0284 C   0  0  0  0  0  0  0  0  0  0  0  0
    3.8904    0.0216    0.0737 C   0  0  0  0  0  0  0  0  0  0  0  0
   -2.0792   -0.0154   -0.0116 Cl  0  0  0  0  0  0  0  0  0  0  0  0
    6.0461    0.3586    0.7109 N   0  0  0  0  0  0  0  0  0  0  0  0
    4.7473   -0.5393   -0.8443 N   0  0  0  0  0  0  0  0  0  0  0  0
  3  1  2  0
  4  2  1  0
  7  1  1  0
  7  2  2  0
  8  3  1  0
  8  4  2  0
  9  5  2  0
  9  7  1  0
 10  8  1  0
 11  5  1  0
 11  6  2  0
 12  6  1  0
 12  9  1  0
M  END
>  <DRUGBANK_ID>  (1) 
DB02974

>  <SECONDARY_ACCESSION_NUMBERS>  (1) 
EXPT01008

>  <COMMON_NAME>  (1) 
4-(4-Chlorophenyl)Imidazole

$$$$
