
     RDKit          3D

 27 28  0  0  0  0  0  0  0  0999 V2000
    0.8716   -0.0157   -0.0502 C   0  0  0  0  0  0  0  0  0  0  0  0
    0.1606   -1.1958   -0.6398 C   0  0  0  0  0  0  0  0  0  0  0  0
   -0.1262    1.0700    0.4161 C   0  0  0  0  0  0  0  0  0  0  0  0
    2.2724   -0.0189    0.0436 C   0  0  0  0  0  0  0  0  0  0  0  0
    0.4752   -2.4971   -0.2330 C   0  0  0  0  0  0  0  0  0  0  0  0
   -0.9213   -0.9975   -1.5118 C   0  0  0  0  0  0  0  0  0  0  0  0
   -0.1255    2.4067   -0.0508 C   0  0  0  0  0  0  0  0  0  0  0  0
   -1.1420    0.7572    1.3270 C   0  0  0  0  0  0  0  0  0  0  0  0
    3.0941   -1.0260   -0.7150 C   0  0  0  0  0  0  0  0  0  0  0  0
    3.0324    1.1070    0.7255 C   0  0  0  0  0  0  0  0  0  0  0  0
   -0.1329   -3.5849   -0.8386 C   0  0  0  0  0  0  0  0  0  0  0  0
   -1.6449   -2.0888   -1.9790 C   0  0  0  0  0  0  0  0  0  0  0  0
   -0.7249    3.4366    0.7098 C   0  0  0  0  0  0  0  0  0  0  0  0
   -1.9992    1.7629    1.8098 C   0  0  0  0  0  0  0  0  0  0  0  0
    4.4154   -0.9755   -0.6500 O   0  0  0  0  0  0  0  0  0  0  0  0
    2.6396   -1.9202   -1.4721 O   0  0  0  0  0  0  0  0  0  0  0  0
    3.6629    2.0411    1.2912 N   0  0  0  0  0  0  0  0  0  0  0  0
   -1.2009   -3.3800   -1.7035 C   0  0  0  0  0  0  0  0  0  0  0  0
   -1.7046    3.1091    1.6134 C   0  0  0  0  0  0  0  0  0  0  0  0
    5.0905    0.1388   -0.0958 C   0  0  0  0  0  0  0  0  0  0  0  0
    4.6777    1.6964   -0.7935 C   0  0  0  0  0  0  0  0  0  0  0  0
    2.9525    2.6484   -0.5982 C   0  0  0  0  0  0  0  0  0  0  0  0
    5.7598    2.5710   -0.1397 C   0  0  0  0  0  0  0  0  0  0  0  0
    2.0967    3.1112    1.1115 C   0  0  0  0  0  0  0  0  0  0  0  0
    7.2123    2.1727   -0.2598 C   0  0  0  0  0  0  0  0  0  0  0  0
    3.1674    3.8774    2.2527 C   0  0  0  0  0  0  0  0  0  0  0  0
    3.2844    4.8920    1.2079 C   0  0  0  0  0  0  0  0  0  0  0  0
  1  2  1  0
  1  3  1  0
  1  4  2  3
  2  5  2  0
  2  6  1  0
  3  7  2  0
  3  8  1  0
  4  9  1  0
  4 10  1  0
  5 11  1  0
  6 12  2  0
  7 13  1  0
  8 14  2  0
  9 15  1  0
  9 16  2  0
 10 17  3  0
 11 18  2  0
 12 18  1  0
 13 19  2  0
 14 19  1  0
 15 20  1  0
 20 21  1  0
 21 22  1  0
 21 23  1  0
 22 24  1  0
 23 25  1  0
 24 26  1  0
 26 27  1  0
M  END
>  <DRUGBANK_ID>  (1) 
DB09535

>  <COMMON_NAME>  (1) 
Octocrylene

>  <CAS_NUMBER>  (1) 
6197-30-4

>  <UNII>  (1) 
5A68WGF6WM

>  <SYNONYMS>  (1) 
Octocrileno; Octocrilenum; Octocrylene

$$$$
