
     RDKit          3D

 16 16  0  0  1  0  0  0  0  0999 V2000
   -2.3983   -1.0975   -0.1130 O   0  0  0  0  0  0  0  0  0  0  0  0
    2.4265   -1.0939   -0.0592 O   0  0  0  0  0  0  0  0  0  0  0  0
    0.0047    2.6627   -0.0096 O   0  0  0  0  0  0  0  0  0  0  0  0
   -1.1417    0.7236    0.0312 N   0  0  0  0  0  0  0  0  0  0  0  0
    1.1611    0.7275    0.0138 N   0  0  0  0  0  0  0  0  0  0  0  0
    0.0146   -1.4687   -0.1155 C   0  0  0  0  0  0  0  0  0  0  0  0
   -0.0067   -2.5369    1.0505 C   0  0  0  0  0  0  0  0  0  0  0  0
    0.0505   -2.0916   -1.5281 C   0  0  0  0  0  0  0  0  0  0  0  0
   -1.2526   -3.4716    1.0933 C   0  0  0  0  0  0  0  0  0  0  0  0
   -1.2630   -0.6293   -0.0373 C   0  0  0  0  0  0  0  0  0  0  0  0
    1.2889   -0.6265   -0.0194 C   0  0  0  0  0  0  0  0  0  0  0  0
    1.2496   -3.4299    1.1134 C   0  0  0  0  0  0  0  0  0  0  0  0
    0.0086    1.4317    0.0089 C   0  0  0  0  0  0  0  0  0  0  0  0
   -1.4143   -4.4184   -0.0895 C   0  0  0  0  0  0  0  0  0  0  0  0
    0.1669   -1.1293   -2.6670 C   0  0  0  0  0  0  0  0  0  0  0  0
    1.1635   -1.2005   -3.5504 C   0  0  0  0  0  0  0  0  0  0  0  0
  1 10  2  0
  2 11  2  0
  3 13  2  0
  4 10  1  0
  4 13  1  0
  5 11  1  0
  5 13  1  0
  6  7  1  0
  6  8  1  0
  6 10  1  0
  6 11  1  0
  7  9  1  0
  7 12  1  0
  8 15  1  0
  9 14  1  0
 15 16  2  0
M  END
>  <DRUGBANK_ID>  (1) 
DB00306

>  <SECONDARY_ACCESSION_NUMBERS>  (1) 
APRD01333

>  <COMMON_NAME>  (1) 
Talbutal

>  <CAS_NUMBER>  (1) 
115-44-6

>  <UNII>  (1) 
4YIR8202AX

>  <SYNONYMS>  (1) 
(RS)-5-allyl-5-sec-butylpyrimidine-2,4,6(1H,3H,5H)-trione; 5-allyl-5-sec-butylbarbituric acid; sec-Butyl allyl barbituric acid; Talbutal; Talbutale; Talbutalum

$$$$
