4858
     RDKit          3D

 22 24  0  0  0  0  0  0  0  0999 V2000
    1.5357   -2.8519    0.0154 O   0  0  0  0  0  0  0  0  0  0  0  0
   -4.5448    4.7229   -0.0892 O   0  0  0  0  0  0  0  0  0  0  0  0
   -0.5640   -1.9704   -0.0445 N   0  0  0  0  0  0  0  0  0  0  0  0
   -3.9697    2.5405   -0.0498 N   0  0  0  0  0  0  0  0  0  0  0  0
   -1.5143    3.8983    1.2753 N   0  0  0  0  0  0  0  0  0  0  0  0
   -0.8836    0.3777   -0.1088 C   0  0  0  0  0  0  0  0  0  0  0  0
    0.5756    0.5790   -0.1231 C   0  0  0  0  0  0  0  0  0  0  0  0
   -1.4396   -0.8799   -0.0370 C   0  0  0  0  0  0  0  0  0  0  0  0
    1.4249   -0.5035    0.0297 C   0  0  0  0  0  0  0  0  0  0  0  0
   -1.7779    1.4361   -0.1564 C   0  0  0  0  0  0  0  0  0  0  0  0
   -3.1597    1.3745   -0.0531 C   0  0  0  0  0  0  0  0  0  0  0  0
   -2.8389   -1.0315    0.0123 C   0  0  0  0  0  0  0  0  0  0  0  0
    0.8239   -1.8659    0.0091 C   0  0  0  0  0  0  0  0  0  0  0  0
   -3.7002    0.0955    0.0231 C   0  0  0  0  0  0  0  0  0  0  0  0
    1.1926    1.8227   -0.3201 C   0  0  0  0  0  0  0  0  0  0  0  0
    2.8216   -0.3165    0.0835 C   0  0  0  0  0  0  0  0  0  0  0  0
   -2.1708    4.3811    0.0373 C   0  0  0  0  0  0  0  0  0  0  0  0
    2.5528    2.0551   -0.1205 C   0  0  0  0  0  0  0  0  0  0  0  0
   -3.6332    3.8865   -0.0419 C   0  0  0  0  0  0  0  0  0  0  0  0
    3.3809    0.9670    0.0621 C   0  0  0  0  0  0  0  0  0  0  0  0
   -0.0976    4.2125    1.3542 C   0  0  0  0  0  0  0  0  0  0  0  0
   -2.1762    4.3521    2.4837 C   0  0  0  0  0  0  0  0  0  0  0  0
  1 13  2  0
  2 19  2  0
  3  8  1  0
  3 13  1  0
  4 11  1  0
  4 19  1  0
  5 17  1  0
  5 21  1  0
  5 22  1  0
  6  7  1  0
  6  8  2  0
  6 10  1  0
  7  9  2  0
  7 15  1  0
  8 12  1  0
  9 13  1  0
  9 16  1  0
 10 11  2  0
 11 14  1  0
 12 14  2  0
 15 18  2  0
 16 20  2  0
 17 19  1  0
 18 20  1  0
M  END
>  <DRUGBANK_ID>  (1) 
DB08348

>  <COMMON_NAME>  (1) 
N~2~,N~2~-DIMETHYL-N~1~-(6-OXO-5,6-DIHYDROPHENANTHRIDIN-2-YL)GLYCINAMIDE

>  <UNII>  (1) 
NA92ZAR7N2

$$$$
