
     RDKit          3D

 35 39  0  0  0  0  0  0  0  0999 V2000
    0.8462   -1.1497    4.4690 C   0  0  0  0  0  0  0  0  0  0  0  0
    0.9104   -1.5691    2.9258 C   0  0  0  0  0  0  0  0  0  0  0  0
   -0.3241   -1.5919    2.0036 N   0  0  0  0  0  0  0  0  0  0  0  0
   -1.3005   -0.4784    2.0496 C   0  0  0  0  0  0  0  0  0  0  0  0
   -1.9800   -0.3053    3.4086 C   0  0  0  0  0  0  0  0  0  0  0  0
   -2.6219   -1.5330    3.7480 N   0  0  0  0  0  0  0  0  0  0  0  0
   -1.9259   -2.7911    3.5564 C   0  0  0  0  0  0  0  0  0  0  0  0
   -1.2065   -2.7770    2.1796 C   0  0  0  0  0  0  0  0  0  0  0  0
   -3.9277   -1.4384    4.0894 C   0  0  0  0  0  0  0  0  0  0  0  0
   -4.2999   -1.9641    5.2628 N   0  0  0  0  0  0  0  0  0  0  0  0
   -5.5742   -1.7662    5.6334 C   0  0  0  0  0  0  0  0  0  0  0  0
   -6.5067   -1.0909    4.8581 C   0  0  0  0  0  0  0  0  0  0  0  0
   -6.0984   -0.5466    3.6463 C   0  0  0  0  0  0  0  0  0  0  0  0
   -4.7890   -0.7122    3.2674 C   0  0  0  0  0  0  0  0  0  0  0  0
   -7.9144   -0.9930    5.3209 C   0  0  0  0  0  0  0  0  0  0  0  0
   -8.4780   -2.2163    5.5028 F   0  0  0  0  0  0  0  0  0  0  0  0
   -8.0269   -0.3367    6.5048 F   0  0  0  0  0  0  0  0  0  0  0  0
   -8.7188   -0.3335    4.4428 F   0  0  0  0  0  0  0  0  0  0  0  0
    2.1438   -0.8538    2.0916 C   0  0  0  0  0  0  0  0  0  0  0  0
    3.2035   -1.4741    1.9090 O   0  0  0  0  0  0  0  0  0  0  0  0
    2.1522    0.4531    1.6083 N   0  0  0  0  0  0  0  0  0  0  0  0
    1.1320    1.5060    1.7134 C   0  0  1  0  0  0  0  0  0  0  0  0
    0.6425    1.4968    3.1500 C   0  0  1  0  0  0  0  0  0  0  0  0
    1.8036    1.7606    4.1041 C   0  0  0  0  0  0  0  0  0  0  0  0
    2.1753    3.2188    3.9083 C   0  0  1  0  0  0  0  0  0  0  0  0
    2.5942    3.3693    2.4007 C   0  0  0  0  0  0  0  0  0  0  0  0
    1.4553    2.9895    1.4464 C   0  0  2  0  0  0  0  0  0  0  0  0
    0.1513    3.8087    1.7300 C   0  0  0  0  0  0  0  0  0  0  0  0
   -0.2328    3.7656    3.2201 C   0  0  1  0  0  0  0  0  0  0  0  0
   -0.5852    2.3323    3.4705 C   0  0  0  0  0  0  0  0  0  0  0  0
    0.9125    4.0942    4.1988 C   0  0  0  0  0  0  0  0  0  0  0  0
    3.3418    3.6039    4.8072 C   0  0  0  0  0  0  0  0  0  0  0  0
    4.1243    4.5207    4.5032 O   0  0  0  0  0  0  0  0  0  0  0  0
    3.4867    2.9965    6.0138 N   0  0  0  0  0  0  0  0  0  0  0  0
    1.3848   -3.0440    3.1589 C   0  0  0  0  0  0  0  0  0  0  0  0
  1  2  1  0
  2  3  1  0
  2 19  1  0
  2 35  1  0
  3  4  1  0
  3  8  1  0
  4  5  1  0
  5  6  1  0
  6  7  1  0
  6  9  1  0
  7  8  1  0
  9 10  2  0
  9 14  1  0
 10 11  1  0
 11 12  2  0
 12 13  1  0
 12 15  1  0
 13 14  2  0
 15 16  1  0
 15 17  1  0
 15 18  1  0
 19 20  2  0
 19 21  1  0
 22 23  1  0
 22 27  1  0
 22 21  1  1
 23 30  1  6
 23 24  1  0
 24 25  1  0
 25 31  1  0
 25 26  1  0
 25 32  1  1
 27 26  1  1
 27 28  1  0
 29 28  1  6
 29 30  1  0
 29 31  1  0
 32 33  2  0
 32 34  1  0
M  END
>  <DRUGBANK_ID>  (1) 
DB12501

>  <COMMON_NAME>  (1) 
ABT-384

>  <CAS_NUMBER>  (1) 
868623-40-9

>  <UNII>  (1) 
R5TH77F919

$$$$
