1557
     RDKit          3D

 26 28  0  0  1  0  0  0  0  0999 V2000
    0.9893    0.0569   -0.1453 O   0  0  0  0  0  0  0  0  0  0  0  0
    5.7240   -2.2082   -1.4572 N   0  0  0  0  0  0  0  0  0  0  0  0
    3.1006    0.7459   -0.9183 N   0  0  0  0  0  0  0  0  0  0  0  0
    4.6639    0.6946   -0.9827 C   0  0  0  0  0  0  0  0  0  0  0  0
    5.4559    0.2449   -2.2508 C   0  0  0  0  0  0  0  0  0  0  0  0
    5.3637   -0.1688    0.0816 C   0  0  0  0  0  0  0  0  0  0  0  0
    5.3467   -1.2403   -2.4720 C   0  0  0  0  0  0  0  0  0  0  0  0
    5.1650   -1.7105   -0.1894 C   0  0  0  0  0  0  0  0  0  0  0  0
    5.0395   -3.5296   -1.8403 C   0  0  0  0  0  0  0  0  0  0  0  0
    3.4179   -3.6547   -1.9708 C   0  0  0  0  0  0  0  0  0  0  0  0
    5.6600   -4.0286   -3.1546 C   0  0  0  0  0  0  0  0  0  0  0  0
    2.4294    1.6901   -1.8874 C   0  0  0  0  0  0  0  0  0  0  0  0
    2.2251    0.0471   -0.0128 C   0  0  0  0  0  0  0  0  0  0  0  0
    2.6450   -2.9379   -3.0985 C   0  0  0  0  0  0  0  0  0  0  0  0
    2.6910   -0.8454    1.1519 C   0  0  0  0  0  0  0  0  0  0  0  0
    1.2251    2.3550   -1.6129 C   0  0  0  0  0  0  0  0  0  0  0  0
    2.8858    1.8890   -3.1980 C   0  0  0  0  0  0  0  0  0  0  0  0
    1.9104   -3.6108   -4.0734 C   0  0  0  0  0  0  0  0  0  0  0  0
    2.5096   -1.5657   -3.2161 C   0  0  0  0  0  0  0  0  0  0  0  0
    2.4447   -0.3249    2.5374 C   0  0  0  0  0  0  0  0  0  0  0  0
    0.5151    3.0784   -2.6063 C   0  0  0  0  0  0  0  0  0  0  0  0
    2.1583    2.5384   -4.2176 C   0  0  0  0  0  0  0  0  0  0  0  0
    1.3296   -2.9171   -5.1674 C   0  0  0  0  0  0  0  0  0  0  0  0
    2.1182   -0.8975   -4.3590 C   0  0  0  0  0  0  0  0  0  0  0  0
    0.9474    3.1146   -3.9263 C   0  0  0  0  0  0  0  0  0  0  0  0
    1.5338   -1.5773   -5.3876 C   0  0  0  0  0  0  0  0  0  0  0  0
  1 13  2  0
  2  7  1  0
  2  8  1  0
  2  9  1  0
  3  4  1  0
  3 12  1  0
  3 13  1  0
  4  5  1  0
  4  6  1  0
  5  7  1  0
  6  8  1  0
  9 10  1  0
  9 11  1  0
 10 14  1  0
 12 16  2  0
 12 17  1  0
 13 15  1  0
 14 18  2  0
 14 19  1  0
 15 20  1  0
 16 21  1  0
 17 22  2  0
 18 23  1  0
 19 24  2  0
 21 25  2  0
 22 25  1  0
 23 26  2  0
 24 26  1  0
M  END
>  <DRUGBANK_ID>  (1) 
DB01557

>  <COMMON_NAME>  (1) 
Î±-Methylfentanyl

>  <CAS_NUMBER>  (1) 
79704-88-4

>  <UNII>  (1) 
8FU589W85C

>  <SYNONYMS>  (1) 
alpha-methylfentanyl

$$$$
