
     RDKit          3D

 27 24  0  0  1  0  0  0  0  0999 V2000
    0.7316    4.8222    2.1267 C   0  0  0  0  0  0  0  0  0  0  0  0
    2.1015    4.7478    1.0942 C   0  0  2  0  0  0  0  0  0  0  0  0
    3.5359    3.5053    1.1139 C   0  0  2  0  0  0  0  0  0  0  0  0
    3.7398    1.7365    1.4597 C   0  0  1  0  0  0  0  0  0  0  0  0
    4.0137    0.7354    0.2346 C   0  0  2  0  0  0  0  0  0  0  0  0
    3.1007   -0.5494    0.0174 C   0  0  0  0  0  0  0  0  0  0  0  0
   -0.0636    3.7184    2.5808 O   0  0  0  0  0  0  0  0  0  0  0  0
    2.4446    6.1429    0.8938 O   0  0  0  0  0  0  0  0  0  0  0  0
    4.5838    4.3099    1.6279 O   0  0  0  0  0  0  0  0  0  0  0  0
    4.6729    1.4916    2.5071 O   0  0  0  0  0  0  0  0  0  0  0  0
    5.3869    0.3802    0.3947 O   0  0  0  0  0  0  0  0  0  0  0  0
    2.0498   -0.3942   -0.7192 O   0  0  0  0  0  0  0  0  0  0  0  0
    3.3650   -1.6764    0.5207 O   0  0  0  0  0  0  0  0  0  0  0  0
    4.6680    3.7609   -2.3198 C   0  0  0  0  0  0  0  0  0  0  0  0
    3.5693    4.4876   -1.5387 C   0  0  2  0  0  0  0  0  0  0  0  0
    2.0250    3.7265   -1.7114 C   0  0  2  0  0  0  0  0  0  0  0  0
    0.8559    2.9672   -0.6166 C   0  0  1  0  0  0  0  0  0  0  0  0
    1.2159    2.1090    0.6876 C   0  0  2  0  0  0  0  0  0  0  0  0
    0.4955    0.8470    1.2228 C   0  0  0  0  0  0  0  0  0  0  0  0
    4.4764    4.1175   -3.6788 O   0  0  0  0  0  0  0  0  0  0  0  0
    3.6708    5.8900   -1.8880 O   0  0  0  0  0  0  0  0  0  0  0  0
    2.1274    2.7194   -2.7379 O   0  0  0  0  0  0  0  0  0  0  0  0
   -0.3181    3.7705   -0.4351 O   0  0  0  0  0  0  0  0  0  0  0  0
    1.7268    2.7726    1.8943 O   0  0  0  0  0  0  0  0  0  0  0  0
    0.9996    0.2053    2.1432 O   0  0  0  0  0  0  0  0  0  0  0  0
   -0.4008    0.3427    0.4087 O   0  0  0  0  0  0  0  0  0  0  0  0
    0.3214   -0.9863   -0.6264 Zn  0  0  0  0  0 15  0  0  0  0  0  0
  2  8  1  1
  2  3  1  0
  2  1  1  0
  3  9  1  1
  3  4  1  0
  4 10  1  1
  5 11  1  1
  5  6  1  0
  5  4  1  0
  7  1  1  0
 12  6  2  0
 13  6  1  0
 15 21  1  6
 15 16  1  0
 15 14  1  0
 16 22  1  6
 16 17  1  0
 17 23  1  1
 18 24  1  1
 18 19  1  0
 18 17  1  0
 20 14  1  0
 25 19  2  0
 26 19  1  0
M  CHG  3  13  -1  26  -1  27   2
M  END
>  <DRUGBANK_ID>  (1) 
DB11248

>  <COMMON_NAME>  (1) 
Zinc gluconate

>  <CAS_NUMBER>  (1) 
4468-02-4

>  <UNII>  (1) 
U6WSN5SQ1Z

>  <SYNONYMS>  (1) 
Zinc gluconate

$$$$
