BL4
     RDKit          3D

 22 25  0  0  0  0  0  0  0  0999 V2000
    1.7599   -0.2946    1.7100 O   0  0  0  0  0  0  0  0  0  0  0  0
    2.7789   -0.1810    0.9875 C   0  0  0  0  0  0  0  0  0  0  0  0
    3.6132    1.0763    1.0110 C   0  0  2  0  0  0  0  0  0  0  0  0
    3.7302    0.7968    2.4168 O   0  0  0  0  0  0  0  0  0  0  0  0
    3.3207    2.5767    1.2362 C   0  0  0  0  0  0  0  0  0  0  0  0
    4.1880    3.4222    0.3044 C   0  0  0  0  0  0  0  0  0  0  0  0
    4.9818    2.4393   -0.4362 N   0  0  0  0  0  0  0  0  0  0  0  0
    5.8907    2.9382   -1.3844 C   0  0  0  0  0  0  0  0  0  0  0  0
    7.0499    3.5838   -0.9222 C   0  0  0  0  0  0  0  0  0  0  0  0
    8.0426    4.0318   -1.8001 C   0  0  0  0  0  0  0  0  0  0  0  0
    7.8113    4.0185   -3.1693 C   0  0  0  0  0  0  0  0  0  0  0  0
    6.6236    3.4752   -3.6520 C   0  0  0  0  0  0  0  0  0  0  0  0
    5.7302    2.8340   -2.7731 C   0  0  0  0  0  0  0  0  0  0  0  0
    4.4748    1.1457   -0.3133 C   0  0  0  0  0  0  0  0  0  0  0  0
    4.5714    0.1580   -1.1635 N   0  0  0  0  0  0  0  0  0  0  0  0
    3.9229   -1.0835   -0.9052 C   0  0  0  0  0  0  0  0  0  0  0  0
    3.2713   -1.3746    0.2992 C   0  0  0  0  0  0  0  0  0  0  0  0
    3.7784   -2.0481   -1.9092 C   0  0  0  0  0  0  0  0  0  0  0  0
    3.0582   -3.2424   -1.6748 C   0  0  0  0  0  0  0  0  0  0  0  0
    2.5342   -3.5400   -0.4121 C   0  0  0  0  0  0  0  0  0  0  0  0
    2.6919   -2.6323    0.6277 C   0  0  0  0  0  0  0  0  0  0  0  0
    2.0563   -2.9369    1.9704 C   0  0  0  0  0  0  0  0  0  0  0  0
  2  1  2  0
  3  2  1  0
  3  5  1  0
  3  4  1  1
  6  5  1  0
  7  6  1  0
  7 14  1  0
  8  7  1  0
  9  8  2  0
 10  9  1  0
 11 10  2  0
 11 12  1  0
 12 13  2  0
 13  8  1  0
 14  3  1  0
 15 14  2  0
 15 16  1  0
 16 17  2  0
 17  2  1  0
 17 21  1  0
 18 16  1  0
 18 19  2  0
 19 20  1  0
 20 21  2  0
 21 22  1  0
M  END
>  <DRUGBANK_ID>  (1) 
DB07468

>  <COMMON_NAME>  (1) 
(3aS)-3a-hydroxy-5-methyl-1-phenyl-1,2,3,3a-tetrahydro-4H-pyrrolo[2,3-b]quinolin-4-one

$$$$
