
     RDKit          3D

 33 33  0  0  1  0  0  0  0  0999 V2000
    0.9780    0.0740   -0.0635 Cl  0  0  0  0  0  0  0  0  0  0  0  0
    0.9059   -0.0158   -0.0299 O   0  0  0  0  0  0  0  0  0  0  0  0
    7.0978    6.1285   -0.0647 O   0  0  0  0  0  0  0  0  0  0  0  0
    0.9934    0.0065    0.0996 O   0  0  0  0  0  0  0  0  0  0  0  0
    3.4079   -5.2025    1.4212 N   0  0  0  0  0  0  0  0  0  0  0  0
    2.9118   -1.2887   -0.0120 N   0  0  0  0  0  0  0  0  0  0  0  0
    5.0154    4.9849   -0.0533 N   0  0  0  0  0  0  0  0  0  0  0  0
    3.8154   -3.9282    0.8121 C   0  0  0  0  0  0  0  0  0  0  0  0
    2.9961   -3.6973   -0.4557 C   0  0  0  0  0  0  0  0  0  0  0  0
    3.5720   -2.7980    1.8106 C   0  0  0  0  0  0  0  0  0  0  0  0
    3.2424   -2.3118   -1.0124 C   0  0  0  0  0  0  0  0  0  0  0  0
    3.7851   -1.4463    1.1496 C   0  0  0  0  0  0  0  0  0  0  0  0
    4.1945   -5.4363    2.6408 C   0  0  0  0  0  0  0  0  0  0  0  0
    1.9791   -5.1476    1.7626 C   0  0  0  0  0  0  0  0  0  0  0  0
    2.1768   -0.0158   -0.0299 C   0  0  0  0  0  0  0  0  0  0  0  0
    3.9519   -4.3038    3.6251 C   0  0  0  0  0  0  0  0  0  0  0  0
    2.9294    1.2876   -0.0483 C   0  0  0  0  0  0  0  0  0  0  0  0
    2.4745   -4.2470    3.9781 C   0  0  0  0  0  0  0  0  0  0  0  0
    2.2487    2.4954   -0.0350 C   0  0  0  0  0  0  0  0  0  0  0  0
    4.3357    1.3055   -0.0489 C   0  0  0  0  0  0  0  0  0  0  0  0
    2.9290    3.6917   -0.0403 C   0  0  0  0  0  0  0  0  0  0  0  0
    5.0446    2.5222   -0.0272 C   0  0  0  0  0  0  0  0  0  0  0  0
    4.3067    3.6971   -0.0399 C   0  0  0  0  0  0  0  0  0  0  0  0
    1.8069   -5.3786    4.1706 C   0  0  0  0  0  0  0  0  0  0  0  0
    1.8502   -3.0160    4.0931 C   0  0  0  0  0  0  0  0  0  0  0  0
    2.1621    5.0041   -0.0465 C   0  0  0  0  0  0  0  0  0  0  0  0
    6.5429    2.6123   -0.0409 C   0  0  0  0  0  0  0  0  0  0  0  0
    0.5157   -5.3577    4.6400 C   0  0  0  0  0  0  0  0  0  0  0  0
    0.5749   -3.0747    4.7031 C   0  0  0  0  0  0  0  0  0  0  0  0
   -0.1433   -4.1753    4.8330 C   0  0  0  0  0  0  0  0  0  0  0  0
    6.4851    5.0151   -0.0531 C   0  0  0  0  0  0  0  0  0  0  0  0
    7.2719    3.7147   -0.0391 C   0  0  0  0  0  0  0  0  0  0  0  0
    6.9208    2.9235    1.2103 C   0  0  0  0  0  0  0  0  0  0  0  0
  2 15  2  0
  3 31  2  0
  5  8  1  0
  5 13  1  0
  5 14  1  0
  6 11  1  0
  6 12  1  0
  6 15  1  0
  7 23  1  0
  7 31  1  0
  8  9  1  0
  8 10  1  0
  9 11  1  0
 10 12  1  0
 13 16  1  0
 15 17  1  0
 16 18  1  0
 17 19  2  0
 17 20  1  0
 18 24  2  0
 18 25  1  0
 19 21  1  0
 20 22  2  0
 21 23  2  0
 21 26  1  0
 22 23  1  0
 22 27  1  0
 24 28  1  0
 25 29  2  0
 28 30  2  0
 29 30  1  0
 31 32  1  0
 32 33  1  0
M  END
>  <DRUGBANK_ID>  (1) 
DB05461

>  <COMMON_NAME>  (1) 
OPC-28326

>  <UNII>  (1) 
FR0M0E7AZM

$$$$
