M2F
     RDKit          3D

 24 25  0  0  0  0  0  0  0  0999 V2000
    1.1549   -0.9137    1.1386 O   0  0  0  0  0  0  0  0  0  0  0  0
    2.3456   -0.5241    0.9207 N   0  0  0  0  0  0  0  0  0  0  0  0
    2.6987    0.3659    0.3411 O   0  0  0  0  0  0  0  0  0  0  0  0
    3.4327   -0.7405    1.6738 C   0  0  0  0  0  0  0  0  0  0  0  0
    3.0820   -1.8127    2.3647 C   0  0  0  0  0  0  0  0  0  0  0  0
    3.7227   -1.7887    3.5059 C   0  0  0  0  0  0  0  0  0  0  0  0
    3.1749   -2.7726    4.3928 N   0  0  0  0  0  0  0  0  0  0  0  0
    3.8470   -3.0255    5.3803 O   0  0  0  0  0  0  0  0  0  0  0  0
    2.1033   -3.3301    4.0740 O   0  0  0  0  0  0  0  0  0  0  0  0
    4.8208   -0.8815    3.7257 C   0  0  0  0  0  0  0  0  0  0  0  0
    5.2548    0.1505    2.8131 C   0  0  0  0  0  0  0  0  0  0  0  0
    4.4514    0.3644    1.7411 C   0  0  0  0  0  0  0  0  0  0  0  0
    4.5348    1.6099    0.9965 O   0  0  0  0  0  0  0  0  0  0  0  0
    3.6066    2.2448   -0.2231 C   0  0  2  0  0  0  0  0  0  0  0  0
    2.1746    2.7248    0.0832 O   0  0  0  0  0  0  0  0  0  0  0  0
    3.7231    1.3923   -1.6584 C   0  0  1  0  0  0  0  0  0  0  0  0
    5.0600    1.1991   -1.9112 F   0  0  0  0  0  0  0  0  0  0  0  0
    3.0143   -0.0037   -1.6642 C   0  0  1  0  0  0  0  0  0  0  0  0
    4.0321   -0.8265   -0.8770 O   0  0  0  0  0  0  0  0  0  0  0  0
    1.2725    0.3959   -1.0547 C   0  0  2  0  0  0  0  0  0  0  0  0
    0.5136    0.8043   -2.1715 O   0  0  0  0  0  0  0  0  0  0  0  0
    1.1420    1.6810    0.4087 C   0  0  1  0  0  0  0  0  0  0  0  0
    1.5440    1.4713    2.1940 C   0  0  0  0  0  0  0  0  0  0  0  0
    1.7314    2.5352    3.1306 O   0  0  0  0  0  0  0  0  0  0  0  0
  1  2  1  0
  2  3  2  0
  2  4  1  0
  4  5  2  0
  4 12  1  0
  5  6  1  0
  6  7  1  0
  6 10  2  0
  7  8  1  0
  7  9  2  0
 10 11  1  0
 11 12  2  0
 12 13  1  0
 14 13  1  1
 14 15  1  0
 14 16  1  0
 15 22  1  0
 16 18  1  0
 16 17  1  1
 18 19  1  1
 18 20  1  0
 20 22  1  0
 20 21  1  6
 22 23  1  1
 23 24  1  0
M  CHG  4   1  -1   2   1   7   1   8  -1
M  END
>  <DRUGBANK_ID>  (1) 
DB08158

>  <COMMON_NAME>  (1) 
2,4-DINITROPHENYL 2-DEOXY-2-FLUORO-BETA-D-MANNOPYRANOSIDE

$$$$
