
     RDKit          3D

 19 20  0  0  0  0  0  0  0  0999 V2000
    0.8959    0.0605    0.0760 C   0  0  0  0  0  0  0  0  0  0  0  0
    0.3858    1.4665    0.0826 C   0  0  0  0  0  0  0  0  0  0  0  0
   -0.8690    1.8252   -0.1172 N   0  0  0  0  0  0  0  0  0  0  0  0
   -0.9073    3.1953   -0.0112 C   0  0  0  0  0  0  0  0  0  0  0  0
    0.3381    3.6848    0.2856 C   0  0  0  0  0  0  0  0  0  0  0  0
    1.1622    2.5876    0.2977 N   0  0  0  0  0  0  0  0  0  0  0  0
    2.5978    2.5814    0.3316 C   0  0  0  0  0  0  0  0  0  0  0  0
    3.1580    3.0637   -0.9836 C   0  0  0  0  0  0  0  0  0  0  0  0
    2.8052    4.4145   -1.3590 O   0  0  0  0  0  0  0  0  0  0  0  0
    4.6424    3.1794   -0.7519 C   0  0  0  0  0  0  0  0  0  0  0  0
    5.6960    2.1618   -0.8552 N   0  0  0  0  0  0  0  0  0  0  0  0
    6.5085    2.7302   -1.9549 C   0  0  0  0  0  0  0  0  0  0  0  0
    5.7235    2.4827   -3.2687 C   0  0  0  0  0  0  0  0  0  0  0  0
    5.8149    1.0986   -3.6057 O   0  0  0  0  0  0  0  0  0  0  0  0
    5.1517    0.3106   -2.6027 C   0  0  0  0  0  0  0  0  0  0  0  0
    5.5588    0.7158   -1.1645 C   0  0  0  0  0  0  0  0  0  0  0  0
    0.7192    5.0553    0.4460 N   0  0  0  0  0  0  0  0  0  0  0  0
    1.8339    5.2932    0.9466 O   0  0  0  0  0  0  0  0  0  0  0  0
   -0.0697    5.8980    0.0297 O   0  0  0  0  0  0  0  0  0  0  0  0
  1  2  1  0
  2  3  2  0
  2  6  1  0
  3  4  1  0
  4  5  2  0
  5  6  1  0
  5 17  1  0
  6  7  1  0
  7  8  1  0
  8  9  1  0
  8 10  1  0
 10 11  1  0
 11 12  1  0
 11 16  1  0
 12 13  1  0
 13 14  1  0
 14 15  1  0
 15 16  1  0
 17 18  1  0
 17 19  2  0
M  CHG  2  17   1  18  -1
M  END
>  <DRUGBANK_ID>  (1) 
DB15098

>  <COMMON_NAME>  (1) 
Morinidazole

>  <CAS_NUMBER>  (1) 
92478-27-8

>  <UNII>  (1) 
TUPWG40JAL

$$$$
