
     RDKit          3D

  9  9  0  0  0  0  0  0  0  0999 V2000
    1.1477    0.0347   -0.0055 N   0  0  0  0  0  0  0  0  0  0  0  0
    0.6262   -1.1505   -0.7463 C   0  0  0  0  0  0  0  0  0  0  0  0
   -0.8618   -1.4062   -0.4476 C   0  0  0  0  0  0  0  0  0  0  0  0
   -1.0441   -2.9307   -0.4037 C   0  0  0  0  0  0  0  0  0  0  0  0
    0.3254   -3.5419   -0.6679 C   0  0  0  0  0  0  0  0  0  0  0  0
    1.3139   -2.4441   -0.2904 C   0  0  0  0  0  0  0  0  0  0  0  0
    0.8467   -0.9119   -2.2700 C   0  0  0  0  0  0  0  0  0  0  0  0
    1.4312    0.2844   -2.5422 O   0  0  0  0  0  0  0  0  0  0  0  0
    0.5438   -1.7006   -3.1563 O   0  0  0  0  0  0  0  0  0  0  0  0
  1  2  1  0
  2  3  1  0
  2  6  1  0
  2  7  1  0
  3  4  1  0
  4  5  1  0
  5  6  1  0
  7  8  1  0
  7  9  2  0
M  END
>  <DRUGBANK_ID>  (1) 
DB04620

>  <COMMON_NAME>  (1) 
Cycloleucine

>  <CAS_NUMBER>  (1) 
52-52-8

>  <UNII>  (1) 
0TQU7668EI

>  <SYNONYMS>  (1) 
1-amino-1-cyclopentanecarboxylic acid; 1-aminocyclopentane-1-carboxylic acid; 1-aminocyclopentanecarboxylic acid; Cyclo-leucine; Cycloleucin

$$$$
