
     RDKit          3D

  8  7  0  0  0  0  0  0  0  0999 V2000
    1.0110   -0.0909    0.0930 C   0  0  0  0  0  0  0  0  0  0  0  0
    0.5234   -1.5180   -0.1179 C   0  0  0  0  0  0  0  0  0  0  0  0
    1.0173    1.9663    1.5982 C   0  0  0  0  0  0  0  0  0  0  0  0
    0.5260    0.5312    1.4070 C   0  0  0  0  0  0  0  0  0  0  0  0
    1.1448    2.9212   -0.5087 N   0  0  0  0  0  0  0  0  0  0  0  0
    0.4602    3.3508   -1.4356 O   0  0  0  0  0  0  0  0  0  0  0  0
    0.3981    2.8492    0.6665 O   0  0  0  0  0  0  0  0  0  0  0  0
    1.0326   -2.4655    0.9504 C   0  0  0  0  0  0  0  0  0  0  0  0
  2  1  1  0
  2  8  1  0
  3  7  1  0
  4  1  1  0
  4  3  1  0
  6  5  2  0
  7  5  1  0
M  END
>  <DRUGBANK_ID>  (1) 
DB01612

>  <COMMON_NAME>  (1) 
Amyl Nitrite

>  <CAS_NUMBER>  (1) 
8017-89-8

>  <UNII>  (1) 
H2HUX79FYK

>  <SYNONYMS>  (1) 
1-nitropentane; n-Amyl nitrite; n-pentyl nitrite; Nitramyl; pentyl nitrite

$$$$
