
     RDKit          3D

 17 19  0  0  0  0  0  0  0  0999 V2000
    0.0168    1.6653    0.0825 N   0  0  0  0  0  0  0  0  0  0  0  0
    1.1461    0.8723    0.0283 C   0  0  0  0  0  0  0  0  0  0  0  0
   -1.0992    0.8729    0.0740 C   0  0  0  0  0  0  0  0  0  0  0  0
    0.7235   -0.4599    0.0310 C   0  0  0  0  0  0  0  0  0  0  0  0
   -0.6949   -0.4461    0.0870 C   0  0  0  0  0  0  0  0  0  0  0  0
    1.6871   -1.4855   -0.0222 C   0  0  0  0  0  0  0  0  0  0  0  0
   -1.6466   -1.5941    0.1054 C   0  0  0  0  0  0  0  0  0  0  0  0
   -2.5292    1.3279    0.0826 C   0  0  0  0  0  0  0  0  0  0  0  0
    2.4989    1.2296   -0.0184 C   0  0  0  0  0  0  0  0  0  0  0  0
    3.0386   -1.1387   -0.0704 C   0  0  0  0  0  0  0  0  0  0  0  0
   -3.1183   -1.1451    0.1870 C   0  0  0  0  0  0  0  0  0  0  0  0
    3.4405    0.1949   -0.0674 C   0  0  0  0  0  0  0  0  0  0  0  0
   -3.3892    0.1945   -0.5215 C   0  0  0  0  0  0  0  0  0  0  0  0
   -2.7278    2.6408   -0.6639 C   0  0  0  0  0  0  0  0  0  0  0  0
   -3.1520    3.6579   -0.1190 O   0  0  0  0  0  0  0  0  0  0  0  0
   -2.4025    2.6588   -1.9877 N   0  0  0  0  0  0  0  0  0  0  0  0
    4.2268   -2.3850   -0.1333 Cl  0  0  0  0  0  0  0  0  0  0  0  0
  2  1  1  0
  3  1  1  0
  4  2  2  0
  5  3  2  0
  5  4  1  0
  6  4  1  0
  7  5  1  0
  8  3  1  0
  9  2  1  0
 10  6  2  0
 11  7  1  0
 12  9  2  0
 12 10  1  0
 13  8  1  0
 13 11  1  0
 14  8  1  0
 15 14  2  0
 16 14  1  0
 17 10  1  0
M  END
>  <DRUGBANK_ID>  (1) 
DB13978

>  <COMMON_NAME>  (1) 
Selisistat

>  <CAS_NUMBER>  (1) 
49843-98-3

>  <UNII>  (1) 
L19ECD5014

>  <SYNONYMS>  (1) 
rac-6-Chloro-2,3,4,9-tetrahydro-1H-carbazole-1-carboxamide; Selisistat

$$$$
