
     RDKit          3D

 35 37  0  0  1  0  0  0  0  0999 V2000
   13.4662    6.8948  -18.9807 C   0  0  0  0  0  0  0  0  0  0  0  0
   16.3821   -0.3781  -14.9180 C   0  0  0  0  0  0  0  0  0  0  0  0
   12.0885    4.1509  -19.3279 C   0  0  0  0  0  0  0  0  0  0  0  0
   13.9904   -4.9438  -15.9737 C   0  0  0  0  0  0  0  0  0  0  0  0
   10.6136    0.6794  -17.4920 C   0  0  0  0  0  0  0  0  0  0  0  0
   12.6579    2.0571  -17.4800 C   0  0  0  0  0  0  0  0  0  0  0  0
   18.1191    5.9008  -15.8113 C   0  0  0  0  0  0  0  0  0  0  0  0
   15.3307    6.3286  -16.5689 C   0  0  0  0  0  0  0  0  0  0  0  0
   13.8635    6.8030  -16.5827 C   0  0  0  0  0  0  0  0  0  0  0  0
   15.8061    6.2688  -15.1109 C   0  0  0  0  0  0  0  0  0  0  0  0
   14.0313   -0.2807  -14.9334 C   0  0  0  0  0  0  0  0  0  0  0  0
   16.2967    2.7080  -13.2791 C   0  0  0  0  0  0  0  0  0  0  0  0
   12.4226    2.1646  -14.3978 C   0  0  0  0  0  0  0  0  0  0  0  0
   12.9441   -1.4367  -16.7677 C   0  0  0  0  0  0  0  0  0  0  0  0
   13.1350    6.0745  -17.6961 C   0  0  1  0  0  0  0  0  0  0  0  0
   15.1594    0.3896  -14.5758 C   0  0  0  0  0  0  0  0  0  0  0  0
   11.1718    4.3319  -18.1012 C   0  0  2  0  0  0  0  0  0  0  0  0
   13.5673   -3.5477  -15.9875 C   0  0  0  0  0  0  0  0  0  0  0  0
   13.7664   -1.4481  -15.6701 C   0  0  0  0  0  0  0  0  0  0  0  0
   15.1345    1.7854  -13.8158 C   0  0  1  0  0  0  0  0  0  0  0  0
   11.1868    1.6748  -15.1489 C   0  0  1  0  0  0  0  0  0  0  0  0
   17.0541    3.6311  -14.3159 C   0  0  1  0  0  0  0  0  0  0  0  0
   12.8200    1.4665  -13.0474 C   0  0  0  0  0  0  0  0  0  0  0  0
   11.6080    5.7262  -17.4648 C   0  0  1  0  0  0  0  0  0  0  0  0
   10.6107    3.2260  -17.0772 C   0  0  0  0  0  0  0  0  0  0  0  0
   11.3121    1.8690  -16.7684 C   0  0  0  0  0  0  0  0  0  0  0  0
   16.9359    5.2547  -15.0072 C   0  0  1  0  0  0  0  0  0  0  0  0
   14.0868   -2.6567  -15.1777 N   0  0  0  0  0  0  0  0  0  0  0  0
   10.8480    0.3247  -14.7852 O   0  0  0  0  0  0  0  0  0  0  0  0
   12.1228    0.7060  -12.4399 O   0  0  0  0  0  0  0  0  0  0  0  0
   11.2621    5.7862  -16.0881 O   0  0  0  0  0  0  0  0  0  0  0  0
    9.5280    3.4553  -16.5148 O   0  0  0  0  0  0  0  0  0  0  0  0
   14.1591    1.6369  -12.7264 O   0  0  0  0  0  0  0  0  0  0  0  0
   17.3002    4.9033  -13.6937 O   0  0  0  0  0  0  0  0  0  0  0  0
   12.4828   -3.0050  -17.1964 S   0  0  0  0  0  0  0  0  0  0  0  0
  9  8  1  0
 10  8  1  0
 15  9  1  0
 15  1  1  6
 16  2  1  0
 16 11  2  0
 17  3  1  1
 18  4  1  0
 19 11  1  0
 19 14  2  0
 20 12  1  0
 20 16  1  1
 21 13  1  0
 21 29  1  6
 22 12  1  6
 23 13  1  0
 24 15  1  0
 24 17  1  0
 24 31  1  1
 25 17  1  0
 26 21  1  0
 26 25  1  0
 26  5  1  0
 26  6  1  0
 27 10  1  0
 27 22  1  0
 27  7  1  6
 28 18  2  0
 28 19  1  0
 30 23  2  0
 32 25  2  0
 33 20  1  0
 33 23  1  0
 34 22  1  0
 34 27  1  0
 35 14  1  0
 35 18  1  0
M  END
>  <DRUGBANK_ID>  (1) 
DB03010

>  <SECONDARY_ACCESSION_NUMBERS>  (1) 
EXPT01349

>  <COMMON_NAME>  (1) 
Patupilone

>  <CAS_NUMBER>  (1) 
152044-54-7

>  <UNII>  (1) 
UEC0H0URSE

>  <SYNONYMS>  (1) 
(âˆ’)-epothilone B; Epo B; Epothilone B; patupilona; Patupilone

$$$$
