
     RDKit          3D

 14 13  0  0  0  0  0  0  0  0999 V2000
    1.1140    0.0948    0.0642 C   0  0  0  0  0  0  0  0  0  0  0  0
    0.7100    1.3166   -0.7593 C   0  0  0  0  0  0  0  0  0  0  0  0
    1.2016    1.1635   -2.1963 C   0  0  0  0  0  0  0  0  0  0  0  0
    0.6109   -0.0719   -2.8790 C   0  0  0  0  0  0  0  0  0  0  0  0
   -0.9220   -0.0418   -2.8907 C   0  0  0  0  0  0  0  0  0  0  0  0
    0.6023    0.1101    1.4860 N   0  0  0  0  0  0  0  0  0  0  0  0
    1.1013    1.3237    2.2068 C   0  0  0  0  0  0  0  0  0  0  0  0
   -0.7682    0.0926    1.4913 O   0  0  0  0  0  0  0  0  0  0  0  0
    1.1041   -1.1321    2.1724 C   0  0  0  0  0  0  0  0  0  0  0  0
   -3.6163    1.0805   -6.5778 C   0  0  0  0  0  0  0  0  0  0  0  0
   -3.0139   -0.1355   -5.8920 C   0  0  0  0  0  0  0  0  0  0  0  0
   -1.4862   -0.0558   -5.8712 C   0  0  0  0  0  0  0  0  0  0  0  0
   -0.9766    1.1730   -5.1099 C   0  0  0  0  0  0  0  0  0  0  0  0
   -1.4480    1.1804   -3.6516 C   0  0  0  0  0  0  0  0  0  0  0  0
  1  6  1  0
  2  1  1  0
  3  2  1  0
  4  3  1  0
  5  4  1  0
  6  7  1  0
  6  8  1  0
  6  9  1  0
 11 10  1  0
 12 11  1  0
 13 12  1  0
 14  5  1  0
 14 13  1  0
M  CHG  2   6   1   8  -1
M  END
>  <DRUGBANK_ID>  (1) 
DB02613

>  <SECONDARY_ACCESSION_NUMBERS>  (1) 
EXPT01149

>  <COMMON_NAME>  (1) 
Capric dimethyl amine oxide

>  <CAS_NUMBER>  (1) 
2605-79-0

>  <UNII>  (1) 
G387VUT5EZ

>  <SYNONYMS>  (1) 
Capric dimethyl amine oxide; Decyl dimethyl amine oxide; Decylamine oxide; Decylamine-N,N-dimethyl-N-oxide; N,N-Dimethyl-1-decanamine-N-oxide; N,N-dimethyldecylamine N-oxide; N,N-Dimethyldecylamine oxide

$$$$
