
     RDKit          3D

 12 13  0  0  0  0  0  0  0  0999 V2000
    1.0366   -0.0271   -0.0736 C   0  0  0  0  0  0  0  0  0  0  0  0
    0.5142    0.4776   -1.3852 C   0  0  0  0  0  0  0  0  0  0  0  0
   -0.1254   -0.2232   -2.1610 O   0  0  0  0  0  0  0  0  0  0  0  0
    0.8409    1.7846   -1.5917 O   0  0  0  0  0  0  0  0  0  0  0  0
    0.3697    2.3704   -2.8330 C   0  0  0  0  0  0  0  0  0  0  0  0
    0.9181    3.8215   -2.9680 C   0  0  0  0  0  0  0  0  0  0  0  0
   -0.1643    4.8381   -3.0915 N   0  0  0  0  0  0  0  0  0  0  0  0
   -1.0204    4.7553   -1.8872 C   0  0  0  0  0  0  0  0  0  0  0  0
   -1.6345    3.3580   -1.7188 C   0  0  0  0  0  0  0  0  0  0  0  0
   -1.1743    2.4551   -2.8734 C   0  0  0  0  0  0  0  0  0  0  0  0
   -1.5924    3.1164   -4.1936 C   0  0  0  0  0  0  0  0  0  0  0  0
   -0.9881    4.5237   -4.2798 C   0  0  0  0  0  0  0  0  0  0  0  0
  1  2  1  0
  2  3  2  0
  2  4  1  0
  4  5  1  0
  5  6  1  0
  5 10  1  0
  6  7  1  0
  7  8  1  0
  7 12  1  0
  8  9  1  0
  9 10  1  0
 10 11  1  0
 11 12  1  0
M  END
>  <DRUGBANK_ID>  (1) 
DB13262

>  <COMMON_NAME>  (1) 
Aceclidine

>  <CAS_NUMBER>  (1) 
827-61-2

>  <UNII>  (1) 
0578K3ELIO

>  <SYNONYMS>  (1) 
Aceclidina; Aceclidine; Aceclidinum

$$$$
