
     RDKit          3D

 24 26  0  0  1  0  0  0  0  0999 V2000
    2.4910    1.1861   -1.1267 C   0  0  0  0  0  0  0  0  0  0  0  0
    1.5645    0.7003   -0.0272 C   0  0  0  0  0  0  0  0  0  0  0  0
    0.2684    1.5797    0.0997 C   0  0  1  0  0  0  0  0  0  0  0  0
   -0.8623    0.7120    0.4244 N   0  0  0  0  0  0  0  0  0  0  0  0
   -0.5356   -0.6758    0.4337 C   0  0  2  0  0  0  0  0  0  0  0  0
    0.8954   -0.8614   -0.6803 S   0  0  0  0  0  0  0  0  0  0  0  0
   -1.9454   -1.0253   -0.1129 C   0  0  1  0  0  0  0  0  0  0  0  0
   -2.0409    0.5225   -0.2537 C   0  0  0  0  0  0  0  0  0  0  0  0
   -2.8420    1.3012   -0.6892 O   0  0  0  0  0  0  0  0  0  0  0  0
   -2.0208   -1.9658   -1.2814 N   0  0  0  0  0  0  0  0  0  0  0  0
   -2.1997   -3.3478   -1.3203 C   0  0  0  0  0  0  0  0  0  0  0  0
   -2.1563   -3.8831   -2.4368 O   0  0  0  0  0  0  0  0  0  0  0  0
   -2.4403   -4.2554   -0.0101 C   0  0  1  0  0  0  0  0  0  0  0  0
   -1.2861   -4.3906    0.9877 C   0  0  0  0  0  0  0  0  0  0  0  0
   -0.9312   -5.4177    1.7726 C   0  0  0  0  0  0  0  0  0  0  0  0
    0.1585   -5.3121    2.8380 C   0  0  0  0  0  0  0  0  0  0  0  0
    0.8631   -3.9989    2.9659 C   0  0  0  0  0  0  0  0  0  0  0  0
    0.5875   -3.0199    2.1231 C   0  0  0  0  0  0  0  0  0  0  0  0
   -0.4980   -3.1767    1.1328 C   0  0  0  0  0  0  0  0  0  0  0  0
   -3.6818   -3.8296    0.6643 N   0  0  0  0  0  0  0  0  0  0  0  0
    0.3458    2.7282    1.0985 C   0  0  0  0  0  0  0  0  0  0  0  0
   -0.3672    3.7179    1.0975 O   0  0  0  0  0  0  0  0  0  0  0  0
    1.2383    2.5593    2.0914 O   0  0  0  0  0  0  0  0  0  0  0  0
    2.3745    0.3794    1.2523 C   0  0  0  0  0  0  0  0  0  0  0  0
  1  2  1  0
  2  3  1  0
  2  6  1  0
  2 24  1  0
  3  4  1  0
  3 21  1  1
  4  8  1  0
  5  4  1  0
  5  6  1  6
  5  7  1  0
  7  8  1  0
  7 10  1  6
  8  9  2  0
 10 11  1  0
 11 12  2  0
 11 13  1  0
 13 14  1  0
 13 20  1  1
 14 15  2  0
 14 19  1  0
 15 16  1  0
 16 17  1  0
 17 18  2  0
 18 19  1  0
 21 22  2  0
 21 23  1  0
M  END
>  <DRUGBANK_ID>  (1) 
DB13300

>  <COMMON_NAME>  (1) 
Epicillin

>  <CAS_NUMBER>  (1) 
26774-90-3

>  <UNII>  (1) 
3LU1L73C8Y

>  <SYNONYMS>  (1) 
Epicillin

$$$$
