
     RDKit          3D

 34 35  0  0  1  0  0  0  0  0999 V2000
    0.8672   -0.0810    0.0810 C   0  0  0  0  0  0  0  0  0  0  0  0
    0.2776   -1.5075   -0.0546 C   0  0  0  0  0  0  0  0  0  0  0  0
    0.3612   -2.4294    1.0954 N   0  0  0  0  0  0  0  0  0  0  0  0
    0.2168   -3.8538    0.8534 C   0  0  0  0  0  0  0  0  0  0  0  0
    1.0299   -4.4173   -0.3306 C   0  0  0  0  0  0  0  0  0  0  0  0
    2.8818   -4.2444   -0.5890 S   0  0  0  0  0  0  0  0  0  0  0  0
    3.8289   -5.1058    0.1253 O   0  0  0  0  0  0  0  0  0  0  0  0
    3.0803   -4.2611   -2.0047 O   0  0  0  0  0  0  0  0  0  0  0  0
    3.3348   -2.7443   -0.0200 N   0  0  0  0  0  0  0  0  0  0  0  0
    3.1435   -2.0773    1.3582 C   0  0  0  0  0  0  0  0  0  0  0  0
    3.7082   -2.6115    2.6516 C   0  0  2  0  0  0  0  0  0  0  0  0
    5.1458   -2.7373    2.5388 N   0  0  0  0  0  0  0  0  0  0  0  0
    5.6253   -4.1004    2.8469 N   0  0  0  0  0  0  0  0  0  0  0  0
    4.6135   -4.9180    2.9412 C   0  0  0  0  0  0  0  0  0  0  0  0
    3.1077   -4.2140    2.6700 S   0  0  0  0  0  0  0  0  0  0  0  0
    4.5819   -6.2900    3.2277 N   0  0  0  0  0  0  0  0  0  0  0  0
    3.6008   -7.3273    3.3027 C   0  0  0  0  0  0  0  0  0  0  0  0
    3.9746   -8.4574    3.6324 O   0  0  0  0  0  0  0  0  0  0  0  0
    2.0905   -7.0947    2.9744 C   0  0  0  0  0  0  0  0  0  0  0  0
    1.4722   -6.1131    3.9973 C   0  0  0  0  0  0  0  0  0  0  0  0
    1.9763   -6.7977    1.4898 C   0  0  0  0  0  0  0  0  0  0  0  0
    1.1479   -8.2910    3.0305 C   0  0  0  0  0  0  0  0  0  0  0  0
    6.0131   -1.7992    1.9277 C   0  0  0  0  0  0  0  0  0  0  0  0
    7.2200   -2.0671    1.8512 O   0  0  0  0  0  0  0  0  0  0  0  0
    5.5066   -0.3613    1.2583 C   0  0  0  0  0  0  0  0  0  0  0  0
    4.8715   -0.3429   -0.1875 C   0  0  0  0  0  0  0  0  0  0  0  0
    4.7206    0.5627    2.2140 C   0  0  0  0  0  0  0  0  0  0  0  0
    6.7524    0.4742    0.9838 C   0  0  0  0  0  0  0  0  0  0  0  0
    3.0898   -1.9671    3.9110 C   0  0  0  0  0  0  0  0  0  0  0  0
    3.6764   -0.8486    4.4493 C   0  0  0  0  0  0  0  0  0  0  0  0
    2.8853    0.1487    5.0044 C   0  0  0  0  0  0  0  0  0  0  0  0
    1.6323   -0.1706    5.4945 C   0  0  0  0  0  0  0  0  0  0  0  0
    1.1429   -1.4496    5.3070 C   0  0  0  0  0  0  0  0  0  0  0  0
    1.8411   -2.3202    4.4794 C   0  0  0  0  0  0  0  0  0  0  0  0
  1  2  1  0
  2  3  1  0
  3  4  1  0
  4  5  1  0
  5  6  1  0
  6  7  2  0
  6  8  2  0
  6  9  1  0
  9 10  1  0
 11 10  1  6
 11 12  1  0
 11 15  1  0
 11 29  1  0
 12 13  1  0
 12 23  1  0
 13 14  2  0
 14 15  1  0
 14 16  1  0
 16 17  1  0
 17 18  2  0
 17 19  1  0
 19 20  1  0
 19 21  1  0
 19 22  1  0
 23 24  2  0
 23 25  1  0
 25 26  1  0
 25 27  1  0
 25 28  1  0
 29 30  2  0
 29 34  1  0
 30 31  1  0
 31 32  2  0
 32 33  1  0
 33 34  2  0
M  END
>  <DRUGBANK_ID>  (1) 
DB11861

>  <COMMON_NAME>  (1) 
Litronesib

>  <CAS_NUMBER>  (1) 
910634-41-2

>  <UNII>  (1) 
6611F8KYCV

>  <SYNONYMS>  (1) 
Litronesib

$$$$
