
     RDKit          3D

 30 32  0  0  0  0  0  0  0  0999 V2000
    3.1224   -0.0016   -0.0108 Cl  0  0  0  0  0  0  0  0  0  0  0  0
   -3.1110    0.0448    0.0025 Cl  0  0  0  0  0  0  0  0  0  0  0  0
    3.6996   -5.6312    6.5017 O   0  0  0  0  0  0  0  0  0  0  0  0
    3.8451   -1.9018    7.1514 O   0  0  0  0  0  0  0  0  0  0  0  0
    1.4891   -1.9959    5.4952 N   0  0  0  0  0  0  0  0  0  0  0  0
    0.6590   -6.7210    2.0115 N   0  0  0  0  0  0  0  0  0  0  0  0
    1.3788   -2.4969   -0.0824 N   0  0  0  0  0  0  0  0  0  0  0  0
    1.0154   -4.5857    1.0037 N   0  0  0  0  0  0  0  0  0  0  0  0
   -0.5729   -6.1279    0.1366 N   0  0  0  0  0  0  0  0  0  0  0  0
    3.7580   -3.0627    6.3013 C   0  0  2  0  0  0  0  0  0  0  0  0
    2.7107   -2.7743    5.1881 C   0  0  0  0  0  0  0  0  0  0  0  0
    3.5129   -4.3510    7.1491 C   0  0  0  0  0  0  0  0  0  0  0  0
    0.4776   -2.1463    4.4477 C   0  0  0  0  0  0  0  0  0  0  0  0
    0.8699   -2.2141    6.7987 C   0  0  0  0  0  0  0  0  0  0  0  0
    2.7729   -6.0847    5.6019 C   0  0  0  0  0  0  0  0  0  0  0  0
    1.5092   -5.5467    5.4294 C   0  0  0  0  0  0  0  0  0  0  0  0
    3.1804   -7.0721    4.7093 C   0  0  0  0  0  0  0  0  0  0  0  0
    1.3331   -6.5326    3.2219 C   0  0  0  0  0  0  0  0  0  0  0  0
    0.8514   -5.6774    4.1986 C   0  0  0  0  0  0  0  0  0  0  0  0
    2.4416   -7.3146    3.5393 C   0  0  0  0  0  0  0  0  0  0  0  0
    0.3472   -5.7612    1.0521 C   0  0  0  0  0  0  0  0  0  0  0  0
    0.7622   -3.7658   -0.0227 C   0  0  0  0  0  0  0  0  0  0  0  0
    0.6914   -1.2510    0.0265 C   0  0  0  0  0  0  0  0  0  0  0  0
   -0.1216   -4.1019   -1.0316 C   0  0  0  0  0  0  0  0  0  0  0  0
    1.3940   -0.0309    0.0155 C   0  0  0  0  0  0  0  0  0  0  0  0
   -0.7155   -1.1875    0.0364 C   0  0  0  0  0  0  0  0  0  0  0  0
   -0.7723   -5.2992   -0.8943 C   0  0  0  0  0  0  0  0  0  0  0  0
   -1.3904    0.0323    0.0292 C   0  0  0  0  0  0  0  0  0  0  0  0
    0.7132    1.1948    0.0238 C   0  0  0  0  0  0  0  0  0  0  0  0
   -0.6826    1.2258    0.0262 C   0  0  0  0  0  0  0  0  0  0  0  0
  1 25  1  0
  2 28  1  0
  3 12  1  0
  3 15  1  0
  5 11  1  0
  5 13  1  0
  5 14  1  0
  6 18  1  0
  6 21  1  0
  7 22  1  0
  7 23  1  0
  8 21  2  0
  8 22  1  0
  9 21  1  0
  9 27  2  0
 10 12  1  0
 10 11  1  0
 10  4  1  1
 15 16  2  0
 15 17  1  0
 16 19  1  0
 17 20  2  0
 18 19  2  0
 18 20  1  0
 22 24  2  0
 23 25  2  0
 23 26  1  0
 24 27  1  0
 25 29  1  0
 26 28  2  0
 28 30  1  0
 29 30  2  0
M  END
>  <DRUGBANK_ID>  (1) 
DB07750

>  <COMMON_NAME>  (1) 
(2R)-1-[4-({4-[(2,5-Dichlorophenyl)amino]-2-pyrimidinyl}amino)phenoxy]-3-(dimethylamino)-2-propanol

$$$$
