
     RDKit          3D

 31 33  0  0  1  0  0  0  0  0999 V2000
   -1.4821    2.4332   -4.0718 C   0  0  0  0  0  0  0  0  0  0  0  0
   -0.4942    1.9357   -5.1548 C   0  0  2  0  0  0  0  0  0  0  0  0
    0.5856    1.2008   -4.3872 C   0  0  0  0  0  0  0  0  0  0  0  0
    0.9397    1.5372   -3.1330 C   0  0  0  0  0  0  0  0  0  0  0  0
    1.8306    0.8177   -2.1774 C   0  0  2  0  0  0  0  0  0  0  0  0
    1.2762    1.0018   -0.7506 C   0  0  0  0  0  0  0  0  0  0  0  0
    3.2617    1.3845   -2.3112 C   0  0  0  0  0  0  0  0  0  0  0  0
    4.2059    0.6548   -1.3614 C   0  0  0  0  0  0  0  0  0  0  0  0
    3.8045    1.2903   -3.7471 C   0  0  0  0  0  0  0  0  0  0  0  0
    1.7866   -0.5759   -2.4616 O   0  0  0  0  0  0  0  0  0  0  0  0
    0.1551    2.9333   -6.1484 C   0  0  1  0  0  0  0  0  0  0  0  0
    0.2845    2.4175   -7.6220 C   0  0  0  0  0  0  0  0  0  0  0  0
   -0.0109    3.6147   -8.5475 C   0  0  0  0  0  0  0  0  0  0  0  0
    0.0651    4.8059   -7.5983 C   0  0  2  0  0  0  0  0  0  0  0  0
   -0.5615    4.2776   -6.2887 C   0  0  2  0  0  0  0  0  0  0  0  0
   -0.1697    5.2298   -5.1272 C   0  0  0  0  0  0  0  0  0  0  0  0
   -0.7275    6.6120   -5.3475 C   0  0  0  0  0  0  0  0  0  0  0  0
   -0.3678    7.0776   -6.7337 C   0  0  0  0  0  0  0  0  0  0  0  0
   -0.5787    6.1193   -7.8875 C   0  0  0  0  0  0  0  0  0  0  0  0
   -1.2166    6.4588   -9.0372 C   0  0  0  0  0  0  0  0  0  0  0  0
   -1.5863    7.8239   -9.3461 C   0  0  0  0  0  0  0  0  0  0  0  0
   -0.7763    8.9068   -9.2121 C   0  0  0  0  0  0  0  0  0  0  0  0
   -1.3103   10.3004   -9.4355 C   0  0  0  0  0  0  0  0  0  0  0  0
   -1.0219   11.2535   -8.2611 C   0  0  2  0  0  0  0  0  0  0  0  0
    0.4353   11.2106   -7.7962 C   0  0  0  0  0  0  0  0  0  0  0  0
    0.8790    9.7916   -7.5058 C   0  0  1  0  0  0  0  0  0  0  0  0
    0.6168    8.8733   -8.7064 C   0  0  0  0  0  0  0  0  0  0  0  0
    1.5223    7.9788   -9.1540 C   0  0  0  0  0  0  0  0  0  0  0  0
    2.2428    9.7710   -7.0956 O   0  0  0  0  0  0  0  0  0  0  0  0
   -1.9080   10.9994   -7.1662 O   0  0  0  0  0  0  0  0  0  0  0  0
   -2.0957    4.1684   -6.5502 C   0  0  0  0  0  0  0  0  0  0  0  0
  2  3  1  0
  2  1  1  1
  3  4  2  0
  5  7  1  0
  5 10  1  0
  5  6  1  1
  5  4  1  0
  7  8  1  0
  7  9  1  0
 11  2  1  0
 11 12  1  6
 11 15  1  0
 12 13  1  0
 14 13  1  6
 14 19  1  0
 15 14  1  0
 15 16  1  0
 15 31  1  6
 16 17  1  0
 17 18  1  0
 18 19  1  0
 19 20  2  0
 20 21  1  0
 21 22  2  0
 22 23  1  0
 22 27  1  0
 24 23  1  0
 24 25  1  0
 24 30  1  1
 26 25  1  0
 26 27  1  0
 26 29  1  6
 27 28  2  0
M  END
>  <DRUGBANK_ID>  (1) 
DB06117

>  <COMMON_NAME>  (1) 
1alpha,24S-Dihydroxyvitamin D2

>  <CAS_NUMBER>  (1) 
156316-85-7

>  <UNII>  (1) 
2900I92Z36

$$$$
