3B4
     RDKit          3D

 16 17  0  0  0  0  0  0  0  0999 V2000
   -1.4570    0.2729   -0.2744 C   0  0  0  0  0  0  0  0  0  0  0  0
   -1.0066   -1.1009    0.2173 C   0  0  0  0  0  0  0  0  0  0  0  0
    0.4090   -1.4335   -0.2513 C   0  0  0  0  0  0  0  0  0  0  0  0
    1.3984   -0.3507    0.1603 C   0  0  0  0  0  0  0  0  0  0  0  0
    0.9405    0.9955   -0.4077 C   0  0  0  0  0  0  0  0  0  0  0  0
   -0.4547    1.3454    0.1600 C   0  0  0  0  0  0  0  0  0  0  0  0
   -0.9395    2.6348   -0.3020 N   0  0  0  0  0  0  0  0  0  0  0  0
   -1.0451    3.7598    0.5164 C   0  0  0  0  0  0  0  0  0  0  0  0
   -2.2152    4.5288    0.2679 C   0  0  0  0  0  0  0  0  0  0  0  0
   -2.4329    5.7748    0.8525 C   0  0  0  0  0  0  0  0  0  0  0  0
   -1.4968    6.2746    1.7361 C   0  0  0  0  0  0  0  0  0  0  0  0
   -0.3525    5.5309    2.0297 C   0  0  0  0  0  0  0  0  0  0  0  0
   -0.1038    4.2602    1.4618 C   0  0  0  0  0  0  0  0  0  0  0  0
    1.1161    3.5079    1.9615 C   0  0  0  0  0  0  0  0  0  0  0  0
    2.0681    4.1990    2.6229 O   0  0  0  0  0  0  0  0  0  0  0  0
    1.3015    2.3070    1.8751 O   0  0  0  0  0  0  0  0  0  0  0  0
  2  1  1  0
  3  2  1  0
  4  3  1  0
  5  4  1  0
  5  6  1  0
  6  1  1  0
  6  7  1  0
  7  8  1  0
  8 13  1  0
  9  8  2  0
  9 10  1  0
 10 11  2  0
 11 12  1  0
 13 12  2  0
 13 14  1  0
 14 15  1  0
 16 14  2  0
M  END
>  <DRUGBANK_ID>  (1) 
DB07038

>  <COMMON_NAME>  (1) 
2-(cyclohexylamino)benzoic acid

>  <UNII>  (1) 
B519KGK87P

$$$$
