
     RDKit          3D

 12 11  0  0  1  0  0  0  0  0999 V2000
   -0.1397   -2.8992    1.9261 C   0  0  0  0  0  0  0  0  0  0  0  0
   -1.1122   -2.2458    2.9145 C   0  0  0  0  0  0  0  0  0  0  0  0
   -0.7053   -2.6209    4.3378 C   0  0  0  0  0  0  0  0  0  0  0  0
   -1.1311   -0.7165    2.7608 C   0  0  0  0  0  0  0  0  0  0  0  0
   -1.6555   -0.2858    1.3829 C   0  0  2  0  0  0  0  0  0  0  0  0
   -0.9830    0.9399    0.9737 N   0  0  0  0  0  0  0  0  0  0  0  0
   -0.4136    0.9961   -0.2763 C   0  0  0  0  0  0  0  0  0  0  0  0
    0.6881    2.0025   -0.4486 C   0  0  0  0  0  0  0  0  0  0  0  0
   -0.7089    0.2064   -1.1704 O   0  0  0  0  0  0  0  0  0  0  0  0
   -3.1871   -0.2286    1.4015 C   0  0  0  0  0  0  0  0  0  0  0  0
   -3.7901   -1.1230    0.5789 O   0  0  0  0  0  0  0  0  0  0  0  0
   -3.8347    0.5251    2.1202 O   0  0  0  0  0  0  0  0  0  0  0  0
  1  2  1  0
  2  3  1  0
  2  4  1  0
  5 10  1  0
  5  6  1  0
  5  4  1  1
  6  7  1  0
  7  8  1  0
  7  9  2  0
 10 11  1  0
 10 12  2  0
M  END
>  <DRUGBANK_ID>  (1) 
DB16956

>  <COMMON_NAME>  (1) 
L-Acetylleucine

>  <CAS_NUMBER>  (1) 
1188-21-2

>  <UNII>  (1) 
E915HL7K2O

>  <SYNONYMS>  (1) 
(s)-2-acetamido-4-methylpentanoic acid; Acetyl-l-leucine; Acetylleucine, (s)-; Acetylleucine, l-; L-leucine, n-acetyl-; Leucine, n-acetyl-, l-; N-acetyl leucine; N-acetyl-l-(-)-leucine; N-acetyl-l-leucine; N-Acetyl-Leucine; N-acetylleucine

$$$$
