
     RDKit          3D

 33 38  0  0  0  0  0  0  0  0999 V2000
    0.3029   -3.0068   -0.2577 C   0  0  1  0  0  0  0  0  0  0  0  0
    0.0283   -1.8089   -1.0334 O   0  0  0  0  0  0  0  0  0  0  0  0
   -0.8565   -3.2217    0.7295 C   0  0  2  0  0  0  0  0  0  0  0  0
    0.3261   -4.2290   -1.2031 C   0  0  0  0  0  0  0  0  0  0  0  0
   -0.2775   -0.6143   -0.2767 C   0  0  2  0  0  0  0  0  0  0  0  0
   -0.9974   -2.0205    1.6693 C   0  0  1  0  0  0  0  0  0  0  0  0
   -0.6838   -4.4024    1.5083 O   0  0  0  0  0  0  0  0  0  0  0  0
    1.4429   -4.9995   -1.1884 O   0  0  0  0  0  0  0  0  0  0  0  0
   -0.6164   -4.5156   -1.9328 O   0  0  0  0  0  0  0  0  0  0  0  0
   -1.1484   -0.7604    0.9057 C   0  0  1  0  0  0  0  0  0  0  0  0
   -2.1878   -2.1253    2.4615 O   0  0  0  0  0  0  0  0  0  0  0  0
   -1.0573    0.4124    1.7302 O   0  0  0  0  0  0  0  0  0  0  0  0
   -5.5864   -0.5171   -2.7595 C   0  0  1  0  0  0  0  0  0  0  0  0
   -5.6507    0.4146   -3.7825 C   0  0  0  0  0  0  0  0  0  0  0  0
   -4.2916   -1.1007   -3.3068 C   0  0  2  0  0  0  0  0  0  0  0  0
   -4.7373    0.3891   -1.4961 C   0  0  2  0  0  0  0  0  0  0  0  0
   -7.1198   -1.4520   -3.3500 C   0  0  0  0  0  0  0  0  0  0  0  0
   -6.0803    1.7490   -2.9958 C   0  0  0  0  0  0  0  0  0  0  0  0
   -5.2429   -0.3553   -4.9761 C   0  0  0  0  0  0  0  0  0  0  0  0
   -4.8921   -2.4544   -2.5937 C   0  0  2  0  0  0  0  0  0  0  0  0
   -3.0870   -0.2572   -3.2283 C   0  0  0  0  0  0  0  0  0  0  0  0
   -5.6047    1.6542   -1.6427 O   0  0  0  0  0  0  0  0  0  0  0  0
   -2.7075    0.5319   -1.4413 C   0  0  2  0  0  0  0  0  0  0  0  0
   -7.1147   -2.8665   -2.7119 C   0  0  0  0  0  0  0  0  0  0  0  0
   -6.3399    2.9609   -3.5577 C   0  0  0  0  0  0  0  0  0  0  0  0
   -4.5645   -2.1412   -3.9703 C   0  0  0  0  0  0  0  0  0  0  0  0
   -5.3608    1.2351   -5.3744 C   0  0  0  0  0  0  0  0  0  0  0  0
   -5.8512   -3.4837   -3.0135 N   0  0  0  0  0  0  0  0  0  0  0  0
   -2.3558   -0.6155   -2.2233 C   0  0  0  0  0  0  0  0  0  0  0  0
   -1.1478    0.5045   -0.8644 O   0  0  0  0  0  0  0  0  0  0  0  0
   -5.9222    2.7973   -4.8381 C   0  0  0  0  0  0  0  0  0  0  0  0
   -6.6561    4.1465   -2.9830 O   0  0  0  0  0  0  0  0  0  0  0  0
   -5.6333   -4.8135   -2.4178 C   0  0  0  0  0  0  0  0  0  0  0  0
  1  2  1  0
  1  3  1  0
  1  4  1  6
  2  5  1  0
  3  6  1  0
  3  7  1  1
  4  8  1  0
  4  9  2  0
  5 10  1  0
  5 30  1  6
  6 11  1  1
  6 10  1  0
 10 12  1  1
 13 14  1  0
 13 15  1  0
 13 16  1  0
 13 17  1  1
 14 18  2  0
 14 19  1  0
 15 20  1  0
 15 21  1  1
 16 22  1  6
 16 23  1  0
 17 24  1  0
 18 25  1  0
 18 22  1  0
 19 26  1  0
 19 27  2  0
 20 28  1  0
 20 26  1  6
 21 29  2  0
 23 29  1  0
 23 30  1  1
 24 28  1  0
 25 31  2  0
 25 32  1  0
 27 31  1  0
 28 33  1  0
M  END
>  <DRUGBANK_ID>  (1) 
DB06409

>  <COMMON_NAME>  (1) 
Morphine glucuronide

>  <CAS_NUMBER>  (1) 
20290-10-2

>  <UNII>  (1) 
64Y9KYM60R

>  <SYNONYMS>  (1) 
M6G; Morphine 6-beta-D-glucopyranosiduronide; Morphine 6-glucuronide; Morphine glucuronide; Morphine-6-glucuronide

$$$$
