
     RDKit          3D

 36 37  0  0  1  0  0  0  0  0999 V2000
    1.0863   -0.1512    0.0788 C   0  0  0  0  0  0  0  0  0  0  0  0
    0.6357    0.9913    0.9747 C   0  0  0  0  0  0  0  0  0  0  0  0
    1.1305    2.3302    0.4246 C   0  0  0  0  0  0  0  0  0  0  0  0
    0.5785    2.5987   -0.9801 C   0  0  0  0  0  0  0  0  0  0  0  0
   -0.9542    2.6137   -0.9748 C   0  0  0  0  0  0  0  0  0  0  0  0
   -1.4832    3.7289   -0.0656 C   0  0  0  0  0  0  0  0  0  0  0  0
   -1.0193    5.1051   -0.5611 C   0  0  0  0  0  0  0  0  0  0  0  0
   -1.4688    5.3641   -1.9992 C   0  0  0  0  0  0  0  0  0  0  0  0
   -2.9577    5.3046   -2.0725 C   0  0  0  0  0  0  0  0  0  0  0  0
   -3.6874    6.3451   -2.4615 C   0  0  0  0  0  0  0  0  0  0  0  0
   -5.1759    6.3467   -2.3645 C   0  0  0  0  0  0  0  0  0  0  0  0
   -5.6226    7.4845   -1.4459 C   0  0  0  0  0  0  0  0  0  0  0  0
   -5.1626    8.8480   -1.9778 C   0  0  0  0  0  0  0  0  0  0  0  0
   -5.6932    9.0819   -3.3963 C   0  0  0  0  0  0  0  0  0  0  0  0
   -7.2261    9.0719   -3.4023 C   0  0  0  0  0  0  0  0  0  0  0  0
   -7.7814   10.2293   -2.5702 C   0  0  0  0  0  0  0  0  0  0  0  0
   -7.2616   11.5849   -3.0465 C   0  0  0  0  0  0  0  0  0  0  0  0
   -7.7367   11.9531   -4.4298 C   0  0  0  0  0  0  0  0  0  0  0  0
   -8.3962   12.9663   -4.6434 O   0  0  0  0  0  0  0  0  0  0  0  0
   -7.3363   11.0721   -5.3810 O   0  0  0  0  0  0  0  0  0  0  0  0
   -7.8502   11.1827   -6.7333 C   0  0  0  0  0  0  0  0  0  0  0  0
   -9.3867   11.0972   -6.7922 C   0  0  1  0  0  0  0  0  0  0  0  0
   -9.9210   12.4325   -6.6590 O   0  0  0  0  0  0  0  0  0  0  0  0
  -10.5844   12.8352   -7.8643 C   0  0  2  0  0  0  0  0  0  0  0  0
  -10.2300   11.8076   -8.9332 C   0  0  2  0  0  0  0  0  0  0  0  0
  -11.2700   11.6095   -9.8856 O   0  0  0  0  0  0  0  0  0  0  0  0
   -9.9410   10.5571   -8.1128 C   0  0  2  0  0  0  0  0  0  0  0  0
  -11.1591    9.8271   -7.8918 O   0  0  0  0  0  0  0  0  0  0  0  0
  -10.2226   14.2021   -8.2158 N   0  0  0  0  0  0  0  0  0  0  0  0
   -9.0068   14.7042   -8.5683 C   0  0  0  0  0  0  0  0  0  0  0  0
   -9.1302   15.9616   -8.9377 N   0  0  0  0  0  0  0  0  0  0  0  0
  -10.4858   16.2167   -8.7684 C   0  0  0  0  0  0  0  0  0  0  0  0
  -11.1769   15.1445   -8.3353 N   0  0  0  0  0  0  0  0  0  0  0  0
  -11.1275   17.5228   -9.0472 C   0  0  0  0  0  0  0  0  0  0  0  0
  -10.3090   18.5245   -9.5074 N   0  0  0  0  0  0  0  0  0  0  0  0
  -12.3275   17.7546   -8.8966 O   0  0  0  0  0  0  0  0  0  0  0  0
  1  2  1  0
  2  3  1  0
  3  4  1  0
  4  5  1  0
  5  6  1  0
  6  7  1  0
  7  8  1  0
  8  9  1  0
  9 10  2  0
 10 11  1  0
 11 12  1  0
 12 13  1  0
 13 14  1  0
 14 15  1  0
 15 16  1  0
 16 17  1  0
 17 18  1  0
 18 19  2  0
 18 20  1  0
 20 21  1  0
 22 21  1  6
 22 23  1  0
 24 23  1  0
 24 29  1  6
 25 24  1  0
 25 26  1  6
 25 27  1  0
 27 22  1  0
 27 28  1  1
 29 30  1  0
 29 33  1  0
 30 31  2  0
 31 32  1  0
 32 33  2  0
 32 34  1  0
 34 35  1  0
 34 36  2  0
M  END
>  <DRUGBANK_ID>  (1) 
DB17193

>  <COMMON_NAME>  (1) 
Ribavirin elaidate

>  <CAS_NUMBER>  (1) 
1352921-29-9

>  <UNII>  (1) 
4LU13X0I13

>  <SYNONYMS>  (1) 
1h-1,2,4-triazole-3-carboxamide, 1-(5-o-((9e)-1-oxo-9-octadecen-1-yl)-.beta.-d-ribofuranosyl)-; Ribavirin-5'-elaidic acid ester

$$$$
