
     RDKit          3D

 20 20  0  0  1  0  0  0  0  0999 V2000
    1.8898    1.3582    4.8575 P   0  0  0  0  0  0  0  0  0  0  0  0
    1.6974   -3.8550    1.2230 P   0  0  0  0  0  0  0  0  0  0  0  0
    1.8004    1.8555    3.2937 O   0  0  0  0  0  0  0  0  0  0  0  0
    2.4887   -2.4612    1.8742 O   0  0  0  0  0  0  0  0  0  0  0  0
    3.5089   -0.4083    2.7196 O   0  0  0  0  0  0  0  0  0  0  0  0
   -1.1009    1.6773    2.7025 O   0  0  0  0  0  0  0  0  0  0  0  0
   -0.4473   -2.7568    1.2037 O   0  0  0  0  0  0  0  0  0  0  0  0
   -2.1034   -0.9345    2.3093 O   0  0  0  0  0  0  0  0  0  0  0  0
    3.4951    1.1905    5.0233 O   0  0  0  0  0  0  0  0  0  0  0  0
    1.9028   -0.2476    4.2141 O   0  0  0  0  0  0  0  0  0  0  0  0
    2.3007   -3.3750   -0.2281 O   0  0  0  0  0  0  0  0  0  0  0  0
    3.0230   -4.6644    1.7304 O   0  0  0  0  0  0  0  0  0  0  0  0
    1.8782    2.7955    5.4334 O   0  0  0  0  0  0  0  0  0  0  0  0
    0.9891   -5.1025    0.6403 O   0  0  0  0  0  0  0  0  0  0  0  0
    1.2383    0.9705    2.3369 C   0  0  1  0  0  0  0  0  0  0  0  0
    1.6272   -1.3762    1.4954 C   0  0  2  0  0  0  0  0  0  0  0  0
    2.3202   -0.1048    1.9259 C   0  0  2  0  0  0  0  0  0  0  0  0
   -0.2304    0.5411    2.7612 C   0  0  2  0  0  0  0  0  0  0  0  0
    0.1706   -1.7098    1.9790 C   0  0  1  0  0  0  0  0  0  0  0  0
   -0.7819   -0.5568    1.8815 C   0  0  1  0  0  0  0  0  0  0  0  0
  1  3  1  0
  1  9  1  0
  1 10  1  0
  1 13  2  0
  2  4  1  0
  2 11  1  0
  2 12  1  0
  2 14  2  0
 15 17  1  0
 15 18  1  0
 15  3  1  1
 16 17  1  0
 16 19  1  0
 16  4  1  1
 17  5  1  1
 18 20  1  0
 18  6  1  6
 19  7  1  6
 19 20  1  0
 20  8  1  1
M  END
>  <DRUGBANK_ID>  (1) 
DB02942

>  <SECONDARY_ACCESSION_NUMBERS>  (1) 
EXPT01941

>  <COMMON_NAME>  (1) 
Inositol 1,3-Bisphosphate

$$$$
