
     RDKit          3D

 35 38  0  0  1  0  0  0  0  0999 V2000
    1.8810    1.5106    0.0314 C   0  0  0  0  0  0  0  0  0  0  0  0
    0.6055    0.7204   -0.0005 C   0  0  0  0  0  0  0  0  0  0  0  0
   -0.6129    1.4076    0.0275 C   0  0  0  0  0  0  0  0  0  0  0  0
   -1.8499    0.7467    0.0683 C   0  0  0  0  0  0  0  0  0  0  0  0
   -3.3691    1.6176    0.3003 S   0  0  0  0  0  0  0  0  0  0  0  0
   -3.1911    3.2665    0.2335 C   0  0  0  0  0  0  0  0  0  0  0  0
   -3.7457    4.0203    1.1836 C   0  0  0  0  0  0  0  0  0  0  0  0
   -4.4148    3.4945    2.2734 O   0  0  0  0  0  0  0  0  0  0  0  0
   -3.5813    5.4749    1.2414 C   0  0  0  0  0  0  0  0  0  0  0  0
   -2.7261    6.0666    0.1158 C   0  0  2  0  0  0  0  0  0  0  0  0
   -3.5675    7.1044   -0.6682 C   0  0  0  0  0  0  0  0  0  0  0  0
   -2.9944    7.6191   -2.0147 C   0  0  0  0  0  0  0  0  0  0  0  0
   -2.8063    6.6138   -3.1421 C   0  0  0  0  0  0  0  0  0  0  0  0
   -3.7516    6.4742   -4.1619 C   0  0  0  0  0  0  0  0  0  0  0  0
   -3.6313    5.4497   -5.1184 C   0  0  0  0  0  0  0  0  0  0  0  0
   -2.6153    4.5074   -5.0063 C   0  0  0  0  0  0  0  0  0  0  0  0
   -2.4865    3.4374   -5.8374 O   0  0  0  0  0  0  0  0  0  0  0  0
   -1.6590    4.6472   -4.0281 C   0  0  0  0  0  0  0  0  0  0  0  0
   -1.6973    5.7526   -3.1768 C   0  0  0  0  0  0  0  0  0  0  0  0
   -2.3082    5.1075   -0.8613 O   0  0  0  0  0  0  0  0  0  0  0  0
   -2.5236    3.8070   -0.9183 C   0  0  0  0  0  0  0  0  0  0  0  0
   -2.0998    3.1049   -1.8398 O   0  0  0  0  0  0  0  0  0  0  0  0
   -1.3870    6.5817    0.6742 C   0  0  0  0  0  0  0  0  0  0  0  0
   -0.5136    5.4367    1.2341 C   0  0  0  0  0  0  0  0  0  0  0  0
    0.4143    6.0930    2.2366 C   0  0  0  0  0  0  0  0  0  0  0  0
   -0.1663    7.4755    2.5288 C   0  0  0  0  0  0  0  0  0  0  0  0
   -1.5205    7.5406    1.8495 C   0  0  0  0  0  0  0  0  0  0  0  0
   -1.8789   -0.6671    0.0337 C   0  0  0  0  0  0  0  0  0  0  0  0
   -0.6276   -1.3404    0.0006 C   0  0  0  0  0  0  0  0  0  0  0  0
    0.6045   -0.6730   -0.0205 C   0  0  0  0  0  0  0  0  0  0  0  0
    1.7856   -1.3929    0.0995 N   0  0  0  0  0  0  0  0  0  0  0  0
   -3.1697   -1.5410    0.0666 C   0  0  0  0  0  0  0  0  0  0  0  0
   -3.2240   -2.4218   -1.1913 C   0  0  0  0  0  0  0  0  0  0  0  0
   -3.1610   -2.3969    1.3433 C   0  0  0  0  0  0  0  0  0  0  0  0
   -4.5368   -0.8268    0.0846 C   0  0  0  0  0  0  0  0  0  0  0  0
  1  2  1  0
  2  3  2  0
  2 30  1  0
  3  4  1  0
  4  5  1  0
  4 28  2  0
  5  6  1  0
  6  7  2  0
  6 21  1  0
  7  8  1  0
  7  9  1  0
  9 10  1  0
 10 20  1  0
 10 23  1  0
 10 11  1  6
 11 12  1  0
 12 13  1  0
 13 14  2  0
 13 19  1  0
 14 15  1  0
 15 16  2  0
 16 17  1  0
 16 18  1  0
 18 19  2  0
 20 21  1  0
 21 22  2  0
 23 24  1  0
 23 27  1  0
 24 25  1  0
 25 26  1  0
 26 27  1  0
 28 29  1  0
 28 32  1  0
 29 30  2  0
 30 31  1  0
 32 33  1  0
 32 34  1  0
 32 35  1  0
M  END
>  <DRUGBANK_ID>  (1) 
DB04298

>  <SECONDARY_ACCESSION_NUMBERS>  (1) 
EXPT02340

>  <COMMON_NAME>  (1) 
3-(4-Amino-2-Tert-Butyl-5-Methyl-Phenylsulfanyl)-6-Cyclopentyl-4-Hydroxy-6-[2-(4-Hydroxy-Phenyl)-Ethyl]-5,6-Dihydro-Pyran-2-One

$$$$
