
     RDKit          3D

 27 31  0  0  0  0  0  0  0  0999 V2000
    2.1010    0.7170   -0.0000 C   0  0  0  0  0  0  0  0  0  0  0  0
   -4.8793    5.6239    2.9437 C   0  0  0  0  0  0  0  0  0  0  0  0
    0.9160    1.3930   -0.0000 C   0  0  0  0  0  0  0  0  0  0  0  0
   -4.1294    4.8039    2.1523 C   0  0  0  0  0  0  0  0  0  0  0  0
    0.9510   -1.3900   -0.0020 C   0  0  0  0  0  0  0  0  0  0  0  0
   -4.5635    7.4548    1.4239 C   0  0  0  0  0  0  0  0  0  0  0  0
    2.1250   -0.6720   -0.0000 C   0  0  0  0  0  0  0  0  0  0  0  0
   -5.0987    6.9482    2.5861 C   0  0  0  0  0  0  0  0  0  0  0  0
   -0.2670   -0.7190    0.0050 C   0  0  0  0  0  0  0  0  0  0  0  0
   -3.7905    6.6365    0.6073 C   0  0  0  0  0  0  0  0  0  0  0  0
   -0.2930    0.6860   -0.0010 C   0  0  0  0  0  0  0  0  0  0  0  0
   -3.5725    5.2950    0.9647 C   0  0  0  0  0  0  0  0  0  0  0  0
   -1.6943    5.3332   -2.1506 C   0  0  0  0  0  0  0  0  0  0  0  0
    3.4572   -1.4038    0.0022 C   0  0  0  0  0  0  0  0  0  0  0  0
   -5.9358    7.8439    3.4847 C   0  0  0  0  0  0  0  0  0  0  0  0
   -2.3610    0.0410   -0.0000 C   0  0  0  0  0  0  0  0  0  0  0  0
   -2.5340    5.5993   -0.9119 C   0  0  0  0  0  0  0  0  0  0  0  0
    3.5511   -2.2471    1.2026 N   0  0  0  0  0  0  0  0  0  0  0  0
    3.5551   -2.2471   -1.1979 N   0  0  0  0  0  0  0  0  0  0  0  0
   -5.1244    8.9852    3.9317 N   0  0  0  0  0  0  0  0  0  0  0  0
   -7.1025    8.3349    2.7373 N   0  0  0  0  0  0  0  0  0  0  0  0
   -1.5830   -1.1250   -0.0010 N   0  0  0  0  0  0  0  0  0  0  0  0
   -3.1344    6.8241   -0.5889 N   0  0  0  0  0  0  0  0  0  0  0  0
   -1.5900    1.0710   -0.0000 N   0  0  0  0  0  0  0  0  0  0  0  0
   -2.8036    4.7352    0.0025 N   0  0  0  0  0  0  0  0  0  0  0  0
   -1.4907    6.2635   -2.9922 O   0  0  0  0  0  0  0  0  0  0  0  0
   -2.1968    2.9031    0.0012 Zn  0  0  0  0  0  2  0  0  0  0  0  0
  3  1  2  0
  4  2  1  0
  7  1  1  0
  7  5  2  0
  8  2  2  0
  8  6  1  0
  9  5  1  0
 10  6  2  0
 11  3  1  0
 11  9  2  0
 12  4  2  0
 12 10  1  0
 14  7  1  0
 15  8  1  0
 16 13  1  0
 17 13  1  0
 18 14  1  0
 19 14  1  0
 20 15  1  0
 21 15  1  0
 22  9  1  0
 22 16  1  0
 23 10  1  0
 23 17  1  0
 24 11  1  0
 24 16  2  0
 25 12  1  0
 25 17  2  0
 26 13  2  0
 27 24  1  0
 27 25  1  0
M  CHG  2  24   1  25   1
M  END
>  <DRUGBANK_ID>  (1) 
DB03443

>  <SECONDARY_ACCESSION_NUMBERS>  (1) 
EXPT00740

>  <COMMON_NAME>  (1) 
bis(5-amidino-benzimidazolyl)methanone zinc

$$$$
