
     RDKit          3D

 18 20  0  0  1  0  0  0  0  0999 V2000
    2.3724   -0.0445   -0.0100 C   0  0  0  0  0  0  0  0  0  0  0  0
    1.6808    1.0922   -0.0285 N   0  0  0  0  0  0  0  0  0  0  0  0
    0.3458    0.7265   -0.0205 C   0  0  0  0  0  0  0  0  0  0  0  0
   -0.8832    1.4138   -0.0097 C   0  0  0  0  0  0  0  0  0  0  0  0
   -2.0352    0.6931   -0.0023 N   0  0  0  0  0  0  0  0  0  0  0  0
   -1.9847   -0.6519    0.0032 C   0  0  0  0  0  0  0  0  0  0  0  0
   -0.8647   -1.3879    0.0023 N   0  0  0  0  0  0  0  0  0  0  0  0
    0.2501   -0.6486   -0.0120 C   0  0  0  0  0  0  0  0  0  0  0  0
    1.5515   -1.1263    0.0010 N   0  0  0  0  0  0  0  0  0  0  0  0
    1.7020   -2.5664    0.0991 C   0  0  1  0  0  0  0  0  0  0  0  0
    1.3243   -3.2904   -1.1700 C   0  0  0  0  0  0  0  0  0  0  0  0
    1.4230   -4.6620   -0.7770 O   0  0  0  0  0  0  0  0  0  0  0  0
    2.4433   -4.6324    0.2454 C   0  0  2  0  0  0  0  0  0  0  0  0
    2.9504   -3.2418    0.3746 O   0  0  0  0  0  0  0  0  0  0  0  0
    3.4997   -5.7285    0.0042 C   0  0  0  0  0  0  0  0  0  0  0  0
    3.3544   -6.4411   -1.2295 O   0  0  0  0  0  0  0  0  0  0  0  0
   -3.1616   -1.3348    0.0171 N   0  0  0  0  0  0  0  0  0  0  0  0
   -0.9828    2.7888    0.0008 N   0  0  0  0  0  0  0  0  0  0  0  0
  1  2  2  0
  1  9  1  0
  2  3  1  0
  3  4  2  0
  3  8  1  0
  4  5  1  0
  4 18  1  0
  5  6  2  0
  6  7  1  0
  6 17  1  0
  7  8  2  0
  8  9  1  0
 10  9  1  6
 10 11  1  0
 10 14  1  0
 11 12  1  0
 12 13  1  0
 13 14  1  0
 13 15  1  6
 15 16  1  0
M  END
>  <DRUGBANK_ID>  (1) 
DB06619

>  <COMMON_NAME>  (1) 
Amdoxovir

>  <CAS_NUMBER>  (1) 
145514-04-1

>  <UNII>  (1) 
54I81H0M9C

>  <SYNONYMS>  (1) 
Amdoxovir; beta-D-2,6-Diaminopurine-dioxolane; DAPD

$$$$
