
     RDKit          3D

 12 11  0  0  0  0  0  0  0  0999 V2000
    1.1435    0.0413    0.0608 O   0  0  0  0  0  0  0  0  0  0  0  0
    2.4135   -0.0553    0.0694 C   0  0  0  0  0  0  0  0  0  0  0  0
    3.1331   -0.3684    1.0754 O   0  0  0  0  0  0  0  0  0  0  0  0
    3.1607    0.5463   -1.1458 C   0  0  0  0  0  0  0  0  0  0  0  0
    2.8659   -0.0812   -2.5279 C   0  0  0  0  0  0  0  0  0  0  0  0
    2.3241    0.6890   -3.5080 C   0  0  0  0  0  0  0  0  0  0  0  0
    1.8505    0.5353   -4.9796 C   0  0  0  0  0  0  0  0  0  0  0  0
    1.3940    1.6294   -5.4663 O   0  0  0  0  0  0  0  0  0  0  0  0
    1.9475   -0.5532   -5.5957 O   0  0  0  0  0  0  0  0  0  0  0  0
    3.3017   -1.5972   -2.6109 C   0  0  0  0  0  0  0  0  0  0  0  0
    3.9986   -2.0140   -1.6342 O   0  0  0  0  0  0  0  0  0  0  0  0
    3.0101   -2.2681   -3.6372 O   0  0  0  0  0  0  0  0  0  0  0  0
  1  2  1  0
  2  3  2  0
  2  4  1  0
  4  5  1  0
  5  6  2  0
  5 10  1  0
  6  7  1  0
  7  8  1  0
  7  9  2  0
 10 11  1  0
 10 12  2  0
M  CHG  3   1  -1   8  -1  11  -1
M  END
>  <DRUGBANK_ID>  (1) 
DB04351

>  <SECONDARY_ACCESSION_NUMBERS>  (1) 
EXPT03104

>  <COMMON_NAME>  (1) 
Aconitate Ion

$$$$
