PR3
     RDKit          3D

 10  9  0  0  0  0  0  0  0  0999 V2000
    1.0707    0.5330    2.4651 N   0  0  0  0  0  0  0  0  0  0  0  0
    0.6001   -0.3461    1.3566 C   0  0  2  0  0  0  0  0  0  0  0  0
    1.2912    0.1093    0.0782 C   0  0  0  0  0  0  0  0  0  0  0  0
    2.0240    1.0982    0.0033 O   0  0  0  0  0  0  0  0  0  0  0  0
   -0.9339   -0.2830    1.2899 C   0  0  0  0  0  0  0  0  0  0  0  0
   -1.8852   -1.2699    0.0603 S   0  0  0  0  0  0  0  0  0  0  0  0
   -1.2233   -0.7252   -1.8099 S   0  0  0  0  0  0  0  0  0  0  0  0
   -1.5295   -2.1446   -2.9465 C   0  0  0  0  0  0  0  0  0  0  0  0
   -0.9404   -3.5266   -2.6458 C   0  0  0  0  0  0  0  0  0  0  0  0
   -1.4023   -4.1348   -1.3375 C   0  0  0  0  0  0  0  0  0  0  0  0
  2  5  1  0
  2  3  1  0
  2  1  1  1
  3  4  2  0
  5  6  1  0
  6  7  1  0
  7  8  1  0
  8  9  1  0
  9 10  1  0
M  END
>  <DRUGBANK_ID>  (1) 
DB03654

>  <SECONDARY_ACCESSION_NUMBERS>  (1) 
EXPT02654

>  <COMMON_NAME>  (1) 
S,S-Propylthiocysteine

$$$$
