
     RDKit          3D

 15 15  0  0  1  0  0  0  0  0999 V2000
    0.8865   -0.1114   -0.0777 N   0  0  0  0  0  0  0  0  0  0  0  0
    0.3693   -0.3680    1.2784 C   0  0  1  0  0  0  0  0  0  0  0  0
    0.8984    0.6655    2.2763 C   0  0  0  0  0  0  0  0  0  0  0  0
    0.4737    2.0424    2.0436 N   0  0  0  0  0  0  0  0  0  0  0  0
   -0.3920    2.7902    2.8114 C   0  0  0  0  0  0  0  0  0  0  0  0
   -0.8390    3.8542    2.3830 O   0  0  0  0  0  0  0  0  0  0  0  0
   -0.7265    2.3530    4.1898 C   0  0  0  0  0  0  0  0  0  0  0  0
    0.2748    1.8297    5.0195 C   0  0  0  0  0  0  0  0  0  0  0  0
   -0.0030    1.4658    6.3307 C   0  0  0  0  0  0  0  0  0  0  0  0
   -1.2603    1.7313    6.8594 C   0  0  0  0  0  0  0  0  0  0  0  0
   -2.2482    2.3150    6.0616 C   0  0  0  0  0  0  0  0  0  0  0  0
   -2.0036    2.5758    4.7099 C   0  0  0  0  0  0  0  0  0  0  0  0
   -1.1682   -0.3522    1.2951 C   0  0  0  0  0  0  0  0  0  0  0  0
   -1.7509   -1.4885    1.7385 O   0  0  0  0  0  0  0  0  0  0  0  0
   -1.8460    0.6135    0.9536 O   0  0  0  0  0  0  0  0  0  0  0  0
  2  1  1  6
  2  3  1  0
  2 13  1  0
  3  4  1  0
  4  5  1  0
  5  6  2  0
  5  7  1  0
  7  8  2  0
  7 12  1  0
  8  9  1  0
  9 10  2  0
 10 11  1  0
 11 12  2  0
 13 14  1  0
 13 15  2  0
M  END
>  <DRUGBANK_ID>  (1) 
DB03992

>  <SECONDARY_ACCESSION_NUMBERS>  (1) 
EXPT01128

>  <COMMON_NAME>  (1) 
3-(Benzoylamino)-L-Alanine

$$$$
