1488
     RDKit          3D

 14 15  0  0  0  0  0  0  0  0999 V2000
    1.1311   -0.1838    0.3811 N   0  0  0  0  0  0  0  0  0  0  0  0
   -0.4390    2.2885   -3.5019 N   0  0  0  0  0  0  0  0  0  0  0  0
    0.8040    2.4111    0.0421 C   0  0  0  0  0  0  0  0  0  0  0  0
    0.2366    2.6018   -1.3692 C   0  0  0  0  0  0  0  0  0  0  0  0
    0.5025    1.0972    0.8164 C   0  0  0  0  0  0  0  0  0  0  0  0
    0.1417    3.8608   -2.0583 C   0  0  0  0  0  0  0  0  0  0  0  0
   -0.2950    3.6123   -3.3668 C   0  0  0  0  0  0  0  0  0  0  0  0
   -0.3002    1.7108   -2.2908 C   0  0  0  0  0  0  0  0  0  0  0  0
    0.3803    5.1914   -1.6927 C   0  0  0  0  0  0  0  0  0  0  0  0
   -0.5271    4.5805   -4.3262 C   0  0  0  0  0  0  0  0  0  0  0  0
    0.6795   -0.5262   -0.9480 C   0  0  0  0  0  0  0  0  0  0  0  0
    2.5869   -0.0990    0.2986 C   0  0  0  0  0  0  0  0  0  0  0  0
    0.1387    6.1920   -2.6442 C   0  0  0  0  0  0  0  0  0  0  0  0
   -0.3070    5.8856   -3.9342 C   0  0  0  0  0  0  0  0  0  0  0  0
  1  5  1  0
  1 11  1  0
  1 12  1  0
  2  7  1  0
  2  8  1  0
  3  4  1  0
  3  5  1  0
  4  6  1  0
  4  8  2  0
  6  7  2  0
  6  9  1  0
  7 10  1  0
  9 13  2  0
 10 14  2  0
 13 14  1  0
M  END
>  <DRUGBANK_ID>  (1) 
DB01488

>  <COMMON_NAME>  (1) 
Dimethyltryptamine

>  <CAS_NUMBER>  (1) 
61-50-7

>  <UNII>  (1) 
WUB601BHAA

>  <SYNONYMS>  (1) 
2-(3-indolyl)ethyldimethylamine; 3-(2-dimethylaminoethyl)indole; 3-[2-(dimethylamino)ethyl]indole; DMT; N,N-dimethyl-1H-indole-3-ethylamine; N,N-dimethyltryptamine

$$$$
