
     RDKit          3D

 14 15  0  0  0  0  0  0  0  0999 V2000
    0.8091    0.0463    0.2852 N   0  0  0  0  0  0  0  0  0  0  0  0
    0.1464   -1.1117    0.5617 C   0  0  0  0  0  0  0  0  0  0  0  0
   -0.8410   -1.5432   -0.1538 N   0  0  0  0  0  0  0  0  0  0  0  0
   -1.4839   -2.7044    0.2356 C   0  0  0  0  0  0  0  0  0  0  0  0
   -1.2019   -3.3771    1.3837 C   0  0  0  0  0  0  0  0  0  0  0  0
   -1.8522   -4.5200    1.8365 N   0  0  0  0  0  0  0  0  0  0  0  0
   -2.8290   -4.9775    1.1070 C   0  0  0  0  0  0  0  0  0  0  0  0
   -3.5856   -6.2320    1.5481 C   0  0  0  0  0  0  0  0  0  0  0  0
   -2.7715   -7.3826    1.6563 O   0  0  0  0  0  0  0  0  0  0  0  0
   -3.3047   -4.3480   -0.1955 C   0  0  0  0  0  0  0  0  0  0  0  0
   -2.4836   -3.2204   -0.5719 N   0  0  0  0  0  0  0  0  0  0  0  0
   -0.0809   -2.8272    2.2021 C   0  0  0  0  0  0  0  0  0  0  0  0
    0.2505   -3.2848    3.2969 O   0  0  0  0  0  0  0  0  0  0  0  0
    0.5756   -1.7582    1.6726 N   0  0  0  0  0  0  0  0  0  0  0  0
  1  2  1  0
  2  3  2  0
  2 14  1  0
  3  4  1  0
  4  5  2  0
  4 11  1  0
  5  6  1  0
  5 12  1  0
  6  7  2  0
  7  8  1  0
  7 10  1  0
  8  9  1  0
 10 11  1  0
 12 13  2  0
 12 14  1  0
M  END
>  <DRUGBANK_ID>  (1) 
DB02119

>  <SECONDARY_ACCESSION_NUMBERS>  (1) 
EXPT01746

>  <COMMON_NAME>  (1) 
6-Hydroxymethyl-7,8-Dihydropterin

>  <CAS_NUMBER>  (1) 
3672-03-5

>  <UNII>  (1) 
B46L5LR2XM

$$$$
