
     RDKit          3D

 17 17  0  0  0  0  0  0  0  0999 V2000
    1.0069    0.0030    0.0921 C   0  0  0  0  0  0  0  0  0  0  0  0
    0.5832   -1.3836   -0.3055 C   0  0  0  0  0  0  0  0  0  0  0  0
    1.3189   -2.4936    0.1754 C   0  0  0  0  0  0  0  0  0  0  0  0
    2.3643   -2.1840    1.0055 O   0  0  0  0  0  0  0  0  0  0  0  0
    0.9728   -3.7912   -0.1995 C   0  0  0  0  0  0  0  0  0  0  0  0
    1.7710   -4.9405    0.3002 C   0  0  0  0  0  0  0  0  0  0  0  0
    1.5274   -6.0853   -0.0475 O   0  0  0  0  0  0  0  0  0  0  0  0
   -0.1469   -3.9652   -1.0312 C   0  0  0  0  0  0  0  0  0  0  0  0
   -0.7733   -5.2768   -1.4144 C   0  0  0  0  0  0  0  0  0  0  0  0
   -1.9851   -5.3818   -0.7065 O   0  0  0  0  0  0  0  0  0  0  0  0
   -2.0331   -5.7263    0.8594 P   0  0  0  0  0  0  0  0  0  0  0  0
   -3.1198   -6.8866    0.8377 O   0  0  0  0  0  0  0  0  0  0  0  0
   -0.6990   -6.4944    1.2395 O   0  0  0  0  0  0  0  0  0  0  0  0
   -2.3607   -4.5512    1.7153 O   0  0  0  0  0  0  0  0  0  0  0  0
   -0.8627   -2.8366   -1.4531 C   0  0  0  0  0  0  0  0  0  0  0  0
   -0.5032   -1.5876   -1.0997 N   0  0  0  0  0  0  0  0  0  0  0  0
   -1.3293   -0.4592   -1.5905 C   0  0  0  0  0  0  0  0  0  0  0  0
  1  2  1  0
  2  3  2  0
  2 16  1  0
  3  4  1  0
  3  5  1  0
  5  6  1  0
  5  8  2  0
  6  7  2  0
  8  9  1  0
  8 15  1  0
  9 10  1  0
 10 11  1  0
 11 12  1  0
 11 13  1  0
 11 14  2  0
 15 16  2  0
 16 17  1  0
M  CHG  1  16   1
M  END
>  <DRUGBANK_ID>  (1) 
DB01639

>  <SECONDARY_ACCESSION_NUMBERS>  (1) 
EXPT02223

>  <COMMON_NAME>  (1) 
N-Methyl-Pyridoxal-5'-Phosphate

$$$$
