
     RDKit          3D

 30 33  0  0  0  0  0  0  0  0999 V2000
    0.9838    0.0206   -0.0536 C   0  0  0  0  0  0  0  0  0  0  0  0
    0.5055    1.4089    0.1670 C   0  0  0  0  0  0  0  0  0  0  0  0
    1.2183    2.4879   -0.1076 N   0  0  0  0  0  0  0  0  0  0  0  0
    0.3915    3.5525    0.1202 C   0  0  0  0  0  0  0  0  0  0  0  0
    0.6675    4.9293    0.0224 C   0  0  0  0  0  0  0  0  0  0  0  0
   -0.3367    5.8450    0.3565 C   0  0  0  0  0  0  0  0  0  0  0  0
   -1.5863    5.3905    0.7637 C   0  0  0  0  0  0  0  0  0  0  0  0
   -2.5229    6.2868    1.1035 F   0  0  0  0  0  0  0  0  0  0  0  0
   -1.8931    4.0301    0.8462 C   0  0  0  0  0  0  0  0  0  0  0  0
   -0.8752    3.1238    0.5130 C   0  0  0  0  0  0  0  0  0  0  0  0
   -0.7874    1.7377    0.5485 N   0  0  0  0  0  0  0  0  0  0  0  0
   -1.8507    0.8371    0.8644 C   0  0  0  0  0  0  0  0  0  0  0  0
   -1.6478   -0.1197    1.7960 N   0  0  0  0  0  0  0  0  0  0  0  0
   -2.7008   -0.9198    2.0754 C   0  0  0  0  0  0  0  0  0  0  0  0
   -2.5540   -1.8431    3.0953 N   0  0  0  0  0  0  0  0  0  0  0  0
   -3.8882   -0.8484    1.3695 C   0  0  0  0  0  0  0  0  0  0  0  0
   -4.9059   -1.6906    1.6343 F   0  0  0  0  0  0  0  0  0  0  0  0
   -4.0045    0.1197    0.3973 C   0  0  0  0  0  0  0  0  0  0  0  0
   -5.1428    0.1178   -0.4552 N   0  0  0  0  0  0  0  0  0  0  0  0
   -5.3184    1.0469   -1.4965 C   0  0  0  0  0  0  0  0  0  0  0  0
   -4.3718    1.0752   -2.5266 C   0  0  0  0  0  0  0  0  0  0  0  0
   -4.3036    2.1458   -3.4095 C   0  0  0  0  0  0  0  0  0  0  0  0
   -5.2349    3.1862   -3.3272 C   0  0  0  0  0  0  0  0  0  0  0  0
   -6.2680    3.0990   -2.3802 C   0  0  0  0  0  0  0  0  0  0  0  0
   -6.2854    2.0566   -1.4421 C   0  0  0  0  0  0  0  0  0  0  0  0
   -5.0591    4.3956   -4.2094 C   0  0  0  0  0  0  0  0  0  0  0  0
   -3.8811    5.0389   -3.9703 F   0  0  0  0  0  0  0  0  0  0  0  0
   -5.0474    4.0800   -5.5336 F   0  0  0  0  0  0  0  0  0  0  0  0
   -6.0328    5.3343   -4.0539 F   0  0  0  0  0  0  0  0  0  0  0  0
   -2.9996    1.0029    0.1823 N   0  0  0  0  0  0  0  0  0  0  0  0
  1  2  1  0
  2  3  2  0
  2 11  1  0
  3  4  1  0
  4  5  2  0
  4 10  1  0
  5  6  1  0
  6  7  2  0
  7  8  1  0
  7  9  1  0
  9 10  2  0
 10 11  1  0
 11 12  1  0
 12 13  2  0
 12 30  1  0
 13 14  1  0
 14 15  1  0
 14 16  2  0
 16 17  1  0
 16 18  1  0
 18 19  1  0
 18 30  2  0
 19 20  1  0
 20 21  2  0
 20 25  1  0
 21 22  1  0
 22 23  2  0
 23 24  1  0
 23 26  1  0
 24 25  2  0
 26 27  1  0
 26 28  1  0
 26 29  1  0
M  END
>  <DRUGBANK_ID>  (1) 
DB18080

>  <COMMON_NAME>  (1) 
Unesbulin

>  <CAS_NUMBER>  (1) 
1610964-64-1

>  <UNII>  (1) 
Z4HZ70S62Q

>  <SYNONYMS>  (1) 
4,6-pyrimidinediamine, 5-fluoro-2-(6-fluoro-2-methyl-1h-benzimidazol-1-yl)-n4-(4-(trifluoromethyl)phenyl)-; 5-fluoro-2-(6-fluoro-2-methyl-1h-benzimidazol-1-yl)-n4-(4-(trifluoromethyl)phenyl)-4,6-pyrimidinediamine; 5-fluoro-2-(6-fluoro-2-methyl-1h-benzo(d)imidazole-1-yl)-n4-(4-(trifluoromethyl)phenyl)pyrimidine-4,6-diamine; 5-fluoro-2-(6-fluoro-2-methyl-1H-benzo[d]imidazole-1-yl)-N4-(4-(trifluoromethyl)phenyl)pyrimidine-4,6-diamine; Bmi1 inhibitor ptc596; Polycomb ring finger oncogene inhibitor ptc596

$$$$
