
     RDKit          3D

  7  0  0  0  0  0  0  0  0  0999 V2000
    1.0125   -0.0490    0.0863 S   0  0  0  0  0  0  0  0  0  0  0  0
    1.0714   -0.0184   -0.0676 S   0  0  0  0  0  0  0  0  0  0  0  0
    1.0208    0.0918    0.0337 S   0  0  0  0  0  0  0  0  0  0  0  0
    0.9008    0.0081   -0.0098 S   0  0  0  0  0  0  0  0  0  0  0  0
    1.0453   -0.0622    0.0639 S   0  0  0  0  0  0  0  0  0  0  0  0
    1.0384   -0.0896    0.0224 Sb  0  0  0  0  0 15  0  0  0  0  0  0
    1.0445   -0.0750    0.0490 Sb  0  0  0  0  0 15  0  0  0  0  0  0
M  CHG  7   1  -2   2  -2   3  -2   4  -2   5  -2   6   5   7   5
M  END
>  <DRUGBANK_ID>  (1) 
DB13473

>  <COMMON_NAME>  (1) 
Antimony pentasulfide

>  <CAS_NUMBER>  (1) 
1315-04-4

>  <UNII>  (1) 
1433F1I86N

$$$$
