P19
     RDKit          3D

 23 26  0  0  0  0  0  0  0  0999 V2000
   -1.5423   -1.0607    0.1065 N   0  0  0  0  0  0  0  0  0  0  0  0
   -2.3088    0.0251    0.0371 C   0  0  0  0  0  0  0  0  0  0  0  0
   -1.5526    1.2039    0.0034 C   0  0  0  0  0  0  0  0  0  0  0  0
   -0.2479    0.7821    0.0157 C   0  0  0  0  0  0  0  0  0  0  0  0
   -0.2803   -0.5810    0.0323 N   0  0  0  0  0  0  0  0  0  0  0  0
    0.9300    1.4334    0.0108 N   0  0  0  0  0  0  0  0  0  0  0  0
    2.0346    0.7381    0.0156 C   0  0  0  0  0  0  0  0  0  0  0  0
    2.0525   -0.6647   -0.0036 N   0  0  0  0  0  0  0  0  0  0  0  0
    0.9136   -1.3363   -0.0036 C   0  0  0  0  0  0  0  0  0  0  0  0
    0.9024   -2.7342   -0.0117 N   0  0  0  0  0  0  0  0  0  0  0  0
   -0.2185   -3.5932   -0.0448 C   0  0  0  0  0  0  0  0  0  0  0  0
   -1.1506   -3.5286   -1.0917 C   0  0  0  0  0  0  0  0  0  0  0  0
   -2.3569   -4.2340   -1.0369 C   0  0  0  0  0  0  0  0  0  0  0  0
   -2.6266   -5.0655    0.0445 C   0  0  0  0  0  0  0  0  0  0  0  0
   -1.6836   -5.1977    1.0625 C   0  0  0  0  0  0  0  0  0  0  0  0
   -0.4840   -4.4700    1.0170 C   0  0  0  0  0  0  0  0  0  0  0  0
    3.2428    1.4157    0.0171 N   0  0  0  0  0  0  0  0  0  0  0  0
    3.3666    2.8239    0.0379 C   0  0  0  0  0  0  0  0  0  0  0  0
    4.0162    3.5137   -0.9965 C   0  0  0  0  0  0  0  0  0  0  0  0
    4.0341    4.9184   -1.0265 C   0  0  0  0  0  0  0  0  0  0  0  0
    3.4222    5.6532   -0.0126 C   0  0  0  0  0  0  0  0  0  0  0  0
    2.7974    4.9848    1.0349 C   0  0  0  0  0  0  0  0  0  0  0  0
    2.7660    3.5855    1.0530 C   0  0  0  0  0  0  0  0  0  0  0  0
  1  2  2  0
  1  5  1  0
  2  3  1  0
  3  4  2  0
  4  6  1  0
  4  5  1  0
  5  9  1  0
  6  7  2  0
  7 17  1  0
  7  8  1  0
  8  9  2  0
  9 10  1  0
 10 11  1  0
 11 12  2  0
 11 16  1  0
 12 13  1  0
 13 14  2  0
 14 15  1  0
 15 16  2  0
 17 18  1  0
 18 23  1  0
 18 19  2  0
 19 20  1  0
 20 21  2  0
 21 22  1  0
 22 23  2  0
M  END
>  <DRUGBANK_ID>  (1) 
DB08340

>  <COMMON_NAME>  (1) 
N,N'-DIPHENYLPYRAZOLO[1,5-A][1,3,5]TRIAZINE-2,4-DIAMINE

$$$$
