
     RDKit          3D

 22 24  0  0  1  0  0  0  0  0999 V2000
    1.0975   -0.0680    0.0313 C   0  0  0  0  0  0  0  0  0  0  0  0
    0.5885    0.8274   -1.0801 C   0  0  0  0  0  0  0  0  0  0  0  0
    0.9191    0.2929   -2.3893 N   0  0  0  0  0  0  0  0  0  0  0  0
    0.0834   -0.1110   -3.3930 C   0  0  0  0  0  0  0  0  0  0  0  0
    0.5782   -0.5441   -4.4411 O   0  0  0  0  0  0  0  0  0  0  0  0
   -1.4381   -0.0476   -3.2003 C   0  0  2  0  0  0  0  0  0  0  0  0
   -2.0257   -1.3608   -3.3135 O   0  0  0  0  0  0  0  0  0  0  0  0
   -2.9767   -1.3368   -4.4058 C   0  0  2  0  0  0  0  0  0  0  0  0
   -3.3959    0.1327   -4.5190 C   0  0  2  0  0  0  0  0  0  0  0  0
   -3.9586    0.5339   -5.7592 O   0  0  0  0  0  0  0  0  0  0  0  0
   -2.0680    0.8362   -4.2707 C   0  0  1  0  0  0  0  0  0  0  0  0
   -2.2177    2.1893   -3.8388 O   0  0  0  0  0  0  0  0  0  0  0  0
   -4.0672   -2.2592   -4.1337 N   0  0  0  0  0  0  0  0  0  0  0  0
   -4.2098   -3.0657   -3.0334 C   0  0  0  0  0  0  0  0  0  0  0  0
   -5.3055   -3.7943   -3.0849 N   0  0  0  0  0  0  0  0  0  0  0  0
   -5.8920   -3.4635   -4.2882 C   0  0  0  0  0  0  0  0  0  0  0  0
   -5.1276   -2.5254   -4.9661 C   0  0  0  0  0  0  0  0  0  0  0  0
   -5.3912   -1.9963   -6.1724 N   0  0  0  0  0  0  0  0  0  0  0  0
   -6.5588   -2.4674   -6.6631 C   0  0  0  0  0  0  0  0  0  0  0  0
   -7.3992   -3.3734   -6.1156 N   0  0  0  0  0  0  0  0  0  0  0  0
   -7.0753   -3.8990   -4.9128 C   0  0  0  0  0  0  0  0  0  0  0  0
   -7.9189   -4.8299   -4.3487 N   0  0  0  0  0  0  0  0  0  0  0  0
  1  2  1  0
  2  3  1  0
  3  4  1  0
  4  5  2  0
  6  4  1  6
  6  7  1  0
  6 11  1  0
  7  8  1  0
  8  9  1  0
  8 13  1  1
  9 10  1  6
  9 11  1  0
 11 12  1  1
 13 14  1  0
 13 17  1  0
 14 15  2  0
 15 16  1  0
 16 17  2  0
 16 21  1  0
 17 18  1  0
 18 19  2  0
 19 20  1  0
 20 21  2  0
 21 22  1  0
M  END
>  <DRUGBANK_ID>  (1) 
DB03719

>  <SECONDARY_ACCESSION_NUMBERS>  (1) 
EXPT02324

>  <COMMON_NAME>  (1) 
N-Ethyl-5'-Carboxamido Adenosine

$$$$
