SDZ
     RDKit          3D

 29 32  0  0  0  0  0  0  0  0999 V2000
   -4.8447   -8.3321    1.4571 N   0  0  0  0  0  0  0  0  0  0  0  0
   -5.5410   -9.3803    1.9972 C   0  0  0  0  0  0  0  0  0  0  0  0
   -6.4958  -10.1036    1.3854 C   0  0  0  0  0  0  0  0  0  0  0  0
   -7.0103   -9.4996    0.2562 C   0  0  0  0  0  0  0  0  0  0  0  0
   -6.4061   -8.3415   -0.2284 C   0  0  0  0  0  0  0  0  0  0  0  0
   -5.2234   -7.8443    0.2729 C   0  0  0  0  0  0  0  0  0  0  0  0
   -4.7402   -6.6716   -0.2876 N   0  0  0  0  0  0  0  0  0  0  0  0
   -5.5214   -5.5988    0.3144 C   0  0  0  0  0  0  0  0  0  0  0  0
   -5.5792   -4.3878   -0.6118 C   0  0  0  0  0  0  0  0  0  0  0  0
   -4.2675   -3.8092   -0.9243 N   0  0  0  0  0  0  0  0  0  0  0  0
   -3.3524   -6.3179   -0.6787 C   0  0  0  0  0  0  0  0  0  0  0  0
   -3.4030   -4.9308   -1.4618 C   0  0  0  0  0  0  0  0  0  0  0  0
   -3.7420   -2.9619    0.2062 C   0  0  0  0  0  0  0  0  0  0  0  0
   -3.4030   -3.5460    1.6184 C   0  0  2  0  0  0  0  0  0  0  0  0
   -2.8187   -4.7427    1.2518 O   0  0  0  0  0  0  0  0  0  0  0  0
   -4.5283   -3.7902    2.6825 C   0  0  0  0  0  0  0  0  0  0  0  0
   -4.3657   -4.7885    3.7768 O   0  0  0  0  0  0  0  0  0  0  0  0
   -3.9157   -6.0896    3.6456 C   0  0  0  0  0  0  0  0  0  0  0  0
   -2.7271   -6.4426    3.0291 C   0  0  0  0  0  0  0  0  0  0  0  0
   -2.3330   -7.7550    2.6824 C   0  0  0  0  0  0  0  0  0  0  0  0
   -2.9066   -8.8323    3.3238 C   0  0  0  0  0  0  0  0  0  0  0  0
   -3.8843   -8.4699    4.3023 C   0  0  0  0  0  0  0  0  0  0  0  0
   -4.4706   -7.1466    4.3600 C   0  0  0  0  0  0  0  0  0  0  0  0
   -2.6648  -10.2913    2.8186 C   0  0  0  0  0  0  0  0  0  0  0  0
   -1.1937  -10.7223    2.9084 C   0  0  0  0  0  0  0  0  0  0  0  0
   -1.0414  -12.2124    2.5397 C   0  0  0  0  0  0  0  0  0  0  0  0
   -1.5633  -12.5622    1.1448 C   0  0  0  0  0  0  0  0  0  0  0  0
   -3.0011  -12.1515    1.0286 C   0  0  0  0  0  0  0  0  0  0  0  0
   -3.0731  -10.6653    1.3321 C   0  0  0  0  0  0  0  0  0  0  0  0
  1  2  2  0
  1  6  1  0
  2  3  1  0
  3  4  2  0
  4  5  1  0
  5  6  2  0
  6  7  1  0
  7  8  1  0
  7 11  1  0
  8  9  1  0
  9 10  1  0
 10 12  1  0
 10 13  1  0
 11 12  1  0
 14 16  1  0
 14 15  1  6
 14 13  1  0
 16 17  1  0
 17 18  1  0
 18 19  2  0
 18 23  1  0
 19 20  1  0
 20 21  2  0
 21 22  1  0
 21 24  1  0
 22 23  2  0
 24 25  1  0
 24 29  1  0
 25 26  1  0
 26 27  1  0
 27 28  1  0
 28 29  1  0
M  END
>  <DRUGBANK_ID>  (1) 
DB08543

>  <COMMON_NAME>  (1) 
1-[2-HYDROXY-3-(4-CYCLOHEXYL-PHENOXY)-PROPYL]-4-(2-PYRIDYL)-PIPERAZINE

$$$$
