959
     RDKit          3D

 15 15  0  0  0  0  0  0  0  0999 V2000
    0.9198   -0.0745   -0.0630 O   0  0  0  0  0  0  0  0  0  0  0  0
    2.1508   -0.0509   -0.0217 C   0  0  0  0  0  0  0  0  0  0  0  0
    2.9464   -1.3322    0.0161 C   0  0  0  0  0  0  0  0  0  0  0  0
    2.9382    1.2557   -0.0438 C   0  0  0  0  0  0  0  0  0  0  0  0
    2.5680    2.0463   -1.2010 N   0  0  0  0  0  0  0  0  0  0  0  0
    1.8634    3.2108   -1.1930 C   0  0  0  0  0  0  0  0  0  0  0  0
    1.4854    3.7189   -2.2450 O   0  0  0  0  0  0  0  0  0  0  0  0
    1.7557    3.7679    0.0363 O   0  0  0  0  0  0  0  0  0  0  0  0
    1.1870    5.0897    0.0925 C   0  0  0  0  0  0  0  0  0  0  0  0
    2.0489    6.1887   -0.4992 C   0  0  0  0  0  0  0  0  0  0  0  0
    1.6097    7.5186   -0.4243 C   0  0  0  0  0  0  0  0  0  0  0  0
    2.3771    8.5496   -0.9729 C   0  0  0  0  0  0  0  0  0  0  0  0
    3.5933    8.2671   -1.5932 C   0  0  0  0  0  0  0  0  0  0  0  0
    4.0557    6.9596   -1.6469 C   0  0  0  0  0  0  0  0  0  0  0  0
    3.2787    5.9314   -1.1245 C   0  0  0  0  0  0  0  0  0  0  0  0
  1  2  2  0
  2  3  1  0
  2  4  1  0
  4  5  1  0
  5  6  1  0
  6  7  2  0
  6  8  1  0
  8  9  1  0
  9 10  1  0
 10 11  2  0
 10 15  1  0
 11 12  1  0
 12 13  2  0
 13 14  1  0
 14 15  2  0
M  END
>  <DRUGBANK_ID>  (1) 
DB07293

>  <COMMON_NAME>  (1) 
benzyl (2-oxopropyl)carbamate

>  <UNII>  (1) 
UAZ6B2TP7B

$$$$
