
     RDKit          3D

 13 12  0  0  1  0  0  0  0  0999 V2000
    1.0319    0.0042    0.0304 C   0  0  0  0  0  0  0  0  0  0  0  0
    0.4719   -0.3486    1.4112 C   0  0  1  0  0  0  0  0  0  0  0  0
    0.5691    1.3616   -0.4296 C   0  0  0  0  0  0  0  0  0  0  0  0
    1.0026    0.5766    2.4920 C   0  0  0  0  0  0  0  0  0  0  0  0
   -1.0228   -0.4925    1.3388 C   0  0  0  0  0  0  0  0  0  0  0  0
    0.0183    1.3891    3.3612 C   0  0  0  0  0  0  0  0  0  0  0  0
   -0.0789    1.5986   -1.4341 O   0  0  0  0  0  0  0  0  0  0  0  0
    0.9279    2.3445    0.4191 O   0  0  0  0  0  0  0  0  0  0  0  0
    2.2050    0.7406    2.7108 O   0  0  0  0  0  0  0  0  0  0  0  0
   -1.6528   -1.4783    1.6838 O   0  0  0  0  0  0  0  0  0  0  0  0
   -1.6423    0.6111    0.8841 O   0  0  0  0  0  0  0  0  0  0  0  0
    0.6363    2.2749    4.1611 O   0  0  0  0  0  0  0  0  0  0  0  0
   -1.1905    1.2380    3.3473 O   0  0  0  0  0  0  0  0  0  0  0  0
  2  1  1  6
  2  5  1  0
  3  1  1  0
  4  2  1  0
  6  4  1  0
  7  3  2  0
  8  3  1  0
  9  4  2  0
 10  5  2  0
 11  5  1  0
 12  6  1  0
 13  6  2  0
M  END
>  <DRUGBANK_ID>  (1) 
DB02190

>  <SECONDARY_ACCESSION_NUMBERS>  (1) 
EXPT02465

>  <COMMON_NAME>  (1) 
(S)-oxalosuccinic acid

$$$$
