
     RDKit          3D

 22 25  0  0  1  0  0  0  0  0999 V2000
    6.8438   -7.7379    4.1335 C   0  0  0  0  0  0  0  0  0  0  0  0
   10.3399   -6.6151    9.7425 C   0  0  0  0  0  0  0  0  0  0  0  0
   10.7584   -5.7903    8.6815 C   0  0  0  0  0  0  0  0  0  0  0  0
    9.1195   -7.2875    9.6467 C   0  0  0  0  0  0  0  0  0  0  0  0
    9.9826   -5.6906    7.5534 C   0  0  0  0  0  0  0  0  0  0  0  0
    6.8842   -7.6841    8.5668 C   0  0  0  0  0  0  0  0  0  0  0  0
    6.5637   -8.0690    7.1340 C   0  0  0  0  0  0  0  0  0  0  0  0
    6.2788   -4.6600    3.9819 C   0  0  0  0  0  0  0  0  0  0  0  0
    5.3377   -5.8015    4.4173 C   0  0  0  0  0  0  0  0  0  0  0  0
    6.5398   -2.4533    5.1497 C   0  0  0  0  0  0  0  0  0  0  0  0
    7.7217   -3.5824    7.3903 C   0  0  0  0  0  0  0  0  0  0  0  0
    8.2655   -7.0769    8.5827 C   0  0  0  0  0  0  0  0  0  0  0  0
    6.7373   -3.8445    5.1649 C   0  0  0  0  0  0  0  0  0  0  0  0
    8.6955   -6.2617    7.5016 C   0  0  0  0  0  0  0  0  0  0  0  0
    7.3985   -4.4124    6.2899 C   0  0  0  0  0  0  0  0  0  0  0  0
    6.9146   -1.6479    6.2349 C   0  0  0  0  0  0  0  0  0  0  0  0
    6.4522   -6.7520    6.3391 C   0  0  1  0  0  0  0  0  0  0  0  0
    7.5103   -2.2141    7.3481 C   0  0  0  0  0  0  0  0  0  0  0  0
    7.7650   -5.9115    6.3460 C   0  0  2  0  0  0  0  0  0  0  0  0
    6.6143    0.0478    6.1667 Cl  0  0  0  0  0  0  0  0  0  0  0  0
    5.9169   -7.0163    4.9977 N   0  0  0  0  0  0  0  0  0  0  0  0
    7.9116   -1.4572    8.4121 O   0  0  0  0  0  0  0  0  0  0  0  0
  3  2  2  0
  4  2  1  0
  5  3  1  0
  7  6  1  0
  9  8  1  0
 12  4  2  0
 12  6  1  0
 13  8  1  0
 13 10  2  0
 14  5  2  0
 14 12  1  0
 15 11  2  0
 15 13  1  0
 16 10  1  0
 17  7  1  6
 18 11  1  0
 18 16  2  0
 19 14  1  1
 19 15  1  0
 19 17  1  0
 20 16  1  0
 21  9  1  0
 21 17  1  0
 21  1  1  0
 22 18  1  0
M  END
>  <DRUGBANK_ID>  (1) 
DB12273

>  <COMMON_NAME>  (1) 
Ecopipam

>  <CAS_NUMBER>  (1) 
112108-01-7

>  <UNII>  (1) 
0X748O646K

>  <SYNONYMS>  (1) 
Ecopipam

$$$$
