
     RDKit          3D

 24 25  0  0  0  0  0  0  0  0999 V2000
    0.7041    0.5685    0.4605 C   0  0  0  0  0  0  0  0  0  0  0  0
    0.2030   -0.8157    1.1383 C   0  0  0  0  0  0  0  0  0  0  0  0
    0.8819   -1.3963    2.3333 N   0  0  0  0  0  0  0  0  0  0  0  0
    0.3764   -0.3297    3.3134 C   0  0  0  0  0  0  0  0  0  0  0  0
   -1.1822   -0.1954    3.2789 C   0  0  0  0  0  0  0  0  0  0  0  0
    0.2101   -2.9050    2.5510 C   0  0  0  0  0  0  0  0  0  0  0  0
    0.3262   -4.0769    1.4744 C   0  0  0  0  0  0  0  0  0  0  0  0
    0.3964   -5.2591    1.9819 O   0  0  0  0  0  0  0  0  0  0  0  0
    0.4239   -4.0477    0.0905 N   0  0  0  0  0  0  0  0  0  0  0  0
   -0.2503   -3.2087   -0.8743 C   0  0  0  0  0  0  0  0  0  0  0  0
    0.2188   -1.9322   -1.2331 C   0  0  0  0  0  0  0  0  0  0  0  0
    1.7005   -1.6690   -0.8418 C   0  0  0  0  0  0  0  0  0  0  0  0
   -0.8484   -0.9916   -1.4838 C   0  0  0  0  0  0  0  0  0  0  0  0
   -2.1562   -1.3605   -1.7587 C   0  0  0  0  0  0  0  0  0  0  0  0
   -2.4177   -2.6983   -1.8553 C   0  0  0  0  0  0  0  0  0  0  0  0
   -1.4715   -3.6252   -1.3930 C   0  0  0  0  0  0  0  0  0  0  0  0
   -1.7502   -5.0791   -1.5018 C   0  0  0  0  0  0  0  0  0  0  0  0
    2.6204   -1.5837    2.3222 C   0  0  0  0  0  0  0  0  0  0  0  0
    3.3619   -2.7230    1.5123 C   0  0  0  0  0  0  0  0  0  0  0  0
    4.2200   -2.5483    0.3836 C   0  0  0  0  0  0  0  0  0  0  0  0
    4.4878   -3.6171   -0.5294 C   0  0  0  0  0  0  0  0  0  0  0  0
    3.9263   -4.8726   -0.3341 C   0  0  0  0  0  0  0  0  0  0  0  0
    3.2458   -5.0932    0.8499 C   0  0  0  0  0  0  0  0  0  0  0  0
    3.0703   -4.0572    1.7980 C   0  0  0  0  0  0  0  0  0  0  0  0
  1  2  1  0
  2  3  1  0
  3  4  1  0
  3  6  1  0
  3 18  1  0
  4  5  1  0
  6  7  1  0
  7  8  2  0
  7  9  1  0
  9 10  1  0
 10 11  2  0
 10 16  1  0
 11 12  1  0
 11 13  1  0
 13 14  2  0
 14 15  1  0
 15 16  2  0
 16 17  1  0
 18 19  1  0
 19 20  2  0
 19 24  1  0
 20 21  1  0
 21 22  2  0
 22 23  1  0
 23 24  2  0
M  CHG  1   3   1
M  END
>  <DRUGBANK_ID>  (1) 
DB18588

>  <COMMON_NAME>  (1) 
Denatonium

>  <CAS_NUMBER>  (1) 
47324-98-1

>  <UNII>  (1) 
4IK22DF4OU

>  <SYNONYMS>  (1) 
Benzenemethanaminium, n-(2-((2,6-dimethylphenyl)amino)-2-oxoethyl)-n,n-diethyl; Benzyldiethyl((2,6-xylylcarbamoyl)methyl)ammonium

$$$$
