
     RDKit          3D

  9  9  0  0  0  0  0  0  0  0999 V2000
    0.9554    0.0882   -0.0139 O   0  0  0  0  0  0  0  0  0  0  0  0
    0.4805    1.1530    0.7996 C   0  0  0  0  0  0  0  0  0  0  0  0
    0.9949    1.0428    2.2125 C   0  0  0  0  0  0  0  0  0  0  0  0
    1.2795    2.2042    2.9471 C   0  0  0  0  0  0  0  0  0  0  0  0
    1.7038    2.1191    4.2758 C   0  0  0  0  0  0  0  0  0  0  0  0
    1.8366    0.8721    4.8811 C   0  0  0  0  0  0  0  0  0  0  0  0
    2.3948    0.7580    6.6836 Br  0  0  0  0  0  0  0  0  0  0  0  0
    1.5509   -0.2915    4.1704 C   0  0  0  0  0  0  0  0  0  0  0  0
    1.1254   -0.2041    2.8425 C   0  0  0  0  0  0  0  0  0  0  0  0
  1  2  1  0
  2  3  1  0
  3  4  2  0
  3  9  1  0
  4  5  1  0
  5  6  2  0
  6  7  1  0
  6  8  1  0
  8  9  2  0
M  END
>  <DRUGBANK_ID>  (1) 
DB02822

>  <SECONDARY_ACCESSION_NUMBERS>  (1) 
EXPT00748

>  <COMMON_NAME>  (1) 
Para-Bromobenzyl Alcohol

>  <CAS_NUMBER>  (1) 
873-75-6

$$$$
