
     RDKit          3D

 36 38  0  0  0  0  0  0  0  0999 V2000
   -2.9587    1.0383   -0.6058 C   0  0  0  0  0  0  0  0  0  0  0  0
   -2.7358   -0.4669   -0.4060 C   0  0  0  0  0  0  0  0  0  0  0  0
   -2.0163   -0.8348    0.8090 N   0  0  0  0  0  0  0  0  0  0  0  0
   -1.6280   -2.2505    0.8290 C   0  0  0  0  0  0  0  0  0  0  0  0
   -0.4923   -2.6287   -0.1556 C   0  0  0  0  0  0  0  0  0  0  0  0
    0.7639   -1.9781    0.1838 N   0  0  0  0  0  0  0  0  0  0  0  0
    1.7227   -1.9627   -0.9026 C   0  0  0  0  0  0  0  0  0  0  0  0
    2.9419   -1.0921   -0.5920 C   0  0  0  0  0  0  0  0  0  0  0  0
    2.6235    0.4121   -0.4684 C   0  0  0  0  0  0  0  0  0  0  0  0
    1.9115    0.8084    0.7567 N   0  0  0  0  0  0  0  0  0  0  0  0
    1.5190    2.2290    0.7462 C   0  0  0  0  0  0  0  0  0  0  0  0
    0.3897    2.6650   -0.1748 C   0  0  0  0  0  0  0  0  0  0  0  0
   -0.8326    1.9763    0.1759 N   0  0  0  0  0  0  0  0  0  0  0  0
   -1.7061    1.8323   -0.9605 C   0  0  0  0  0  0  0  0  0  0  0  0
    2.6439    0.4813    1.9903 C   0  0  0  0  0  0  0  0  0  0  0  0
    3.9508    1.2231    2.1169 C   0  0  0  0  0  0  0  0  0  0  0  0
    3.9762    2.6124    2.3235 C   0  0  0  0  0  0  0  0  0  0  0  0
    5.1450    3.3367    2.2504 C   0  0  0  0  0  0  0  0  0  0  0  0
    6.3482    2.6593    2.0693 C   0  0  0  0  0  0  0  0  0  0  0  0
    6.3283    1.2697    1.8670 C   0  0  0  0  0  0  0  0  0  0  0  0
    5.1508    0.5488    1.9005 C   0  0  0  0  0  0  0  0  0  0  0  0
    7.6357    3.4246    2.2294 C   0  0  0  0  0  0  0  0  0  0  0  0
    8.3456    3.1242    3.4798 N   0  0  0  0  0  0  0  0  0  0  0  0
    8.8435    1.7462    3.5845 C   0  0  0  0  0  0  0  0  0  0  0  0
    9.7757    1.2653    2.4578 C   0  0  0  0  0  0  0  0  0  0  0  0
   11.2092    1.7546    2.6391 C   0  0  0  0  0  0  0  0  0  0  0  0
   11.3238    3.1800    2.4143 N   0  0  0  0  0  0  0  0  0  0  0  0
   12.6506    3.7001    2.7121 C   0  0  0  0  0  0  0  0  0  0  0  0
   12.6084    5.1893    3.1234 C   0  0  0  0  0  0  0  0  0  0  0  0
   11.8249    5.4744    4.3260 N   0  0  0  0  0  0  0  0  0  0  0  0
   12.4408    5.0102    5.5623 C   0  0  0  0  0  0  0  0  0  0  0  0
   11.5664    5.2896    6.7956 C   0  0  0  0  0  0  0  0  0  0  0  0
   10.3912    4.3232    6.9783 C   0  0  0  0  0  0  0  0  0  0  0  0
    9.3746    4.5213    5.9701 N   0  0  0  0  0  0  0  0  0  0  0  0
    8.3229    3.5192    5.9973 C   0  0  0  0  0  0  0  0  0  0  0  0
    7.5438    3.5053    4.6641 C   0  0  0  0  0  0  0  0  0  0  0  0
  1  2  1  0
  1 14  1  0
  2  3  1  0
  3  4  1  0
  4  5  1  0
  5  6  1  0
  6  7  1  0
  7  8  1  0
  8  9  1  0
  9 10  1  0
 10 11  1  0
 10 15  1  0
 11 12  1  0
 12 13  1  0
 13 14  1  0
 15 16  1  0
 16 17  2  0
 16 21  1  0
 17 18  1  0
 18 19  2  0
 19 20  1  0
 19 22  1  0
 20 21  2  0
 22 23  1  0
 23 24  1  0
 23 36  1  0
 24 25  1  0
 25 26  1  0
 26 27  1  0
 27 28  1  0
 28 29  1  0
 29 30  1  0
 30 31  1  0
 31 32  1  0
 32 33  1  0
 33 34  1  0
 34 35  1  0
 35 36  1  0
M  END
>  <DRUGBANK_ID>  (1) 
DB06809

>  <COMMON_NAME>  (1) 
Plerixafor

>  <CAS_NUMBER>  (1) 
110078-46-1

>  <UNII>  (1) 
S915P5499N

>  <SYNONYMS>  (1) 
1,1'-(1,4-phenylenebis(methylene))bis-1,4,8,11-tetraazacyclotetradecane; 1,4,8,11-tetraazacyclotetradecane, 1,1'-(1,4-phenylenebis(methylene))bis-; Plerixafor

$$$$
