
     RDKit          3D

 28 31  0  0  0  0  0  0  0  0999 V2000
    2.5386   -1.6243    0.0341 C   0  0  0  0  0  0  0  0  0  0  0  0
    1.6002   -0.4799    0.0154 C   0  0  0  0  0  0  0  0  0  0  0  0
    0.1826   -0.5224   -0.0038 C   0  0  0  0  0  0  0  0  0  0  0  0
   -0.7710   -1.5531   -0.0205 C   0  0  0  0  0  0  0  0  0  0  0  0
   -2.1276   -1.2173   -0.0006 C   0  0  0  0  0  0  0  0  0  0  0  0
   -2.5331    0.1194    0.0253 C   0  0  0  0  0  0  0  0  0  0  0  0
   -1.5984    1.1655    0.0229 C   0  0  0  0  0  0  0  0  0  0  0  0
   -0.2519    0.7989    0.0089 C   0  0  0  0  0  0  0  0  0  0  0  0
    0.8221    1.6460    0.0157 O   0  0  0  0  0  0  0  0  0  0  0  0
    1.9393    0.8572    0.0030 C   0  0  0  0  0  0  0  0  0  0  0  0
    3.2763    1.4955   -0.0057 C   0  0  0  0  0  0  0  0  0  0  0  0
    3.4699    2.3519   -1.1600 N   0  0  0  0  0  0  0  0  0  0  0  0
    3.8414    3.7084   -0.8393 C   0  0  0  0  0  0  0  0  0  0  0  0
    3.4454    1.7904   -2.4297 C   0  0  0  0  0  0  0  0  0  0  0  0
    3.2406    0.5900   -2.6287 O   0  0  0  0  0  0  0  0  0  0  0  0
    3.6741    2.6245   -3.6534 C   0  0  0  0  0  0  0  0  0  0  0  0
    4.0187    3.9171   -3.7393 C   0  0  0  0  0  0  0  0  0  0  0  0
    4.2250    4.6620   -4.9622 C   0  0  0  0  0  0  0  0  0  0  0  0
    3.2747    4.6109   -5.9580 C   0  0  0  0  0  0  0  0  0  0  0  0
    3.4837    5.3435   -7.1119 C   0  0  0  0  0  0  0  0  0  0  0  0
    4.6274    6.1395   -7.2150 C   0  0  0  0  0  0  0  0  0  0  0  0
    5.5307    6.2719   -6.2269 N   0  0  0  0  0  0  0  0  0  0  0  0
    5.3060    5.5300   -5.1167 C   0  0  0  0  0  0  0  0  0  0  0  0
    4.9141    6.7459   -8.4398 N   0  0  0  0  0  0  0  0  0  0  0  0
    4.1861    6.4135   -9.5537 C   0  0  0  0  0  0  0  0  0  0  0  0
    4.6755    6.3040  -10.6765 O   0  0  0  0  0  0  0  0  0  0  0  0
    2.7159    6.2549   -9.2721 C   0  0  0  0  0  0  0  0  0  0  0  0
    2.5185    5.1757   -8.2386 C   0  0  0  0  0  0  0  0  0  0  0  0
  1  2  1  0
  2  3  1  0
  2 10  2  0
  3  4  2  0
  3  8  1  0
  4  5  1  0
  5  6  2  0
  6  7  1  0
  7  8  2  0
  8  9  1  0
  9 10  1  0
 10 11  1  0
 11 12  1  0
 12 13  1  0
 12 14  1  0
 14 15  2  0
 14 16  1  0
 16 17  2  0
 17 18  1  0
 18 19  2  0
 18 23  1  0
 19 20  1  0
 20 21  2  0
 20 28  1  0
 21 22  1  0
 21 24  1  0
 22 23  2  0
 24 25  1  0
 25 26  2  0
 25 27  1  0
 27 28  1  0
M  END
>  <DRUGBANK_ID>  (1) 
DB12658

>  <COMMON_NAME>  (1) 
AFN-1252

>  <CAS_NUMBER>  (1) 
620175-39-5

>  <UNII>  (1) 
T3O718IKKM

$$$$
