
     RDKit          3D

 34 36  0  0  1  0  0  0  0  0999 V2000
    1.3370    0.6261    0.8540 C   0  0  0  0  0  0  0  0  0  0  0  0
   -0.7241    1.7037    0.0752 C   0  0  0  0  0  0  0  0  0  0  0  0
    0.4744   -0.0846    0.1692 C   0  0  0  0  0  0  0  0  0  0  0  0
   -1.7403    0.7467   -0.0048 C   0  0  0  0  0  0  0  0  0  0  0  0
   -1.5967   -2.1553   -1.8664 C   0  0  0  0  0  0  0  0  0  0  0  0
    1.7055   -1.0243   -1.1438 C   0  0  0  0  0  0  0  0  0  0  0  0
    0.7860    1.5571    0.1677 C   0  0  0  0  0  0  0  0  0  0  0  0
   -1.1735   -0.3847   -0.1097 C   0  0  0  0  0  0  0  0  0  0  0  0
   -0.5158   -3.2811   -1.4084 C   0  0  2  0  0  0  0  0  0  0  0  0
    0.9999   -1.8942    0.7536 C   0  0  2  0  0  0  0  0  0  0  0  0
    1.8238    2.4351   -0.3385 C   0  0  1  0  0  0  0  0  0  0  0  0
    0.3602   -2.7156   -0.3830 C   0  0  2  0  0  0  0  0  0  0  0  0
    1.6092   -2.6440    1.7730 C   0  0  2  0  0  0  0  0  0  0  0  0
    2.0129   -3.7766    0.1465 C   0  0  1  0  0  0  0  0  0  0  0  0
    0.5296   -4.1300    2.1643 C   0  0  1  0  0  0  0  0  0  0  0  0
    2.5079   -4.5523   -0.8502 C   0  0  1  0  0  0  0  0  0  0  0  0
   -0.5234   -4.6353    1.0983 C   0  0  1  0  0  0  0  0  0  0  0  0
    1.4235    3.0520   -1.6621 C   0  0  0  0  0  0  0  0  0  0  0  0
    1.0848   -4.9213   -1.2456 C   0  0  2  0  0  0  0  0  0  0  0  0
   -1.8538   -3.3820    0.8419 C   0  0  1  0  0  0  0  0  0  0  0  0
    1.7840    3.3157    0.8218 N   0  0  0  0  0  0  0  0  0  0  0  0
   -2.6556   -2.8557   -2.3965 O   0  0  0  0  0  0  0  0  0  0  0  0
    0.8585   -0.0570   -2.0906 O   0  0  0  0  0  0  0  0  0  0  0  0
   -0.3536   -1.4329    1.2335 O   0  0  0  0  0  0  0  0  0  0  0  0
    2.3919   -2.1489    2.7231 O   0  0  0  0  0  0  0  0  0  0  0  0
    3.5271   -2.8891    0.6246 O   0  0  0  0  0  0  0  0  0  0  0  0
    1.3284   -5.2478    2.5238 O   0  0  0  0  0  0  0  0  0  0  0  0
    3.2218   -3.5633   -1.5597 O   0  0  0  0  0  0  0  0  0  0  0  0
    1.0438    4.2129   -1.7141 O   0  0  0  0  0  0  0  0  0  0  0  0
    1.5231    2.2867   -2.7736 O   0  0  0  0  0  0  0  0  0  0  0  0
   -2.2704   -1.6958    0.5631 O   0  0  0  0  0  0  0  0  0  0  0  0
    0.3944   -3.9977   -2.1760 O   0  0  0  0  0  0  0  0  0  0  0  0
   -0.9759   -2.4754    0.3465 O   0  0  0  0  0  0  0  0  0  0  0  0
    0.1925   -5.5036   -0.1509 O   0  0  0  0  0  0  0  0  0  0  0  0
  3  1  2  0
  4  2  1  0
  7  1  1  0
  7  2  2  0
  8  3  1  0
  8  4  2  0
  9  5  1  6
 10  6  1  1
 11  7  1  0
 11 21  1  1
 12  9  1  0
 12 24  1  1
 13 10  1  0
 13 25  1  1
 14 12  1  0
 14 26  1  6
 15 13  1  0
 15 27  1  6
 16 14  1  0
 16 28  1  6
 17 15  1  0
 17 34  1  6
 18 11  1  0
 19 16  1  0
 19 34  1  1
 20 17  1  0
 20 31  1  6
 22  5  1  0
 23  6  1  0
 29 18  2  0
 30 18  1  0
 31  8  1  0
 32  9  1  0
 32 19  1  0
 33 10  1  0
 33 20  1  0
M  END
>  <DRUGBANK_ID>  (1) 
DB02675

>  <SECONDARY_ACCESSION_NUMBERS>  (1) 
EXPT02905

>  <COMMON_NAME>  (1) 
(4-Hydroxymaltosephenyl)Glycine

$$$$
