
     RDKit          3D

 16 16  0  0  1  0  0  0  0  0999 V2000
    0.3774    1.4713    0.0414 C   0  0  0  0  0  0  0  0  0  0  0  0
   -0.9764    1.8076    0.1406 C   0  0  0  0  0  0  0  0  0  0  0  0
   -1.9626    0.8142    0.3373 C   0  0  0  0  0  0  0  0  0  0  0  0
   -1.5569   -0.5354    0.4626 C   0  0  0  0  0  0  0  0  0  0  0  0
   -0.1987   -0.8500    0.2939 C   0  0  0  0  0  0  0  0  0  0  0  0
    0.7558    0.1381    0.0937 C   0  0  0  0  0  0  0  0  0  0  0  0
    2.4029   -0.3150   -0.0818 Cl  0  0  0  0  0  0  0  0  0  0  0  0
   -2.3646   -1.6260    0.8262 N   0  0  0  0  0  0  0  0  0  0  0  0
   -3.3865    1.2733    0.1579 C   0  0  0  0  0  0  0  0  0  0  0  0
   -3.6340    2.4812    0.1453 O   0  0  0  0  0  0  0  0  0  0  0  0
   -4.5151    0.2799   -0.0321 C   0  0  0  0  0  0  0  0  0  0  0  0
   -4.5161   -0.5270   -1.3506 C   0  0  1  0  0  0  0  0  0  0  0  0
   -3.2342   -1.2854   -1.7846 C   0  0  0  0  0  0  0  0  0  0  0  0
   -3.0434   -2.4786   -1.6585 O   0  0  0  0  0  0  0  0  0  0  0  0
   -2.2516   -0.4789   -2.2357 O   0  0  0  0  0  0  0  0  0  0  0  0
   -5.5978   -1.5445   -1.2369 N   0  0  0  0  0  0  0  0  0  0  0  0
  1  2  2  0
  1  6  1  0
  2  3  1  0
  3  4  2  0
  3  9  1  0
  4  5  1  0
  4  8  1  0
  5  6  2  0
  6  7  1  0
  9 10  2  0
  9 11  1  0
 11 12  1  0
 12 13  1  0
 12 16  1  1
 13 14  2  0
 13 15  1  0
M  END
>  <DRUGBANK_ID>  (1) 
DB12878

>  <COMMON_NAME>  (1) 
AV-101

>  <CAS_NUMBER>  (1) 
153152-32-0

>  <UNII>  (1) 
77XLH9L40B

>  <SYNONYMS>  (1) 
(2S)-2-amino-4-(2-amino-4-chlorophenyl)-4-oxobutanoic acid; 4-chlorokynurenine; L-4-chlorokynurenine; L-4-CL-KYN

$$$$
