
     RDKit          3D

 19 20  0  0  0  0  0  0  0  0999 V2000
    0.9098   -0.0309   -0.0030 C   0  0  0  0  0  0  0  0  0  0  0  0
    0.4905   -1.4067   -0.4929 C   0  0  0  0  0  0  0  0  0  0  0  0
    0.5074    0.1679    1.4809 C   0  0  0  0  0  0  0  0  0  0  0  0
    0.3705    1.3811   -1.0672 S   0  0  0  0  0  0  0  0  0  0  0  0
    1.3250   -2.5129   -0.2292 C   0  0  0  0  0  0  0  0  0  0  0  0
   -0.7572   -1.6344   -1.0930 C   0  0  0  0  0  0  0  0  0  0  0  0
    0.2470   -0.9407    2.3203 C   0  0  0  0  0  0  0  0  0  0  0  0
    0.4545    1.4369    2.0772 C   0  0  0  0  0  0  0  0  0  0  0  0
    1.0403    1.0245   -2.6977 C   0  0  0  0  0  0  0  0  0  0  0  0
   -1.1224    1.4971   -1.1172 O   0  0  0  0  0  0  0  0  0  0  0  0
    0.9196   -3.7989   -0.5745 C   0  0  0  0  0  0  0  0  0  0  0  0
   -1.1398   -2.9132   -1.4747 C   0  0  0  0  0  0  0  0  0  0  0  0
   -0.0651   -0.7980    3.6685 C   0  0  0  0  0  0  0  0  0  0  0  0
    0.1760    1.5805    3.4402 C   0  0  0  0  0  0  0  0  0  0  0  0
    0.6623   -0.2567   -3.3895 C   0  0  0  0  0  0  0  0  0  0  0  0
   -0.2976   -3.9914   -1.2252 C   0  0  0  0  0  0  0  0  0  0  0  0
   -0.1038    0.4674    4.2285 C   0  0  0  0  0  0  0  0  0  0  0  0
   -0.3408   -0.2198   -4.3111 N   0  0  0  0  0  0  0  0  0  0  0  0
    1.2733   -1.3128   -3.2163 O   0  0  0  0  0  0  0  0  0  0  0  0
  2  1  1  0
  3  1  1  0
  4  1  1  0
  4  9  1  0
  4 10  2  0
  5  2  2  0
  6  2  1  0
  7  3  2  0
  8  3  1  0
 11  5  1  0
 12  6  2  0
 13  7  1  0
 14  8  2  0
 15  9  1  0
 16 11  2  0
 16 12  1  0
 17 13  2  0
 17 14  1  0
 18 15  1  0
 19 15  2  0
M  END
>  <DRUGBANK_ID>  (1) 
DB06413

>  <COMMON_NAME>  (1) 
Armodafinil

>  <CAS_NUMBER>  (1) 
112111-43-0

>  <UNII>  (1) 
V63XWA605I

>  <SYNONYMS>  (1) 
(–)-2-[(R)-(diphenylmethyl)sulfinyl]acetamide; (−)-(R)-modafinil; (−)-modafinil; (R)-(−)-modafinil; (R)-modafinil; Armodafinil; Armodafinilo; Armodafinilum; R-modafinil

$$$$
