50U
     RDKit          3D

 28 30  0  0  0  0  0  0  0  0999 V2000
   -0.9695    0.5527    1.0685 N   0  0  0  0  0  0  0  0  0  0  0  0
   -0.6430   -0.9731    1.0643 C   0  0  2  0  0  0  0  0  0  0  0  0
   -1.4686   -2.4168    1.4309 C   0  0  0  0  0  0  0  0  0  0  0  0
   -2.4368   -2.3059    2.2066 O   0  0  0  0  0  0  0  0  0  0  0  0
   -1.3832   -3.6957    0.7277 N   0  0  0  0  0  0  0  0  0  0  0  0
   -0.6436   -4.5888   -0.4894 C   0  0  0  0  0  0  0  0  0  0  0  0
    0.4372   -5.3377    0.0741 C   0  0  0  0  0  0  0  0  0  0  0  0
    1.2663   -4.7083    0.9658 C   0  0  0  0  0  0  0  0  0  0  0  0
    1.8008   -5.5566    1.8800 C   0  0  0  0  0  0  0  0  0  0  0  0
    1.4815   -6.9156    1.7608 C   0  0  0  0  0  0  0  0  0  0  0  0
    2.2202   -7.8882    2.5673 C   0  0  0  0  0  0  0  0  0  0  0  0
    2.1044   -9.1393    2.4208 N   0  0  0  0  0  0  0  0  0  0  0  0
    3.1272   -7.4128    3.4728 N   0  0  0  0  0  0  0  0  0  0  0  0
    0.6125   -7.4662    0.8153 C   0  0  0  0  0  0  0  0  0  0  0  0
    0.1987   -6.6577   -0.1878 C   0  0  0  0  0  0  0  0  0  0  0  0
    0.9075   -0.9438    0.9542 C   0  0  0  0  0  0  0  0  0  0  0  0
    1.3746    0.3814    0.3279 C   0  0  0  0  0  0  0  0  0  0  0  0
    0.1886    1.3291    0.4497 C   0  0  0  0  0  0  0  0  0  0  0  0
   -2.2411    1.2049    0.8919 C   0  0  0  0  0  0  0  0  0  0  0  0
   -3.5761    0.3865    0.6797 C   0  0  0  0  0  0  0  0  0  0  0  0
   -4.0488   -0.1238   -0.7506 C   0  0  0  0  0  0  0  0  0  0  0  0
   -3.1008   -0.9212   -1.6820 C   0  0  0  0  0  0  0  0  0  0  0  0
   -3.1562   -2.3323   -1.2011 C   0  0  0  0  0  0  0  0  0  0  0  0
   -1.9462   -3.0134   -1.7754 C   0  0  0  0  0  0  0  0  0  0  0  0
   -0.4713   -2.3842   -1.4645 C   0  0  0  0  0  0  0  0  0  0  0  0
   -0.4475   -1.0519   -2.0709 C   0  0  0  0  0  0  0  0  0  0  0  0
   -1.7226   -0.2679   -1.7724 C   0  0  0  0  0  0  0  0  0  0  0  0
   -2.3005    2.4322    0.8397 O   0  0  0  0  0  0  0  0  0  0  0  0
  1 19  1  0
  2  1  1  0
  2  3  1  1
  3  4  2  0
  5  3  1  0
  6  5  1  0
  6  7  1  0
  7  8  2  0
  8  9  1  0
 10  9  2  0
 10 11  1  0
 11 12  2  0
 13 11  1  0
 14 10  1  0
 15  7  1  0
 15 14  2  0
 16 17  1  0
 16  2  1  0
 17 18  1  0
 18  1  1  0
 19 28  2  0
 19 20  1  0
 20 21  1  0
 22 21  1  0
 22 23  1  0
 24 23  1  0
 25 24  1  0
 26 27  1  0
 26 25  1  0
 27 22  1  0
M  END
>  <DRUGBANK_ID>  (1) 
DB07131

>  <COMMON_NAME>  (1) 
(S)-N-(4-carbamimidoylbenzyl)-1-(3-cyclohexylpropanoyl)pyrrolidine-2-carboxamide

$$$$
