1083
     RDKit          3D

 35 35  0  0  1  0  0  0  0  0999 V2000
    0.2404   -0.9538   -0.3901 O   0  0  0  0  0  0  0  0  0  0  0  0
    4.3531    0.6140    0.5216 O   0  0  0  0  0  0  0  0  0  0  0  0
   -1.7805    0.0671    0.0816 O   0  0  0  0  0  0  0  0  0  0  0  0
    2.4638    0.9045    1.8331 O   0  0  0  0  0  0  0  0  0  0  0  0
    6.8314   -1.7920    3.4209 O   0  0  0  0  0  0  0  0  0  0  0  0
    5.0078   -0.4956    3.1310 N   0  0  0  0  0  0  0  0  0  0  0  0
    1.4256   -0.1858   -0.0451 C   0  0  2  0  0  0  0  0  0  0  0  0
    0.5392    1.1207   -0.0651 C   0  0  2  0  0  0  0  0  0  0  0  0
    2.5618   -0.2971   -1.0394 C   0  0  0  0  0  0  0  0  0  0  0  0
    0.5502    2.2766    0.9523 C   0  0  0  0  0  0  0  0  0  0  0  0
    3.6772    0.7389   -0.7842 C   0  0  2  0  0  0  0  0  0  0  0  0
   -0.5843    0.0732   -0.0119 C   0  0  0  0  0  0  0  0  0  0  0  0
    4.7230    0.6486   -1.9274 C   0  0  0  0  0  0  0  0  0  0  0  0
    1.7729    3.1977    0.7313 C   0  0  0  0  0  0  0  0  0  0  0  0
    4.1020    0.7999   -3.3361 C   0  0  0  0  0  0  0  0  0  0  0  0
    1.8396    3.8112   -0.6490 C   0  0  0  0  0  0  0  0  0  0  0  0
    3.4184    2.1550   -3.5243 C   0  0  0  0  0  0  0  0  0  0  0  0
    4.4193    3.2994   -3.3592 C   0  0  0  0  0  0  0  0  0  0  0  0
    0.7116    4.7780   -0.8612 C   0  0  0  0  0  0  0  0  0  0  0  0
    5.4963    3.1831   -4.4412 C   0  0  0  0  0  0  0  0  0  0  0  0
    3.6686    0.7636    1.6886 C   0  0  0  0  0  0  0  0  0  0  0  0
    4.3912    0.7883    2.9788 C   0  0  2  0  0  0  0  0  0  0  0  0
    4.8540    3.2745   -5.8303 C   0  0  0  0  0  0  0  0  0  0  0  0
    0.7955    5.9029    0.1588 C   0  0  0  0  0  0  0  0  0  0  0  0
    5.2339    2.0427    3.0985 C   0  0  0  0  0  0  0  0  0  0  0  0
    4.1454    4.6229   -5.9914 C   0  0  0  0  0  0  0  0  0  0  0  0
    4.4740    3.3737    2.9702 C   0  0  0  0  0  0  0  0  0  0  0  0
    5.1529    5.7679   -5.8407 C   0  0  0  0  0  0  0  0  0  0  0  0
    2.1131    6.6526    0.0210 C   0  0  0  0  0  0  0  0  0  0  0  0
    6.2412    5.6783   -6.9167 C   0  0  0  0  0  0  0  0  0  0  0  0
    3.3491    3.5226    3.9950 C   0  0  0  0  0  0  0  0  0  0  0  0
    5.4725    4.5154    3.0886 C   0  0  0  0  0  0  0  0  0  0  0  0
    5.6399    5.7390   -8.3216 C   0  0  0  0  0  0  0  0  0  0  0  0
    6.3305   -0.6841    3.3224 C   0  0  0  0  0  0  0  0  0  0  0  0
    4.8937    7.0481   -8.5216 C   0  0  0  0  0  0  0  0  0  0  0  0
  1  7  1  0
  1 12  1  0
  2 21  1  0
  3 12  2  0
  4 21  2  0
  5 34  2  0
  6 34  1  0
  7  8  1  0
  7  9  1  6
  8 10  1  1
  8 12  1  0
 11  9  1  6
 10 14  1  0
 11  2  1  0
 11 13  1  0
 13 15  1  0
 14 16  1  0
 15 17  1  0
 16 19  1  0
 17 18  1  0
 18 20  1  0
 19 24  1  0
 20 23  1  0
 21 22  1  0
 22  6  1  0
 22 25  1  6
 23 26  1  0
 24 29  1  0
 25 27  1  0
 26 28  1  0
 27 31  1  0
 27 32  1  0
 28 30  1  0
 30 33  1  0
 33 35  1  0
M  END
>  <DRUGBANK_ID>  (1) 
DB01083

>  <SECONDARY_ACCESSION_NUMBERS>  (1) 
APRD00255

>  <COMMON_NAME>  (1) 
Orlistat

>  <CAS_NUMBER>  (1) 
96829-58-2

>  <UNII>  (1) 
95M8R751W8

>  <SYNONYMS>  (1) 
(-)-Tetrahydrolipstatin; Orlipastat; Orlipastatum; Orlistat; Tetrahydrolipstatin

$$$$
