
     RDKit          3D

 37 39  0  0  1  0  0  0  0  0999 V2000
    0.7720    0.2884    0.1321 C   0  0  0  0  0  0  0  0  0  0  0  0
    0.1144   -0.8513    0.8836 C   0  0  0  0  0  0  0  0  0  0  0  0
    0.5574   -0.7262    2.2976 C   0  0  0  0  0  0  0  0  0  0  0  0
   -1.3082   -1.2530    0.7401 C   0  0  1  0  0  0  0  0  0  0  0  0
   -1.7426   -1.2178   -0.8710 C   0  0  0  0  0  0  0  0  0  0  0  0
   -0.9409   -2.2361   -2.4172 S   0  0  0  0  0  0  0  0  0  0  0  0
   -1.6323   -3.4854   -2.7561 O   0  0  0  0  0  0  0  0  0  0  0  0
   -1.0455   -1.3524   -3.5708 O   0  0  0  0  0  0  0  0  0  0  0  0
    0.8900   -2.6010   -2.1708 C   0  0  0  0  0  0  0  0  0  0  0  0
    1.5651   -1.4197   -2.7693 C   0  0  0  0  0  0  0  0  0  0  0  0
    1.6456   -2.7138   -0.8902 C   0  0  0  0  0  0  0  0  0  0  0  0
   -1.6163   -2.5458    1.6996 N   0  0  0  0  0  0  0  0  0  0  0  0
   -0.6164   -3.8398    2.2076 C   0  0  1  0  0  0  0  0  0  0  0  0
   -1.2492   -5.1744    1.7057 C   0  0  2  0  0  0  0  0  0  0  0  0
   -2.7806   -5.2684    1.7176 C   0  0  0  0  0  0  0  0  0  0  0  0
   -3.4878   -4.0640    1.1062 C   0  0  2  0  0  0  0  0  0  0  0  0
   -5.0015   -4.2155    1.2999 C   0  0  0  0  0  0  0  0  0  0  0  0
   -3.2560   -4.0538   -0.4208 C   0  0  0  0  0  0  0  0  0  0  0  0
   -1.7953   -4.2320   -0.6662 C   0  0  0  0  0  0  0  0  0  0  0  0
   -1.3665   -5.3641   -1.2571 O   0  0  0  0  0  0  0  0  0  0  0  0
   -0.9719   -3.4732   -0.3062 O   0  0  0  0  0  0  0  0  0  0  0  0
   -3.0004   -2.7685    1.8011 C   0  0  0  0  0  0  0  0  0  0  0  0
   -3.7724   -1.9214    2.2468 O   0  0  0  0  0  0  0  0  0  0  0  0
   -0.6781   -6.5250    1.9304 C   0  0  0  0  0  0  0  0  0  0  0  0
   -0.4679   -6.9125    3.2198 C   0  0  0  0  0  0  0  0  0  0  0  0
   -0.1890   -8.2403    3.4146 C   0  0  0  0  0  0  0  0  0  0  0  0
   -0.0354   -9.1265    2.3279 C   0  0  0  0  0  0  0  0  0  0  0  0
   -0.1000   -8.6898    1.0176 C   0  0  0  0  0  0  0  0  0  0  0  0
    0.1271   -9.7281   -0.3294 Cl  0  0  0  0  0  0  0  0  0  0  0  0
   -0.4276   -7.3826    0.8145 C   0  0  0  0  0  0  0  0  0  0  0  0
    1.0009   -3.9309    2.0227 C   0  0  0  0  0  0  0  0  0  0  0  0
    1.8956   -3.1010    2.6954 C   0  0  0  0  0  0  0  0  0  0  0  0
    3.1627   -2.7842    2.1488 C   0  0  0  0  0  0  0  0  0  0  0  0
    3.7467   -3.5884    1.1912 C   0  0  0  0  0  0  0  0  0  0  0  0
    5.2019   -3.0836    0.4204 Cl  0  0  0  0  0  0  0  0  0  0  0  0
    3.0299   -4.6804    0.7374 C   0  0  0  0  0  0  0  0  0  0  0  0
    1.6706   -4.8218    1.1279 C   0  0  0  0  0  0  0  0  0  0  0  0
  1  2  1  0
  2  3  1  0
  4  2  1  0
  4  5  1  6
  4 12  1  0
  5  6  1  0
  6  7  2  0
  6  8  2  0
  6  9  1  0
  9 10  1  0
  9 11  1  0
 12 22  1  0
 13 12  1  0
 13 14  1  0
 13 31  1  6
 14 15  1  0
 14 24  1  1
 16 15  1  0
 16 22  1  0
 16 18  1  0
 16 17  1  6
 18 19  1  0
 19 20  1  0
 19 21  2  0
 22 23  2  0
 24 25  2  0
 24 30  1  0
 25 26  1  0
 26 27  2  0
 27 28  1  0
 28 29  1  0
 28 30  2  0
 31 32  2  0
 31 37  1  0
 32 33  1  0
 33 34  2  0
 34 35  1  0
 34 36  1  0
 36 37  2  0
M  END
>  <DRUGBANK_ID>  (1) 
DB15299

>  <COMMON_NAME>  (1) 
Navtemadlin

>  <CAS_NUMBER>  (1) 
1352066-68-2

>  <UNII>  (1) 
7R7G6EH5UL

>  <SYNONYMS>  (1) 
{(3R,5R,6S)-5-(3-chlorophenyl)-6-(4-chlorophenyl)-3-methyl-1-[ (2S)-3 -methyl-1-(propan-2- ylsulfonyl)butan-2-yl]-2-oxopiperidin-3-yl}acetic acid

$$$$
