
     RDKit          3D

  9  8  0  0  0  0  0  0  0  0999 V2000
    0.9498    0.0696   -0.0228 O   0  0  0  0  0  0  0  0  0  0  0  0
    1.0706   -2.0005    0.7984 O   0  0  0  0  0  0  0  0  0  0  0  0
   -1.9772   -2.6351   -2.6041 O   0  0  0  0  0  0  0  0  0  0  0  0
   -1.6822   -0.0086    1.2806 N   0  0  0  0  0  0  0  0  0  0  0  0
    0.1546   -2.0521   -2.2242 N   0  0  0  0  0  0  0  0  0  0  0  0
   -1.1532   -1.0513    0.3705 C   0  0  1  0  0  0  0  0  0  0  0  0
   -1.6292   -0.8159   -1.0635 C   0  0  0  0  0  0  0  0  0  0  0  0
    0.3739   -1.0591    0.4432 C   0  0  0  0  0  0  0  0  0  0  0  0
   -1.1828   -1.9093   -2.0144 C   0  0  0  0  0  0  0  0  0  0  0  0
  1  8  1  0
  2  8  2  0
  3  9  2  0
  5  9  1  0
  6  4  1  1
  6  7  1  0
  6  8  1  0
  7  9  1  0
M  END
>  <DRUGBANK_ID>  (1) 
DB00174

>  <SECONDARY_ACCESSION_NUMBERS>  (1) 
NUTR00015

>  <COMMON_NAME>  (1) 
Asparagine

>  <CAS_NUMBER>  (1) 
70-47-3

>  <UNII>  (1) 
5Z33R5TKO7

>  <SYNONYMS>  (1) 
(2S)-2-amino-3-carbamoylpropanoic acid; (2S)-2,4-diamino-4-oxobutanoic acid; (S)-2-amino-3-carbamoylpropanoic acid; (S)-Asparagine; 2-Aminosuccinamic acid; alpha-aminosuccinamic acid; Asn; Asparagine; Aspartamic acid; L-2-aminosuccinamic acid; L-Asparagine; L-aspartic acid beta-amide; L-aspartic acid β-amide; α-aminosuccinamic acid

$$$$
