
     RDKit          3D

 14 15  0  0  0  0  0  0  0  0999 V2000
    1.1156    0.0133    0.0747 C   0  0  0  0  0  0  0  0  0  0  0  0
    6.5957   -2.1998    3.1184 C   0  0  0  0  0  0  0  0  0  0  0  0
   -1.1242   -2.9007   -0.8863 C   0  0  0  0  0  0  0  0  0  0  0  0
    5.2208   -2.1862    2.7531 C   0  0  0  0  0  0  0  0  0  0  0  0
    3.6504   -3.3395    1.1275 C   0  0  0  0  0  0  0  0  0  0  0  0
    2.8397   -2.3122    0.8240 C   0  0  0  0  0  0  0  0  0  0  0  0
   -0.2038   -4.0359   -0.5128 C   0  0  0  0  0  0  0  0  0  0  0  0
   -0.6099   -1.4952   -0.7203 C   0  0  0  0  0  0  0  0  0  0  0  0
    7.3099   -3.1131    2.3793 C   0  0  0  0  0  0  0  0  0  0  0  0
    4.9100   -3.0870    1.7465 C   0  0  0  0  0  0  0  0  0  0  0  0
    1.4745   -2.4719    0.2063 C   0  0  0  0  0  0  0  0  0  0  0  0
    1.0881   -3.6923    0.0387 N   0  0  0  0  0  0  0  0  0  0  0  0
    0.7107   -1.3716   -0.1352 N   0  0  0  0  0  0  0  0  0  0  0  0
    6.3156   -3.9595    1.2723 S   0  0  0  0  0  0  0  0  0  0  0  0
  4  2  1  0
  6  5  2  0
  7  3  1  0
  8  3  1  0
  9  2  2  0
 10  4  2  0
 10  5  1  0
 11  6  1  0
 12  7  1  0
 12 11  2  0
 13  1  1  0
 13  8  1  0
 13 11  1  0
 14  9  1  0
 14 10  1  0
M  END
>  <DRUGBANK_ID>  (1) 
DB11156

>  <COMMON_NAME>  (1) 
Pyrantel

>  <CAS_NUMBER>  (1) 
15686-83-6

>  <UNII>  (1) 
4QIH0N49E7

>  <SYNONYMS>  (1) 
Pirantel; Pyrantel; Pyrantelum

$$$$
