
     RDKit          3D

 19 21  0  0  0  0  0  0  0  0999 V2000
    1.6961    1.2332   -0.0271 C   0  0  0  0  0  0  0  0  0  0  0  0
    0.2997    1.2058   -0.0270 C   0  0  0  0  0  0  0  0  0  0  0  0
   -0.3693   -0.0130   -0.0158 C   0  0  0  0  0  0  0  0  0  0  0  0
    0.3486   -1.2070   -0.0106 C   0  0  0  0  0  0  0  0  0  0  0  0
    1.7496   -1.1789    0.0139 C   0  0  0  0  0  0  0  0  0  0  0  0
    2.4404    0.0456    0.0233 C   0  0  0  0  0  0  0  0  0  0  0  0
    3.9417    0.0387    0.0604 C   0  0  0  0  0  0  0  0  0  0  0  0
    4.5325   -1.0420    0.0246 O   0  0  0  0  0  0  0  0  0  0  0  0
    4.6771    1.3069    0.0751 C   0  0  0  0  0  0  0  0  0  0  0  0
    5.6730    1.6843   -0.9011 C   0  0  0  0  0  0  0  0  0  0  0  0
    6.1447    2.9647   -0.6884 C   0  0  0  0  0  0  0  0  0  0  0  0
    5.4821    3.6755    0.7005 S   0  0  0  0  0  0  0  0  0  0  0  0
    4.5440    2.2853    1.0520 C   0  0  0  0  0  0  0  0  0  0  0  0
    3.7724    2.2680    2.1596 N   0  0  0  0  0  0  0  0  0  0  0  0
    7.1816    3.6612   -1.5165 C   0  0  0  0  0  0  0  0  0  0  0  0
    7.4258    2.9103   -2.8341 C   0  0  0  0  0  0  0  0  0  0  0  0
    7.4746    1.3915   -2.6281 C   0  0  0  0  0  0  0  0  0  0  0  0
    6.1589    0.8488   -2.0501 C   0  0  0  0  0  0  0  0  0  0  0  0
   -2.0882   -0.0363   -0.0107 Cl  0  0  0  0  0  0  0  0  0  0  0  0
  1  2  2  0
  1  6  1  0
  2  3  1  0
  3  4  2  0
  3 19  1  0
  4  5  1  0
  5  6  2  0
  6  7  1  0
  7  8  2  0
  7  9  1  0
  9 10  1  0
  9 13  2  0
 10 11  2  0
 10 18  1  0
 11 12  1  0
 11 15  1  0
 12 13  1  0
 13 14  1  0
 15 16  1  0
 16 17  1  0
 17 18  1  0
M  END
>  <DRUGBANK_ID>  (1) 
DB12919

>  <COMMON_NAME>  (1) 
T-62

>  <CAS_NUMBER>  (1) 
40312-34-3

>  <UNII>  (1) 
9Q765ZIF8L

$$$$
