
     RDKit          3D

 32 36  0  0  0  0  0  0  0  0999 V2000
    1.6165   -0.1897    0.1811 C   0  0  0  0  0  0  0  0  0  0  0  0
    1.1268    1.1180    0.1504 C   0  0  0  0  0  0  0  0  0  0  0  0
   -0.1594    1.3654    0.5647 C   0  0  0  0  0  0  0  0  0  0  0  0
   -0.9478    0.2884    0.9690 C   0  0  0  0  0  0  0  0  0  0  0  0
   -0.5731   -1.0559    0.7021 C   0  0  0  0  0  0  0  0  0  0  0  0
    0.7682   -1.2781    0.4151 C   0  0  0  0  0  0  0  0  0  0  0  0
   -1.5632   -2.2216    0.5141 C   0  0  0  0  0  0  0  0  0  0  0  0
   -2.6156   -2.1894    1.6045 C   0  0  0  0  0  0  0  0  0  0  0  0
   -2.2441   -2.4479   -0.7681 N   0  0  0  0  0  0  0  0  0  0  0  0
   -3.5261   -1.1141    1.7823 C   0  0  0  0  0  0  0  0  0  0  0  0
   -4.4710   -1.0820    2.7703 C   0  0  0  0  0  0  0  0  0  0  0  0
   -4.5210   -2.1620    3.6174 C   0  0  0  0  0  0  0  0  0  0  0  0
   -3.6729   -3.2654    3.4325 C   0  0  0  0  0  0  0  0  0  0  0  0
   -2.7042   -3.2786    2.4432 C   0  0  0  0  0  0  0  0  0  0  0  0
   -1.3817   -2.7201   -1.9490 C   0  0  0  0  0  0  0  0  0  0  0  0
   -0.5514   -1.5281   -2.3923 C   0  0  0  0  0  0  0  0  0  0  0  0
   -1.4490   -0.4419   -2.5555 N   0  0  0  0  0  0  0  0  0  0  0  0
   -2.3616   -0.0808   -1.4868 C   0  0  0  0  0  0  0  0  0  0  0  0
   -3.1077   -1.3238   -1.0458 C   0  0  0  0  0  0  0  0  0  0  0  0
   -2.1496   -0.7355   -3.7545 C   0  0  0  0  0  0  0  0  0  0  0  0
   -3.5864   -1.3001   -3.9780 C   0  0  0  0  0  0  0  0  0  0  0  0
   -4.7082   -0.4731   -3.3268 C   0  0  0  0  0  0  0  0  0  0  0  0
   -4.1509    0.8690   -3.4208 N   0  0  0  0  0  0  0  0  0  0  0  0
   -3.2999    1.2211   -4.8060 C   0  0  0  0  0  0  0  0  0  0  0  0
   -4.8564    2.0832   -3.1496 C   0  0  0  0  0  0  0  0  0  0  0  0
   -4.4125    2.8303   -4.2226 C   0  0  0  0  0  0  0  0  0  0  0  0
   -4.2585    1.9681   -5.3568 N   0  0  0  0  0  0  0  0  0  0  0  0
   -2.0732    1.4933   -5.0203 O   0  0  0  0  0  0  0  0  0  0  0  0
   -3.3816    3.7132   -3.8763 C   0  0  0  0  0  0  0  0  0  0  0  0
   -3.4864    4.4093   -2.6994 C   0  0  0  0  0  0  0  0  0  0  0  0
   -4.4845    4.0228   -1.8167 C   0  0  0  0  0  0  0  0  0  0  0  0
   -5.0022    2.7199   -1.9125 C   0  0  0  0  0  0  0  0  0  0  0  0
  1  2  2  0
  2  3  1  0
  3  4  2  0
  4  5  1  0
  5  6  2  0
  5  7  1  0
  6  1  1  0
  7  8  1  0
  7  9  1  0
  8 10  2  0
  9 15  1  0
 10 11  1  0
 11 12  2  0
 12 13  1  0
 13 14  2  0
 14  8  1  0
 15 16  1  0
 16 17  1  0
 17 18  1  0
 17 20  1  0
 18 19  1  0
 19  9  1  0
 20 21  1  0
 21 22  1  0
 22 23  1  0
 23 24  1  0
 23 25  1  0
 24 27  1  0
 24 28  2  0
 25 26  2  0
 26 27  1  0
 26 29  1  0
 29 30  2  0
 30 31  1  0
 31 32  2  0
 32 25  1  0
M  END
>  <DRUGBANK_ID>  (1) 
DB12877

>  <COMMON_NAME>  (1) 
Oxatomide

>  <CAS_NUMBER>  (1) 
60607-34-3

>  <UNII>  (1) 
J31IL9Z2EE

>  <SYNONYMS>  (1) 
Oxatomida; Oxatomide; Oxatomidum

$$$$
