D55
     RDKit          3D

 27 28  0  0  0  0  0  0  0  0999 V2000
    0.9871   -0.0810    0.0204 C   0  0  0  0  0  0  0  0  0  0  0  0
    0.4827   -0.8265   -1.1879 C   0  0  0  0  0  0  0  0  0  0  0  0
    0.6960    4.0405    5.2110 C   0  0  0  0  0  0  0  0  0  0  0  0
    0.4953    5.2918    4.3714 C   0  0  0  0  0  0  0  0  0  0  0  0
    2.1758    2.1394    1.3678 C   0  0  0  0  0  0  0  0  0  0  0  0
    2.5042    2.7913    2.5303 C   0  0  0  0  0  0  0  0  0  0  0  0
    1.4528    3.0434    3.3570 C   0  0  0  0  0  0  0  0  0  0  0  0
    0.1153    2.9519    2.9231 C   0  0  0  0  0  0  0  0  0  0  0  0
   -0.2351    2.5762    1.6767 C   0  0  0  0  0  0  0  0  0  0  0  0
   -1.5948    2.6301    1.2921 N   0  0  0  0  0  0  0  0  0  0  0  0
   -2.7422    3.2355    1.8705 C   0  0  0  0  0  0  0  0  0  0  0  0
   -3.8387    2.8912    1.4877 O   0  0  0  0  0  0  0  0  0  0  0  0
   -2.7034    4.3679    2.8921 C   0  0  0  0  0  0  0  0  0  0  0  0
   -2.0169    5.5657    2.6252 C   0  0  0  0  0  0  0  0  0  0  0  0
   -1.8585    6.6301    3.5918 C   0  0  0  0  0  0  0  0  0  0  0  0
   -0.7726    7.6632    3.3027 C   0  0  0  0  0  0  0  0  0  0  0  0
   -2.4750    6.4744    4.8510 C   0  0  0  0  0  0  0  0  0  0  0  0
   -2.1135    7.0515    6.0610 O   0  0  0  0  0  0  0  0  0  0  0  0
   -1.0861    8.0368    6.2691 C   0  0  0  0  0  0  0  0  0  0  0  0
    0.3012    7.6333    6.8828 C   0  0  0  0  0  0  0  0  0  0  0  0
    0.9237    6.3500    6.7671 N   0  0  0  0  0  0  0  0  0  0  0  0
   -3.4035    5.4030    5.0000 C   0  0  0  0  0  0  0  0  0  0  0  0
   -4.5076    5.5160    6.0246 C   0  0  0  0  0  0  0  0  0  0  0  0
    1.7892    3.3928    4.6259 O   0  0  0  0  0  0  0  0  0  0  0  0
   -3.4476    4.3148    4.0768 C   0  0  0  0  0  0  0  0  0  0  0  0
    0.5021    1.2592   -0.1329 O   0  0  0  0  0  0  0  0  0  0  0  0
    0.8153    2.0023    0.9646 C   0  0  0  0  0  0  0  0  0  0  0  0
  1 26  1  0
  2  1  1  0
  3  4  1  0
  3 24  1  0
  5 27  2  0
  6  5  1  0
  7  6  2  0
  7  8  1  0
  7 24  1  0
  9 10  1  0
  9  8  2  0
 10 11  1  0
 11 12  2  0
 11 13  1  0
 13 14  2  0
 13 25  1  0
 14 15  1  0
 15 16  1  0
 15 17  2  0
 17 18  1  0
 17 22  1  0
 18 19  1  0
 19 20  1  0
 20 21  1  0
 22 23  1  0
 22 25  2  0
 27  9  1  0
 27 26  1  0
M  END
>  <DRUGBANK_ID>  (1) 
DB07625

>  <COMMON_NAME>  (1) 
4-(2-aminoethoxy)-N-(2,5-diethoxyphenyl)-3,5-dimethylbenzamide

$$$$
