1491
     RDKit          3D

 26 28  0  0  1  0  0  0  0  0999 V2000
    0.6924    0.2654    0.0802 O   0  0  0  0  0  0  0  0  0  0  0  0
    6.0186   -0.0147   -0.6874 N   0  0  0  0  0  0  0  0  0  0  0  0
    5.0381    1.0474   -0.9983 C   0  0  0  0  0  0  0  0  0  0  0  0
    3.7534    0.5023   -1.7088 C   0  0  0  0  0  0  0  0  0  0  0  0
    2.7479   -0.6264   -0.9624 C   0  0  0  0  0  0  0  0  0  0  0  0
    5.7719   -1.2432   -1.4344 C   0  0  0  0  0  0  0  0  0  0  0  0
    7.4414    0.2638   -0.8670 C   0  0  0  0  0  0  0  0  0  0  0  0
    6.4923   -2.4280   -0.8662 C   0  0  0  0  0  0  0  0  0  0  0  0
    8.2849   -0.8989   -0.3111 C   0  0  0  0  0  0  0  0  0  0  0  0
    7.9574   -2.2553   -0.9472 C   0  0  0  0  0  0  0  0  0  0  0  0
    5.6815    2.2788   -1.6552 C   0  0  0  0  0  0  0  0  0  0  0  0
    3.2513   -1.9733   -0.0467 C   0  0  0  0  0  0  0  0  0  0  0  0
    1.8442   -1.0370   -2.2006 C   0  0  0  0  0  0  0  0  0  0  0  0
    1.9442    0.1727    0.1032 C   0  0  0  0  0  0  0  0  0  0  0  0
    2.6800    0.7842    1.2813 C   0  0  0  0  0  0  0  0  0  0  0  0
    4.1276   -1.7992    1.0561 C   0  0  0  0  0  0  0  0  0  0  0  0
    2.0041   -2.2690   -2.8272 C   0  0  0  0  0  0  0  0  0  0  0  0
    3.1144   -3.3417   -0.4033 C   0  0  0  0  0  0  0  0  0  0  0  0
    0.9124   -0.2006   -2.8267 C   0  0  0  0  0  0  0  0  0  0  0  0
    2.4491    2.2630    1.3704 C   0  0  0  0  0  0  0  0  0  0  0  0
    4.8508   -2.8346    1.6830 C   0  0  0  0  0  0  0  0  0  0  0  0
    0.9800   -2.8877   -3.5309 C   0  0  0  0  0  0  0  0  0  0  0  0
    3.9004   -4.3764    0.1465 C   0  0  0  0  0  0  0  0  0  0  0  0
   -0.0291   -0.7365   -3.7237 C   0  0  0  0  0  0  0  0  0  0  0  0
    4.8096   -4.1109    1.1503 C   0  0  0  0  0  0  0  0  0  0  0  0
   -0.0442   -2.1015   -4.0085 C   0  0  0  0  0  0  0  0  0  0  0  0
  1 14  2  0
  2  3  1  0
  2  6  1  0
  2  7  1  0
  3  4  1  0
  3 11  1  0
  4  5  1  0
  5 12  1  0
  5 13  1  0
  5 14  1  0
  6  8  1  0
  7  9  1  0
  8 10  1  0
  9 10  1  0
 12 16  2  0
 12 18  1  0
 13 17  2  0
 13 19  1  0
 14 15  1  0
 15 20  1  0
 16 21  1  0
 17 22  1  0
 18 23  2  0
 19 24  2  0
 21 25  2  0
 22 26  2  0
 23 25  1  0
 24 26  1  0
M  END
>  <DRUGBANK_ID>  (1) 
DB01491

>  <COMMON_NAME>  (1) 
Dipipanone

>  <CAS_NUMBER>  (1) 
467-83-4

>  <UNII>  (1) 
X188638Y2V

>  <SYNONYMS>  (1) 
Dipipanone

$$$$
