439236
     RDKit          3D

 14 14  0  0  1  0  0  0  0  0999 V2000
    0.2976    0.3711    1.7719 P   0  0  0  0  0  0  0  0  0  0  0  0
   -0.1675    3.1291    0.8215 O   0  0  0  0  0  0  0  0  0  0  0  0
    1.4601    1.5576    1.4638 O   0  0  0  0  0  0  0  0  0  0  0  0
    1.7934    4.7684    2.5257 O   0  0  0  0  0  0  0  0  0  0  0  0
    3.4059    3.4692    0.7375 O   0  0  0  0  0  0  0  0  0  0  0  0
   -1.4232    6.4419    0.3441 O   0  0  0  0  0  0  0  0  0  0  0  0
    0.9444   -0.8716    0.9379 O   0  0  0  0  0  0  0  0  0  0  0  0
   -0.3842    0.8453    0.2543 O   0  0  0  0  0  0  0  0  0  0  0  0
    0.9078   -0.0532    3.1302 O   0  0  0  0  0  0  0  0  0  0  0  0
    1.3881    4.8569    1.1533 C   0  0  1  0  0  0  0  0  0  0  0  0
    2.0726    3.7552    0.3599 C   0  0  2  0  0  0  0  0  0  0  0  0
   -0.0985    4.5319    1.0330 C   0  0  1  0  0  0  0  0  0  0  0  0
    1.1217    2.5792    0.5107 C   0  0  2  0  0  0  0  0  0  0  0  0
   -0.8575    5.2166   -0.1075 C   0  0  0  0  0  0  0  0  0  0  0  0
  1  3  1  0
  1  7  1  0
  1  8  1  0
  1  9  2  0
  2 12  1  0
  2 13  1  0
  6 14  1  0
 10  4  1  1
 10 11  1  0
 10 12  1  0
 11  5  1  1
 11 13  1  0
 12 14  1  6
 13  3  1  1
M  END
>  <DRUGBANK_ID>  (1) 
DB03101

>  <SECONDARY_ACCESSION_NUMBERS>  (1) 
EXPT02743

>  <COMMON_NAME>  (1) 
Ribose-1-Phosphate

$$$$
