
     RDKit          3D

 16 16  0  0  1  0  0  0  0  0999 V2000
    3.0217    0.7762    1.2361 H   0  0  0  0  0  0  0  0  0  0  0  0
    4.0917    0.7757    1.2365 C   0  0  0  0  0  0  0  0  0  0  0  0
    4.4482    1.2956    2.1011 H   0  0  0  0  0  0  0  0  0  0  0  0
    4.5977   -0.6573    1.2626 C   0  0  0  0  0  0  0  0  0  0  0  0
    5.0318   -1.8866    1.2849 C   0  0  0  0  0  0  0  0  0  0  0  0
    4.5826    1.4468    0.0242 N   0  0  0  0  0  0  0  0  0  0  0  0
    4.0932    2.8327   -0.0009 C   0  0  0  0  0  0  0  0  0  0  0  0
    4.0926    0.7328   -1.1637 C   0  0  2  0  0  0  0  0  0  0  0  0
    2.5726    0.7328   -1.1637 C   0  0  0  0  0  0  0  0  0  0  0  0
    4.5992   -0.7000   -1.1385 C   0  0  0  0  0  0  0  0  0  0  0  0
    4.0926   -1.4382   -2.3668 C   0  0  0  0  0  0  0  0  0  0  0  0
    4.4478   -2.7133   -2.4720 C   0  0  0  0  0  0  0  0  0  0  0  0
    4.0283   -3.4705   -3.5391 C   0  0  0  0  0  0  0  0  0  0  0  0
    3.3142   -2.9100   -4.5615 C   0  0  0  0  0  0  0  0  0  0  0  0
    2.9175   -1.6627   -4.3861 C   0  0  0  0  0  0  0  0  0  0  0  0
    3.4251   -0.7912   -3.3937 C   0  0  0  0  0  0  0  0  0  0  0  0
  1  2  1  0
  2  3  1  0
  2  4  1  0
  2  6  1  0
  4  5  3  0
  6  7  1  0
  8 10  1  0
  8  9  1  1
  8  6  1  0
 10 11  1  0
 11 12  2  0
 11 16  1  0
 12 13  1  0
 13 14  2  0
 14 15  1  0
 15 16  2  0
M  ISO  3   1   2   3   2   7  11
M  END
>  <DRUGBANK_ID>  (1) 
DB12650

>  <COMMON_NAME>  (1) 
L-deprenyl-D2 C-11

>  <CAS_NUMBER>  (1) 
118313-25-0

>  <UNII>  (1) 
F2796O8AEN

>  <SYNONYMS>  (1) 
(11C)L-deprenyl-D2; 11c-L-Selegiline-D2

$$$$
