
     RDKit          3D

 32 35  0  0  1  0  0  0  0  0999 V2000
   -0.2222    0.2691   -0.2007 C   0  0  0  0  0  0  0  0  0  0  0  0
   -1.0342    0.7332    1.0765 C   0  0  0  0  0  0  0  0  0  0  0  0
   -0.6350    2.7856   -0.4195 C   0  0  0  0  0  0  0  0  0  0  0  0
    1.5687    3.7662    0.2642 C   0  0  0  0  0  0  0  0  0  0  0  0
    1.2358    1.1351   -0.0785 C   0  0  1  0  0  0  0  0  0  0  0  0
    3.6204   -0.1749    0.2908 C   0  0  0  0  0  0  0  0  0  0  0  0
    5.0354   -0.1054    0.5381 C   0  0  0  0  0  0  0  0  0  0  0  0
    6.2646    0.8677    3.1561 C   0  0  0  0  0  0  0  0  0  0  0  0
    7.1632   -0.0662    2.3197 C   0  0  0  0  0  0  0  0  0  0  0  0
    1.4119    0.3587    1.2134 C   0  0  0  0  0  0  0  0  0  0  0  0
    3.0033    1.1707   -0.0731 C   0  0  2  0  0  0  0  0  0  0  0  0
    3.6469    2.4054    1.0424 C   0  0  1  0  0  0  0  0  0  0  0  0
    5.2406    2.2146    2.0645 C   0  0  2  0  0  0  0  0  0  0  0  0
    5.2759    0.8445    1.6782 C   0  0  1  0  0  0  0  0  0  0  0  0
    4.0819    0.8537    3.1713 C   0  0  0  0  0  0  0  0  0  0  0  0
    8.0051    3.0213    4.2942 C   0  0  0  0  0  0  0  0  0  0  0  0
    8.2059    3.2599    2.7887 C   0  0  0  0  0  0  0  0  0  0  0  0
    9.5176    1.2501    1.9629 C   0  0  0  0  0  0  0  0  0  0  0  0
    8.2298    2.0855    1.7668 C   0  0  1  0  0  0  0  0  0  0  0  0
    7.0232    1.0534    1.4345 C   0  0  1  0  0  0  0  0  0  0  0  0
   -1.3230    2.2437    0.9016 C   0  0  2  0  0  0  0  0  0  0  0  0
   -1.3340    2.9707    2.1430 O   0  0  0  0  0  0  0  0  0  0  0  0
    3.1532    3.7127    0.2816 C   0  0  2  0  0  0  0  0  0  0  0  0
    3.6487    4.9357    0.8006 O   0  0  0  0  0  0  0  0  0  0  0  0
    0.8815    2.6049   -0.4729 C   0  0  1  0  0  0  0  0  0  0  0  0
    8.8883    1.9577    4.9911 C   0  0  0  0  0  0  0  0  0  0  0  0
    8.7443    0.7671    4.8916 O   0  0  0  0  0  0  0  0  0  0  0  0
    9.8779    2.4427    5.8146 N   0  0  0  0  0  0  0  0  0  0  0  0
   10.8772    1.5041    6.3056 C   0  0  0  0  0  0  0  0  0  0  0  0
   12.9717    2.1918    7.2921 O   0  0  0  0  0  0  0  0  0  0  0  0
   12.2667    2.1113    6.1288 C   0  0  0  0  0  0  0  0  0  0  0  0
   12.6973    2.5178    5.0870 O   0  0  0  0  0  0  0  0  0  0  0  0
  2  1  1  0
  4 23  1  0
  5 11  1  0
  5  1  1  0
  5 10  1  1
  6  7  1  0
  9  8  1  0
 11  6  1  1
 11 12  1  0
 12 13  1  0
 12 23  1  6
 13 14  1  0
 13  8  1  1
 14 20  1  0
 14  7  1  0
 14 15  1  1
 16 17  1  0
 16 26  1  0
 19 17  1  0
 19 18  1  1
 20  9  1  1
 20 19  1  0
 21  3  1  0
 21  2  1  0
 21 22  1  1
 23 24  1  1
 25  5  1  0
 25  3  1  1
 25  4  1  0
 26 28  1  0
 26 27  2  0
 28 29  1  0
 29 31  1  0
 31 30  1  0
 31 32  2  0
M  END
>  <DRUGBANK_ID>  (1) 
DB02123

>  <SECONDARY_ACCESSION_NUMBERS>  (1) 
EXPT00909

>  <COMMON_NAME>  (1) 
Glycochenodeoxycholic Acid

>  <CAS_NUMBER>  (1) 
640-79-9

>  <UNII>  (1) 
451ZNJ667Y

$$$$
