
     RDKit          3D

 23 24  0  0  0  0  0  0  0  0999 V2000
   -1.6684   -0.8098    0.0506 S   0  0  0  0  0  0  0  0  0  0  0  0
   -1.4328    0.8770    0.6829 C   0  0  0  0  0  0  0  0  0  0  0  0
   -0.3370    1.4276   -0.2502 C   0  0  2  0  0  0  0  0  0  0  0  0
   -0.7966    1.8900   -1.6306 C   0  0  0  0  0  0  0  0  0  0  0  0
   -0.3098    3.0687   -2.0725 O   0  0  0  0  0  0  0  0  0  0  0  0
    0.0661    4.1219   -1.1880 C   0  0  0  0  0  0  0  0  0  0  0  0
   -0.8135    4.3127   -0.0704 O   0  0  0  0  0  0  0  0  0  0  0  0
   -2.0611    4.8205   -0.0177 C   0  0  0  0  0  0  0  0  0  0  0  0
   -2.9218    5.1000   -1.2613 C   0  0  0  0  0  0  0  0  0  0  0  0
   -4.1458    4.1680   -1.2747 C   0  0  0  0  0  0  0  0  0  0  0  0
   -3.4064    6.5484   -1.1344 C   0  0  0  0  0  0  0  0  0  0  0  0
   -2.2808    4.9855   -2.6326 C   0  0  0  0  0  0  0  0  0  0  0  0
   -2.5417    5.0005    1.1056 O   0  0  0  0  0  0  0  0  0  0  0  0
   -1.4415    1.1868   -2.3993 O   0  0  0  0  0  0  0  0  0  0  0  0
    0.5808    0.3285   -0.5371 N   0  0  0  0  0  0  0  0  0  0  0  0
    0.0210   -1.0531   -0.5643 C   0  0  1  0  0  0  0  0  0  0  0  0
    1.1074   -1.4372    0.4507 C   0  0  0  0  0  0  0  0  0  0  0  0
    1.5590    0.0271    0.3669 C   0  0  0  0  0  0  0  0  0  0  0  0
    2.2843    0.7622    0.9864 O   0  0  0  0  0  0  0  0  0  0  0  0
   -2.7308    1.6605    0.7132 C   0  0  0  0  0  0  0  0  0  0  0  0
   -0.9443    0.8647    2.1429 C   0  0  0  0  0  0  0  0  0  0  0  0
   -1.9199   -1.7012    1.1657 O   0  0  0  0  0  0  0  0  0  0  0  0
   -2.6088   -0.7835   -1.0522 O   0  0  0  0  0  0  0  0  0  0  0  0
  2  1  1  0
  3  2  1  0
  3  4  1  6
  3 15  1  0
  5  4  1  0
  6  5  1  0
  7  6  1  0
  8  7  1  0
  9  8  1  0
 10  9  1  0
 11  9  1  0
 12  9  1  0
 13  8  2  0
 14  4  2  0
 15 16  1  0
 16  1  1  0
 16 17  1  1
 18 17  1  0
 18 15  1  0
 19 18  2  0
 20  2  1  0
 21  2  1  0
 22  1  2  0
 23  1  2  0
M  END
>  <DRUGBANK_ID>  (1) 
DB15761

>  <COMMON_NAME>  (1) 
Sulbactam pivoxil

>  <CAS_NUMBER>  (1) 
69388-79-0

>  <UNII>  (1) 
2X0WTA96KX

>  <SYNONYMS>  (1) 
Pivsulbactam; Sulbactam pivoxil; Sulbactam pivoxyl

$$$$
