1162
     RDKit          3D

 28 31  0  0  1  0  0  0  0  0999 V2000
    1.0951   -0.0099    0.0442 O   0  0  0  0  0  0  0  0  0  0  0  0
    0.8519   -2.8107    1.8747 O   0  0  0  0  0  0  0  0  0  0  0  0
    0.3182    7.7624    7.7594 O   0  0  0  0  0  0  0  0  0  0  0  0
   -1.7153    6.8861    9.6127 O   0  0  0  0  0  0  0  0  0  0  0  0
    0.0495   -0.8321    2.7059 N   0  0  0  0  0  0  0  0  0  0  0  0
   -0.1619    1.5321    4.2608 N   0  0  0  0  0  0  0  0  0  0  0  0
    0.0846    3.5731    5.4504 N   0  0  0  0  0  0  0  0  0  0  0  0
   -1.4977    1.9343    6.0637 N   0  0  0  0  0  0  0  0  0  0  0  0
   -2.9885    2.2075    7.7779 N   0  0  0  0  0  0  0  0  0  0  0  0
    0.2392   -1.1549    0.2073 C   0  0  0  0  0  0  0  0  0  0  0  0
   -1.2759   -0.2883    3.0213 C   0  0  0  0  0  0  0  0  0  0  0  0
    1.0323   -0.5688    3.7657 C   0  0  0  0  0  0  0  0  0  0  0  0
   -1.1846    1.2405    3.2696 C   0  0  0  0  0  0  0  0  0  0  0  0
    1.1634    0.9763    3.9818 C   0  0  0  0  0  0  0  0  0  0  0  0
   -1.1364   -0.7472   -0.2800 C   0  0  0  0  0  0  0  0  0  0  0  0
    0.3439   -1.6984    1.6654 C   0  0  0  0  0  0  0  0  0  0  0  0
   -1.1524    0.7412   -0.0701 C   0  0  0  0  0  0  0  0  0  0  0  0
    0.2967    1.1517   -0.1918 C   0  0  0  0  0  0  0  0  0  0  0  0
   -0.4971    2.3680    5.2887 C   0  0  0  0  0  0  0  0  0  0  0  0
   -0.3707    4.3886    6.4436 C   0  0  0  0  0  0  0  0  0  0  0  0
   -1.3807    3.9776    7.3141 C   0  0  0  0  0  0  0  0  0  0  0  0
   -1.9038    2.7086    7.0738 C   0  0  0  0  0  0  0  0  0  0  0  0
    0.1321    5.6862    6.6639 C   0  0  0  0  0  0  0  0  0  0  0  0
   -1.8232    4.8106    8.3764 C   0  0  0  0  0  0  0  0  0  0  0  0
   -0.3092    6.5352    7.7163 C   0  0  0  0  0  0  0  0  0  0  0  0
   -1.3002    6.0793    8.5931 C   0  0  0  0  0  0  0  0  0  0  0  0
   -0.0589    8.6686    8.7985 C   0  0  0  0  0  0  0  0  0  0  0  0
   -2.7157    6.4469   10.5183 C   0  0  0  0  0  0  0  0  0  0  0  0
  1 10  1  0
  1 18  1  0
  2 16  2  0
  3 25  1  0
  3 27  1  0
  4 26  1  0
  4 28  1  0
  5 11  1  0
  5 12  1  0
  5 16  1  0
  6 13  1  0
  6 14  1  0
  6 19  1  0
  7 19  2  0
  7 20  1  0
  8 19  1  0
  8 22  2  0
  9 22  1  0
 10 15  1  0
 10 16  1  0
 11 13  1  0
 12 14  1  0
 15 17  1  0
 17 18  1  0
 20 21  2  0
 20 23  1  0
 21 22  1  0
 21 24  1  0
 23 25  2  0
 24 26  2  0
 25 26  1  0
M  END
>  <DRUGBANK_ID>  (1) 
DB01162

>  <SECONDARY_ACCESSION_NUMBERS>  (1) 
APRD00667

>  <COMMON_NAME>  (1) 
Terazosin

>  <CAS_NUMBER>  (1) 
63590-64-7

>  <UNII>  (1) 
8L5014XET7

>  <SYNONYMS>  (1) 
1-(4-Amino-6,7-dimethoxy-2-quinazolinyl)-4-((tetrahydro-2-furanyl)carbonyl)piperazine; Terazosin; Terazosina; Terazosine; TÃ©razosine; Terazosinum

$$$$
