
     RDKit          3D

 18 17  0  0  0  0  0  0  0  0999 V2000
   -1.9126    0.7680    0.6918 S   0  0  0  0  0  0  0  0  0  0  0  0
   -4.0124    6.9725    2.2042 O   0  0  0  0  0  0  0  0  0  0  0  0
   -3.1177    5.1950    1.2482 O   0  0  0  0  0  0  0  0  0  0  0  0
   -4.4254    2.7981   -3.2071 O   0  0  0  0  0  0  0  0  0  0  0  0
   -4.7130    1.0321   -1.8338 O   0  0  0  0  0  0  0  0  0  0  0  0
   -4.5485    4.1263    3.9305 N   0  0  0  0  0  0  0  0  0  0  0  0
   -2.2262    1.1256    3.3616 N   0  0  0  0  0  0  0  0  0  0  0  0
   -4.3126    3.2468    0.0145 N   0  0  0  0  0  0  0  0  0  0  0  0
   -2.8162    2.7780    1.9092 N   0  0  0  0  0  0  0  0  0  0  0  0
   -1.9687    4.3994    3.9405 C   0  0  0  0  0  0  0  0  0  0  0  0
   -3.3762    5.0928    3.6788 C   0  0  1  0  0  0  0  0  0  0  0  0
   -1.9402    3.1857    4.9142 C   0  0  0  0  0  0  0  0  0  0  0  0
   -2.6871    1.8458    4.5734 C   0  0  0  0  0  0  0  0  0  0  0  0
   -3.4549    5.7493    2.2632 C   0  0  0  0  0  0  0  0  0  0  0  0
   -3.3538    2.8689   -1.0425 C   0  0  1  0  0  0  0  0  0  0  0  0
   -2.0348    2.0948   -0.6452 C   0  0  0  0  0  0  0  0  0  0  0  0
   -2.3274    1.5783    2.1627 C   0  0  0  0  0  0  0  0  0  0  0  0
   -4.1838    2.1092   -2.0664 C   0  0  0  0  0  0  0  0  0  0  0  0
  1 16  1  0
  1 17  1  0
  2 14  1  0
  3 14  2  0
  4 18  1  0
  5 18  2  0
  7 13  1  0
  7 17  2  0
  9 17  1  0
 10 12  1  0
 11 14  1  0
 11 10  1  0
 11  6  1  6
 12 13  1  0
 15 18  1  0
 15 16  1  0
 15  8  1  1
M  CHG  1   6   1
M  END
>  <DRUGBANK_ID>  (1) 
DB04671

>  <COMMON_NAME>  (1) 
[(1S)-4-[[Amino-[(2R)-2-amino-2-carboxyethyl]sulfanylmethylidene]amino]-1-carboxybutyl]azanium

$$$$
