228
     RDKit          3D

 10  9  0  0  1  0  0  0  0  0999 V2000
    0.9526   -0.0013    0.0103 Cl  0  0  0  0  0  0  0  0  0  0  0  0
    2.8342    0.9887   -2.2115 F   0  0  0  0  0  0  0  0  0  0  0  0
    4.6067   -0.0753   -1.5154 F   0  0  0  0  0  0  0  0  0  0  0  0
    3.1819   -1.0993    0.6410 F   0  0  0  0  0  0  0  0  0  0  0  0
    2.8266   -0.2690   -4.2033 F   0  0  0  0  0  0  0  0  0  0  0  0
    4.6217   -1.3303   -3.5304 F   0  0  0  0  0  0  0  0  0  0  0  0
    2.8111   -1.2786   -2.1847 O   0  0  0  0  0  0  0  0  0  0  0  0
    3.2493   -0.1068   -1.5261 C   0  0  0  0  0  0  0  0  0  0  0  0
    2.7369   -0.0314   -0.0816 C   0  0  0  0  0  0  0  0  0  0  0  0
    3.2724   -1.3374   -3.5095 C   0  0  0  0  0  0  0  0  0  0  0  0
  1  9  1  0
  2  8  1  0
  3  8  1  0
  4  9  1  0
  5 10  1  0
  6 10  1  0
  7  8  1  0
  7 10  1  0
  8  9  1  0
M  END
>  <DRUGBANK_ID>  (1) 
DB00228

>  <SECONDARY_ACCESSION_NUMBERS>  (1) 
APRD00234

>  <COMMON_NAME>  (1) 
Enflurane

>  <CAS_NUMBER>  (1) 
13838-16-9

>  <UNII>  (1) 
91I69L5AY5

>  <SYNONYMS>  (1) 
2-chloro-1,1,2-trifluoroethyl difluoromethyl ether; Alyrane; Efrane; Enflurane; Enflurano; Enfluranum; Methylflurether

$$$$
