K01
     RDKit          3D

 24 26  0  0  0  0  0  0  0  0999 V2000
    1.1260    0.2907   -0.1745 O   0  0  0  0  0  0  0  0  0  0  0  0
    2.3009    0.0042   -0.0061 C   0  0  0  0  0  0  0  0  0  0  0  0
    3.0594   -0.6949   -1.0357 C   0  0  0  0  0  0  0  0  0  0  0  0
    4.3218   -1.8028   -0.7198 S   0  0  0  0  0  0  0  0  0  0  0  0
    4.4714   -2.2014   -2.3856 C   0  0  0  0  0  0  0  0  0  0  0  0
    3.6121   -1.4639   -3.1686 C   0  0  0  0  0  0  0  0  0  0  0  0
    2.8010   -0.5998   -2.3885 C   0  0  0  0  0  0  0  0  0  0  0  0
    3.0616    0.4533    1.0696 N   0  0  0  0  0  0  0  0  0  0  0  0
    2.4791    1.2871    1.9758 C   0  0  0  0  0  0  0  0  0  0  0  0
    3.0885    2.8194    2.1117 S   0  0  0  0  0  0  0  0  0  0  0  0
    1.3314    3.3109    3.3575 C   0  0  0  0  0  0  0  0  0  0  0  0
    2.2402    2.4489    3.9205 C   0  0  0  0  0  0  0  0  0  0  0  0
    3.1606    4.1416    4.1206 C   0  0  0  0  0  0  0  0  0  0  0  0
    3.8147    3.9586    5.3975 C   0  0  0  0  0  0  0  0  0  0  0  0
    2.5267    3.7791    6.1674 C   0  0  0  0  0  0  0  0  0  0  0  0
    1.1333    3.8484    5.1102 C   0  0  0  0  0  0  0  0  0  0  0  0
    1.5316    1.2090    2.9409 C   0  0  0  0  0  0  0  0  0  0  0  0
    0.6865   -0.2361    2.8363 C   0  0  0  0  0  0  0  0  0  0  0  0
    1.1550   -1.1245    2.0522 O   0  0  0  0  0  0  0  0  0  0  0  0
   -0.5363   -0.7201    3.4127 N   0  0  0  0  0  0  0  0  0  0  0  0
   -1.0857   -0.0624    4.5520 C   0  0  0  0  0  0  0  0  0  0  0  0
   -0.0275   -0.0411    5.6288 C   0  0  0  0  0  0  0  0  0  0  0  0
   -1.1794   -2.0719    3.0273 C   0  0  0  0  0  0  0  0  0  0  0  0
   -1.1657   -3.1458    4.1341 C   0  0  0  0  0  0  0  0  0  0  0  0
  1  2  2  0
  2  3  1  0
  2  8  1  0
  3  7  2  0
  3  4  1  0
  4  5  1  0
  5  6  2  0
  6  7  1  0
  8  9  1  0
  9 17  2  0
  9 10  1  0
 10 11  1  0
 11 12  2  0
 11 16  1  0
 12 17  1  0
 12 13  1  0
 13 14  1  0
 14 15  1  0
 15 16  1  0
 17 18  1  0
 18 20  1  0
 18 19  2  0
 20 23  1  0
 20 21  1  0
 21 22  1  0
 23 24  1  0
M  END
>  <DRUGBANK_ID>  (1) 
DB08032

>  <COMMON_NAME>  (1) 
N,N-DIETHYL-2-[(2-THIENYLCARBONYL)AMINO]-4,5,6,7-TETRAHYDRO-1-BENZOTHIOPHENE-3-CARBOXAMIDE

$$$$
