ZYU
     RDKit          3D

 15 17  0  0  0  0  0  0  0  0999 V2000
   -0.7789    1.2490    0.1664 C   0  0  0  0  0  0  0  0  0  0  0  0
    0.6845    1.1653   -0.2912 C   0  0  0  0  0  0  0  0  0  0  0  0
    1.3242   -0.0309    0.1984 O   0  0  0  0  0  0  0  0  0  0  0  0
    0.6215   -1.2000   -0.2698 C   0  0  0  0  0  0  0  0  0  0  0  0
   -0.8436   -1.2158    0.2169 C   0  0  0  0  0  0  0  0  0  0  0  0
   -2.6430    0.0505   -0.9250 C   0  0  0  0  0  0  0  0  0  0  0  0
   -2.6663    0.6737   -2.1396 N   0  0  0  0  0  0  0  0  0  0  0  0
   -3.8182    0.6885   -2.8508 C   0  0  0  0  0  0  0  0  0  0  0  0
   -5.0253    0.2034   -2.5002 N   0  0  0  0  0  0  0  0  0  0  0  0
   -4.9640   -0.3682   -1.2911 C   0  0  0  0  0  0  0  0  0  0  0  0
   -3.8563   -0.5130   -0.4682 C   0  0  0  0  0  0  0  0  0  0  0  0
   -4.2146   -1.1669    0.6982 N   0  0  0  0  0  0  0  0  0  0  0  0
   -5.5116   -1.3705    0.5931 C   0  0  0  0  0  0  0  0  0  0  0  0
   -6.0037   -0.9109   -0.5960 N   0  0  0  0  0  0  0  0  0  0  0  0
   -1.4747    0.0263   -0.2084 N   0  0  0  0  0  0  0  0  0  0  0  0
  1  2  1  0
  1 15  1  0
  2  3  1  0
  3  4  1  0
  4  5  1  0
  5 15  1  0
  6  7  2  0
  6 11  1  0
  6 15  1  0
  7  8  1  0
  8  9  2  0
  9 10  1  0
 10 11  2  0
 10 14  1  0
 11 12  1  0
 12 13  2  0
 13 14  1  0
M  END
>  <DRUGBANK_ID>  (1) 
DB08780

>  <COMMON_NAME>  (1) 
6-MORPHOLIN-4-YL-9H-PURINE

>  <UNII>  (1) 
89VN5RQ48X

$$$$
