
     RDKit          3D

  9  8  0  0  0  0  0  0  0  0999 V2000
    0.8732    0.0613   -0.1274 O   0  0  0  0  0  0  0  0  0  0  0  0
    0.2410   -0.6181   -1.1101 C   0  0  0  0  0  0  0  0  0  0  0  0
    0.8796   -1.0719   -2.0478 O   0  0  0  0  0  0  0  0  0  0  0  0
   -1.2442   -0.8060   -0.8333 C   0  0  0  0  0  0  0  0  0  0  0  0
   -1.5108   -1.2534    0.4889 O   0  0  0  0  0  0  0  0  0  0  0  0
   -1.1301   -2.7754    0.8174 P   0  0  0  0  0  0  0  0  0  0  0  0
   -2.0938   -3.5689   -0.1760 O   0  0  0  0  0  0  0  0  0  0  0  0
    0.3220   -2.9174    0.1828 O   0  0  0  0  0  0  0  0  0  0  0  0
   -1.2222   -3.2166    2.2331 O   0  0  0  0  0  0  0  0  0  0  0  0
  1  2  1  0
  2  3  2  0
  2  4  1  0
  4  5  1  0
  5  6  1  0
  6  7  1  0
  6  8  1  0
  6  9  2  0
M  END
>  <DRUGBANK_ID>  (1) 
DB02726

>  <SECONDARY_ACCESSION_NUMBERS>  (1) 
EXPT02567; DB02389

>  <COMMON_NAME>  (1) 
2-Phosphoglycolic Acid

>  <CAS_NUMBER>  (1) 
13147-57-4

>  <UNII>  (1) 
H8593JOP13

$$$$
