
     RDKit          3D

 25 26  0  0  0  0  0  0  0  0999 V2000
    1.2501   -0.0957   -0.3425 C   0  0  0  0  0  0  0  0  0  0  0  0
   -1.0414   -2.9307    2.6408 C   0  0  0  0  0  0  0  0  0  0  0  0
    0.9443    1.7779    1.8620 C   0  0  0  0  0  0  0  0  0  0  0  0
   -1.7653    0.7699    2.8554 C   0  0  0  0  0  0  0  0  0  0  0  0
    0.7844   -0.5738    1.0081 C   0  0  0  0  0  0  0  0  0  0  0  0
   -1.6754   -1.5776    2.4931 C   0  0  0  0  0  0  0  0  0  0  0  0
   -1.2962    5.8383    1.1830 C   0  0  0  0  0  0  0  0  0  0  0  0
   -2.6416    5.9903    0.8697 C   0  0  0  0  0  0  0  0  0  0  0  0
   -3.2373    1.3216    5.4595 C   0  0  0  0  0  0  0  0  0  0  0  0
   -0.9200    5.3235    2.4318 C   0  0  0  0  0  0  0  0  0  0  0  0
   -3.6004    5.7352    1.8419 C   0  0  0  0  0  0  0  0  0  0  0  0
   -1.9432    0.9928    5.9082 C   0  0  0  0  0  0  0  0  0  0  0  0
   -3.1774    2.6314    5.0165 C   0  0  0  0  0  0  0  0  0  0  0  0
   -1.4156    4.4499    4.7569 C   0  0  0  0  0  0  0  0  0  0  0  0
    0.8871    0.4586    4.7285 C   0  0  0  0  0  0  0  0  0  0  0  0
    1.1518    0.2969    2.2233 C   0  0  0  0  0  0  0  0  0  0  0  0
   -1.0075   -0.4609    3.3333 C   0  0  0  0  0  0  0  0  0  0  0  0
   -1.8803    5.0176    3.4239 C   0  0  0  0  0  0  0  0  0  0  0  0
   -3.2139    5.3568    3.1324 C   0  0  0  0  0  0  0  0  0  0  0  0
   -1.0828    2.0087    5.5013 C   0  0  0  0  0  0  0  0  0  0  0  0
    0.3839    1.9017    5.1428 C   0  0  0  0  0  0  0  0  0  0  0  0
   -4.4291    5.5564    4.3531 Cl  0  0  0  0  0  0  0  0  0  0  0  0
   -1.8857    3.0919    5.1198 N   0  0  0  0  0  0  0  0  0  0  0  0
    0.4585   -0.2148    3.4348 N   0  0  0  0  0  0  0  0  0  0  0  0
    1.1299    2.4606    6.2189 O   0  0  0  0  0  0  0  0  0  0  0  0
  5  1  1  0
  6  2  1  0
  8  7  2  0
 10  7  1  0
 11  8  1  0
 12  9  1  0
 13  9  2  0
 16  3  1  0
 16  5  1  0
 17  4  1  0
 17  6  1  0
 18 10  2  0
 18 14  1  0
 19 11  2  0
 19 18  1  0
 20 12  2  0
 21 15  1  0
 21 20  1  0
 22 19  1  0
 23 13  1  0
 23 14  1  0
 23 20  1  0
 24 15  1  0
 24 16  1  0
 24 17  1  0
 25 21  1  0
M  END
>  <DRUGBANK_ID>  (1) 
DB13353

>  <COMMON_NAME>  (1) 
Viminol

>  <CAS_NUMBER>  (1) 
21363-18-8

>  <UNII>  (1) 
TPV54G6XBG

>  <SYNONYMS>  (1) 
Viminol

$$$$
