AK1
     RDKit          3D

 31 34  0  0  0  0  0  0  0  0999 V2000
    1.7054    0.7339    0.0029 C   0  0  0  0  0  0  0  0  0  0  0  0
    0.5515    1.3670    0.4755 C   0  0  0  0  0  0  0  0  0  0  0  0
   -0.5216    1.1711   -2.3154 C   0  0  0  0  0  0  0  0  0  0  0  0
   -1.7818   -0.6566   -1.1914 C   0  0  0  0  0  0  0  0  0  0  0  0
   -2.8762    0.7895    1.0983 C   0  0  0  0  0  0  0  0  0  0  0  0
   -2.5186   -1.1848   -0.1245 C   0  0  0  0  0  0  0  0  0  0  0  0
   -0.1138    2.9533    0.2321 C   0  0  0  0  0  0  0  0  0  0  0  0
   -1.1651   -3.1121    0.1535 C   0  0  0  0  0  0  0  0  0  0  0  0
   -1.2588    3.5736   -1.0990 C   0  0  0  0  0  0  0  0  0  0  0  0
   -3.9607    3.3197   -1.2860 C   0  0  0  0  0  0  0  0  0  0  0  0
   -5.5398    4.8166   -1.9981 C   0  0  0  0  0  0  0  0  0  0  0  0
   -5.0648    2.6281   -0.6518 C   0  0  0  0  0  0  0  0  0  0  0  0
   -6.2809    3.3051   -0.5115 C   0  0  0  0  0  0  0  0  0  0  0  0
   -7.1469    2.7414    0.4909 C   0  0  0  0  0  0  0  0  0  0  0  0
   -6.5965    1.6257    1.0762 C   0  0  0  0  0  0  0  0  0  0  0  0
    0.0931    0.1539   -2.9949 F   0  0  0  0  0  0  0  0  0  0  0  0
    1.6356   -0.6862   -0.1181 N   0  0  0  0  0  0  0  0  0  0  0  0
    0.5397   -1.1648    0.4479 C   0  0  0  0  0  0  0  0  0  0  0  0
    0.0094    0.0162    1.6362 S   0  0  0  0  0  0  0  0  0  0  0  0
   -6.5605    4.3955   -1.2511 N   0  0  0  0  0  0  0  0  0  0  0  0
   -2.6641    2.9235   -1.5837 N   0  0  0  0  0  0  0  0  0  0  0  0
   -4.2723    4.4255   -1.9569 N   0  0  0  0  0  0  0  0  0  0  0  0
   -5.4915    1.0277   -0.0956 S   0  0  0  0  0  0  0  0  0  0  0  0
   -1.1868    1.8497   -3.2990 F   0  0  0  0  0  0  0  0  0  0  0  0
    0.5280    1.9932   -1.9930 F   0  0  0  0  0  0  0  0  0  0  0  0
   -1.4785    0.6527   -1.1260 C   0  0  0  0  0  0  0  0  0  0  0  0
   -2.1154    1.3083    0.0716 C   0  0  0  0  0  0  0  0  0  0  0  0
   -3.1251   -0.5238    0.9564 C   0  0  0  0  0  0  0  0  0  0  0  0
   -2.3618   -2.5165    0.0912 N   0  0  0  0  0  0  0  0  0  0  0  0
    0.0538   -2.4838    0.2532 N   0  0  0  0  0  0  0  0  0  0  0  0
   -1.2075   -4.3694    0.0239 O   0  0  0  0  0  0  0  0  0  0  0  0
  1  2  2  0
  2 19  1  0
  2  7  1  0
  3 24  1  0
  3 26  1  0
  3 25  1  0
  4  6  2  0
  4 26  1  0
  6 28  1  0
  7  9  1  0
  8 31  2  0
  9 21  1  0
 10 21  1  0
 10 12  2  0
 11 22  2  0
 11 20  1  0
 12 23  1  0
 13 12  1  0
 13 14  1  0
 14 15  2  0
 15 23  1  0
 16  3  1  0
 17  1  1  0
 17 18  2  0
 18 19  1  0
 20 13  2  0
 22 10  1  0
 26 27  2  0
 27  5  1  0
 28  5  2  0
 29  6  1  0
 29  8  1  0
 30  8  1  0
 30 18  1  0
M  END
>  <DRUGBANK_ID>  (1) 
DB07360

>  <COMMON_NAME>  (1) 
1-{5-[2-(thieno[3,2-d]pyrimidin-4-ylamino)ethyl]-1,3-thiazol-2-yl}-3-[3-(trifluoromethyl)phenyl]urea

$$$$
