
     RDKit          3D

 31 34  0  0  0  0  0  0  0  0999 V2000
    2.9774   -1.6829   14.8573 C   0  0  0  0  0  0  0  0  0  0  0  0
   -4.2013    7.1320    5.8112 C   0  0  0  0  0  0  0  0  0  0  0  0
   -1.6458    0.7200   14.2461 C   0  0  0  0  0  0  0  0  0  0  0  0
   -3.7703    5.3065    9.8722 C   0  0  0  0  0  0  0  0  0  0  0  0
   -3.9224    3.7980    9.7671 C   0  0  0  0  0  0  0  0  0  0  0  0
   -0.3043    0.8963    9.2399 C   0  0  0  0  0  0  0  0  0  0  0  0
   -0.9422    6.3137    7.7335 C   0  0  0  0  0  0  0  0  0  0  0  0
   -1.9804    8.4116    7.1564 C   0  0  0  0  0  0  0  0  0  0  0  0
   -0.0066    6.9998    8.5147 C   0  0  0  0  0  0  0  0  0  0  0  0
   -1.0637    9.0937    7.9554 C   0  0  0  0  0  0  0  0  0  0  0  0
    0.2724    0.1389   10.2768 C   0  0  0  0  0  0  0  0  0  0  0  0
   -4.3920    5.8982    8.6290 C   0  0  0  0  0  0  0  0  0  0  0  0
   -2.0919    2.4976    8.4445 C   0  0  0  0  0  0  0  0  0  0  0  0
   -1.6140    1.9861   10.8734 C   0  0  0  0  0  0  0  0  0  0  0  0
    1.6845   -0.4239   13.0170 C   0  0  0  0  0  0  0  0  0  0  0  0
   -0.1743   -1.5694   13.3001 C   0  0  0  0  0  0  0  0  0  0  0  0
    1.7923   -1.3108   14.0671 C   0  0  0  0  0  0  0  0  0  0  0  0
   -3.1428    6.2215    6.4393 C   0  0  1  0  0  0  0  0  0  0  0  0
   -1.3318    1.7990    9.5185 C   0  0  0  0  0  0  0  0  0  0  0  0
   -1.9868    7.0047    7.0902 C   0  0  0  0  0  0  0  0  0  0  0  0
   -3.1762    3.3051    8.5587 C   0  0  0  0  0  0  0  0  0  0  0  0
   -0.0898    8.3809    8.6346 C   0  0  0  0  0  0  0  0  0  0  0  0
   -0.2247    0.2232   11.5929 C   0  0  0  0  0  0  0  0  0  0  0  0
   -1.2011    1.1517   11.9108 C   0  0  0  0  0  0  0  0  0  0  0  0
   -3.7068    3.9556    7.3054 C   0  0  0  0  0  0  0  0  0  0  0  0
    0.7894    9.0370    9.4022 F   0  0  0  0  0  0  0  0  0  0  0  0
    0.6059   -1.9674   14.2760 N   0  0  0  0  0  0  0  0  0  0  0  0
    0.3954   -0.5592   12.5703 N   0  0  0  0  0  0  0  0  0  0  0  0
   -3.7708    5.3352    7.4351 N   0  0  0  0  0  0  0  0  0  0  0  0
   -3.9780    3.3272    6.2847 O   0  0  0  0  0  0  0  0  0  0  0  0
   -1.8214    1.4959   13.0784 O   0  0  0  0  0  0  0  0  0  0  0  0
  5  4  1  0
  9  7  2  0
 10  8  1  0
 11  6  2  0
 12  4  1  0
 17  1  1  0
 17 15  2  0
 18  2  1  1
 19  6  1  0
 19 13  1  0
 19 14  2  0
 20  7  1  0
 20  8  2  0
 20 18  1  0
 21  5  1  0
 21 13  2  0
 22  9  1  0
 22 10  2  0
 23 11  1  0
 24 14  1  0
 24 23  2  0
 25 21  1  0
 26 22  1  0
 27 16  2  0
 27 17  1  0
 28 15  1  0
 28 16  1  0
 28 23  1  0
 29 12  1  0
 29 18  1  0
 29 25  1  0
 30 25  2  0
 31  3  1  0
 31 24  1  0
M  END
>  <DRUGBANK_ID>  (1) 
DB05171

>  <COMMON_NAME>  (1) 
E-2012

>  <CAS_NUMBER>  (1) 
870843-42-8

>  <UNII>  (1) 
3LSD4Y5F0F

$$$$
