RQ3
     RDKit          3D

 25 26  0  0  0  0  0  0  0  0999 V2000
    1.0177   -0.1424    0.0891 C   0  0  0  0  0  0  0  0  0  0  0  0
    0.3169   -0.2409   -1.0709 O   0  0  0  0  0  0  0  0  0  0  0  0
    0.4215   -0.0237    1.1426 O   0  0  0  0  0  0  0  0  0  0  0  0
    2.5770   -0.0628   -0.0410 C   0  0  0  0  0  0  0  0  0  0  0  0
    3.0542   -0.2082   -1.4830 C   0  0  0  0  0  0  0  0  0  0  0  0
    2.8547    1.3561    0.5048 C   0  0  0  0  0  0  0  0  0  0  0  0
    3.1480   -1.1632    0.7119 O   0  0  0  0  0  0  0  0  0  0  0  0
    4.5073   -1.4010    0.6606 C   0  0  0  0  0  0  0  0  0  0  0  0
    5.4600   -0.3831    0.6523 C   0  0  0  0  0  0  0  0  0  0  0  0
    6.7965   -0.5945    0.9369 C   0  0  0  0  0  0  0  0  0  0  0  0
    7.2433   -1.8787    1.2005 C   0  0  0  0  0  0  0  0  0  0  0  0
    4.9633   -2.7047    0.8394 C   0  0  0  0  0  0  0  0  0  0  0  0
    6.3269   -2.9419    1.1145 C   0  0  0  0  0  0  0  0  0  0  0  0
    8.6452   -2.0174    1.7215 C   0  0  0  0  0  0  0  0  0  0  0  0
    8.8000   -2.7926    3.0212 C   0  0  0  0  0  0  0  0  0  0  0  0
    9.3468   -3.9013    3.0050 O   0  0  0  0  0  0  0  0  0  0  0  0
    8.4719   -2.2309    4.2383 N   0  0  0  0  0  0  0  0  0  0  0  0
    7.7476   -1.0550    4.5178 C   0  0  0  0  0  0  0  0  0  0  0  0
    6.5429   -0.7925    3.8832 C   0  0  0  0  0  0  0  0  0  0  0  0
    5.8563    0.4170    4.0291 C   0  0  0  0  0  0  0  0  0  0  0  0
    6.3018    1.3265    4.9487 C   0  0  0  0  0  0  0  0  0  0  0  0
    8.0996   -0.2042    5.5579 C   0  0  0  0  0  0  0  0  0  0  0  0
    7.3187    0.9451    5.8116 C   0  0  0  0  0  0  0  0  0  0  0  0
    4.6292    0.7595    3.2682 C   0  0  0  0  0  0  0  0  0  0  0  0
    7.3964    1.6932    7.0984 C   0  0  0  0  0  0  0  0  0  0  0  0
  1  2  1  0
  1  3  2  0
  1  4  1  0
  4  5  1  0
  4  6  1  0
  4  7  1  0
  7  8  1  0
  8  9  2  0
  8 12  1  0
  9 10  1  0
 10 11  2  0
 11 13  1  0
 11 14  1  0
 12 13  2  0
 14 15  1  0
 15 16  2  0
 15 17  1  0
 17 18  1  0
 18 19  2  0
 18 22  1  0
 19 20  1  0
 20 21  2  0
 20 24  1  0
 21 23  1  0
 22 23  2  0
 23 25  1  0
M  END
>  <DRUGBANK_ID>  (1) 
DB08486

>  <SECONDARY_ACCESSION_NUMBERS>  (1) 
DB06459

>  <COMMON_NAME>  (1) 
Efaproxiral

>  <CAS_NUMBER>  (1) 
131179-95-8

>  <UNII>  (1) 
J81E81G364

>  <SYNONYMS>  (1) 
Efaproxiral

$$$$
