
     RDKit          3D

 26 28  0  0  0  0  0  0  0  0999 V2000
    1.1351    0.0836    0.0588 C   0  0  0  0  0  0  0  0  0  0  0  0
    0.7720   -1.2297   -0.3081 O   0  0  0  0  0  0  0  0  0  0  0  0
    1.1019   -1.5424   -1.6057 C   0  0  0  0  0  0  0  0  0  0  0  0
    2.3844   -1.5811   -2.0861 C   0  0  0  0  0  0  0  0  0  0  0  0
    2.6215   -2.1174   -3.3545 C   0  0  0  0  0  0  0  0  0  0  0  0
    1.5913   -2.6887   -4.1065 C   0  0  0  0  0  0  0  0  0  0  0  0
    0.3022   -2.6823   -3.5971 C   0  0  0  0  0  0  0  0  0  0  0  0
    0.0597   -2.0079   -2.3913 C   0  0  0  0  0  0  0  0  0  0  0  0
   -1.1734   -1.8133   -1.8625 N   0  0  0  0  0  0  0  0  0  0  0  0
   -1.8008   -0.5030   -1.7025 C   0  0  0  0  0  0  0  0  0  0  0  0
   -2.6009   -0.5050   -0.3932 C   0  0  0  0  0  0  0  0  0  0  0  0
   -3.5365   -1.6229   -0.3191 N   0  0  0  0  0  0  0  0  0  0  0  0
   -2.7929   -2.9079   -0.3546 C   0  0  0  0  0  0  0  0  0  0  0  0
   -1.9155   -2.9849   -1.5959 C   0  0  0  0  0  0  0  0  0  0  0  0
   -4.5623   -1.5141   -1.3564 C   0  0  0  0  0  0  0  0  0  0  0  0
   -4.5889   -1.8312   -2.8767 C   0  0  0  0  0  0  0  0  0  0  0  0
   -4.3342   -3.3114   -3.2511 C   0  0  0  0  0  0  0  0  0  0  0  0
   -5.3078   -4.4108   -2.9497 C   0  0  0  0  0  0  0  0  0  0  0  0
   -5.2984   -5.4110   -3.7010 O   0  0  0  0  0  0  0  0  0  0  0  0
   -5.8999   -4.5583   -1.5681 C   0  0  0  0  0  0  0  0  0  0  0  0
   -6.6338   -3.5467   -0.9146 C   0  0  0  0  0  0  0  0  0  0  0  0
   -6.9349   -3.6205    0.4462 C   0  0  0  0  0  0  0  0  0  0  0  0
   -6.8748   -4.8580    1.0403 C   0  0  0  0  0  0  0  0  0  0  0  0
   -6.3070   -5.9344    0.3635 C   0  0  0  0  0  0  0  0  0  0  0  0
   -5.6755   -5.7456   -0.8709 C   0  0  0  0  0  0  0  0  0  0  0  0
   -7.4424   -5.0341    2.2387 F   0  0  0  0  0  0  0  0  0  0  0  0
  1  2  1  0
  2  3  1  0
  3  4  2  0
  3  8  1  0
  4  5  1  0
  5  6  2  0
  6  7  1  0
  7  8  2  0
  8  9  1  0
  9 10  1  0
  9 14  1  0
 10 11  1  0
 11 12  1  0
 12 13  1  0
 12 15  1  0
 13 14  1  0
 15 16  1  0
 16 17  1  0
 17 18  1  0
 18 19  2  0
 18 20  1  0
 20 21  2  0
 20 25  1  0
 21 22  1  0
 22 23  2  0
 23 24  1  0
 23 26  1  0
 24 25  2  0
M  END
>  <DRUGBANK_ID>  (1) 
DB13665

>  <COMMON_NAME>  (1) 
Fluanisone

>  <CAS_NUMBER>  (1) 
1480-19-9

>  <UNII>  (1) 
1D0W98U1I4

>  <SYNONYMS>  (1) 
Fluanisone

$$$$
