
     RDKit          3D

 22 23  0  0  1  0  0  0  0  0999 V2000
   -1.5134   -1.1314   -0.1454 N   0  0  0  0  0  0  0  0  0  0  0  0
   -2.2270   -0.0434   -0.5630 C   0  0  0  0  0  0  0  0  0  0  0  0
   -1.5253    1.0776   -0.2071 C   0  0  0  0  0  0  0  0  0  0  0  0
   -0.1890    0.6683   -0.0530 C   0  0  0  0  0  0  0  0  0  0  0  0
    1.0076    1.4191    0.0213 C   0  0  0  0  0  0  0  0  0  0  0  0
    2.2113    0.6963    0.0308 C   0  0  0  0  0  0  0  0  0  0  0  0
    2.1971   -0.7087    0.0258 C   0  0  0  0  0  0  0  0  0  0  0  0
    1.0050   -1.4509    0.0263 C   0  0  0  0  0  0  0  0  0  0  0  0
   -0.1915   -0.7375   -0.0400 C   0  0  0  0  0  0  0  0  0  0  0  0
    3.4740    1.3721    0.0240 C   0  0  0  0  0  0  0  0  0  0  0  0
    4.4915    1.9470    0.0208 N   0  0  0  0  0  0  0  0  0  0  0  0
    0.9480    2.9266   -0.0007 C   0  0  0  0  0  0  0  0  0  0  0  0
    0.2882    3.4016   -1.0954 F   0  0  0  0  0  0  0  0  0  0  0  0
    0.2773    3.4221    1.0780 F   0  0  0  0  0  0  0  0  0  0  0  0
    2.1461    3.5605   -0.0024 F   0  0  0  0  0  0  0  0  0  0  0  0
   -3.0063   -2.6105    1.2386 C   0  0  0  0  0  0  0  0  0  0  0  0
   -2.1388   -2.4513   -0.0282 C   0  0  1  0  0  0  0  0  0  0  0  0
   -2.9232   -2.7974   -1.3014 C   0  0  0  0  0  0  0  0  0  0  0  0
   -4.4952   -1.5782    1.3793 S   0  0  0  0  0  0  0  0  0  0  0  0
   -5.2508   -1.6644    0.1448 O   0  0  0  0  0  0  0  0  0  0  0  0
   -5.1500   -1.9873    2.6106 O   0  0  0  0  0  0  0  0  0  0  0  0
   -4.0627    0.1385    1.6616 C   0  0  0  0  0  0  0  0  0  0  0  0
  1  2  1  0
  1  9  1  0
  1 17  1  0
  2  3  2  0
  3  4  1  0
  4  5  1  0
  4  9  2  0
  5  6  2  0
  5 12  1  0
  6  7  1  0
  6 10  1  0
  7  8  2  0
  8  9  1  0
 10 11  3  0
 12 13  1  0
 12 14  1  0
 12 15  1  0
 16 17  1  0
 16 19  1  0
 17 18  1  6
 19 20  2  0
 19 21  2  0
 19 22  1  0
M  END
>  <DRUGBANK_ID>  (1) 
DB16888

>  <COMMON_NAME>  (1) 
GSK-2881078

>  <CAS_NUMBER>  (1) 
1539314-06-1

>  <UNII>  (1) 
47M5ZXU844

$$$$
