
     RDKit          3D

 30 32  0  0  0  0  0  0  0  0999 V2000
    0.9409   -0.0662   -0.0089 C   0  0  0  0  0  0  0  0  0  0  0  0
    0.2986    1.1520   -0.1017 C   0  0  0  0  0  0  0  0  0  0  0  0
   -1.0843    1.1837   -0.2320 C   0  0  0  0  0  0  0  0  0  0  0  0
   -1.8649    0.0303   -0.0974 C   0  0  0  0  0  0  0  0  0  0  0  0
   -1.1993   -1.2002   -0.0088 C   0  0  0  0  0  0  0  0  0  0  0  0
    0.2060   -1.2493    0.0098 C   0  0  0  0  0  0  0  0  0  0  0  0
    2.3023   -0.0395    0.0322 O   0  0  0  0  0  0  0  0  0  0  0  0
   -3.3759    0.1559   -0.0341 C   0  0  0  0  0  0  0  0  0  0  0  0
   -3.9476    0.8839    1.2187 C   0  0  1  0  0  0  0  0  0  0  0  0
   -3.4159    2.3337    1.4452 C   0  0  0  0  0  0  0  0  0  0  0  0
   -4.2746    3.3845    1.1416 N   0  0  0  0  0  0  0  0  0  0  0  0
   -2.2639    2.5394    1.8301 O   0  0  0  0  0  0  0  0  0  0  0  0
   -3.7905    4.7203    1.1519 C   0  0  0  0  0  0  0  0  0  0  0  0
   -2.7062    5.0777    0.3401 C   0  0  0  0  0  0  0  0  0  0  0  0
   -2.2573    6.4026    0.2715 C   0  0  0  0  0  0  0  0  0  0  0  0
   -2.8787    7.3916    1.0372 C   0  0  0  0  0  0  0  0  0  0  0  0
   -3.9728    7.0402    1.8429 C   0  0  0  0  0  0  0  0  0  0  0  0
   -4.4139    5.7064    1.9176 C   0  0  0  0  0  0  0  0  0  0  0  0
   -2.3802    8.7922    1.0635 C   0  0  0  0  0  0  0  0  0  0  0  0
   -2.8484    9.7008    1.7322 O   0  0  0  0  0  0  0  0  0  0  0  0
   -1.3011    8.9858    0.2836 O   0  0  0  0  0  0  0  0  0  0  0  0
   -5.4260    0.8458    1.2005 N   0  0  0  0  0  0  0  0  0  0  0  0
   -6.1288    0.3063    2.2610 C   0  0  0  0  0  0  0  0  0  0  0  0
   -7.6110    0.3358    2.1852 C   0  0  0  0  0  0  0  0  0  0  0  0
   -5.5932   -0.1853    3.2466 O   0  0  0  0  0  0  0  0  0  0  0  0
   -8.2807    0.0159    1.0006 C   0  0  0  0  0  0  0  0  0  0  0  0
   -9.6754   -0.0771    0.9954 C   0  0  0  0  0  0  0  0  0  0  0  0
  -10.3993    0.1316    2.1705 C   0  0  0  0  0  0  0  0  0  0  0  0
   -9.7322    0.4321    3.3572 C   0  0  0  0  0  0  0  0  0  0  0  0
   -8.3418    0.5650    3.3600 C   0  0  0  0  0  0  0  0  0  0  0  0
  1  7  1  0
  1  2  2  0
  2  3  1  0
  3  4  2  0
  4  8  1  0
  4  5  1  0
  5  6  2  0
  6  1  1  0
  9  8  1  6
  9 10  1  0
  9 22  1  0
 10 11  1  0
 10 12  2  0
 11 13  1  0
 13 14  2  0
 14 15  1  0
 15 16  2  0
 16 17  1  0
 16 19  1  0
 17 18  2  0
 18 13  1  0
 19 20  2  0
 19 21  1  0
 22 23  1  0
 23 24  1  0
 23 25  2  0
 24 26  2  0
 26 27  1  0
 27 28  2  0
 28 29  1  0
 29 30  2  0
 30 24  1  0
M  END
>  <DRUGBANK_ID>  (1) 
DB00522

>  <SECONDARY_ACCESSION_NUMBERS>  (1) 
APRD00818

>  <COMMON_NAME>  (1) 
Bentiromide

>  <CAS_NUMBER>  (1) 
37106-97-1

>  <UNII>  (1) 
239IF5W61J

>  <SYNONYMS>  (1) 
Bentiromide; Bentiromido; Bentiromidum; BTPABA; PFT

$$$$
