
     RDKit          3D

 32 34  0  0  1  0  0  0  0  0999 V2000
   -7.5296  -14.6442   -8.0967 C   0  0  0  0  0  0  0  0  0  0  0  0
   -8.9329  -14.0863   -8.2544 C   0  0  0  0  0  0  0  0  0  0  0  0
   -9.6246  -13.7209   -6.9312 C   0  0  0  0  0  0  0  0  0  0  0  0
   -8.9572  -12.6168   -6.2172 N   0  0  0  0  0  0  0  0  0  0  0  0
   -9.7472  -11.4465   -5.8763 C   0  0  0  0  0  0  0  0  0  0  0  0
   -7.6863  -12.8111   -5.6856 C   0  0  0  0  0  0  0  0  0  0  0  0
   -7.0759  -13.8793   -5.7625 O   0  0  0  0  0  0  0  0  0  0  0  0
   -7.2091  -11.8265   -4.8790 O   0  0  0  0  0  0  0  0  0  0  0  0
   -5.9056  -12.1330   -4.3229 C   0  0  0  0  0  0  0  0  0  0  0  0
   -5.8609  -13.2789   -3.3383 C   0  0  0  0  0  0  0  0  0  0  0  0
   -4.7534  -13.7672   -2.6354 C   0  0  0  0  0  0  0  0  0  0  0  0
   -5.0960  -14.9082   -1.9634 N   0  0  0  0  0  0  0  0  0  0  0  0
   -6.3743  -15.1553   -2.1938 N   0  0  0  0  0  0  0  0  0  0  0  0
   -6.8515  -14.1891   -3.0016 N   0  0  0  0  0  0  0  0  0  0  0  0
   -8.2453  -14.2959   -3.3563 C   0  0  0  0  0  0  0  0  0  0  0  0
   -3.4214  -13.1685   -2.5571 C   0  0  0  0  0  0  0  0  0  0  0  0
   -3.2669  -11.8618   -2.1164 C   0  0  0  0  0  0  0  0  0  0  0  0
   -1.9872  -11.2807   -2.0819 C   0  0  0  0  0  0  0  0  0  0  0  0
   -0.8660  -12.0197   -2.4378 C   0  0  0  0  0  0  0  0  0  0  0  0
    0.4422  -11.6380   -2.3694 O   0  0  0  0  0  0  0  0  0  0  0  0
    0.9448  -10.2966   -2.2682 C   0  0  1  0  0  0  0  0  0  0  0  0
    0.6119   -9.5958   -0.9477 C   0  0  0  0  0  0  0  0  0  0  0  0
    1.1514  -10.3703    0.2476 C   0  0  0  0  0  0  0  0  0  0  0  0
    2.6663  -10.5055    0.1684 C   0  0  0  0  0  0  0  0  0  0  0  0
    3.1144  -11.1534   -1.1489 C   0  0  1  0  0  0  0  0  0  0  0  0
    2.4959  -10.4138   -2.3576 C   0  0  0  0  0  0  0  0  0  0  0  0
    4.6330  -11.0961   -1.2214 C   0  0  0  0  0  0  0  0  0  0  0  0
    5.2490  -12.2955   -1.2864 O   0  0  0  0  0  0  0  0  0  0  0  0
    5.2715  -10.0506   -1.2100 O   0  0  0  0  0  0  0  0  0  0  0  0
   -1.1066  -13.3456   -2.8424 C   0  0  0  0  0  0  0  0  0  0  0  0
    0.0311  -14.2433   -3.2509 C   0  0  0  0  0  0  0  0  0  0  0  0
   -2.3530  -13.9167   -2.9149 N   0  0  0  0  0  0  0  0  0  0  0  0
  1  2  1  0
  2  3  1  0
  3  4  1  0
  4  5  1  0
  4  6  1  0
  6  7  2  0
  6  8  1  0
  8  9  1  0
  9 10  1  0
 10 11  2  0
 10 14  1  0
 11 12  1  0
 11 16  1  0
 12 13  2  0
 13 14  1  0
 14 15  1  0
 16 17  2  0
 16 32  1  0
 17 18  1  0
 18 19  2  0
 19 20  1  0
 19 30  1  0
 21 22  1  0
 21 26  1  0
 21 20  1  1
 22 23  1  0
 23 24  1  0
 25 24  1  0
 25 26  1  0
 25 27  1  6
 27 28  1  0
 27 29  2  0
 30 31  1  0
 30 32  2  0
M  END
>  <DRUGBANK_ID>  (1) 
DB18011

>  <COMMON_NAME>  (1) 
BMS-986278

>  <CAS_NUMBER>  (1) 
2170126-74-4

>  <UNII>  (1) 
4UN9AOU6G8

>  <SYNONYMS>  (1) 
(1s,3s)-3-((2-methyl-6-(1-methyl-5-(((methyl(propyl)carbamoyl)oxy)methyl)-1h-1,2,3-triazol-4-yl)pyridin-3-yl)oxy)cyclohexane-1-carboxylic acid; Cyclohexanecarboxylic acid, 3-((2-methyl-6-(1-methyl-5-((((methylpropylamino)carbonyl)oxy)methyl)-1h-1,2,3-triazol-4-yl)-3-pyridinyl)oxy)-, (1s,3s)-

$$$$
