
     RDKit          3D

 23 24  0  0  0  0  0  0  0  0999 V2000
    1.3563   -0.1931   -0.0046 C   0  0  0  0  0  0  0  0  0  0  0  0
   -0.5617    1.2316    0.0509 C   0  0  0  0  0  0  0  0  0  0  0  0
    0.4904   -1.3182    0.0352 C   0  0  0  0  0  0  0  0  0  0  0  0
   -1.4259    0.1350    0.0332 C   0  0  0  0  0  0  0  0  0  0  0  0
    2.1496    4.6744   -0.6696 C   0  0  0  0  0  0  0  0  0  0  0  0
    1.6986    5.3890   -1.9505 C   0  0  0  0  0  0  0  0  0  0  0  0
   -6.4067   -2.8161    0.6591 C   0  0  0  0  0  0  0  0  0  0  0  0
   -6.7499   -1.8292    1.5580 C   0  0  0  0  0  0  0  0  0  0  0  0
    0.8327    1.1078   -0.0382 C   0  0  0  0  0  0  0  0  0  0  0  0
   -0.9028   -1.1474    0.0406 C   0  0  0  0  0  0  0  0  0  0  0  0
    1.2118    3.5606   -0.2430 C   0  0  0  0  0  0  0  0  0  0  0  0
    0.3110    5.9962   -1.9142 C   0  0  0  0  0  0  0  0  0  0  0  0
   -4.3724   -2.2643    1.3172 C   0  0  0  0  0  0  0  0  0  0  0  0
   -5.0484   -3.0519    0.5192 N   0  0  0  0  0  0  0  0  0  0  0  0
    1.6807    2.2504   -0.2349 N   0  0  0  0  0  0  0  0  0  0  0  0
   -2.9650   -2.2343    1.3929 N   0  0  0  0  0  0  0  0  0  0  0  0
    0.0894    3.8992    0.1317 O   0  0  0  0  0  0  0  0  0  0  0  0
    0.0576    7.1885   -1.8439 O   0  0  0  0  0  0  0  0  0  0  0  0
   -0.6714    5.0825   -1.9964 O   0  0  0  0  0  0  0  0  0  0  0  0
   -2.8231   -2.3732   -1.1828 O   0  0  0  0  0  0  0  0  0  0  0  0
   -1.2504   -3.7153    0.2860 O   0  0  0  0  0  0  0  0  0  0  0  0
   -5.3278   -1.2605    2.3351 S   0  0  0  0  0  0  0  0  0  0  0  0
   -2.0477   -2.5401    0.0328 S   0  0  0  0  0  0  0  0  0  0  0  0
  3  1  2  0
  4  2  1  0
  6  5  1  0
  8  7  2  0
  9  1  1  0
  9  2  2  0
 10  3  1  0
 10  4  2  0
 11  5  1  0
 12  6  1  0
 14  7  1  0
 14 13  2  0
 15  9  1  0
 15 11  1  0
 16 13  1  0
 17 11  2  0
 18 12  2  0
 19 12  1  0
 22  8  1  0
 22 13  1  0
 23 10  1  0
 23 16  1  0
 23 20  2  0
 23 21  2  0
M  END
>  <DRUGBANK_ID>  (1) 
DB13580

>  <COMMON_NAME>  (1) 
Succinylsulfathiazole

>  <CAS_NUMBER>  (1) 
116-43-8

>  <UNII>  (1) 
RSS8647O4S

>  <SYNONYMS>  (1) 
Succinylsulfathiazole

$$$$
