
     RDKit          3D

 24 19  0  0  0  0  0  0  0  0999 V2000
    1.8124   -0.1875   -2.4141 Na  0  0  0  0  0 15  0  0  0  0  0  0
    0.7455   -1.7470    1.7447 Na  0  0  0  0  0 15  0  0  0  0  0  0
   -0.9897   -0.0437   -0.5460 Na  0  0  0  0  0 15  0  0  0  0  0  0
    0.9964    2.1337    0.7707 Na  0  0  0  0  0 15  0  0  0  0  0  0
    1.0507   -0.1293    0.0838 O   0  0  0  0  0  0  0  0  0  0  0  0
    2.3561   -0.0153    0.1695 C   0  0  0  0  0  0  0  0  0  0  0  0
    2.9729    0.0881   -0.9038 O   0  0  0  0  0  0  0  0  0  0  0  0
    2.8493    0.0912    1.6130 C   0  0  0  0  0  0  0  0  0  0  0  0
    2.5401    1.3285    2.3419 N   0  0  0  0  0  0  0  0  0  0  0  0
    3.4106    1.1452    3.7593 C   0  0  0  0  0  0  0  0  0  0  0  0
    4.9522    1.4875    3.9009 C   0  0  0  0  0  0  0  0  0  0  0  0
    5.2410    2.3561    4.7357 O   0  0  0  0  0  0  0  0  0  0  0  0
    5.7276    0.9249    3.0669 O   0  0  0  0  0  0  0  0  0  0  0  0
    3.3178    2.4146    1.6227 C   0  0  0  0  0  0  0  0  0  0  0  0
    4.8099    2.2722    1.1649 C   0  0  0  0  0  0  0  0  0  0  0  0
    5.3052    1.0186    0.4036 N   0  0  0  0  0  0  0  0  0  0  0  0
    6.7450    1.2684    0.1085 C   0  0  0  0  0  0  0  0  0  0  0  0
    7.7489    1.2805    1.3259 C   0  0  0  0  0  0  0  0  0  0  0  0
    8.6143    0.3508    1.2524 O   0  0  0  0  0  0  0  0  0  0  0  0
    7.8057    2.3858    1.9551 O   0  0  0  0  0  0  0  0  0  0  0  0
    5.3810   -0.5896    0.8793 C   0  0  0  0  0  0  0  0  0  0  0  0
    5.7424   -1.2006    2.3677 C   0  0  0  0  0  0  0  0  0  0  0  0
    4.6774   -1.5030    3.0652 O   0  0  0  0  0  0  0  0  0  0  0  0
    6.8879   -1.7007    2.5276 O   0  0  0  0  0  0  0  0  0  0  0  0
  5  6  1  0
  6  7  2  0
  6  8  1  0
  8  9  1  0
  9 10  1  0
  9 14  1  0
 10 11  1  0
 11 12  1  0
 11 13  2  0
 14 15  1  0
 15 16  1  0
 16 17  1  0
 16 21  1  0
 17 18  1  0
 18 19  1  0
 18 20  2  0
 21 22  1  0
 22 23  1  0
 22 24  2  0
M  CHG  8   1   1   2   1   3   1   4   1   5  -1  12  -1  19  -1  23  -1
M  END
>  <DRUGBANK_ID>  (1) 
DB13404

>  <COMMON_NAME>  (1) 
Edetate sodium

>  <CAS_NUMBER>  (1) 
64-02-8

>  <UNII>  (1) 
MP1J8420LU

>  <SYNONYMS>  (1) 
Edetate sodium; EDTA sodium; Sodium edetate

$$$$
