
     RDKit          3D

 12 13  0  0  0  0  0  0  0  0999 V2000
   -2.1670    0.6539    0.0145 C   0  0  0  0  0  0  0  0  0  0  0  0
   -1.0156    1.4712    0.0007 C   0  0  0  0  0  0  0  0  0  0  0  0
   -2.1273   -0.7734    0.0044 C   0  0  0  0  0  0  0  0  0  0  0  0
    1.4260    1.2221   -0.0009 C   0  0  0  0  0  0  0  0  0  0  0  0
    0.1558    0.7162   -0.0042 C   0  0  0  0  0  0  0  0  0  0  0  0
   -0.9097   -1.5015   -0.0129 C   0  0  0  0  0  0  0  0  0  0  0  0
    0.2686   -0.7313   -0.0079 C   0  0  0  0  0  0  0  0  0  0  0  0
    2.2346    0.1232    0.0084 N   0  0  0  0  0  0  0  0  0  0  0  0
    1.5771   -1.0461   -0.0029 N   0  0  0  0  0  0  0  0  0  0  0  0
   -0.8802   -2.9482   -0.0355 N   0  0  0  0  0  0  0  0  0  0  0  0
    0.2073   -3.5379   -0.0560 O   0  0  0  0  0  0  0  0  0  0  0  0
   -1.9777   -3.5265   -0.0372 O   0  0  0  0  0  0  0  0  0  0  0  0
  2  1  2  0
  3  1  1  0
  5  2  1  0
  5  4  2  0
  6  3  2  0
  7  5  1  0
  7  6  1  0
  8  4  1  0
  9  7  2  0
  9  8  1  0
 10  6  1  0
 11 10  1  0
 12 10  2  0
M  CHG  2  10   1  11  -1
M  END
>  <DRUGBANK_ID>  (1) 
DB02207

>  <SECONDARY_ACCESSION_NUMBERS>  (1) 
EXPT00314

>  <COMMON_NAME>  (1) 
7-Nitroindazole

>  <CAS_NUMBER>  (1) 
2942-42-9

>  <UNII>  (1) 
UX0N37CMVH

$$$$
