
     RDKit          3D

 19 21  0  0  1  0  0  0  0  0999 V2000
    0.9853   -0.0409   -0.0901 C   0  0  0  0  0  0  0  0  0  0  0  0
   -2.3286    2.8926    2.2546 C   0  0  0  0  0  0  0  0  0  0  0  0
   -0.4484    4.8988   -1.2647 C   0  0  0  0  0  0  0  0  0  0  0  0
    0.4786    0.3808   -1.4597 C   0  0  2  0  0  0  0  0  0  0  0  0
   -1.3877    4.9469    0.6782 C   0  0  0  0  0  0  0  0  0  0  0  0
    1.5918    1.0989   -2.2336 C   0  0  2  0  0  0  0  0  0  0  0  0
    1.2632    2.5826   -2.0203 C   0  0  2  0  0  0  0  0  0  0  0  0
   -1.2912    3.5978    0.2357 C   0  0  0  0  0  0  0  0  0  0  0  0
   -1.9748    5.2090    1.9338 C   0  0  0  0  0  0  0  0  0  0  0  0
   -0.2693    2.5568   -1.8650 C   0  0  2  0  0  0  0  0  0  0  0  0
   -1.7804    2.5816    1.0588 N   0  0  0  0  0  0  0  0  0  0  0  0
   -2.4292    4.1792    2.6806 N   0  0  0  0  0  0  0  0  0  0  0  0
   -0.8533    5.6949   -0.2860 N   0  0  0  0  0  0  0  0  0  0  0  0
   -0.7010    3.6399   -0.9698 N   0  0  0  0  0  0  0  0  0  0  0  0
    0.5120   -1.3459    0.2085 O   0  0  0  0  0  0  0  0  0  0  0  0
    1.5209    0.8462   -3.6271 O   0  0  0  0  0  0  0  0  0  0  0  0
    1.6912    3.4088   -3.0747 O   0  0  0  0  0  0  0  0  0  0  0  0
   -0.6149    1.3228   -1.3193 O   0  0  0  0  0  0  0  0  0  0  0  0
   -2.1296    7.0498    2.5887 Se  0  0  0  0  0  2  0  0  0  0  0  0
  4  1  1  1
  6  4  1  0
  6 16  1  6
  7  6  1  0
  7 17  1  6
  8  5  2  0
  9  5  1  0
 10  7  1  0
 10 14  1  1
 11  2  2  0
 11  8  1  0
 12  2  1  0
 12  9  2  0
 13  3  2  0
 13  5  1  0
 14  3  1  0
 14  8  1  0
 15  1  1  0
 18  4  1  0
 18 10  1  0
 19  9  1  0
M  END
>  <DRUGBANK_ID>  (1) 
DB02753

>  <SECONDARY_ACCESSION_NUMBERS>  (1) 
EXPT02929

>  <COMMON_NAME>  (1) 
Selenoinosine

>  <CAS_NUMBER>  (1) 
40093-99-0

$$$$
