
     RDKit          3D

 12 12  0  0  1  0  0  0  0  0999 V2000
    0.7963    0.1109   -0.0053 C   0  0  0  0  0  0  0  0  0  0  0  0
    0.4260   -0.5813   -1.3423 C   0  0  2  0  0  0  0  0  0  0  0  0
    1.4020   -2.8761   -0.9700 C   0  0  2  0  0  0  0  0  0  0  0  0
    2.4937   -2.5658   -2.0086 C   0  0  2  0  0  0  0  0  0  0  0  0
    0.1033   -2.0826   -1.2195 C   0  0  2  0  0  0  0  0  0  0  0  0
    2.6744   -1.0360   -2.1454 C   0  0  2  0  0  0  0  0  0  0  0  0
    0.3005   -0.5529    1.1502 O   0  0  0  0  0  0  0  0  0  0  0  0
    1.8686   -2.6028    0.3713 O   0  0  0  0  0  0  0  0  0  0  0  0
    2.1331   -3.1736   -3.2542 O   0  0  0  0  0  0  0  0  0  0  0  0
    1.4372   -0.3464   -2.3450 O   0  0  0  0  0  0  0  0  0  0  0  0
   -0.8658   -2.6594   -2.6782 S   0  0  0  0  0  0  0  0  0  0  0  0
    3.7896   -0.6782   -3.5371 S   0  0  0  0  0  0  0  0  0  0  0  0
  2  1  1  1
  3  8  1  1
  4  3  1  0
  4  9  1  6
  5  2  1  0
  5  3  1  0
  5 11  1  6
  6  4  1  0
  6 12  1  6
  7  1  1  0
 10  2  1  0
 10  6  1  0
M  END
>  <DRUGBANK_ID>  (1) 
DB01870

>  <SECONDARY_ACCESSION_NUMBERS>  (1) 
EXPT02092

>  <COMMON_NAME>  (1) 
1,4-dithio-alpha-D-glucopyranose

$$$$
