
     RDKit          3D

 17 17  0  0  0  0  0  0  0  0999 V2000
    0.9752    0.0072   -0.0230 N   0  0  0  0  0  0  0  0  0  0  0  0
    0.3516    0.5786    1.0180 C   0  0  0  0  0  0  0  0  0  0  0  0
   -0.9224    0.6394    1.1105 N   0  0  0  0  0  0  0  0  0  0  0  0
    1.1075    1.0880    2.0060 N   0  0  0  0  0  0  0  0  0  0  0  0
    2.5342    1.2051    2.1432 C   0  0  0  0  0  0  0  0  0  0  0  0
    3.0031    2.6356    2.2732 C   0  0  0  0  0  0  0  0  0  0  0  0
    2.1131    3.6844    2.5058 C   0  0  0  0  0  0  0  0  0  0  0  0
    2.5771    4.9506    2.8518 C   0  0  0  0  0  0  0  0  0  0  0  0
    1.3322    6.0177    3.8326 Br  0  0  0  0  0  0  0  0  0  0  0  0
    3.8976    5.2897    2.5608 C   0  0  0  0  0  0  0  0  0  0  0  0
    4.4046    6.5367    2.3258 O   0  0  0  0  0  0  0  0  0  0  0  0
    3.4868    7.6027    2.0788 C   0  0  0  0  0  0  0  0  0  0  0  0
    2.6232    7.5498    0.7905 C   0  0  0  0  0  0  0  0  0  0  0  0
    1.8786    6.3013    0.3089 C   0  0  0  0  0  0  0  0  0  0  0  0
    0.7767    6.0410    1.0521 F   0  0  0  0  0  0  0  0  0  0  0  0
    4.8131    4.2506    2.3498 C   0  0  0  0  0  0  0  0  0  0  0  0
    4.3746    2.9241    2.2835 C   0  0  0  0  0  0  0  0  0  0  0  0
  1  2  1  0
  2  3  2  0
  2  4  1  0
  4  5  1  0
  5  6  1  0
  6  7  2  0
  6 17  1  0
  7  8  1  0
  8  9  1  0
  8 10  2  0
 10 11  1  0
 10 16  1  0
 11 12  1  0
 12 13  1  0
 13 14  1  0
 14 15  1  0
 16 17  2  0
M  ISO  1  15  18
M  END
>  <DRUGBANK_ID>  (1) 
DB17261

>  <COMMON_NAME>  (1) 
Flubrobenguane F18

>  <CAS_NUMBER>  (1) 
1037359-47-9

>  <UNII>  (1) 
8LF7W971UM

>  <SYNONYMS>  (1) 
Flubrobenguane (18f); Flubrobenguane F-18; N-((3-bromo-4-(3-(fluoro-18f)propoxy)phenyl)methyl)guanidine

$$$$
