GK1
     RDKit          3D

 26 29  0  0  0  0  0  0  0  0999 V2000
    1.0058    0.0931    0.0904 O   0  0  0  0  0  0  0  0  0  0  0  0
    2.2329   -0.0251    0.0120 C   0  0  0  0  0  0  0  0  0  0  0  0
    2.9590   -0.6270   -1.0828 C   0  0  0  0  0  0  0  0  0  0  0  0
    4.4065   -1.5005   -0.7984 S   0  0  0  0  0  0  0  0  0  0  0  0
    4.5377   -1.8018   -2.4873 C   0  0  0  0  0  0  0  0  0  0  0  0
    2.5840   -0.5310   -2.3404 N   0  0  0  0  0  0  0  0  0  0  0  0
    3.4877   -1.1937   -3.1484 C   0  0  0  0  0  0  0  0  0  0  0  0
    3.3429   -1.1781   -4.5915 C   0  0  0  0  0  0  0  0  0  0  0  0
    3.2266   -2.3632   -5.3219 C   0  0  0  0  0  0  0  0  0  0  0  0
    3.2947    0.0420   -5.2631 C   0  0  0  0  0  0  0  0  0  0  0  0
    3.1500    0.0714   -6.6509 C   0  0  0  0  0  0  0  0  0  0  0  0
    3.0515   -1.1240   -7.3996 C   0  0  0  0  0  0  0  0  0  0  0  0
    3.0778   -2.3596   -6.7017 C   0  0  0  0  0  0  0  0  0  0  0  0
    2.9686   -3.5516   -7.3079 N   0  0  0  0  0  0  0  0  0  0  0  0
    2.8617   -3.5710   -8.6456 C   0  0  0  0  0  0  0  0  0  0  0  0
    2.8747   -2.4368   -9.4204 C   0  0  0  0  0  0  0  0  0  0  0  0
    2.9288   -1.1765   -8.8113 C   0  0  0  0  0  0  0  0  0  0  0  0
    2.8814   -0.0171   -9.6259 N   0  0  0  0  0  0  0  0  0  0  0  0
    2.5773    0.0423  -11.0053 C   0  0  0  0  0  0  0  0  0  0  0  0
    1.4039   -0.5268  -11.5506 C   0  0  0  0  0  0  0  0  0  0  0  0
    0.3391   -1.1908  -10.7134 C   0  0  0  0  0  0  0  0  0  0  0  0
    3.5186    0.6438  -11.8609 C   0  0  0  0  0  0  0  0  0  0  0  0
    3.3374    0.5933  -13.2407 C   0  0  0  0  0  0  0  0  0  0  0  0
    4.2711    1.0731  -14.1127 O   0  0  0  0  0  0  0  0  0  0  0  0
    2.2012    0.0126  -13.7850 C   0  0  0  0  0  0  0  0  0  0  0  0
    1.2346   -0.5371  -12.9448 C   0  0  0  0  0  0  0  0  0  0  0  0
  1  2  2  0
  2  3  1  0
  3  6  2  0
  4  3  1  0
  4  5  1  0
  5  7  2  0
  6  7  1  0
  7  8  1  0
  8  9  2  0
  9 13  1  0
 10  8  1  0
 10 11  2  0
 11 12  1  0
 12 13  2  0
 12 17  1  0
 13 14  1  0
 14 15  2  0
 16 15  1  0
 17 16  2  0
 18 17  1  0
 18 19  1  0
 19 22  1  0
 20 19  2  0
 20 26  1  0
 21 20  1  0
 22 23  2  0
 23 24  1  0
 25 23  1  0
 26 25  2  0
M  END
>  <DRUGBANK_ID>  (1) 
DB07832

>  <COMMON_NAME>  (1) 
4-{4-[(5-hydroxy-2-methylphenyl)amino]quinolin-7-yl}-1,3-thiazole-2-carbaldehyde

$$$$
