
     RDKit          3D

  8  8  0  0  1  0  0  0  0  0999 V2000
   -2.9282    1.1333    2.8575 O   0  0  0  0  0  0  0  0  0  0  0  0
   -1.7254    0.5985    2.5596 C   0  0  0  0  0  0  0  0  0  0  0  0
   -1.0896   -0.0016    3.4153 O   0  0  0  0  0  0  0  0  0  0  0  0
   -1.3118    0.7609    1.0951 C   0  0  1  0  0  0  0  0  0  0  0  0
   -1.8381   -0.3844    0.2470 C   0  0  0  0  0  0  0  0  0  0  0  0
   -3.1098    0.1869   -0.3302 C   0  0  0  0  0  0  0  0  0  0  0  0
   -2.7820    1.6556   -0.4809 C   0  0  0  0  0  0  0  0  0  0  0  0
   -1.7831    1.9738    0.4950 O   0  0  0  0  0  0  0  0  0  0  0  0
  1  2  1  0
  2  3  2  0
  4  5  1  0
  4  8  1  0
  4  2  1  1
  5  6  1  0
  6  7  1  0
  7  8  1  0
M  END
>  <DRUGBANK_ID>  (1) 
DB03051

>  <SECONDARY_ACCESSION_NUMBERS>  (1) 
EXPT03042

>  <COMMON_NAME>  (1) 
(S)-2-Tetrahydrofuroic acid

>  <CAS_NUMBER>  (1) 
87392-05-0

>  <UNII>  (1) 
7396HFQ44J

>  <SYNONYMS>  (1) 
(2R)-Tetrahydro-2-furancarboxylic acid; (R)-(+)-Tetrahydro-2-furoic acid; (R)-Tetrahydrofuran-2-carboxylic acid; (S)-(-)-2-Tetrahydrofuroic acid

$$$$
