BI3
     RDKit          3D

 29 33  0  0  0  0  0  0  0  0999 V2000
    1.0498    0.0044   -0.0535 N   0  0  0  0  0  0  0  0  0  0  0  0
    0.5563   -0.8851   -1.1035 C   0  0  0  0  0  0  0  0  0  0  0  0
    0.6142   -2.3411   -0.6939 C   0  0  0  0  0  0  0  0  0  0  0  0
   -0.5606   -2.5889    0.3391 C   0  0  0  0  0  0  0  0  0  0  0  0
   -2.0133   -2.1062   -0.0758 N   0  0  0  0  0  0  0  0  0  0  0  0
   -2.4993   -0.6388    0.0941 C   0  0  0  0  0  0  0  0  0  0  0  0
   -3.3827   -2.6676   -0.2183 C   0  0  0  0  0  0  0  0  0  0  0  0
   -4.5258   -3.7908   -0.4002 C   0  0  0  0  0  0  0  0  0  0  0  0
   -5.2184   -4.2903    0.7569 C   0  0  0  0  0  0  0  0  0  0  0  0
   -5.2216   -3.3190    1.6768 C   0  0  0  0  0  0  0  0  0  0  0  0
   -3.9225   -2.9935    1.9540 C   0  0  0  0  0  0  0  0  0  0  0  0
   -3.5545   -2.0125    1.0426 C   0  0  0  0  0  0  0  0  0  0  0  0
   -3.8521   -0.7866    0.4438 C   0  0  0  0  0  0  0  0  0  0  0  0
   -5.1816   -0.1491    0.3976 C   0  0  0  0  0  0  0  0  0  0  0  0
   -6.2521   -0.4834    1.4137 C   0  0  0  0  0  0  0  0  0  0  0  0
   -6.0767   -0.7819    2.6186 O   0  0  0  0  0  0  0  0  0  0  0  0
   -7.4406   -0.5894    0.8270 N   0  0  0  0  0  0  0  0  0  0  0  0
   -7.3938    0.0569   -0.3529 C   0  0  0  0  0  0  0  0  0  0  0  0
   -8.3605    0.3109   -1.0279 O   0  0  0  0  0  0  0  0  0  0  0  0
   -5.9252    0.3385   -0.6334 C   0  0  0  0  0  0  0  0  0  0  0  0
   -5.5879    0.9025   -1.8970 C   0  0  0  0  0  0  0  0  0  0  0  0
   -4.8274    0.3941   -2.9884 C   0  0  0  0  0  0  0  0  0  0  0  0
   -4.1680   -0.8187   -3.2569 C   0  0  0  0  0  0  0  0  0  0  0  0
   -3.5088   -1.0081   -4.4747 C   0  0  0  0  0  0  0  0  0  0  0  0
   -3.4909   -0.0004   -5.4325 C   0  0  0  0  0  0  0  0  0  0  0  0
   -4.1219    1.2251   -5.1967 C   0  0  0  0  0  0  0  0  0  0  0  0
   -4.7933    1.3883   -3.9750 C   0  0  0  0  0  0  0  0  0  0  0  0
   -5.5185    2.4559   -3.4966 N   0  0  0  0  0  0  0  0  0  0  0  0
   -6.0468    2.1513   -2.2717 C   0  0  0  0  0  0  0  0  0  0  0  0
  1  2  1  0
  2  3  1  0
  3  4  1  0
  4  5  1  0
  5  6  1  0
  5  7  1  0
  6 13  2  0
  7  8  2  0
  7 12  1  0
  8  9  1  0
  9 10  2  0
 10 11  1  0
 11 12  2  0
 12 13  1  0
 13 14  1  0
 14 15  1  0
 14 20  2  0
 15 16  2  0
 15 17  1  0
 17 18  1  0
 18 19  2  0
 18 20  1  0
 20 21  1  0
 21 22  1  0
 21 29  2  0
 22 23  2  0
 22 27  1  0
 23 24  1  0
 24 25  2  0
 25 26  1  0
 26 27  2  0
 27 28  1  0
 28 29  1  0
M  END
>  <DRUGBANK_ID>  (1) 
DB07457

>  <COMMON_NAME>  (1) 
3-[1-(3-AMINOPROPYL)-1H-INDOL-3-YL]-4-(1H-INDOL-3-YL)-1H-PYRROLE-2,5-DIONE

$$$$
