830
     RDKit          3D

 13 14  0  0  1  0  0  0  0  0999 V2000
    0.7355    1.1981   -0.2155 O   0  0  0  0  0  0  0  0  0  0  0  0
   -0.7897   -1.2548    0.2003 N   0  0  0  0  0  0  0  0  0  0  0  0
    0.5940   -1.2501   -0.3463 C   0  0  0  0  0  0  0  0  0  0  0  0
    1.4145   -0.0216    0.1680 C   0  0  0  0  0  0  0  0  0  0  0  0
   -1.4474    0.0064   -0.1794 C   0  0  0  0  0  0  0  0  0  0  0  0
   -0.6250    1.2254    0.2689 C   0  0  0  0  0  0  0  0  0  0  0  0
    2.8830   -0.0200   -0.2735 C   0  0  0  0  0  0  0  0  0  0  0  0
    0.5186   -1.3211   -1.8882 C   0  0  0  0  0  0  0  0  0  0  0  0
    3.7105    1.0707    0.0151 C   0  0  0  0  0  0  0  0  0  0  0  0
    3.4822   -1.1297   -0.9080 C   0  0  0  0  0  0  0  0  0  0  0  0
    5.0623    1.0659   -0.3628 C   0  0  0  0  0  0  0  0  0  0  0  0
    4.8107   -1.1179   -1.3294 C   0  0  0  0  0  0  0  0  0  0  0  0
    5.6013   -0.0187   -1.0569 C   0  0  0  0  0  0  0  0  0  0  0  0
  1  4  1  0
  1  6  1  0
  2  3  1  0
  2  5  1  0
  3  4  1  0
  3  8  1  0
  4  7  1  0
  5  6  1  0
  7  9  2  0
  7 10  1  0
  9 11  1  0
 10 12  2  0
 11 13  2  0
 12 13  1  0
M  END
>  <DRUGBANK_ID>  (1) 
DB00830

>  <SECONDARY_ACCESSION_NUMBERS>  (1) 
APRD00262

>  <COMMON_NAME>  (1) 
Phenmetrazine

>  <CAS_NUMBER>  (1) 
134-49-6

>  <UNII>  (1) 
XA501VL3VR

>  <SYNONYMS>  (1) 
2-phenyl-3-methylmorpholine; Fenmetrazin; Fenmetrazina; Phenmetrazin; Phenmetrazine; Phenmetrazinum

$$$$
