IDA
     RDKit          3D

 20 21  0  0  0  0  0  0  0  0999 V2000
    1.0349    0.1939   -0.0086 N   0  0  0  0  0  0  0  0  0  0  0  0
    0.3114    0.4850    1.1160 C   0  0  0  0  0  0  0  0  0  0  0  0
   -0.9158    0.4494    1.0865 O   0  0  0  0  0  0  0  0  0  0  0  0
    1.1133    0.8506    2.3695 C   0  0  0  0  0  0  0  0  0  0  0  0
    1.9060   -0.3302    2.8237 C   0  0  0  0  0  0  0  0  0  0  0  0
    3.1737   -0.2837    3.3694 N   0  0  0  0  0  0  0  0  0  0  0  0
    3.6486   -1.5714    3.5753 C   0  0  0  0  0  0  0  0  0  0  0  0
    2.6308   -2.4216    3.1665 C   0  0  0  0  0  0  0  0  0  0  0  0
    1.5248   -1.6495    2.7834 C   0  0  0  0  0  0  0  0  0  0  0  0
    2.8411   -3.7967    3.1684 C   0  0  0  0  0  0  0  0  0  0  0  0
    4.0036   -4.3434    3.7098 C   0  0  0  0  0  0  0  0  0  0  0  0
    4.1157   -5.8412    3.8379 C   0  0  0  0  0  0  0  0  0  0  0  0
    3.1053   -6.4471    4.8303 C   0  0  0  0  0  0  0  0  0  0  0  0
    1.6409   -6.2500    4.4496 C   0  0  0  0  0  0  0  0  0  0  0  0
    5.0228   -3.4790    4.1127 C   0  0  0  0  0  0  0  0  0  0  0  0
    4.8895   -2.0702    4.0336 C   0  0  0  0  0  0  0  0  0  0  0  0
    6.0539   -1.1920    4.4030 C   0  0  0  0  0  0  0  0  0  0  0  0
    6.4621   -0.3018    3.2614 C   0  0  0  0  0  0  0  0  0  0  0  0
    6.3744    0.9205    3.2486 O   0  0  0  0  0  0  0  0  0  0  0  0
    6.9046   -0.9737    2.1813 O   0  0  0  0  0  0  0  0  0  0  0  0
  1  2  1  0
  2  3  2  0
  2  4  1  0
  4  5  1  0
  5  6  1  0
  5  9  2  0
  6  7  1  0
  7  8  2  0
  7 16  1  0
  8  9  1  0
  8 10  1  0
 10 11  2  0
 11 12  1  0
 11 15  1  0
 12 13  1  0
 13 14  1  0
 15 16  2  0
 16 17  1  0
 17 18  1  0
 18 19  2  0
 18 20  1  0
M  END
>  <DRUGBANK_ID>  (1) 
DB07958

>  <COMMON_NAME>  (1) 
(2-CARBAMOYLMETHYL-5-PROPYL-OCTAHYDRO-INDOL-7-YL)ACETIC ACID

$$$$
