770
     RDKit          3D

 28 32  0  0  0  0  0  0  0  0999 V2000
   -2.1095   -0.1359   -0.0627 Cl  0  0  0  0  0  0  0  0  0  0  0  0
   -0.3803   -0.0163   -0.0181 C   0  0  0  0  0  0  0  0  0  0  0  0
    0.3343   -1.2190   -0.0170 C   0  0  0  0  0  0  0  0  0  0  0  0
    1.7266   -1.2097    0.0064 C   0  0  0  0  0  0  0  0  0  0  0  0
    2.4080    0.0024    0.0248 C   0  0  0  0  0  0  0  0  0  0  0  0
    1.6956    1.2061    0.0257 C   0  0  0  0  0  0  0  0  0  0  0  0
    0.2850    1.2260    0.0056 C   0  0  0  0  0  0  0  0  0  0  0  0
   -0.4393    2.5029    0.0249 C   0  0  0  0  0  0  0  0  0  0  0  0
   -0.3218    3.3892   -1.0587 C   0  0  0  0  0  0  0  0  0  0  0  0
    0.4462    3.2550   -2.2818 C   0  0  0  0  0  0  0  0  0  0  0  0
    1.3925    2.5600   -2.6244 O   0  0  0  0  0  0  0  0  0  0  0  0
   -0.0578    4.2360   -3.0871 N   0  0  0  0  0  0  0  0  0  0  0  0
   -1.0051    4.6169   -1.1578 C   0  0  0  0  0  0  0  0  0  0  0  0
   -0.6522    5.2397   -2.3975 C   0  0  0  0  0  0  0  0  0  0  0  0
   -0.6983    6.3790   -2.8576 O   0  0  0  0  0  0  0  0  0  0  0  0
   -1.8694    4.9166   -0.0772 C   0  0  0  0  0  0  0  0  0  0  0  0
   -2.0518    4.0780    0.9779 C   0  0  0  0  0  0  0  0  0  0  0  0
   -1.3444    2.8677    1.0678 C   0  0  0  0  0  0  0  0  0  0  0  0
   -2.6383    6.0527   -0.0237 C   0  0  0  0  0  0  0  0  0  0  0  0
   -3.3787    5.9719    1.1550 C   0  0  0  0  0  0  0  0  0  0  0  0
   -3.0154    4.7469    1.7512 N   0  0  0  0  0  0  0  0  0  0  0  0
   -4.2677    7.0320    1.4889 C   0  0  0  0  0  0  0  0  0  0  0  0
   -4.3635    8.1536    0.6013 C   0  0  0  0  0  0  0  0  0  0  0  0
   -2.7925    7.1545   -0.8474 C   0  0  0  0  0  0  0  0  0  0  0  0
   -3.6188    8.2152   -0.5731 C   0  0  0  0  0  0  0  0  0  0  0  0
   -3.6630    9.2899   -1.4851 N   0  0  0  0  0  0  0  0  0  0  0  0
   -2.9339    9.3937   -2.6528 C   0  0  0  0  0  0  0  0  0  0  0  0
   -3.0094   10.3474   -3.4192 O   0  0  0  0  0  0  0  0  0  0  0  0
  1  2  1  0
  2  7  2  0
  2  3  1  0
  3  4  2  0
  4  5  1  0
  5  6  2  0
  6  7  1  0
  7  8  1  0
  8 18  1  0
  8  9  2  0
  9 13  1  0
  9 10  1  0
 10 12  1  0
 10 11  2  0
 12 14  1  0
 13 16  2  0
 13 14  1  0
 14 15  2  0
 16 19  1  0
 16 17  1  0
 17 21  1  0
 17 18  2  0
 19 20  2  0
 19 24  1  0
 20 22  1  0
 20 21  1  0
 22 23  2  0
 23 25  1  0
 24 25  2  0
 25 26  1  0
 26 27  1  0
 27 28  2  0
M  END
>  <DRUGBANK_ID>  (1) 
DB07226

>  <COMMON_NAME>  (1) 
N-[4-(2-CHLOROPHENYL)-1,3-DIOXO-1,2,3,6-TETRAHYDROPYRROLO[3,4-C]CARBAZOL-9-YL]FORMAMIDE

$$$$
