
     RDKit          3D

 35 38  0  0  1  0  0  0  0  0999 V2000
    1.1111    0.0646   -0.3458 C   0  0  0  0  0  0  0  0  0  0  0  0
    0.4159   -1.2976   -0.3260 C   0  0  1  0  0  0  0  0  0  0  0  0
    0.7430   -2.2947    0.9376 C   0  0  1  0  0  0  0  0  0  0  0  0
    0.3846   -1.8063    2.3358 C   0  0  0  0  0  0  0  0  0  0  0  0
    0.1375   -2.7194    3.3663 C   0  0  0  0  0  0  0  0  0  0  0  0
   -0.1394   -2.2953    4.6621 C   0  0  0  0  0  0  0  0  0  0  0  0
   -0.0793   -0.9459    4.9858 C   0  0  0  0  0  0  0  0  0  0  0  0
    0.2599   -0.0285    4.0097 C   0  0  0  0  0  0  0  0  0  0  0  0
    0.4162   -0.4599    2.7011 C   0  0  0  0  0  0  0  0  0  0  0  0
    0.4982    1.3063    4.1739 O   0  0  0  0  0  0  0  0  0  0  0  0
    0.5814    1.7364    5.5206 C   0  0  0  0  0  0  0  0  0  0  0  0
    0.4835   -3.7880    0.8101 O   0  0  0  0  0  0  0  0  0  0  0  0
   -0.8208   -4.2262    0.7935 C   0  0  0  0  0  0  0  0  0  0  0  0
   -1.6477   -3.5224   -0.0016 C   0  0  0  0  0  0  0  0  0  0  0  0
   -2.9981   -3.5240   -0.1029 C   0  0  0  0  0  0  0  0  0  0  0  0
   -3.5468   -4.6071    0.5143 C   0  0  0  0  0  0  0  0  0  0  0  0
   -2.7978   -5.5622    1.1818 C   0  0  0  0  0  0  0  0  0  0  0  0
   -1.3824   -5.3595    1.3727 C   0  0  0  0  0  0  0  0  0  0  0  0
   -3.8274   -6.5290    1.3032 C   0  0  0  0  0  0  0  0  0  0  0  0
   -5.0472   -5.9520    1.4159 N   0  0  0  0  0  0  0  0  0  0  0  0
   -4.8823   -4.9033    0.5823 N   0  0  0  0  0  0  0  0  0  0  0  0
   -5.8993   -4.1691   -0.1078 C   0  0  0  0  0  0  0  0  0  0  0  0
   -5.7368   -3.9129   -1.4938 C   0  0  0  0  0  0  0  0  0  0  0  0
   -6.5715   -3.0177   -2.1756 C   0  0  0  0  0  0  0  0  0  0  0  0
   -7.5836   -2.3801   -1.4825 C   0  0  0  0  0  0  0  0  0  0  0  0
   -7.7571   -2.6126   -0.1189 C   0  0  0  0  0  0  0  0  0  0  0  0
   -6.8973   -3.4823    0.5845 C   0  0  0  0  0  0  0  0  0  0  0  0
   -8.3687   -1.4987   -2.1195 F   0  0  0  0  0  0  0  0  0  0  0  0
   -1.0037   -0.9469   -0.5862 N   0  0  0  0  0  0  0  0  0  0  0  0
   -1.7227   -1.2474   -1.7590 C   0  0  0  0  0  0  0  0  0  0  0  0
   -2.9175   -0.9570   -1.7923 O   0  0  0  0  0  0  0  0  0  0  0  0
   -1.0155   -2.1117   -2.8869 C   0  0  0  0  0  0  0  0  0  0  0  0
   -0.0867   -1.3856   -3.5546 F   0  0  0  0  0  0  0  0  0  0  0  0
   -0.3354   -3.2133   -2.4294 F   0  0  0  0  0  0  0  0  0  0  0  0
   -1.8960   -2.6145   -3.7930 F   0  0  0  0  0  0  0  0  0  0  0  0
  2  1  1  1
  2  3  1  0
  2 29  1  0
  3  4  1  0
  3 12  1  6
  4  5  2  0
  4  9  1  0
  5  6  1  0
  6  7  2  0
  7  8  1  0
  8  9  2  0
  8 10  1  0
 10 11  1  0
 12 13  1  0
 13 14  2  0
 13 18  1  0
 14 15  1  0
 15 16  2  0
 16 17  1  0
 16 21  1  0
 17 18  2  0
 17 19  1  0
 19 20  2  0
 20 21  1  0
 21 22  1  0
 22 23  2  0
 22 27  1  0
 23 24  1  0
 24 25  2  0
 25 26  1  0
 25 28  1  0
 26 27  2  0
 29 30  1  0
 30 31  2  0
 30 32  1  0
 32 33  1  0
 32 34  1  0
 32 35  1  0
M  END
>  <DRUGBANK_ID>  (1) 
DB12280

>  <COMMON_NAME>  (1) 
AZD-5423

>  <CAS_NUMBER>  (1) 
1034148-04-3

>  <UNII>  (1) 
641H0Q518W

$$$$
