4PN
     RDKit          3D

 12 13  0  0  0  0  0  0  0  0999 V2000
    0.6263    1.2451   -0.2193 C   0  0  0  0  0  0  0  0  0  0  0  0
   -0.8163    1.3643    0.2902 C   0  0  0  0  0  0  0  0  0  0  0  0
   -1.6567    0.1563   -0.1105 C   0  0  0  0  0  0  0  0  0  0  0  0
   -1.0008   -1.1065    0.4055 C   0  0  0  0  0  0  0  0  0  0  0  0
    0.4337   -1.1521   -0.0714 C   0  0  0  0  0  0  0  0  0  0  0  0
    1.2738    0.0004    0.2358 N   0  0  0  0  0  0  0  0  0  0  0  0
    2.6788   -0.1220   -0.2631 C   0  0  0  0  0  0  0  0  0  0  0  0
    2.8913   -0.1127   -1.7921 C   0  0  0  0  0  0  0  0  0  0  0  0
    2.5718   -1.4407   -2.4725 C   0  0  0  0  0  0  0  0  0  0  0  0
    3.2837   -2.5727   -1.8836 N   0  0  0  0  0  0  0  0  0  0  0  0
    3.1859   -2.6599   -0.4268 C   0  0  0  0  0  0  0  0  0  0  0  0
    3.4524   -1.3376    0.3009 C   0  0  0  0  0  0  0  0  0  0  0  0
  1  2  1  0
  1  6  1  0
  2  3  1  0
  3  4  1  0
  4  5  1  0
  5  6  1  0
  6  7  1  0
  7  8  1  0
  7 12  1  0
  8  9  1  0
  9 10  1  0
 10 11  1  0
 11 12  1  0
M  END
>  <DRUGBANK_ID>  (1) 
DB03056

>  <SECONDARY_ACCESSION_NUMBERS>  (1) 
EXPT00227

>  <COMMON_NAME>  (1) 
4-Piperidino-Piperidine

>  <UNII>  (1) 
WBP6BM27HP

$$$$
