
     RDKit          3D

 41 44  0  0  1  0  0  0  0  0999 V2000
    1.0810   -0.0852    0.0120 C   0  0  0  0  0  0  0  0  0  0  0  0
    0.4803   -1.4667    0.1102 C   0  0  2  0  0  0  0  0  0  0  0  0
    0.4601   -1.9299    1.5601 C   0  0  0  0  0  0  0  0  0  0  0  0
    0.5195   -3.3628    1.4247 N   0  0  0  0  0  0  0  0  0  0  0  0
    0.4117   -4.1745    2.4959 C   0  0  0  0  0  0  0  0  0  0  0  0
    1.5759   -4.9584    2.7714 N   0  0  0  0  0  0  0  0  0  0  0  0
    1.4810   -5.9731    3.6376 C   0  0  0  0  0  0  0  0  0  0  0  0
    0.2605   -6.1257    4.1669 C   0  0  0  0  0  0  0  0  0  0  0  0
   -0.8817   -5.4103    3.8483 C   0  0  0  0  0  0  0  0  0  0  0  0
   -0.8276   -4.2894    3.1228 C   0  0  0  0  0  0  0  0  0  0  0  0
   -2.0754   -3.4474    3.1039 C   0  0  0  0  0  0  0  0  0  0  0  0
   -2.3496   -2.7225    2.1389 O   0  0  0  0  0  0  0  0  0  0  0  0
   -3.0346   -3.4259    4.1642 N   0  0  0  0  0  0  0  0  0  0  0  0
   -3.4026   -4.1393    5.6352 S   0  0  0  0  0  0  0  0  0  0  0  0
   -3.5920   -3.0625    6.5898 O   0  0  0  0  0  0  0  0  0  0  0  0
   -4.4763   -5.0683    5.3662 O   0  0  0  0  0  0  0  0  0  0  0  0
   -2.1893   -5.1359    6.3950 C   0  0  0  0  0  0  0  0  0  0  0  0
   -2.1604   -6.5362    6.3798 C   0  0  0  0  0  0  0  0  0  0  0  0
   -0.9162   -6.9304    6.8228 N   0  0  0  0  0  0  0  0  0  0  0  0
   -0.3008   -8.2237    6.4773 C   0  0  0  0  0  0  0  0  0  0  0  0
   -0.1378   -5.8286    7.1256 N   0  0  0  0  0  0  0  0  0  0  0  0
   -0.8535   -4.7456    6.7196 C   0  0  0  0  0  0  0  0  0  0  0  0
   -0.1663   -3.4396    6.3189 C   0  0  0  0  0  0  0  0  0  0  0  0
    2.4811   -6.8709    4.2318 N   0  0  0  0  0  0  0  0  0  0  0  0
    2.3694   -8.2659    4.4015 C   0  0  0  0  0  0  0  0  0  0  0  0
    3.5435   -8.7094    4.9696 C   0  0  0  0  0  0  0  0  0  0  0  0
    4.2595   -7.5334    5.1763 C   0  0  0  0  0  0  0  0  0  0  0  0
    5.5932   -7.4774    5.3727 O   0  0  0  0  0  0  0  0  0  0  0  0
    6.2348   -6.2147    5.1761 C   0  0  0  0  0  0  0  0  0  0  0  0
    6.2241   -5.5826    3.7512 C   0  0  0  0  0  0  0  0  0  0  0  0
    4.8391   -5.1903    3.2525 C   0  0  0  0  0  0  0  0  0  0  0  0
    7.0195   -4.2726    3.7801 C   0  0  0  0  0  0  0  0  0  0  0  0
    6.8109   -6.5536    2.7373 C   0  0  0  0  0  0  0  0  0  0  0  0
    8.1080   -6.8233    2.9985 F   0  0  0  0  0  0  0  0  0  0  0  0
    6.1488   -7.7312    2.7007 F   0  0  0  0  0  0  0  0  0  0  0  0
    6.7532   -6.0331    1.4871 F   0  0  0  0  0  0  0  0  0  0  0  0
    3.4932   -6.4463    5.0578 N   0  0  0  0  0  0  0  0  0  0  0  0
    0.5281   -3.8656    0.0567 C   0  0  0  0  0  0  0  0  0  0  0  0
    1.3176   -5.1716   -0.1008 C   0  0  0  0  0  0  0  0  0  0  0  0
   -0.8980   -4.1363   -0.4682 C   0  0  0  0  0  0  0  0  0  0  0  0
    1.1759   -2.6398   -0.6194 C   0  0  0  0  0  0  0  0  0  0  0  0
  2  1  1  1
  2  3  1  0
  2 41  1  0
  3  4  1  0
  4  5  1  0
  4 38  1  0
  5  6  2  0
  5 10  1  0
  6  7  1  0
  7  8  2  0
  7 24  1  0
  8  9  1  0
  9 10  2  0
 10 11  1  0
 11 12  2  0
 11 13  1  0
 13 14  1  0
 14 15  2  0
 14 16  2  0
 14 17  1  0
 17 18  2  0
 17 22  1  0
 18 19  1  0
 19 20  1  0
 19 21  1  0
 21 22  2  0
 22 23  1  0
 24 25  1  0
 24 37  1  0
 25 26  2  0
 26 27  1  0
 27 28  1  0
 27 37  2  0
 28 29  1  0
 29 30  1  0
 30 31  1  0
 30 32  1  0
 30 33  1  0
 33 34  1  0
 33 35  1  0
 33 36  1  0
 38 39  1  0
 38 40  1  0
 38 41  1  0
M  END
>  <DRUGBANK_ID>  (1) 
DB15444

>  <COMMON_NAME>  (1) 
Elexacaftor

>  <CAS_NUMBER>  (1) 
2216712-66-0

>  <UNII>  (1) 
RRN67GMB0V

>  <SYNONYMS>  (1) 
Elexacaftor

$$$$
