GWB
     RDKit          3D

 21 23  0  0  0  0  0  0  0  0999 V2000
    1.0119    0.2594    0.2773 C   0  0  0  0  0  0  0  0  0  0  0  0
   -0.1938    0.3315    0.2133 C   0  0  0  0  0  0  0  0  0  0  0  0
   -1.6654    0.1293    0.1621 C   0  0  0  0  0  0  0  0  0  0  0  0
   -2.4980   -0.7175   -0.8186 C   0  0  0  0  0  0  0  0  0  0  0  0
   -2.4387    0.7640   -0.9752 C   0  0  0  0  0  0  0  0  0  0  0  0
    4.4263   -3.6254   -0.5829 N   0  0  0  0  0  0  0  0  0  0  0  0
    3.3894   -3.3143   -1.3953 C   0  0  0  0  0  0  0  0  0  0  0  0
    3.0884   -4.0708   -2.3150 O   0  0  0  0  0  0  0  0  0  0  0  0
    2.6620   -2.0245   -1.1185 C   0  0  0  0  0  0  0  0  0  0  0  0
    2.9440   -1.2169   -0.0566 C   0  0  0  0  0  0  0  0  0  0  0  0
    2.3639    0.0403    0.2982 O   0  0  0  0  0  0  0  0  0  0  0  0
    4.8680   -2.7791    0.4243 C   0  0  0  0  0  0  0  0  0  0  0  0
    4.1625   -1.5884    0.7086 C   0  0  0  0  0  0  0  0  0  0  0  0
    4.6673   -0.7658    1.7097 C   0  0  0  0  0  0  0  0  0  0  0  0
    5.9133   -1.0417    2.2626 C   0  0  0  0  0  0  0  0  0  0  0  0
    6.6425   -2.1673    1.8977 C   0  0  0  0  0  0  0  0  0  0  0  0
    6.0525   -3.1155    1.0780 C   0  0  0  0  0  0  0  0  0  0  0  0
    6.4105   -0.2149    3.1888 F   0  0  0  0  0  0  0  0  0  0  0  0
    1.5973   -1.7850   -2.1305 C   0  0  0  0  0  0  0  0  0  0  0  0
    0.3051   -2.0150   -1.4053 C   0  0  0  0  0  0  0  0  0  0  0  0
    1.8105   -0.4204   -2.7921 C   0  0  0  0  0  0  0  0  0  0  0  0
  1  2  3  0
  1 11  1  0
  2  3  1  0
  3  4  1  0
  3  5  1  0
  4  5  1  0
  6  7  1  0
  6 12  1  0
  7  8  2  0
  7  9  1  0
  9 10  2  0
  9 19  1  0
 10 11  1  0
 10 13  1  0
 12 13  2  0
 12 17  1  0
 13 14  1  0
 14 15  2  0
 15 16  1  0
 15 18  1  0
 16 17  2  0
 19 20  1  0
 19 21  1  0
M  END
>  <DRUGBANK_ID>  (1) 
DB07864

>  <COMMON_NAME>  (1) 
4-[(CYCLOPROPYLETHYNYL)OXY]-6-FLUORO-3-ISOPROPYLQUINOLIN-2(1H)-ONE

$$$$
