F6B
     RDKit          3D

 22 23  0  0  0  0  0  0  0  0999 V2000
    1.2124   -0.3114    0.2130 C   0  0  0  0  0  0  0  0  0  0  0  0
    0.3454   -1.3741    0.0635 C   0  0  0  0  0  0  0  0  0  0  0  0
   -1.0018   -1.1190   -0.0215 C   0  0  0  0  0  0  0  0  0  0  0  0
   -1.4610    0.2021   -0.0171 C   0  0  0  0  0  0  0  0  0  0  0  0
   -0.5345    1.2693   -0.0006 C   0  0  0  0  0  0  0  0  0  0  0  0
    0.8452    1.0204    0.0199 C   0  0  0  0  0  0  0  0  0  0  0  0
    1.8091    2.1642   -0.2081 C   0  0  0  0  0  0  0  0  0  0  0  0
    1.3675    3.3102   -0.3139 O   0  0  0  0  0  0  0  0  0  0  0  0
    3.1672    1.9909   -0.3782 N   0  0  0  0  0  0  0  0  0  0  0  0
    3.9801    0.7997   -0.4050 C   0  0  0  0  0  0  0  0  0  0  0  0
   -2.0685   -2.5208   -0.0072 S   0  0  0  0  0  0  0  0  0  0  0  0
   -2.9190   -2.3265    1.4322 N   0  0  0  0  0  0  0  0  0  0  0  0
   -2.9885   -2.4150   -1.1021 O   0  0  0  0  0  0  0  0  0  0  0  0
   -1.2599   -3.7081    0.2144 O   0  0  0  0  0  0  0  0  0  0  0  0
    4.5987    0.4323   -1.6989 C   0  0  0  0  0  0  0  0  0  0  0  0
    5.2598    1.3774   -2.4538 C   0  0  0  0  0  0  0  0  0  0  0  0
    5.9363    1.0081   -3.6027 C   0  0  0  0  0  0  0  0  0  0  0  0
    5.9772   -0.3342   -3.9915 C   0  0  0  0  0  0  0  0  0  0  0  0
    5.3252   -1.3052   -3.2368 C   0  0  0  0  0  0  0  0  0  0  0  0
    4.6025   -0.9087   -2.1244 C   0  0  0  0  0  0  0  0  0  0  0  0
    5.2469    2.6607   -2.0697 F   0  0  0  0  0  0  0  0  0  0  0  0
    3.8922   -1.8380   -1.4615 F   0  0  0  0  0  0  0  0  0  0  0  0
  1  2  2  0
  1  6  1  0
  2  3  1  0
  3  4  2  0
  3 11  1  0
  4  5  1  0
  5  6  2  0
  6  7  1  0
  7  8  2  0
  7  9  1  0
  9 10  1  0
 10 15  1  0
 11 12  1  0
 11 13  2  0
 11 14  2  0
 15 16  2  0
 15 20  1  0
 16 17  1  0
 16 21  1  0
 17 18  2  0
 18 19  1  0
 19 20  2  0
 20 22  1  0
M  END
>  <DRUGBANK_ID>  (1) 
DB03844

>  <SECONDARY_ACCESSION_NUMBERS>  (1) 
EXPT01382

>  <COMMON_NAME>  (1) 
N-(2,6-Diflouro-Benzyl)-4-Sulfamoyl-Benzamide

$$$$
