
     RDKit          3D

 40 43  0  0  0  0  0  0  0  0999 V2000
    1.1275    0.0326    0.0291 C   0  0  0  0  0  0  0  0  0  0  0  0
    0.6443   -0.8677   -0.9011 C   0  0  0  0  0  0  0  0  0  0  0  0
    1.0253   -2.2857   -0.3841 C   0  0  0  0  0  0  0  0  0  0  0  0
   -0.0398   -2.8514    0.4376 C   0  0  0  0  0  0  0  0  0  0  0  0
    0.1607   -4.3090    0.3996 C   0  0  0  0  0  0  0  0  0  0  0  0
    0.2079   -4.9123    1.6229 C   0  0  0  0  0  0  0  0  0  0  0  0
   -0.0177   -4.0784    2.7363 C   0  0  0  0  0  0  0  0  0  0  0  0
   -0.3688   -2.6479    2.6474 C   0  0  0  0  0  0  0  0  0  0  0  0
   -0.5818   -1.9769    1.4325 C   0  0  0  0  0  0  0  0  0  0  0  0
   -0.9249   -0.4548    1.4541 O   0  0  0  0  0  0  0  0  0  0  0  0
   -1.2318    0.7201    0.2856 C   0  0  0  0  0  0  0  0  0  0  0  0
   -1.9995    0.2220   -0.8040 C   0  0  0  0  0  0  0  0  0  0  0  0
   -1.6861    0.6810   -2.1434 C   0  0  0  0  0  0  0  0  0  0  0  0
   -0.7309    1.6871   -2.4312 C   0  0  0  0  0  0  0  0  0  0  0  0
   -0.0622    2.3682   -1.3899 C   0  0  0  0  0  0  0  0  0  0  0  0
   -0.2526    1.9980    0.0043 C   0  0  0  0  0  0  0  0  0  0  0  0
    1.2025    2.5075    0.7908 C   0  0  0  0  0  0  0  0  0  0  0  0
    2.1778    2.9068    0.2546 O   0  0  0  0  0  0  0  0  0  0  0  0
    1.3484    2.0398    2.0877 O   0  0  0  0  0  0  0  0  0  0  0  0
    0.3495   -5.1453   -0.7047 O   0  0  0  0  0  0  0  0  0  0  0  0
    0.5897   -4.7789   -2.0962 C   0  0  0  0  0  0  0  0  0  0  0  0
   -0.4374   -3.9331   -2.8634 C   0  0  0  0  0  0  0  0  0  0  0  0
   -0.4314   -2.5174   -2.4400 C   0  0  0  0  0  0  0  0  0  0  0  0
    1.0553   -1.7876   -2.8417 O   0  0  0  0  0  0  0  0  0  0  0  0
    2.5795   -1.7112   -2.1040 C   0  0  0  0  0  0  0  0  0  0  0  0
    3.0953   -2.8001   -2.7565 C   0  0  0  0  0  0  0  0  0  0  0  0
    4.0103   -3.5184   -2.0223 C   0  0  0  0  0  0  0  0  0  0  0  0
    4.7335   -3.0008   -0.9173 C   0  0  0  0  0  0  0  0  0  0  0  0
    4.5119   -1.7608   -0.3814 C   0  0  0  0  0  0  0  0  0  0  0  0
    3.3271   -1.1734   -0.6846 C   0  0  0  0  0  0  0  0  0  0  0  0
    3.2135   -0.4557    0.9574 C   0  0  0  0  0  0  0  0  0  0  0  0
    2.9828   -1.1201    2.3798 C   0  0  0  0  0  0  0  0  0  0  0  0
    5.9482   -3.6035   -0.4676 C   0  0  0  0  0  0  0  0  0  0  0  0
    6.8952   -3.7070   -1.4840 C   0  0  0  0  0  0  0  0  0  0  0  0
    8.1817   -4.0453   -1.1805 C   0  0  0  0  0  0  0  0  0  0  0  0
    8.5195   -4.2347    0.1510 C   0  0  0  0  0  0  0  0  0  0  0  0
    7.6003   -4.0667    1.1891 C   0  0  0  0  0  0  0  0  0  0  0  0
    6.2785   -3.7936    0.8820 C   0  0  0  0  0  0  0  0  0  0  0  0
    9.7682   -4.6090    0.4396 F   0  0  0  0  0  0  0  0  0  0  0  0
    4.2064   -4.8354   -2.3545 O   0  0  0  0  0  0  0  0  0  0  0  0
  1  2  1  0
  2  3  1  0
  3  4  1  0
  4  5  2  0
  4  9  1  0
  5  6  1  0
  5 20  1  0
  6  7  2  0
  7  8  1  0
  8  9  2  0
  9 10  1  0
 10 11  1  0
 11 12  2  0
 11 16  1  0
 12 13  1  0
 13 14  2  0
 14 15  1  0
 15 16  2  0
 16 17  1  0
 17 18  2  0
 17 19  1  0
 20 21  1  0
 21 22  1  0
 22 23  1  0
 23 24  1  0
 24 25  1  0
 25 26  2  0
 25 30  1  0
 26 27  1  0
 27 28  2  0
 27 40  1  0
 28 29  1  0
 28 33  1  0
 29 30  2  0
 30 31  1  0
 31 32  1  0
 33 34  2  0
 33 38  1  0
 34 35  1  0
 35 36  2  0
 36 37  1  0
 36 39  1  0
 37 38  2  0
M  END
>  <DRUGBANK_ID>  (1) 
DB12850

>  <COMMON_NAME>  (1) 
Etalocib

>  <CAS_NUMBER>  (1) 
161172-51-6

>  <UNII>  (1) 
THY6RIW44R

>  <SYNONYMS>  (1) 
Etalocib

$$$$
