
     RDKit          3D

 10 10  0  0  0  0  0  0  0  0999 V2000
    0.9446   -0.0232    0.0514 N   0  0  0  0  0  0  0  0  0  0  0  0
    0.4495    0.3222    1.3767 N   0  0  0  0  0  0  0  0  0  0  0  0
    1.0114    2.4296   -0.6364 C   0  0  0  0  0  0  0  0  0  0  0  0
    0.5398    1.0091   -0.9413 C   0  0  0  0  0  0  0  0  0  0  0  0
    0.4306    3.5052   -1.3229 C   0  0  0  0  0  0  0  0  0  0  0  0
    1.9556    2.7155    0.3665 C   0  0  0  0  0  0  0  0  0  0  0  0
    0.7419    4.8235   -0.9805 C   0  0  0  0  0  0  0  0  0  0  0  0
    2.2178    4.0294    0.7502 C   0  0  0  0  0  0  0  0  0  0  0  0
    1.6190    5.0805    0.0731 C   0  0  0  0  0  0  0  0  0  0  0  0
    1.0229    0.5653   -2.3268 C   0  0  0  0  0  0  0  0  0  0  0  0
  1  2  1  0
  1  4  1  0
  3  4  1  0
  3  5  2  0
  3  6  1  0
  4 10  1  0
  5  7  1  0
  6  8  2  0
  7  9  2  0
  8  9  1  0
M  END
>  <DRUGBANK_ID>  (1) 
DB09248

>  <COMMON_NAME>  (1) 
Mebanazine

>  <CAS_NUMBER>  (1) 
65-64-5

>  <UNII>  (1) 
Z5R55CJ4CG

>  <SYNONYMS>  (1) 
Mebanazine

$$$$
