
     RDKit          3D

 15 14  0  0  0  0  0  0  0  0999 V2000
    0.7873   -0.0112   -0.0885 C   0  0  0  0  0  0  0  0  0  0  0  0
    0.5415   -1.3484   -0.8072 C   0  0  0  0  0  0  0  0  0  0  0  0
    0.5109    0.0240    1.4294 C   0  0  0  0  0  0  0  0  0  0  0  0
    0.2293    1.1053   -0.8077 O   0  0  0  0  0  0  0  0  0  0  0  0
    1.0799   -2.4630   -0.0799 O   0  0  0  0  0  0  0  0  0  0  0  0
    1.0412    1.2335    2.0291 O   0  0  0  0  0  0  0  0  0  0  0  0
   -1.0746    1.3845   -0.9550 C   0  0  0  0  0  0  0  0  0  0  0  0
    2.3943   -2.7582    0.0126 C   0  0  0  0  0  0  0  0  0  0  0  0
    2.3548    1.4867    2.2270 C   0  0  0  0  0  0  0  0  0  0  0  0
   -2.0920    0.4524   -0.3774 C   0  0  0  0  0  0  0  0  0  0  0  0
   -1.4199    2.3819   -1.5868 O   0  0  0  0  0  0  0  0  0  0  0  0
    3.3989   -1.8822   -0.6799 C   0  0  0  0  0  0  0  0  0  0  0  0
    2.7599   -3.7030    0.7057 O   0  0  0  0  0  0  0  0  0  0  0  0
    3.3520    0.4727    1.7656 C   0  0  0  0  0  0  0  0  0  0  0  0
    2.7236    2.5404    2.7394 O   0  0  0  0  0  0  0  0  0  0  0  0
  1  2  1  0
  1  3  1  0
  1  4  1  0
  2  5  1  0
  3  6  1  0
  4  7  1  0
  5  8  1  0
  6  9  1  0
  7 10  1  0
  7 11  2  0
  8 12  1  0
  8 13  2  0
  9 14  1  0
  9 15  2  0
M  END
>  <DRUGBANK_ID>  (1) 
DB16005

>  <COMMON_NAME>  (1) 
Triacetin

>  <CAS_NUMBER>  (1) 
102-76-1

>  <UNII>  (1) 
XHX3C3X673

>  <SYNONYMS>  (1) 
1,2,3-Propanetriol triacetate; Glyceryl triacetate; Triacetin; Triacetina; Triacetine; Triacetinum

$$$$
