ENE
     RDKit          3D

 30 34  0  0  0  0  0  0  0  0999 V2000
  -11.6811   -5.5046   12.9785 O   0  0  0  0  0  0  0  0  0  0  0  0
  -12.1307   -4.7640   11.8507 C   0  0  1  0  0  0  0  0  0  0  0  0
  -13.2724   -5.6716   11.3521 C   0  0  0  0  0  0  0  0  0  0  0  0
  -14.4410   -5.3154   10.7992 C   0  0  0  0  0  0  0  0  0  0  0  0
  -14.5499   -3.9684   10.2614 C   0  0  0  0  0  0  0  0  0  0  0  0
  -13.3537   -4.0162    9.1622 C   0  0  2  0  0  0  0  0  0  0  0  0
  -12.1772   -5.3677    9.3184 O   0  0  0  0  0  0  0  0  0  0  0  0
  -10.5089   -5.6850    8.5553 C   0  0  2  0  0  0  0  0  0  0  0  0
   -9.3546   -5.3473    7.1646 C   0  0  0  0  0  0  0  0  0  0  0  0
   -9.8358   -6.1067    5.8620 C   0  0  2  0  0  0  0  0  0  0  0  0
   -9.1791   -6.0934    4.6332 O   0  0  0  0  0  0  0  0  0  0  0  0
   -9.9819   -7.0001    3.8033 C   0  0  1  0  0  0  0  0  0  0  0  0
  -10.5322   -8.6137    4.5031 C   0  0  0  0  0  0  0  0  0  0  0  0
  -10.7828   -9.5108    3.2855 C   0  0  0  0  0  0  0  0  0  0  0  0
  -11.7377   -9.1149    2.3959 C   0  0  0  0  0  0  0  0  0  0  0  0
  -11.4000   -7.8818    1.5182 C   0  0  0  0  0  0  0  0  0  0  0  0
  -11.8668   -6.6029    2.0428 O   0  0  0  0  0  0  0  0  0  0  0  0
  -11.2123   -6.0466    3.2289 C   0  0  1  0  0  0  0  0  0  0  0  0
  -12.1637   -6.1466    4.4148 C   0  0  1  0  0  0  0  0  0  0  0  0
  -12.6759   -7.4359    4.2853 O   0  0  0  0  0  0  0  0  0  0  0  0
  -11.3169   -5.8504    5.6241 C   0  0  1  0  0  0  0  0  0  0  0  0
  -11.8828   -6.5799    6.5971 O   0  0  0  0  0  0  0  0  0  0  0  0
  -11.6424   -5.9273    7.8168 C   0  0  2  0  0  0  0  0  0  0  0  0
  -11.4024   -4.1266    7.7550 C   0  0  0  0  0  0  0  0  0  0  0  0
  -11.2076   -3.3304    8.8855 C   0  0  0  0  0  0  0  0  0  0  0  0
  -12.4892   -2.8041    9.4089 C   0  0  2  0  0  0  0  0  0  0  0  0
  -12.4482   -2.3644   10.7635 O   0  0  0  0  0  0  0  0  0  0  0  0
  -12.4276   -3.2045   11.9827 C   0  0  2  0  0  0  0  0  0  0  0  0
  -11.5201   -2.3401   12.8636 C   0  0  0  0  0  0  0  0  0  0  0  0
  -10.1542   -2.6649   12.6759 O   0  0  0  0  0  0  0  0  0  0  0  0
  2  3  1  0
  2 28  1  0
  2  1  1  1
  3  4  2  0
  4  5  1  0
  6  5  1  1
  6  7  1  0
  6 26  1  0
  7  8  1  0
  8  9  1  6
  8 23  1  0
 10  9  1  1
 10 11  1  0
 10 21  1  0
 11 12  1  0
 12 13  1  1
 12 18  1  0
 13 14  1  0
 14 15  2  0
 15 16  1  0
 16 17  1  0
 18 17  1  6
 18 19  1  0
 19 21  1  0
 19 20  1  1
 21 22  1  1
 22 23  1  0
 23 24  1  6
 24 25  2  0
 26 25  1  1
 26 27  1  0
 27 28  1  0
 28 29  1  1
 29 30  1  0
M  END
>  <DRUGBANK_ID>  (1) 
DB07716

>  <COMMON_NAME>  (1) 
(4Z)-2,8:7,12:11,15:14,18:17,22-PENTAANHYDRO-4,5,6,9,10,13,19,20,21-NONADEOXY-D-ARABINO-D-ALLO-D-ALLO-DOCOSA-4,9,20-TRIENITOL

$$$$
