
     RDKit          3D

 11 11  0  0  0  0  0  0  0  0999 V2000
    2.4610   -0.0084   -0.0139 C   0  0  0  0  0  0  0  0  0  0  0  0
    0.9580   -0.0024   -0.0083 C   0  0  0  0  0  0  0  0  0  0  0  0
    0.2536    1.2074   -0.0086 C   0  0  0  0  0  0  0  0  0  0  0  0
   -1.1436    1.2160   -0.0173 C   0  0  0  0  0  0  0  0  0  0  0  0
   -1.8488    0.0087   -0.0274 C   0  0  0  0  0  0  0  0  0  0  0  0
   -1.1617   -1.2072   -0.0139 C   0  0  0  0  0  0  0  0  0  0  0  0
    0.2399   -1.2083   -0.0063 C   0  0  0  0  0  0  0  0  0  0  0  0
   -3.6214    0.0412   -0.0010 S   0  0  0  0  0  0  0  0  0  0  0  0
   -4.0614   -0.7544   -1.4218 N   0  0  0  0  0  0  0  0  0  0  0  0
   -4.0826   -0.7735    1.1008 O   0  0  0  0  0  0  0  0  0  0  0  0
   -4.0671    1.4011   -0.1881 O   0  0  0  0  0  0  0  0  0  0  0  0
  1  2  1  0
  2  3  2  0
  2  7  1  0
  3  4  1  0
  4  5  2  0
  5  6  1  0
  5  8  1  0
  6  7  2  0
  8  9  1  0
  8 10  2  0
  8 11  2  0
M  END
>  <DRUGBANK_ID>  (1) 
DB17299

>  <COMMON_NAME>  (1) 
p-Toluenesulfonamide

>  <CAS_NUMBER>  (1) 
70-55-3

>  <UNII>  (1) 
I8266RI90M

>  <SYNONYMS>  (1) 
4-methylbenzenesulfonamide; 4-toluenesulfonamide; Benzenesulfonamide, 4-methyl-; P-methylbenzenesulfonamide; P-toluenesulfonylamide; P-tosylamide; Para-toluenesulfonamide; Tolbutamide impurity a; Toluene-4-sulphonamide; Toluenesulfonamide, p-

$$$$
