
     RDKit          3D

 26 29  0  0  1  0  0  0  0  0999 V2000
   -1.2028   -1.2587    0.0096 C   0  0  0  0  0  0  0  0  0  0  0  0
   -1.7590    0.1201   -0.2914 C   0  0  0  0  0  0  0  0  0  0  0  0
   -0.9805    1.2898    0.4309 C   0  0  0  0  0  0  0  0  0  0  0  0
    0.5473    1.1352    0.2131 C   0  0  1  0  0  0  0  0  0  0  0  0
    1.4955    2.2277    0.5302 N   0  0  0  0  0  0  0  0  0  0  0  0
    2.8197    2.0986   -0.1979 C   0  0  0  0  0  0  0  0  0  0  0  0
    3.7572    0.8950    0.1340 C   0  0  0  0  0  0  0  0  0  0  0  0
    4.9005    1.0422    0.8710 C   0  0  0  0  0  0  0  0  0  0  0  0
    5.6687   -0.1025    1.1882 C   0  0  0  0  0  0  0  0  0  0  0  0
    5.1066   -1.3767    1.0044 C   0  0  0  0  0  0  0  0  0  0  0  0
    3.9480   -1.4795    0.3429 C   0  0  0  0  0  0  0  0  0  0  0  0
    3.1037   -2.7866    0.3972 C   0  0  0  0  0  0  0  0  0  0  0  0
    3.0834   -3.6959    1.6233 N   0  0  0  0  0  0  0  0  0  0  0  0
    1.6467   -4.3040    1.7631 C   0  0  1  0  0  0  0  0  0  0  0  0
    1.2704   -5.6779    2.4249 C   0  0  0  0  0  0  0  0  0  0  0  0
    1.6223   -5.7855    3.9188 C   0  0  0  0  0  0  0  0  0  0  0  0
    1.0466   -4.6193    4.7297 C   0  0  0  0  0  0  0  0  0  0  0  0
    1.6823   -3.4562    4.0405 C   0  0  0  0  0  0  0  0  0  0  0  0
    0.9244   -3.2891    2.6868 C   0  0  2  0  0  0  0  0  0  0  0  0
   -0.5616   -3.2172    2.6913 N   0  0  0  0  0  0  0  0  0  0  0  0
   -1.1005   -1.9565    3.2559 C   0  0  0  0  0  0  0  0  0  0  0  0
   -0.0475   -0.9123    3.6168 C   0  0  0  0  0  0  0  0  0  0  0  0
    0.7477   -0.1841    2.5477 N   0  0  0  0  0  0  0  0  0  0  0  0
    0.8072   -0.2447    0.9692 C   0  0  1  0  0  0  0  0  0  0  0  0
    0.2593   -1.2317   -0.1768 C   0  0  0  0  0  0  0  0  0  0  0  0
    3.3772   -0.3669   -0.2802 N   0  0  0  0  0  0  0  0  0  0  0  0
  1  2  1  0
  1 25  1  0
  2  3  1  0
  4  3  1  1
  4  5  1  0
  4 24  1  0
  5  6  1  0
  6  7  1  0
  7  8  1  0
  7 26  2  0
  8  9  2  0
  9 10  1  0
 10 11  2  0
 11 12  1  0
 11 26  1  0
 12 13  1  0
 14 13  1  0
 14 15  1  1
 14 19  1  0
 15 16  1  0
 16 17  1  0
 17 18  1  0
 19 18  1  1
 19 20  1  0
 20 21  1  0
 21 22  1  0
 22 23  1  0
 24 23  1  0
 24 25  1  6
M  END
>  <DRUGBANK_ID>  (1) 
DB18481

>  <COMMON_NAME>  (1) 
Avasopasem

>  <UNII>  (1) 
HP219O4H4V

>  <SYNONYMS>  (1) 
(4AS,13AS,17AS,21AS)-1,2,3,4,4A,5,6,12,13,13A,14,15,16,17,17A,18,19,20,21,21A-EICOSAHYDRO-11,7-NITRILO-7H-DIBENZO(B,H)(1,4,7,10)TETRAAZACYCLOHEPTADECINE

$$$$
