H20
     RDKit          3D

 22 24  0  0  0  0  0  0  0  0999 V2000
   -1.3196    0.3413   -0.2721 C   0  0  0  0  0  0  0  0  0  0  0  0
   -0.9277   -0.9075    0.5215 C   0  0  0  0  0  0  0  0  0  0  0  0
    0.5563   -1.2123    0.3306 C   0  0  0  0  0  0  0  0  0  0  0  0
    1.5382   -0.1060    0.6031 C   0  0  0  0  0  0  0  0  0  0  0  0
    1.0851    1.1970   -0.0489 C   0  0  0  0  0  0  0  0  0  0  0  0
   -0.3949    1.4817    0.1906 C   0  0  0  0  0  0  0  0  0  0  0  0
    1.8644   -0.5850   -4.0763 N   0  0  0  0  0  0  0  0  0  0  0  0
    1.2447    0.6258   -4.2339 C   0  0  0  0  0  0  0  0  0  0  0  0
    1.7245    1.4450   -4.9882 O   0  0  0  0  0  0  0  0  0  0  0  0
    0.0274    0.8935   -3.3785 C   0  0  0  0  0  0  0  0  0  0  0  0
   -0.4750   -0.1033   -2.6104 C   0  0  0  0  0  0  0  0  0  0  0  0
   -1.5105    0.1173   -1.7061 O   0  0  0  0  0  0  0  0  0  0  0  0
    1.3541   -1.6299   -3.3184 C   0  0  0  0  0  0  0  0  0  0  0  0
    0.0804   -1.4974   -2.7443 C   0  0  0  0  0  0  0  0  0  0  0  0
   -0.4280   -2.6131   -2.0496 C   0  0  0  0  0  0  0  0  0  0  0  0
    0.4329   -3.6659   -1.6824 C   0  0  0  0  0  0  0  0  0  0  0  0
    1.7249   -3.7388   -2.1942 C   0  0  0  0  0  0  0  0  0  0  0  0
    2.1573   -2.7550   -3.0819 C   0  0  0  0  0  0  0  0  0  0  0  0
   -0.0045   -4.7146   -0.3767 Cl  0  0  0  0  0  0  0  0  0  0  0  0
   -0.5343    2.3099   -3.4325 C   0  0  0  0  0  0  0  0  0  0  0  0
    0.4573    3.4216   -3.0537 C   0  0  0  0  0  0  0  0  0  0  0  0
   -1.1195    2.5690   -4.8236 C   0  0  0  0  0  0  0  0  0  0  0  0
  1  2  1  0
  1  6  1  0
  1 12  1  0
  2  3  1  0
  3  4  1  0
  4  5  1  0
  5  6  1  0
  7  8  1  0
  7 13  1  0
  8  9  2  0
  8 10  1  0
 10 11  2  0
 10 20  1  0
 11 12  1  0
 11 14  1  0
 13 14  2  0
 13 18  1  0
 14 15  1  0
 15 16  2  0
 16 17  1  0
 16 19  1  0
 17 18  2  0
 20 21  1  0
 20 22  1  0
M  END
>  <DRUGBANK_ID>  (1) 
DB07871

>  <COMMON_NAME>  (1) 
6-CHLORO-4-(CYCLOHEXYLOXY)-3-ISOPROPYLQUINOLIN-2(1H)-ONE

$$$$
