
     RDKit          3D

 30 34  0  0  0  0  0  0  0  0999 V2000
    1.7933   -0.0734   -0.9087 C   0  0  0  0  0  0  0  0  0  0  0  0
    1.0820   -1.5303   -0.8837 C   0  0  0  0  0  0  0  0  0  0  0  0
    0.8664    1.3670   -0.4951 C   0  0  0  0  0  0  0  0  0  0  0  0
    0.5019   -0.3048    0.7187 C   0  0  0  0  0  0  0  0  0  0  0  0
    0.8770   -1.8760    1.6642 C   0  0  0  0  0  0  0  0  0  0  0  0
   -0.3304   -1.6951    0.0899 C   0  0  0  0  0  0  0  0  0  0  0  0
   -0.7382    1.3649    0.3605 C   0  0  0  0  0  0  0  0  0  0  0  0
   -0.7224   -0.3177   -0.9200 C   0  0  0  0  0  0  0  0  0  0  0  0
   -0.2834   -3.2571    1.3264 C   0  0  0  0  0  0  0  0  0  0  0  0
   -6.2158   -1.7374    0.7857 C   0  0  0  0  0  0  0  0  0  0  0  0
   -6.1075   -4.1274    0.6290 C   0  0  0  0  0  0  0  0  0  0  0  0
   -2.3274   -2.7385   -3.8993 C   0  0  0  0  0  0  0  0  0  0  0  0
   -3.2558   -0.6999   -3.0757 C   0  0  0  0  0  0  0  0  0  0  0  0
   -7.5368   -1.7780    0.4690 C   0  0  0  0  0  0  0  0  0  0  0  0
   -7.4586   -4.0750    0.4425 C   0  0  0  0  0  0  0  0  0  0  0  0
   -1.8435   -1.9680   -4.9345 C   0  0  0  0  0  0  0  0  0  0  0  0
   -2.6671   -0.0062   -4.0861 C   0  0  0  0  0  0  0  0  0  0  0  0
   -4.0380   -2.9263    0.8295 C   0  0  0  0  0  0  0  0  0  0  0  0
   -3.7657   -2.8598   -1.8455 C   0  0  0  0  0  0  0  0  0  0  0  0
   -5.4915   -2.9231    0.7915 C   0  0  0  0  0  0  0  0  0  0  0  0
   -3.1694   -2.1047   -3.0120 C   0  0  0  0  0  0  0  0  0  0  0  0
   -1.4183   -0.2703    0.8186 C   0  0  0  0  0  0  0  0  0  0  0  0
   -1.8874   -1.8201   -0.9984 C   0  0  0  0  0  0  0  0  0  0  0  0
   -1.8358   -2.8088    0.4084 C   0  0  0  0  0  0  0  0  0  0  0  0
   -3.7085   -0.8126   -0.1256 C   0  0  0  0  0  0  0  0  0  0  0  0
   -3.4824   -2.1126   -0.6248 C   0  0  0  0  0  0  0  0  0  0  0  0
   -8.1880   -2.9378    0.3253 N   0  0  0  0  0  0  0  0  0  0  0  0
   -2.0089   -0.6263   -5.0644 N   0  0  0  0  0  0  0  0  0  0  0  0
   -2.5699   -1.1289    0.8752 N   0  0  0  0  0  0  0  0  0  0  0  0
   -4.5480   -0.0173   -0.4866 O   0  0  0  0  0  0  0  0  0  0  0  0
  2  1  2  0
  3  1  1  0
  5  4  2  0
  6  2  1  0
  7  3  2  0
  8  4  1  0
  9  5  1  0
 14 10  2  0
 15 11  1  0
 16 12  2  0
 17 13  1  0
 20 10  1  0
 20 11  2  0
 20 18  1  0
 21 12  1  0
 21 13  2  0
 21 19  1  0
 22  6  2  0
 22  7  1  0
 23  8  2  0
 24  9  2  0
 24 23  1  0
 26 18  1  0
 26 19  1  0
 26 23  1  0
 26 25  1  0
 27 14  1  0
 27 15  2  0
 28 16  1  0
 28 17  2  0
 29 22  1  0
 29 24  1  0
 29 25  1  0
 30 25  2  0
M  END
>  <DRUGBANK_ID>  (1) 
DB13806

>  <COMMON_NAME>  (1) 
Linopirdine

>  <CAS_NUMBER>  (1) 
105431-72-9

>  <UNII>  (1) 
I5TB3NZ94T

>  <SYNONYMS>  (1) 
Linopirdine

$$$$
