
     RDKit          3D

 35 38  0  0  1  0  0  0  0  0999 V2000
    2.1466    0.1167   -0.0258 C   0  0  1  0  0  0  0  0  0  0  0  0
    2.5991    1.3086   -0.8753 C   0  0  0  0  0  0  0  0  0  0  0  0
    3.8226    0.7998   -1.5710 C   0  0  0  0  0  0  0  0  0  0  0  0
    3.3514   -0.5588   -1.9608 C   0  0  0  0  0  0  0  0  0  0  0  0
    2.6092   -1.0376   -0.7976 O   0  0  0  0  0  0  0  0  0  0  0  0
    2.6071    0.2140    1.4537 C   0  0  0  0  0  0  0  0  0  0  0  0
    2.2345    1.2899    2.2380 C   0  0  0  0  0  0  0  0  0  0  0  0
    1.4733    2.2373    1.6643 F   0  0  0  0  0  0  0  0  0  0  0  0
    2.6155    1.4297    3.5972 C   0  0  0  0  0  0  0  0  0  0  0  0
    3.4185    0.4516    4.2607 C   0  0  0  0  0  0  0  0  0  0  0  0
    3.7802   -0.6827    3.5296 C   0  0  0  0  0  0  0  0  0  0  0  0
    4.5155   -1.8684    3.8164 N   0  0  0  0  0  0  0  0  0  0  0  0
    4.4558   -2.6372    2.7196 C   0  0  0  0  0  0  0  0  0  0  0  0
    5.0766   -3.9132    2.4952 N   0  0  0  0  0  0  0  0  0  0  0  0
    5.1941   -4.8582    1.4733 C   0  0  0  0  0  0  0  0  0  0  0  0
    5.8949   -5.8937    1.6641 O   0  0  0  0  0  0  0  0  0  0  0  0
    4.6131   -4.8007    0.2451 N   0  0  0  0  0  0  0  0  0  0  0  0
    3.9021   -3.6828   -0.1677 C   0  0  0  0  0  0  0  0  0  0  0  0
    4.8479   -2.6408   -0.6946 C   0  0  0  0  0  0  0  0  0  0  0  0
    3.6361   -1.9460    1.8839 N   0  0  0  0  0  0  0  0  0  0  0  0
    3.3289   -0.7005    2.2316 C   0  0  0  0  0  0  0  0  0  0  0  0
    2.2103    2.6443    4.2719 C   0  0  0  0  0  0  0  0  0  0  0  0
    0.8881    3.0135    4.4526 C   0  0  0  0  0  0  0  0  0  0  0  0
    0.4915    4.1960    4.9756 N   0  0  0  0  0  0  0  0  0  0  0  0
    1.4777    5.0597    5.2928 C   0  0  0  0  0  0  0  0  0  0  0  0
    2.7966    4.7761    5.1585 N   0  0  0  0  0  0  0  0  0  0  0  0
    3.1333    3.5805    4.6627 C   0  0  0  0  0  0  0  0  0  0  0  0
    1.1644    6.4323    5.9298 C   0  0  0  0  0  0  0  0  0  0  0  0
    1.9330    6.3814    7.2764 C   0  0  0  0  0  0  0  0  0  0  0  0
    1.7210    7.5250    5.0290 C   0  0  0  0  0  0  0  0  0  0  0  0
   -0.2505    6.6536    6.0233 O   0  0  0  0  0  0  0  0  0  0  0  0
   -0.9464    7.8338    6.8431 P   0  0  0  0  0  0  0  0  0  0  0  0
   -2.3463    7.1886    7.2609 O   0  0  0  0  0  0  0  0  0  0  0  0
   -0.2032    7.7582    8.2418 O   0  0  0  0  0  0  0  0  0  0  0  0
   -1.0692    9.1973    6.2588 O   0  0  0  0  0  0  0  0  0  0  0  0
  1  2  1  0
  1  5  1  0
  1  6  1  1
  2  3  1  0
  3  4  1  0
  4  5  1  0
  6  7  2  0
  6 21  1  0
  7  8  1  0
  7  9  1  0
  9 10  2  0
  9 22  1  0
 10 11  1  0
 11 12  1  0
 11 21  2  0
 12 13  2  0
 13 14  1  0
 13 20  1  0
 14 15  1  0
 15 16  2  0
 15 17  1  0
 17 18  1  0
 18 19  1  0
 20 21  1  0
 22 23  2  0
 22 27  1  0
 23 24  1  0
 24 25  2  0
 25 26  1  0
 25 28  1  0
 26 27  2  0
 28 29  1  0
 28 30  1  0
 28 31  1  0
 31 32  1  0
 32 33  1  0
 32 34  1  0
 32 35  2  0
M  END
>  <DRUGBANK_ID>  (1) 
DB18409

>  <COMMON_NAME>  (1) 
Fobrepodacin

>  <CAS_NUMBER>  (1) 
1384984-31-9

>  <UNII>  (1) 
1NL76YUU6E

>  <SYNONYMS>  (1) 
N-ethyl-n'-(6-fluoro-5-(2-(1-methyl-1-(phosphonooxy)ethyl)-5-pyrimidinyl)-7-((2r)-tetrahydro-2-furanyl)-1h-benzimidazol-2-yl)urea; SPR-720 FREE ACID; Urea, n-ethyl-n'-(6-fluoro-5-(2-(1-methyl-1-(phosphonooxy)ethyl)-5-pyrimidinyl)-7-((2r)-tetrahydro-2-furanyl)-1h-benzimidazol-2-yl)-; Vxc-486 phosphate

$$$$
