
     RDKit          3D

 32 34  0  0  0  0  0  0  0  0999 V2000
    1.0649   -0.0075    0.0170 C   0  0  0  0  0  0  0  0  0  0  0  0
    0.5968    1.1901    0.6722 N   0  0  0  0  0  0  0  0  0  0  0  0
   -0.1718    2.1173   -0.1673 C   0  0  0  0  0  0  0  0  0  0  0  0
    1.0068    1.4564    1.9690 C   0  0  0  0  0  0  0  0  0  0  0  0
    1.7487    0.6929    2.7037 N   0  0  0  0  0  0  0  0  0  0  0  0
    0.5419    2.6620    2.6491 C   0  0  0  0  0  0  0  0  0  0  0  0
   -0.7798    3.0243    2.4825 C   0  0  0  0  0  0  0  0  0  0  0  0
   -1.2638    4.0929    3.1468 C   0  0  0  0  0  0  0  0  0  0  0  0
   -0.6823    4.3776    4.3398 C   0  0  0  0  0  0  0  0  0  0  0  0
    0.6947    4.0797    4.5012 C   0  0  0  0  0  0  0  0  0  0  0  0
    1.3523    3.3132    3.5594 C   0  0  0  0  0  0  0  0  0  0  0  0
   -1.4739    4.9630    5.4623 C   0  0  0  0  0  0  0  0  0  0  0  0
   -0.9615    4.7390    6.5287 O   0  0  0  0  0  0  0  0  0  0  0  0
   -2.6134    5.8251    5.2384 N   0  0  0  0  0  0  0  0  0  0  0  0
   -3.5931    5.6086    4.2673 C   0  0  0  0  0  0  0  0  0  0  0  0
   -3.8950    4.2445    4.3034 C   0  0  0  0  0  0  0  0  0  0  0  0
   -4.5220    3.6312    3.2668 C   0  0  0  0  0  0  0  0  0  0  0  0
   -5.1270    4.3964    2.2942 C   0  0  0  0  0  0  0  0  0  0  0  0
   -5.0191    5.8090    2.3511 C   0  0  0  0  0  0  0  0  0  0  0  0
   -4.1579    6.4722    3.2884 C   0  0  0  0  0  0  0  0  0  0  0  0
   -3.8913    7.9596    2.9542 C   0  0  0  0  0  0  0  0  0  0  0  0
   -4.5222    8.4817    2.0304 O   0  0  0  0  0  0  0  0  0  0  0  0
   -3.0062    8.7982    3.6073 N   0  0  0  0  0  0  0  0  0  0  0  0
   -2.0183    8.5223    4.5247 C   0  0  0  0  0  0  0  0  0  0  0  0
   -0.9977    7.6596    4.1943 C   0  0  0  0  0  0  0  0  0  0  0  0
   -0.1478    7.2522    5.2494 C   0  0  0  0  0  0  0  0  0  0  0  0
   -0.4771    7.5600    6.5916 C   0  0  0  0  0  0  0  0  0  0  0  0
   -1.4559    8.5007    6.7756 C   0  0  0  0  0  0  0  0  0  0  0  0
   -2.1945    9.0244    5.7675 N   0  0  0  0  0  0  0  0  0  0  0  0
   -0.0667    6.6928    8.0529 Cl  0  0  0  0  0  0  0  0  0  0  0  0
   -5.8015    3.8082    1.2553 O   0  0  0  0  0  0  0  0  0  0  0  0
   -5.7399    2.3702    1.2427 C   0  0  0  0  0  0  0  0  0  0  0  0
  1  2  1  0
  2  3  1  0
  2  4  1  0
  4  5  2  0
  4  6  1  0
  6  7  2  0
  6 11  1  0
  7  8  1  0
  8  9  2  0
  9 10  1  0
  9 12  1  0
 10 11  2  0
 12 13  2  0
 12 14  1  0
 14 15  1  0
 15 16  2  0
 15 20  1  0
 16 17  1  0
 17 18  2  0
 18 19  1  0
 18 31  1  0
 19 20  2  0
 20 21  1  0
 21 22  2  0
 21 23  1  0
 23 24  1  0
 24 25  2  0
 24 29  1  0
 25 26  1  0
 26 27  2  0
 27 28  1  0
 27 30  1  0
 28 29  2  0
 31 32  1  0
M  END
>  <DRUGBANK_ID>  (1) 
DB12364

>  <SECONDARY_ACCESSION_NUMBERS>  (1) 
DB06601

>  <COMMON_NAME>  (1) 
Betrixaban

>  <CAS_NUMBER>  (1) 
330942-05-7

>  <UNII>  (1) 
74RWP7W0J9

>  <SYNONYMS>  (1) 
Betrixaban; N-(5-chloropyridin-2-yl)-2-(4-(N,N-dimethylcarbamimidoyl)benzamido)-5-methoxybenzamide; N-(5-chloropyridin-2-yl)-2-[[4-(N,N-dimethylcarbamimidoyl)benzoyl]amino]-5-methoxybenzamide

$$$$
