
     RDKit          3D

 16 16  0  0  0  0  0  0  0  0999 V2000
    0.9871   -0.5544    0.1527 C   0  0  0  0  0  0  0  0  0  0  0  0
   -0.3386   -0.8911    0.0371 C   0  0  0  0  0  0  0  0  0  0  0  0
   -1.1456    0.1983   -0.0120 N   0  0  0  0  0  0  0  0  0  0  0  0
   -0.3086    1.2067    0.0151 C   0  0  0  0  0  0  0  0  0  0  0  0
    0.9926    0.7937    0.0544 N   0  0  0  0  0  0  0  0  0  0  0  0
   -0.8383   -2.2445   -0.1150 C   0  0  0  0  0  0  0  0  0  0  0  0
   -0.1952   -2.8443   -1.3965 C   0  0  0  0  0  0  0  0  0  0  0  0
    1.2022   -3.2562   -1.3227 N   0  0  0  0  0  0  0  0  0  0  0  0
    1.7891   -4.4904   -1.2271 C   0  0  0  0  0  0  0  0  0  0  0  0
    3.0257   -4.5061   -1.2118 O   0  0  0  0  0  0  0  0  0  0  0  0
    1.0213   -5.8318   -1.2213 C   0  0  0  0  0  0  0  0  0  0  0  0
    0.0800   -6.1752   -0.0529 C   0  0  0  0  0  0  0  0  0  0  0  0
   -1.1413   -5.2997    0.0216 C   0  0  0  0  0  0  0  0  0  0  0  0
   -2.1019   -5.2554   -1.1872 C   0  0  0  0  0  0  0  0  0  0  0  0
   -3.2807   -4.8979   -1.1255 O   0  0  0  0  0  0  0  0  0  0  0  0
   -1.5310   -5.3915   -2.4060 O   0  0  0  0  0  0  0  0  0  0  0  0
  1  2  2  0
  1  5  1  0
  2  3  1  0
  2  6  1  0
  3  4  2  0
  4  5  1  0
  6  7  1  0
  7  8  1  0
  8  9  1  0
  9 10  2  0
  9 11  1  0
 11 12  1  0
 12 13  1  0
 13 14  1  0
 14 15  2  0
 14 16  1  0
M  END
>  <DRUGBANK_ID>  (1) 
DB11944

>  <COMMON_NAME>  (1) 
Ingavirin

>  <CAS_NUMBER>  (1) 
219694-63-0

>  <UNII>  (1) 
3CM03MUJ69

>  <SYNONYMS>  (1) 
IMIDAZOLYL ETHANAMIDE PENTANDIOIC ACID

$$$$
