
     RDKit          3D

  6  6  0  0  0  0  0  0  0  0999 V2000
    2.2761   -0.0054   -0.0027 C   0  0  0  0  0  0  0  0  0  0  0  0
   -0.0394    1.1593    0.0020 C   0  0  0  0  0  0  0  0  0  0  0  0
   -1.3486    0.7346   -0.0001 C   0  0  0  0  0  0  0  0  0  0  0  0
   -0.0535   -1.0872    0.0058 C   0  0  0  0  0  0  0  0  0  0  0  0
    0.7919    0.0053    0.0017 C   0  0  0  0  0  0  0  0  0  0  0  0
   -1.3467   -0.6341   -0.0028 N   0  0  0  0  0  0  0  0  0  0  0  0
  3  2  2  0
  5  1  1  0
  5  2  1  0
  5  4  2  0
  6  3  1  0
  6  4  1  0
M  END
>  <DRUGBANK_ID>  (1) 
DB01932

>  <SECONDARY_ACCESSION_NUMBERS>  (1) 
EXPT00253

>  <COMMON_NAME>  (1) 
5-Methylpyrrole

>  <CAS_NUMBER>  (1) 
616-43-3

$$$$
