
     RDKit          3D

  8  7  0  0  0  0  0  0  0  0999 V2000
    1.0625    0.0651    0.1390 C   0  0  0  0  0  0  0  0  0  0  0  0
    0.5217   -0.7040    0.9232 O   0  0  0  0  0  0  0  0  0  0  0  0
    0.3261    0.9951   -0.8285 C   0  0  1  0  0  0  0  0  0  0  0  0
    0.6829    2.4052   -0.5810 N   0  0  0  0  0  0  0  0  0  0  0  0
    0.6154    0.6020   -2.2812 C   0  0  0  0  0  0  0  0  0  0  0  0
    2.4053    0.1114    0.0372 O   0  0  0  0  0  0  0  0  0  0  0  0
    0.2232   -0.8438   -2.5984 C   0  0  0  0  0  0  0  0  0  0  0  0
   -1.5703   -1.1456   -2.4653 S   0  0  0  0  0  0  0  0  0  0  0  0
  1  2  2  0
  1  3  1  0
  3  4  1  6
  3  5  1  0
  6  1  1  0
  7  5  1  0
  8  7  1  0
M  END
>  <DRUGBANK_ID>  (1) 
DB04422

>  <SECONDARY_ACCESSION_NUMBERS>  (1) 
EXPT01710

>  <COMMON_NAME>  (1) 
Homocysteine

>  <CAS_NUMBER>  (1) 
6027-13-0

>  <UNII>  (1) 
0LVT1QZ0BA

>  <SYNONYMS>  (1) 
L-2-amino-4-mercaptobutyric acid; L-Homocysteine

$$$$
