
     RDKit          3D

 18 19  0  0  0  0  0  0  0  0999 V2000
    0.9251    0.2610   -0.1091 N   0  0  0  0  0  0  0  0  0  0  0  0
    0.0697    0.8317    0.8179 C   0  0  0  0  0  0  0  0  0  0  0  0
    0.5410    0.5926   -2.4820 C   0  0  0  0  0  0  0  0  0  0  0  0
    1.0840    0.0255   -3.9954 S   0  0  0  0  0  0  0  0  0  0  0  0
    0.3069   -0.3134   -1.3048 C   0  0  0  0  0  0  0  0  0  0  0  0
   -1.0226    0.1060    1.1707 N   0  0  0  0  0  0  0  0  0  0  0  0
    1.0782    1.6122   -4.6473 C   0  0  0  0  0  0  0  0  0  0  0  0
    0.4056    1.9668   -2.4685 C   0  0  0  0  0  0  0  0  0  0  0  0
    2.3930    0.0979    0.0001 C   0  0  0  0  0  0  0  0  0  0  0  0
    0.7060    2.5565   -3.7177 C   0  0  0  0  0  0  0  0  0  0  0  0
    2.8292   -0.6007    2.4911 N   0  0  0  0  0  0  0  0  0  0  0  0
    3.0806    0.3403    1.3684 C   0  0  0  0  0  0  0  0  0  0  0  0
    0.4155    1.9662    1.5403 C   0  0  0  0  0  0  0  0  0  0  0  0
   -1.6388    0.3941    2.3461 C   0  0  0  0  0  0  0  0  0  0  0  0
    3.2423    0.0324    3.7487 C   0  0  0  0  0  0  0  0  0  0  0  0
    1.4296   -0.9713    2.6498 C   0  0  0  0  0  0  0  0  0  0  0  0
   -0.2324    2.2548    2.7484 C   0  0  0  0  0  0  0  0  0  0  0  0
   -1.2665    1.4305    3.1751 C   0  0  0  0  0  0  0  0  0  0  0  0
  2  1  1  0
  3  5  1  0
  4  3  1  0
  5  1  1  0
  6  2  2  0
  7  4  1  0
  8  3  2  0
  9  1  1  0
 10  8  1  0
 10  7  2  0
 11 12  1  0
 12  9  1  0
 13  2  1  0
 14  6  1  0
 15 11  1  0
 16 11  1  0
 17 13  2  0
 17 18  1  0
 18 14  2  0
M  END
>  <DRUGBANK_ID>  (1) 
DB04819

>  <COMMON_NAME>  (1) 
Methapyrilene

>  <CAS_NUMBER>  (1) 
91-80-5

>  <UNII>  (1) 
A01LX40298

>  <SYNONYMS>  (1) 
2-[[2-(Dimethylamino)ethyl]-2-thenylamino]pyridine; Methapyrilene; Methypyrilene; N-(α-pyridyl)-N-(α-thenyl)-N',N'-dimethylethylenediamine; N,N-dimethyl-N'-pyrid-2-yl-N'-2-thenylethylenediamine; N,N-dimethyl-N'-pyridin-2-yl-N'-(2-thienylmethyl)ethane-1,2-diamine; Thenylpyramine

$$$$
