
     RDKit          3D

 37 40  0  0  0  0  0  0  0  0999 V2000
    1.1532    0.1478   -0.2585 O   0  0  0  0  0  0  0  0  0  0  0  0
    0.4228    1.3427    0.0078 C   0  0  0  0  0  0  0  0  0  0  0  0
    0.7234    2.0803    1.3666 C   0  0  0  0  0  0  0  0  0  0  0  0
    2.1364    2.4701    1.6834 N   0  0  0  0  0  0  0  0  0  0  0  0
    2.5397    3.8125    1.5344 C   0  0  0  0  0  0  0  0  0  0  0  0
    4.0242    4.0958    1.4723 C   0  0  0  0  0  0  0  0  0  0  0  0
    4.5008    5.3409    1.3392 C   0  0  0  0  0  0  0  0  0  0  0  0
    1.7511    4.7022    1.3028 O   0  0  0  0  0  0  0  0  0  0  0  0
    3.0211    1.4156    2.1781 C   0  0  0  0  0  0  0  0  0  0  0  0
    2.5020    0.1789   -0.5121 C   0  0  0  0  0  0  0  0  0  0  0  0
    3.1783   -1.0168   -0.2520 C   0  0  0  0  0  0  0  0  0  0  0  0
    4.5045   -1.0950   -0.0059 N   0  0  0  0  0  0  0  0  0  0  0  0
    5.1747    0.0454   -0.1474 C   0  0  0  0  0  0  0  0  0  0  0  0
    4.6595    1.2100   -0.5723 N   0  0  0  0  0  0  0  0  0  0  0  0
    3.3261    1.2627   -0.7640 C   0  0  0  0  0  0  0  0  0  0  0  0
    2.8426    2.5226   -1.1086 N   0  0  0  0  0  0  0  0  0  0  0  0
    2.4827   -2.2979   -0.2592 C   0  0  0  0  0  0  0  0  0  0  0  0
    1.6884   -2.6562   -1.3925 C   0  0  0  0  0  0  0  0  0  0  0  0
    1.4893   -1.7048   -2.5572 C   0  0  0  0  0  0  0  0  0  0  0  0
    1.1269   -3.9339   -1.4409 C   0  0  0  0  0  0  0  0  0  0  0  0
    0.2015   -4.2659   -2.4597 N   0  0  0  0  0  0  0  0  0  0  0  0
   -0.6215   -5.3662   -2.6291 C   0  0  0  0  0  0  0  0  0  0  0  0
   -1.2408   -5.5091   -3.6804 O   0  0  0  0  0  0  0  0  0  0  0  0
   -0.7411   -6.4170   -1.6001 C   0  0  0  0  0  0  0  0  0  0  0  0
   -0.9721   -6.1176   -0.2573 C   0  0  0  0  0  0  0  0  0  0  0  0
   -1.2344   -4.8610    0.1349 F   0  0  0  0  0  0  0  0  0  0  0  0
   -0.7116   -7.0722    0.7276 C   0  0  0  0  0  0  0  0  0  0  0  0
   -0.3982   -8.4003    0.3946 C   0  0  0  0  0  0  0  0  0  0  0  0
   -0.2898   -8.7023   -0.9775 C   0  0  0  0  0  0  0  0  0  0  0  0
   -0.4332   -7.7261   -1.9677 C   0  0  0  0  0  0  0  0  0  0  0  0
   -0.2757   -9.4308    1.4960 C   0  0  0  0  0  0  0  0  0  0  0  0
    0.9378  -10.3027    1.6874 C   0  0  0  0  0  0  0  0  0  0  0  0
   -0.3354  -10.9028    1.1618 C   0  0  0  0  0  0  0  0  0  0  0  0
    1.5270   -4.8421   -0.4662 C   0  0  0  0  0  0  0  0  0  0  0  0
    2.1407   -4.4558    0.7068 C   0  0  0  0  0  0  0  0  0  0  0  0
    2.6471   -3.1889    0.8197 C   0  0  0  0  0  0  0  0  0  0  0  0
    2.2476   -5.3395    1.7081 F   0  0  0  0  0  0  0  0  0  0  0  0
  1  2  1  0
  1 10  1  0
  2  3  1  0
  3  4  1  0
  4  5  1  0
  4  9  1  0
  5  6  1  0
  5  8  2  0
  6  7  2  0
 10 11  2  0
 10 15  1  0
 11 12  1  0
 11 17  1  0
 12 13  2  0
 14 13  1  0
 15 14  2  0
 15 16  1  0
 17 18  2  0
 17 36  1  0
 18 19  1  0
 18 20  1  0
 20 21  1  0
 20 34  2  0
 21 22  1  0
 22 23  2  0
 22 24  1  0
 24 25  2  0
 24 30  1  0
 25 26  1  0
 25 27  1  0
 27 28  2  0
 28 31  1  0
 29 28  1  0
 30 29  2  0
 31 32  1  0
 31 33  1  0
 32 33  1  0
 35 34  1  0
 35 37  1  0
 36 35  2  0
M  END
>  <DRUGBANK_ID>  (1) 
DB16852

>  <COMMON_NAME>  (1) 
Remibrutinib

>  <CAS_NUMBER>  (1) 
1787294-07-8

>  <UNII>  (1) 
I7MVZ8HDNU

>  <SYNONYMS>  (1) 
Remibrutinib

$$$$
