FPT
     RDKit          3D

 24 25  0  0  0  0  0  0  0  0999 V2000
   -2.1312    0.2423   -0.0099 C   0  0  0  0  0  0  0  0  0  0  0  0
   -1.2898   -0.7716    0.1073 N   0  0  0  0  0  0  0  0  0  0  0  0
    0.0235   -0.8618    0.0566 C   0  0  0  0  0  0  0  0  0  0  0  0
    0.7063    0.2788    0.0167 C   0  0  0  0  0  0  0  0  0  0  0  0
   -0.0640    1.4543    0.0156 C   0  0  0  0  0  0  0  0  0  0  0  0
   -1.5028    1.4520   -0.0021 C   0  0  0  0  0  0  0  0  0  0  0  0
    2.1299    0.1691   -0.0040 C   0  0  0  0  0  0  0  0  0  0  0  0
    3.2579   -0.0215   -0.0244 N   0  0  0  0  0  0  0  0  0  0  0  0
   -3.5505   -0.0155   -0.1133 N   0  0  0  0  0  0  0  0  0  0  0  0
   -4.3529   -1.1559   -0.1918 C   0  0  0  0  0  0  0  0  0  0  0  0
   -6.0226   -0.9616   -0.2655 S   0  0  0  0  0  0  0  0  0  0  0  0
   -3.9331   -2.4586   -0.2376 N   0  0  0  0  0  0  0  0  0  0  0  0
   -2.6039   -2.9712   -0.1384 C   0  0  0  0  0  0  0  0  0  0  0  0
   -2.0356   -3.3463    1.2132 C   0  0  0  0  0  0  0  0  0  0  0  0
   -2.4857   -4.7422    1.3301 C   0  0  0  0  0  0  0  0  0  0  0  0
   -3.8157   -4.9534    1.2038 N   0  0  0  0  0  0  0  0  0  0  0  0
   -4.2107   -6.2227    1.1139 C   0  0  0  0  0  0  0  0  0  0  0  0
   -3.3249   -7.2877    1.1253 C   0  0  0  0  0  0  0  0  0  0  0  0
   -1.9516   -7.0400    1.2258 C   0  0  0  0  0  0  0  0  0  0  0  0
   -1.5371   -5.7311    1.3708 C   0  0  0  0  0  0  0  0  0  0  0  0
   -1.1232   -8.1257    1.1508 O   0  0  0  0  0  0  0  0  0  0  0  0
    0.2877   -7.8620    1.1781 C   0  0  0  0  0  0  0  0  0  0  0  0
    0.7871   -7.1725   -0.0937 C   0  0  0  0  0  0  0  0  0  0  0  0
   -0.2536   -5.3670    1.5123 F   0  0  0  0  0  0  0  0  0  0  0  0
  1  2  2  0
  1  6  1  0
  1  9  1  0
  2  3  1  0
  3  4  2  0
  4  5  1  0
  4  7  1  0
  5  6  2  0
  7  8  3  0
  9 10  1  0
 10 11  2  0
 10 12  1  0
 12 13  1  0
 13 14  1  0
 14 15  1  0
 15 16  2  0
 15 20  1  0
 16 17  1  0
 17 18  2  0
 18 19  1  0
 19 20  2  0
 19 21  1  0
 20 24  1  0
 21 22  1  0
 22 23  1  0
M  END
>  <DRUGBANK_ID>  (1) 
DB07781

>  <COMMON_NAME>  (1) 
N-[[3-FLUORO-4-ETHOXY-PYRID-2-YL]ETHYL]-N'-[5-NITRILOMETHYL-PYRIDYL]-THIOUREA

$$$$
