907
     RDKit          3D

 21 23  0  0  0  0  0  0  0  0999 V2000
    2.2113   -0.7163   -0.0173 C   0  0  0  0  0  0  0  0  0  0  0  0
    2.1415    0.6941   -0.0279 C   0  0  0  0  0  0  0  0  0  0  0  0
    0.9227    1.4009   -0.0138 C   0  0  0  0  0  0  0  0  0  0  0  0
   -0.2520    0.6485   -0.0356 C   0  0  0  0  0  0  0  0  0  0  0  0
   -0.2270   -0.7411   -0.0346 C   0  0  0  0  0  0  0  0  0  0  0  0
    0.9990   -1.4196    0.0062 C   0  0  0  0  0  0  0  0  0  0  0  0
    3.4980   -1.4556   -0.0480 C   0  0  0  0  0  0  0  0  0  0  0  0
    3.5287   -2.7776   -0.0399 N   0  0  0  0  0  0  0  0  0  0  0  0
    4.6437   -0.8114   -0.0988 N   0  0  0  0  0  0  0  0  0  0  0  0
   -1.5850    1.0195   -0.0365 N   0  0  0  0  0  0  0  0  0  0  0  0
   -1.5562   -1.1932   -0.0705 C   0  0  0  0  0  0  0  0  0  0  0  0
   -2.3870   -0.0950   -0.1101 C   0  0  0  0  0  0  0  0  0  0  0  0
   -3.8583   -0.0911   -0.0832 C   0  0  0  0  0  0  0  0  0  0  0  0
   -4.5281    0.5049   -1.1781 C   0  0  0  0  0  0  0  0  0  0  0  0
   -5.9176    0.4621   -1.2798 C   0  0  0  0  0  0  0  0  0  0  0  0
   -6.6477    1.0782   -2.4320 C   0  0  0  0  0  0  0  0  0  0  0  0
   -6.6301   -0.1857   -0.2742 C   0  0  0  0  0  0  0  0  0  0  0  0
   -5.9657   -0.7816    0.8131 C   0  0  0  0  0  0  0  0  0  0  0  0
   -4.5542   -0.7698    0.9725 C   0  0  0  0  0  0  0  0  0  0  0  0
   -3.9568   -1.3209    1.9700 O   0  0  0  0  0  0  0  0  0  0  0  0
   -7.1073   -1.6444    2.0967 Br  0  0  0  0  0  0  0  0  0  0  0  0
  1  2  2  0
  1  6  1  0
  1  7  1  0
  2  3  1  0
  3  4  2  0
  4  5  1  0
  4 10  1  0
  5  6  2  0
  5 11  1  0
  7  8  1  0
  7  9  2  0
 10 12  1  0
 11 12  2  0
 12 13  1  0
 13 14  2  0
 13 19  1  0
 14 15  1  0
 15 16  1  0
 15 17  2  0
 17 18  1  0
 18 19  2  0
 18 21  1  0
 19 20  1  0
M  CHG  2   9   1  20  -1
M  END
>  <DRUGBANK_ID>  (1) 
DB04215

>  <SECONDARY_ACCESSION_NUMBERS>  (1) 
EXPT00340

>  <COMMON_NAME>  (1) 
CRA_9076

$$$$
