1157
     RDKit          3D

 27 29  0  0  0  0  0  0  0  0999 V2000
    0.9042   -0.0210   -0.0117 O   0  0  0  0  0  0  0  0  0  0  0  0
    0.3993   -3.2057    3.5896 O   0  0  0  0  0  0  0  0  0  0  0  0
    1.7685   -1.0056    2.4394 O   0  0  0  0  0  0  0  0  0  0  0  0
   -2.7038   -3.0869   -0.1359 N   0  0  0  0  0  0  0  0  0  0  0  0
   -3.1704   -6.9388   -5.0384 N   0  0  0  0  0  0  0  0  0  0  0  0
   -5.5279   -7.1146   -4.9999 N   0  0  0  0  0  0  0  0  0  0  0  0
   -6.8792   -5.6742   -3.8521 N   0  0  0  0  0  0  0  0  0  0  0  0
   -4.2784   -8.4639   -6.3763 N   0  0  0  0  0  0  0  0  0  0  0  0
   -3.2104   -3.7247   -2.3992 C   0  0  0  0  0  0  0  0  0  0  0  0
   -4.3987   -4.4359   -2.6108 C   0  0  0  0  0  0  0  0  0  0  0  0
   -3.1471   -2.5843   -1.4222 C   0  0  0  0  0  0  0  0  0  0  0  0
   -4.4381   -5.4786   -3.5934 C   0  0  0  0  0  0  0  0  0  0  0  0
   -3.2306   -5.9364   -4.1611 C   0  0  0  0  0  0  0  0  0  0  0  0
   -2.0449   -4.1287   -3.0593 C   0  0  0  0  0  0  0  0  0  0  0  0
   -2.0500   -5.2840   -3.8361 C   0  0  0  0  0  0  0  0  0  0  0  0
   -5.6144   -4.0893   -1.7918 C   0  0  0  0  0  0  0  0  0  0  0  0
   -1.5547   -2.6411    0.4861 C   0  0  0  0  0  0  0  0  0  0  0  0
   -5.5814   -6.1307   -4.0966 C   0  0  0  0  0  0  0  0  0  0  0  0
   -1.1519   -3.1998    1.7060 C   0  0  0  0  0  0  0  0  0  0  0  0
   -0.7960   -1.5886   -0.0275 C   0  0  0  0  0  0  0  0  0  0  0  0
    0.3340   -1.1016    0.6164 C   0  0  0  0  0  0  0  0  0  0  0  0
   -0.0257   -2.7132    2.3891 C   0  0  0  0  0  0  0  0  0  0  0  0
    0.7166   -1.6431    1.8463 C   0  0  0  0  0  0  0  0  0  0  0  0
   -4.3212   -7.4808   -5.4366 C   0  0  0  0  0  0  0  0  0  0  0  0
    2.3254   -0.0227   -0.0795 C   0  0  0  0  0  0  0  0  0  0  0  0
   -0.2898   -4.2676    4.2152 C   0  0  0  0  0  0  0  0  0  0  0  0
    2.3327   -1.5156    3.6276 C   0  0  0  0  0  0  0  0  0  0  0  0
  1 21  1  0
  1 25  1  0
  2 22  1  0
  2 26  1  0
  3 23  1  0
  3 27  1  0
  4 11  1  0
  4 17  1  0
  5 13  2  0
  5 24  1  0
  6 18  1  0
  6 24  2  0
  7 18  1  0
  8 24  1  0
  9 10  2  0
  9 11  1  0
  9 14  1  0
 10 12  1  0
 10 16  1  0
 12 13  1  0
 12 18  2  0
 13 15  1  0
 14 15  2  0
 17 19  2  0
 17 20  1  0
 19 22  1  0
 20 21  2  0
 21 23  1  0
 22 23  2  0
M  END
>  <DRUGBANK_ID>  (1) 
DB01157

>  <SECONDARY_ACCESSION_NUMBERS>  (1) 
APRD00268

>  <COMMON_NAME>  (1) 
Trimetrexate

>  <CAS_NUMBER>  (1) 
52128-35-5

>  <UNII>  (1) 
UPN4ITI8T4

>  <SYNONYMS>  (1) 
Trimetrexate; Trimetrexato; Trimetrexatum

$$$$
