
     RDKit          3D

  9  8  0  0  0  0  0  0  0  0999 V2000
    0.9365   -0.0206   -0.1067 C   0  0  0  0  0  0  0  0  0  0  0  0
    0.4009   -0.0968   -1.5227 C   0  0  0  0  0  0  0  0  0  0  0  0
    0.4840   -1.2329    0.7023 C   0  0  0  0  0  0  0  0  0  0  0  0
    0.8011    1.0591   -2.4587 C   0  0  0  0  0  0  0  0  0  0  0  0
    0.3070    0.9311   -3.6954 O   0  0  0  0  0  0  0  0  0  0  0  0
    0.9734   -1.1700    2.4659 S   0  0  0  0  0  0  0  0  0  0  0  0
    2.7829   -1.2055    2.3535 C   0  0  0  0  0  0  0  0  0  0  0  0
    1.5028    1.9944   -2.1202 O   0  0  0  0  0  0  0  0  0  0  0  0
   -0.3023   -1.0100   -1.9391 O   0  0  0  0  0  0  0  0  0  0  0  0
  2  1  1  0
  3  1  1  0
  3  6  1  0
  4  2  1  0
  4  5  1  0
  7  6  1  0
  8  4  2  0
  9  2  2  0
M  END
>  <DRUGBANK_ID>  (1) 
DB02238

>  <SECONDARY_ACCESSION_NUMBERS>  (1) 
EXPT01977

>  <COMMON_NAME>  (1) 
4-methylthio-2-oxobutanoic acid

>  <CAS_NUMBER>  (1) 
583-92-6

>  <UNII>  (1) 
286060413U

>  <SYNONYMS>  (1) 
2-Keto-4-methylthiobutyric acid; 2-Oxo-4-thiomethylbutyric acid; 4-Methylmercapto-2-oxobutyrate; 4-Methylthio-2-ketobutyric acid; alpha-Keto-gamma-methiolbutyrate; alpha-Ketomethionine; gamma-Methiol-keto-butyric acid; S-Methyl-alpha-ketobutyric acid

$$$$
