
     RDKit          3D

 27 30  0  0  0  0  0  0  0  0999 V2000
    4.7988    1.1464   -0.2255 O   0  0  0  0  0  0  0  0  0  0  0  0
    2.8943   -0.2132   -1.6724 O   0  0  0  0  0  0  0  0  0  0  0  0
    7.3817    0.7111    2.1026 O   0  0  0  0  0  0  0  0  0  0  0  0
    2.4770   -0.3473   -4.3139 O   0  0  0  0  0  0  0  0  0  0  0  0
    4.4944    2.8311    3.6024 N   0  0  0  0  0  0  0  0  0  0  0  0
    4.6188    0.5448    1.0955 N   0  0  0  0  0  0  0  0  0  0  0  0
    7.6559   -0.9658    3.6497 N   0  0  0  0  0  0  0  0  0  0  0  0
    4.7725    1.4277    3.3777 C   0  0  0  0  0  0  0  0  0  0  0  0
    4.1227    1.2858    2.1624 C   0  0  0  0  0  0  0  0  0  0  0  0
    2.9206    2.0770    2.2481 C   0  0  0  0  0  0  0  0  0  0  0  0
    3.3163    3.2449    2.8917 C   0  0  0  0  0  0  0  0  0  0  0  0
    5.8117    0.5418    3.9250 C   0  0  0  0  0  0  0  0  0  0  0  0
    5.6934   -0.4841    4.8073 C   0  0  0  0  0  0  0  0  0  0  0  0
    1.6865    2.0627    1.5384 C   0  0  0  0  0  0  0  0  0  0  0  0
    3.1282    2.2801   -1.7780 C   0  0  0  0  0  0  0  0  0  0  0  0
    6.8941   -1.3497    4.6077 C   0  0  0  0  0  0  0  0  0  0  0  0
    2.5572    4.4528    2.6406 C   0  0  0  0  0  0  0  0  0  0  0  0
    7.0487    0.1581    3.1250 C   0  0  0  0  0  0  0  0  0  0  0  0
    3.7356    2.0518   -0.4356 C   0  0  0  0  0  0  0  0  0  0  0  0
    2.4908    0.9985   -2.3288 C   0  0  1  0  0  0  0  0  0  0  0  0
    4.7224   -0.9540    5.7656 C   0  0  0  0  0  0  0  0  0  0  0  0
    1.1339    3.2525    1.0655 C   0  0  0  0  0  0  0  0  0  0  0  0
    1.5429    4.4438    1.6305 C   0  0  0  0  0  0  0  0  0  0  0  0
    7.1093   -2.5415    5.4798 C   0  0  0  0  0  0  0  0  0  0  0  0
    2.9306    0.8798   -3.7695 C   0  0  0  0  0  0  0  0  0  0  0  0
    4.9766   -2.0333    6.5385 C   0  0  0  0  0  0  0  0  0  0  0  0
    6.1891   -2.8220    6.4140 C   0  0  0  0  0  0  0  0  0  0  0  0
  1  6  1  0
  1 19  1  0
  3 18  2  0
  4 25  1  0
  5  8  1  0
  5 11  1  0
  6  9  1  0
  7 16  2  0
  7 18  1  0
  8  9  2  0
  8 12  1  0
  9 10  1  0
 10 11  2  0
 10 14  1  0
 11 17  1  0
 12 13  2  0
 12 18  1  0
 13 16  1  0
 13 21  1  0
 14 22  2  0
 15 19  1  0
 16 24  1  0
 17 23  2  0
 20 25  1  0
 20 15  1  0
 20  2  1  1
 21 26  2  0
 22 23  1  0
 24 27  2  0
 26 27  1  0
M  END
>  <DRUGBANK_ID>  (1) 
DB07676

>  <COMMON_NAME>  (1) 
3-({[(3S)-3,4-dihydroxybutyl]oxy}amino)-1H,2'H-2,3'-biindol-2'-one

$$$$
