
     RDKit          3D

 40 44  0  0  0  0  0  0  0  0999 V2000
    3.0595    3.2191    0.4463 O   0  0  0  0  0  0  0  0  0  0  0  0
    2.3187    2.2668    0.6160 C   0  0  0  0  0  0  0  0  0  0  0  0
    0.9545    2.4010    0.5140 N   0  0  0  0  0  0  0  0  0  0  0  0
   -0.0181    1.3647    0.7340 C   0  0  0  0  0  0  0  0  0  0  0  0
    2.8581    0.8625    0.9499 C   0  0  2  0  0  0  0  0  0  0  0  0
    2.4422   -0.1344   -0.1953 C   0  0  0  0  0  0  0  0  0  0  0  0
    2.8590   -1.5617   -0.0065 C   0  0  0  0  0  0  0  0  0  0  0  0
    4.0301   -1.8184    0.6697 C   0  0  0  0  0  0  0  0  0  0  0  0
    4.3816   -3.1068    1.0168 C   0  0  0  0  0  0  0  0  0  0  0  0
    5.5077   -3.2567    1.7947 C   0  0  0  0  0  0  0  0  0  0  0  0
    5.9362   -4.4999    2.2235 C   0  0  0  0  0  0  0  0  0  0  0  0
    5.2660   -5.6211    1.7603 C   0  0  0  0  0  0  0  0  0  0  0  0
    4.1198   -5.4798    0.9632 C   0  0  0  0  0  0  0  0  0  0  0  0
    3.6276   -4.2078    0.6204 C   0  0  0  0  0  0  0  0  0  0  0  0
    2.4547   -3.9573   -0.1109 C   0  0  0  0  0  0  0  0  0  0  0  0
    2.0676   -2.6430   -0.4110 C   0  0  0  0  0  0  0  0  0  0  0  0
    2.5046    0.5200    2.3654 N   0  0  0  0  0  0  0  0  0  0  0  0
    1.7741   -0.6862    2.7751 C   0  0  0  0  0  0  0  0  0  0  0  0
    2.6096   -1.7255    3.4753 C   0  0  0  0  0  0  0  0  0  0  0  0
    2.5518   -1.4267    4.9375 C   0  0  0  0  0  0  0  0  0  0  0  0
    2.1829   -2.2925    5.7288 O   0  0  0  0  0  0  0  0  0  0  0  0
    2.9809   -0.1502    5.3174 N   0  0  0  0  0  0  0  0  0  0  0  0
    3.8208    0.7006    4.4386 C   0  0  1  0  0  0  0  0  0  0  0  0
    5.1229    0.0813    3.8635 C   0  0  0  0  0  0  0  0  0  0  0  0
    5.9646   -0.7774    4.8464 C   0  0  0  0  0  0  0  0  0  0  0  0
    5.2242   -1.9155    5.5413 C   0  0  0  0  0  0  0  0  0  0  0  0
    7.1447   -1.4623    4.1776 C   0  0  0  0  0  0  0  0  0  0  0  0
    2.9391    1.3746    3.3799 C   0  0  0  0  0  0  0  0  0  0  0  0
    2.5619    2.5286    3.4908 O   0  0  0  0  0  0  0  0  0  0  0  0
    2.4571    0.3676    6.5882 C   0  0  0  0  0  0  0  0  0  0  0  0
    3.4473    0.9802    7.5419 C   0  0  0  0  0  0  0  0  0  0  0  0
    3.6634    0.4602    8.8203 C   0  0  0  0  0  0  0  0  0  0  0  0
    4.5534    1.1037    9.7005 C   0  0  0  0  0  0  0  0  0  0  0  0
    4.7546    0.6758   11.0225 C   0  0  0  0  0  0  0  0  0  0  0  0
    5.6484    1.3554   11.8520 C   0  0  0  0  0  0  0  0  0  0  0  0
    6.3550    2.4512   11.3660 C   0  0  0  0  0  0  0  0  0  0  0  0
    6.1516    2.8776   10.0566 C   0  0  0  0  0  0  0  0  0  0  0  0
    5.2508    2.2356    9.2288 C   0  0  0  0  0  0  0  0  0  0  0  0
    5.0478    2.7506    8.0194 N   0  0  0  0  0  0  0  0  0  0  0  0
    4.1182    2.1600    7.2467 C   0  0  0  0  0  0  0  0  0  0  0  0
  2  1  2  0
  2  3  1  0
  4  3  1  0
  5 17  1  0
  5  6  1  6
  5  2  1  0
  6  7  1  0
  7  8  2  0
  7 16  1  0
  9  8  1  0
  9 10  2  0
 10 11  1  0
 11 12  2  0
 12 13  1  0
 14  9  1  0
 14 13  2  0
 15 14  1  0
 16 15  2  0
 18 17  1  0
 18 19  1  0
 19 20  1  0
 20 21  2  0
 20 22  1  0
 23 22  1  0
 23 24  1  6
 24 25  1  0
 25 26  1  0
 25 27  1  0
 28 17  1  0
 28 23  1  0
 28 29  2  0
 30 22  1  0
 30 31  1  0
 31 32  2  0
 31 40  1  0
 33 32  1  0
 33 34  2  0
 34 35  1  0
 35 36  2  0
 36 37  1  0
 38 33  1  0
 38 37  2  0
 38 39  1  0
 40 39  2  0
M  END
>  <DRUGBANK_ID>  (1) 
DB04724

>  <COMMON_NAME>  (1) 
(S)-2-((S)-3-isobutyl-2,5-dioxo-4-quinolin-3-ylmethyl-[1,4]diazepan-1yl)-N-methyl-3-naphtalen-2-yl-propionamide

$$$$
