
     RDKit          3D

  9  9  0  0  1  0  0  0  0  0999 V2000
    0.8379   -0.0062   -0.0118 C   0  0  0  0  0  0  0  0  0  0  0  0
    0.3935    1.4058    0.2573 C   0  0  0  0  0  0  0  0  0  0  0  0
   -0.7977    1.6845    0.8202 C   0  0  0  0  0  0  0  0  0  0  0  0
   -1.2195    3.0482    1.0425 C   0  0  0  0  0  0  0  0  0  0  0  0
   -0.4576    4.0968    0.6879 C   0  0  0  0  0  0  0  0  0  0  0  0
    0.8387    3.9218    0.0588 C   0  0  0  0  0  0  0  0  0  0  0  0
    1.5802    4.9852   -0.3110 C   0  0  0  0  0  0  0  0  0  0  0  0
    1.3563    2.5016   -0.1507 C   0  0  1  0  0  0  0  0  0  0  0  0
    2.6024    2.3325    0.6083 N   0  0  0  0  0  0  0  0  0  0  0  0
  1  2  1  0
  2  3  2  0
  2  8  1  0
  3  4  1  0
  4  5  2  0
  5  6  1  0
  6  7  2  0
  6  8  1  0
  8  9  1  1
M  END
>  <DRUGBANK_ID>  (1) 
DB03842

>  <SECONDARY_ACCESSION_NUMBERS>  (1) 
EXPT00109

>  <COMMON_NAME>  (1) 
2-Chloro-6-Methyl-Aniline

>  <UNII>  (1) 
76F11RQ7TB

$$$$
