
     RDKit          3D

 12 11  0  0  0  0  0  0  0  0999 V2000
   -1.2850    5.4037   -1.4090 C   0  0  0  0  0  0  0  0  0  0  0  0
   -2.0322    4.5801   -0.3968 C   0  0  1  0  0  0  0  0  0  0  0  0
   -1.6214    4.9624    1.0163 C   0  0  2  0  0  0  0  0  0  0  0  0
   -0.0972    4.7903    1.3399 C   0  0  1  0  0  0  0  0  0  0  0  0
    0.2048    4.0196    2.6414 C   0  0  2  0  0  0  0  0  0  0  0  0
   -1.4129    6.6271   -1.5330 O   0  0  0  0  0  0  0  0  0  0  0  0
   -2.4683    4.2099    1.9073 O   0  0  0  0  0  0  0  0  0  0  0  0
    0.7160    4.2461    0.2808 O   0  0  0  0  0  0  0  0  0  0  0  0
   -0.1086    2.6330    2.4081 O   0  0  0  0  0  0  0  0  0  0  0  0
   -0.4914    4.6349    3.8746 C   0  0  0  0  0  0  0  0  0  0  0  0
   -0.0812    3.9734    5.0686 O   0  0  0  0  0  0  0  0  0  0  0  0
   -3.3865    4.7607   -0.5029 F   0  0  0  0  0  0  0  0  0  0  0  0
  2 12  1  1
  2  1  1  0
  3  2  1  0
  3  7  1  1
  4  8  1  6
  4  3  1  0
  5  9  1  6
  5  4  1  0
  6  1  2  0
 10  5  1  0
 10 11  1  0
M  ISO  1  12  18
M  END
>  <DRUGBANK_ID>  (1) 
DB09502

>  <SECONDARY_ACCESSION_NUMBERS>  (1) 
DB09150

>  <COMMON_NAME>  (1) 
Fludeoxyglucose (18F)

>  <CAS_NUMBER>  (1) 
63503-12-8

>  <UNII>  (1) 
0Z5B2CJX4D

>  <SYNONYMS>  (1) 
(18F)-FDG; 18-F FDG; 18F-FDG; Fludeoxyglucose (18F); Fludeoxyglucose F 18; Fludeoxyglucose F-18; Fludeoxyglucose, F-18; Fluorine (18F) fludeoxyglucose

$$$$
