276
     RDKit          3D

 28 31  0  0  0  0  0  0  0  0999 V2000
    1.0567    0.0679    0.0700 S   0  0  0  0  0  0  0  0  0  0  0  0
    4.3576   -2.6313   -3.2568 O   0  0  0  0  0  0  0  0  0  0  0  0
    0.6148   -1.0602    0.8537 O   0  0  0  0  0  0  0  0  0  0  0  0
    0.5632    1.4013    0.3704 O   0  0  0  0  0  0  0  0  0  0  0  0
    3.7279   -1.4951   -6.0154 N   0  0  0  0  0  0  0  0  0  0  0  0
    3.7090    0.1786   -9.8377 N   0  0  0  0  0  0  0  0  0  0  0  0
    0.6128   -0.2308   -1.4978 N   0  0  0  0  0  0  0  0  0  0  0  0
    3.6752   -0.8758   -7.2865 C   0  0  0  0  0  0  0  0  0  0  0  0
    3.6904    0.5293   -7.4519 C   0  0  0  0  0  0  0  0  0  0  0  0
    3.7014   -1.7459   -8.3970 C   0  0  0  0  0  0  0  0  0  0  0  0
    3.6622    0.9977   -8.7696 C   0  0  0  0  0  0  0  0  0  0  0  0
    3.7201   -1.1556   -9.6619 C   0  0  0  0  0  0  0  0  0  0  0  0
    3.0046   -1.2381   -4.8445 C   0  0  0  0  0  0  0  0  0  0  0  0
    3.6939    1.4691   -6.3847 C   0  0  0  0  0  0  0  0  0  0  0  0
    3.6564   -3.1601   -8.2705 C   0  0  0  0  0  0  0  0  0  0  0  0
    3.3244   -1.7914   -3.5966 C   0  0  0  0  0  0  0  0  0  0  0  0
    1.4629   -0.5636   -2.5780 C   0  0  0  0  0  0  0  0  0  0  0  0
    1.8313   -0.4604   -4.9380 C   0  0  0  0  0  0  0  0  0  0  0  0
    3.5568    2.3690   -8.9694 C   0  0  0  0  0  0  0  0  0  0  0  0
    3.7121   -1.9976  -10.7662 C   0  0  0  0  0  0  0  0  0  0  0  0
    2.5067   -1.4846   -2.4938 C   0  0  0  0  0  0  0  0  0  0  0  0
    1.1288   -0.0432   -3.8157 C   0  0  0  0  0  0  0  0  0  0  0  0
    3.5138    2.8247   -6.6050 C   0  0  0  0  0  0  0  0  0  0  0  0
    3.6158   -3.9783   -9.3900 C   0  0  0  0  0  0  0  0  0  0  0  0
    3.4494    3.2776   -7.9087 C   0  0  0  0  0  0  0  0  0  0  0  0
    3.6497   -3.3920  -10.6448 C   0  0  0  0  0  0  0  0  0  0  0  0
    2.8400    0.1312    0.1245 C   0  0  0  0  0  0  0  0  0  0  0  0
    5.2451   -3.0985   -4.2589 C   0  0  0  0  0  0  0  0  0  0  0  0
  1  3  2  0
  1  4  2  0
  1  7  1  0
  1 27  1  0
  2 16  1  0
  2 28  1  0
  5  8  1  0
  5 13  1  0
  6 11  2  0
  6 12  1  0
  7 17  1  0
  8  9  2  0
  8 10  1  0
  9 11  1  0
  9 14  1  0
 10 12  2  0
 10 15  1  0
 11 19  1  0
 12 20  1  0
 13 16  2  0
 13 18  1  0
 14 23  2  0
 15 24  2  0
 16 21  1  0
 17 21  2  0
 17 22  1  0
 18 22  2  0
 19 25  2  0
 20 26  2  0
 23 25  1  0
 24 26  1  0
M  END
>  <DRUGBANK_ID>  (1) 
DB00276

>  <SECONDARY_ACCESSION_NUMBERS>  (1) 
APRD00064

>  <COMMON_NAME>  (1) 
Amsacrine

>  <CAS_NUMBER>  (1) 
51264-14-3

>  <UNII>  (1) 
00DPD30SOY

>  <SYNONYMS>  (1) 
4'-(9-Acridinylamino)-3'-methoxymethanesulfonanilide; 4'-(9-Acridinylamino)methanesulfon-m-anisidide; 4'-(9-Acridinylamino)methanesulfon-meta-anisidide; 4'-(9-Acridinylamino)methanesulphon-m-anisidide; Acridinyl anisidide; Amsacrina; Amsacrine; Amsacrinum; m-AMSA; mAMSA

$$$$
