
     RDKit          3D

 28 31  0  0  1  0  0  0  0  0999 V2000
   14.8249   -0.1656    3.7321 C   0  0  0  0  0  0  0  0  0  0  0  0
   15.0223   -1.4854    3.3470 C   0  0  0  0  0  0  0  0  0  0  0  0
   14.0114   -2.2131    2.7012 C   0  0  0  0  0  0  0  0  0  0  0  0
   12.7848   -1.5761    2.4354 C   0  0  0  0  0  0  0  0  0  0  0  0
   12.5885   -0.2469    2.8029 C   0  0  0  0  0  0  0  0  0  0  0  0
   13.6115    0.4571    3.4692 C   0  0  0  0  0  0  0  0  0  0  0  0
   11.3133    0.2149    2.3997 C   0  0  0  0  0  0  0  0  0  0  0  0
   10.5215   -0.7369    1.8027 C   0  0  0  0  0  0  0  0  0  0  0  0
   11.3702   -2.2179    1.6667 S   0  0  0  0  0  0  0  0  0  0  0  0
    9.1053   -0.5487    1.3148 C   0  0  0  0  0  0  0  0  0  0  0  0
    8.1595   -0.1695    2.4348 C   0  0  0  0  0  0  0  0  0  0  0  0
    7.1742   -1.0747    2.8165 C   0  0  0  0  0  0  0  0  0  0  0  0
    6.4850   -0.9432    4.0342 C   0  0  0  0  0  0  0  0  0  0  0  0
    6.6935    0.1984    4.8158 C   0  0  0  0  0  0  0  0  0  0  0  0
    7.5871    1.1768    4.3798 C   0  0  0  0  0  0  0  0  0  0  0  0
    8.2831    0.9927    3.1914 C   0  0  0  0  0  0  0  0  0  0  0  0
    9.0921    1.9835    2.7870 F   0  0  0  0  0  0  0  0  0  0  0  0
    5.6618   -2.1360    4.4864 C   0  0  1  0  0  0  0  0  0  0  0  0
    6.6076   -3.3456    4.7390 C   0  0  1  0  0  0  0  0  0  0  0  0
    5.8130   -4.5348    5.2767 C   0  0  2  0  0  0  0  0  0  0  0  0
    4.9438   -4.1253    6.4645 C   0  0  1  0  0  0  0  0  0  0  0  0
    4.0932   -2.9020    6.1058 C   0  0  2  0  0  0  0  0  0  0  0  0
    4.9235   -1.8130    5.6721 O   0  0  0  0  0  0  0  0  0  0  0  0
    3.2978   -2.4464    7.3327 C   0  0  0  0  0  0  0  0  0  0  0  0
    2.5079   -1.3050    7.0075 O   0  0  0  0  0  0  0  0  0  0  0  0
    4.1130   -5.2093    6.8801 O   0  0  0  0  0  0  0  0  0  0  0  0
    6.6987   -5.5985    5.6477 O   0  0  0  0  0  0  0  0  0  0  0  0
    7.3051   -3.7884    3.5640 O   0  0  0  0  0  0  0  0  0  0  0  0
  1  2  2  0
  1  6  1  0
  2  3  1  0
  3  4  2  0
  4  5  1  0
  4  9  1  0
  5  6  2  0
  5  7  1  0
  7  8  2  0
  8  9  1  0
  8 10  1  0
 10 11  1  0
 11 12  2  0
 11 16  1  0
 12 13  1  0
 13 14  2  0
 14 15  1  0
 15 16  2  0
 16 17  1  0
 18 19  1  0
 18 23  1  0
 18 13  1  1
 19 20  1  0
 19 28  1  6
 20 21  1  0
 20 27  1  1
 21 22  1  0
 21 26  1  6
 22 23  1  0
 22 24  1  1
 24 25  1  0
M  END
>  <DRUGBANK_ID>  (1) 
DB11698

>  <COMMON_NAME>  (1) 
Ipragliflozin

>  <CAS_NUMBER>  (1) 
761423-87-4

>  <UNII>  (1) 
3N2N8OOR7X

>  <SYNONYMS>  (1) 
Ipragliflozin

$$$$
