
     RDKit          3D

 28 29  0  0  0  0  0  0  0  0999 V2000
   -2.3213   -1.6318    3.4196 C   0  0  0  0  0  0  0  0  0  0  0  0
   -0.7950   -0.3876   -0.9524 C   0  0  0  0  0  0  0  0  0  0  0  0
   -0.8976   -1.5853    2.8465 C   0  0  0  0  0  0  0  0  0  0  0  0
   -1.3551   -1.3172    0.1935 C   0  0  1  0  0  0  0  0  0  0  0  0
   -0.6711   -0.7856    1.5287 C   0  0  0  0  0  0  0  0  0  0  0  0
   -3.1543   -0.6977    2.8803 N   0  0  0  0  0  0  0  0  0  0  0  0
   -6.1939   -0.4830    5.9863 C   0  0  0  0  0  0  0  0  0  0  0  0
    0.5114   -0.5690   -1.2511 O   0  0  0  0  0  0  0  0  0  0  0  0
   -6.9339   -0.4041    4.6390 C   0  0  2  0  0  0  0  0  0  0  0  0
   -2.6339   -2.4366    4.2829 O   0  0  0  0  0  0  0  0  0  0  0  0
   -1.3495    0.4656   -1.5789 O   0  0  0  0  0  0  0  0  0  0  0  0
   -6.9835   -0.4225    7.0737 O   0  0  0  0  0  0  0  0  0  0  0  0
   -6.7176   -1.6763    3.8051 C   0  0  0  0  0  0  0  0  0  0  0  0
   -6.4582    0.8243    3.8595 C   0  0  0  0  0  0  0  0  0  0  0  0
   -4.6186   -0.6205    2.8957 C   0  0  1  0  0  0  0  0  0  0  0  0
   -4.9829   -0.5618    6.1163 O   0  0  0  0  0  0  0  0  0  0  0  0
   -5.2593   -1.8667    3.4612 C   0  0  0  0  0  0  0  0  0  0  0  0
   -4.9859    0.7157    3.5349 C   0  0  0  0  0  0  0  0  0  0  0  0
   -2.9228   -1.6430    0.2784 C   0  0  0  0  0  0  0  0  0  0  0  0
   -0.4072   -3.0261    2.6537 C   0  0  0  0  0  0  0  0  0  0  0  0
    0.0014   -1.0972    4.0026 C   0  0  0  0  0  0  0  0  0  0  0  0
   -3.6635   -1.9689   -0.8749 O   0  0  0  0  0  0  0  0  0  0  0  0
   -3.2162    1.5768   -0.5770 O   0  0  0  0  0  0  0  0  0  0  0  0
   -3.9314    0.6559   -1.4519 C   0  0  0  0  0  0  0  0  0  0  0  0
   -3.5983   -0.8988   -1.8226 C   0  0  0  0  0  0  0  0  0  0  0  0
   -3.3006    1.3289    0.7835 C   0  0  0  0  0  0  0  0  0  0  0  0
    1.0814   -3.0109    2.9657 C   0  0  0  0  0  0  0  0  0  0  0  0
    1.3593   -1.7297    3.7464 C   0  0  0  0  0  0  0  0  0  0  0  0
  3  1  1  0
  4 19  1  1
  4  5  1  0
  4  2  1  0
  5  3  1  0
  6  1  1  0
  8  2  1  0
  9  7  1  1
  9 14  1  0
  9 13  1  0
 10  1  2  0
 11  2  2  0
 12  7  1  0
 13 17  1  0
 14 18  1  0
 15  6  1  1
 16  7  2  0
 17 15  1  0
 18 15  1  0
 20  3  1  0
 21  3  1  0
 22 19  1  0
 23 24  1  0
 24 25  1  0
 25 22  1  0
 26 23  1  0
 27 20  1  0
 27 28  1  0
 28 21  1  0
M  END
>  <DRUGBANK_ID>  (1) 
DB11623

>  <COMMON_NAME>  (1) 
Candoxatrilat

>  <CAS_NUMBER>  (1) 
123122-54-3

>  <UNII>  (1) 
7WU8BZ90TH

>  <SYNONYMS>  (1) 
Candoxatrilat; Candoxatrilate

$$$$
