
     RDKit          3D

 29 32  0  0  0  0  0  0  0  0999 V2000
    0.9960   -0.0319   -0.0205 C   0  0  0  0  0  0  0  0  0  0  0  0
    0.4768    0.8282   -1.1889 C   0  0  0  0  0  0  0  0  0  0  0  0
    0.6046    0.1788   -2.5613 C   0  0  0  0  0  0  0  0  0  0  0  0
   -1.0501    0.9230   -1.0932 C   0  0  0  0  0  0  0  0  0  0  0  0
    1.1359    2.1475   -1.1386 N   0  0  0  0  0  0  0  0  0  0  0  0
    2.6304    2.1684   -1.0915 C   0  0  0  0  0  0  0  0  0  0  0  0
    3.3516    1.6052   -2.3199 C   0  0  0  0  0  0  0  0  0  0  0  0
    3.5761    0.1904   -2.5125 C   0  0  0  0  0  0  0  0  0  0  0  0
    3.6137   -0.3689   -3.8215 C   0  0  0  0  0  0  0  0  0  0  0  0
    3.5000   -1.7932   -4.0550 N   0  0  0  0  0  0  0  0  0  0  0  0
    3.7099   -2.6225   -5.2285 C   0  0  0  0  0  0  0  0  0  0  0  0
    2.6316   -3.2750   -5.8440 C   0  0  0  0  0  0  0  0  0  0  0  0
    2.9445   -3.7964   -7.0693 C   0  0  0  0  0  0  0  0  0  0  0  0
    4.2194   -4.2223   -7.3865 N   0  0  0  0  0  0  0  0  0  0  0  0
    5.2997   -3.8611   -6.5660 C   0  0  0  0  0  0  0  0  0  0  0  0
    6.7735   -3.9988   -6.8490 C   0  0  0  0  0  0  0  0  0  0  0  0
    7.1669   -3.4370   -8.0249 C   0  0  0  0  0  0  0  0  0  0  0  0
    8.7687   -3.4429   -8.6602 Cl  0  0  0  0  0  0  0  0  0  0  0  0
    6.3658   -2.3449   -8.1824 C   0  0  0  0  0  0  0  0  0  0  0  0
    5.7235   -1.8644   -6.8899 C   0  0  0  0  0  0  0  0  0  0  0  0
    5.0307   -2.7656   -5.9684 C   0  0  0  0  0  0  0  0  0  0  0  0
    3.7162    0.5730   -4.8593 C   0  0  0  0  0  0  0  0  0  0  0  0
    3.8877    0.0904   -6.2409 C   0  0  0  0  0  0  0  0  0  0  0  0
    4.0186    1.0213   -7.3998 C   0  0  0  0  0  0  0  0  0  0  0  0
    4.9450    2.1220   -6.9415 C   0  0  0  0  0  0  0  0  0  0  0  0
    4.2643    2.8573   -5.7923 C   0  0  0  0  0  0  0  0  0  0  0  0
    3.8620    1.9608   -4.6433 C   0  0  0  0  0  0  0  0  0  0  0  0
    3.5893    2.4717   -3.3856 C   0  0  0  0  0  0  0  0  0  0  0  0
    3.5096    3.8183   -3.1688 O   0  0  0  0  0  0  0  0  0  0  0  0
  1  2  1  0
  2  3  1  0
  2  4  1  0
  2  5  1  0
  5  6  1  0
  6  7  1  0
  7  8  2  0
  7 28  1  0
  8  9  1  0
  9 10  1  0
  9 22  2  0
 10 11  1  0
 11 12  2  0
 11 21  1  0
 12 13  1  0
 13 14  2  0
 14 15  1  0
 15 16  1  0
 15 21  2  0
 16 17  2  0
 17 18  1  0
 17 19  1  0
 19 20  2  0
 20 21  1  0
 22 23  1  0
 22 27  1  0
 23 24  1  0
 24 25  1  0
 25 26  1  0
 26 27  1  0
 27 28  2  0
 28 29  1  0
M  END
>  <DRUGBANK_ID>  (1) 
DB16249

>  <COMMON_NAME>  (1) 
Naphthoquine

>  <CAS_NUMBER>  (1) 
173531-57-2

>  <UNII>  (1) 
TRY8UD4E2H

$$$$
