
     RDKit          3D

 29 31  0  0  0  0  0  0  0  0999 V2000
   -2.5509    0.8566    0.0117 Cl  0  0  0  0  0  0  0  0  0  0  0  0
   -1.0817   -0.0338   -0.0324 C   0  0  0  0  0  0  0  0  0  0  0  0
   -1.1116   -1.4250   -0.0976 C   0  0  0  0  0  0  0  0  0  0  0  0
    0.0915   -2.1262   -0.1604 C   0  0  0  0  0  0  0  0  0  0  0  0
   -0.0050   -3.5014   -0.1598 O   0  0  0  0  0  0  0  0  0  0  0  0
    1.1475   -4.2564   -0.0087 C   0  0  0  0  0  0  0  0  0  0  0  0
    1.9766   -4.1992    1.0566 C   0  0  0  0  0  0  0  0  0  0  0  0
    1.7502   -3.3344    2.2644 C   0  0  0  0  0  0  0  0  0  0  0  0
    1.7966   -4.0474    3.4153 F   0  0  0  0  0  0  0  0  0  0  0  0
    2.7057   -2.3709    2.3541 F   0  0  0  0  0  0  0  0  0  0  0  0
    0.5569   -2.6913    2.2871 F   0  0  0  0  0  0  0  0  0  0  0  0
    3.1538   -5.0494    1.0902 C   0  0  0  0  0  0  0  0  0  0  0  0
    3.2387   -6.0949    0.2633 C   0  0  0  0  0  0  0  0  0  0  0  0
    2.4528   -6.1536   -0.8743 N   0  0  0  0  0  0  0  0  0  0  0  0
    2.8469   -7.0539   -1.9645 C   0  0  0  0  0  0  0  0  0  0  0  0
    4.2743   -6.8031   -2.4484 C   0  0  0  0  0  0  0  0  0  0  0  0
    5.3250   -6.9661   -1.6843 N   0  0  0  0  0  0  0  0  0  0  0  0
    6.3805   -6.6408   -2.4849 N   0  0  0  0  0  0  0  0  0  0  0  0
    5.9386   -6.2998   -3.7543 C   0  0  0  0  0  0  0  0  0  0  0  0
    4.5703   -6.4099   -3.7027 N   0  0  0  0  0  0  0  0  0  0  0  0
    3.7150   -6.1549   -4.8351 C   0  0  0  0  0  0  0  0  0  0  0  0
    6.6357   -5.9796   -4.7011 O   0  0  0  0  0  0  0  0  0  0  0  0
    1.4558   -5.2113   -1.1277 C   0  0  0  0  0  0  0  0  0  0  0  0
    0.8411   -5.1333   -2.1898 O   0  0  0  0  0  0  0  0  0  0  0  0
    1.3092   -1.4296   -0.1471 C   0  0  0  0  0  0  0  0  0  0  0  0
    1.3292   -0.0429   -0.0500 C   0  0  0  0  0  0  0  0  0  0  0  0
    2.5793    0.6633   -0.0124 C   0  0  0  0  0  0  0  0  0  0  0  0
    3.5742    1.2448   -0.0027 N   0  0  0  0  0  0  0  0  0  0  0  0
    0.1296    0.6577   -0.0086 C   0  0  0  0  0  0  0  0  0  0  0  0
  1  2  1  0
  2  3  2  0
  2 29  1  0
  3  4  1  0
  4  5  1  0
  4 25  2  0
  5  6  1  0
  6  7  2  0
  6 23  1  0
  7  8  1  0
  7 12  1  0
  8  9  1  0
  8 10  1  0
  8 11  1  0
 12 13  2  0
 13 14  1  0
 14 15  1  0
 14 23  1  0
 15 16  1  0
 16 17  2  0
 16 20  1  0
 17 18  1  0
 18 19  1  0
 19 20  1  0
 19 22  2  0
 20 21  1  0
 23 24  2  0
 25 26  1  0
 26 27  1  0
 26 29  2  0
 27 28  3  0
M  END
>  <DRUGBANK_ID>  (1) 
DB12301

>  <COMMON_NAME>  (1) 
Doravirine

>  <CAS_NUMBER>  (1) 
1338225-97-0

>  <UNII>  (1) 
913P6LK81M

>  <SYNONYMS>  (1) 
Doravirine; Doravirinum

$$$$
