
     RDKit          3D

 34 38  0  0  0  0  0  0  0  0999 V2000
   -0.0156   -1.5235    0.0199 C   0  0  0  0  0  0  0  0  0  0  0  0
    1.0761   -0.6930    0.0437 C   0  0  0  0  0  0  0  0  0  0  0  0
   -1.1372   -0.7036    0.0290 C   0  0  0  0  0  0  0  0  0  0  0  0
   -3.6134    4.1401   -6.3278 C   0  0  0  0  0  0  0  0  0  0  0  0
   -2.0191    4.9074   -7.9528 C   0  0  0  0  0  0  0  0  0  0  0  0
    2.9086    7.8998    0.7534 C   0  0  0  0  0  0  0  0  0  0  0  0
   -2.9944    4.9355   -5.3567 C   0  0  0  0  0  0  0  0  0  0  0  0
   -1.4497    5.7585   -6.9946 C   0  0  0  0  0  0  0  0  0  0  0  0
    2.3632    7.2699   -0.3287 C   0  0  0  0  0  0  0  0  0  0  0  0
    0.5178    7.3419    1.5294 C   0  0  0  0  0  0  0  0  0  0  0  0
    1.7506    4.6010   -0.2285 C   0  0  0  0  0  0  0  0  0  0  0  0
    0.0045    4.2347   -2.3110 C   0  0  0  0  0  0  0  0  0  0  0  0
   -3.1719    4.1743   -7.6584 C   0  0  0  0  0  0  0  0  0  0  0  0
    0.9365    4.9372   -1.5923 C   0  0  0  0  0  0  0  0  0  0  0  0
    1.8902    8.2565    1.5542 C   0  0  0  0  0  0  0  0  0  0  0  0
   -1.9405    5.7944   -5.6885 C   0  0  0  0  0  0  0  0  0  0  0  0
    0.8625    6.7506   -0.4886 C   0  0  0  0  0  0  0  0  0  0  0  0
    0.0421    6.0657    0.5747 C   0  0  0  0  0  0  0  0  0  0  0  0
    1.0142    0.9513    0.1447 C   0  0  0  0  0  0  0  0  0  0  0  0
   -1.2278    0.9667    0.1476 C   0  0  0  0  0  0  0  0  0  0  0  0
   -0.1949    2.0644    0.2781 C   0  0  0  0  0  0  0  0  0  0  0  0
    0.6777    6.2503   -1.7885 C   0  0  0  0  0  0  0  0  0  0  0  0
   -0.0931    3.9806    0.7022 C   0  0  0  0  0  0  0  0  0  0  0  0
   -4.0038    3.5031   -8.7065 C   0  0  0  0  0  0  0  0  0  0  0  0
   -0.7091    6.0837   -3.5485 C   0  0  0  0  0  0  0  0  0  0  0  0
    2.2640    9.7876    2.3906 Cl  0  0  0  0  0  0  0  0  0  0  0  0
    2.3091    1.3442    0.0658 F   0  0  0  0  0  0  0  0  0  0  0  0
   -2.5233    1.2901    0.0634 F   0  0  0  0  0  0  0  0  0  0  0  0
    1.0590    3.5545    0.2730 N   0  0  0  0  0  0  0  0  0  0  0  0
   -0.7735    4.7646   -3.2959 N   0  0  0  0  0  0  0  0  0  0  0  0
   -1.3202    6.5761   -4.7051 N   0  0  0  0  0  0  0  0  0  0  0  0
   -0.0617    6.9067   -2.7283 N   0  0  0  0  0  0  0  0  0  0  0  0
   -3.5937    3.6238   -9.9888 O   0  0  0  0  0  0  0  0  0  0  0  0
   -5.0467    2.9293   -8.4322 O   0  0  0  0  0  0  0  0  0  0  0  0
  2  1  2  0
  3  1  1  0
  7  4  2  0
  8  5  1  0
  9  6  2  0
 13  4  1  0
 13  5  2  0
 14 11  1  0
 14 12  1  0
 15  6  1  0
 15 10  2  0
 16  7  1  0
 16  8  2  0
 17  9  1  0
 18 10  1  0
 18 17  2  0
 19  2  1  0
 20  3  2  0
 21 19  2  0
 21 20  1  0
 22 14  2  0
 22 17  1  0
 23 18  1  0
 23 21  1  0
 24 13  1  0
 26 15  1  0
 27 19  1  0
 28 20  1  0
 29 11  1  0
 29 23  2  0
 30 12  2  0
 30 25  1  0
 31 16  1  0
 31 25  1  0
 32 22  1  0
 32 25  2  0
 33 24  1  0
 34 24  2  0
M  END
>  <DRUGBANK_ID>  (1) 
DB13061

>  <SECONDARY_ACCESSION_NUMBERS>  (1) 
DB05957

>  <COMMON_NAME>  (1) 
MLN8054

>  <CAS_NUMBER>  (1) 
869363-13-3

>  <UNII>  (1) 
BX854EHD63

$$$$
