740
     RDKit          3D

 32 36  0  0  0  0  0  0  0  0999 V2000
    1.8293    0.0923   -0.1802 C   0  0  0  0  0  0  0  0  0  0  0  0
    1.2325    1.4071   -0.2112 C   0  0  0  0  0  0  0  0  0  0  0  0
   -0.1596    1.7082   -0.4240 C   0  0  0  0  0  0  0  0  0  0  0  0
   -0.9600    0.6686   -0.7891 C   0  0  0  0  0  0  0  0  0  0  0  0
   -0.1223   -0.6766   -0.8989 C   0  0  0  0  0  0  0  0  0  0  0  0
    1.1051   -0.9882   -0.4526 C   0  0  0  0  0  0  0  0  0  0  0  0
   -2.7136    0.8979   -0.4678 C   0  0  0  0  0  0  0  0  0  0  0  0
   -3.3373    1.4046    0.9326 C   0  0  0  0  0  0  0  0  0  0  0  0
   -3.5614    0.6067    2.0796 N   0  0  0  0  0  0  0  0  0  0  0  0
   -2.7603   -0.5000    2.4644 C   0  0  0  0  0  0  0  0  0  0  0  0
   -1.5142   -0.0646    2.6704 N   0  0  0  0  0  0  0  0  0  0  0  0
   -1.0132   -0.4260    1.4785 N   0  0  0  0  0  0  0  0  0  0  0  0
   -1.9551   -1.2152    0.6684 C   0  0  0  0  0  0  0  0  0  0  0  0
   -2.2958   -1.6569   -0.7976 C   0  0  0  0  0  0  0  0  0  0  0  0
   -2.3381   -2.9608   -1.0518 C   0  0  0  0  0  0  0  0  0  0  0  0
   -2.7145   -3.6035    0.0773 C   0  0  0  0  0  0  0  0  0  0  0  0
   -2.9469   -3.0321    1.4185 C   0  0  0  0  0  0  0  0  0  0  0  0
   -2.6075   -1.7224    1.7133 C   0  0  0  0  0  0  0  0  0  0  0  0
   -3.2921   -4.8161   -0.1843 N   0  0  0  0  0  0  0  0  0  0  0  0
   -2.6436   -5.9173   -0.8590 C   0  0  0  0  0  0  0  0  0  0  0  0
   -3.8477    2.5378    0.9668 O   0  0  0  0  0  0  0  0  0  0  0  0
   -3.6561   -7.0425   -0.6137 C   0  0  0  0  0  0  0  0  0  0  0  0
   -4.9657   -4.7849   -0.4687 S   0  0  0  0  0  0  0  0  0  0  0  0
   -4.9283   -6.4543    0.0485 C   0  0  0  0  0  0  0  0  0  0  0  0
   -5.6187   -3.9390    0.5398 O   0  0  0  0  0  0  0  0  0  0  0  0
   -5.2492   -4.6933   -1.8649 O   0  0  0  0  0  0  0  0  0  0  0  0
    3.7431   -1.2343   -0.7618 C   0  0  0  0  0  0  0  0  0  0  0  0
    3.0704   -0.3169    0.1588 N   0  0  0  0  0  0  0  0  0  0  0  0
    3.7369    0.0731    1.3531 C   0  0  0  0  0  0  0  0  0  0  0  0
    4.8589    0.9438    0.8417 C   0  0  0  0  0  0  0  0  0  0  0  0
    5.6796    0.2040   -0.2434 C   0  0  0  0  0  0  0  0  0  0  0  0
    4.8325   -0.3987   -1.3726 C   0  0  0  0  0  0  0  0  0  0  0  0
  1  6  1  0
  1  2  2  0
  1 28  1  0
  2  3  1  0
  3  4  2  0
  4  7  1  0
  4  5  1  0
  5  6  2  0
  7  8  1  0
  8 21  2  0
  8  9  1  0
  9 10  1  0
 10 11  2  0
 10 18  1  0
 11 12  1  0
 12 13  1  0
 13 14  1  0
 13 18  2  0
 14 15  2  0
 15 16  1  0
 16 17  2  0
 16 19  1  0
 17 18  1  0
 19 20  1  0
 19 23  1  0
 20 22  1  0
 22 24  1  0
 23 24  1  0
 23 25  2  0
 23 26  2  0
 27 32  1  0
 27 28  1  0
 28 29  1  0
 29 30  1  0
 30 31  1  0
 31 32  1  0
M  END
>  <DRUGBANK_ID>  (1) 
DB07220

>  <COMMON_NAME>  (1) 
N-[5-(1,1-DIOXIDOISOTHIAZOLIDIN-2-YL)-1H-INDAZOL-3-YL]-2-(4-PIPERIDIN-1-YLPHENYL)ACETAMIDE

$$$$
