
     RDKit          3D

 28 29  0  0  0  0  0  0  0  0999 V2000
    0.8863    0.0575    0.0298 C   0  0  2  0  0  0  0  0  0  0  0  0
    0.4204   -1.2177    0.7349 C   0  0  0  0  0  0  0  0  0  0  0  0
    1.1195   -2.0381    1.3056 O   0  0  0  0  0  0  0  0  0  0  0  0
    0.3718    1.2668    0.8257 C   0  0  0  0  0  0  0  0  0  0  0  0
    0.7737    1.3926    2.2764 C   0  0  0  0  0  0  0  0  0  0  0  0
    2.2073    1.8261    2.4194 C   0  0  0  0  0  0  0  0  0  0  0  0
    2.5949    2.8567    2.9313 O   0  0  0  0  0  0  0  0  0  0  0  0
    0.3528    0.1289   -1.3953 N   0  0  0  0  0  0  0  0  0  0  0  0
    0.5611    1.6629   -2.1333 S   0  0  0  0  0  0  0  0  0  0  0  0
   -0.3871    2.5648   -1.4916 O   0  0  0  0  0  0  0  0  0  0  0  0
    1.9679    1.9409   -2.1822 O   0  0  0  0  0  0  0  0  0  0  0  0
   -0.0406    1.4938   -3.7669 C   0  0  0  0  0  0  0  0  0  0  0  0
   -0.0684    0.3751   -5.8328 C   0  0  0  0  0  0  0  0  0  0  0  0
    0.3083   -0.6962   -6.5724 C   0  0  0  0  0  0  0  0  0  0  0  0
   -0.3899   -0.9068   -7.7496 C   0  0  0  0  0  0  0  0  0  0  0  0
   -1.1361    0.0193   -8.4370 C   0  0  0  0  0  0  0  0  0  0  0  0
   -1.5509    1.0956   -7.6886 C   0  0  0  0  0  0  0  0  0  0  0  0
   -1.0679    1.2445   -6.3620 C   0  0  0  0  0  0  0  0  0  0  0  0
   -1.5550    2.2342   -5.5276 C   0  0  0  0  0  0  0  0  0  0  0  0
   -1.0431    2.3601   -4.2376 C   0  0  0  0  0  0  0  0  0  0  0  0
    0.4768    0.5008   -4.5631 C   0  0  0  0  0  0  0  0  0  0  0  0
   -0.8408   -1.1736  -10.5650 C   0  0  0  0  0  0  0  0  0  0  0  0
   -1.4346   -0.1054   -9.7670 O   0  0  0  0  0  0  0  0  0  0  0  0
    0.6746   -1.0680  -10.8964 C   0  0  0  0  0  0  0  0  0  0  0  0
    1.6306   -1.2722   -9.7200 C   0  0  0  0  0  0  0  0  0  0  0  0
    1.5180   -2.6862   -9.0976 C   0  0  0  0  0  0  0  0  0  0  0  0
   -0.9287   -1.3422    0.7669 O   0  0  0  0  0  0  0  0  0  0  0  0
    3.0728    0.9200    1.9285 O   0  0  0  0  0  0  0  0  0  0  0  0
  1  2  1  0
  1  4  1  1
  1  8  1  0
  2  3  2  0
  2 27  1  0
  4  5  1  0
  5  6  1  0
  6  7  2  0
  6 28  1  0
  8  9  1  0
  9 12  1  0
  9 10  2  0
  9 11  2  0
 12 20  2  0
 12 21  1  0
 13 14  1  0
 13 18  1  0
 13 21  2  0
 14 15  2  0
 15 16  1  0
 16 17  2  0
 16 23  1  0
 17 18  1  0
 18 19  2  0
 19 20  1  0
 22 23  1  0
 22 24  1  0
 24 25  1  0
 25 26  1  0
M  END
>  <DRUGBANK_ID>  (1) 
DB08105

>  <COMMON_NAME>  (1) 
N-[(6-butoxynaphthalen-2-yl)sulfonyl]-L-glutamic acid

$$$$
