
     RDKit          3D

 18 20  0  0  0  0  0  0  0  0999 V2000
    0.9718   -0.0622    0.0033 C   0  0  0  0  0  0  0  0  0  0  0  0
    0.5953   -1.3489    0.6749 C   0  0  0  0  0  0  0  0  0  0  0  0
    1.1622   -2.5569    0.2653 C   0  0  0  0  0  0  0  0  0  0  0  0
    0.8101   -3.6862    0.9631 C   0  0  0  0  0  0  0  0  0  0  0  0
   -0.0687   -3.6219    2.0292 C   0  0  0  0  0  0  0  0  0  0  0  0
   -0.6236   -2.4080    2.3570 C   0  0  0  0  0  0  0  0  0  0  0  0
   -0.3052   -1.2668    1.6995 N   0  0  0  0  0  0  0  0  0  0  0  0
   -0.2193   -4.9728    2.6371 C   0  0  0  0  0  0  0  0  0  0  0  0
    0.3321   -5.8395    1.5997 O   0  0  0  0  0  0  0  0  0  0  0  0
    1.2717   -5.0800    0.7976 C   0  0  0  0  0  0  0  0  0  0  0  0
    0.5249   -5.1669    3.9518 C   0  0  0  0  0  0  0  0  0  0  0  0
    0.2118   -4.3788    5.0735 C   0  0  0  0  0  0  0  0  0  0  0  0
    0.9193   -4.5204    6.2711 C   0  0  0  0  0  0  0  0  0  0  0  0
    1.9339   -5.4679    6.3690 C   0  0  0  0  0  0  0  0  0  0  0  0
    2.2394   -6.2824    5.2845 C   0  0  0  0  0  0  0  0  0  0  0  0
    1.5346   -6.1366    4.0878 C   0  0  0  0  0  0  0  0  0  0  0  0
    2.8107   -5.6373    7.8386 Cl  0  0  0  0  0  0  0  0  0  0  0  0
    2.0443   -2.6882   -0.7623 O   0  0  0  0  0  0  0  0  0  0  0  0
  1  2  1  0
  2  3  2  0
  2  7  1  0
  3  4  1  0
  3 18  1  0
  4  5  2  0
  4 10  1  0
  5  6  1  0
  5  8  1  0
  6  7  2  0
  8  9  1  0
  8 11  1  0
  9 10  1  0
 11 12  2  0
 11 16  1  0
 12 13  1  0
 13 14  2  0
 14 15  1  0
 14 17  1  0
 15 16  2  0
M  END
>  <DRUGBANK_ID>  (1) 
DB12766

>  <COMMON_NAME>  (1) 
Cicletanine

>  <CAS_NUMBER>  (1) 
89943-82-8

>  <UNII>  (1) 
CHG7QC509W

>  <SYNONYMS>  (1) 
Cicletanine

$$$$
