
     RDKit          3D

 22 24  0  0  0  0  0  0  0  0999 V2000
    0.9673    0.0101   -0.1953 C   0  0  0  0  0  0  0  0  0  0  0  0
    0.4498    0.1369    1.2556 C   0  0  0  0  0  0  0  0  0  0  0  0
    1.1079   -1.0014    2.0205 C   0  0  0  0  0  0  0  0  0  0  0  0
    0.8303   -2.3322    1.5908 C   0  0  0  0  0  0  0  0  0  0  0  0
    1.3347   -3.4386    2.2452 C   0  0  0  0  0  0  0  0  0  0  0  0
    2.1204   -3.2309    3.3614 C   0  0  0  0  0  0  0  0  0  0  0  0
    2.3971   -1.9201    3.8012 C   0  0  0  0  0  0  0  0  0  0  0  0
    1.9227   -0.7621    3.1304 C   0  0  0  0  0  0  0  0  0  0  0  0
    2.1641    0.6951    3.5253 C   0  0  0  0  0  0  0  0  0  0  0  0
    3.0716    0.8963    4.5175 C   0  0  0  0  0  0  0  0  0  0  0  0
    3.5185    2.0814    5.3215 C   0  0  0  0  0  0  0  0  0  0  0  0
    2.8354    2.2310    6.6911 C   0  0  0  0  0  0  0  0  0  0  0  0
    3.4221    1.3344    7.6976 N   0  0  0  0  0  0  0  0  0  0  0  0
    2.8752    1.6249    9.0153 C   0  0  0  0  0  0  0  0  0  0  0  0
    3.1759   -0.0687    7.3810 C   0  0  0  0  0  0  0  0  0  0  0  0
    1.5201    1.8488    2.8193 C   0  0  0  0  0  0  0  0  0  0  0  0
    1.6461    3.2206    3.1114 C   0  0  0  0  0  0  0  0  0  0  0  0
    1.1080    4.2559    2.3515 C   0  0  0  0  0  0  0  0  0  0  0  0
    0.3504    3.9551    1.2547 C   0  0  0  0  0  0  0  0  0  0  0  0
    0.1668    2.6218    0.9419 C   0  0  0  0  0  0  0  0  0  0  0  0
    0.7497    1.5623    1.6956 C   0  0  0  0  0  0  0  0  0  0  0  0
   -1.0626   -0.0322    1.5279 C   0  0  0  0  0  0  0  0  0  0  0  0
  1  2  1  0
  2  3  1  0
  2 21  1  0
  2 22  1  0
  3  4  1  0
  3  8  2  0
  4  5  2  0
  5  6  1  0
  6  7  2  0
  7  8  1  0
  8  9  1  0
  9 10  2  3
  9 16  1  0
 10 11  1  0
 11 12  1  0
 12 13  1  0
 13 14  1  0
 13 15  1  0
 16 17  1  0
 16 21  2  0
 17 18  2  0
 18 19  1  0
 19 20  2  0
 20 21  1  0
M  END
>  <DRUGBANK_ID>  (1) 
DB13384

>  <COMMON_NAME>  (1) 
Melitracen

>  <CAS_NUMBER>  (1) 
5118-29-6

>  <UNII>  (1) 
Q7T0Y1109Z

>  <SYNONYMS>  (1) 
Melitracen; Melitraceno

$$$$
