
     RDKit          3D

 28 31  0  0  0  0  0  0  0  0999 V2000
    1.3448    1.6598   -0.0145 Cl  0  0  0  0  0  0  0  0  0  0  0  0
   -0.1035    0.7218   -0.0109 C   0  0  0  0  0  0  0  0  0  0  0  0
   -0.0781   -0.6727    0.0296 C   0  0  0  0  0  0  0  0  0  0  0  0
    1.3784   -1.5967   -0.0001 Cl  0  0  0  0  0  0  0  0  0  0  0  0
   -1.2767   -1.3701    0.0848 C   0  0  0  0  0  0  0  0  0  0  0  0
   -2.5109   -0.6927    0.0646 C   0  0  0  0  0  0  0  0  0  0  0  0
   -3.7618   -1.5338    0.0044 C   0  0  0  0  0  0  0  0  0  0  0  0
   -3.5372   -2.3774   -1.1822 N   0  0  0  0  0  0  0  0  0  0  0  0
   -3.9822   -3.6752   -1.2492 C   0  0  0  0  0  0  0  0  0  0  0  0
   -5.0947   -3.9174   -0.7633 N   0  0  0  0  0  0  0  0  0  0  0  0
   -5.6779   -5.1790   -0.9101 C   0  0  0  0  0  0  0  0  0  0  0  0
   -6.7849   -5.2614   -0.4378 O   0  0  0  0  0  0  0  0  0  0  0  0
   -4.5578   -6.3752   -1.4702 C   0  0  0  0  0  0  0  0  0  0  0  0
   -3.3721   -5.8583   -1.9371 C   0  0  0  0  0  0  0  0  0  0  0  0
   -3.1371   -4.5205   -1.9536 N   0  0  0  0  0  0  0  0  0  0  0  0
   -2.4199   -6.8161   -2.2040 N   0  0  0  0  0  0  0  0  0  0  0  0
   -2.8729   -7.9853   -1.7948 C   0  0  0  0  0  0  0  0  0  0  0  0
   -4.0517   -7.8967   -1.0567 N   0  0  0  0  0  0  0  0  0  0  0  0
   -4.1415   -8.9829    0.2007 C   0  0  0  0  0  0  0  0  0  0  0  0
   -4.0691   -8.6841    1.8747 C   0  0  0  0  0  0  0  0  0  0  0  0
   -5.0306   -7.7410    2.5898 N   0  0  0  0  0  0  0  0  0  0  0  0
   -6.3881   -8.0515    1.9426 C   0  0  0  0  0  0  0  0  0  0  0  0
   -6.4377   -7.9212    0.4567 C   0  0  0  0  0  0  0  0  0  0  0  0
   -5.5792   -6.8150    0.3824 O   0  0  0  0  0  0  0  0  0  0  0  0
   -4.3114   -6.3736    0.9857 C   0  0  0  0  0  0  0  0  0  0  0  0
   -4.6159   -6.3164    2.3846 C   0  0  0  0  0  0  0  0  0  0  0  0
   -2.5340    0.7008   -0.0014 C   0  0  0  0  0  0  0  0  0  0  0  0
   -1.3284    1.4044   -0.0330 C   0  0  0  0  0  0  0  0  0  0  0  0
  1  2  1  0
  2  3  2  0
  2 28  1  0
  3  4  1  0
  3  5  1  0
  5  6  2  0
  6  7  1  0
  6 27  1  0
  7  8  1  0
  8  9  1  0
  9 10  2  0
  9 15  1  0
 10 11  1  0
 11 12  2  0
 11 13  1  0
 13 14  2  0
 13 18  1  0
 14 15  1  0
 14 16  1  0
 16 17  2  0
 17 18  1  0
 18 19  1  0
 19 20  1  0
 20 21  1  0
 21 22  1  0
 21 26  1  0
 22 23  1  0
 23 24  1  0
 24 25  1  0
 25 26  1  0
 27 28  2  0
M  END
>  <DRUGBANK_ID>  (1) 
DB16189

>  <COMMON_NAME>  (1) 
Ibezapolstat

>  <CAS_NUMBER>  (1) 
1275582-97-2

>  <UNII>  (1) 
5K543KNC5P

>  <SYNONYMS>  (1) 
Ibezapolstat

$$$$
