
     RDKit          3D

 31 35  0  0  0  0  0  0  0  0999 V2000
    5.3060    1.4605   -1.9248 F   0  0  0  0  0  0  0  0  0  0  0  0
    5.3007   -3.2670    5.3519 O   0  0  0  0  0  0  0  0  0  0  0  0
    5.1299   -1.3009    6.6464 O   0  0  0  0  0  0  0  0  0  0  0  0
    2.5842   -2.3355    1.0103 O   0  0  0  0  0  0  0  0  0  0  0  0
    7.7065   -2.1342    2.9010 O   0  0  0  0  0  0  0  0  0  0  0  0
    8.8087   -1.3166    5.8223 O   0  0  0  0  0  0  0  0  0  0  0  0
    1.6097    4.2192   -2.2813 O   0  0  0  0  0  0  0  0  0  0  0  0
    5.5795   -0.4790    2.8237 C   0  0  1  0  0  0  0  0  0  0  0  0
    4.9739   -1.9453    3.1710 C   0  0  1  0  0  0  0  0  0  0  0  0
    4.8153   -0.1361    1.4384 C   0  0  1  0  0  0  0  0  0  0  0  0
    5.7026   -2.1978    4.5248 C   0  0  1  0  0  0  0  0  0  0  0  0
    3.3354    0.1641    1.5395 C   0  0  1  0  0  0  0  0  0  0  0  0
    5.1808   -0.9675    5.2709 C   0  0  2  0  0  0  0  0  0  0  0  0
    2.7265    1.2463    0.3250 C   0  0  2  0  0  0  0  0  0  0  0  0
    5.8750    0.1036    4.4507 C   0  0  0  0  0  0  0  0  0  0  0  0
    2.6794   -1.2924    1.9724 C   0  0  2  0  0  0  0  0  0  0  0  0
    3.3905   -1.7990    3.2544 C   0  0  0  0  0  0  0  0  0  0  0  0
    5.3829    0.7702    0.3889 C   0  0  0  0  0  0  0  0  0  0  0  0
    7.3118   -2.2638    4.0739 C   0  0  0  0  0  0  0  0  0  0  0  0
    2.9956    1.0458   -1.1228 C   0  0  0  0  0  0  0  0  0  0  0  0
    5.3302   -2.7321    6.6978 C   0  0  0  0  0  0  0  0  0  0  0  0
    5.2658   -3.1365    2.2259 C   0  0  0  0  0  0  0  0  0  0  0  0
    4.5592    0.6946   -1.0792 C   0  0  1  0  0  0  0  0  0  0  0  0
    3.6141    2.8962   -0.0531 C   0  0  0  0  0  0  0  0  0  0  0  0
    1.1904    0.6803    0.3281 C   0  0  0  0  0  0  0  0  0  0  0  0
    2.0774    1.8709   -1.8234 C   0  0  0  0  0  0  0  0  0  0  0  0
    8.4583   -2.4298    5.0279 C   0  0  0  0  0  0  0  0  0  0  0  0
    3.7562    3.5265   -1.6455 C   0  0  0  0  0  0  0  0  0  0  0  0
    4.4545   -3.5941    7.6060 C   0  0  0  0  0  0  0  0  0  0  0  0
    6.6776   -2.8185    7.3786 C   0  0  0  0  0  0  0  0  0  0  0  0
    2.3864    3.3371   -2.0641 C   0  0  0  0  0  0  0  0  0  0  0  0
  2 11  1  0
  2 21  1  0
  3 13  1  0
  3 21  1  0
  5 19  2  0
  6 27  1  0
  7 31  2  0
  8  9  1  0
  8 10  1  0
  8 15  1  1
  9 11  1  0
  9 17  1  0
  9 22  1  6
 10 12  1  0
 10 18  1  1
 11 13  1  0
 11 19  1  6
 12 14  1  0
 12 16  1  6
 13 15  1  1
 14 20  1  0
 14 24  1  0
 14 25  1  6
 16  4  1  6
 16 17  1  0
 18 23  1  0
 19 27  1  0
 20 23  1  0
 20 26  2  0
 21 29  1  0
 21 30  1  0
 23  1  1  6
 24 28  1  0
 26 31  1  0
 28 31  1  0
M  END
>  <DRUGBANK_ID>  (1) 
DB00846

>  <SECONDARY_ACCESSION_NUMBERS>  (1) 
APRD00982

>  <COMMON_NAME>  (1) 
Flurandrenolide

>  <CAS_NUMBER>  (1) 
1524-88-5

>  <UNII>  (1) 
8EUL29XUQT

>  <SYNONYMS>  (1) 
Fludroxicortida; Fludroxicortide; Fludroxycortid; Fludroxycortide; Fludroxycortidum; Flurandrenolide; Flurandrenolone

$$$$
