CMZ
     RDKit          3D

 19 20  0  0  0  0  0  0  0  0999 V2000
    3.3609   -0.2584   -0.0234 C   0  0  0  0  0  0  0  0  0  0  0  0
    1.8856   -0.3793   -0.0366 C   0  0  0  0  0  0  0  0  0  0  0  0
    1.3241    0.8395    0.0126 C   0  0  0  0  0  0  0  0  0  0  0  0
   -0.0100    0.7384    0.1827 C   0  0  0  0  0  0  0  0  0  0  0  0
   -0.6918   -0.5140   -0.0462 C   0  0  0  0  0  0  0  0  0  0  0  0
   -2.0038   -0.5500   -0.6559 C   0  0  0  0  0  0  0  0  0  0  0  0
   -0.2293   -1.7302    0.0771 C   0  0  0  0  0  0  0  0  0  0  0  0
   -1.0509   -2.8391    0.1802 O   0  0  0  0  0  0  0  0  0  0  0  0
   -2.5856   -2.8196    0.2662 C   0  0  0  0  0  0  0  0  0  0  0  0
   -3.3903   -1.8967    1.4412 C   0  0  1  0  0  0  0  0  0  0  0  0
   -2.8960   -2.4419    2.6804 O   0  0  0  0  0  0  0  0  0  0  0  0
   -3.4273   -0.1232    1.4573 C   0  0  0  0  0  0  0  0  0  0  0  0
   -4.0647    0.8036    0.1285 N   0  0  0  0  0  0  0  0  0  0  0  0
   -3.1595    1.5985   -1.0803 C   0  0  0  0  0  0  0  0  0  0  0  0
   -2.2165    2.6138   -0.4531 C   0  0  0  0  0  0  0  0  0  0  0  0
   -2.8788    3.6466    0.2193 O   0  0  0  0  0  0  0  0  0  0  0  0
   -3.6061    2.9964    1.2910 C   0  0  0  0  0  0  0  0  0  0  0  0
   -4.6542    2.0206    0.7168 C   0  0  0  0  0  0  0  0  0  0  0  0
    1.1625   -1.6629    0.0364 C   0  0  0  0  0  0  0  0  0  0  0  0
  1  2  1  0
  2  3  2  0
  3  4  1  0
  5  4  2  0
  5  6  1  0
  7  5  1  0
  8  7  1  0
  9 10  1  0
  9  8  1  0
 10 12  1  0
 10 11  1  1
 13 12  1  0
 13 14  1  0
 13 18  1  0
 15 14  1  0
 15 16  1  0
 17 18  1  0
 17 16  1  0
 19  2  1  0
 19  7  2  0
M  END
>  <DRUGBANK_ID>  (1) 
DB07573

>  <COMMON_NAME>  (1) 
(2S)-1-(2,5-dimethylphenoxy)-3-morpholin-4-ylpropan-2-ol

$$$$
