OHM
     RDKit          3D

 21 21  0  0  0  0  0  0  0  0999 V2000
    0.9974    0.0808   -0.0356 C   0  0  0  0  0  0  0  0  0  0  0  0
    0.5478   -1.3197    0.3476 C   0  0  0  0  0  0  0  0  0  0  0  0
    1.0453   -1.6728    1.7499 C   0  0  0  0  0  0  0  0  0  0  0  0
    0.4962   -0.6972    2.7982 C   0  0  0  0  0  0  0  0  0  0  0  0
   -1.0366   -0.7173    2.8161 C   0  0  0  0  0  0  0  0  0  0  0  0
   -1.5424   -2.1166    3.1747 C   0  0  0  0  0  0  0  0  0  0  0  0
   -1.0142   -2.5328    4.5556 C   0  0  0  0  0  0  0  0  0  0  0  0
   -1.5271   -1.6004    5.6564 C   0  0  0  0  0  0  0  0  0  0  0  0
   -3.0398   -1.5829    5.6949 C   0  0  0  0  0  0  0  0  0  0  0  0
   -3.6002   -2.9818    5.9392 C   0  0  0  0  0  0  0  0  0  0  0  0
   -3.4293   -3.9014    5.1361 O   0  0  0  0  0  0  0  0  0  0  0  0
   -4.4793   -3.1988    7.1234 C   0  0  0  0  0  0  0  0  0  0  0  0
   -5.8541   -3.6874    6.7060 C   0  0  0  0  0  0  0  0  0  0  0  0
   -6.2893   -4.7702    7.1004 O   0  0  0  0  0  0  0  0  0  0  0  0
   -6.6521   -2.9090    5.8953 N   0  0  0  0  0  0  0  0  0  0  0  0
   -6.2860   -1.6314    5.3269 C   0  0  1  0  0  0  0  0  0  0  0  0
   -7.2505   -0.9518    4.3574 C   0  0  0  0  0  0  0  0  0  0  0  0
   -6.8666    0.5272    4.4683 C   0  0  0  0  0  0  0  0  0  0  0  0
   -6.3518    0.6697    5.7920 N   0  0  0  0  0  0  0  0  0  0  0  0
   -6.1595   -0.5405    6.3946 C   0  0  0  0  0  0  0  0  0  0  0  0
   -5.8819   -0.6544    7.5805 O   0  0  0  0  0  0  0  0  0  0  0  0
  1  2  1  0
  2  3  1  0
  3  4  1  0
  4  5  1  0
  5  6  1  0
  6  7  1  0
  7  8  1  0
  8  9  1  0
  9 10  1  0
 10 12  1  0
 10 11  2  0
 12 13  1  0
 13 14  2  0
 13 15  1  0
 16 15  1  1
 16 20  1  0
 16 17  1  0
 17 18  1  0
 18 19  1  0
 19 20  1  0
 20 21  2  0
M  END
>  <DRUGBANK_ID>  (1) 
DB08323

>  <COMMON_NAME>  (1) 
3-OXO-N-[(3S)-2-OXOPYRROLIDIN-3-YL]DODECANAMIDE

$$$$
