578
     RDKit          3D

 26 28  0  0  1  0  0  0  0  0999 V2000
    0.9505   -0.9925   -0.6607 S   0  0  0  0  0  0  0  0  0  0  0  0
   -2.7776    1.2928   -0.6793 O   0  0  0  0  0  0  0  0  0  0  0  0
   -0.5020    3.6598    0.9433 O   0  0  0  0  0  0  0  0  0  0  0  0
    1.1148    2.6491    2.0936 O   0  0  0  0  0  0  0  0  0  0  0  0
   -2.2364   -3.9910   -2.3463 O   0  0  0  0  0  0  0  0  0  0  0  0
   -4.7757   -4.6922    0.8455 O   0  0  0  0  0  0  0  0  0  0  0  0
   -4.0435   -2.6480    1.2366 O   0  0  0  0  0  0  0  0  0  0  0  0
   -0.8264    0.6143    0.3976 N   0  0  0  0  0  0  0  0  0  0  0  0
   -1.9831   -2.0196   -1.3364 N   0  0  0  0  0  0  0  0  0  0  0  0
   -0.5045   -0.7939    0.3686 C   0  0  1  0  0  0  0  0  0  0  0  0
    1.5591    0.6372   -0.0336 C   0  0  0  0  0  0  0  0  0  0  0  0
    0.2648    1.5147    0.0838 C   0  0  2  0  0  0  0  0  0  0  0  0
   -1.8964   -1.0787   -0.1998 C   0  0  1  0  0  0  0  0  0  0  0  0
   -1.9900    0.4522   -0.2857 C   0  0  0  0  0  0  0  0  0  0  0  0
    2.4772    1.1453   -1.1269 C   0  0  0  0  0  0  0  0  0  0  0  0
    2.3453    0.3829    1.2702 C   0  0  0  0  0  0  0  0  0  0  0  0
    0.3642    2.6390    1.1291 C   0  0  0  0  0  0  0  0  0  0  0  0
   -2.2253   -3.3791   -1.2679 C   0  0  0  0  0  0  0  0  0  0  0  0
   -2.5015   -4.1642    0.0678 C   0  0  1  0  0  0  0  0  0  0  0  0
   -1.3099   -4.2079    1.0499 C   0  0  0  0  0  0  0  0  0  0  0  0
   -3.8179   -3.7455    0.7445 C   0  0  0  0  0  0  0  0  0  0  0  0
   -0.4631   -5.3028    1.2433 C   0  0  0  0  0  0  0  0  0  0  0  0
   -1.0134   -3.1114    1.8495 C   0  0  0  0  0  0  0  0  0  0  0  0
    0.6878   -5.1984    2.0654 C   0  0  0  0  0  0  0  0  0  0  0  0
    0.2180   -2.9322    2.4935 C   0  0  0  0  0  0  0  0  0  0  0  0
    1.0739   -3.9872    2.6219 C   0  0  0  0  0  0  0  0  0  0  0  0
 10  1  1  6
  1 11  1  0
  2 14  2  0
  3 17  1  0
  4 17  2  0
  5 18  2  0
  6 21  1  0
  7 21  2  0
  8 10  1  0
  8 12  1  0
  8 14  1  0
  9 18  1  0
 10 13  1  0
 11 12  1  0
 11 15  1  0
 11 16  1  0
 12 17  1  1
 13 14  1  0
 13  9  1  6
 19 18  1  6
 19 20  1  0
 19 21  1  0
 20 22  2  0
 20 23  1  0
 22 24  1  0
 23 25  2  0
 24 26  2  0
 25 26  1  0
M  END
>  <DRUGBANK_ID>  (1) 
DB00578

>  <SECONDARY_ACCESSION_NUMBERS>  (1) 
APRD00846

>  <COMMON_NAME>  (1) 
Carbenicillin

>  <CAS_NUMBER>  (1) 
4697-36-3

>  <UNII>  (1) 
G42ZU72N5G

>  <SYNONYMS>  (1) 
(2S,5R,6R)-6-{[carboxy(phenyl)acetyl]amino}-3,3-dimethyl-7-oxo-4-thia-1-azabicyclo[3.2.0]heptane-2-carboxylic acid; Carbenicilina; Carbenicillin; Carbenicilline; Carbenicillinum; Carboxybenzylpenicillin; CBPC; N-(2-carboxy-3,3-dimethyl-7-oxo-4-thia-1-azabicyclo(3.2.0)hept-6-yl)-2-phenylmalonamic acid; α-carboxybenzylpencillin; α-phenyl(carboxymethylpenicillin)

$$$$
