
     RDKit          3D

 20 30  0  0  0  0  0  0  0  0999 V2000
   -2.7270    0.4300    0.3080 C   0  0  0  0  0  0  0  0  0  0  0  0
   -2.3370   -0.4590   -0.8780 C   0  0  0  0  0  0  0  0  0  0  0  0
   -1.5090    1.2470    0.7450 C   0  0  0  0  0  0  0  0  0  0  0  0
    0.0000   -0.4620    0.0000 Fe  0  0  0  0  0 10  0  0  0  0  0  0
   -1.1580   -1.3470   -0.4690 C   0  0  0  0  0  0  0  0  0  0  0  0
   -0.4390    0.3620    1.0810 C   0  0  0  0  0  0  0  0  0  0  0  0
    1.1570   -1.3470    0.4700 C   0  0  0  0  0  0  0  0  0  0  0  0
    0.4390    0.3620   -1.0820 C   0  0  0  0  0  0  0  0  0  0  0  0
    1.5090    1.2470   -0.7460 C   0  0  0  0  0  0  0  0  0  0  0  0
    2.7270    0.4300   -0.3070 C   0  0  0  0  0  0  0  0  0  0  0  0
    2.3360   -0.4580    0.8780 C   0  0  0  0  0  0  0  0  0  0  0  0
    2.0563    1.5863   -1.2018 O   0  0  0  0  0  0  0  0  0  0  0  0
    1.7176    2.7365   -1.2979 C   0  0  0  0  0  0  0  0  0  0  0  0
    2.4929    3.9782   -0.9888 C   0  0  0  0  0  0  0  0  0  0  0  0
    1.7286    5.0284   -1.2455 C   0  0  0  0  0  0  0  0  0  0  0  0
    0.3979    4.5584   -1.7316 C   0  0  0  0  0  0  0  0  0  0  0  0
   -0.5672    5.2240   -2.0309 O   0  0  0  0  0  0  0  0  0  0  0  0
    0.4620    3.1682   -1.7505 N   0  0  0  0  0  0  0  0  0  0  0  0
   -0.6537    2.3075   -2.1692 C   0  0  0  0  0  0  0  0  0  0  0  0
   -0.1482    0.8897   -2.3809 C   0  0  0  0  0  0  0  0  0  0  0  0
  1  3  1  0
  2  1  1  0
  2  5  1  0
  3  4  1  0
  4  1  1  0
  4  2  1  0
  4  6  1  0
  4  7  1  0
  4  8  1  0
  4  9  1  0
  5  4  1  0
  5  6  1  0
  6  3  1  0
  7 11  1  0
  8  7  1  0
  8  9  1  0
  9 10  1  0
 10  4  1  0
 10 11  1  0
 11  4  1  0
 12 13  2  0
 13 14  1  0
 13 18  1  0
 14 15  2  0
 15 16  1  0
 16 17  2  0
 16 18  1  0
 18 19  1  0
 19 20  1  0
 20  8  1  0
M  END
>  <DRUGBANK_ID>  (1) 
DB01703

>  <SECONDARY_ACCESSION_NUMBERS>  (1) 
EXPT01419

>  <COMMON_NAME>  (1) 
N-(2-ferrocenylethyl)maleimide

$$$$
