177
     RDKit          3D

 33 35  0  0  0  0  0  0  0  0999 V2000
   -2.3799   -0.7476   -2.2925 C   0  0  0  0  0  0  0  0  0  0  0  0
   -2.2096   -1.7312   -3.4716 C   0  0  0  0  0  0  0  0  0  0  0  0
   -2.5969   -1.7012   -1.1654 C   0  0  0  0  0  0  0  0  0  0  0  0
   -1.3919   -3.0192   -3.1485 C   0  0  0  0  0  0  0  0  0  0  0  0
   -1.7729   -2.8924   -0.8310 C   0  0  0  0  0  0  0  0  0  0  0  0
   -1.8921   -3.8210   -1.9591 C   0  0  0  0  0  0  0  0  0  0  0  0
   -1.1803    0.7097   -0.2901 C   0  0  0  0  0  0  0  0  0  0  0  0
   -0.2679    0.0858    0.2830 O   0  0  0  0  0  0  0  0  0  0  0  0
   -1.7311    1.6898   -2.5196 N   0  0  0  0  0  0  0  0  0  0  0  0
   -1.3941    0.4041   -1.8706 C   0  0  2  0  0  0  0  0  0  0  0  0
   -1.9892    1.5788    0.4572 N   0  0  0  0  0  0  0  0  0  0  0  0
   -3.2442    2.2363    0.1355 C   0  0  0  0  0  0  0  0  0  0  0  0
   -1.4627    2.1833    1.7048 C   0  0  1  0  0  0  0  0  0  0  0  0
   -2.1559    3.5523    1.8255 C   0  0  0  0  0  0  0  0  0  0  0  0
   -3.0516    3.6605    0.5878 C   0  0  0  0  0  0  0  0  0  0  0  0
   -1.5784    1.3845    3.0237 C   0  0  0  0  0  0  0  0  0  0  0  0
   -0.5297    0.8854    3.5138 O   0  0  0  0  0  0  0  0  0  0  0  0
   -2.7412    1.1846    3.7178 N   0  0  0  0  0  0  0  0  0  0  0  0
   -4.0769    1.7554    3.5496 C   0  0  0  0  0  0  0  0  0  0  0  0
   -5.2264    0.7883    3.4072 C   0  0  0  0  0  0  0  0  0  0  0  0
   -5.2745   -0.0771    2.3374 C   0  0  0  0  0  0  0  0  0  0  0  0
   -6.3575   -0.9054    2.0129 C   0  0  0  0  0  0  0  0  0  0  0  0
   -7.4414   -0.9272    2.8165 C   0  0  0  0  0  0  0  0  0  0  0  0
   -7.4495   -0.0500    3.8845 C   0  0  0  0  0  0  0  0  0  0  0  0
   -6.3735    0.8185    4.1697 C   0  0  0  0  0  0  0  0  0  0  0  0
   -8.8455   -0.0293    4.8662 Cl  0  0  0  0  0  0  0  0  0  0  0  0
   -4.1577   -0.0373    1.6081 O   0  0  0  0  0  0  0  0  0  0  0  0
   -4.3383   -0.7835    0.4686 C   0  0  0  0  0  0  0  0  0  0  0  0
   -4.0917   -2.2808    0.9171 C   0  0  0  0  0  0  0  0  0  0  0  0
   -4.7814   -3.1858    0.4615 O   0  0  0  0  0  0  0  0  0  0  0  0
   -3.1041   -2.6187    1.8216 N   0  0  0  0  0  0  0  0  0  0  0  0
   -1.8930   -1.8906    2.1875 C   0  0  0  0  0  0  0  0  0  0  0  0
   -1.7776   -1.8630    3.6840 C   0  0  0  0  0  0  0  0  0  0  0  0
  1  2  1  0
  1  3  1  0
  2  4  1  0
  3  5  1  0
  4  6  1  0
  5  6  1  0
  7  8  2  0
  7 11  1  0
 10  9  1  6
 10  7  1  0
 10  1  1  0
 11 12  1  0
 11 13  1  0
 12 15  1  0
 13 14  1  0
 13 16  1  1
 14 15  1  0
 16 17  2  0
 16 18  1  0
 18 19  1  0
 19 20  1  0
 20 21  2  0
 20 25  1  0
 21 22  1  0
 21 27  1  0
 22 23  2  0
 23 24  1  0
 24 25  2  0
 24 26  1  0
 27 28  1  0
 28 29  1  0
 29 30  2  0
 29 31  1  0
 31 32  1  0
 32 33  1  0
M  END
>  <DRUGBANK_ID>  (1) 
DB06869

>  <COMMON_NAME>  (1) 
1-[2-AMINO-2-CYCLOHEXYL-ACETYL]-PYRROLIDINE-3-CARBOXYLIC ACID 5-CHLORO-2-(2-ETHYLCARBAMOYL-ETHOXY)-BENZYLAMIDE

$$$$
