
     RDKit          3D

 14 14  0  0  0  0  0  0  0  0999 V2000
    0.7554   -0.0692    0.3508 C   0  0  0  0  0  0  0  0  0  0  0  0
   -0.0647   -0.8678   -0.5085 O   0  0  0  0  0  0  0  0  0  0  0  0
    0.2880   -0.8416   -1.8864 C   0  0  0  0  0  0  0  0  0  0  0  0
    0.1822    0.3705   -2.7902 C   0  0  0  0  0  0  0  0  0  0  0  0
    1.0445    1.4938   -2.2435 C   0  0  0  0  0  0  0  0  0  0  0  0
    2.5050    1.2580   -2.0952 N   0  0  0  0  0  0  0  0  0  0  0  0
    3.2576    2.4367   -1.9935 C   0  0  0  0  0  0  0  0  0  0  0  0
    4.5682    2.0697   -1.9586 C   0  0  0  0  0  0  0  0  0  0  0  0
    4.6783    0.7272   -1.9712 N   0  0  0  0  0  0  0  0  0  0  0  0
    3.4676    0.1969   -2.0457 C   0  0  0  0  0  0  0  0  0  0  0  0
    3.5208   -1.3333   -2.0571 N   0  0  0  0  0  0  0  0  0  0  0  0
    4.6706   -1.8133   -1.9775 O   0  0  0  0  0  0  0  0  0  0  0  0
    2.5557   -2.0791   -2.1626 O   0  0  0  0  0  0  0  0  0  0  0  0
    0.6815    0.0890   -4.1138 O   0  0  0  0  0  0  0  0  0  0  0  0
  1  2  1  0
  2  3  1  0
  3  4  1  0
  4  5  1  0
  4 14  1  0
  5  6  1  0
  6  7  1  0
  6 10  1  0
  7  8  2  0
  8  9  1  0
  9 10  2  0
 10 11  1  0
 11 12  2  0
 11 13  1  0
M  CHG  2  11   1  13  -1
M  END
>  <DRUGBANK_ID>  (1) 
DB11716

>  <COMMON_NAME>  (1) 
Misonidazole

>  <CAS_NUMBER>  (1) 
13551-87-6

>  <UNII>  (1) 
8FE7LTN8XE

>  <SYNONYMS>  (1) 
Misonidazole

$$$$
