
     RDKit          3D

 21 23  0  0  0  0  0  0  0  0999 V2000
   -1.5314    0.0786   -0.1861 C   0  0  0  0  0  0  0  0  0  0  0  0
   -0.7115    1.3036    0.2444 C   0  0  0  0  0  0  0  0  0  0  0  0
    0.7594    1.2204   -0.2030 C   0  0  0  0  0  0  0  0  0  0  0  0
    1.3448   -0.0730    0.1756 N   0  0  0  0  0  0  0  0  0  0  0  0
    0.5833   -1.1585   -0.4242 C   0  0  0  0  0  0  0  0  0  0  0  0
   -0.8089   -1.2095    0.1838 C   0  0  0  0  0  0  0  0  0  0  0  0
    2.4270   -0.1060    1.0520 C   0  0  0  0  0  0  0  0  0  0  0  0
    2.9486    0.9297    1.4645 O   0  0  0  0  0  0  0  0  0  0  0  0
    3.0665   -1.3872    1.5402 C   0  0  0  0  0  0  0  0  0  0  0  0
    2.6904   -2.6474    1.3312 C   0  0  0  0  0  0  0  0  0  0  0  0
    3.2811   -3.8924    1.7252 C   0  0  0  0  0  0  0  0  0  0  0  0
    2.7236   -5.0465    1.3069 C   0  0  0  0  0  0  0  0  0  0  0  0
    3.2402   -6.3347    1.7470 C   0  0  0  0  0  0  0  0  0  0  0  0
    3.5257   -6.5052    3.1052 C   0  0  0  0  0  0  0  0  0  0  0  0
    4.1235   -7.6749    3.4905 C   0  0  0  0  0  0  0  0  0  0  0  0
    4.4044   -8.6745    2.5916 C   0  0  0  0  0  0  0  0  0  0  0  0
    4.0714   -8.5686    1.2568 C   0  0  0  0  0  0  0  0  0  0  0  0
    3.4665   -7.3815    0.8299 C   0  0  0  0  0  0  0  0  0  0  0  0
    5.0322   -9.7255    3.1831 O   0  0  0  0  0  0  0  0  0  0  0  0
    5.1783   -9.2290    4.5322 C   0  0  0  0  0  0  0  0  0  0  0  0
    4.5230   -7.9669    4.7538 O   0  0  0  0  0  0  0  0  0  0  0  0
  1  2  1  0
  1  6  1  0
  2  3  1  0
  3  4  1  0
  4  5  1  0
  4  7  1  0
  5  6  1  0
  7  8  2  0
  7  9  1  0
  9 10  2  0
 10 11  1  0
 11 12  2  0
 12 13  1  0
 13 14  2  0
 13 18  1  0
 14 15  1  0
 15 16  2  0
 15 21  1  0
 16 17  1  0
 16 19  1  0
 17 18  2  0
 19 20  1  0
 20 21  1  0
M  END
>  <DRUGBANK_ID>  (1) 
DB12582

>  <COMMON_NAME>  (1) 
Piperine

>  <CAS_NUMBER>  (1) 
94-62-2

>  <UNII>  (1) 
U71XL721QK

>  <SYNONYMS>  (1) 
Bioperine

$$$$
