
     RDKit          3D

 26 26  0  0  0  0  0  0  0  0999 V2000
    1.1045   -0.0387   -0.0416 N   0  0  0  0  0  0  0  0  0  0  0  0
    0.6385    0.7179    1.2139 C   0  0  0  0  0  0  0  0  0  0  0  0
    1.1376    2.1660    1.2892 C   0  0  0  0  0  0  0  0  0  0  0  0
    0.5277    0.5625   -1.3400 C   0  0  0  0  0  0  0  0  0  0  0  0
    0.5942    3.1044    0.2152 C   0  0  0  0  0  0  0  0  0  0  0  0
    0.6105   -1.4678    0.1000 C   0  0  0  0  0  0  0  0  0  0  0  0
    2.6278   -0.0326   -0.0824 C   0  0  0  0  0  0  0  0  0  0  0  0
   -0.9339    2.9937    0.1461 C   0  0  0  0  0  0  0  0  0  0  0  0
   -1.4904    3.6181    1.4164 C   0  0  0  0  0  0  0  0  0  0  0  0
   -1.0068    5.0675    1.4882 C   0  0  0  0  0  0  0  0  0  0  0  0
   -1.4773    5.8110    0.2311 C   0  0  0  0  0  0  0  0  0  0  0  0
    0.9517    0.0070   -2.6492 C   0  0  0  0  0  0  0  0  0  0  0  0
   -3.0066    5.7921    0.2043 C   0  0  0  0  0  0  0  0  0  0  0  0
   -3.5258    6.4412    1.4907 C   0  0  0  0  0  0  0  0  0  0  0  0
   -3.0016    7.8787    1.5763 C   0  0  0  0  0  0  0  0  0  0  0  0
   -3.5013    8.6737    0.3673 C   0  0  0  0  0  0  0  0  0  0  0  0
   -5.0324    8.6781    0.3525 C   0  0  0  0  0  0  0  0  0  0  0  0
    1.7307    0.7862   -3.5294 C   0  0  0  0  0  0  0  0  0  0  0  0
    0.6103   -1.2969   -2.9957 C   0  0  0  0  0  0  0  0  0  0  0  0
   -5.5703    9.3247    1.6337 C   0  0  0  0  0  0  0  0  0  0  0  0
   -5.1057   10.7807    1.7456 C   0  0  0  0  0  0  0  0  0  0  0  0
    2.2311    0.2235   -4.6828 C   0  0  0  0  0  0  0  0  0  0  0  0
    1.2241   -1.8923   -4.0671 C   0  0  0  0  0  0  0  0  0  0  0  0
   -5.5705   11.6101    0.5478 C   0  0  0  0  0  0  0  0  0  0  0  0
    2.0112   -1.1331   -4.9339 C   0  0  0  0  0  0  0  0  0  0  0  0
   -7.0880   11.6151    0.4594 C   0  0  0  0  0  0  0  0  0  0  0  0
  1  2  1  0
  1  4  1  0
  1  6  1  0
  1  7  1  0
  2  3  1  0
  3  5  1  0
  4 12  1  0
  5  8  1  0
  8  9  1  0
  9 10  1  0
 10 11  1  0
 11 13  1  0
 12 18  2  0
 12 19  1  0
 13 14  1  0
 14 15  1  0
 15 16  1  0
 16 17  1  0
 17 20  1  0
 18 22  1  0
 19 23  2  0
 20 21  1  0
 21 24  1  0
 22 25  2  0
 23 25  1  0
 24 26  1  0
M  CHG  1   1   1
M  END
>  <DRUGBANK_ID>  (1) 
DB11583

>  <COMMON_NAME>  (1) 
Cetalkonium

>  <CAS_NUMBER>  (1) 
10328-34-4

>  <UNII>  (1) 
FHG725432Z

>  <SYNONYMS>  (1) 
Benzylhexadecyldimethylammonium; Cetalkonium cation; Cetalkonium ion

$$$$
