
     RDKit          3D

 29 31  0  0  0  0  0  0  0  0999 V2000
    0.8707   -0.0192    0.1253 C   0  0  0  0  0  0  0  0  0  0  0  0
    0.4625    1.2372   -0.6060 C   0  0  0  0  0  0  0  0  0  0  0  0
    0.9664    1.1335   -1.9490 O   0  0  0  0  0  0  0  0  0  0  0  0
    2.2738    1.4823   -2.1170 C   0  0  0  0  0  0  0  0  0  0  0  0
    2.9566    1.9162   -1.1890 O   0  0  0  0  0  0  0  0  0  0  0  0
    2.7312    1.4138   -3.5112 C   0  0  0  0  0  0  0  0  0  0  0  0
    2.2075    2.2146   -4.5245 C   0  0  0  0  0  0  0  0  0  0  0  0
    2.9621    2.0053   -5.6652 N   0  0  0  0  0  0  0  0  0  0  0  0
    3.9174    1.0289   -5.4410 C   0  0  0  0  0  0  0  0  0  0  0  0
    3.7866    0.6221   -4.1042 C   0  0  0  0  0  0  0  0  0  0  0  0
    4.6613   -0.3963   -3.6118 C   0  0  0  0  0  0  0  0  0  0  0  0
    5.6188   -0.9504   -4.4890 C   0  0  0  0  0  0  0  0  0  0  0  0
    5.7294   -0.5202   -5.8066 C   0  0  0  0  0  0  0  0  0  0  0  0
    4.8890    0.4764   -6.3029 C   0  0  0  0  0  0  0  0  0  0  0  0
    7.0272   -1.2801   -6.9664 Br  0  0  0  0  0  0  0  0  0  0  0  0
    6.4565   -1.9222   -3.9948 O   0  0  0  0  0  0  0  0  0  0  0  0
    4.6306   -0.8529   -2.1688 C   0  0  0  0  0  0  0  0  0  0  0  0
    4.9668    0.2283   -1.2493 N   0  0  0  0  0  0  0  0  0  0  0  0
    4.8146   -0.1570    0.1408 C   0  0  0  0  0  0  0  0  0  0  0  0
    6.2498    0.8605   -1.4989 C   0  0  0  0  0  0  0  0  0  0  0  0
    2.7812    2.7099   -6.9212 C   0  0  0  0  0  0  0  0  0  0  0  0
    1.1068    3.2284   -4.4238 C   0  0  0  0  0  0  0  0  0  0  0  0
   -0.5443    2.5296   -3.9920 S   0  0  0  0  0  0  0  0  0  0  0  0
   -0.7047    1.2097   -5.1770 C   0  0  0  0  0  0  0  0  0  0  0  0
   -0.7510   -0.1451   -4.8199 C   0  0  0  0  0  0  0  0  0  0  0  0
   -0.7372   -1.1291   -5.8170 C   0  0  0  0  0  0  0  0  0  0  0  0
   -0.8127   -0.7604   -7.1593 C   0  0  0  0  0  0  0  0  0  0  0  0
   -0.9299    0.5833   -7.5019 C   0  0  0  0  0  0  0  0  0  0  0  0
   -0.8259    1.5618   -6.5186 C   0  0  0  0  0  0  0  0  0  0  0  0
  1  2  1  0
  2  3  1  0
  3  4  1  0
  4  5  2  0
  4  6  1  0
  6  7  2  0
  6 10  1  0
  7  8  1  0
  7 22  1  0
  8  9  1  0
  8 21  1  0
  9 10  2  0
  9 14  1  0
 10 11  1  0
 11 12  2  0
 11 17  1  0
 12 13  1  0
 12 16  1  0
 13 14  2  0
 13 15  1  0
 17 18  1  0
 18 19  1  0
 18 20  1  0
 22 23  1  0
 23 24  1  0
 24 25  2  0
 24 29  1  0
 25 26  1  0
 26 27  2  0
 27 28  1  0
 28 29  2  0
M  END
>  <DRUGBANK_ID>  (1) 
DB13609

>  <COMMON_NAME>  (1) 
Umifenovir

>  <CAS_NUMBER>  (1) 
131707-25-0

>  <UNII>  (1) 
93M09WW4RU

>  <SYNONYMS>  (1) 
Umifenovir

$$$$
