XE4
     RDKit          3D

 29 31  0  0  0  0  0  0  0  0999 V2000
    1.4199    0.5332   -0.8639 C   0  0  0  0  0  0  0  0  0  0  0  0
    1.4667   -0.9485   -0.5011 C   0  0  2  0  0  0  0  0  0  0  0  0
    0.0786   -1.5831   -0.5262 C   0  0  0  0  0  0  0  0  0  0  0  0
   -0.9314   -0.8169    0.3312 C   0  0  1  0  0  0  0  0  0  0  0  0
   -0.9680    0.6513   -0.0448 C   0  0  0  0  0  0  0  0  0  0  0  0
    0.3639    1.2744   -0.0663 C   0  0  0  0  0  0  0  0  0  0  0  0
    0.7116    2.4001    0.5902 C   0  0  0  0  0  0  0  0  0  0  0  0
   -0.2570    3.2599    1.2289 C   0  0  0  0  0  0  0  0  0  0  0  0
   -0.3549    4.6036    1.3106 C   0  0  0  0  0  0  0  0  0  0  0  0
   -2.1097    1.3221   -0.2920 C   0  0  0  0  0  0  0  0  0  0  0  0
    2.0747   -1.1248    0.7793 O   0  0  0  0  0  0  0  0  0  0  0  0
   -2.2117   -1.4241    0.1727 O   0  0  0  0  0  0  0  0  0  0  0  0
    0.6900    5.6973    1.4718 C   0  0  2  0  0  0  0  0  0  0  0  0
    0.4160    7.0676    0.6906 C   0  0  2  0  0  0  0  0  0  0  0  0
   -0.5454    6.8062   -0.5049 C   0  0  0  0  0  0  0  0  0  0  0  0
   -1.9084    6.1994    0.0557 C   0  0  0  0  0  0  0  0  0  0  0  0
   -1.7634    5.1143    1.1494 C   0  0  0  0  0  0  0  0  0  0  0  0
    2.1090    5.2109    1.1059 C   0  0  0  0  0  0  0  0  0  0  0  0
    2.8155    6.2763    0.3219 C   0  0  0  0  0  0  0  0  0  0  0  0
    1.8790    7.5005    0.2709 C   0  0  2  0  0  0  0  0  0  0  0  0
    2.5989    8.6284    0.8967 C   0  0  0  0  0  0  0  0  0  0  0  0
    3.4638    9.4907    0.9883 C   0  0  0  0  0  0  0  0  0  0  0  0
    4.6742   10.4543    0.8577 C   0  0  0  0  0  0  0  0  0  0  0  0
    5.7190   11.2311    0.9283 C   0  0  0  0  0  0  0  0  0  0  0  0
    6.9369   12.1368    1.0105 C   0  0  0  0  0  0  0  0  0  0  0  0
    7.2762   12.6609   -0.3830 C   0  0  0  0  0  0  0  0  0  0  0  0
    6.6578   13.2321    1.8724 O   0  0  0  0  0  0  0  0  0  0  0  0
    8.1164   11.3523    1.5761 C   0  0  0  0  0  0  0  0  0  0  0  0
   -0.4850    8.2366    1.2658 C   0  0  0  0  0  0  0  0  0  0  0  0
  1  2  1  0
  1  6  1  0
  2  3  1  0
  2 11  1  1
  3  4  1  0
  4  5  1  0
  4 12  1  6
  5  6  1  0
  5 10  2  0
  6  7  2  0
  7  8  1  0
  8  9  2  0
  9 13  1  0
  9 17  1  0
 13 14  1  0
 13 18  1  6
 14 15  1  0
 14 20  1  0
 14 29  1  1
 15 16  1  0
 16 17  1  0
 18 19  1  0
 19 20  1  0
 20 21  1  1
 21 22  3  0
 22 23  1  0
 23 24  3  0
 24 25  1  0
 25 26  1  0
 25 27  1  0
 25 28  1  0
M  END
>  <DRUGBANK_ID>  (1) 
DB08742

>  <COMMON_NAME>  (1) 
1,3-CYCLOHEXANEDIOL, 4-METHYLENE-5-[(2E)-[(1S,3AS,7AS)-OCTAHYDRO-1-(5-HYDROXY-5-METHYL-1,3-HEXADIYNYL)-7A-METHYL-4H-INDEN-4-YLIDENE]ETHYLIDENE]-, (1R,3S,5Z)

$$$$
