
     RDKit          3D

 29 32  0  0  0  0  0  0  0  0999 V2000
   -1.7811    0.5013   -0.0064 C   0  0  0  0  0  0  0  0  0  0  0  0
   -0.3617    0.3290   -0.0024 C   0  0  0  0  0  0  0  0  0  0  0  0
    0.6554    1.2385   -0.0060 N   0  0  0  0  0  0  0  0  0  0  0  0
    1.8985    0.7006   -0.0010 C   0  0  0  0  0  0  0  0  0  0  0  0
    2.1118   -0.6998   -0.0034 C   0  0  0  0  0  0  0  0  0  0  0  0
    1.1152   -1.6047   -0.0094 N   0  0  0  0  0  0  0  0  0  0  0  0
   -0.1064   -1.0383    0.0019 C   0  0  0  0  0  0  0  0  0  0  0  0
   -1.3077   -1.6960    0.0297 N   0  0  0  0  0  0  0  0  0  0  0  0
   -2.3440   -0.7790   -0.0065 C   0  0  0  0  0  0  0  0  0  0  0  0
   -3.7295   -0.9797   -0.0092 C   0  0  0  0  0  0  0  0  0  0  0  0
   -4.5790    0.1227   -0.0064 C   0  0  0  0  0  0  0  0  0  0  0  0
   -4.0451    1.4035   -0.0050 C   0  0  0  0  0  0  0  0  0  0  0  0
   -2.6577    1.6121   -0.0067 C   0  0  0  0  0  0  0  0  0  0  0  0
   -5.1173    2.7519    0.0006 Cl  0  0  0  0  0  0  0  0  0  0  0  0
   -1.4835   -3.1417    0.0960 C   0  0  0  0  0  0  0  0  0  0  0  0
   -2.1662   -3.5581    1.4014 C   0  0  0  0  0  0  0  0  0  0  0  0
   -3.3190   -4.2964    1.2232 N   0  0  0  0  0  0  0  0  0  0  0  0
   -4.2290   -4.6968    2.2972 C   0  0  0  0  0  0  0  0  0  0  0  0
   -5.6420   -4.0533    2.2190 C   0  0  0  0  0  0  0  0  0  0  0  0
   -6.4877   -4.4652    1.0664 N   0  0  0  0  0  0  0  0  0  0  0  0
   -7.8041   -3.8187    1.1530 C   0  0  0  0  0  0  0  0  0  0  0  0
   -5.9230   -4.0980   -0.2251 C   0  0  0  0  0  0  0  0  0  0  0  0
   -1.7516   -3.2377    2.5044 O   0  0  0  0  0  0  0  0  0  0  0  0
    3.0297    1.5317    0.0015 C   0  0  0  0  0  0  0  0  0  0  0  0
    4.3587    1.0404   -0.0012 C   0  0  0  0  0  0  0  0  0  0  0  0
    4.5490   -0.3438   -0.0003 C   0  0  0  0  0  0  0  0  0  0  0  0
    3.4151   -1.1794   -0.0010 C   0  0  0  0  0  0  0  0  0  0  0  0
    5.5036    2.0212   -0.0066 C   0  0  0  0  0  0  0  0  0  0  0  0
    5.8945   -1.0159    0.0018 C   0  0  0  0  0  0  0  0  0  0  0  0
  1  2  1  0
  2  7  2  0
  3  4  2  0
  3  2  1  0
  4 24  1  0
  5  4  1  0
  5 27  1  0
  6  5  2  0
  7  6  1  0
  7  8  1  0
  8 15  1  0
  9  1  2  0
  9  8  1  0
 10  9  1  0
 11 10  2  0
 12 11  1  0
 12 14  1  0
 13 12  2  0
 13  1  1  0
 15 16  1  0
 16 17  1  0
 16 23  2  0
 17 18  1  0
 18 19  1  0
 19 20  1  0
 20 21  1  0
 20 22  1  0
 25 24  2  0
 25 28  1  0
 26 25  1  0
 26 29  1  0
 27 26  2  0
M  END
>  <DRUGBANK_ID>  (1) 
DB05772

>  <COMMON_NAME>  (1) 
Rabeximod

>  <CAS_NUMBER>  (1) 
872178-65-9

>  <UNII>  (1) 
J4D3K58W3Z

>  <SYNONYMS>  (1) 
Rabeximod

$$$$
