
     RDKit          3D

 19 21  0  0  1  0  0  0  0  0999 V2000
    1.0024   -0.2083   -0.1046 N   0  0  0  0  0  0  0  0  0  0  0  0
    0.3579    0.4075   -1.1754 C   0  0  0  0  0  0  0  0  0  0  0  0
    0.7705    0.1059   -2.4267 N   0  0  0  0  0  0  0  0  0  0  0  0
    0.0779    0.6057   -3.4731 C   0  0  0  0  0  0  0  0  0  0  0  0
   -0.9750    1.4520   -3.4519 N   0  0  0  0  0  0  0  0  0  0  0  0
   -1.3022    1.7744   -2.1938 C   0  0  0  0  0  0  0  0  0  0  0  0
   -0.7095    1.3114   -1.0227 C   0  0  0  0  0  0  0  0  0  0  0  0
   -1.2997    1.8836    0.0846 N   0  0  0  0  0  0  0  0  0  0  0  0
   -2.2175    2.6976   -0.4029 C   0  0  0  0  0  0  0  0  0  0  0  0
   -2.2647    2.6518   -1.7714 N   0  0  0  0  0  0  0  0  0  0  0  0
   -3.0949    3.4970   -2.6054 C   0  0  2  0  0  0  0  0  0  0  0  0
   -4.0078    2.6886   -3.3653 O   0  0  0  0  0  0  0  0  0  0  0  0
   -3.9980    3.1399   -4.7398 C   0  0  2  0  0  0  0  0  0  0  0  0
   -3.3951    2.0542   -5.6315 C   0  0  0  0  0  0  0  0  0  0  0  0
   -3.2274    4.4657   -4.7735 C   0  0  1  0  0  0  0  0  0  0  0  0
   -4.0980    5.5960   -4.5997 O   0  0  0  0  0  0  0  0  0  0  0  0
   -2.2997    4.3716   -3.5718 C   0  0  1  0  0  0  0  0  0  0  0  0
   -1.9815    5.6364   -2.9901 O   0  0  0  0  0  0  0  0  0  0  0  0
   -4.1403    1.9688   -6.7710 F   0  0  0  0  0  0  0  0  0  0  0  0
  1  2  1  0
  2  3  2  0
  2  7  1  0
  3  4  1  0
  4  5  2  0
  5  6  1  0
  6  7  2  0
  6 10  1  0
  7  8  1  0
  8  9  2  0
  9 10  1  0
 11 10  1  6
 11 12  1  0
 11 17  1  0
 12 13  1  0
 13 15  1  0
 13 14  1  6
 14 19  1  0
 15 16  1  1
 15 17  1  0
 17 18  1  1
M  END
>  <DRUGBANK_ID>  (1) 
DB03716

>  <SECONDARY_ACCESSION_NUMBERS>  (1) 
EXPT00245

>  <COMMON_NAME>  (1) 
5'-Fluoro-5'-Deoxyadenosine

>  <UNII>  (1) 
8LJ6NC6D44

$$$$
