
     RDKit          3D

 24 25  0  0  0  0  0  0  0  0999 V2000
    0.9526   -0.0309    0.0907 C   0  0  0  0  0  0  0  0  0  0  0  0
    0.5021    0.8765   -1.0451 C   0  0  0  0  0  0  0  0  0  0  0  0
    1.0880    0.4307   -2.3743 C   0  0  0  0  0  0  0  0  0  0  0  0
   -1.8306   -4.7208   -1.2606 C   0  0  0  0  0  0  0  0  0  0  0  0
   -3.5910    1.3035   -8.3167 C   0  0  0  0  0  0  0  0  0  0  0  0
   -2.5004   -3.4318   -1.0435 C   0  0  0  0  0  0  0  0  0  0  0  0
   -1.8422   -5.3190   -2.5875 C   0  0  0  0  0  0  0  0  0  0  0  0
   -2.3756    1.5693   -7.6999 C   0  0  0  0  0  0  0  0  0  0  0  0
   -4.4822    0.4157   -7.7166 C   0  0  0  0  0  0  0  0  0  0  0  0
   -3.1483   -2.7010   -2.1611 C   0  0  0  0  0  0  0  0  0  0  0  0
   -2.4746   -4.5906   -3.7055 C   0  0  0  0  0  0  0  0  0  0  0  0
   -2.0531    0.9257   -6.4919 C   0  0  0  0  0  0  0  0  0  0  0  0
   -4.1790   -0.1839   -6.4851 C   0  0  0  0  0  0  0  0  0  0  0  0
    0.6774   -0.9416   -2.7290 C   0  0  0  0  0  0  0  0  0  0  0  0
   -3.0888   -3.2184   -3.5237 C   0  0  0  0  0  0  0  0  0  0  0  0
   -2.9393   -0.0040   -5.8782 C   0  0  0  0  0  0  0  0  0  0  0  0
   -0.8085   -1.0761   -2.9449 C   0  0  0  0  0  0  0  0  0  0  0  0
   -1.5973   -0.2074   -3.8552 C   0  0  0  0  0  0  0  0  0  0  0  0
   -0.6080   -2.4451   -3.4083 C   0  0  0  0  0  0  0  0  0  0  0  0
   -2.9766   -2.2573   -4.7126 N   0  0  0  0  0  0  0  0  0  0  0  0
   -2.6095   -0.7630   -4.6661 N   0  0  0  0  0  0  0  0  0  0  0  0
   -1.4304    1.0168   -3.7746 O   0  0  0  0  0  0  0  0  0  0  0  0
   -0.4635   -3.2948   -2.6354 O   0  0  0  0  0  0  0  0  0  0  0  0
   -0.3128   -2.6256   -4.7143 O   0  0  0  0  0  0  0  0  0  0  0  0
  2  1  1  0
  3  2  1  0
  6  4  2  0
  7  4  1  0
  8  5  2  0
  9  5  1  0
 10  6  1  0
 11  7  2  0
 12  8  1  0
 13  9  2  0
 14  3  1  0
 15 10  2  0
 15 11  1  0
 16 12  2  0
 16 13  1  0
 17 14  1  0
 18 17  1  0
 19 17  1  0
 20 15  1  0
 21 16  1  0
 21 18  1  0
 21 20  1  0
 22 18  2  0
 23 19  2  0
 24 19  1  0
M  END
>  <DRUGBANK_ID>  (1) 
DB13286

>  <COMMON_NAME>  (1) 
Bumadizone

>  <CAS_NUMBER>  (1) 
3583-64-0

>  <UNII>  (1) 
ATD81G944M

>  <SYNONYMS>  (1) 
bumadizona; Bumadizone

$$$$
