
     RDKit          3D

 15 16  0  0  0  0  0  0  0  0999 V2000
    1.0630   -1.4343   -0.0174 C   0  0  0  0  0  0  0  0  0  0  0  0
    2.4222   -1.0841   -0.0082 C   0  0  0  0  0  0  0  0  0  0  0  0
   -1.3664   -0.7624    0.0034 C   0  0  0  0  0  0  0  0  0  0  0  0
   -2.3019    0.2842   -0.0101 C   0  0  0  0  0  0  0  0  0  0  0  0
   -1.8931    1.6130   -0.0104 C   0  0  0  0  0  0  0  0  0  0  0  0
   -0.5363    1.9177    0.0017 C   0  0  0  0  0  0  0  0  0  0  0  0
    0.4309    0.9037    0.0040 C   0  0  0  0  0  0  0  0  0  0  0  0
    1.7939    1.2484    0.0135 C   0  0  0  0  0  0  0  0  0  0  0  0
    2.7794    0.2595    0.0130 C   0  0  0  0  0  0  0  0  0  0  0  0
    0.0302   -0.4600   -0.0049 C   0  0  0  0  0  0  0  0  0  0  0  0
   -1.8622   -2.0636   -0.0374 N   0  0  0  0  0  0  0  0  0  0  0  0
    4.4774    0.7655    0.0491 S   0  0  0  0  0  0  0  0  0  0  0  0
    4.7695    1.4379   -1.1998 O   0  0  0  0  0  0  0  0  0  0  0  0
    4.7263    1.4032    1.3211 O   0  0  0  0  0  0  0  0  0  0  0  0
    5.3569   -0.5885    0.0450 O   0  0  0  0  0  0  0  0  0  0  0  0
  1 10  2  0
  2  1  1  0
  3  4  2  0
  3 10  1  0
  4  5  1  0
  5  6  2  0
  6  7  1  0
  7  8  2  0
  7 10  1  0
  8  9  1  0
  9  2  2  0
  9 12  1  0
 11  3  1  0
 12 13  2  0
 12 14  2  0
 12 15  1  0
M  END
>  <DRUGBANK_ID>  (1) 
DB08238

>  <COMMON_NAME>  (1) 
5-aminonaphthalene-2-sulfonic acid

>  <CAS_NUMBER>  (1) 
119-79-9

>  <UNII>  (1) 
59G56TB11B

>  <SYNONYMS>  (1) 
1-naphthylamine-6-sulfonic acid; 1,6-Cleve's acid; 5-aminonaphthalene-2-sulphonic acid; 5-naphthylamine-2-sulfonic acid; Cleve's β-acid; α-naphthylamine-6-sulfonic acid

$$$$
