FXG
     RDKit          3D

 31 33  0  0  0  0  0  0  0  0999 V2000
    1.0481    0.0558    0.0380 O   0  0  0  0  0  0  0  0  0  0  0  0
    2.2754    0.0044   -0.0428 C   0  0  0  0  0  0  0  0  0  0  0  0
    3.1064    0.7982    0.9380 C   0  0  0  0  0  0  0  0  0  0  0  0
    3.9720   -0.0887    1.8280 C   0  0  0  0  0  0  0  0  0  0  0  0
    5.0852   -0.8168    1.0722 C   0  0  0  0  0  0  0  0  0  0  0  0
    5.9883    0.1594    0.3000 C   0  0  0  0  0  0  0  0  0  0  0  0
    6.7508    1.0864    1.2538 C   0  0  0  0  0  0  0  0  0  0  0  0
    7.5442    0.3205    2.2044 N   0  0  0  0  0  0  0  0  0  0  0  0
    8.9218    0.4179    2.0672 C   0  0  0  0  0  0  0  0  0  0  0  0
    9.7925   -0.6881    1.9548 C   0  0  0  0  0  0  0  0  0  0  0  0
   11.1462   -0.3973    1.9078 C   0  0  0  0  0  0  0  0  0  0  0  0
   11.7720   -1.5969    1.7396 N   0  0  0  0  0  0  0  0  0  0  0  0
   10.8038   -2.5631    1.6969 C   0  0  0  0  0  0  0  0  0  0  0  0
    9.5951   -2.0554    1.8442 N   0  0  0  0  0  0  0  0  0  0  0  0
   11.7350    0.8028    1.9928 N   0  0  0  0  0  0  0  0  0  0  0  0
   10.8119    1.7755    2.1067 C   0  0  0  0  0  0  0  0  0  0  0  0
    9.4717    1.6564    2.1160 N   0  0  0  0  0  0  0  0  0  0  0  0
    2.9719   -0.7611   -0.9726 N   0  0  0  0  0  0  0  0  0  0  0  0
    2.3151   -1.5214   -1.9371 C   0  0  0  0  0  0  0  0  0  0  0  0
    1.2896   -0.8695   -2.6135 C   0  0  0  0  0  0  0  0  0  0  0  0
    0.4875   -1.5702   -3.4590 C   0  0  0  0  0  0  0  0  0  0  0  0
    0.7122   -2.9255   -3.5570 C   0  0  0  0  0  0  0  0  0  0  0  0
    1.9058   -3.5381   -3.1748 C   0  0  0  0  0  0  0  0  0  0  0  0
    2.6908   -2.8404   -2.2552 C   0  0  0  0  0  0  0  0  0  0  0  0
    2.3540   -4.8605   -3.7452 C   0  0  0  0  0  0  0  0  0  0  0  0
    3.3254   -5.4330   -3.2814 O   0  0  0  0  0  0  0  0  0  0  0  0
    1.7357   -5.4086   -4.8620 N   0  0  0  0  0  0  0  0  0  0  0  0
    0.6141   -4.9416   -5.6557 C   0  0  0  0  0  0  0  0  0  0  0  0
    0.8964   -4.7014   -7.1154 C   0  0  0  0  0  0  0  0  0  0  0  0
    1.1365   -5.9872   -7.8558 C   0  0  0  0  0  0  0  0  0  0  0  0
   -0.0657   -6.9092   -7.7243 C   0  0  0  0  0  0  0  0  0  0  0  0
  2  1  2  0
  2  3  1  0
  3  4  1  0
  5  4  1  0
  6  5  1  0
  7  6  1  0
  8  7  1  0
  9  8  1  0
  9 17  2  0
 10  9  1  0
 11 10  2  0
 11 15  1  0
 12 11  1  0
 12 13  1  0
 13 14  2  0
 14 10  1  0
 15 16  2  0
 16 17  1  0
 18  2  1  0
 19 18  1  0
 20 19  2  0
 21 20  1  0
 22 21  2  0
 22 23  1  0
 23 24  2  0
 24 19  1  0
 25 23  1  0
 25 26  2  0
 27 25  1  0
 28 27  1  0
 29 28  1  0
 29 30  1  0
 31 30  1  0
M  END
>  <DRUGBANK_ID>  (1) 
DB07801

>  <COMMON_NAME>  (1) 
N-butyl-3-{[6-(9H-purin-6-ylamino)hexanoyl]amino}benzamide

$$$$
