
     RDKit          3D

 24 23  0  0  0  0  0  0  0  0999 V2000
    0.7055    0.1969    0.1677 C   0  0  0  0  0  0  0  0  0  0  0  0
    0.1118   -1.0093   -0.6195 C   0  0  0  0  0  0  0  0  0  0  0  0
    5.6834   -0.0300   -0.3848 O   0  0  0  0  0  0  0  0  0  0  0  0
    8.0607   -0.5670   -0.1703 O   0  0  0  0  0  0  0  0  0  0  0  0
    7.4437   -1.1180    1.0500 C   0  0  0  0  0  0  0  0  0  0  0  0
    5.3864   -2.3651    0.6532 O   0  0  0  0  0  0  0  0  0  0  0  0
    6.1151   -0.3612    1.8506 C   0  0  0  0  0  0  0  0  0  0  0  0
    4.7039   -0.5740    2.0226 C   0  0  0  0  0  0  0  0  0  0  0  0
    3.7987    0.6763    2.1647 C   0  0  0  0  0  0  0  0  0  0  0  0
    3.0177    1.2546    0.9263 C   0  0  0  0  0  0  0  0  0  0  0  0
    1.9859    0.3465    0.2856 C   0  0  0  0  0  0  0  0  0  0  0  0
    0.3870   -1.1182   -2.1624 C   0  0  0  0  0  0  0  0  0  0  0  0
    1.7942   -1.4005   -2.6385 C   0  0  0  0  0  0  0  0  0  0  0  0
    2.3502   -2.5057   -3.1860 C   0  0  0  0  0  0  0  0  0  0  0  0
    1.4609   -3.6090   -3.6249 C   0  0  0  0  0  0  0  0  0  0  0  0
    7.0661    0.1058   -1.4157 P   0  0  0  0  0  0  0  0  0  0  0  0
    4.9367   -1.5724   -0.6217 P   0  0  0  0  0  0  0  0  0  0  0  0
    7.6713    1.4914   -1.1894 O   0  0  0  0  0  0  0  0  0  0  0  0
    3.7967   -0.8812   -1.1899 O   0  0  0  0  0  0  0  0  0  0  0  0
    3.6007   -1.8332    1.8482 C   0  0  0  0  0  0  0  0  0  0  0  0
   -0.1750    1.1759    0.8462 C   0  0  0  0  0  0  0  0  0  0  0  0
    3.8310   -2.7406   -3.4722 C   0  0  0  0  0  0  0  0  0  0  0  0
    6.0715    0.7785   -2.6611 O   0  0  0  0  0  0  0  0  0  0  0  0
    4.1900   -3.1149   -0.8585 O   0  0  0  0  0  0  0  0  0  0  0  0
  1 21  1  0
  1  2  1  0
  2 12  1  0
  3 17  1  0
  4  5  1  0
  5  7  1  0
  7  8  2  0
  8 20  1  0
  8  9  1  0
  9 10  1  0
 10 11  1  0
 11  1  2  0
 12 13  1  0
 13 14  2  3
 14 22  1  0
 14 15  1  0
 16  4  1  0
 16  3  1  0
 16 18  2  0
 16 23  1  0
 17  6  1  0
 17 19  2  0
 17 24  1  0
M  END
>  <DRUGBANK_ID>  (1) 
DB07780

>  <COMMON_NAME>  (1) 
Farnesyl diphosphate

>  <CAS_NUMBER>  (1) 
13058-04-3

>  <UNII>  (1) 
79W6B01D07

>  <SYNONYMS>  (1) 
(2E,6E)-farnesol diphosphate; (2E,6E)-farnesyl diphosphate; (2E,6E)-farnesyl pyrophosphate; (all-E)-farnesyl diphosphate; (E,E)-farnesyl pyrophosphate; 2-trans,6-trans-farnesyl diphosphate; all-trans-farnesyl pyrophosphate; Farnesyl pyrophosphate

$$$$
