
     RDKit          3D

 18 18  0  0  0  0  0  0  0  0999 V2000
    1.2093   -0.0631    0.8023 C   0  0  0  0  0  0  0  0  0  0  0  0
    0.7755    0.6138    2.0731 C   0  0  0  0  0  0  0  0  0  0  0  0
    1.1617    2.1034    2.0847 C   0  0  0  0  0  0  0  0  0  0  0  0
    0.4443    2.9179    1.0850 N   0  0  0  0  0  0  0  0  0  0  0  0
    1.0106    4.2551    0.8368 C   0  0  0  0  0  0  0  0  0  0  0  0
    2.5170    4.2258    0.5221 C   0  0  0  0  0  0  0  0  0  0  0  0
    2.9053    3.7814   -0.8160 O   0  0  0  0  0  0  0  0  0  0  0  0
    2.5348    2.5517   -1.3235 C   0  0  0  0  0  0  0  0  0  0  0  0
    1.1961    2.2325   -1.6982 C   0  0  0  0  0  0  0  0  0  0  0  0
    0.8050    0.8860   -1.9280 C   0  0  0  0  0  0  0  0  0  0  0  0
    1.8240   -0.0832   -2.0844 C   0  0  0  0  0  0  0  0  0  0  0  0
    3.1761    0.3128   -1.9635 C   0  0  0  0  0  0  0  0  0  0  0  0
    4.1459   -0.6075   -2.0978 F   0  0  0  0  0  0  0  0  0  0  0  0
    3.5383    1.6080   -1.5612 C   0  0  0  0  0  0  0  0  0  0  0  0
   -1.0426    0.2712   -1.5084 S   0  0  0  0  0  0  0  0  0  0  0  0
   -1.6239    0.4012    0.2147 C   0  0  0  0  0  0  0  0  0  0  0  0
   -1.8970    1.1762   -2.2796 O   0  0  0  0  0  0  0  0  0  0  0  0
   -1.0147   -1.1437   -1.7772 O   0  0  0  0  0  0  0  0  0  0  0  0
  1  2  1  0
  2  3  1  0
  3  4  1  0
  4  5  1  0
  5  6  1  0
  6  7  1  0
  7  8  1  0
  8  9  2  0
  8 14  1  0
  9 10  1  0
 10 11  2  0
 10 15  1  0
 11 12  1  0
 12 13  1  0
 12 14  2  0
 15 16  1  0
 15 17  2  0
 15 18  2  0
M  END
>  <DRUGBANK_ID>  (1) 
DB16229

>  <COMMON_NAME>  (1) 
Mesdopetam

>  <CAS_NUMBER>  (1) 
1403894-72-3

>  <UNII>  (1) 
HD4QV8GX26

>  <SYNONYMS>  (1) 
Mesdopetam

$$$$
