
     RDKit          3D

  5  4  0  0  0  0  0  0  0  0999 V2000
    1.0607    0.0723   -0.0100 C   0  0  0  0  0  0  0  0  0  0  0  0
    0.9885    2.7417    0.2198 F   0  0  0  0  0  0  0  0  0  0  0  0
   -0.9997    1.4852    0.7792 O   0  0  0  0  0  0  0  0  0  0  0  0
    1.0678    1.4155    2.2394 O   0  0  0  0  0  0  0  0  0  0  0  0
    0.4397    1.4359    0.9346 S   0  0  0  0  0  0  0  0  0  0  0  0
  5  1  1  0
  5  2  1  0
  5  3  2  0
  5  4  2  0
M  END
>  <DRUGBANK_ID>  (1) 
DB13058

>  <COMMON_NAME>  (1) 
Methanesulfonyl Fluoride

>  <CAS_NUMBER>  (1) 
558-25-8

>  <UNII>  (1) 
9H250YYY0R

$$$$
