
     RDKit          3D

 34 38  0  0  0  0  0  0  0  0999 V2000
    0.6330    0.3059   -0.3441 C   0  0  0  0  0  0  0  0  0  0  0  0
    0.4452    1.3945    0.6628 C   0  0  0  0  0  0  0  0  0  0  0  0
    1.0829    2.4871   -0.0290 N   0  0  0  0  0  0  0  0  0  0  0  0
    2.5293    2.2647   -0.0114 C   0  0  0  0  0  0  0  0  0  0  0  0
    2.9119    2.8182    1.3026 C   0  0  0  0  0  0  0  0  0  0  0  0
    2.1028    4.0951    1.3009 C   0  0  0  0  0  0  0  0  0  0  0  0
    0.8185    3.7783    0.5492 C   0  0  0  0  0  0  0  0  0  0  0  0
   -0.4829    0.9714   -1.7053 O   0  0  0  0  0  0  0  0  0  0  0  0
   -0.7685    2.6021   -2.6282 C   0  0  0  0  0  0  0  0  0  0  0  0
   -2.1131    3.5023   -3.6159 C   0  0  0  0  0  0  0  0  0  0  0  0
   -3.8403    4.8971   -4.0193 C   0  0  0  0  0  0  0  0  0  0  0  0
   -5.6288    5.6348   -3.7806 O   0  0  0  0  0  0  0  0  0  0  0  0
   -6.2355    7.2863   -3.2605 C   0  0  0  0  0  0  0  0  0  0  0  0
   -4.8942    7.6924   -3.3075 C   0  0  0  0  0  0  0  0  0  0  0  0
   -4.1331    8.7217   -3.5649 C   0  0  0  0  0  0  0  0  0  0  0  0
   -2.7287    8.4044   -3.9481 C   0  0  0  0  0  0  0  0  0  0  0  0
   -2.3963    9.0587   -5.1617 O   0  0  0  0  0  0  0  0  0  0  0  0
   -3.1609    8.5750   -6.2668 C   0  0  0  0  0  0  0  0  0  0  0  0
   -2.9182    7.1257   -6.5448 C   0  0  0  0  0  0  0  0  0  0  0  0
   -3.8501    6.1353   -6.7298 C   0  0  0  0  0  0  0  0  0  0  0  0
   -3.1967    4.8994   -6.7301 C   0  0  0  0  0  0  0  0  0  0  0  0
   -1.8733    5.1969   -6.8541 C   0  0  0  0  0  0  0  0  0  0  0  0
   -1.6694    6.5655   -6.7262 O   0  0  0  0  0  0  0  0  0  0  0  0
   -0.8207    4.2905   -7.2484 C   0  0  0  0  0  0  0  0  0  0  0  0
   -0.9762    3.4743   -8.3326 C   0  0  0  0  0  0  0  0  0  0  0  0
    0.1928    2.9254   -8.7815 C   0  0  0  0  0  0  0  0  0  0  0  0
    1.2451    2.6984   -7.9806 N   0  0  0  0  0  0  0  0  0  0  0  0
    1.1735    3.2943   -6.7954 C   0  0  0  0  0  0  0  0  0  0  0  0
    1.9308    2.8653   -5.7460 N   0  0  0  0  0  0  0  0  0  0  0  0
    1.2134    2.7082   -4.4662 C   0  0  0  0  0  0  0  0  0  0  0  0
    2.0887    2.1127   -3.6006 C   0  0  0  0  0  0  0  0  0  0  0  0
    1.0577    1.9987   -2.6966 C   0  0  0  0  0  0  0  0  0  0  0  0
   -0.5857    3.2669   -4.3995 C   0  0  0  0  0  0  0  0  0  0  0  0
    0.2540    4.2141   -6.4854 N   0  0  0  0  0  0  0  0  0  0  0  0
  1  2  1  0
  1  8  1  0
  2  3  1  0
  3  4  1  0
  3  7  1  0
  4  5  1  0
  5  6  1  0
  6  7  1  0
  8  9  1  0
  9 10  1  0
  9 32  2  0
 10 11  1  0
 10 33  2  0
 11 12  1  0
 12 13  1  0
 13 14  1  0
 14 15  2  0
 15 16  1  0
 16 17  1  0
 17 18  1  0
 18 19  1  0
 19 20  2  0
 19 23  1  0
 20 21  1  0
 21 22  2  0
 22 23  1  0
 22 24  1  0
 24 25  2  0
 24 34  1  0
 25 26  1  0
 26 27  2  0
 27 28  1  0
 28 29  1  0
 28 34  2  0
 29 30  1  0
 30 31  2  0
 30 33  1  0
 31 32  1  0
M  END
>  <DRUGBANK_ID>  (1) 
DB15294

>  <COMMON_NAME>  (1) 
SB-1578

>  <CAS_NUMBER>  (1) 
937273-04-6

>  <UNII>  (1) 
4T71DC0G0A

$$$$
