
     RDKit          3D

 35 38  0  0  0  0  0  0  0  0999 V2000
    1.2902   -0.5060    0.7897 C   0  0  0  0  0  0  0  0  0  0  0  0
    0.3786   -1.5434    0.6678 C   0  0  0  0  0  0  0  0  0  0  0  0
   -0.9818   -1.2440    0.5565 C   0  0  0  0  0  0  0  0  0  0  0  0
   -1.4362    0.0862    0.4911 C   0  0  0  0  0  0  0  0  0  0  0  0
   -0.5261    1.1633    0.5575 C   0  0  0  0  0  0  0  0  0  0  0  0
    0.8208    0.7980    0.7695 C   0  0  0  0  0  0  0  0  0  0  0  0
    0.8469    3.5336    2.0470 C   0  0  0  0  0  0  0  0  0  0  0  0
   -0.5184    3.2864    1.8047 C   0  0  0  0  0  0  0  0  0  0  0  0
   -0.9764    2.6490    0.4704 C   0  0  0  0  0  0  0  0  0  0  0  0
    1.3520    3.8481    3.2968 C   0  0  0  0  0  0  0  0  0  0  0  0
    0.4712    3.9553    4.3546 C   0  0  0  0  0  0  0  0  0  0  0  0
   -0.8932    3.7688    4.1495 C   0  0  0  0  0  0  0  0  0  0  0  0
   -1.3907    3.4163    2.8919 C   0  0  0  0  0  0  0  0  0  0  0  0
   -0.6349    3.6147   -0.7838 C   0  0  0  0  0  0  0  0  0  0  0  0
   -1.3170    3.2412   -2.1243 C   0  0  0  0  0  0  0  0  0  0  0  0
   -0.5931    2.0712   -2.7612 C   0  0  0  0  0  0  0  0  0  0  0  0
    0.8526    2.2174   -2.9875 N   0  0  0  0  0  0  0  0  0  0  0  0
    1.5181    2.7094   -1.7856 C   0  0  0  0  0  0  0  0  0  0  0  0
    0.8319    3.9037   -1.1514 C   0  0  0  0  0  0  0  0  0  0  0  0
   -2.4301    2.6195    0.4652 O   0  0  0  0  0  0  0  0  0  0  0  0
    1.5055    0.9500   -3.4056 C   0  0  0  0  0  0  0  0  0  0  0  0
    1.4143   -0.2717   -2.4727 C   0  0  0  0  0  0  0  0  0  0  0  0
    0.0205   -0.8798   -2.3042 C   0  0  0  0  0  0  0  0  0  0  0  0
   -0.8328   -1.1208   -3.5377 C   0  0  0  0  0  0  0  0  0  0  0  0
   -0.2650   -2.3906   -4.0676 C   0  0  0  0  0  0  0  0  0  0  0  0
   -2.2029   -1.2507   -3.1514 O   0  0  0  0  0  0  0  0  0  0  0  0
    1.0217   -2.3489   -4.6195 C   0  0  0  0  0  0  0  0  0  0  0  0
    1.7521   -3.4856   -4.7765 C   0  0  0  0  0  0  0  0  0  0  0  0
    1.1628   -4.7278   -4.5161 C   0  0  0  0  0  0  0  0  0  0  0  0
   -0.1141   -4.7656   -3.9260 C   0  0  0  0  0  0  0  0  0  0  0  0
   -0.8320   -3.6198   -3.7204 C   0  0  0  0  0  0  0  0  0  0  0  0
    1.8035   -6.0079   -5.0058 C   0  0  0  0  0  0  0  0  0  0  0  0
    2.0188   -6.9654   -3.8289 C   0  0  0  0  0  0  0  0  0  0  0  0
    0.8328   -6.6178   -6.0391 C   0  0  0  0  0  0  0  0  0  0  0  0
    3.1517   -5.7538   -5.7091 C   0  0  0  0  0  0  0  0  0  0  0  0
  1  2  2  0
  1  6  1  0
  2  3  1  0
  3  4  2  0
  4  5  1  0
  5  6  2  0
  5  9  1  0
  7  8  2  0
  7 10  1  0
  8  9  1  0
  8 13  1  0
  9 14  1  0
  9 20  1  0
 10 11  2  0
 11 12  1  0
 12 13  2  0
 14 15  1  0
 14 19  1  0
 15 16  1  0
 16 17  1  0
 17 18  1  0
 17 21  1  0
 18 19  1  0
 21 22  1  0
 22 23  1  0
 23 24  1  0
 24 25  1  0
 24 26  1  0
 25 27  2  0
 25 31  1  0
 27 28  1  0
 28 29  2  0
 29 30  1  0
 29 32  1  0
 30 31  2  0
 32 33  1  0
 32 34  1  0
 32 35  1  0
M  END
>  <DRUGBANK_ID>  (1) 
DB00342

>  <SECONDARY_ACCESSION_NUMBERS>  (1) 
APRD00606

>  <COMMON_NAME>  (1) 
Terfenadine

>  <CAS_NUMBER>  (1) 
50679-08-8

>  <UNII>  (1) 
7BA5G9Y06Q

>  <SYNONYMS>  (1) 
(RS)-1-(4-tert-butylphenyl)-4-{4-[hydroxy(diphenyl)methyl]piperidin-1-yl}-butan-1-ol; Terfenadin; Terfenadina; TerfÃ©nadine; Terfenadine; Terfenadinum

$$$$
