
     RDKit          3D

 34 38  0  0  0  0  0  0  0  0999 V2000
   -2.3644    0.0063   -0.1124 C   0  0  0  0  0  0  0  0  0  0  0  0
   -0.9537    0.0073    0.2929 N   0  0  0  0  0  0  0  0  0  0  0  0
   -0.2760   -1.2035   -0.1940 C   0  0  0  0  0  0  0  0  0  0  0  0
    1.2162   -1.2186    0.1961 C   0  0  0  0  0  0  0  0  0  0  0  0
    1.9285    0.0395   -0.3467 C   0  0  0  0  0  0  0  0  0  0  0  0
    1.1824    1.2628    0.1920 C   0  0  0  0  0  0  0  0  0  0  0  0
   -0.2909    1.2195   -0.2077 C   0  0  0  0  0  0  0  0  0  0  0  0
    3.3377    0.1484    0.0618 N   0  0  0  0  0  0  0  0  0  0  0  0
    4.3241    0.0354   -0.9148 C   0  0  0  0  0  0  0  0  0  0  0  0
    4.4491    1.0117   -1.8485 N   0  0  0  0  0  0  0  0  0  0  0  0
    5.5239    1.0107   -2.6935 C   0  0  0  0  0  0  0  0  0  0  0  0
    5.5884    2.0739   -3.6410 N   0  0  0  0  0  0  0  0  0  0  0  0
    6.4881    2.2573   -4.7212 C   0  0  0  0  0  0  0  0  0  0  0  0
    6.5677    1.2666   -5.7091 C   0  0  0  0  0  0  0  0  0  0  0  0
    7.6748    1.1752   -6.5589 C   0  0  0  0  0  0  0  0  0  0  0  0
    8.7474    2.0649   -6.4519 C   0  0  0  0  0  0  0  0  0  0  0  0
    9.9068    1.9751   -7.2136 O   0  0  0  0  0  0  0  0  0  0  0  0
    9.8942    1.1376   -8.3158 C   0  0  0  0  0  0  0  0  0  0  0  0
    8.9117    1.2252   -9.3099 C   0  0  0  0  0  0  0  0  0  0  0  0
    8.8562    0.2726  -10.3288 C   0  0  0  0  0  0  0  0  0  0  0  0
    9.7350   -0.8084  -10.3140 C   0  0  0  0  0  0  0  0  0  0  0  0
   10.7200   -0.8889   -9.3292 C   0  0  0  0  0  0  0  0  0  0  0  0
   10.8682    0.1428   -8.3977 C   0  0  0  0  0  0  0  0  0  0  0  0
    8.6774    3.0617   -5.4695 C   0  0  0  0  0  0  0  0  0  0  0  0
    7.5086    3.2274   -4.6804 C   0  0  0  0  0  0  0  0  0  0  0  0
    6.4582   -0.0189   -2.6095 C   0  0  0  0  0  0  0  0  0  0  0  0
    7.7600   -0.0845   -3.3059 C   0  0  0  0  0  0  0  0  0  0  0  0
    8.4737    0.8768   -3.5664 O   0  0  0  0  0  0  0  0  0  0  0  0
    8.3021   -1.3190   -3.5135 N   0  0  0  0  0  0  0  0  0  0  0  0
    8.1060   -2.3101   -2.5968 C   0  0  0  0  0  0  0  0  0  0  0  0
    7.1373   -2.2171   -1.6680 C   0  0  0  0  0  0  0  0  0  0  0  0
    6.9580   -3.5636   -0.3898 Br  0  0  0  0  0  0  0  0  0  0  0  0
    6.2164   -1.0359   -1.6928 C   0  0  0  0  0  0  0  0  0  0  0  0
    5.1804   -0.9927   -0.8125 N   0  0  0  0  0  0  0  0  0  0  0  0
  1  2  1  0
  2  3  1  0
  2  7  1  0
  3  4  1  0
  4  5  1  0
  5  6  1  0
  5  8  1  0
  6  7  1  0
  8  9  1  0
  9 10  2  0
  9 34  1  0
 10 11  1  0
 11 12  1  0
 11 26  2  0
 12 13  1  0
 13 14  2  0
 13 25  1  0
 14 15  1  0
 15 16  2  0
 16 17  1  0
 16 24  1  0
 17 18  1  0
 18 19  2  0
 18 23  1  0
 19 20  1  0
 20 21  2  0
 21 22  1  0
 22 23  2  0
 24 25  2  0
 26 27  1  0
 26 33  1  0
 27 28  2  0
 27 29  1  0
 29 30  1  0
 30 31  2  0
 31 32  1  0
 31 33  1  0
 33 34  2  0
M  END
>  <DRUGBANK_ID>  (1) 
DB17159

>  <COMMON_NAME>  (1) 
Denfivontinib

>  <CAS_NUMBER>  (1) 
1457983-28-6

>  <UNII>  (1) 
B06W426B66

>  <SYNONYMS>  (1) 
8-Bromo-2-((1-methylpiperidin-4-yl)amino)-4-((4-phenoxyphenyl)amino)pyrido[4,3-D]pyrimidin-5(6H)-one; 8-bromo-2-[(1-methylpiperidin-4-yl)amino]-4-(4-phenoxyanilino)-6H-pyrido[4,3-d]pyrimidin-5-one; G-749

$$$$
