4828
     RDKit          3D

 20 21  0  0  0  0  0  0  0  0999 V2000
   -2.1073   -0.0373    0.0037 Cl  0  0  0  0  0  0  0  0  0  0  0  0
    4.4844   -1.0929    0.0532 O   0  0  0  0  0  0  0  0  0  0  0  0
    3.6972    5.4981    2.8488 O   0  0  0  0  0  0  0  0  0  0  0  0
    3.5548    5.6701    0.6119 O   0  0  0  0  0  0  0  0  0  0  0  0
    4.5491    2.2280    1.0617 N   0  0  0  0  0  0  0  0  0  0  0  0
    4.6329    1.2523    0.0824 C   0  0  0  0  0  0  0  0  0  0  0  0
    5.3673    3.2894    0.7306 C   0  0  0  0  0  0  0  0  0  0  0  0
    5.5622    1.6806   -0.8577 C   0  0  0  0  0  0  0  0  0  0  0  0
    6.0087    2.9622   -0.4498 C   0  0  0  0  0  0  0  0  0  0  0  0
    5.4971    4.5403    1.5479 C   0  0  0  0  0  0  0  0  0  0  0  0
    3.9065   -0.0058    0.0516 C   0  0  0  0  0  0  0  0  0  0  0  0
    3.7351    2.1206    2.2563 C   0  0  0  0  0  0  0  0  0  0  0  0
    5.9778    0.9389   -2.0805 C   0  0  0  0  0  0  0  0  0  0  0  0
    2.4109    0.0099   -0.0234 C   0  0  0  0  0  0  0  0  0  0  0  0
    4.1783    5.2927    1.5987 C   0  0  0  0  0  0  0  0  0  0  0  0
    1.6792    1.2040   -0.1127 C   0  0  0  0  0  0  0  0  0  0  0  0
    1.7183   -1.2084    0.0010 C   0  0  0  0  0  0  0  0  0  0  0  0
    0.2854    1.1911   -0.0673 C   0  0  0  0  0  0  0  0  0  0  0  0
    0.3200   -1.2240   -0.0141 C   0  0  0  0  0  0  0  0  0  0  0  0
   -0.3893   -0.0238   -0.0240 C   0  0  0  0  0  0  0  0  0  0  0  0
  1 20  1  0
  2 11  2  0
  3 15  1  0
  4 15  2  0
  5  6  1  0
  5  7  1  0
  5 12  1  0
  6  8  2  0
  6 11  1  0
  7  9  2  0
  7 10  1  0
  8  9  1  0
  8 13  1  0
 10 15  1  0
 11 14  1  0
 14 16  2  0
 14 17  1  0
 16 18  1  0
 17 19  2  0
 18 20  2  0
 19 20  1  0
M  END
>  <DRUGBANK_ID>  (1) 
DB04828

>  <COMMON_NAME>  (1) 
Zomepirac

>  <CAS_NUMBER>  (1) 
33369-31-2

>  <UNII>  (1) 
822G987U9J

>  <SYNONYMS>  (1) 
5-(4-Chlorobenzoyl)-1,4-dimethyl-1H-pyrrole-2-acetic acid; Zomepirac; Zomepiracum

$$$$
