
     RDKit          3D

  7  7  0  0  0  0  0  0  0  0999 V2000
   -0.7498   -0.9632    0.1290 O   0  0  0  0  0  0  0  0  0  0  0  0
    0.6776   -1.0430    0.0997 C   0  0  0  0  0  0  0  0  0  0  0  0
   -1.0613    0.4097    0.1707 N   0  0  0  0  0  0  0  0  0  0  0  0
    1.2510    0.3690    0.0196 C   0  0  1  0  0  0  0  0  0  0  0  0
    2.2455    0.5727   -1.0426 N   0  0  0  0  0  0  0  0  0  0  0  0
    0.0077    1.2064   -0.1401 C   0  0  0  0  0  0  0  0  0  0  0  0
   -0.0548    2.4049   -0.3881 O   0  0  0  0  0  0  0  0  0  0  0  0
  1  2  1  0
  1  3  1  0
  2  4  1  0
  4  6  1  0
  4  5  1  6
  6  3  1  0
  6  7  2  0
M  END
>  <DRUGBANK_ID>  (1) 
DB00260

>  <SECONDARY_ACCESSION_NUMBERS>  (1) 
APRD00894; DB03123

>  <COMMON_NAME>  (1) 
Cycloserine

>  <CAS_NUMBER>  (1) 
68-41-7

>  <UNII>  (1) 
95IK5KI84Z

>  <SYNONYMS>  (1) 
(+)-4-amino-3-isoxazolidinone; (+)-cycloserine; alpha-Cycloserine; Cicloserina; cyclo-D-Serine; Cyclosérine; Cycloserine; Cycloserinum; D-(+)-cycloserine; D-4-amino-3-isoxazolidinone; D-4-amino-3-isoxazolidone; D-Cycloserine; DCS; Orientomycin; α-Cycloserine

$$$$
