
     RDKit          3D

  9 10  0  0  0  0  0  0  0  0999 V2000
    0.0490    0.8856    0.0246 C   0  0  2  0  0  0  0  0  0  0  0  0
   -0.0283    1.7235   -1.2297 C   0  0  0  0  0  0  0  0  0  0  0  0
    0.8430   -0.3944    0.0840 C   0  0  0  0  0  0  0  0  0  0  0  0
   -0.5865   -0.4080    0.0109 O   0  0  0  0  0  0  0  0  0  0  0  0
   -0.5429    1.2361   -2.4428 C   0  0  0  0  0  0  0  0  0  0  0  0
    0.3506    3.0785   -1.1934 C   0  0  0  0  0  0  0  0  0  0  0  0
   -0.7005    2.0646   -3.5586 C   0  0  0  0  0  0  0  0  0  0  0  0
    0.1569    3.9217   -2.2914 C   0  0  0  0  0  0  0  0  0  0  0  0
   -0.3591    3.4118   -3.4765 C   0  0  0  0  0  0  0  0  0  0  0  0
  1  3  1  0
  1  4  1  0
  1  2  1  6
  2  5  2  0
  2  6  1  0
  3  4  1  0
  5  7  1  0
  6  8  2  0
  7  9  2  0
  8  9  1  0
M  END
>  <DRUGBANK_ID>  (1) 
DB04499

>  <SECONDARY_ACCESSION_NUMBERS>  (1) 
EXPT02820

>  <COMMON_NAME>  (1) 
(R)-styrene oxide

>  <CAS_NUMBER>  (1) 
20780-53-4

>  <UNII>  (1) 
0HB27D5MRW

>  <SYNONYMS>  (1) 
(R)-(+)-styrene oxide; (R)-(epoxyethyl)benzene; R-phenyloxirane; R-styrene oxide

$$$$
