
     RDKit          3D

 10  9  0  0  1  0  0  0  0  0999 V2000
   -3.5570   -4.4082   -3.2750 C   0  0  0  0  0  0  0  0  0  0  0  0
   -2.0676   -4.6831   -3.4152 C   0  0  0  0  0  0  0  0  0  0  0  0
   -1.2776   -3.4613   -3.8940 C   0  0  0  0  0  0  0  0  0  0  0  0
   -1.4853   -2.1771   -3.0765 C   0  0  0  0  0  0  0  0  0  0  0  0
    1.2147   -0.9044   -2.2167 C   0  0  0  0  0  0  0  0  0  0  0  0
   -0.9145   -2.2128   -1.6512 C   0  0  2  0  0  0  0  0  0  0  0  0
    0.6302   -2.1977   -1.6338 C   0  0  2  0  0  0  0  0  0  0  0  0
    0.7497    0.2335   -1.4882 O   0  0  0  0  0  0  0  0  0  0  0  0
   -1.4247   -3.3334   -0.9312 O   0  0  0  0  0  0  0  0  0  0  0  0
    1.0762   -2.3537   -0.2794 O   0  0  0  0  0  0  0  0  0  0  0  0
  2  1  1  0
  3  2  1  0
  4  3  1  0
  6  9  1  6
  6  7  1  0
  6  4  1  0
  7  5  1  0
  7 10  1  1
  8  5  1  0
M  END
>  <DRUGBANK_ID>  (1) 
DB04079

>  <SECONDARY_ACCESSION_NUMBERS>  (1) 
EXPT01791

>  <COMMON_NAME>  (1) 
Heptane-1,2,3-Triol

$$$$
