
     RDKit          3D

 12 11  0  0  1  0  0  0  0  0999 V2000
    0.9794    0.0838   -0.0157 C   0  0  0  0  0  0  0  0  0  0  0  0
    0.4424   -0.4463    1.3094 C   0  0  0  0  0  0  0  0  0  0  0  0
    0.9276    0.4117    2.4728 C   0  0  0  0  0  0  0  0  0  0  0  0
   -1.0914   -0.5185    1.2937 C   0  0  0  0  0  0  0  0  0  0  0  0
   -1.6785   -1.4652    0.2196 C   0  0  1  0  0  0  0  0  0  0  0  0
   -1.1340   -2.8844    0.2797 C   0  0  0  0  0  0  0  0  0  0  0  0
   -2.0213   -3.8843    0.4420 O   0  0  0  0  0  0  0  0  0  0  0  0
    0.0622   -3.1506    0.2192 O   0  0  0  0  0  0  0  0  0  0  0  0
   -3.1854   -1.3803    0.2280 C   0  0  0  0  0  0  0  0  0  0  0  0
   -3.8074   -0.9585   -0.7478 O   0  0  0  0  0  0  0  0  0  0  0  0
   -3.8708   -1.8329    1.3092 N   0  0  0  0  0  0  0  0  0  0  0  0
   -3.3381   -2.3962    2.4718 O   0  0  0  0  0  0  0  0  0  0  0  0
  1  2  1  0
  2  3  1  0
  2  4  1  0
  5  4  1  1
  5  6  1  0
  5  9  1  0
  6  7  1  0
  6  8  2  0
  9 10  2  0
  9 11  1  0
 11 12  1  0
M  END
>  <DRUGBANK_ID>  (1) 
DB02326

>  <SECONDARY_ACCESSION_NUMBERS>  (1) 
EXPT01761; DB07904

>  <COMMON_NAME>  (1) 
1-Hydroxyamine-2-Isobutylmalonic Acid

$$$$
