
     RDKit          3D

 10 10  0  0  0  0  0  0  0  0999 V2000
    1.0693    0.0564    0.1093 O   0  0  0  0  0  0  0  0  0  0  0  0
    0.6351   -1.0406    0.8976 C   0  0  0  0  0  0  0  0  0  0  0  0
    1.0857   -2.3882    0.3957 C   0  0  0  0  0  0  0  0  0  0  0  0
    0.4170   -3.5409    0.8497 C   0  0  0  0  0  0  0  0  0  0  0  0
    0.8104   -4.8157    0.4276 C   0  0  0  0  0  0  0  0  0  0  0  0
    1.8814   -4.9592   -0.4510 C   0  0  0  0  0  0  0  0  0  0  0  0
    2.5546   -3.8267   -0.8964 C   0  0  0  0  0  0  0  0  0  0  0  0
    3.5853   -3.9681   -1.7404 F   0  0  0  0  0  0  0  0  0  0  0  0
    2.1690   -2.5580   -0.4703 C   0  0  0  0  0  0  0  0  0  0  0  0
    2.8647   -1.4905   -0.8946 F   0  0  0  0  0  0  0  0  0  0  0  0
  1  2  1  0
  2  3  1  0
  3  4  2  0
  3  9  1  0
  4  5  1  0
  5  6  2  0
  6  7  1  0
  7  8  1  0
  7  9  2  0
  9 10  1  0
M  END
>  <DRUGBANK_ID>  (1) 
DB04312

>  <SECONDARY_ACCESSION_NUMBERS>  (1) 
EXPT01168

>  <COMMON_NAME>  (1) 
2,3-Difluorobenzyl Alcohol

>  <UNII>  (1) 
I14VR7T96O

$$$$
