
     RDKit          3D

 30 33  0  0  0  0  0  0  0  0999 V2000
   -0.2487    0.7186   -0.0451 N   0  0  0  0  0  0  0  0  0  0  0  0
    0.9025    1.4086   -0.0187 N   0  0  0  0  0  0  0  0  0  0  0  0
    1.9629    0.6484   -0.0093 C   0  0  0  0  0  0  0  0  0  0  0  0
    2.0368   -0.7395   -0.0517 N   0  0  0  0  0  0  0  0  0  0  0  0
    0.9363   -1.4517   -0.1226 C   0  0  0  0  0  0  0  0  0  0  0  0
   -0.2676   -0.6354   -0.0426 C   0  0  0  0  0  0  0  0  0  0  0  0
   -1.5697   -0.9346    0.2279 C   0  0  0  0  0  0  0  0  0  0  0  0
   -2.4794    0.1336    0.0618 C   0  0  0  0  0  0  0  0  0  0  0  0
   -1.5663    1.1942   -0.0250 C   0  0  0  0  0  0  0  0  0  0  0  0
   -3.9998    0.1669    0.0648 C   0  0  0  0  0  0  0  0  0  0  0  0
   -4.5856    1.2736   -0.0190 O   0  0  0  0  0  0  0  0  0  0  0  0
   -4.8844   -0.9343    0.1486 N   0  0  0  0  0  0  0  0  0  0  0  0
   -4.6201   -2.3436    0.0216 C   0  0  0  0  0  0  0  0  0  0  0  0
   -4.6773   -3.1991    1.2944 C   0  0  0  0  0  0  0  0  0  0  0  0
   -6.0817   -3.7057    1.3923 C   0  0  0  0  0  0  0  0  0  0  0  0
   -1.8947   -2.2547    0.5613 C   0  0  0  0  0  0  0  0  0  0  0  0
    1.0804   -2.8791   -0.2253 N   0  0  0  0  0  0  0  0  0  0  0  0
    0.1204   -3.9733   -0.3209 C   0  0  0  0  0  0  0  0  0  0  0  0
   -0.2062   -4.7812    0.8222 C   0  0  0  0  0  0  0  0  0  0  0  0
   -1.4574   -5.4694    0.8802 C   0  0  0  0  0  0  0  0  0  0  0  0
   -2.3757   -5.4360   -0.1749 C   0  0  0  0  0  0  0  0  0  0  0  0
   -2.0696   -4.7127   -1.3274 C   0  0  0  0  0  0  0  0  0  0  0  0
   -0.8033   -4.0164   -1.4049 C   0  0  0  0  0  0  0  0  0  0  0  0
   -3.1613   -4.3051   -2.2899 C   0  0  0  0  0  0  0  0  0  0  0  0
   -2.9013   -3.3731   -3.0452 O   0  0  0  0  0  0  0  0  0  0  0  0
   -4.4248   -4.9060   -2.2203 N   0  0  0  0  0  0  0  0  0  0  0  0
   -5.5172   -4.6356   -3.1362 C   0  0  0  0  0  0  0  0  0  0  0  0
   -5.4197   -3.7163   -4.3248 C   0  0  0  0  0  0  0  0  0  0  0  0
   -5.4498   -5.2015   -4.5321 C   0  0  0  0  0  0  0  0  0  0  0  0
    0.5408   -4.7233    2.1339 C   0  0  0  0  0  0  0  0  0  0  0  0
  1  2  1  0
  3  2  2  0
  3  4  1  0
  5  4  2  0
  5 17  1  0
  5  6  1  0
  6  1  1  0
  6  7  2  0
  7  8  1  0
  8  9  2  0
  9  1  1  0
 10  8  1  0
 10 11  2  0
 10 12  1  0
 13 12  1  0
 13 14  1  0
 14 15  1  0
 16  7  1  0
 18 17  1  0
 18 23  1  0
 18 19  2  0
 19 20  1  0
 19 30  1  0
 20 21  2  0
 21 22  1  0
 22 24  1  0
 22 23  2  0
 24 26  1  0
 24 25  2  0
 27 26  1  0
 27 29  1  0
 27 28  1  0
 28 29  1  0
M  END
>  <DRUGBANK_ID>  (1) 
DB12696

>  <COMMON_NAME>  (1) 
BMS-582949

>  <CAS_NUMBER>  (1) 
623152-17-0

>  <UNII>  (1) 
CR743OME9E

$$$$
