
     RDKit          3D

 28 29  0  0  1  0  0  0  0  0999 V2000
    0.3990    0.5209   -0.2748 C   0  0  0  0  0  0  0  0  0  0  0  0
   -0.1654    0.3126    1.1511 C   0  0  0  0  0  0  0  0  0  0  0  0
   -0.0158    1.5680    1.9431 C   0  0  0  0  0  0  0  0  0  0  0  0
   -1.6236   -0.0477    1.1037 C   0  0  0  0  0  0  0  0  0  0  0  0
    0.4022   -0.7742    1.8720 O   0  0  0  0  0  0  0  0  0  0  0  0
    0.3258   -0.8092    3.2635 C   0  0  0  0  0  0  0  0  0  0  0  0
    1.3147   -0.4764    4.3046 C   0  0  2  0  0  0  0  0  0  0  0  0
    0.3192   -0.5495    5.5579 C   0  0  0  0  0  0  0  0  0  0  0  0
   -0.0374   -1.5457    6.0948 O   0  0  0  0  0  0  0  0  0  0  0  0
   -0.3230    0.6361    5.8059 N   0  0  0  0  0  0  0  0  0  0  0  0
    0.0472    1.7964    5.0497 C   0  0  0  0  0  0  0  0  0  0  0  0
    1.6114    1.7650    4.3934 C   0  0  0  0  0  0  0  0  0  0  0  0
    2.0146    0.5216    3.6015 N   0  0  0  0  0  0  0  0  0  0  0  0
    2.5675    0.3201    2.1255 C   0  0  0  0  0  0  0  0  0  0  0  0
    3.0378    1.3252    1.5533 O   0  0  0  0  0  0  0  0  0  0  0  0
    2.4197   -1.1232    1.0088 C   0  0  0  0  0  0  0  0  0  0  0  0
    2.9603   -2.4156    1.5211 C   0  0  1  0  0  0  0  0  0  0  0  0
    2.2902   -2.9495    2.8410 C   0  0  0  0  0  0  0  0  0  0  0  0
    0.7259   -3.6166    2.9832 C   0  0  0  0  0  0  0  0  0  0  0  0
   -0.6104   -3.0712    3.4242 C   0  0  0  0  0  0  0  0  0  0  0  0
   -1.8851   -3.4999    3.2046 C   0  0  0  0  0  0  0  0  0  0  0  0
   -1.9058   -4.8300    3.0813 C   0  0  0  0  0  0  0  0  0  0  0  0
   -0.6727   -5.5455    2.9879 C   0  0  0  0  0  0  0  0  0  0  0  0
    0.6099   -4.9506    2.8489 C   0  0  0  0  0  0  0  0  0  0  0  0
    1.7327   -5.6724    2.8089 F   0  0  0  0  0  0  0  0  0  0  0  0
   -3.0749   -5.4502    3.2514 F   0  0  0  0  0  0  0  0  0  0  0  0
   -2.9373   -2.6945    3.4559 F   0  0  0  0  0  0  0  0  0  0  0  0
    2.8468   -3.4613    0.5117 N   0  0  0  0  0  0  0  0  0  0  0  0
  1  2  1  0
  2  3  1  0
  2  4  1  0
  2  5  1  0
  5  6  1  0
  7  6  1  6
  7  8  1  0
  7 13  1  0
  8  9  2  0
  8 10  1  0
 10 11  1  0
 11 12  1  0
 12 13  1  0
 13 14  1  0
 14 15  2  0
 14 16  1  0
 16 17  1  0
 17 18  1  0
 17 28  1  6
 18 19  1  0
 19 20  2  0
 19 24  1  0
 20 21  1  0
 21 22  2  0
 21 27  1  0
 22 23  1  0
 22 26  1  0
 23 24  2  0
 24 25  1  0
M  END
>  <DRUGBANK_ID>  (1) 
DB12625

>  <COMMON_NAME>  (1) 
Evogliptin

>  <CAS_NUMBER>  (1) 
1222102-29-5

>  <UNII>  (1) 
09118300L7

>  <SYNONYMS>  (1) 
Evogliptin

$$$$
