A91
     RDKit          3D

 24 26  0  0  0  0  0  0  0  0999 V2000
   -1.1183   -0.0057    0.0147 C   0  0  0  0  0  0  0  0  0  0  0  0
   -0.3892    1.0990    0.0114 C   0  0  0  0  0  0  0  0  0  0  0  0
    0.9015    0.6946    0.0487 N   0  0  0  0  0  0  0  0  0  0  0  0
    0.9292   -0.7030    0.0170 C   0  0  0  0  0  0  0  0  0  0  0  0
   -0.3793   -1.1883    0.0234 O   0  0  0  0  0  0  0  0  0  0  0  0
    1.9212   -1.4208   -0.0142 O   0  0  0  0  0  0  0  0  0  0  0  0
    2.0079    1.4750   -0.2442 N   0  0  0  0  0  0  0  0  0  0  0  0
    1.9356    2.9122   -0.0282 C   0  0  0  0  0  0  0  0  0  0  0  0
    2.5371    3.4927    1.2288 C   0  0  0  0  0  0  0  0  0  0  0  0
    2.3977    4.8886    1.4633 C   0  0  0  0  0  0  0  0  0  0  0  0
    2.9907    5.4100    2.6276 C   0  0  0  0  0  0  0  0  0  0  0  0
    3.8159    4.6145    3.4492 C   0  0  0  0  0  0  0  0  0  0  0  0
    3.9620    3.2561    3.1989 C   0  0  0  0  0  0  0  0  0  0  0  0
    3.2653    2.6890    2.1379 C   0  0  0  0  0  0  0  0  0  0  0  0
    1.6870    5.7651    0.5152 C   0  0  0  0  0  0  0  0  0  0  0  0
    1.1315    6.4686   -0.3164 C   0  0  0  0  0  0  0  0  0  0  0  0
    0.5421    7.3902   -1.2898 C   0  0  0  0  0  0  0  0  0  0  0  0
    0.8177    8.7402   -1.2010 C   0  0  0  0  0  0  0  0  0  0  0  0
    0.2773    9.5629   -2.1731 C   0  0  0  0  0  0  0  0  0  0  0  0
   -0.4986    9.0808   -3.1643 N   0  0  0  0  0  0  0  0  0  0  0  0
   -0.7334    7.7597   -3.1758 C   0  0  0  0  0  0  0  0  0  0  0  0
   -0.2404    6.8809   -2.2735 N   0  0  0  0  0  0  0  0  0  0  0  0
    0.5565   11.0418   -2.1649 C   0  0  0  0  0  0  0  0  0  0  0  0
   -1.5346    7.3061   -4.1914 N   0  0  0  0  0  0  0  0  0  0  0  0
  1  5  1  0
  1  2  2  0
  2  3  1  0
  3  4  1  0
  3  7  1  0
  4  5  1  0
  4  6  2  0
  7  8  1  0
  8  9  1  0
  9 10  1  0
  9 14  2  0
 10 15  1  0
 10 11  2  0
 11 12  1  0
 12 13  2  0
 13 14  1  0
 15 16  3  0
 16 17  1  0
 17 18  2  0
 17 22  1  0
 18 19  1  0
 19 23  1  0
 19 20  2  0
 20 21  1  0
 21 22  2  0
 21 24  1  0
M  END
>  <DRUGBANK_ID>  (1) 
DB07324

>  <COMMON_NAME>  (1) 
3-({2-[(2-AMINO-6-METHYLPYRIMIDIN-4-YL)ETHYNYL]BENZYL}AMINO)-1,3-OXAZOL-2(3H)-ONE

$$$$
