1775
     RDKit          3D

 19 21  0  0  0  0  0  0  0  0999 V2000
   -2.2725    0.5847   -0.0136 O   0  0  0  0  0  0  0  0  0  0  0  0
    2.2460    0.5601   -0.0014 O   0  0  0  0  0  0  0  0  0  0  0  0
    0.7359   -1.1715    0.0254 N   0  0  0  0  0  0  0  0  0  0  0  0
   -0.0163    0.9101    0.0223 N   0  0  0  0  0  0  0  0  0  0  0  0
   -0.7022   -1.3691   -0.0120 C   0  0  0  0  0  0  0  0  0  0  0  0
   -1.0750   -2.1362   -1.2805 C   0  0  0  0  0  0  0  0  0  0  0  0
   -1.2257   -2.0490    1.2671 C   0  0  0  0  0  0  0  0  0  0  0  0
   -1.1348    0.1322   -0.0117 C   0  0  0  0  0  0  0  0  0  0  0  0
    1.0940    0.1476    0.0114 C   0  0  0  0  0  0  0  0  0  0  0  0
   -0.5983   -3.4614   -1.4044 C   0  0  0  0  0  0  0  0  0  0  0  0
   -0.9226   -1.5103    2.5257 C   0  0  0  0  0  0  0  0  0  0  0  0
   -2.0198   -1.6737   -2.2081 C   0  0  0  0  0  0  0  0  0  0  0  0
   -2.1150   -3.1468    1.2233 C   0  0  0  0  0  0  0  0  0  0  0  0
   -1.5473   -2.0003    3.6724 C   0  0  0  0  0  0  0  0  0  0  0  0
   -1.1084   -4.3193   -2.3689 C   0  0  0  0  0  0  0  0  0  0  0  0
   -2.5254   -2.5388   -3.1786 C   0  0  0  0  0  0  0  0  0  0  0  0
   -2.7525   -3.6199    2.3611 C   0  0  0  0  0  0  0  0  0  0  0  0
   -2.4645   -3.0469    3.5882 C   0  0  0  0  0  0  0  0  0  0  0  0
   -2.0585   -3.8502   -3.2679 C   0  0  0  0  0  0  0  0  0  0  0  0
  1  8  2  0
  2  9  2  0
  3  5  1  0
  3  9  1  0
  4  8  1  0
  4  9  1  0
  5  6  1  0
  5  7  1  0
  5  8  1  0
  6 10  2  0
  6 12  1  0
  7 11  2  0
  7 13  1  0
 10 15  1  0
 11 14  1  0
 12 16  2  0
 13 17  2  0
 14 18  2  0
 15 19  2  0
 16 19  1  0
 17 18  1  0
M  END
>  <DRUGBANK_ID>  (1) 
DB00252

>  <SECONDARY_ACCESSION_NUMBERS>  (1) 
APRD00241

>  <COMMON_NAME>  (1) 
Phenytoin

>  <CAS_NUMBER>  (1) 
57-41-0

>  <UNII>  (1) 
6158TKW0C5

>  <SYNONYMS>  (1) 
5,5-Diphenyl-imidazolidine-2,4-dione; 5,5-diphenylimidazolidine-2,4-dione; 5,5-diphenyltetrahydro-1H-2,4-imidazoledione	; 5,5-Diphenyltetrahydro-1H-2,4-imidazoledione; Diphenylhydantoin; Fenitoina; Phentytoin; Phenytoin; Phenytoine; Phenytoinum; PR-122 (redox-phenytoin); Redox-phenytoin

$$$$
