FR4
     RDKit          3D

 33 36  0  0  0  0  0  0  0  0999 V2000
   -0.7232    0.0188   -1.2890 C   0  0  0  0  0  0  0  0  0  0  0  0
   -0.0409   -1.0314   -0.6204 N   0  0  0  0  0  0  0  0  0  0  0  0
    1.1683   -0.5035   -0.2620 C   0  0  0  0  0  0  0  0  0  0  0  0
    1.2380    0.7865   -0.4990 N   0  0  0  0  0  0  0  0  0  0  0  0
    0.0135    1.1936   -1.0442 C   0  0  0  0  0  0  0  0  0  0  0  0
   -0.4054    2.6589   -0.9495 C   0  0  0  0  0  0  0  0  0  0  0  0
    0.2863    3.5068   -0.3738 O   0  0  0  0  0  0  0  0  0  0  0  0
   -1.6923    3.0752   -1.2748 N   0  0  0  0  0  0  0  0  0  0  0  0
   -0.5148   -2.4052   -0.2301 C   0  0  1  0  0  0  0  0  0  0  0  0
   -0.0962   -3.3096   -1.3889 C   0  0  0  0  0  0  0  0  0  0  0  0
    1.3217   -3.3913   -1.4458 O   0  0  0  0  0  0  0  0  0  0  0  0
   -0.0519   -3.0724    1.1989 C   0  0  0  0  0  0  0  0  0  0  0  0
   -0.2806   -2.4393    2.6748 C   0  0  0  0  0  0  0  0  0  0  0  0
   -1.5985   -2.3724    3.2959 N   0  0  0  0  0  0  0  0  0  0  0  0
   -2.4429   -3.4125    3.0718 C   0  0  0  0  0  0  0  0  0  0  0  0
   -3.6166   -2.7329    3.0244 C   0  0  0  0  0  0  0  0  0  0  0  0
   -3.3627   -1.2214    3.1008 C   0  0  0  0  0  0  0  0  0  0  0  0
   -2.3379   -1.3738    3.9780 C   0  0  0  0  0  0  0  0  0  0  0  0
   -3.7603    0.4486    2.8167 C   0  0  0  0  0  0  0  0  0  0  0  0
   -3.6689    1.4739    3.6905 C   0  0  0  0  0  0  0  0  0  0  0  0
   -3.8961    0.6511    4.4901 C   0  0  0  0  0  0  0  0  0  0  0  0
   -2.4769   -0.1506    4.6240 C   0  0  0  0  0  0  0  0  0  0  0  0
   -5.5808    0.2098    4.0250 N   0  0  0  0  0  0  0  0  0  0  0  0
   -6.2175   -0.4993    2.8513 C   0  0  0  0  0  0  0  0  0  0  0  0
   -7.4059   -0.2806    2.5642 O   0  0  0  0  0  0  0  0  0  0  0  0
   -5.5962   -1.6333    2.0460 C   0  0  0  0  0  0  0  0  0  0  0  0
   -4.3335   -1.5900    0.7631 C   0  0  0  0  0  0  0  0  0  0  0  0
   -3.9111    0.8679    0.2277 C   0  0  0  0  0  0  0  0  0  0  0  0
   -3.3459   -0.3612    0.4977 C   0  0  0  0  0  0  0  0  0  0  0  0
   -2.0114   -0.2619    1.0419 C   0  0  0  0  0  0  0  0  0  0  0  0
   -1.2883    0.8993    1.4217 C   0  0  0  0  0  0  0  0  0  0  0  0
   -1.9470    2.0825    1.2696 C   0  0  0  0  0  0  0  0  0  0  0  0
   -3.2464    2.0556    0.6928 C   0  0  0  0  0  0  0  0  0  0  0  0
  1  2  1  0
  1  5  2  0
  2  3  1  0
  3  4  2  0
  4  5  1  0
  5  6  1  0
  6  7  2  0
  6  8  1  0
  9  2  1  0
  9 10  1  6
  9 12  1  0
 10 11  1  0
 12 13  1  0
 13 14  1  0
 14 15  1  0
 14 18  1  0
 15 16  2  0
 16 17  1  0
 17 18  2  0
 17 19  1  0
 18 22  1  0
 19 20  2  0
 20 21  1  0
 21 22  2  0
 21 23  1  0
 23 24  1  0
 24 25  2  0
 24 26  1  0
 26 27  1  0
 27 29  1  0
 28 29  2  0
 28 33  1  0
 29 30  1  0
 30 31  2  0
 31 32  1  0
 32 33  2  0
M  END
>  <DRUGBANK_ID>  (1) 
DB07783

>  <COMMON_NAME>  (1) 
1-((1R)-1-(HYDROXYMETHYL)-3-{6-[(3-PHENYLPROPANOYL)AMINO]-1H-INDOL-1-YL}PROPYL)-1H-IMIDAZOLE-4-CARBOXAMIDE

$$$$
