
     RDKit          3D

 34 35  0  0  0  0  0  0  0  0999 V2000
    0.6048   -1.2136    0.0144 C   0  0  0  0  0  0  0  0  0  0  0  0
   -0.8619   -0.9556   -0.3016 C   0  0  0  0  0  0  0  0  0  0  0  0
   -1.1520    0.4295    0.2103 N   0  0  0  0  0  0  0  0  0  0  0  0
    0.1447    1.3285   -0.1372 C   0  0  2  0  0  0  0  0  0  0  0  0
    1.2774    0.1728   -0.2908 C   0  0  0  0  0  0  0  0  0  0  0  0
    0.4775    2.5671    0.8173 C   0  0  0  0  0  0  0  0  0  0  0  0
    0.6655    3.7253    0.5583 O   0  0  0  0  0  0  0  0  0  0  0  0
    0.7888    2.2080    2.0709 N   0  0  0  0  0  0  0  0  0  0  0  0
   -1.9792    0.4120    1.9525 S   0  0  0  0  0  0  0  0  0  0  0  0
   -0.7834   -0.5768    3.4586 C   0  0  0  0  0  0  0  0  0  0  0  0
   -2.1411    1.7953    2.3131 O   0  0  0  0  0  0  0  0  0  0  0  0
   -3.1487   -0.4594    1.8414 O   0  0  0  0  0  0  0  0  0  0  0  0
    0.3168   -0.0679    4.2002 C   0  0  0  0  0  0  0  0  0  0  0  0
    1.3684   -1.0392    4.4529 C   0  0  0  0  0  0  0  0  0  0  0  0
    1.2305   -2.2321    4.7977 C   0  0  0  0  0  0  0  0  0  0  0  0
   -0.1457   -2.4139    4.8652 C   0  0  0  0  0  0  0  0  0  0  0  0
   -1.0551   -1.8172    3.8852 C   0  0  0  0  0  0  0  0  0  0  0  0
    2.4848   -2.4549    5.6299 C   0  0  0  0  0  0  0  0  0  0  0  0
    2.0996   -3.0434    6.7256 N   0  0  0  0  0  0  0  0  0  0  0  0
    3.1021   -3.6019    7.5487 C   0  0  1  0  0  0  0  0  0  0  0  0
    2.5912   -3.4076    8.9642 C   0  0  0  0  0  0  0  0  0  0  0  0
    1.2087   -4.0237    9.2462 C   0  0  0  0  0  0  0  0  0  0  0  0
    1.1011   -5.5226    9.0624 C   0  0  0  0  0  0  0  0  0  0  0  0
    3.6094   -1.9272    5.5219 O   0  0  0  0  0  0  0  0  0  0  0  0
    3.4727   -4.9909    6.9905 C   0  0  0  0  0  0  0  0  0  0  0  0
    4.5812   -5.4848    7.0935 O   0  0  0  0  0  0  0  0  0  0  0  0
    2.4726   -5.6658    6.3838 O   0  0  0  0  0  0  0  0  0  0  0  0
    1.1332   -6.3065   10.1397 O   0  0  0  0  0  0  0  0  0  0  0  0
    0.9621   -6.0620    7.9761 O   0  0  0  0  0  0  0  0  0  0  0  0
    0.8797    0.8802    2.2148 C   0  0  0  0  0  0  0  0  0  0  0  0
    2.2996    0.2580    2.8263 C   0  0  0  0  0  0  0  0  0  0  0  0
    2.6403    1.0516    4.5899 C   0  0  0  0  0  0  0  0  0  0  0  0
    2.3193    0.4364    5.9456 O   0  0  0  0  0  0  0  0  0  0  0  0
    2.5720    2.2442    4.6774 O   0  0  0  0  0  0  0  0  0  0  0  0
  1  2  1  0
  1  5  1  0
  2  3  1  0
  3  9  1  0
  4  3  1  0
  4  5  1  0
  4  6  1  1
  6  7  2  0
  6  8  1  0
 10  9  1  0
 10 13  2  0
 10 17  1  0
 11  9  2  0
 12  9  2  0
 13 14  1  0
 14 15  2  0
 15 16  1  0
 15 18  1  0
 16 17  2  0
 18 19  1  0
 18 24  2  0
 20 19  1  0
 20 21  1  1
 20 25  1  0
 21 22  1  0
 22 23  1  0
 23 28  1  0
 23 29  2  0
 25 26  2  0
 25 27  1  0
 30  8  1  0
 30 31  1  0
 31 32  1  0
 32 33  1  0
 32 34  2  0
M  END
>  <DRUGBANK_ID>  (1) 
DB03558

>  <SECONDARY_ACCESSION_NUMBERS>  (1) 
EXPT03087

>  <COMMON_NAME>  (1) 
SP-876

>  <SYNONYMS>  (1) 
1-[(4-{[(1S)-1,3-Dicarboxypropyl]carbamoyl}phenyl)sulfonyl]-D-prolyl-Î²-alanine

$$$$
