
     RDKit          3D

 43 44  0  0  0  0  0  0  0  0999 V2000
   -1.0834    5.3308   -2.9751 C   0  0  0  0  0  0  0  0  0  0  0  0
   -1.2215    6.7182   -3.2464 C   0  0  0  0  0  0  0  0  0  0  0  0
   -0.4991    7.6560   -2.4789 C   0  0  0  0  0  0  0  0  0  0  0  0
    0.0092    7.1848   -1.2937 C   0  0  0  0  0  0  0  0  0  0  0  0
   -0.2636    5.8738   -0.9230 C   0  0  0  0  0  0  0  0  0  0  0  0
   -0.4432    4.8808   -1.8527 C   0  0  0  0  0  0  0  0  0  0  0  0
   -2.1741    6.9145   -4.3524 C   0  0  0  0  0  0  0  0  0  0  0  0
   -2.3761    6.0822   -5.2367 O   0  0  0  0  0  0  0  0  0  0  0  0
   -2.8311    8.0726   -4.3195 O   0  0  0  0  0  0  0  0  0  0  0  0
   -0.2024    8.9880   -2.5933 O   0  0  0  0  0  0  0  0  0  0  0  0
   -0.7799    9.6800   -3.6662 C   0  0  0  0  0  0  0  0  0  0  0  0
   -0.2547    9.1899   -5.0151 C   0  0  0  0  0  0  0  0  0  0  0  0
   -0.9387    8.7156   -5.9116 O   0  0  0  0  0  0  0  0  0  0  0  0
    1.0770    9.2544   -5.1713 O   0  0  0  0  0  0  0  0  0  0  0  0
   -0.1043    3.4307   -1.5719 C   0  0  0  0  0  0  0  0  0  0  0  0
    1.4019    2.9592   -1.5782 C   0  0  1  0  0  0  0  0  0  0  0  0
    2.4264    4.0984   -1.7848 C   0  0  0  0  0  0  0  0  0  0  0  0
    2.9955    4.2864   -2.8618 O   0  0  0  0  0  0  0  0  0  0  0  0
    2.6524    4.9866   -0.7685 N   0  0  0  0  0  0  0  0  0  0  0  0
    1.9507    5.0550    0.4868 C   0  0  0  0  0  0  0  0  0  0  0  0
    2.8012    5.1515    1.7011 C   0  0  0  0  0  0  0  0  0  0  0  0
    3.4862    6.5215    1.6867 C   0  0  0  0  0  0  0  0  0  0  0  0
    2.5373    7.7416    1.7244 C   0  0  0  0  0  0  0  0  0  0  0  0
    1.5735    7.7050    2.8981 C   0  0  0  0  0  0  0  0  0  0  0  0
    1.7189    2.1430   -0.3672 N   0  0  0  0  0  0  0  0  0  0  0  0
    1.5340    0.7730   -0.3280 C   0  0  0  0  0  0  0  0  0  0  0  0
    1.1041    0.1606   -1.3028 O   0  0  0  0  0  0  0  0  0  0  0  0
    1.8129    0.0737    1.0419 C   0  0  2  0  0  0  0  0  0  0  0  0
    0.5865   -1.9960    1.7888 C   0  0  0  0  0  0  0  0  0  0  0  0
    3.0295   -0.8559    0.8871 C   0  0  0  0  0  0  0  0  0  0  0  0
    4.2873   -0.1631    0.5003 C   0  0  0  0  0  0  0  0  0  0  0  0
    5.9818    1.4598    0.9865 C   0  0  0  0  0  0  0  0  0  0  0  0
    6.5278    1.2408   -0.2790 C   0  0  0  0  0  0  0  0  0  0  0  0
    5.9571    0.3157   -1.1538 C   0  0  0  0  0  0  0  0  0  0  0  0
    4.8275   -0.3843   -0.7674 C   0  0  0  0  0  0  0  0  0  0  0  0
    4.8924    0.7145    1.4006 C   0  0  0  0  0  0  0  0  0  0  0  0
    0.5884   -0.6502    1.4874 N   0  0  0  0  0  0  0  0  0  0  0  0
    1.6009   -2.6721    1.9142 O   0  0  0  0  0  0  0  0  0  0  0  0
   -0.7193   -2.6823    2.0699 C   0  0  0  0  0  0  0  0  0  0  0  0
   -1.0415   -3.7655    1.0343 C   0  0  0  0  0  0  0  0  0  0  0  0
    0.0324   -4.8286    0.8051 C   0  0  0  0  0  0  0  0  0  0  0  0
    1.1052   -4.6259    0.2592 O   0  0  0  0  0  0  0  0  0  0  0  0
   -0.3224   -6.0839    1.1630 O   0  0  0  0  0  0  0  0  0  0  0  0
  1  2  2  0
  1  6  1  0
  2  3  1  0
  2  7  1  0
  3  4  2  0
  3 10  1  0
  4  5  1  0
  5  6  2  0
  6 15  1  0
  7  9  1  0
  7  8  2  0
 10 11  1  0
 11 12  1  0
 12 13  2  0
 12 14  1  0
 16 17  1  0
 16 25  1  0
 16 15  1  1
 17 18  2  0
 17 19  1  0
 19 20  1  0
 20 21  1  0
 21 22  1  0
 22 23  1  0
 23 24  1  0
 25 26  1  0
 26 28  1  0
 26 27  2  0
 28 37  1  0
 28 30  1  6
 29 37  1  0
 29 39  1  0
 29 38  2  0
 30 31  1  0
 31 35  1  0
 31 36  2  0
 32 33  2  0
 32 36  1  0
 33 34  1  0
 34 35  2  0
 39 40  1  0
 40 41  1  0
 41 43  1  0
 41 42  2  0
M  END
>  <DRUGBANK_ID>  (1) 
DB04525

>  <SECONDARY_ACCESSION_NUMBERS>  (1) 
EXPT01897

>  <COMMON_NAME>  (1) 
N-(3-Carboxypropanoyl)-L-phenylalanyl-3-carboxy-O-(carboxymethyl)-N-pentyl-L-tyrosinamide

$$$$
