
     RDKit          3D

 32 34  0  0  1  0  0  0  0  0999 V2000
   -4.8420   -6.3230    0.3234 C   0  0  0  0  0  0  0  0  0  0  0  0
   -3.4364   -5.9627    0.3878 O   0  0  0  0  0  0  0  0  0  0  0  0
   -2.7967   -6.1504    1.5960 C   0  0  0  0  0  0  0  0  0  0  0  0
   -3.3795   -6.6208    2.5809 O   0  0  0  0  0  0  0  0  0  0  0  0
   -1.3494   -5.7441    1.6427 C   0  0  0  0  0  0  0  0  0  0  0  0
   -0.3183   -6.2479    2.4546 C   0  0  0  0  0  0  0  0  0  0  0  0
   -0.1884   -7.3750    3.4598 C   0  0  0  0  0  0  0  0  0  0  0  0
    1.0554   -7.1811    4.2368 N   0  0  0  0  0  0  0  0  0  0  0  0
    2.2331   -6.8795    3.4083 C   0  0  0  0  0  0  0  0  0  0  0  0
    2.0706   -5.5517    2.7908 C   0  0  0  0  0  0  0  0  0  0  0  0
    0.7758   -5.4491    2.1635 N   0  0  0  0  0  0  0  0  0  0  0  0
    0.4409   -4.4770    1.2675 C   0  0  0  0  0  0  0  0  0  0  0  0
   -0.8254   -4.6634    0.8954 N   0  0  0  0  0  0  0  0  0  0  0  0
    1.4498   -3.4072    0.8742 C   0  0  0  0  0  0  0  0  0  0  0  0
    1.7276   -3.4208   -0.4526 F   0  0  0  0  0  0  0  0  0  0  0  0
    1.0417   -2.1578    1.2069 F   0  0  0  0  0  0  0  0  0  0  0  0
    2.6675   -3.5374    1.4869 F   0  0  0  0  0  0  0  0  0  0  0  0
    1.1316   -7.4999    5.5984 C   0  0  0  0  0  0  0  0  0  0  0  0
    0.1549   -7.8588    6.2550 O   0  0  0  0  0  0  0  0  0  0  0  0
    2.5188   -7.5151    6.2472 C   0  0  0  0  0  0  0  0  0  0  0  0
    3.3915   -8.6620    5.6881 C   0  0  2  0  0  0  0  0  0  0  0  0
    2.9736   -9.0691    4.3388 N   0  0  0  0  0  0  0  0  0  0  0  0
    3.3535   -9.9311    6.5392 C   0  0  0  0  0  0  0  0  0  0  0  0
    4.0841  -11.0874    5.8682 C   0  0  0  0  0  0  0  0  0  0  0  0
    3.5815  -12.3770    6.0535 C   0  0  0  0  0  0  0  0  0  0  0  0
    4.1383  -13.4361    5.3449 C   0  0  0  0  0  0  0  0  0  0  0  0
    3.6581  -14.6695    5.5405 F   0  0  0  0  0  0  0  0  0  0  0  0
    5.1675  -13.2248    4.4306 C   0  0  0  0  0  0  0  0  0  0  0  0
    5.6823  -14.2500    3.7419 F   0  0  0  0  0  0  0  0  0  0  0  0
    5.6746  -11.9574    4.2195 C   0  0  0  0  0  0  0  0  0  0  0  0
    5.1648  -10.9117    4.9682 C   0  0  0  0  0  0  0  0  0  0  0  0
    5.6508   -9.6939    4.6874 F   0  0  0  0  0  0  0  0  0  0  0  0
  1  2  1  0
  2  3  1  0
  3  4  2  0
  3  5  1  0
  5  6  2  0
  5 13  1  0
  6  7  1  0
  6 11  1  0
  7  8  1  0
  8  9  1  0
  8 18  1  0
  9 10  1  0
 10 11  1  0
 11 12  1  0
 12 13  2  0
 12 14  1  0
 14 15  1  0
 14 16  1  0
 14 17  1  0
 18 19  2  0
 18 20  1  0
 21 23  1  0
 21 22  1  6
 21 20  1  0
 23 24  1  0
 24 25  2  0
 24 31  1  0
 25 26  1  0
 26 27  1  0
 26 28  2  0
 28 29  1  0
 28 30  1  0
 30 31  2  0
 31 32  1  0
M  END
>  <DRUGBANK_ID>  (1) 
DB14898

>  <COMMON_NAME>  (1) 
Retagliptin

>  <CAS_NUMBER>  (1) 
1174122-54-3

>  <UNII>  (1) 
328C4R3P9L

$$$$
