H24
     RDKit          3D

 24 26  0  0  0  0  0  0  0  0999 V2000
    0.9347    0.1233    0.0137 C   0  0  0  0  0  0  0  0  0  0  0  0
    0.3745    0.9889   -0.9658 O   0  0  0  0  0  0  0  0  0  0  0  0
    0.8184    2.2822   -0.9285 C   0  0  0  0  0  0  0  0  0  0  0  0
    2.1413    2.6602   -0.7006 C   0  0  0  0  0  0  0  0  0  0  0  0
    2.5191    4.0024   -0.7846 C   0  0  0  0  0  0  0  0  0  0  0  0
    1.5885    4.9656   -1.1450 C   0  0  0  0  0  0  0  0  0  0  0  0
    0.2810    4.5915   -1.4527 C   0  0  0  0  0  0  0  0  0  0  0  0
   -0.1161    3.2537   -1.2784 C   0  0  0  0  0  0  0  0  0  0  0  0
   -0.6208    5.5711   -2.0396 C   0  0  0  0  0  0  0  0  0  0  0  0
   -0.3332    6.1517   -3.2879 C   0  0  0  0  0  0  0  0  0  0  0  0
   -1.2300    7.0244   -3.8908 C   0  0  0  0  0  0  0  0  0  0  0  0
   -2.4373    7.2907   -3.2589 C   0  0  0  0  0  0  0  0  0  0  0  0
   -2.7750    6.6522   -2.0442 C   0  0  0  0  0  0  0  0  0  0  0  0
   -4.2230    6.6625   -1.5687 C   0  0  2  0  0  0  0  0  0  0  0  0
   -4.5097    5.8108   -0.3119 C   0  0  0  0  0  0  0  0  0  0  0  0
   -5.0322    6.0021   -2.6804 C   0  0  0  0  0  0  0  0  0  0  0  0
   -6.0903    6.8342   -3.2956 C   0  0  0  0  0  0  0  0  0  0  0  0
   -6.7660    6.3357   -4.2008 O   0  0  0  0  0  0  0  0  0  0  0  0
   -6.2790    8.1107   -2.8140 N   0  0  0  0  0  0  0  0  0  0  0  0
   -7.3584    8.8584   -3.4222 C   0  0  0  0  0  0  0  0  0  0  0  0
   -5.5210    8.6598   -1.8057 C   0  0  0  0  0  0  0  0  0  0  0  0
   -5.7348    9.9242   -1.3769 N   0  0  0  0  0  0  0  0  0  0  0  0
   -4.5764    8.0239   -1.2123 N   0  0  0  0  0  0  0  0  0  0  0  0
   -1.8181    5.8728   -1.4028 C   0  0  0  0  0  0  0  0  0  0  0  0
  1  2  1  0
  2  3  1  0
  3  4  2  0
  3  8  1  0
  4  5  1  0
  5  6  2  0
  6  7  1  0
  7  8  2  0
  7  9  1  0
  9 10  2  0
  9 24  1  0
 10 11  1  0
 11 12  2  0
 12 13  1  0
 13 24  2  0
 14 13  1  0
 14 15  1  1
 14 16  1  0
 14 23  1  0
 16 17  1  0
 17 18  2  0
 17 19  1  0
 19 20  1  0
 19 21  1  0
 21 23  2  0
 21 22  1  0
M  END
>  <DRUGBANK_ID>  (1) 
DB07874

>  <COMMON_NAME>  (1) 
(6S)-2-amino-6-(3'-methoxybiphenyl-3-yl)-3,6-dimethyl-5,6-dihydropyrimidin-4(3H)-one

$$$$
