
     RDKit          3D

 28 30  0  0  0  0  0  0  0  0999 V2000
   -6.3168   -3.3806    2.9440 C   0  0  0  0  0  0  0  0  0  0  0  0
   -5.1277   -2.8095    2.2055 C   0  0  1  0  0  0  0  0  0  0  0  0
   -4.0628   -3.8730    1.9132 C   0  0  1  0  0  0  0  0  0  0  0  0
   -6.6227   -4.6854    3.0549 C   0  0  0  0  0  0  0  0  0  0  0  0
   -5.8115   -5.7323    2.4886 C   0  0  0  0  0  0  0  0  0  0  0  0
   -4.6852   -5.2426    1.6278 C   0  0  2  0  0  0  0  0  0  0  0  0
   -3.5898   -6.2886    1.7400 C   0  0  2  0  0  0  0  0  0  0  0  0
   -3.6602   -7.6027    2.4112 C   0  0  0  0  0  0  0  0  0  0  0  0
   -5.0477   -8.1400    2.2665 C   0  0  0  0  0  0  0  0  0  0  0  0
   -5.9899   -7.0533    2.7393 C   0  0  0  0  0  0  0  0  0  0  0  0
   -5.5375   -2.1519    0.8923 C   0  0  0  0  0  0  0  0  0  0  0  0
   -2.2109   -5.7515    2.1190 O   0  0  0  0  0  0  0  0  0  0  0  0
   -1.3915   -5.2442    3.0958 C   0  0  0  0  0  0  0  0  0  0  0  0
   -3.0932   -3.3632    0.7507 C   0  0  0  0  0  0  0  0  0  0  0  0
   -1.8599   -4.1866    0.3140 C   0  0  0  0  0  0  0  0  0  0  0  0
   -1.8532   -5.5694   -0.2579 C   0  0  2  0  0  0  0  0  0  0  0  0
   -2.4349   -7.2350   -2.3273 C   0  0  0  0  0  0  0  0  0  0  0  0
   -1.3345   -7.6443   -1.3694 C   0  0  1  0  0  0  0  0  0  0  0  0
   -0.7022   -6.3890   -0.7807 C   0  0  0  0  0  0  0  0  0  0  0  0
   -2.9513   -5.3266   -1.0845 O   0  0  0  0  0  0  0  0  0  0  0  0
   -1.7847   -8.5653   -0.3683 O   0  0  0  0  0  0  0  0  0  0  0  0
   -1.6530   -5.3376    4.2506 O   0  0  0  0  0  0  0  0  0  0  0  0
   -0.0052   -4.3210    2.4329 C   0  0  2  0  0  0  0  0  0  0  0  0
   -0.1537   -2.7326    1.8789 C   0  0  0  0  0  0  0  0  0  0  0  0
    0.9332   -5.0572    1.4348 C   0  0  0  0  0  0  0  0  0  0  0  0
    1.1498   -2.0870    1.4647 C   0  0  0  0  0  0  0  0  0  0  0  0
   -3.4658   -6.2933   -1.8083 C   0  0  0  0  0  0  0  0  0  0  0  0
   -4.6382   -6.2457   -2.1303 O   0  0  0  0  0  0  0  0  0  0  0  0
  1  2  1  0
  1  4  2  0
  2  3  1  0
  2 11  1  6
  3  6  1  0
  3 14  1  6
  5  4  1  0
  6  5  1  1
  5 10  2  0
  6  7  1  0
  7 12  1  1
  7  8  1  0
  8  9  1  0
  9 10  1  0
 12 13  1  0
 13 22  2  0
 14 15  1  0
 16 15  1  6
 16 19  1  0
 16 20  1  0
 17 18  1  0
 17 27  1  0
 18 19  1  0
 18 21  1  1
 20 27  1  0
 23 25  1  6
 23 24  1  0
 23 13  1  0
 24 26  1  0
 27 28  2  0
M  END
>  <DRUGBANK_ID>  (1) 
DB06693

>  <COMMON_NAME>  (1) 
Mevastatin

>  <CAS_NUMBER>  (1) 
73573-88-3

>  <UNII>  (1) 
1UQM1K0W9X

>  <SYNONYMS>  (1) 
Compactin; Mevastatin; Mevastatina; MÃ©vastatine; Mevastatinum

$$$$
