
     RDKit          3D

 22 24  0  0  0  0  0  0  0  0999 V2000
    0.9936    0.0377    0.0100 S   0  0  0  0  0  0  0  0  0  0  0  0
    0.3646   -0.2499   -1.5283 N   0  0  0  0  0  0  0  0  0  0  0  0
   -0.4671   -1.3097   -1.9035 C   0  0  0  0  0  0  0  0  0  0  0  0
   -0.8119   -1.4078   -3.2475 N   0  0  0  0  0  0  0  0  0  0  0  0
   -1.6266   -2.5030   -3.6465 N   0  0  0  0  0  0  0  0  0  0  0  0
   -2.8211   -2.1456   -4.4125 C   0  0  0  0  0  0  0  0  0  0  0  0
   -3.3202   -3.5034   -4.9153 C   0  0  2  0  0  0  0  0  0  0  0  0
   -4.2868   -4.1991   -3.9494 C   0  0  0  0  0  0  0  0  0  0  0  0
   -3.9050   -5.6664   -4.0164 C   0  0  0  0  0  0  0  0  0  0  0  0
   -2.3874   -5.6214   -4.0860 C   0  0  0  0  0  0  0  0  0  0  0  0
   -2.0670   -4.4035   -4.9643 C   0  0  2  0  0  0  0  0  0  0  0  0
   -0.9310   -3.5175   -4.4437 C   0  0  0  0  0  0  0  0  0  0  0  0
   -0.8758   -2.1303   -1.0896 O   0  0  0  0  0  0  0  0  0  0  0  0
    0.5370   -1.2914    1.0952 C   0  0  0  0  0  0  0  0  0  0  0  0
    1.0186   -2.5700    0.8008 C   0  0  0  0  0  0  0  0  0  0  0  0
    0.6470   -3.6551    1.5890 C   0  0  0  0  0  0  0  0  0  0  0  0
   -0.1512   -3.4676    2.7215 C   0  0  0  0  0  0  0  0  0  0  0  0
   -0.5956   -2.1742    3.0403 C   0  0  0  0  0  0  0  0  0  0  0  0
   -0.2610   -1.0823    2.2254 C   0  0  0  0  0  0  0  0  0  0  0  0
   -0.5182   -4.6439    3.5783 C   0  0  0  0  0  0  0  0  0  0  0  0
    0.3725    1.2578    0.4855 O   0  0  0  0  0  0  0  0  0  0  0  0
    2.4371   -0.0165   -0.1241 O   0  0  0  0  0  0  0  0  0  0  0  0
  2  1  1  0
  3  2  1  0
  4  3  1  0
  5  4  1  0
  6  5  1  0
  7  6  1  1
  7  8  1  0
  9  8  1  0
  9 10  1  0
 11 10  1  1
 11 12  1  0
 11  7  1  0
 12  5  1  0
 13  3  2  0
 14  1  1  0
 15 14  2  0
 16 15  1  0
 17 16  2  0
 17 18  1  0
 18 19  2  0
 19 14  1  0
 20 17  1  0
 21  1  2  0
 22  1  2  0
M  END
>  <DRUGBANK_ID>  (1) 
DB01120

>  <SECONDARY_ACCESSION_NUMBERS>  (1) 
APRD00460

>  <COMMON_NAME>  (1) 
Gliclazide

>  <CAS_NUMBER>  (1) 
21187-98-4

>  <UNII>  (1) 
G4PX8C4HKV

>  <SYNONYMS>  (1) 
1-(3-azabicyclo(3.3.0)oct-3-yl)-3-(p-tolylsulfonyl)urea; 1-(hexahydrocyclopenta(c)pyrrol-2(1H)-yl)-3-(p-tolylsulfonyl)urea; Gliclazida; Gliclazide; Gliclazidum

$$$$
