
     RDKit          3D

 27 26  0  0  0  0  0  0  0  0999 V2000
    0.9317   -0.2402    0.3986 C   0  0  0  0  0  0  0  0  0  0  0  0
    0.3918   -1.1188   -0.7012 C   0  0  0  0  0  0  0  0  0  0  0  0
    1.1228   -2.2030   -1.2195 O   0  0  0  0  0  0  0  0  0  0  0  0
    2.5320   -1.8468   -1.3228 C   0  0  0  0  0  0  0  0  0  0  0  0
    3.0024   -0.4080   -1.8997 C   0  0  0  0  0  0  0  0  0  0  0  0
    2.3638    0.9075   -1.7472 O   0  0  0  0  0  0  0  0  0  0  0  0
    0.9618    1.0542   -2.2864 C   0  0  0  0  0  0  0  0  0  0  0  0
    0.3905   -0.2891   -3.1867 C   0  0  0  0  0  0  0  0  0  0  0  0
    0.9470   -1.5230   -3.8596 O   0  0  0  0  0  0  0  0  0  0  0  0
    2.3936   -1.6444   -4.2385 C   0  0  0  0  0  0  0  0  0  0  0  0
    3.0735   -0.2666   -4.5863 C   0  0  0  0  0  0  0  0  0  0  0  0
    2.5460    1.1053   -4.6549 O   0  0  0  0  0  0  0  0  0  0  0  0
    1.2220    1.3536   -5.1122 C   0  0  0  0  0  0  0  0  0  0  0  0
    0.4434    0.4467   -6.0519 C   0  0  0  0  0  0  0  0  0  0  0  0
    1.0182   -0.5952   -6.8009 O   0  0  0  0  0  0  0  0  0  0  0  0
    2.4254   -0.5366   -7.1997 C   0  0  0  0  0  0  0  0  0  0  0  0
    3.3092    0.7260   -7.5640 C   0  0  0  0  0  0  0  0  0  0  0  0
    2.6235    2.0288   -7.5734 O   0  0  0  0  0  0  0  0  0  0  0  0
    1.1847    2.1508   -7.9576 C   0  0  0  0  0  0  0  0  0  0  0  0
   -0.0333    1.2614   -8.7436 C   0  0  0  0  0  0  0  0  0  0  0  0
    0.4728    0.0705   -9.5403 O   0  0  0  0  0  0  0  0  0  0  0  0
    1.9412   -0.0803   -9.8418 C   0  0  0  0  0  0  0  0  0  0  0  0
    3.0570    1.0613  -10.4132 C   0  0  0  0  0  0  0  0  0  0  0  0
    2.8166    2.4854  -10.3215 O   0  0  0  0  0  0  0  0  0  0  0  0
    1.4436    2.7428  -10.4570 C   0  0  0  0  0  0  0  0  0  0  0  0
    0.5312    2.1724  -11.5391 C   0  0  0  0  0  0  0  0  0  0  0  0
    0.6536    0.7945  -11.8804 O   0  0  0  0  0  0  0  0  0  0  0  0
  1  2  1  0
  2  3  1  0
  3  4  1  0
  4  5  1  0
  5  6  1  0
  6  7  1  0
  7  8  1  0
  8  9  1  0
  9 10  1  0
 10 11  1  0
 11 12  1  0
 12 13  1  0
 13 14  1  0
 14 15  1  0
 15 16  1  0
 16 17  1  0
 17 18  1  0
 18 19  1  0
 19 20  1  0
 20 21  1  0
 21 22  1  0
 22 23  1  0
 23 24  1  0
 24 25  1  0
 25 26  1  0
 26 27  1  0
M  END
>  <DRUGBANK_ID>  (1) 
DB03556

>  <SECONDARY_ACCESSION_NUMBERS>  (1) 
EXPT02539

>  <COMMON_NAME>  (1) 
2-(2-{2-[2-(2-{2-[2-(2-Ethoxy-Ethoxy)-Ethoxy]-Ethoxy}-Ethoxy)-Ethoxy]-Ethoxy}-Ethoxy)-Ethanol, Polyethyleneglycol Peg400

$$$$
