
     RDKit          3D

 18 20  0  0  0  0  0  0  0  0999 V2000
   -2.9698    0.8803   -0.0731 O   0  0  0  0  0  0  0  0  0  0  0  0
   -4.0661   -1.4850   -0.9758 N   0  0  0  0  0  0  0  0  0  0  0  0
   -0.7450    1.4287    0.0192 N   0  0  0  0  0  0  0  0  0  0  0  0
   -1.1760   -0.8299   -0.0284 C   0  0  0  0  0  0  0  0  0  0  0  0
   -3.3108   -2.0073    0.0554 C   0  0  0  0  0  0  0  0  0  0  0  0
    0.2940   -0.6199   -0.0127 C   0  0  0  0  0  0  0  0  0  0  0  0
   -4.1986   -2.4654    1.0160 C   0  0  0  0  0  0  0  0  0  0  0  0
   -1.8837   -1.9751   -0.0037 C   0  0  0  0  0  0  0  0  0  0  0  0
    0.4728    0.7713    0.0248 C   0  0  0  0  0  0  0  0  0  0  0  0
   -5.4076   -1.5434   -0.6700 C   0  0  0  0  0  0  0  0  0  0  0  0
   -1.7998    0.5490   -0.0209 C   0  0  0  0  0  0  0  0  0  0  0  0
   -5.5142   -2.1590    0.5586 C   0  0  0  0  0  0  0  0  0  0  0  0
    1.4188   -1.4309   -0.0489 C   0  0  0  0  0  0  0  0  0  0  0  0
    1.7057    1.3943    0.0461 C   0  0  0  0  0  0  0  0  0  0  0  0
   -3.8587   -3.1017    2.3118 C   0  0  0  0  0  0  0  0  0  0  0  0
   -6.4555   -0.9815   -1.5625 C   0  0  0  0  0  0  0  0  0  0  0  0
    2.6909   -0.8189   -0.0412 C   0  0  0  0  0  0  0  0  0  0  0  0
    2.8319    0.5801    0.0156 C   0  0  0  0  0  0  0  0  0  0  0  0
  1 11  2  0
  2  5  1  0
  2 10  1  0
  3  9  1  0
  3 11  1  0
  4  6  1  0
  4  8  2  0
  4 11  1  0
  5  7  2  0
  5  8  1  0
  6  9  2  0
  6 13  1  0
  7 12  1  0
  7 15  1  0
  9 14  1  0
 10 12  2  0
 10 16  1  0
 13 17  2  0
 14 18  2  0
 17 18  1  0
M  END
>  <DRUGBANK_ID>  (1) 
DB06436

>  <COMMON_NAME>  (1) 
Semaxanib

>  <CAS_NUMBER>  (1) 
194413-58-6

>  <UNII>  (1) 
71IA9S35AJ

>  <SYNONYMS>  (1) 
Semaxanib

$$$$
