251
     RDKit          3D

 36 40  0  0  0  0  0  0  0  0999 V2000
    0.2014    1.1519   -0.0819 C   0  0  1  0  0  0  0  0  0  0  0  0
    0.2589    1.8856   -1.4456 C   0  0  0  0  0  0  0  0  0  0  0  0
    0.1086    2.1836    1.0722 C   0  0  0  0  0  0  0  0  0  0  0  0
   -0.9463    0.3321   -0.2050 O   0  0  0  0  0  0  0  0  0  0  0  0
   -0.0584    1.6765    2.4132 N   0  0  0  0  0  0  0  0  0  0  0  0
   -0.9206    1.2537    4.3785 N   0  0  0  0  0  0  0  0  0  0  0  0
    1.3241    0.2591    0.0942 O   0  0  0  0  0  0  0  0  0  0  0  0
   -5.2882    3.3073    1.7223 N   0  0  0  0  0  0  0  0  0  0  0  0
   -0.7131    2.8036   -1.9248 C   0  0  0  0  0  0  0  0  0  0  0  0
    0.8875    0.9396    3.0226 N   0  0  0  0  0  0  0  0  0  0  0  0
   -5.8359    6.1562    1.6383 N   0  0  0  0  0  0  0  0  0  0  0  0
    0.2784    0.6387    4.1743 C   0  0  0  0  0  0  0  0  0  0  0  0
   -1.0915    1.9315    3.2667 C   0  0  0  0  0  0  0  0  0  0  0  0
    1.3114    1.5806   -2.3294 C   0  0  0  0  0  0  0  0  0  0  0  0
   -0.6702    3.3122   -3.2269 C   0  0  0  0  0  0  0  0  0  0  0  0
   -4.7179    2.0500    1.7351 C   0  0  0  0  0  0  0  0  0  0  0  0
   -0.6284   -1.0280    0.1064 C   0  0  1  0  0  0  0  0  0  0  0  0
   -5.9869    3.8493    0.5426 C   0  0  0  0  0  0  0  0  0  0  0  0
   -4.9949    4.1321    2.8923 C   0  0  0  0  0  0  0  0  0  0  0  0
   -5.8059    5.3744    0.3833 C   0  0  0  0  0  0  0  0  0  0  0  0
   -4.7969    5.6019    2.5244 C   0  0  0  0  0  0  0  0  0  0  0  0
    0.8397   -1.0573   -0.2300 C   0  0  0  0  0  0  0  0  0  0  0  0
   -4.0415    1.5994    0.6417 C   0  0  0  0  0  0  0  0  0  0  0  0
   -4.7218    1.2356    2.8741 C   0  0  0  0  0  0  0  0  0  0  0  0
    0.3805    2.9855   -4.0596 C   0  0  0  0  0  0  0  0  0  0  0  0
   -7.1824    6.2956    2.2417 C   0  0  0  0  0  0  0  0  0  0  0  0
   -1.9858    3.5122   -1.0099 Cl  0  0  0  0  0  0  0  0  0  0  0  0
   -2.3959   -1.4389    1.9163 O   0  0  0  0  0  0  0  0  0  0  0  0
    1.3789    2.1331   -3.6120 C   0  0  0  0  0  0  0  0  0  0  0  0
   -3.1305   -0.2866    1.8640 C   0  0  0  0  0  0  0  0  0  0  0  0
   -0.9939   -1.4174    1.5513 C   0  0  0  0  0  0  0  0  0  0  0  0
   -3.8915    0.0981    2.9551 C   0  0  0  0  0  0  0  0  0  0  0  0
   -3.3238    0.4116    0.6821 C   0  0  0  0  0  0  0  0  0  0  0  0
    0.4612    3.6829   -5.6254 Cl  0  0  0  0  0  0  0  0  0  0  0  0
   -8.0037    5.0577    2.6423 C   0  0  0  0  0  0  0  0  0  0  0  0
   -7.1157    7.1933    3.4852 C   0  0  0  0  0  0  0  0  0  0  0  0
  1  2  1  0
  1  3  1  1
  4  1  1  0
  5  3  1  0
  6 13  2  0
  7  1  1  0
  8 16  1  0
  9  2  2  0
 10  5  1  0
 11 21  1  0
 12 10  2  0
 12  6  1  0
 13  5  1  0
 14  2  1  0
 15  9  1  0
 16 23  2  0
 17  4  1  0
 17 31  1  1
 18  8  1  0
 19  8  1  0
 20 18  1  0
 20 11  1  0
 21 19  1  0
 22  7  1  0
 22 17  1  0
 23 33  1  0
 24 32  2  0
 24 16  1  0
 25 29  1  0
 25 15  2  0
 26 11  1  0
 27  9  1  0
 28 31  1  0
 29 14  2  0
 30 28  1  0
 32 30  1  0
 33 30  2  0
 34 25  1  0
 35 26  1  0
 36 26  1  0
M  END
>  <DRUGBANK_ID>  (1) 
DB00251

>  <SECONDARY_ACCESSION_NUMBERS>  (1) 
APRD00659

>  <COMMON_NAME>  (1) 
Terconazole

>  <CAS_NUMBER>  (1) 
67915-31-5

>  <UNII>  (1) 
0KJ2VE664U

>  <SYNONYMS>  (1) 
Terconazole

$$$$
