
     RDKit          3D

 26 28  0  0  0  0  0  0  0  0999 V2000
   -1.2341    0.4692   -0.1672 O   0  0  0  0  0  0  0  0  0  0  0  0
    0.0493    0.9796   -0.0881 N   0  0  0  0  0  0  0  0  0  0  0  0
    0.8461   -0.0932   -0.0297 C   0  0  0  0  0  0  0  0  0  0  0  0
    2.3082    0.0474    0.0043 C   0  0  0  0  0  0  0  0  0  0  0  0
    0.1159   -1.2921   -0.0225 C   0  0  0  0  0  0  0  0  0  0  0  0
   -1.1835   -0.8870   -0.0704 C   0  0  0  0  0  0  0  0  0  0  0  0
   -2.4441   -1.6371    0.0350 C   0  0  0  0  0  0  0  0  0  0  0  0
   -3.1435   -1.2938    1.3577 C   0  0  0  0  0  0  0  0  0  0  0  0
   -3.6080    0.1743    1.4141 C   0  0  0  0  0  0  0  0  0  0  0  0
   -4.4393    0.4739    0.1938 C   0  0  0  0  0  0  0  0  0  0  0  0
   -5.5954   -0.5030    0.2313 C   0  0  0  0  0  0  0  0  0  0  0  0
   -6.7153   -0.0901    1.1795 C   0  0  0  0  0  0  0  0  0  0  0  0
   -7.1788    1.3643    1.0352 C   0  0  0  0  0  0  0  0  0  0  0  0
   -8.0312    1.6828   -0.0939 O   0  0  0  0  0  0  0  0  0  0  0  0
   -7.5745    1.4633   -1.3641 C   0  0  0  0  0  0  0  0  0  0  0  0
   -7.3466    0.1882   -1.8577 C   0  0  0  0  0  0  0  0  0  0  0  0
   -6.5504   -0.0119   -2.9966 C   0  0  0  0  0  0  0  0  0  0  0  0
   -6.4164    1.0247   -3.8866 C   0  0  0  0  0  0  0  0  0  0  0  0
   -7.0223    2.2464   -3.5847 C   0  0  0  0  0  0  0  0  0  0  0  0
   -7.5086    2.4953   -2.2847 C   0  0  0  0  0  0  0  0  0  0  0  0
   -5.6724    0.8564   -5.1461 C   0  0  0  0  0  0  0  0  0  0  0  0
   -4.8460    1.7011   -5.6320 N   0  0  0  0  0  0  0  0  0  0  0  0
   -4.5792    1.1824   -6.9842 C   0  0  2  0  0  0  0  0  0  0  0  0
   -5.3353    2.0845   -7.9523 C   0  0  0  0  0  0  0  0  0  0  0  0
   -5.1121   -0.2399   -6.9647 C   0  0  0  0  0  0  0  0  0  0  0  0
   -5.9685   -0.2854   -5.8260 O   0  0  0  0  0  0  0  0  0  0  0  0
  2  1  1  0
  3  2  2  0
  3  4  1  0
  3  5  1  0
  5  6  2  0
  6  1  1  0
  7  6  1  0
  7  8  1  0
  8  9  1  0
  9 10  1  0
 10 11  1  0
 11 12  1  0
 12 13  1  0
 13 14  1  0
 15 14  1  0
 15 16  2  0
 15 20  1  0
 16 17  1  0
 17 18  2  0
 18 19  1  0
 19 20  2  0
 21 18  1  0
 21 22  2  0
 21 26  1  0
 23 22  1  0
 23 24  1  6
 23 25  1  0
 25 26  1  0
M  END
>  <DRUGBANK_ID>  (1) 
DB08727

>  <COMMON_NAME>  (1) 
3-Methyl-5-(7-{4-[(4R)-4-methyl-4,5-dihydro-1,3-oxazol-2-yl]phenoxy}heptyl)-1,2-oxazole

>  <CAS_NUMBER>  (1) 
98524-87-9

$$$$
