
     RDKit          3D

 16 16  0  0  0  0  0  0  0  0999 V2000
   -1.5496   -1.7590    0.0160 C   0  0  0  0  0  0  0  0  0  0  0  0
   -0.4184   -0.7712   -0.0047 C   0  0  0  0  0  0  0  0  0  0  0  0
    0.8230   -1.3100   -0.0115 N   0  0  0  0  0  0  0  0  0  0  0  0
    1.8689   -0.4634   -0.0325 C   0  0  0  0  0  0  0  0  0  0  0  0
    1.7554    0.9272   -0.0296 C   0  0  0  0  0  0  0  0  0  0  0  0
    3.0416    1.7197    0.0167 C   0  0  0  0  0  0  0  0  0  0  0  0
    3.7437    1.5233    1.2464 O   0  0  0  0  0  0  0  0  0  0  0  0
    2.7632    1.8082    2.6429 P   0  0  0  0  0  0  0  0  0  0  0  0
    4.1389    1.5485    3.4992 O   0  0  0  0  0  0  0  0  0  0  0  0
    3.0820    3.4010    2.3815 O   0  0  0  0  0  0  0  0  0  0  0  0
    1.8856    2.0631    3.8928 O   0  0  0  0  0  0  0  0  0  0  0  0
    0.4547    1.4971   -0.0210 C   0  0  0  0  0  0  0  0  0  0  0  0
    0.2680    2.9983   -0.0376 C   0  0  0  0  0  0  0  0  0  0  0  0
    0.8042    3.6229    1.1706 N   0  0  0  0  0  0  0  0  0  0  0  0
   -0.6440    0.6135   -0.0144 C   0  0  0  0  0  0  0  0  0  0  0  0
   -1.9484    1.0180   -0.0153 O   0  0  0  0  0  0  0  0  0  0  0  0
  1  2  1  0
  2  3  2  0
  2 15  1  0
  3  4  1  0
  4  5  2  0
  5  6  1  0
  5 12  1  0
  6  7  1  0
  7  8  1  0
  8  9  1  0
  8 10  1  0
  8 11  2  0
 12 13  1  0
 12 15  2  0
 13 14  1  0
 15 16  1  0
M  END
>  <DRUGBANK_ID>  (1) 
DB02142

>  <SECONDARY_ACCESSION_NUMBERS>  (1) 
EXPT02621

>  <COMMON_NAME>  (1) 
Pyridoxamine-5'-Phosphate

>  <CAS_NUMBER>  (1) 
529-96-4

>  <UNII>  (1) 
Q05R77UO7P

>  <SYNONYMS>  (1) 
Pyridoxamine phosphate

$$$$
