
     RDKit          3D

 26 29  0  0  1  0  0  0  0  0999 V2000
    2.4926   -0.6515    0.0363 C   0  0  0  0  0  0  0  0  0  0  0  0
    2.4278    0.7379   -0.0661 C   0  0  0  0  0  0  0  0  0  0  0  0
    1.1901    1.3802   -0.0805 C   0  0  0  0  0  0  0  0  0  0  0  0
    0.0186    0.6309   -0.0034 C   0  0  0  0  0  0  0  0  0  0  0  0
    0.0756   -0.7690    0.0371 C   0  0  0  0  0  0  0  0  0  0  0  0
    1.3206   -1.4038    0.0913 C   0  0  0  0  0  0  0  0  0  0  0  0
   -1.1768   -1.5935    0.0209 C   0  0  0  0  0  0  0  0  0  0  0  0
   -2.3576   -0.7344   -0.3893 C   0  0  0  0  0  0  0  0  0  0  0  0
   -2.2936    0.5625    0.4209 C   0  0  1  0  0  0  0  0  0  0  0  0
   -1.1573    1.3377   -0.0049 O   0  0  0  0  0  0  0  0  0  0  0  0
   -3.5531    1.4172    0.2208 C   0  0  0  0  0  0  0  0  0  0  0  0
   -4.7686    0.7197    0.6758 N   0  0  0  0  0  0  0  0  0  0  0  0
   -5.9813    1.5016    0.4358 C   0  0  0  0  0  0  0  0  0  0  0  0
   -6.1787    1.8172   -1.0195 C   0  0  0  0  0  0  0  0  0  0  0  0
   -6.3653    0.8081   -1.9716 C   0  0  0  0  0  0  0  0  0  0  0  0
   -6.4154    1.1200   -3.3343 C   0  0  0  0  0  0  0  0  0  0  0  0
   -6.2892    2.4647   -3.6735 C   0  0  0  0  0  0  0  0  0  0  0  0
   -6.1164    3.4708   -2.7827 N   0  0  0  0  0  0  0  0  0  0  0  0
   -6.0595    3.1221   -1.4808 C   0  0  0  0  0  0  0  0  0  0  0  0
   -6.5779    0.0664   -4.3382 C   0  0  0  0  0  0  0  0  0  0  0  0
   -7.7241   -0.7468   -4.3272 C   0  0  0  0  0  0  0  0  0  0  0  0
   -7.8622   -1.7983   -5.2352 C   0  0  0  0  0  0  0  0  0  0  0  0
   -6.8569   -2.0343   -6.1617 C   0  0  0  0  0  0  0  0  0  0  0  0
   -5.7215   -1.2362   -6.2076 C   0  0  0  0  0  0  0  0  0  0  0  0
   -5.5816   -0.1845   -5.2968 C   0  0  0  0  0  0  0  0  0  0  0  0
   -6.9821   -3.0543   -7.0226 F   0  0  0  0  0  0  0  0  0  0  0  0
  1  2  2  0
  1  6  1  0
  2  3  1  0
  3  4  2  0
  4  5  1  0
  4 10  1  0
  5  6  2  0
  5  7  1  0
  7  8  1  0
  8  9  1  0
  9 10  1  0
  9 11  1  6
 11 12  1  0
 12 13  1  0
 13 14  1  0
 14 15  2  0
 14 19  1  0
 15 16  1  0
 16 17  2  0
 16 20  1  0
 17 18  1  0
 18 19  2  0
 20 21  2  0
 20 25  1  0
 21 22  1  0
 22 23  2  0
 23 24  1  0
 23 26  1  0
 24 25  2  0
M  END
>  <DRUGBANK_ID>  (1) 
DB06454

>  <COMMON_NAME>  (1) 
Sarizotan

>  <CAS_NUMBER>  (1) 
351862-32-3

>  <UNII>  (1) 
467LU0UCUW

>  <SYNONYMS>  (1) 
Sarizotan

$$$$
