AL6
     RDKit          3D

 23 25  0  0  0  0  0  0  0  0999 V2000
   -2.5842   -0.1143   -0.0196 C   0  0  0  0  0  0  0  0  0  0  0  0
    5.0911    4.0695    1.7533 O   0  0  0  0  0  0  0  0  0  0  0  0
    2.1343   -0.7956    0.0223 C   0  0  0  0  0  0  0  0  0  0  0  0
    0.9142   -1.3724   -0.0084 C   0  0  0  0  0  0  0  0  0  0  0  0
    3.5666    1.2380    0.0857 C   0  0  0  0  0  0  0  0  0  0  0  0
    4.3642    1.0651   -1.0410 C   0  0  0  0  0  0  0  0  0  0  0  0
    5.5206    1.8198   -1.1634 C   0  0  0  0  0  0  0  0  0  0  0  0
    5.8318    2.7834   -0.2020 C   0  0  0  0  0  0  0  0  0  0  0  0
    4.9756    3.0338    0.8678 C   0  0  0  0  0  0  0  0  0  0  0  0
    3.8810    2.2061    1.0484 C   0  0  0  0  0  0  0  0  0  0  0  0
   -4.6785    0.5719    1.2731 O   0  0  0  0  0  0  0  0  0  0  0  0
   -4.7101    0.5929   -1.2705 O   0  0  0  0  0  0  0  0  0  0  0  0
   -4.8619   -1.5788    0.0167 N   0  0  0  0  0  0  0  0  0  0  0  0
   -4.3290    0.0081   -0.0061 S   0  0  0  0  0  0  0  0  0  0  0  0
   -1.6744   -1.1668   -0.0161 C   0  0  0  0  0  0  0  0  0  0  0  0
   -0.3416   -0.6812   -0.0122 C   0  0  0  0  0  0  0  0  0  0  0  0
   -0.3456    0.6836   -0.0117 C   0  0  0  0  0  0  0  0  0  0  0  0
   -1.8459    1.4125   -0.0265 S   0  0  0  0  0  0  0  0  0  0  0  0
    1.0169    1.7219    0.0555 S   0  0  0  0  0  0  0  0  0  0  0  0
    0.8767    2.4118    1.3175 O   0  0  0  0  0  0  0  0  0  0  0  0
    1.0408    2.4072   -1.2233 O   0  0  0  0  0  0  0  0  0  0  0  0
    2.2935    0.6231    0.1550 N   0  0  0  0  0  0  0  0  0  0  0  0
    6.1392    4.9899    1.4700 C   0  0  0  0  0  0  0  0  0  0  0  0
  1 14  1  0
  1 15  2  0
  1 18  1  0
  2  9  1  0
  2 23  1  0
  3  4  2  0
  3 22  1  0
  4 16  1  0
  5  6  2  0
  5 10  1  0
  5 22  1  0
  6  7  1  0
  7  8  2  0
  8  9  1  0
  9 10  2  0
 11 14  2  0
 12 14  2  0
 13 14  1  0
 15 16  1  0
 16 17  2  0
 17 18  1  0
 17 19  1  0
 19 20  2  0
 19 21  2  0
 19 22  1  0
M  END
>  <DRUGBANK_ID>  (1) 
DB04371

>  <SECONDARY_ACCESSION_NUMBERS>  (1) 
EXPT00490

>  <COMMON_NAME>  (1) 
AL6528

$$$$
