
     RDKit          3D

 25 24  0  0  0  0  0  0  0  0999 V2000
    1.4491   -0.1440   -0.3360 C   0  0  0  0  0  0  0  0  0  0  0  0
   -0.8080   -0.9417   -0.4531 C   0  0  0  0  0  0  0  0  0  0  0  0
    0.9637    1.1631   -0.3804 C   0  0  0  0  0  0  0  0  0  0  0  0
   -1.2986    0.3571   -0.3975 C   0  0  0  0  0  0  0  0  0  0  0  0
   -0.3995    1.4180   -0.3458 C   0  0  0  0  0  0  0  0  0  0  0  0
    1.1367   -2.6226   -0.1126 C   0  0  0  0  0  0  0  0  0  0  0  0
   -0.8359   -3.5477    1.1512 C   0  0  0  0  0  0  0  0  0  0  0  0
   -1.3788   -4.1678   -0.1488 C   0  0  0  0  0  0  0  0  0  0  0  0
   -0.9964   -5.6269   -0.3042 C   0  0  0  0  0  0  0  0  0  0  0  0
   -1.4092   -6.3863    0.9548 C   0  0  0  0  0  0  0  0  0  0  0  0
   -2.9327   -6.4021    0.9959 C   0  0  0  0  0  0  0  0  0  0  0  0
   -3.4353   -7.0913   -0.2743 C   0  0  0  0  0  0  0  0  0  0  0  0
   -2.8314   -8.4998   -0.3408 C   0  0  0  0  0  0  0  0  0  0  0  0
   -3.2907   -9.2844    0.8907 C   0  0  0  0  0  0  0  0  0  0  0  0
   -4.8211   -9.3312    0.9055 C   0  0  0  0  0  0  0  0  0  0  0  0
   -5.3231  -10.0030   -0.3764 C   0  0  0  0  0  0  0  0  0  0  0  0
   -4.7807  -11.4333   -0.4616 C   0  0  0  0  0  0  0  0  0  0  0  0
   -5.2647  -12.2660    0.7301 C   0  0  0  0  0  0  0  0  0  0  0  0
   -6.7919  -12.3199    0.7886 C   0  0  0  0  0  0  0  0  0  0  0  0
    1.4465   -4.7513    1.2105 C   0  0  0  0  0  0  0  0  0  0  0  0
    1.0942   -2.7218    2.4201 C   0  0  0  0  0  0  0  0  0  0  0  0
   -7.3500  -12.9514   -0.4763 C   0  0  0  0  0  0  0  0  0  0  0  0
    0.5615   -1.2343   -0.3229 C   0  0  0  0  0  0  0  0  0  0  0  0
    0.6901   -3.4357    1.1326 N   0  0  0  0  0  0  0  0  0  0  0  0
    0.2223    0.6905    3.2680 Cl  0  0  0  0  0  0  0  0  0  0  0  0
  1 23  2  0
  1  3  1  0
  2 23  1  0
  2  4  2  0
  3  5  2  0
  4  5  1  0
  6 23  1  0
  6 24  1  0
  7 24  1  0
  7  8  1  0
  8  9  1  0
  9 10  1  0
 10 11  1  0
 11 12  1  0
 12 13  1  0
 13 14  1  0
 14 15  1  0
 15 16  1  0
 16 17  1  0
 17 18  1  0
 18 19  1  0
 19 22  1  0
 20 24  1  0
 21 24  1  0
M  CHG  2  24   1  25  -1
M  END
>  <DRUGBANK_ID>  (1) 
DB16590

>  <COMMON_NAME>  (1) 
N-Alkyl dimethyl benzyl ammonium chloride (C12-C18)

>  <CAS_NUMBER>  (1) 
68391-01-5

>  <UNII>  (1) 
9U1Q4T4ZYS

>  <SYNONYMS>  (1) 
(C12-C18) Alkyldimethylbenzyl ammonium chloride; (C12-C18)Alkylbenzyldimethylammonium chloride; (C12-C18)Alkyldimethylbenzylammonium chloride; Alkyl(C12-C18)benzyldimethylammonium chloride; C12-18-Alkyldimethylbenzyl ammonium chlorides

$$$$
