
     RDKit          3D

 21 24  0  0  1  0  0  0  0  0999 V2000
    0.1058    0.3987    0.7278 C   0  0  0  0  0  0  0  0  0  0  0  0
   -1.3679    0.9339    1.1573 C   0  0  1  0  0  0  0  0  0  0  0  0
   -2.7089   -0.1172    1.5732 C   0  0  0  0  0  0  0  0  0  0  0  0
   -2.3233   -1.5344    1.4048 C   0  0  0  0  0  0  0  0  0  0  0  0
   -1.0865   -1.6476    2.3580 C   0  0  1  0  0  0  0  0  0  0  0  0
    0.0117   -2.1295    1.5505 O   0  0  0  0  0  0  0  0  0  0  0  0
   -0.6803   -0.2373    3.2239 C   0  0  0  0  0  0  0  0  0  0  0  0
   -1.2694    1.1592    2.6723 C   0  0  1  0  0  0  0  0  0  0  0  0
   -0.7607    2.4629    3.2113 C   0  0  0  0  0  0  0  0  0  0  0  0
   -1.4292    3.6251    2.4501 C   0  0  0  0  0  0  0  0  0  0  0  0
   -0.9489    3.5351    1.0303 C   0  0  2  0  0  0  0  0  0  0  0  0
   -0.8329    4.9246    0.2513 C   0  0  2  0  0  0  0  0  0  0  0  0
    0.3314    4.6713   -0.6992 C   0  0  2  0  0  0  0  0  0  0  0  0
    0.6216    5.7239   -1.8502 C   0  0  0  0  0  0  0  0  0  0  0  0
   -0.3811    3.6013   -1.6672 C   0  0  0  0  0  0  0  0  0  0  0  0
   -0.7120    2.2690   -1.0892 C   0  0  0  0  0  0  0  0  0  0  0  0
   -1.5287    2.2951    0.2658 C   0  0  1  0  0  0  0  0  0  0  0  0
    1.6066    4.7762    0.6220 C   0  0  2  0  0  0  0  0  0  0  0  0
    1.3101    4.7282    2.2200 O   0  0  0  0  0  0  0  0  0  0  0  0
    1.2172    6.2167    0.8784 C   0  0  0  0  0  0  0  0  0  0  0  0
   -0.3386    6.1977    0.9702 C   0  0  0  0  0  0  0  0  0  0  0  0
  2  1  1  6
  3  2  1  0
  4  3  1  0
  5  4  1  0
  5  7  1  0
  5  6  1  6
  8  7  1  6
  8  2  1  0
  9  8  1  0
 10  9  1  0
 11 10  1  1
 11 17  1  0
 12 11  1  0
 13 12  1  0
 13 15  1  0
 13 14  1  6
 15 16  1  0
 17 16  1  6
 17  2  1  0
 18 13  1  0
 18 20  1  0
 18 19  1  1
 20 21  1  0
 12 21  1  1
M  END
>  <DRUGBANK_ID>  (1) 
DB01530

>  <COMMON_NAME>  (1) 
5alpha-androstane-3alpha,17beta-diol

>  <CAS_NUMBER>  (1) 
1852-53-5

>  <UNII>  (1) 
J34MX0M30Y

>  <SYNONYMS>  (1) 
17beta-dihydroandrosterone; 3alpha-androstanediol; 3alpha,17beta-dihydroxy-5alpha-androstane; 3α,17β-dihydroxy-5α-androstane; Dihydroandrosterone; hombreol

$$$$
