
     RDKit          3D

 29 33  0  0  0  0  0  0  0  0999 V2000
   -2.0470   -0.0714   -0.0627 C   0  0  0  0  0  0  0  0  0  0  0  0
   -0.6006   -0.1184   -0.0077 N   0  0  0  0  0  0  0  0  0  0  0  0
    0.2101   -1.2284   -0.0204 C   0  0  0  0  0  0  0  0  0  0  0  0
    1.5165   -0.7751   -0.0746 C   0  0  0  0  0  0  0  0  0  0  0  0
    1.3700    0.6368   -0.0389 C   0  0  0  0  0  0  0  0  0  0  0  0
    0.0933    1.0358    0.0168 N   0  0  0  0  0  0  0  0  0  0  0  0
    2.7387   -1.5546   -0.0868 C   0  0  0  0  0  0  0  0  0  0  0  0
    3.6730   -1.4090    0.8795 C   0  0  0  0  0  0  0  0  0  0  0  0
    4.8398   -2.1602    0.8349 N   0  0  0  0  0  0  0  0  0  0  0  0
    5.8980   -2.1788    1.6871 N   0  0  0  0  0  0  0  0  0  0  0  0
    6.7449   -3.0692    1.1589 C   0  0  0  0  0  0  0  0  0  0  0  0
    6.2672   -3.6345   -0.0269 C   0  0  0  0  0  0  0  0  0  0  0  0
    5.0398   -3.0443   -0.1949 C   0  0  0  0  0  0  0  0  0  0  0  0
    4.0216   -3.1586   -1.1821 C   0  0  0  0  0  0  0  0  0  0  0  0
    2.9183   -2.4520   -1.1552 N   0  0  0  0  0  0  0  0  0  0  0  0
    4.3299   -4.0891   -2.2542 C   0  0  0  0  0  0  0  0  0  0  0  0
    4.2760   -5.4993   -2.3169 C   0  0  0  0  0  0  0  0  0  0  0  0
    4.4178   -5.9585   -3.5756 N   0  0  0  0  0  0  0  0  0  0  0  0
    4.5915   -4.8271   -4.3089 N   0  0  0  0  0  0  0  0  0  0  0  0
    4.9167   -3.7699   -3.4689 C   0  0  0  0  0  0  0  0  0  0  0  0
    3.8568   -4.5553   -5.5680 C   0  0  1  0  0  0  0  0  0  0  0  0
    2.9043   -5.8074   -6.1590 C   0  0  0  0  0  0  0  0  0  0  0  0
    1.7613   -4.9385   -5.6600 C   0  0  0  0  0  0  0  0  0  0  0  0
    0.8131   -4.2177   -5.2460 N   0  0  0  0  0  0  0  0  0  0  0  0
    3.0457   -3.0413   -5.0599 C   0  0  0  0  0  0  0  0  0  0  0  0
    3.0688   -2.6443   -6.5476 C   0  0  1  0  0  0  0  0  0  0  0  0
    4.3337   -3.6002   -6.6862 C   0  0  0  0  0  0  0  0  0  0  0  0
    1.9081   -2.9072   -7.3780 C   0  0  0  0  0  0  0  0  0  0  0  0
    0.9580   -3.2304   -8.0076 N   0  0  0  0  0  0  0  0  0  0  0  0
  1  2  1  0
  2  3  1  0
  2  6  1  0
  3  4  2  0
  4  5  1  0
  4  7  1  0
  5  6  2  0
  7  8  2  0
  7 15  1  0
  8  9  1  0
  9 10  1  0
  9 13  1  0
 10 11  2  0
 11 12  1  0
 12 13  2  0
 13 14  1  0
 14 15  2  0
 14 16  1  0
 16 17  1  0
 16 20  2  0
 17 18  2  0
 18 19  1  0
 19 20  1  0
 21 19  1  0
 21 22  1  6
 21 25  1  0
 21 27  1  0
 22 23  1  0
 23 24  3  0
 26 25  1  0
 26 27  1  0
 26 28  1  6
 28 29  3  0
M  END
>  <DRUGBANK_ID>  (1) 
DB18709

>  <COMMON_NAME>  (1) 
Ropsacitinib

>  <CAS_NUMBER>  (1) 
2127109-84-4

>  <UNII>  (1) 
HY5SOV7O0Q

>  <SYNONYMS>  (1) 
Cyclobutaneacetonitrile, 3-cyano-1-(4-(6-(1-methyl-1h-pyrazol-4- yl)pyrazolo(1,5-a)pyrazin-4-yl)-1h-pyrazol-1-yl)-, trans-; Ropsacitinib; Trans-3-cyano-1-(4-(6-(1-methyl-1h-pyrazol-4-yl)pyrazolo(1,5-a)pyrazin-4-yl)- 1h-pyrazol-1-yl)-cyclobutaneacetonitrile

$$$$
