
     RDKit          3D

 18 19  0  0  0  0  0  0  0  0999 V2000
    0.9592   -0.0698   -0.1078 O   0  0  0  0  0  0  0  0  0  0  0  0
    0.5320    0.9217    0.8157 C   0  0  0  0  0  0  0  0  0  0  0  0
    1.0348    0.6123    2.2238 C   0  0  2  0  0  0  0  0  0  0  0  0
    0.1241   -0.4080    2.9021 C   0  0  1  0  0  0  0  0  0  0  0  0
    0.8408   -1.2749    3.7856 O   0  0  0  0  0  0  0  0  0  0  0  0
   -0.7934    0.4722    3.6903 C   0  0  0  0  0  0  0  0  0  0  0  0
    0.1011    1.6535    4.0961 C   0  0  1  0  0  0  0  0  0  0  0  0
    0.9901    1.8566    2.9903 O   0  0  0  0  0  0  0  0  0  0  0  0
   -0.6363    2.8323    4.5575 N   0  0  0  0  0  0  0  0  0  0  0  0
   -1.5039    2.5169    5.5911 C   0  0  0  0  0  0  0  0  0  0  0  0
   -1.8237    1.3806    5.9458 O   0  0  0  0  0  0  0  0  0  0  0  0
   -2.0239    3.5242    6.3011 N   0  0  0  0  0  0  0  0  0  0  0  0
   -2.0000    4.8220    5.9480 C   0  0  0  0  0  0  0  0  0  0  0  0
   -2.6644    5.6370    6.5751 O   0  0  0  0  0  0  0  0  0  0  0  0
   -1.1266    5.1732    4.7923 C   0  0  0  0  0  0  0  0  0  0  0  0
   -0.4177    4.1743    4.2103 C   0  0  0  0  0  0  0  0  0  0  0  0
   -1.1431    6.6506    4.4624 C   0  0  0  0  0  0  0  0  0  0  0  0
   -2.5367    7.1285    4.0278 C   0  0  0  0  0  0  0  0  0  0  0  0
  1  2  1  0
  3  2  1  6
  3  4  1  0
  3  8  1  0
  4  5  1  1
  4  6  1  0
  6  7  1  0
  7  8  1  0
  7  9  1  6
  9 10  1  0
  9 16  1  0
 10 11  2  0
 10 12  1  0
 12 13  1  0
 13 14  2  0
 13 15  1  0
 15 16  2  0
 15 17  1  0
 17 18  1  0
M  END
>  <DRUGBANK_ID>  (1) 
DB13421

>  <COMMON_NAME>  (1) 
Edoxudine

>  <CAS_NUMBER>  (1) 
15176-29-1

>  <UNII>  (1) 
15ZQM81Y3R

>  <SYNONYMS>  (1) 
2'-Deoxy-5-ethyluridine; 5-Ethyl-2'-deoxyuridine; Edoxudine

$$$$
