
     RDKit          3D

 28 30  0  0  0  0  0  0  0  0999 V2000
    1.0333   -1.2096   -0.0318 C   0  0  0  0  0  0  0  0  0  0  0  0
    0.1624    0.0275    0.0305 C   0  0  0  0  0  0  0  0  0  0  0  0
    0.9472    1.3170    0.0161 C   0  0  0  0  0  0  0  0  0  0  0  0
   -1.1676    0.1160    0.7611 C   0  0  0  0  0  0  0  0  0  0  0  0
   -1.6505   -0.9207    1.7118 C   0  0  0  0  0  0  0  0  0  0  0  0
   -2.2580   -0.6497    2.8867 C   0  0  0  0  0  0  0  0  0  0  0  0
   -2.8313   -1.8916    3.9429 Cl  0  0  0  0  0  0  0  0  0  0  0  0
   -2.5274    0.9779    3.4282 Cl  0  0  0  0  0  0  0  0  0  0  0  0
   -1.1637   -0.0540   -0.7287 C   0  0  0  0  0  0  0  0  0  0  0  0
   -1.5150    0.9691   -1.7827 C   0  0  0  0  0  0  0  0  0  0  0  0
   -1.6136    0.5465   -2.9322 O   0  0  0  0  0  0  0  0  0  0  0  0
   -1.8037    2.2700   -1.4151 O   0  0  0  0  0  0  0  0  0  0  0  0
   -2.4179    3.2368   -2.4436 C   0  0  0  0  0  0  0  0  0  0  0  0
   -1.7740    3.0769   -3.8112 C   0  0  0  0  0  0  0  0  0  0  0  0
   -1.2398    2.9441   -4.9456 N   0  0  0  0  0  0  0  0  0  0  0  0
   -3.9228    2.9189   -2.5011 C   0  0  0  0  0  0  0  0  0  0  0  0
   -4.3801    1.5818   -2.5478 C   0  0  0  0  0  0  0  0  0  0  0  0
   -5.7153    1.2291   -2.5530 C   0  0  0  0  0  0  0  0  0  0  0  0
   -6.6545    2.2246   -2.5408 C   0  0  0  0  0  0  0  0  0  0  0  0
   -6.2637    3.5629   -2.4353 C   0  0  0  0  0  0  0  0  0  0  0  0
   -7.1815    4.5724   -2.2355 O   0  0  0  0  0  0  0  0  0  0  0  0
   -8.4582    4.2167   -1.8424 C   0  0  0  0  0  0  0  0  0  0  0  0
   -8.7429    3.3554   -0.7688 C   0  0  0  0  0  0  0  0  0  0  0  0
  -10.0655    3.0165   -0.4769 C   0  0  0  0  0  0  0  0  0  0  0  0
  -11.1027    3.6038   -1.1985 C   0  0  0  0  0  0  0  0  0  0  0  0
  -10.8183    4.5073   -2.2239 C   0  0  0  0  0  0  0  0  0  0  0  0
   -9.4974    4.7769   -2.5767 C   0  0  0  0  0  0  0  0  0  0  0  0
   -4.9033    3.9216   -2.5003 C   0  0  0  0  0  0  0  0  0  0  0  0
  1  2  1  0
  2  3  1  0
  2  4  1  0
  2  9  1  0
  4  5  1  0
  4  9  1  0
  5  6  2  3
  6  7  1  0
  6  8  1  0
  9 10  1  0
 10 11  2  0
 10 12  1  0
 12 13  1  0
 13 14  1  0
 13 16  1  0
 14 15  3  0
 16 17  2  0
 16 28  1  0
 17 18  1  0
 18 19  2  0
 19 20  1  0
 20 21  1  0
 20 28  2  0
 21 22  1  0
 22 23  2  0
 22 27  1  0
 23 24  1  0
 24 25  2  0
 25 26  1  0
 26 27  2  0
M  END
>  <DRUGBANK_ID>  (1) 
DB13721

>  <COMMON_NAME>  (1) 
Cypermethrin

>  <CAS_NUMBER>  (1) 
52315-07-8

>  <UNII>  (1) 
1TR49121NP

$$$$
