
     RDKit          3D

 32 36  0  0  0  0  0  0  0  0999 V2000
    1.0847   -0.1603    0.0064 C   0  0  0  0  0  0  0  0  0  0  0  0
    0.6377   -0.6448    1.3007 N   0  0  0  0  0  0  0  0  0  0  0  0
   -0.0990    0.3014    2.0906 C   0  0  0  0  0  0  0  0  0  0  0  0
    0.9019   -1.9648    1.6858 C   0  0  0  0  0  0  0  0  0  0  0  0
    1.5899   -2.6884    0.9451 O   0  0  0  0  0  0  0  0  0  0  0  0
    0.4452   -2.4719    2.9895 C   0  0  0  0  0  0  0  0  0  0  0  0
    1.2555   -3.1421    3.9087 C   0  0  0  0  0  0  0  0  0  0  0  0
    0.4986   -3.4493    5.0668 C   0  0  0  0  0  0  0  0  0  0  0  0
    0.7326   -4.0192    6.3146 C   0  0  0  0  0  0  0  0  0  0  0  0
   -0.2864   -4.1430    7.2083 N   0  0  0  0  0  0  0  0  0  0  0  0
   -1.5292   -3.7432    6.8597 C   0  0  0  0  0  0  0  0  0  0  0  0
   -1.8314   -3.1844    5.6702 N   0  0  0  0  0  0  0  0  0  0  0  0
   -0.7976   -3.0497    4.8172 C   0  0  0  0  0  0  0  0  0  0  0  0
   -0.8417   -2.5000    3.5424 N   0  0  0  0  0  0  0  0  0  0  0  0
   -2.0523   -2.0173    2.9016 C   0  0  0  0  0  0  0  0  0  0  0  0
   -2.6812   -0.7954    3.6029 C   0  0  0  0  0  0  0  0  0  0  0  0
   -4.0884   -0.6968    3.0434 C   0  0  0  0  0  0  0  0  0  0  0  0
   -4.4061   -2.0674    2.4534 C   0  0  0  0  0  0  0  0  0  0  0  0
   -3.2328   -2.9802    2.8102 C   0  0  0  0  0  0  0  0  0  0  0  0
   -2.5495   -3.9590    7.8075 N   0  0  0  0  0  0  0  0  0  0  0  0
   -3.8810   -3.5261    7.6850 C   0  0  0  0  0  0  0  0  0  0  0  0
   -4.6476   -4.0515    6.6481 C   0  0  0  0  0  0  0  0  0  0  0  0
   -5.9784   -3.6537    6.4634 C   0  0  0  0  0  0  0  0  0  0  0  0
   -6.5487   -2.6883    7.2851 C   0  0  0  0  0  0  0  0  0  0  0  0
   -5.7056   -2.2260    8.3026 C   0  0  0  0  0  0  0  0  0  0  0  0
   -4.4198   -2.6428    8.5520 N   0  0  0  0  0  0  0  0  0  0  0  0
   -7.8342   -2.2244    7.1152 N   0  0  0  0  0  0  0  0  0  0  0  0
   -9.0065   -3.1049    7.0685 C   0  0  0  0  0  0  0  0  0  0  0  0
   -9.7592   -2.9496    5.7259 C   0  0  0  0  0  0  0  0  0  0  0  0
  -10.1082   -1.5475    5.3969 N   0  0  0  0  0  0  0  0  0  0  0  0
   -8.8685   -0.7363    5.4298 C   0  0  0  0  0  0  0  0  0  0  0  0
   -8.1073   -0.8216    6.7806 C   0  0  0  0  0  0  0  0  0  0  0  0
  1  2  1  0
  2  3  1  0
  2  4  1  0
  4  5  2  0
  4  6  1  0
  6  7  2  0
  6 14  1  0
  7  8  1  0
  8  9  2  0
  8 13  1  0
  9 10  1  0
 10 11  2  0
 11 12  1  0
 11 20  1  0
 12 13  2  0
 13 14  1  0
 14 15  1  0
 15 16  1  0
 15 19  1  0
 16 17  1  0
 17 18  1  0
 18 19  1  0
 20 21  1  0
 21 22  2  0
 21 26  1  0
 22 23  1  0
 23 24  2  0
 24 25  1  0
 24 27  1  0
 25 26  2  0
 27 28  1  0
 27 32  1  0
 28 29  1  0
 29 30  1  0
 30 31  1  0
 31 32  1  0
M  END
>  <DRUGBANK_ID>  (1) 
DB11730

>  <COMMON_NAME>  (1) 
Ribociclib

>  <CAS_NUMBER>  (1) 
1211441-98-3

>  <UNII>  (1) 
TK8ERE8P56

>  <SYNONYMS>  (1) 
Ribociclib

$$$$
