
     RDKit          3D

 18 20  0  0  0  0  0  0  0  0999 V2000
    1.1824   -0.2142    0.0043 C   0  0  0  0  0  0  0  0  0  0  0  0
    0.2972   -1.2880   -0.0053 C   0  0  0  0  0  0  0  0  0  0  0  0
   -1.1174   -1.0972   -0.0620 C   0  0  0  0  0  0  0  0  0  0  0  0
   -1.7083    0.1914   -0.0975 C   0  0  0  0  0  0  0  0  0  0  0  0
   -0.7601    1.2564    0.0208 C   0  0  0  0  0  0  0  0  0  0  0  0
    0.6480    1.0628    0.0040 C   0  0  0  0  0  0  0  0  0  0  0  0
   -3.3390    0.5428   -0.3008 C   0  0  0  0  0  0  0  0  0  0  0  0
   -4.8043    0.0597   -0.8221 C   0  0  0  0  0  0  0  0  0  0  0  0
   -5.8240   -0.1227   -0.1762 O   0  0  0  0  0  0  0  0  0  0  0  0
   -4.8654   -0.0176   -2.2928 C   0  0  0  0  0  0  0  0  0  0  0  0
   -5.6780   -0.7113   -3.1881 C   0  0  0  0  0  0  0  0  0  0  0  0
   -5.2465   -0.7747   -4.5256 C   0  0  0  0  0  0  0  0  0  0  0  0
   -4.0940   -0.0734   -4.9286 C   0  0  0  0  0  0  0  0  0  0  0  0
   -3.4200    0.7707   -4.0518 C   0  0  0  0  0  0  0  0  0  0  0  0
   -3.8170    0.7428   -2.7377 C   0  0  0  0  0  0  0  0  0  0  0  0
   -3.1592    1.3868   -1.6125 C   0  0  0  0  0  0  0  0  0  0  0  0
   -2.6311    2.4681   -1.7340 O   0  0  0  0  0  0  0  0  0  0  0  0
   -3.3381   -0.3794   -6.6334 Br  0  0  0  0  0  0  0  0  0  0  0  0
  1  2  2  0
  1  6  1  0
  2  3  1  0
  3  4  2  0
  4  5  1  0
  4  7  1  0
  5  6  2  0
  7  8  1  0
  7 16  1  0
  8  9  2  0
  8 10  1  0
 10 11  1  0
 10 15  2  0
 11 12  2  0
 12 13  1  0
 13 14  2  0
 13 18  1  0
 14 15  1  0
 15 16  1  0
 16 17  2  0
M  END
>  <DRUGBANK_ID>  (1) 
DB13545

>  <COMMON_NAME>  (1) 
Isobromindione

>  <CAS_NUMBER>  (1) 
1470-35-5

>  <UNII>  (1) 
J1J87P409K

>  <SYNONYMS>  (1) 
Isobromindione

$$$$
