
     RDKit          3D

 35 36  0  0  0  0  0  0  0  0999 V2000
    1.1294   -5.4742   -1.1328 S   0  0  0  0  0  0  0  0  0  0  0  0
    0.0471    0.9531   -5.6254 S   0  0  0  0  0  0  0  0  0  0  0  0
    3.4850    0.4748   -2.0178 O   0  0  0  0  0  0  0  0  0  0  0  0
    1.5818   -0.9057   -2.5578 O   0  0  0  0  0  0  0  0  0  0  0  0
    0.3107   -4.0820   -1.1162 O   0  0  0  0  0  0  0  0  0  0  0  0
    3.2041    3.1148    1.2150 O   0  0  0  0  0  0  0  0  0  0  0  0
    2.2922   -2.8231    0.6201 O   0  0  0  0  0  0  0  0  0  0  0  0
   -0.6360   -0.7105   -0.2724 O   0  0  0  0  0  0  0  0  0  0  0  0
   -1.5181   -1.2663   -3.8161 O   0  0  0  0  0  0  0  0  0  0  0  0
    6.6310   -2.8039    0.2812 O   0  0  0  0  0  0  0  0  0  0  0  0
    1.8890   -5.3680    0.2957 O   0  0  0  0  0  0  0  0  0  0  0  0
    2.1232   -5.3489   -2.1994 O   0  0  0  0  0  0  0  0  0  0  0  0
    0.2118   -6.5478   -1.0389 O   0  0  0  0  0  0  0  0  0  0  0  0
   -1.5139    1.3770   -5.6237 O   0  0  0  0  0  0  0  0  0  0  0  0
    0.6920    1.5093   -6.7867 O   0  0  0  0  0  0  0  0  0  0  0  0
    0.1697   -0.4487   -5.3100 O   0  0  0  0  0  0  0  0  0  0  0  0
    1.9663    0.0479    0.7393 N   0  0  0  0  0  0  0  0  0  0  0  0
    4.8594   -2.0695   -0.8852 N   0  0  0  0  0  0  0  0  0  0  0  0
   -0.2431    0.4988   -2.2041 N   0  0  0  0  0  0  0  0  0  0  0  0
    3.1927    1.3279   -0.8769 C   0  0  2  0  0  0  0  0  0  0  0  0
    3.3395    0.7743    0.5406 C   0  0  1  0  0  0  0  0  0  0  0  0
    0.9572    0.8991   -0.0318 C   0  0  1  0  0  0  0  0  0  0  0  0
    1.7798    1.8324   -0.8604 C   0  0  0  0  0  0  0  0  0  0  0  0
    3.0091   -0.8892   -2.2437 C   0  0  2  0  0  0  0  0  0  0  0  0
    3.4329   -1.7558   -1.0735 C   0  0  1  0  0  0  0  0  0  0  0  0
    3.4334    1.7987    1.6683 C   0  0  0  0  0  0  0  0  0  0  0  0
    2.4452   -2.8439   -0.8215 C   0  0  2  0  0  0  0  0  0  0  0  0
    0.9843   -2.8354   -1.2204 C   0  0  1  0  0  0  0  0  0  0  0  0
    0.7253   -2.1393   -2.5335 C   0  0  1  0  0  0  0  0  0  0  0  0
   -0.0728    0.2173   -0.8559 C   0  0  0  0  0  0  0  0  0  0  0  0
   -0.9925   -1.9595   -2.6891 C   0  0  0  0  0  0  0  0  0  0  0  0
   -0.3866    1.7527   -2.9229 C   0  0  0  0  0  0  0  0  0  0  0  0
    5.4284   -2.9097    0.0556 C   0  0  0  0  0  0  0  0  0  0  0  0
    0.5401    1.8687   -4.1664 C   0  0  0  0  0  0  0  0  0  0  0  0
    4.6079   -3.9268    0.8062 C   0  0  0  0  0  0  0  0  0  0  0  0
  1  5  1  0
  1 11  1  0
  1 12  2  0
  1 13  2  0
  2 14  1  0
  2 15  2  0
  2 16  2  0
  2 34  1  0
  4 24  1  0
  4 29  1  0
  6 26  1  0
  8 30  2  0
  9 31  1  0
 10 33  2  0
 17 21  1  0
 17 22  1  0
 18 33  1  0
 19 30  1  0
 19 32  1  0
 20  3  1  6
 20 21  1  0
 20 23  1  0
 21 26  1  1
 22 23  1  0
 22 30  1  6
 24  3  1  1
 24 25  1  0
 25 27  1  0
 25 18  1  6
 27 28  1  0
 27  7  1  1
 28 29  1  0
 28  5  1  6
 29 31  1  1
 32 34  1  0
 33 35  1  0
M  CHG  1  17   1
M  END
>  <DRUGBANK_ID>  (1) 
DB02595

>  <SECONDARY_ACCESSION_NUMBERS>  (1) 
EXPT00715

>  <COMMON_NAME>  (1) 
(2R,3S,5S)-2-(Hydroxymethyl)-5-[(2-sulfoethyl)carbamoyl]-3-pyrrolidiniumyl 2-acetamido-2-deoxy-4-O-sulfo-beta-D-glucopyranoside

>  <CAS_NUMBER>  (1) 
92953-54-3

$$$$
