
     RDKit          3D

 10  9  0  0  1  0  0  0  0  0999 V2000
    0.9780    0.0981    0.1424 N   0  0  0  0  0  0  0  0  0  0  0  0
    0.4328    1.4475   -0.0999 C   0  0  1  0  0  0  0  0  0  0  0  0
    0.9527    1.9504   -1.4734 C   0  0  0  0  0  0  0  0  0  0  0  0
    0.5436    1.1254   -2.7113 C   0  0  0  0  0  0  0  0  0  0  0  0
   -0.9624    1.1117   -2.9613 C   0  0  0  0  0  0  0  0  0  0  0  0
   -1.5691    2.5116   -2.9792 C   0  0  0  0  0  0  0  0  0  0  0  0
   -1.1266    3.1941   -4.1454 O   0  0  0  0  0  0  0  0  0  0  0  0
   -1.1139    1.4308    0.1631 C   0  0  0  0  0  0  0  0  0  0  0  0
   -1.5915    2.4585    0.8955 O   0  0  0  0  0  0  0  0  0  0  0  0
   -1.8941    0.5558   -0.2121 O   0  0  0  0  0  0  0  0  0  0  0  0
  2  1  1  6
  2  3  1  0
  2  8  1  0
  3  4  1  0
  4  5  1  0
  5  6  1  0
  6  7  1  0
  8  9  1  0
  8 10  2  0
M  END
>  <DRUGBANK_ID>  (1) 
DB03412

>  <SECONDARY_ACCESSION_NUMBERS>  (1) 
EXPT02015

>  <COMMON_NAME>  (1) 
6-hydroxynorleucine

>  <CAS_NUMBER>  (1) 
6033-32-5

>  <UNII>  (1) 
874D12O72W

>  <SYNONYMS>  (1) 
2-Amino-6-hydroxycaproic acid; 6-hydroxy-L-norleucine; alpha-Amino-epsilon-hydroxycaproic acid

$$$$
