
     RDKit          3D

 12 13  0  0  0  0  0  0  0  0999 V2000
    2.1552    0.7408   -0.0002 C   0  0  0  0  0  0  0  0  0  0  0  0
    2.1976   -0.6690   -0.0002 C   0  0  0  0  0  0  0  0  0  0  0  0
    1.0212   -1.4124    0.0005 C   0  0  0  0  0  0  0  0  0  0  0  0
   -0.1575   -0.6998    0.0012 C   0  0  0  0  0  0  0  0  0  0  0  0
   -0.2261    0.6778    0.0023 C   0  0  0  0  0  0  0  0  0  0  0  0
    0.9333    1.4321    0.0013 C   0  0  0  0  0  0  0  0  0  0  0  0
   -1.6417    1.0729    0.0029 C   0  0  0  0  0  0  0  0  0  0  0  0
   -2.5248    0.1214    0.0001 N   0  0  0  0  0  0  0  0  0  0  0  0
   -1.7733   -1.3311   -0.0054 S   0  0  0  0  0  0  0  0  0  0  0  0
   -1.9550   -2.0019    1.2635 O   0  0  0  0  0  0  0  0  0  0  0  0
   -1.9491   -1.9898   -1.2787 O   0  0  0  0  0  0  0  0  0  0  0  0
   -2.1939    2.6905    0.0077 Cl  0  0  0  0  0  0  0  0  0  0  0  0
  1  2  2  0
  1  6  1  0
  2  3  1  0
  3  4  2  0
  4  5  1  0
  4  9  1  0
  5  6  2  0
  5  7  1  0
  7  8  2  0
  7 12  1  0
  8  9  1  0
  9 10  2  0
  9 11  2  0
M  END
>  <DRUGBANK_ID>  (1) 
DB14628

>  <SECONDARY_ACCESSION_NUMBERS>  (1) 
DBSALT002237

>  <COMMON_NAME>  (1) 
Pseudosaccharin chloride

>  <CAS_NUMBER>  (1) 
567-19-1

>  <UNII>  (1) 
1AYD6UVV3F

>  <SYNONYMS>  (1) 
3-Chloro-psi-saccharin; 3-Chlorobenzo(d)isothiazole 1,1-dioxide

$$$$
