
     RDKit          3D

 16 15  0  0  1  0  0  0  0  0999 V2000
    1.0938   -2.6127    0.7131 C   0  0  0  0  0  0  0  0  0  0  0  0
    0.8855   -2.8741   -0.9897 S   0  0  0  0  0  0  0  0  0  0  0  0
    1.6905   -1.7699   -1.4789 O   0  0  0  0  0  0  0  0  0  0  0  0
    1.1579   -4.2582   -1.3014 O   0  0  0  0  0  0  0  0  0  0  0  0
   -0.7403   -2.5846   -1.1053 O   0  0  0  0  0  0  0  0  0  0  0  0
   -1.4591   -2.9117   -2.3044 C   0  0  0  0  0  0  0  0  0  0  0  0
   -1.3047   -1.8149   -3.3589 C   0  0  1  0  0  0  0  0  0  0  0  0
    0.1895   -1.7134   -3.7443 C   0  0  2  0  0  0  0  0  0  0  0  0
    0.7531   -0.7563   -4.7534 C   0  0  0  0  0  0  0  0  0  0  0  0
   -0.1977   -0.5961   -5.7662 O   0  0  0  0  0  0  0  0  0  0  0  0
   -0.5184   -1.8969   -6.7025 S   0  0  0  0  0  0  0  0  0  0  0  0
    0.3919   -1.8887   -7.7942 O   0  0  0  0  0  0  0  0  0  0  0  0
   -0.6636   -3.1147   -5.8889 O   0  0  0  0  0  0  0  0  0  0  0  0
   -2.1572   -1.3928   -7.1779 C   0  0  0  0  0  0  0  0  0  0  0  0
    0.8589   -2.9733   -3.8652 O   0  0  0  0  0  0  0  0  0  0  0  0
   -2.2690   -2.0632   -4.3729 O   0  0  0  0  0  0  0  0  0  0  0  0
  1  2  1  0
  2  3  2  0
  2  4  2  0
  2  5  1  0
  5  6  1  0
  6  7  1  0
  7 16  1  6
  8 15  1  6
  8  9  1  0
  8  7  1  0
  9 10  1  0
 10 11  1  0
 11 12  2  0
 11 13  2  0
 11 14  1  0
M  END
>  <DRUGBANK_ID>  (1) 
DB11678

>  <COMMON_NAME>  (1) 
Treosulfan

>  <CAS_NUMBER>  (1) 
299-75-2

>  <UNII>  (1) 
CO61ER3EPI

>  <SYNONYMS>  (1) 
DIHYDROXYBUSULFAN; OVASTAT; Treosulfan

$$$$
