
     RDKit          3D

 34 35  0  0  0  0  0  0  0  0999 V2000
    3.3529   -7.0901   -0.0478 C   0  0  0  0  0  0  0  0  0  0  0  0
    1.9695   -7.2478   -0.0725 C   0  0  0  0  0  0  0  0  0  0  0  0
    1.3658   -8.8562   -0.0864 S   0  0  0  0  0  0  0  0  0  0  0  0
    2.9886   -9.4077   -0.0319 C   0  0  0  0  0  0  0  0  0  0  0  0
    3.9146   -8.4380   -0.0078 N   0  0  0  0  0  0  0  0  0  0  0  0
    5.6723    0.1850    1.0974 C   0  0  1  0  0  0  0  0  0  0  0  0
    5.9872   -1.0532    0.5073 C   0  0  0  0  0  0  0  0  0  0  0  0
    8.8127    1.8088    1.7777 C   0  0  1  0  0  0  0  0  0  0  0  0
    7.9654    0.5897    1.5443 C   0  0  0  0  0  0  0  0  0  0  0  0
    6.6398    0.4447    2.1975 C   0  0  0  0  0  0  0  0  0  0  0  0
   12.7185    1.1848    0.2636 C   0  0  0  0  0  0  0  0  0  0  0  0
   11.5055    1.0112    0.7132 C   0  0  0  0  0  0  0  0  0  0  0  0
   11.0094    0.4653    1.8568 C   0  0  1  0  0  0  0  0  0  0  0  0
   10.0948    1.5261    2.4897 C   0  0  2  0  0  0  0  0  0  0  0  0
    6.1873   -2.7027   -0.7209 C   0  0  2  0  0  0  0  0  0  0  0  0
    8.1026   -1.3350   -1.2086 C   0  0  0  0  0  0  0  0  0  0  0  0
    6.0881   -2.3265    1.3938 C   0  0  0  0  0  0  0  0  0  0  0  0
    5.6143   -3.2583    0.7263 O   0  0  0  0  0  0  0  0  0  0  0  0
    9.8348    0.1541   -1.4406 C   0  0  0  0  0  0  0  0  0  0  0  0
   11.1606    1.6823   -1.3443 C   0  0  0  0  0  0  0  0  0  0  0  0
   12.8006    1.4138   -1.1960 C   0  0  0  0  0  0  0  0  0  0  0  0
    6.8109   -2.8584    2.1995 O   0  0  0  0  0  0  0  0  0  0  0  0
    4.5357   -4.1028   -0.5612 C   0  0  0  0  0  0  0  0  0  0  0  0
    2.5343   -4.3592   -0.2269 C   0  0  0  0  0  0  0  0  0  0  0  0
    4.3770   -5.6654   -0.1764 C   0  0  0  0  0  0  0  0  0  0  0  0
   12.3070    3.4361   -0.6597 C   0  0  0  0  0  0  0  0  0  0  0  0
   10.3776   -0.8458    1.6090 C   0  0  0  0  0  0  0  0  0  0  0  0
    9.8438    0.9940    3.7489 O   0  0  0  0  0  0  0  0  0  0  0  0
    9.0538    2.4955    0.4895 C   0  0  0  0  0  0  0  0  0  0  0  0
    8.3114   -0.2746    0.7472 O   0  0  0  0  0  0  0  0  0  0  0  0
    6.2575    1.6804    2.8784 C   0  0  0  0  0  0  0  0  0  0  0  0
    6.6117   -0.5885    3.2653 C   0  0  0  0  0  0  0  0  0  0  0  0
    5.7147    1.1837    0.0813 O   0  0  0  0  0  0  0  0  0  0  0  0
    3.2611  -10.8822   -0.0393 C   0  0  0  0  0  0  0  0  0  0  0  0
  1  2  2  0
  2  3  1  0
  3  4  1  0
  4  5  2  0
  4 34  1  0
  5  1  1  0
  6  7  1  0
  6 10  1  0
  6 33  1  6
  7 17  1  0
  8  9  1  0
  8 29  1  6
  9 10  1  0
  9 30  2  0
 10 31  1  0
 10 32  1  0
 11 12  2  0
 12 13  1  0
 13 14  1  0
 13 27  1  6
 14  8  1  0
 14 28  1  1
 15 16  1  0
 15 18  1  0
 15 23  1  6
 16 19  1  0
 17 18  1  0
 17 22  2  0
 19 20  2  0
 20 21  1  0
 20 26  1  0
 21 11  1  0
 23 24  1  0
 23 25  2  0
 25  1  1  0
M  END
>  <DRUGBANK_ID>  (1) 
DB05903

>  <COMMON_NAME>  (1) 
KOS-1584

>  <CAS_NUMBER>  (1) 
350493-61-7

>  <UNII>  (1) 
82481G197K

>  <SYNONYMS>  (1) 
(E)-9,10-Dehydroepothilone D; (E)-9,10-Didehydroepothilone D

$$$$
