R04
     RDKit          3D

 28 30  0  0  0  0  0  0  0  0999 V2000
    0.9930   -0.1061   -0.0743 C   0  0  0  0  0  0  0  0  0  0  0  0
    0.2994   -0.7237   -1.0545 C   0  0  0  0  0  0  0  0  0  0  0  0
   -1.2070   -0.7496   -1.1108 C   0  0  0  0  0  0  0  0  0  0  0  0
   -1.7550   -0.0994   -2.3159 N   0  0  0  0  0  0  0  0  0  0  0  0
   -3.2399    0.0037   -2.2738 C   0  0  0  0  0  0  0  0  0  0  0  0
   -3.8511    0.7038   -1.0675 C   0  0  0  0  0  0  0  0  0  0  0  0
   -4.6349    1.8019   -1.0984 C   0  0  0  0  0  0  0  0  0  0  0  0
   -4.9750    2.6283    0.1251 C   0  0  0  0  0  0  0  0  0  0  0  0
   -4.5435    4.0215    0.1038 O   0  0  0  0  0  0  0  0  0  0  0  0
   -3.1888    4.2595    0.1257 C   0  0  0  0  0  0  0  0  0  0  0  0
   -2.6341    5.1581    1.0532 C   0  0  0  0  0  0  0  0  0  0  0  0
   -1.2305    5.3967    0.9903 C   0  0  0  0  0  0  0  0  0  0  0  0
   -0.3554    6.2132    1.6635 N   0  0  0  0  0  0  0  0  0  0  0  0
    0.9517    6.0766    1.3026 N   0  0  0  0  0  0  0  0  0  0  0  0
    0.9257    5.1926    0.2945 C   0  0  0  0  0  0  0  0  0  0  0  0
   -0.4076    4.7631    0.0740 C   0  0  0  0  0  0  0  0  0  0  0  0
   -0.9840    3.9310   -0.8627 C   0  0  0  0  0  0  0  0  0  0  0  0
   -2.3636    3.7860   -0.8777 C   0  0  0  0  0  0  0  0  0  0  0  0
    2.0979    4.7019   -0.4527 C   0  0  0  0  0  0  0  0  0  0  0  0
    2.1160    4.7121   -1.8632 C   0  0  0  0  0  0  0  0  0  0  0  0
    3.1058    4.0228   -2.5797 C   0  0  0  0  0  0  0  0  0  0  0  0
    4.1322    3.3850   -1.8903 C   0  0  0  0  0  0  0  0  0  0  0  0
    4.1780    3.4364   -0.4981 C   0  0  0  0  0  0  0  0  0  0  0  0
    3.1426    4.0562    0.2175 C   0  0  0  0  0  0  0  0  0  0  0  0
   -2.8860    3.2670   -1.9910 F   0  0  0  0  0  0  0  0  0  0  0  0
    5.4468    2.4125   -2.8415 Br  0  0  0  0  0  0  0  0  0  0  0  0
   -0.7289    7.1702    2.6758 C   0  0  0  0  0  0  0  0  0  0  0  0
   -1.1740    1.2261   -2.4373 C   0  0  0  0  0  0  0  0  0  0  0  0
  1  2  2  0
  2  3  1  0
  3  4  1  0
  4  5  1  0
  4 28  1  0
  5  6  1  0
  6  7  2  0
  7  8  1  0
  8  9  1  0
  9 10  1  0
 10 11  2  0
 10 18  1  0
 11 12  1  0
 12 13  1  0
 12 16  2  0
 13 14  1  0
 13 27  1  0
 14 15  2  0
 15 16  1  0
 15 19  1  0
 16 17  1  0
 17 18  2  0
 18 25  1  0
 19 20  2  0
 19 24  1  0
 20 21  1  0
 21 22  2  0
 22 23  1  0
 22 26  1  0
 23 24  2  0
M  END
>  <DRUGBANK_ID>  (1) 
DB02139

>  <SECONDARY_ACCESSION_NUMBERS>  (1) 
EXPT02738

>  <COMMON_NAME>  (1) 
(2e)-N-Allyl-4-{[3-(4-Bromophenyl)-5-Fluoro-1-Methyl-1h-Indazol-6-Yl]Oxy}-N-Methyl-2-Buten-1-Amine

$$$$
