
     RDKit          3D

 12 12  0  0  0  0  0  0  0  0999 V2000
    1.0429   -0.1476   -0.0353 O   0  0  0  0  0  0  0  0  0  0  0  0
    0.4165   -0.0590    1.1802 C   0  0  0  0  0  0  0  0  0  0  0  0
    0.8279    0.7901    2.2027 C   0  0  0  0  0  0  0  0  0  0  0  0
    0.0947    0.8846    3.3852 C   0  0  0  0  0  0  0  0  0  0  0  0
    0.4004    1.6978    4.4434 O   0  0  0  0  0  0  0  0  0  0  0  0
    1.5289    2.5474    4.2676 C   0  0  0  0  0  0  0  0  0  0  0  0
   -1.0736    0.1359    3.5329 C   0  0  0  0  0  0  0  0  0  0  0  0
   -1.5341   -0.6689    2.4926 C   0  0  0  0  0  0  0  0  0  0  0  0
   -2.7273   -1.3461    2.4969 O   0  0  0  0  0  0  0  0  0  0  0  0
   -3.6161   -1.0304    3.5679 C   0  0  0  0  0  0  0  0  0  0  0  0
   -0.7645   -0.7939    1.3296 C   0  0  0  0  0  0  0  0  0  0  0  0
    2.4628   -0.0140   -0.0163 C   0  0  0  0  0  0  0  0  0  0  0  0
  1  2  1  0
  1 12  1  0
  2  3  2  0
  3  4  1  0
  4  5  1  0
  4  7  2  0
  5  6  1  0
  7  8  1  0
  8  9  1  0
  8 11  2  0
  9 10  1  0
 11  2  1  0
M  END
>  <DRUGBANK_ID>  (1) 
DB15875

>  <COMMON_NAME>  (1) 
1,3,5-Trimethoxybenzene

>  <CAS_NUMBER>  (1) 
621-23-8

>  <UNII>  (1) 
00VJI3VG3D

>  <SYNONYMS>  (1) 
1,3,5-Trimethoxybenzene; 1,3,5-Trimethyoxybenzene; Phloroglucinol trimethyl ether; sym-Trimethoxybenzene

$$$$
