
     RDKit          3D

 41 47  0  0  0  0  0  0  0  0999 V2000
    2.3926   -1.3127   -1.5589 O   0  0  0  0  0  0  0  0  0  0  0  0
    4.0021   -0.4963   -3.2185 O   0  0  0  0  0  0  0  0  0  0  0  0
    2.0923    2.0178   -1.1999 O   0  0  0  0  0  0  0  0  0  0  0  0
   -0.2789   -1.7920   -4.9269 O   0  0  0  0  0  0  0  0  0  0  0  0
    4.5848   -2.8629   -0.7011 O   0  0  0  0  0  0  0  0  0  0  0  0
    1.9456    0.2946   -2.7841 N   0  0  0  0  0  0  0  0  0  0  0  0
    2.0062   -1.6824   -4.9896 N   0  0  0  0  0  0  0  0  0  0  0  0
    3.3011   -1.2906    0.1743 N   0  0  0  0  0  0  0  0  0  0  0  0
    4.1001    1.7049   -3.1329 N   0  0  0  0  0  0  0  0  0  0  0  0
    3.8261    5.7054   -4.1899 N   0  0  0  0  0  0  0  0  0  0  0  0
    2.7472   -0.8156   -2.8285 C   0  0  2  0  0  0  0  0  0  0  0  0
    3.0956   -1.6619   -4.1156 C   0  0  2  0  0  0  0  0  0  0  0  0
    2.2062   -0.3826   -0.3611 C   0  0  2  0  0  0  0  0  0  0  0  0
    1.9077    0.8180   -1.4337 C   0  0  0  0  0  0  0  0  0  0  0  0
    0.7244   -0.0838   -3.3504 C   0  0  2  0  0  0  0  0  0  0  0  0
    0.8045   -1.2580   -4.4989 C   0  0  0  0  0  0  0  0  0  0  0  0
    4.3930   -1.3676   -5.2888 C   0  0  0  0  0  0  0  0  0  0  0  0
    2.7815    0.6503    1.0340 C   0  0  0  0  0  0  0  0  0  0  0  0
    6.7245    1.8670   -2.7258 C   0  0  1  0  0  0  0  0  0  0  0  0
    5.4590    1.8886   -3.5933 C   0  0  2  0  0  0  0  0  0  0  0  0
    2.4289   -2.4968   -6.1182 C   0  0  0  0  0  0  0  0  0  0  0  0
   -0.0197    1.2054   -3.7493 C   0  0  0  0  0  0  0  0  0  0  0  0
    6.4896    3.7117   -2.4520 C   0  0  0  0  0  0  0  0  0  0  0  0
    3.8201   -1.9923   -6.5511 C   0  0  0  0  0  0  0  0  0  0  0  0
    4.4530   -1.6354   -0.5376 C   0  0  0  0  0  0  0  0  0  0  0  0
    5.2511   -0.4671   -1.4736 C   0  0  2  0  0  0  0  0  0  0  0  0
    5.5542    4.4579   -3.4041 C   0  0  0  0  0  0  0  0  0  0  0  0
    6.5716    0.0968   -2.0532 C   0  0  0  0  0  0  0  0  0  0  0  0
    5.0688    3.9656   -4.6395 C   0  0  0  0  0  0  0  0  0  0  0  0
    5.6205    2.6443   -4.9439 C   0  0  0  0  0  0  0  0  0  0  0  0
    4.5377    0.8970   -1.6256 C   0  0  0  0  0  0  0  0  0  0  0  0
    4.8016    5.6184   -3.2089 C   0  0  0  0  0  0  0  0  0  0  0  0
    6.7357    4.6590   -1.4281 C   0  0  0  0  0  0  0  0  0  0  0  0
    2.3442    2.1382    1.3210 C   0  0  0  0  0  0  0  0  0  0  0  0
    2.3924   -0.0360    2.3870 C   0  0  0  0  0  0  0  0  0  0  0  0
    3.9626    4.6677   -5.0609 C   0  0  0  0  0  0  0  0  0  0  0  0
   -1.3221    0.9757   -3.0266 C   0  0  0  0  0  0  0  0  0  0  0  0
    0.5068    2.6389   -3.3502 C   0  0  0  0  0  0  0  0  0  0  0  0
    5.0371    6.4763   -2.1741 C   0  0  0  0  0  0  0  0  0  0  0  0
    6.0658    6.0010   -1.3439 C   0  0  0  0  0  0  0  0  0  0  0  0
    3.2296    1.5838   -4.5094 C   0  0  0  0  0  0  0  0  0  0  0  0
  1 11  1  0
  1 13  1  0
  3 14  2  0
  4 16  2  0
  5 25  2  0
  6 11  1  0
  6 14  1  0
  6 15  1  0
  7 12  1  0
  7 16  1  0
  7 21  1  0
  8 25  1  0
  9 20  1  0
  9 31  1  0
  9 41  1  0
 10 32  1  0
 10 36  1  0
 11  2  1  1
 11 12  1  0
 12 17  1  6
 13  8  1  6
 13 14  1  0
 13 18  1  0
 15 16  1  0
 15 22  1  6
 17 24  1  0
 18 34  1  0
 18 35  1  0
 19 20  1  0
 19 23  1  0
 19 28  1  1
 20 30  1  1
 21 24  1  0
 22 37  1  0
 22 38  1  0
 23 27  2  0
 23 33  1  0
 26 25  1  1
 26 28  1  0
 26 31  1  0
 27 29  1  0
 27 32  1  0
 29 30  1  0
 29 36  2  0
 32 39  2  0
 33 40  2  0
 39 40  1  0
M  END
>  <DRUGBANK_ID>  (1) 
DB11273

>  <COMMON_NAME>  (1) 
Dihydroergocornine

>  <CAS_NUMBER>  (1) 
25447-65-8

>  <UNII>  (1) 
IK4C1OC8NE

>  <SYNONYMS>  (1) 
9,10-dihydroergocornine; Dihydroergocornine

$$$$
