
     RDKit          3D

  2  1  0  0  0  0  0  0  0  0999 V2000
    0.9824   -0.0001    0.1376 O   0  0  0  0  0  0  0  0  0  0  0  0
    0.4002    1.1108    1.2201 Si  0  0  0  0  0  4  0  0  0  0  0  0
  1  2  1  0
M  END
>  <DRUGBANK_ID>  (1) 
DB11343

>  <COMMON_NAME>  (1) 
Silanol

>  <CAS_NUMBER>  (1) 
70131-67-8

>  <UNII>  (1) 
079V3J9O3X

$$$$
