
     RDKit          3D

 29 32  0  0  1  0  0  0  0  0999 V2000
   -3.3607   -3.9760   11.8252 C   0  0  0  0  0  0  0  0  0  0  0  0
   -2.7452   -0.2568   12.8435 C   0  0  0  0  0  0  0  0  0  0  0  0
   -3.4305   -3.0610   18.2203 C   0  0  0  0  0  0  0  0  0  0  0  0
   -1.6539   -3.3203   11.9363 C   0  0  0  0  0  0  0  0  0  0  0  0
    1.3536   -1.5926   17.6989 C   0  0  0  0  0  0  0  0  0  0  0  0
   -4.1261   -3.9200   15.6966 C   0  0  0  0  0  0  0  0  0  0  0  0
   -3.8672   -2.6604   14.7773 C   0  0  0  0  0  0  0  0  0  0  0  0
   -2.8094   -4.4064   16.1766 C   0  0  0  0  0  0  0  0  0  0  0  0
   -5.1483   -0.9440   14.9494 C   0  0  0  0  0  0  0  0  0  0  0  0
   -3.7558   -0.2337   15.8435 C   0  0  0  0  0  0  0  0  0  0  0  0
    0.0153   -3.1687   16.9594 C   0  0  0  0  0  0  0  0  0  0  0  0
   -0.1371   -1.1331   16.2521 C   0  0  0  0  0  0  0  0  0  0  0  0
   -5.2404   -2.7793   11.0922 C   0  0  0  0  0  0  0  0  0  0  0  0
   -0.5737   -3.2894   14.5911 C   0  0  0  0  0  0  0  0  0  0  0  0
   -4.9351   -3.6805   12.9174 C   0  0  0  0  0  0  0  0  0  0  0  0
    0.5989   -2.6122   15.1576 C   0  0  0  0  0  0  0  0  0  0  0  0
   -5.1372   -1.1232   12.4092 C   0  0  0  0  0  0  0  0  0  0  0  0
   -2.9801   -2.0730   12.8613 C   0  0  0  0  0  0  0  0  0  0  0  0
   -2.3466   -3.6080   17.3630 C   0  0  1  0  0  0  0  0  0  0  0  0
   -4.7005   -1.9991   13.3562 C   0  0  0  0  0  0  0  0  0  0  0  0
   -4.4474   -1.5644   11.2268 C   0  0  0  0  0  0  0  0  0  0  0  0
   -2.3769   -1.1678   15.8629 C   0  0  2  0  0  0  0  0  0  0  0  0
   -1.0552   -3.1342   17.8340 C   0  0  2  0  0  0  0  0  0  0  0  0
   -1.3553   -0.9818   16.8910 C   0  0  1  0  0  0  0  0  0  0  0  0
   -1.8335   -2.3873   14.6753 C   0  0  2  0  0  0  0  0  0  0  0  0
   -3.1002   -3.4434   13.4936 C   0  0  1  0  0  0  0  0  0  0  0  0
   -0.2271   -2.0569   16.9577 C   0  0  1  0  0  0  0  0  0  0  0  0
   -3.4462   -1.3267   10.4275 N   0  0  0  0  0  0  0  0  0  0  0  0
   -2.0592   -0.9812   10.7327 O   0  0  0  0  0  0  0  0  0  0  0  0
  7  6  1  0
  8  6  1  0
 10  9  1  0
 12 11  1  0
 15 13  1  0
 16 14  1  0
 18  1  1  0
 18  2  1  0
 18  7  1  0
 19  3  1  1
 19  8  1  0
 20  9  1  0
 20 17  2  0
 21 13  1  0
 21 17  1  0
 22 10  1  6
 22 24  1  0
 22 25  1  0
 23 11  1  6
 23 19  1  0
 24 12  1  6
 24 27  1  0
 25 14  1  1
 25 26  1  0
 26 15  1  0
 26 20  1  0
 26  4  1  6
 27 16  1  0
 27 23  1  0
 27  5  1  1
 28 21  2  0
 29 28  1  0
M  END
>  <DRUGBANK_ID>  (1) 
DB05185

>  <COMMON_NAME>  (1) 
Olesoxime

>  <CAS_NUMBER>  (1) 
22033-87-0

>  <UNII>  (1) 
8V8EF6094N

>  <SYNONYMS>  (1) 
(EZ)-N-(CHOLEST-4-EN-3-YLIDENE)HYDROXYLAMINE; 4-Cholesten-3-one, oxime; cholest-4-en-3-one, oxime

$$$$
