
     RDKit          3D

 35 39  0  0  0  0  0  0  0  0999 V2000
    2.2564   -0.4075   -0.1828 F   0  0  0  0  0  0  0  0  0  0  0  0
    0.9980   -0.2300    0.2270 C   0  0  0  0  0  0  0  0  0  0  0  0
    0.3051    1.3272    0.3437 C   0  0  0  0  0  0  0  0  0  0  0  0
   -1.3105    1.4788    0.9496 C   0  0  0  0  0  0  0  0  0  0  0  0
   -2.2134    0.0133    1.3594 C   0  0  0  0  0  0  0  0  0  0  0  0
   -3.6002    0.1145    0.3286 C   0  0  0  0  0  0  0  0  0  0  0  0
   -3.0293   -0.1650   -1.0066 N   0  0  0  0  0  0  0  0  0  0  0  0
   -1.7378   -0.3787   -0.9841 C   0  0  0  0  0  0  0  0  0  0  0  0
   -0.9250   -0.1095   -0.1578 O   0  0  0  0  0  0  0  0  0  0  0  0
   -1.1458   -1.1226   -1.8048 N   0  0  0  0  0  0  0  0  0  0  0  0
   -0.8425   -0.1030   -2.5869 C   0  0  0  0  0  0  0  0  0  0  0  0
    0.2403    0.4375   -2.7275 O   0  0  0  0  0  0  0  0  0  0  0  0
   -2.0965    0.4167   -3.0995 C   0  0  0  0  0  0  0  0  0  0  0  0
   -1.9311    0.9337   -4.3258 C   0  0  0  0  0  0  0  0  0  0  0  0
   -0.7207    1.2623   -4.7689 F   0  0  0  0  0  0  0  0  0  0  0  0
   -3.0334    1.0608   -5.0793 C   0  0  0  0  0  0  0  0  0  0  0  0
   -4.2617    0.6407   -4.5427 C   0  0  0  0  0  0  0  0  0  0  0  0
   -4.4294    0.2003   -3.1783 C   0  0  0  0  0  0  0  0  0  0  0  0
   -3.3139    0.1627   -2.3758 C   0  0  0  0  0  0  0  0  0  0  0  0
   -1.4451   -1.5893    1.1729 C   0  0  0  0  0  0  0  0  0  0  0  0
    0.1870   -1.6692    0.6144 C   0  0  0  0  0  0  0  0  0  0  0  0
    1.0765    2.5791   -0.0278 C   0  0  0  0  0  0  0  0  0  0  0  0
    0.5018    3.6655    0.0770 O   0  0  0  0  0  0  0  0  0  0  0  0
    2.4635    2.4389   -0.0284 N   0  0  0  0  0  0  0  0  0  0  0  0
    3.2660    1.7948   -1.0875 C   0  0  0  0  0  0  0  0  0  0  0  0
    4.3631    0.8404   -0.5159 C   0  0  0  0  0  0  0  0  0  0  0  0
    5.0980    1.5164    0.5374 N   0  0  0  0  0  0  0  0  0  0  0  0
    4.2697    2.0422    1.6258 C   0  0  0  0  0  0  0  0  0  0  0  0
    3.2740    3.0771    1.0109 C   0  0  0  0  0  0  0  0  0  0  0  0
    6.4481    1.3399    0.5902 C   0  0  0  0  0  0  0  0  0  0  0  0
    7.1441    1.7398   -0.4884 N   0  0  0  0  0  0  0  0  0  0  0  0
    8.4734    1.8916   -0.3462 C   0  0  0  0  0  0  0  0  0  0  0  0
    9.1350    1.6743    0.8300 C   0  0  0  0  0  0  0  0  0  0  0  0
    8.3877    1.0237    1.7748 C   0  0  0  0  0  0  0  0  0  0  0  0
    7.0462    0.8817    1.7005 N   0  0  0  0  0  0  0  0  0  0  0  0
  1  2  1  0
  2  3  2  0
  2 21  1  0
  3  4  1  0
  3 22  1  0
  4  5  2  0
  5  6  1  0
  5 20  1  0
  6  7  1  0
  7  8  1  0
  7 19  1  0
  8  9  2  0
  8 10  1  0
 10 11  1  0
 11 12  2  0
 11 13  1  0
 13 14  1  0
 13 19  2  0
 14 15  1  0
 14 16  2  0
 16 17  1  0
 17 18  2  0
 18 19  1  0
 20 21  2  0
 22 23  2  0
 22 24  1  0
 24 25  1  0
 24 29  1  0
 25 26  1  0
 26 27  1  0
 27 28  1  0
 27 30  1  0
 28 29  1  0
 30 31  2  0
 30 35  1  0
 31 32  1  0
 32 33  2  0
 33 34  1  0
 34 35  2  0
M  END
>  <DRUGBANK_ID>  (1) 
DB17163

>  <COMMON_NAME>  (1) 
Senaparib

>  <CAS_NUMBER>  (1) 
1401682-78-7

>  <UNII>  (1) 
MNZ4OP95CF

>  <SYNONYMS>  (1) 
2,4(1h,3h)-quinazolinedione, 5-fluoro-1-((4-fluoro-3-((4-(2-pyrimidinyl)-1-piperazinyl)carbonyl)phenyl)methyl)-; 5-fluoro-1-((4-fluoro-3-((4-(2-pyrimidinyl)-1-piperazinyl)carbonyl)phenyl)methyl)-2,4(1h,3h)-quinazolinedione

$$$$
