
     RDKit          3D

 41 46  0  0  0  0  0  0  0  0999 V2000
    1.0195   -0.1186   -0.0871 C   0  0  0  0  0  0  0  0  0  0  0  0
   -6.5016  -10.9344   10.0014 C   0  0  0  0  0  0  0  0  0  0  0  0
    0.6417   -2.5301    0.2181 C   0  0  0  0  0  0  0  0  0  0  0  0
   -0.5707    2.4086    2.8665 C   0  0  0  0  0  0  0  0  0  0  0  0
    1.2743    1.6862    4.2578 C   0  0  0  0  0  0  0  0  0  0  0  0
   -1.5419   -7.3278    4.0217 C   0  0  0  0  0  0  0  0  0  0  0  0
   -0.6518    1.1321    2.3107 C   0  0  0  0  0  0  0  0  0  0  0  0
    1.1258    0.3847    3.7804 C   0  0  0  0  0  0  0  0  0  0  0  0
    0.5755   -3.7020    1.0556 C   0  0  0  0  0  0  0  0  0  0  0  0
   -2.0064   -8.4427    4.7413 C   0  0  0  0  0  0  0  0  0  0  0  0
   -4.1058  -11.0510    5.8579 C   0  0  0  0  0  0  0  0  0  0  0  0
    0.5072   -8.4361    3.4930 C   0  0  0  0  0  0  0  0  0  0  0  0
   -3.7688  -10.4890    8.5673 C   0  0  0  0  0  0  0  0  0  0  0  0
   -0.9780  -11.2738    9.5081 C   0  0  0  0  0  0  0  0  0  0  0  0
   -0.3628   -9.4087    8.5228 C   0  0  0  0  0  0  0  0  0  0  0  0
   -6.6868  -11.4682    6.7820 C   0  0  0  0  0  0  0  0  0  0  0  0
    0.5951   -1.2979    0.7529 C   0  0  0  0  0  0  0  0  0  0  0  0
   -5.2581  -11.1696    6.7241 C   0  0  0  0  0  0  0  0  0  0  0  0
   -1.3590  -10.4094    8.4951 C   0  0  0  0  0  0  0  0  0  0  0  0
    0.4290    2.6866    3.7916 C   0  0  0  0  0  0  0  0  0  0  0  0
   -0.2914   -7.3006    3.3892 C   0  0  0  0  0  0  0  0  0  0  0  0
    0.2181    0.1223    2.7454 C   0  0  0  0  0  0  0  0  0  0  0  0
    0.1170   -3.6458    2.3173 C   0  0  0  0  0  0  0  0  0  0  0  0
   -2.6204  -10.5413    7.7742 C   0  0  0  0  0  0  0  0  0  0  0  0
    0.0820   -9.5123    4.3211 C   0  0  0  0  0  0  0  0  0  0  0  0
   -5.0266  -10.7564    8.0251 C   0  0  0  0  0  0  0  0  0  0  0  0
   -1.2015   -9.5552    4.9257 C   0  0  0  0  0  0  0  0  0  0  0  0
   -2.7846  -10.7106    6.3905 C   0  0  0  0  0  0  0  0  0  0  0  0
   -0.1564   -4.8595    3.1610 C   0  0  0  0  0  0  0  0  0  0  0  0
   -0.1406   -2.2587    2.9002 C   0  0  0  0  0  0  0  0  0  0  0  0
    0.5873    3.9413    4.2320 F   0  0  0  0  0  0  0  0  0  0  0  0
    0.9640  -10.5045    4.5325 F   0  0  0  0  0  0  0  0  0  0  0  0
    0.1984  -10.7960   10.0091 N   0  0  0  0  0  0  0  0  0  0  0  0
    0.5842   -9.6439    9.4408 N   0  0  0  0  0  0  0  0  0  0  0  0
   -7.2671  -10.7237    7.7390 N   0  0  0  0  0  0  0  0  0  0  0  0
    0.1114   -6.1335    2.6674 N   0  0  0  0  0  0  0  0  0  0  0  0
   -6.2568  -10.6829    8.6103 N   0  0  0  0  0  0  0  0  0  0  0  0
    0.2514   -1.1521    2.0988 N   0  0  0  0  0  0  0  0  0  0  0  0
   -0.6181   -4.7072    4.3084 O   0  0  0  0  0  0  0  0  0  0  0  0
   -0.6309   -2.1158    4.0026 O   0  0  0  0  0  0  0  0  0  0  0  0
   -1.6376  -10.7124    5.5738 O   0  0  0  0  0  0  0  0  0  0  0  0
  7  4  2  0
  8  5  1  0
  9  3  1  0
 10  6  2  0
 17  1  1  0
 17  3  2  0
 18 11  2  0
 18 16  1  0
 19 14  2  0
 19 15  1  0
 20  4  1  0
 20  5  2  0
 21  6  1  0
 21 12  2  0
 22  7  1  0
 22  8  2  0
 23  9  2  0
 24 13  1  0
 24 19  1  0
 25 12  1  0
 26 13  2  0
 26 18  1  0
 27 10  1  0
 27 25  2  0
 28 11  1  0
 28 24  2  0
 29 23  1  0
 30 23  1  0
 31 20  1  0
 32 25  1  0
 33 14  1  0
 34 15  2  0
 34 33  1  0
 35 16  2  0
 36 21  1  0
 36 29  1  0
 37  2  1  0
 37 26  1  0
 37 35  1  0
 38 17  1  0
 38 22  1  0
 38 30  1  0
 39 29  2  0
 40 30  2  0
 41 27  1  0
 41 28  1  0
M  END
>  <DRUGBANK_ID>  (1) 
DB12381

>  <COMMON_NAME>  (1) 
Merestinib

>  <CAS_NUMBER>  (1) 
1206799-15-6

>  <UNII>  (1) 
5OGS5K699E

>  <SYNONYMS>  (1) 
Merestinib

$$$$
