
     RDKit          3D

 31 32  0  0  0  0  0  0  0  0999 V2000
    1.0169   -0.0674   -0.0719 C   0  0  0  0  0  0  0  0  0  0  0  0
    0.5102   -0.5346    1.2829 C   0  0  0  0  0  0  0  0  0  0  0  0
    1.0169    0.4051    2.3648 C   0  0  0  0  0  0  0  0  0  0  0  0
    1.6306   -0.0436    3.5297 C   0  0  0  0  0  0  0  0  0  0  0  0
    1.8892    0.8655    4.5419 C   0  0  0  0  0  0  0  0  0  0  0  0
    1.6021    2.2162    4.4120 C   0  0  0  0  0  0  0  0  0  0  0  0
    0.9791    2.6485    3.2419 C   0  0  0  0  0  0  0  0  0  0  0  0
    0.6838    1.7483    2.2307 C   0  0  0  0  0  0  0  0  0  0  0  0
    0.0370    2.2004    1.0502 O   0  0  0  0  0  0  0  0  0  0  0  0
   -0.2677    1.2816    0.0112 C   0  0  0  0  0  0  0  0  0  0  0  0
    0.6453    4.0198    3.0855 O   0  0  0  0  0  0  0  0  0  0  0  0
    0.0108    4.4649    1.8956 C   0  0  0  0  0  0  0  0  0  0  0  0
    2.6405    0.2913    5.9990 Cl  0  0  0  0  0  0  0  0  0  0  0  0
   -0.9598   -0.5346    1.2828 N   0  0  0  0  0  0  0  0  0  0  0  0
   -1.6948   -1.7843    1.5252 C   0  0  0  0  0  0  0  0  0  0  0  0
   -1.3017   -2.5752    2.5168 C   0  0  0  0  0  0  0  0  0  0  0  0
   -2.0535   -3.6660    2.8814 C   0  0  0  0  0  0  0  0  0  0  0  0
   -3.1719   -4.0164    2.1772 C   0  0  0  0  0  0  0  0  0  0  0  0
   -3.5711   -3.1668    1.2482 C   0  0  0  0  0  0  0  0  0  0  0  0
   -2.7805   -2.1138    0.7306 C   0  0  0  0  0  0  0  0  0  0  0  0
   -3.1539   -1.2734   -0.8283 S   0  0  0  0  0  0  0  0  0  0  0  0
   -3.1345   -2.2892   -1.9729 O   0  0  0  0  0  0  0  0  0  0  0  0
   -4.5394   -0.6291   -0.7415 O   0  0  0  0  0  0  0  0  0  0  0  0
   -1.9116    0.0065   -1.1365 C   0  0  0  0  0  0  0  0  0  0  0  0
   -1.6495   -4.4679    4.0453 N   0  0  0  0  0  0  0  0  0  0  0  0
   -1.5086   -4.0153    5.4344 C   0  0  0  0  0  0  0  0  0  0  0  0
   -0.0779   -4.1985    5.9029 C   0  0  0  0  0  0  0  0  0  0  0  0
    0.3387   -5.6037    5.8201 N   0  0  0  0  0  0  0  0  0  0  0  0
    0.1978   -6.0563    4.4310 C   0  0  0  0  0  0  0  0  0  0  0  0
   -1.2329   -5.8732    3.9625 C   0  0  0  0  0  0  0  0  0  0  0  0
    0.9937   -0.0738   -0.0672 Cl  0  0  0  0  0  0  0  0  0  0  0  0
  1  2  1  0
  2  3  1  0
  2 14  1  0
  3  4  2  0
  3  8  1  0
  4  5  1  0
  5  6  2  0
  5 13  1  0
  6  7  1  0
  7  8  2  0
  7 11  1  0
  8  9  1  0
  9 10  1  0
 11 12  1  0
 14 15  1  0
 15 16  2  0
 15 20  1  0
 16 17  1  0
 17 18  2  0
 17 25  1  0
 18 19  1  0
 19 20  2  0
 20 21  1  0
 21 22  2  0
 21 23  2  0
 21 24  1  0
 25 26  1  0
 25 30  1  0
 26 27  1  0
 27 28  1  0
 28 29  1  0
 29 30  1  0
M  END
>  <DRUGBANK_ID>  (1) 
DB05993

>  <COMMON_NAME>  (1) 
PRX-07034

>  <CAS_NUMBER>  (1) 
903580-39-2

>  <UNII>  (1) 
336H22ETCG

$$$$
