
     RDKit          3D

 30 32  0  0  1  0  0  0  0  0999 V2000
    2.4594   -7.2923    2.4481 C   0  0  1  0  0  0  0  0  0  0  0  0
    3.2999   -5.7857    2.7083 S   0  0  0  0  0  0  0  0  0  0  0  0
    4.7810   -6.3504    2.0055 C   0  0  0  0  0  0  0  0  0  0  0  0
    6.1358   -5.2806    1.8790 S   0  0  0  0  0  0  0  0  0  0  0  0
    5.3889   -3.6057    1.9062 C   0  0  1  0  0  0  0  0  0  0  0  0
    4.6379   -3.3292    3.2051 C   0  0  0  0  0  0  0  0  0  0  0  0
    4.6525   -1.8797    3.5350 C   0  0  0  0  0  0  0  0  0  0  0  0
    6.3079   -1.3238    3.1237 S   0  0  0  0  0  0  0  0  0  0  0  0
    7.2348   -1.8141    4.2919 O   0  0  0  0  0  0  0  0  0  0  0  0
    6.4725   -2.5463    1.7579 C   0  0  0  0  0  0  0  0  0  0  0  0
    4.6897   -7.6533    1.6583 C   0  0  0  0  0  0  0  0  0  0  0  0
    3.4316   -8.2563    1.9171 N   0  0  0  0  0  0  0  0  0  0  0  0
    3.2380   -9.1067    2.9818 C   0  0  0  0  0  0  0  0  0  0  0  0
    3.7212  -10.1967    3.2297 O   0  0  0  0  0  0  0  0  0  0  0  0
    2.3730   -8.0918    3.7543 C   0  0  2  0  0  0  0  0  0  0  0  0
    0.9926   -8.4045    4.3156 C   0  0  1  0  0  0  0  0  0  0  0  0
   -0.1349   -7.6839    3.5906 C   0  0  0  0  0  0  0  0  0  0  0  0
    0.7399   -9.7981    4.3284 O   0  0  0  0  0  0  0  0  0  0  0  0
    5.7557   -8.4679    0.9720 C   0  0  0  0  0  0  0  0  0  0  0  0
    5.5560   -9.5957    0.5471 O   0  0  0  0  0  0  0  0  0  0  0  0
    6.9168   -7.7898    0.8325 O   0  0  0  0  0  0  0  0  0  0  0  0
    8.0500   -8.4533    0.2579 C   0  0  0  0  0  0  0  0  0  0  0  0
    8.5474   -9.5595    1.0110 O   0  0  0  0  0  0  0  0  0  0  0  0
    8.8587   -9.3173    2.3084 C   0  0  0  0  0  0  0  0  0  0  0  0
    8.8976   -8.2075    2.8225 O   0  0  0  0  0  0  0  0  0  0  0  0
    9.1846  -10.6067    3.0608 C   0  0  0  0  0  0  0  0  0  0  0  0
    7.9616  -11.5310    3.1891 C   0  0  0  0  0  0  0  0  0  0  0  0
    7.4761  -12.0880    1.8570 C   0  0  0  0  0  0  0  0  0  0  0  0
   10.3803  -11.3464    2.4474 C   0  0  0  0  0  0  0  0  0  0  0  0
   11.6133  -10.4685    2.3674 C   0  0  0  0  0  0  0  0  0  0  0  0
  1  2  1  1
  1 12  1  0
  2  3  1  0
  3  4  1  0
  3 11  2  0
  5  6  1  0
  5 10  1  0
  5  4  1  1
  6  7  1  0
  8  7  1  0
  8  9  1  1
  8 10  1  0
 11 12  1  0
 11 19  1  0
 12 13  1  0
 13 14  2  0
 15 13  1  6
 15  1  1  0
 15 16  1  0
 16 17  1  6
 16 18  1  0
 19 20  2  0
 19 21  1  0
 21 22  1  0
 22 23  1  0
 23 24  1  0
 24 25  2  0
 24 26  1  0
 26 27  1  0
 26 29  1  0
 27 28  1  0
 29 30  1  0
M  CHG  2   8   1   9  -1
M  END
>  <DRUGBANK_ID>  (1) 
DB16335

>  <COMMON_NAME>  (1) 
Sulopenem etzadroxil

>  <CAS_NUMBER>  (1) 
1000296-70-7

>  <UNII>  (1) 
492M3I304T

>  <SYNONYMS>  (1) 
Sulopenem etzadroxil

$$$$
