
     RDKit          3D

 34 38  0  0  1  0  0  0  0  0999 V2000
    0.9585   -0.0331    0.0662 C   0  0  0  0  0  0  0  0  0  0  0  0
    0.4666    0.9740   -0.8100 O   0  0  0  0  0  0  0  0  0  0  0  0
    0.8922    2.2379   -0.5088 C   0  0  0  0  0  0  0  0  0  0  0  0
   -0.0361    3.2042   -0.6477 N   0  0  0  0  0  0  0  0  0  0  0  0
    0.3022    4.5248   -0.4487 N   0  0  0  0  0  0  0  0  0  0  0  0
    1.5682    4.8569   -0.1120 C   0  0  0  0  0  0  0  0  0  0  0  0
    2.5418    3.8774    0.0313 C   0  0  0  0  0  0  0  0  0  0  0  0
    2.1996    2.5468   -0.1825 C   0  0  0  0  0  0  0  0  0  0  0  0
    1.9205    6.3230    0.0805 C   0  0  1  0  0  0  0  0  0  0  0  0
    1.9460    6.9973   -1.1748 O   0  0  0  0  0  0  0  0  0  0  0  0
    1.0907    7.0126    1.1622 C   0  0  0  0  0  0  0  0  0  0  0  0
    0.2921    8.1503    0.9511 C   0  0  0  0  0  0  0  0  0  0  0  0
    0.0637    8.9446   -0.5670 Cl  0  0  0  0  0  0  0  0  0  0  0  0
   -0.3978    8.7311    2.0138 C   0  0  0  0  0  0  0  0  0  0  0  0
   -0.3207    8.1869    3.2879 C   0  0  0  0  0  0  0  0  0  0  0  0
   -1.0225    8.7853    4.2620 F   0  0  0  0  0  0  0  0  0  0  0  0
    0.4216    7.0347    3.5594 C   0  0  0  0  0  0  0  0  0  0  0  0
    1.1430    6.4739    2.4862 C   0  0  0  0  0  0  0  0  0  0  0  0
    0.4121    6.4311    4.9113 C   0  0  0  0  0  0  0  0  0  0  0  0
    1.6292    6.3322    5.4910 N   0  0  0  0  0  0  0  0  0  0  0  0
    1.6403    5.8533    6.7437 C   0  0  0  0  0  0  0  0  0  0  0  0
    0.5752    5.4539    7.4545 N   0  0  0  0  0  0  0  0  0  0  0  0
   -0.6228    5.5276    6.8608 C   0  0  0  0  0  0  0  0  0  0  0  0
   -0.7729    6.0072    5.5511 C   0  0  0  0  0  0  0  0  0  0  0  0
   -2.0631    6.0166    4.9755 C   0  0  0  0  0  0  0  0  0  0  0  0
   -3.1772    5.5600    5.6788 C   0  0  0  0  0  0  0  0  0  0  0  0
   -3.0501    5.0928    6.9839 C   0  0  0  0  0  0  0  0  0  0  0  0
   -1.7647    5.1062    7.5490 C   0  0  0  0  0  0  0  0  0  0  0  0
   -4.1270    4.6058    7.6857 N   0  0  0  0  0  0  0  0  0  0  0  0
   -5.0065    3.5614    7.1507 C   0  0  0  0  0  0  0  0  0  0  0  0
   -6.4507    4.0724    7.0528 C   0  0  0  0  0  0  0  0  0  0  0  0
   -6.9097    4.6022    8.3094 O   0  0  0  0  0  0  0  0  0  0  0  0
   -6.0679    5.6940    8.7258 C   0  0  0  0  0  0  0  0  0  0  0  0
   -4.6051    5.2449    8.9163 C   0  0  0  0  0  0  0  0  0  0  0  0
  1  2  1  0
  2  3  1  0
  3  4  2  0
  3  8  1  0
  4  5  1  0
  5  6  2  0
  6  7  1  0
  7  8  2  0
  9  6  1  0
  9 10  1  6
  9 11  1  0
 11 12  2  0
 11 18  1  0
 12 13  1  0
 12 14  1  0
 14 15  2  0
 15 16  1  0
 15 17  1  0
 17 18  2  0
 17 19  1  0
 19 20  2  0
 19 24  1  0
 20 21  1  0
 21 22  2  0
 22 23  1  0
 23 24  2  0
 23 28  1  0
 24 25  1  0
 25 26  2  0
 26 27  1  0
 27 28  2  0
 27 29  1  0
 29 30  1  0
 29 34  1  0
 30 31  1  0
 31 32  1  0
 32 33  1  0
 33 34  1  0
M  END
>  <DRUGBANK_ID>  (1) 
DB16252

>  <COMMON_NAME>  (1) 
Nedisertib

>  <CAS_NUMBER>  (1) 
1637542-33-6

>  <UNII>  (1) 
GN429E725A

$$$$
