887
     RDKit          3D

 25 26  0  0  0  0  0  0  0  0999 V2000
    1.0431   -0.0348    0.0525 S   0  0  0  0  0  0  0  0  0  0  0  0
    2.7769   -2.4988   -0.0575 O   0  0  0  0  0  0  0  0  0  0  0  0
    0.6629    0.5608    1.3219 O   0  0  0  0  0  0  0  0  0  0  0  0
    0.6183    0.5229   -1.2029 O   0  0  0  0  0  0  0  0  0  0  0  0
    6.8953    2.4195    0.6994 O   0  0  0  0  0  0  0  0  0  0  0  0
    4.9326    3.4963    0.5968 O   0  0  0  0  0  0  0  0  0  0  0  0
    5.7793   -2.4138    0.2765 N   0  0  0  0  0  0  0  0  0  0  0  0
    0.4308   -1.5916    0.1171 N   0  0  0  0  0  0  0  0  0  0  0  0
    7.2248   -2.4865    0.4391 C   0  0  0  0  0  0  0  0  0  0  0  0
    7.6158   -3.0891    1.7945 C   0  0  0  0  0  0  0  0  0  0  0  0
    4.9727   -1.3004    0.1035 C   0  0  0  0  0  0  0  0  0  0  0  0
    3.5505   -1.3550    0.0525 C   0  0  0  0  0  0  0  0  0  0  0  0
    2.8253   -0.1362    0.0390 C   0  0  0  0  0  0  0  0  0  0  0  0
    7.1529   -4.5183    1.9804 C   0  0  0  0  0  0  0  0  0  0  0  0
    5.5834   -0.0363    0.1295 C   0  0  0  0  0  0  0  0  0  0  0  0
    4.8777    1.1578    0.2067 C   0  0  0  0  0  0  0  0  0  0  0  0
    3.4887    1.1088    0.1054 C   0  0  0  0  0  0  0  0  0  0  0  0
    7.5442   -5.4681    0.8580 C   0  0  0  0  0  0  0  0  0  0  0  0
    3.2602   -3.7697    0.0787 C   0  0  0  0  0  0  0  0  0  0  0  0
    5.5592    2.4565    0.4928 C   0  0  0  0  0  0  0  0  0  0  0  0
    3.7559   -4.2403    1.2896 C   0  0  0  0  0  0  0  0  0  0  0  0
    3.2156   -4.6248   -1.0251 C   0  0  0  0  0  0  0  0  0  0  0  0
    4.2911   -5.5341    1.3600 C   0  0  0  0  0  0  0  0  0  0  0  0
    3.7633   -5.9098   -0.9457 C   0  0  0  0  0  0  0  0  0  0  0  0
    4.3685   -6.3348    0.2276 C   0  0  0  0  0  0  0  0  0  0  0  0
  1  3  2  0
  1  4  2  0
  1  8  1  0
  1 13  1  0
  2 12  1  0
  2 19  1  0
  5 20  1  0
  6 20  2  0
  7  9  1  0
  7 11  1  0
  9 10  1  0
 10 14  1  0
 11 12  2  0
 11 15  1  0
 12 13  1  0
 13 17  2  0
 14 18  1  0
 15 16  2  0
 16 17  1  0
 16 20  1  0
 19 21  2  0
 19 22  1  0
 21 23  1  0
 22 24  2  0
 23 25  2  0
 24 25  1  0
M  END
>  <DRUGBANK_ID>  (1) 
DB00887

>  <SECONDARY_ACCESSION_NUMBERS>  (1) 
APRD00294

>  <COMMON_NAME>  (1) 
Bumetanide

>  <CAS_NUMBER>  (1) 
28395-03-1

>  <UNII>  (1) 
0Y2S3XUQ5H

>  <SYNONYMS>  (1) 
3-(aminosulfonyl)-5-(butylamino)-4-phenoxybenzoic acid; 3-butylamino-4-(phenoxy)-5-sulfamoylbenzoic acid; 3-butylamino-4-phenoxy-5-sulfamoyl-benzoic acid; 3-butylamino-4-phenoxy-5-sulfamoylbenzoic acid; Bumetanida; Bumetanide; Bumetanidum

$$$$
