967
     RDKit          3D

 22 25  0  0  0  0  0  0  0  0999 V2000
    0.9278    0.0032    0.0673 Cl  0  0  0  0  0  0  0  0  0  0  0  0
    9.0749   -2.9293   -2.0657 N   0  0  0  0  0  0  0  0  0  0  0  0
    8.6790    0.2923    1.6552 N   0  0  0  0  0  0  0  0  0  0  0  0
    7.6048   -0.6130   -0.9758 C   0  0  0  0  0  0  0  0  0  0  0  0
    6.9320    0.0517    0.0029 C   0  0  0  0  0  0  0  0  0  0  0  0
    6.9925   -1.5193   -2.0435 C   0  0  0  0  0  0  0  0  0  0  0  0
    9.1145   -0.5991   -1.1736 C   0  0  0  0  0  0  0  0  0  0  0  0
    7.6056   -2.9298   -1.9505 C   0  0  0  0  0  0  0  0  0  0  0  0
    9.6592   -2.0287   -1.0529 C   0  0  0  0  0  0  0  0  0  0  0  0
    5.4447    0.0017    0.0057 C   0  0  0  0  0  0  0  0  0  0  0  0
    7.6433    0.9050    1.0165 C   0  0  0  0  0  0  0  0  0  0  0  0
    5.4824    2.4552   -0.5557 C   0  0  0  0  0  0  0  0  0  0  0  0
    4.7323    1.1793   -0.2795 C   0  0  0  0  0  0  0  0  0  0  0  0
    6.1011    2.9889    0.7309 C   0  0  0  0  0  0  0  0  0  0  0  0
    7.2519    2.2162    1.3355 C   0  0  0  0  0  0  0  0  0  0  0  0
    4.7433   -1.1711    0.3184 C   0  0  0  0  0  0  0  0  0  0  0  0
    3.3320    1.1765   -0.2420 C   0  0  0  0  0  0  0  0  0  0  0  0
    7.9725    2.8885    2.3396 C   0  0  0  0  0  0  0  0  0  0  0  0
    3.3456   -1.1751    0.3221 C   0  0  0  0  0  0  0  0  0  0  0  0
    2.6479   -0.0009    0.0471 C   0  0  0  0  0  0  0  0  0  0  0  0
    9.0441    2.2771    2.9697 C   0  0  0  0  0  0  0  0  0  0  0  0
    9.3574    0.9889    2.5936 C   0  0  0  0  0  0  0  0  0  0  0  0
  1 20  1  0
  2  8  1  0
  2  9  1  0
  3 11  2  0
  3 22  1  0
  4  5  2  3
  4  6  1  0
  4  7  1  0
  5 10  1  0
  5 11  1  0
  6  8  1  0
  7  9  1  0
 10 13  2  0
 10 16  1  0
 11 15  1  0
 12 13  1  0
 12 14  1  0
 13 17  1  0
 14 15  1  0
 15 18  2  0
 16 19  2  0
 17 20  2  0
 18 21  1  0
 19 20  1  0
 21 22  2  0
M  END
>  <DRUGBANK_ID>  (1) 
DB00967

>  <SECONDARY_ACCESSION_NUMBERS>  (1) 
APRD00324

>  <COMMON_NAME>  (1) 
Desloratadine

>  <CAS_NUMBER>  (1) 
100643-71-8

>  <UNII>  (1) 
FVF865388R

>  <SYNONYMS>  (1) 
8-Chloro-11-piperidin-4-ylidene-6,11-dihydro-5H-benzo[5,6]cyclohepta[1,2-b]pyridine; 8-chloro-6,11-dihydro-11-(4-piperidinylidene)-5H-benzo(5,6)cyclohepta(1,2-b)pyridine; Descarboethoxyloratadine; Desloratadina; Desloratadine

$$$$
