
     RDKit          3D

  9  9  0  0  1  0  0  0  0  0999 V2000
   -0.1499   -1.2127    0.5613 C   0  0  0  0  0  0  0  0  0  0  0  0
    0.8002   -0.0319    0.5485 C   0  0  2  0  0  0  0  0  0  0  0  0
   -0.1443    1.1617    0.4794 C   0  0  0  0  0  0  0  0  0  0  0  0
   -1.3043    0.7163   -0.3157 N   0  0  0  0  0  0  0  0  0  0  0  0
   -1.2492   -0.7700   -0.3947 C   0  0  2  0  0  0  0  0  0  0  0  0
   -2.6029   -1.4094   -0.1102 C   0  0  0  0  0  0  0  0  0  0  0  0
   -3.2317   -2.1046   -0.8977 O   0  0  0  0  0  0  0  0  0  0  0  0
   -3.0972   -1.1630    1.1195 O   0  0  0  0  0  0  0  0  0  0  0  0
    1.6360   -0.0829   -0.6090 O   0  0  0  0  0  0  0  0  0  0  0  0
  1  2  1  0
  1  5  1  0
  2  3  1  0
  2  9  1  6
  3  4  1  0
  4  5  1  0
  5  6  1  1
  6  7  2  0
  6  8  1  0
M  END
>  <DRUGBANK_ID>  (1) 
DB08847

>  <COMMON_NAME>  (1) 
Hydroxyproline

>  <CAS_NUMBER>  (1) 
51-35-4

>  <UNII>  (1) 
RMB44WO89X

>  <SYNONYMS>  (1) 
trans-4-Hydroxy-L-proline; trans-L-Hydroxyproline

$$$$
