299
     RDKit          3D

 18 19  0  0  0  0  0  0  0  0999 V2000
    0.9598    0.1358    0.0826 O   0  0  0  0  0  0  0  0  0  0  0  0
   -1.0721   -3.4795    0.7682 O   0  0  0  0  0  0  0  0  0  0  0  0
    1.0638   -6.1946    5.6623 O   0  0  0  0  0  0  0  0  0  0  0  0
    2.8100   -3.3468    2.5646 N   0  0  0  0  0  0  0  0  0  0  0  0
    1.4324   -2.3727    4.3803 N   0  0  0  0  0  0  0  0  0  0  0  0
    2.5439   -5.4892    3.1459 N   0  0  0  0  0  0  0  0  0  0  0  0
    0.5721   -3.9613    5.9430 N   0  0  0  0  0  0  0  0  0  0  0  0
    0.1081   -1.7264    6.1426 N   0  0  0  0  0  0  0  0  0  0  0  0
    0.9966   -2.3106    0.1995 C   0  0  0  0  0  0  0  0  0  0  0  0
    2.5429   -2.3704    0.2609 C   0  0  0  0  0  0  0  0  0  0  0  0
    3.1364   -2.2466    1.6812 C   0  0  0  0  0  0  0  0  0  0  0  0
    0.4742   -0.9942    0.7912 C   0  0  0  0  0  0  0  0  0  0  0  0
    0.3366   -3.5140    0.8857 C   0  0  0  0  0  0  0  0  0  0  0  0
    2.0701   -3.3551    3.7147 C   0  0  0  0  0  0  0  0  0  0  0  0
    1.9426   -4.6752    4.0807 C   0  0  0  0  0  0  0  0  0  0  0  0
    3.0521   -4.6684    2.2528 C   0  0  0  0  0  0  0  0  0  0  0  0
    1.1713   -5.0300    5.2748 C   0  0  0  0  0  0  0  0  0  0  0  0
    0.7072   -2.7476    5.4904 C   0  0  0  0  0  0  0  0  0  0  0  0
  1 12  1  0
  2 13  1  0
  3 17  2  0
  4 11  1  0
  4 14  1  0
  4 16  1  0
  5 14  1  0
  5 18  1  0
  6 15  1  0
  6 16  2  0
  7 17  1  0
  7 18  2  0
  8 18  1  0
  9 10  1  0
  9 12  1  0
  9 13  1  0
 10 11  1  0
 14 15  2  0
 15 17  1  0
M  END
>  <DRUGBANK_ID>  (1) 
DB00299

>  <SECONDARY_ACCESSION_NUMBERS>  (1) 
APRD00041; DB01730

>  <COMMON_NAME>  (1) 
Penciclovir

>  <CAS_NUMBER>  (1) 
39809-25-1

>  <UNII>  (1) 
359HUE8FJC

>  <SYNONYMS>  (1) 
9-(4-hydroxy-3-(hydroxymethyl)butyl)guanine; 9-(4-hydroxy-3-hydroxymethylbut-1-yl)-guanine; 9-[2-hydroxy-1-(hydroxymethyl)-ethoxymethyl]guanine; 9-[4-hydroxy-3-(hydroxymethyl)but-1-yl]guanine; PCV; PE2; Penciclovir; Penciclovirum

$$$$
