
     RDKit          3D

 12 12  0  0  1  0  0  0  0  0999 V2000
    1.1235   -0.0450   -0.1614 C   0  0  0  0  0  0  0  0  0  0  0  0
    0.4848    1.2272   -0.7701 C   0  0  2  0  0  0  0  0  0  0  0  0
    1.4061    2.4464   -0.9575 C   0  0  1  0  0  0  0  0  0  0  0  0
    1.8142    3.0442    0.3938 C   0  0  1  0  0  0  0  0  0  0  0  0
    0.5532    3.3420    1.2150 C   0  0  2  0  0  0  0  0  0  0  0  0
   -0.2832    2.0753    1.2878 C   0  0  0  0  0  0  0  0  0  0  0  0
    0.6108   -1.2212   -0.7788 O   0  0  0  0  0  0  0  0  0  0  0  0
    2.5359    2.1374   -1.7705 O   0  0  0  0  0  0  0  0  0  0  0  0
    2.7495    2.1826    1.0555 O   0  0  0  0  0  0  0  0  0  0  0  0
   -0.2449    4.3533    0.5975 O   0  0  0  0  0  0  0  0  0  0  0  0
   -0.5689    1.5057    2.3390 O   0  0  0  0  0  0  0  0  0  0  0  0
   -0.6413    1.5850    0.0656 O   0  0  0  0  0  0  0  0  0  0  0  0
  2  1  1  1
  3  2  1  0
  3  8  1  1
  4  3  1  0
  4  9  1  1
  5  4  1  0
  5 10  1  6
  6  5  1  0
  7  1  1  0
 11  6  2  0
 12  2  1  0
 12  6  1  0
M  END
>  <DRUGBANK_ID>  (1) 
DB01885

>  <SECONDARY_ACCESSION_NUMBERS>  (1) 
EXPT00035

>  <COMMON_NAME>  (1) 
D-Galctopyranosyl-1-On

>  <CAS_NUMBER>  (1) 
15892-28-1

$$$$
