
     RDKit          3D

 34 38  0  0  1  0  0  0  0  0999 V2000
    0.9254   -0.0882   -0.0526 C   0  0  0  0  0  0  0  0  0  0  0  0
    0.4348   -1.5037   -0.1672 C   0  0  0  0  0  0  0  0  0  0  0  0
   -0.2799   -2.0230    0.6963 O   0  0  0  0  0  0  0  0  0  0  0  0
    0.8106   -2.2326   -1.2531 N   0  0  0  0  0  0  0  0  0  0  0  0
    1.7302   -1.8356   -2.2989 C   0  0  0  0  0  0  0  0  0  0  0  0
    3.0445   -2.6389   -2.3912 C   0  0  0  0  0  0  0  0  0  0  0  0
    3.4566   -3.0035   -3.4955 O   0  0  0  0  0  0  0  0  0  0  0  0
    3.8426   -2.6860   -1.2834 N   0  0  0  0  0  0  0  0  0  0  0  0
    3.5668   -2.9713    0.1206 C   0  0  1  0  0  0  0  0  0  0  0  0
    4.4215   -4.2613    0.2893 C   0  0  0  0  0  0  0  0  0  0  0  0
    5.6393   -4.0115   -0.6624 C   0  0  0  0  0  0  0  0  0  0  0  0
    5.2995   -2.6384   -1.2652 C   0  0  2  0  0  0  0  0  0  0  0  0
    5.4574   -1.6487   -0.1226 C   0  0  0  0  0  0  0  0  0  0  0  0
    4.3713   -1.8570    0.7496 C   0  0  0  0  0  0  0  0  0  0  0  0
    4.2301   -1.1223    1.9064 C   0  0  0  0  0  0  0  0  0  0  0  0
    5.1965   -0.1329    2.1719 C   0  0  0  0  0  0  0  0  0  0  0  0
    6.2955    0.0903    1.3003 C   0  0  0  0  0  0  0  0  0  0  0  0
    6.4155   -0.7020    0.1436 C   0  0  0  0  0  0  0  0  0  0  0  0
    7.1883    1.1689    1.5195 N   0  0  0  0  0  0  0  0  0  0  0  0
    8.3246    1.4184    0.7357 C   0  0  0  0  0  0  0  0  0  0  0  0
    8.1596    1.7825   -0.5387 N   0  0  0  0  0  0  0  0  0  0  0  0
    9.2677    1.9835   -1.2727 C   0  0  0  0  0  0  0  0  0  0  0  0
   10.5475    1.8370   -0.7956 C   0  0  0  0  0  0  0  0  0  0  0  0
   10.6471    1.4561    0.5197 C   0  0  0  0  0  0  0  0  0  0  0  0
    9.5370    1.2450    1.2659 N   0  0  0  0  0  0  0  0  0  0  0  0
   11.9059    1.3073    1.1275 N   0  0  0  0  0  0  0  0  0  0  0  0
   12.1928    0.9629    2.4794 C   0  0  0  0  0  0  0  0  0  0  0  0
   11.6899   -0.4310    2.8999 C   0  0  0  0  0  0  0  0  0  0  0  0
   11.2394    0.2139    4.2302 C   0  0  0  0  0  0  0  0  0  0  0  0
   11.2469    1.5837    3.5309 C   0  0  0  0  0  0  0  0  0  0  0  0
   11.7331    2.0849   -1.6453 C   0  0  0  0  0  0  0  0  0  0  0  0
   12.5312    3.0765   -1.1568 F   0  0  0  0  0  0  0  0  0  0  0  0
   12.5434    0.9931   -1.7477 F   0  0  0  0  0  0  0  0  0  0  0  0
   11.4348    2.4454   -2.9226 F   0  0  0  0  0  0  0  0  0  0  0  0
  1  2  1  0
  2  3  2  0
  2  4  1  0
  4  5  1  0
  5  6  1  0
  6  7  2  0
  6  8  1  0
  9  8  1  0
  9 10  1  1
  9 14  1  0
 10 11  1  0
 12 11  1  1
 12  8  1  0
 12 13  1  0
 13 14  2  0
 13 18  1  0
 14 15  1  0
 15 16  2  0
 16 17  1  0
 17 18  2  0
 17 19  1  0
 19 20  1  0
 20 21  2  0
 20 25  1  0
 21 22  1  0
 22 23  2  0
 23 24  1  0
 23 31  1  0
 24 25  2  0
 24 26  1  0
 26 27  1  0
 27 28  1  0
 27 30  1  0
 28 29  1  0
 29 30  1  0
 31 32  1  0
 31 33  1  0
 31 34  1  0
M  END
>  <DRUGBANK_ID>  (1) 
DB13059

>  <COMMON_NAME>  (1) 
PF-03814735

>  <CAS_NUMBER>  (1) 
942487-16-3

>  <UNII>  (1) 
6V5T4O5758

$$$$
