
     RDKit          3D

 41 46  0  0  1  0  0  0  0  0999 V2000
    0.5303   -0.2454    0.1372 C   0  0  0  0  0  0  0  0  0  0  0  0
    0.4293    0.2440   -1.3026 C   0  0  0  0  0  0  0  0  0  0  0  0
    1.1536   -0.6091   -2.1811 O   0  0  0  0  0  0  0  0  0  0  0  0
    2.6106   -0.5038   -2.2464 C   0  0  0  0  0  0  0  0  0  0  0  0
    3.0024    0.5872   -3.2480 C   0  0  0  0  0  0  0  0  0  0  0  0
    2.6003    0.2608   -4.6715 C   0  0  0  0  0  0  0  0  0  0  0  0
    3.1497   -1.0241   -5.1190 N   0  0  0  0  0  0  0  0  0  0  0  0
    2.6242   -2.1036   -4.2712 C   0  0  0  0  0  0  0  0  0  0  0  0
    3.0232   -1.8896   -2.8155 C   0  0  0  0  0  0  0  0  0  0  0  0
    2.8687   -1.2840   -6.5490 C   0  0  0  0  0  0  0  0  0  0  0  0
    1.3689   -1.3713   -6.8615 C   0  0  0  0  0  0  0  0  0  0  0  0
    3.5285   -0.2195   -7.4376 C   0  0  0  0  0  0  0  0  0  0  0  0
    3.3013   -0.1906   -0.8916 C   0  0  0  0  0  0  0  0  0  0  0  0
    3.1226    1.0429   -0.2314 C   0  0  0  0  0  0  0  0  0  0  0  0
    3.3653    1.1484    1.1511 C   0  0  0  0  0  0  0  0  0  0  0  0
    3.9403    0.0791    1.8363 C   0  0  0  0  0  0  0  0  0  0  0  0
    4.2856   -1.0589    1.1899 N   0  0  0  0  0  0  0  0  0  0  0  0
    3.9296   -1.1772   -0.1273 C   0  0  0  0  0  0  0  0  0  0  0  0
    4.3658    0.2349    3.2356 C   0  0  0  0  0  0  0  0  0  0  0  0
    5.7025    0.2379    3.7240 C   0  0  0  0  0  0  0  0  0  0  0  0
    5.7129    0.8568    4.9610 C   0  0  0  0  0  0  0  0  0  0  0  0
    6.7503    1.3547    5.8095 C   0  0  0  0  0  0  0  0  0  0  0  0
    6.3623    1.9414    6.9551 C   0  0  0  0  0  0  0  0  0  0  0  0
    4.9165    2.0198    7.2555 C   0  0  0  0  0  0  0  0  0  0  0  0
    3.9516    1.5636    6.5200 N   0  0  0  0  0  0  0  0  0  0  0  0
    4.3947    0.9859    5.3606 N   0  0  0  0  0  0  0  0  0  0  0  0
    3.5758    0.5071    4.3462 C   0  0  0  0  0  0  0  0  0  0  0  0
    8.0999    1.3049    5.4489 N   0  0  0  0  0  0  0  0  0  0  0  0
    9.1243    0.5930    6.2428 C   0  0  0  0  0  0  0  0  0  0  0  0
   10.3277    1.5210    6.5266 C   0  0  0  0  0  0  0  0  0  0  0  0
   10.8598    2.0935    5.2868 N   0  0  0  0  0  0  0  0  0  0  0  0
    9.8345    2.7726    4.4690 C   0  0  0  0  0  0  0  0  0  0  0  0
    8.6300    1.8408    4.1765 C   0  0  0  0  0  0  0  0  0  0  0  0
   12.1833    2.0173    4.8545 C   0  0  0  0  0  0  0  0  0  0  0  0
   12.5696    2.5206    3.8163 O   0  0  0  0  0  0  0  0  0  0  0  0
   13.0161    1.3104    5.6970 O   0  0  0  0  0  0  0  0  0  0  0  0
   14.4088    1.2046    5.2732 C   0  0  2  0  0  0  0  0  0  0  0  0
   15.0510   -0.0403    5.8603 C   0  0  0  0  0  0  0  0  0  0  0  0
   15.5303    0.4138    7.2229 C   0  0  0  0  0  0  0  0  0  0  0  0
   15.7835    1.8194    7.1398 O   0  0  0  0  0  0  0  0  0  0  0  0
   15.2683    2.3070    5.8855 C   0  0  0  0  0  0  0  0  0  0  0  0
  1  2  1  0
  2  3  1  0
  3  4  1  0
  4  5  1  0
  4  9  1  0
  4 13  1  0
  5  6  1  0
  6  7  1  0
  7  8  1  0
  7 10  1  0
  8  9  1  0
 10 11  1  0
 10 12  1  0
 13 14  2  0
 13 18  1  0
 14 15  1  0
 15 16  2  0
 16 17  1  0
 16 19  1  0
 17 18  2  0
 19 20  1  0
 19 27  2  0
 20 21  2  0
 21 22  1  0
 21 26  1  0
 22 23  2  0
 22 28  1  0
 23 24  1  0
 24 25  2  0
 25 26  1  0
 26 27  1  0
 28 29  1  0
 28 33  1  0
 29 30  1  0
 30 31  1  0
 31 32  1  0
 31 34  1  0
 32 33  1  0
 34 35  2  0
 34 36  1  0
 37 36  1  1
 37 38  1  0
 37 41  1  0
 38 39  1  0
 39 40  1  0
 40 41  1  0
M  END
>  <DRUGBANK_ID>  (1) 
DB18064

>  <COMMON_NAME>  (1) 
Fidrisertib

>  <CAS_NUMBER>  (1) 
2141955-96-4

>  <UNII>  (1) 
KF4ZI0CJ7M

>  <SYNONYMS>  (1) 
(r)-tetrahydrofuran-3-yl 4-(6-(5-(4-ethoxy-1-isopropylpiperidin-4-yl)pyridin-2-yl)pyrrolo(1,2-b)pyridazin-4-yl)piperazine-1-carboxylate; 1-piperazinecarboxylic acid, 4-(6-(5-(4-ethoxy-1-(1-methylethyl)-4-piperidinyl)-2-pyridinyl)pyrrolo(1,2-b)pyridazin-4-yl)-, (3r)-tetrahydro-3-furanyl ester

$$$$
