
     RDKit          3D

 27 30  0  0  0  0  0  0  0  0999 V2000
    1.0532   -0.1161   -0.0460 C   0  0  0  0  0  0  0  0  0  0  0  0
    0.5667    1.2976    0.2649 C   0  0  0  0  0  0  0  0  0  0  0  0
    1.0710    2.2357   -0.8501 C   0  0  0  0  0  0  0  0  0  0  0  0
   -0.8637    1.3446    0.2261 O   0  0  0  0  0  0  0  0  0  0  0  0
    1.0570    1.7818    1.6487 C   0  0  0  0  0  0  0  0  0  0  0  0
    0.6010    1.0279    2.8187 N   0  0  0  0  0  0  0  0  0  0  0  0
    0.9073   -0.2878    3.0091 N   0  0  0  0  0  0  0  0  0  0  0  0
    0.3404   -0.6146    4.1941 C   0  0  0  0  0  0  0  0  0  0  0  0
    0.3461   -2.0213    4.6866 C   0  0  0  0  0  0  0  0  0  0  0  0
    1.5363   -2.7609    4.8046 C   0  0  0  0  0  0  0  0  0  0  0  0
    1.5346   -4.0733    5.3212 C   0  0  0  0  0  0  0  0  0  0  0  0
    0.3437   -4.6768    5.7171 C   0  0  0  0  0  0  0  0  0  0  0  0
   -0.8485   -3.9731    5.5811 C   0  0  0  0  0  0  0  0  0  0  0  0
   -0.8474   -2.6648    5.0618 C   0  0  0  0  0  0  0  0  0  0  0  0
   -0.1751    0.5680    4.8427 C   0  0  0  0  0  0  0  0  0  0  0  0
   -0.7454    0.9837    6.0528 C   0  0  0  0  0  0  0  0  0  0  0  0
   -0.9766   -0.2082    7.2557 Cl  0  0  0  0  0  0  0  0  0  0  0  0
   -1.0559    2.3383    6.2237 C   0  0  0  0  0  0  0  0  0  0  0  0
   -0.8434    3.2461    5.2342 N   0  0  0  0  0  0  0  0  0  0  0  0
   -0.3089    2.8847    4.0792 N   0  0  0  0  0  0  0  0  0  0  0  0
    0.0105    1.5890    3.9153 C   0  0  0  0  0  0  0  0  0  0  0  0
   -1.5928    2.9089    7.4728 C   0  0  0  0  0  0  0  0  0  0  0  0
   -2.8495    3.5380    7.5101 C   0  0  0  0  0  0  0  0  0  0  0  0
   -3.3649    4.0503    8.7070 C   0  0  0  0  0  0  0  0  0  0  0  0
   -2.6278    3.9528    9.8854 C   0  0  0  0  0  0  0  0  0  0  0  0
   -1.3746    3.3490    9.8676 C   0  0  0  0  0  0  0  0  0  0  0  0
   -0.8600    2.8398    8.6722 C   0  0  0  0  0  0  0  0  0  0  0  0
  1  2  1  0
  2  3  1  0
  2  4  1  0
  2  5  1  0
  5  6  1  0
  6  7  1  0
  6 21  1  0
  7  8  2  0
  8  9  1  0
  8 15  1  0
  9 10  2  0
  9 14  1  0
 10 11  1  0
 11 12  2  0
 12 13  1  0
 13 14  2  0
 15 16  1  0
 15 21  2  0
 16 17  1  0
 16 18  2  0
 18 19  1  0
 18 22  1  0
 19 20  2  0
 20 21  1  0
 22 23  2  0
 22 27  1  0
 23 24  1  0
 24 25  2  0
 25 26  1  0
 26 27  2  0
M  END
>  <DRUGBANK_ID>  (1) 
DB17801

>  <COMMON_NAME>  (1) 
BF-844

>  <CAS_NUMBER>  (1) 
1404506-35-9

>  <UNII>  (1) 
AW4QOD73S3

>  <SYNONYMS>  (1) 
1-(4-chloro-3,5-diphenyl-pyrazolo(3,4-c)pyridazin-1-yl)-2-methyl-propan-2-ol; 1-(4-chloro-3,5-diphenyl-pyrazolo[3,4-C]pyridazin-1-yl)-2-methyl-propan-2-ol; BF-844; BF844

$$$$
