
     RDKit          3D

  5  0  0  0  0  0  0  0  0  0999 V2000
    0.9358    0.0010    0.0767 O   0  0  0  0  0  0  0  0  0  0  0  0
    1.0122    0.0861   -0.0494 O   0  0  0  0  0  0  0  0  0  0  0  0
    0.9113   -0.0024   -0.0461 O   0  0  0  0  0  0  0  0  0  0  0  0
    0.9068   -0.0362   -0.0006 Al  0  0  0  0  0 15  0  0  0  0  0  0
    1.0335    0.0312   -0.0889 Al  0  0  0  0  0 15  0  0  0  0  0  0
M  CHG  5   1  -2   2  -2   3  -2   4   3   5   3
M  END
>  <DRUGBANK_ID>  (1) 
DB11342

>  <COMMON_NAME>  (1) 
Aluminum oxide

>  <CAS_NUMBER>  (1) 
1344-28-1

>  <UNII>  (1) 
LMI26O6933

>  <SYNONYMS>  (1) 
Aluminium oxide

$$$$
