GPP
     RDKit          3D

 19 18  0  0  0  0  0  0  0  0999 V2000
    1.2214   -0.3315    0.1690 C   0  0  0  0  0  0  0  0  0  0  0  0
    1.1751   -0.0085    1.5739 O   0  0  0  0  0  0  0  0  0  0  0  0
    0.5601    0.6319   -0.8576 C   0  0  0  0  0  0  0  0  0  0  0  0
   -0.2841    0.3508   -1.8957 C   0  0  0  0  0  0  0  0  0  0  0  0
   -0.7819   -1.0376   -2.2007 C   0  0  0  0  0  0  0  0  0  0  0  0
   -0.7995    1.3877   -2.9310 C   0  0  0  0  0  0  0  0  0  0  0  0
   -1.7356    2.4775   -2.3739 C   0  0  0  0  0  0  0  0  0  0  0  0
   -1.0354    3.3594   -1.3901 C   0  0  0  0  0  0  0  0  0  0  0  0
   -0.7368    4.6767   -1.5502 C   0  0  0  0  0  0  0  0  0  0  0  0
    0.1228    5.3815   -0.5456 C   0  0  0  0  0  0  0  0  0  0  0  0
   -1.2618    5.4552   -2.7087 C   0  0  0  0  0  0  0  0  0  0  0  0
    0.5481   -0.9257    2.7786 P   0  0  1  0  0  0  0  0  0  0  0  0
   -0.4373   -0.2020    3.6497 O   0  0  0  0  0  0  0  0  0  0  0  0
   -0.2749   -2.0054    1.9147 O   0  0  0  0  0  0  0  0  0  0  0  0
    1.6088   -1.9062    3.6678 O   0  0  0  0  0  0  0  0  0  0  0  0
    2.5678   -1.0589    4.8320 P   0  0  0  0  0  0  0  0  0  0  0  0
    2.3562    0.2744    4.1460 O   0  0  0  0  0  0  0  0  0  0  0  0
    1.5099   -1.4348    5.9968 O   0  0  0  0  0  0  0  0  0  0  0  0
    3.5269   -0.2117    5.9962 O   0  0  0  0  0  0  0  0  0  0  0  0
  1  2  1  0
  1  3  1  0
  3  4  2  0
  4  5  1  0
  4  6  1  0
  6  7  1  0
  7  8  1  0
  8  9  2  3
  9 10  1  0
  9 11  1  0
 12  2  1  0
 12 13  2  0
 12 14  1  0
 12 15  1  0
 15 16  1  0
 16 17  2  0
 16 18  1  0
 16 19  1  0
M  END
>  <DRUGBANK_ID>  (1) 
DB02552

>  <SECONDARY_ACCESSION_NUMBERS>  (1) 
EXPT01640

>  <COMMON_NAME>  (1) 
Geranyl Diphosphate

>  <UNII>  (1) 
7X7DBM66JG

$$$$
