
     RDKit          3D

 37 42  0  0  1  0  0  0  0  0999 V2000
   -5.7781    3.4966   -2.9878 C   0  0  0  0  0  0  0  0  0  0  0  0
   -6.0583    2.1331   -2.8678 C   0  0  0  0  0  0  0  0  0  0  0  0
   -5.2635    4.1605   -1.9008 C   0  0  0  0  0  0  0  0  0  0  0  0
    2.3402    4.2854    2.7733 C   0  0  0  0  0  0  0  0  0  0  0  0
    1.1306    3.6745    2.8181 C   0  0  0  0  0  0  0  0  0  0  0  0
   -5.7293    1.4094   -1.6956 C   0  0  0  0  0  0  0  0  0  0  0  0
   -5.0870    3.4542   -0.7171 C   0  0  0  0  0  0  0  0  0  0  0  0
    2.8335    4.5734    1.4838 C   0  0  0  0  0  0  0  0  0  0  0  0
    0.5989    3.2051    1.6330 C   0  0  0  0  0  0  0  0  0  0  0  0
    0.3981    5.1746   -1.7514 C   0  0  0  0  0  0  0  0  0  0  0  0
    1.7343    5.0780   -1.1798 C   0  0  0  0  0  0  0  0  0  0  0  0
   -0.7635    0.1932    5.3813 C   0  0  0  0  0  0  0  0  0  0  0  0
   -0.9167   -1.3888    3.5854 C   0  0  0  0  0  0  0  0  0  0  0  0
   -0.0180   -0.7155    6.1515 C   0  0  0  0  0  0  0  0  0  0  0  0
   -0.1469   -2.2967    4.3461 C   0  0  0  0  0  0  0  0  0  0  0  0
   -0.1020    3.4908   -0.5004 C   0  0  0  0  0  0  0  0  0  0  0  0
   -4.8078    1.3940    0.7441 C   0  0  0  0  0  0  0  0  0  0  0  0
   -1.4514    5.6166   -0.1270 C   0  0  0  0  0  0  0  0  0  0  0  0
   -1.5460    2.2110    3.3553 C   0  0  0  0  0  0  0  0  0  0  0  0
   -5.1795    2.0639   -0.5903 C   0  0  0  0  0  0  0  0  0  0  0  0
   -0.6014    4.6521   -0.9738 C   0  0  0  0  0  0  0  0  0  0  0  0
    1.9438    4.5940    0.2297 C   0  0  0  0  0  0  0  0  0  0  0  0
   -1.2359   -0.1130    4.0813 C   0  0  0  0  0  0  0  0  0  0  0  0
    0.8728    3.7411    0.4400 C   0  0  0  0  0  0  0  0  0  0  0  0
    0.2805   -1.9617    5.6266 C   0  0  0  0  0  0  0  0  0  0  0  0
   -3.3187    1.4831    1.2293 C   0  0  1  0  0  0  0  0  0  0  0  0
   -1.9679    0.9359    3.2776 C   0  0  0  0  0  0  0  0  0  0  0  0
   -2.8276    2.9468    1.5021 C   0  0  0  0  0  0  0  0  0  0  0  0
   -1.6568    4.6001    2.4210 C   0  0  0  0  0  0  0  0  0  0  0  0
   -2.2758    5.1147    1.1145 C   0  0  2  0  0  0  0  0  0  0  0  0
   -3.0153    0.6297    2.4247 N   0  0  0  0  0  0  0  0  0  0  0  0
   -2.9642    3.9040    0.6528 N   0  0  0  0  0  0  0  0  0  0  0  0
   -2.0726    3.2554    2.5760 N   0  0  0  0  0  0  0  0  0  0  0  0
    0.9784   -2.8922    6.3394 O   0  0  0  0  0  0  0  0  0  0  0  0
   -0.9562    5.3102    3.1636 O   0  0  0  0  0  0  0  0  0  0  0  0
   -2.2667    7.4102    1.7095 O   0  0  0  0  0  0  0  0  0  0  0  0
   -3.1257    6.2150    1.5725 O   0  0  0  0  0  0  0  0  0  0  0  0
  2  1  2  0
  3  1  1  0
  5  4  2  0
  6  2  1  0
  7  3  2  0
  8  4  1  0
  9  5  1  0
 11 10  2  0
 14 12  2  0
 15 13  1  0
 20  6  2  0
 20  7  1  0
 20 17  1  0
 21 10  1  0
 21 16  2  0
 21 18  1  0
 22  8  2  0
 22 11  1  0
 23 12  1  0
 23 13  2  0
 24  9  2  0
 24 16  1  0
 24 22  1  0
 25 14  1  0
 25 15  2  0
 26 17  1  1
 27 19  2  0
 27 23  1  0
 28 26  1  0
 30 29  1  0
 30 37  1  0
 30 18  1  6
 31 26  1  0
 31 27  1  0
 32 28  2  0
 32 30  1  0
 33 19  1  0
 33 28  1  0
 33 29  1  0
 34 25  1  0
 35 29  2  0
 37 36  1  0
M  END
>  <DRUGBANK_ID>  (1) 
DB04118

>  <SECONDARY_ACCESSION_NUMBERS>  (1) 
EXPT01087

>  <COMMON_NAME>  (1) 
N-Coeleneterazine

$$$$
