
     RDKit          3D

 20 19  0  0  0  0  0  0  0  0999 V2000
    0.7863   -7.0895   -4.4338 O   0  0  0  0  0  0  0  0  0  0  0  0
    1.9852   -6.2855   -6.1346 O   0  0  0  0  0  0  0  0  0  0  0  0
  -11.0084  -11.5066    0.0114 C   0  0  0  0  0  0  0  0  0  0  0  0
   -1.4050   -6.9288   -6.4901 C   0  0  0  0  0  0  0  0  0  0  0  0
  -10.6113  -10.4925   -1.0578 C   0  0  0  0  0  0  0  0  0  0  0  0
   -1.8452   -7.7799   -5.3033 C   0  0  0  0  0  0  0  0  0  0  0  0
  -11.8279  -10.8615    1.1327 C   0  0  0  0  0  0  0  0  0  0  0  0
   -0.4039   -5.8402   -6.0948 C   0  0  0  0  0  0  0  0  0  0  0  0
   -9.8591   -9.3194   -0.4492 C   0  0  0  0  0  0  0  0  0  0  0  0
   -2.3741   -6.9090   -4.1747 C   0  0  0  0  0  0  0  0  0  0  0  0
   -7.2742   -8.3417   -1.4295 C   0  0  0  0  0  0  0  0  0  0  0  0
   -4.9049   -7.4135   -2.7981 C   0  0  0  0  0  0  0  0  0  0  0  0
  -13.1153  -10.2581    0.5922 C   0  0  0  0  0  0  0  0  0  0  0  0
    0.8969   -6.4053   -5.5874 C   0  0  0  0  0  0  0  0  0  0  0  0
   -8.5436   -9.7722    0.1155 C   0  0  0  0  0  0  0  0  0  0  0  0
   -3.6656   -6.2625   -4.5821 C   0  0  0  0  0  0  0  0  0  0  0  0
   -7.3687   -9.3396   -0.3400 C   0  0  0  0  0  0  0  0  0  0  0  0
   -4.8209   -6.5057   -3.9651 C   0  0  0  0  0  0  0  0  0  0  0  0
   -6.5329   -7.1378   -0.9744 C   0  0  0  0  0  0  0  0  0  0  0  0
   -5.4521   -6.6986   -1.6172 C   0  0  0  0  0  0  0  0  0  0  0  0
  1 14  1  0
  2 14  2  0
  3  5  1  0
  3  7  1  0
  4  6  1  0
  4  8  1  0
  5  9  1  0
  6 10  1  0
  7 13  1  0
  8 14  1  0
  9 15  1  0
 10 16  1  0
 11 17  1  0
 11 19  1  0
 12 18  1  0
 12 20  1  0
 15 17  2  0
 16 18  2  0
 19 20  2  0
M  END
>  <DRUGBANK_ID>  (1) 
DB13854

>  <COMMON_NAME>  (1) 
Gamolenic acid

>  <CAS_NUMBER>  (1) 
506-26-3

>  <UNII>  (1) 
78YC2MAX4O

>  <SYNONYMS>  (1) 
(6,9,12)-linolenic acid; (6Z,9Z,12Z)-Octadecatrienoic acid; (Z,Z,Z)-6,9,12-octadecatrienoic acid; 18:3 (n-6); 6-cis,9-cis,12-cis-octadecatrienoic acid; 6,9,12-Octadecatrienoic acid; all-cis-6,9,12-octadecatrienoic acid; gamma-Linolenic acid; Gammalinolenic acid; gamoleic acid; Gamolenic acid; GLA; Octadeca-6,9,12-triensäure; γ-linolenic acid; γ-Linolensäure

$$$$
