1207
     RDKit          3D

 26 27  0  0  0  0  0  0  0  0999 V2000
    0.9900   -0.1259    0.1612 F   0  0  0  0  0  0  0  0  0  0  0  0
    2.7662    0.6962    1.1162 F   0  0  0  0  0  0  0  0  0  0  0  0
    2.7677   -1.3565    0.3957 F   0  0  0  0  0  0  0  0  0  0  0  0
    4.7520    0.5906   -5.9136 O   0  0  0  0  0  0  0  0  0  0  0  0
    7.5952   -1.9395  -10.3365 O   0  0  0  0  0  0  0  0  0  0  0  0
    6.6895    0.0964  -10.0586 O   0  0  0  0  0  0  0  0  0  0  0  0
    4.8439   -0.7668   -5.6249 N   0  0  0  0  0  0  0  0  0  0  0  0
    6.3274   -4.2507   -3.6131 N   0  0  0  0  0  0  0  0  0  0  0  0
    6.7822    0.8531   -7.2119 C   0  0  0  0  0  0  0  0  0  0  0  0
    7.2323   -0.6113   -7.1579 C   0  0  0  0  0  0  0  0  0  0  0  0
    5.2668    0.9927   -7.1690 C   0  0  0  0  0  0  0  0  0  0  0  0
    6.5522   -1.4779   -8.2223 C   0  0  0  0  0  0  0  0  0  0  0  0
    3.8079   -0.0776   -3.4272 C   0  0  0  0  0  0  0  0  0  0  0  0
    4.4504   -1.0507   -4.4102 C   0  0  0  0  0  0  0  0  0  0  0  0
    3.4093   -0.5060   -2.1595 C   0  0  0  0  0  0  0  0  0  0  0  0
    2.8362    0.3887   -1.2377 C   0  0  0  0  0  0  0  0  0  0  0  0
    4.7116   -2.4678   -3.9755 C   0  0  0  0  0  0  0  0  0  0  0  0
    3.6022    1.2849   -3.7177 C   0  0  0  0  0  0  0  0  0  0  0  0
    6.9385   -1.0197   -9.6078 C   0  0  0  0  0  0  0  0  0  0  0  0
    2.7109    1.7447   -1.5579 C   0  0  0  0  0  0  0  0  0  0  0  0
    3.1347    2.1999   -2.7850 C   0  0  0  0  0  0  0  0  0  0  0  0
    2.3479   -0.0975    0.0952 C   0  0  0  0  0  0  0  0  0  0  0  0
    3.6781   -3.3459   -3.6458 C   0  0  0  0  0  0  0  0  0  0  0  0
    6.0119   -2.9651   -3.9322 C   0  0  0  0  0  0  0  0  0  0  0  0
    3.9741   -4.6677   -3.3052 C   0  0  0  0  0  0  0  0  0  0  0  0
    5.2984   -5.0762   -3.3220 C   0  0  0  0  0  0  0  0  0  0  0  0
  1 22  1  0
  2 22  1  0
  3 22  1  0
  4  7  1  0
  4 11  1  0
  5 19  1  0
  6 19  2  0
  7 14  2  0
  8 24  2  0
  8 26  1  0
  9 10  1  0
  9 11  1  0
 10 12  1  0
 12 19  1  0
 13 14  1  0
 13 15  2  0
 13 18  1  0
 14 17  1  0
 15 16  1  0
 16 20  2  0
 16 22  1  0
 17 23  2  0
 17 24  1  0
 18 21  2  0
 20 21  1  0
 23 25  1  0
 25 26  2  0
M  END
>  <DRUGBANK_ID>  (1) 
DB01207

>  <SECONDARY_ACCESSION_NUMBERS>  (1) 
APRD00271

>  <COMMON_NAME>  (1) 
Ridogrel

>  <CAS_NUMBER>  (1) 
110140-89-1

>  <UNII>  (1) 
QTS5QOO42O

>  <SYNONYMS>  (1) 
Ridogrel; Ridogrelum

$$$$
