
     RDKit          3D

 26 28  0  0  0  0  0  0  0  0999 V2000
    1.0335    0.0625    0.1428 C   0  0  0  0  0  0  0  0  0  0  0  0
    0.4464    0.9481   -0.9549 C   0  0  0  0  0  0  0  0  0  0  0  0
    0.9809    0.5850   -2.3728 N   0  0  0  0  0  0  0  0  0  0  0  0
    0.0435    1.1065   -3.5008 C   0  0  0  0  0  0  0  0  0  0  0  0
   -1.0428    0.0562   -3.6702 C   0  0  0  0  0  0  0  0  0  0  0  0
   -0.3678   -1.2790   -3.4058 C   0  0  0  0  0  0  0  0  0  0  0  0
    0.9398   -0.9712   -2.6424 C   0  0  0  0  0  0  0  0  0  0  0  0
   -1.2558   -2.2174   -2.7414 O   0  0  0  0  0  0  0  0  0  0  0  0
   -1.7454   -1.8552   -1.5168 C   0  0  0  0  0  0  0  0  0  0  0  0
   -1.4480   -0.8122   -0.9792 O   0  0  0  0  0  0  0  0  0  0  0  0
   -2.6792   -2.8693   -0.8484 C   0  0  0  0  0  0  0  0  0  0  0  0
   -4.0356   -2.9376   -1.5600 C   0  0  0  0  0  0  0  0  0  0  0  0
   -4.7167   -4.1518   -1.6954 C   0  0  0  0  0  0  0  0  0  0  0  0
   -5.7890   -4.3404   -2.5399 C   0  0  0  0  0  0  0  0  0  0  0  0
   -6.4573   -3.2248   -2.9791 C   0  0  0  0  0  0  0  0  0  0  0  0
   -5.9758   -1.9590   -2.6373 C   0  0  0  0  0  0  0  0  0  0  0  0
   -4.7261   -1.8064   -2.0157 C   0  0  0  0  0  0  0  0  0  0  0  0
   -1.8874   -4.1633   -0.5853 C   0  0  0  0  0  0  0  0  0  0  0  0
   -0.7706   -4.1723    0.2592 C   0  0  0  0  0  0  0  0  0  0  0  0
   -0.1705   -5.3861    0.6125 C   0  0  0  0  0  0  0  0  0  0  0  0
   -0.7611   -6.5978    0.2537 C   0  0  0  0  0  0  0  0  0  0  0  0
   -1.8617   -6.5972   -0.5705 C   0  0  0  0  0  0  0  0  0  0  0  0
   -2.2340   -5.3981   -1.1457 C   0  0  0  0  0  0  0  0  0  0  0  0
   -2.9736   -2.2994    0.4534 O   0  0  0  0  0  0  0  0  0  0  0  0
    2.4065    1.1823   -2.4717 C   0  0  0  0  0  0  0  0  0  0  0  0
    2.4250    2.7087   -2.3009 C   0  0  0  0  0  0  0  0  0  0  0  0
  1  2  1  0
  2  3  1  0
  3  4  1  0
  3  7  1  0
  3 25  1  0
  4  5  1  0
  5  6  1  0
  6  7  1  0
  6  8  1  0
  8  9  1  0
  9 10  2  0
  9 11  1  0
 11 12  1  0
 11 18  1  0
 11 24  1  0
 12 13  2  0
 12 17  1  0
 13 14  1  0
 14 15  2  0
 15 16  1  0
 16 17  2  0
 18 19  2  0
 18 23  1  0
 19 20  1  0
 20 21  2  0
 21 22  1  0
 22 23  2  0
 25 26  1  0
M  CHG  1   3   1
M  END
>  <DRUGBANK_ID>  (1) 
DB13369

>  <COMMON_NAME>  (1) 
Benzilone

>  <CAS_NUMBER>  (1) 
16175-92-1

>  <UNII>  (1) 
GY56LQX77B

>  <SYNONYMS>  (1) 
Benzilonium

$$$$
