DI4
     RDKit          3D

 32 33  0  0  0  0  0  0  0  0999 V2000
   -0.7856   -1.3294    1.4887 B   0  0  0  0  0  0  0  0  0  0  0  0
    0.1343   -1.3498    0.1797 C   0  0  2  0  0  0  0  0  0  0  0  0
    0.8943   -0.0377    0.0741 C   0  0  0  0  0  0  0  0  0  0  0  0
    1.0993    0.4969   -1.3340 C   0  0  0  0  0  0  0  0  0  0  0  0
   -0.0541    1.4168   -1.6997 C   0  0  0  0  0  0  0  0  0  0  0  0
   -0.1067    2.5776   -0.7197 C   0  0  0  0  0  0  0  0  0  0  0  0
    1.1992    3.3529   -0.7822 C   0  0  0  0  0  0  0  0  0  0  0  0
   -1.3886   -2.8668   -3.1181 C   0  0  2  0  0  0  0  0  0  0  0  0
   -0.5147   -2.6870   -1.8875 C   0  0  0  0  0  0  0  0  0  0  0  0
   -2.5645   -1.9299   -3.1042 C   0  0  0  0  0  0  0  0  0  0  0  0
   -3.5328   -2.5679   -4.1456 C   0  0  0  0  0  0  0  0  0  0  0  0
   -3.2905   -4.0702   -3.9776 C   0  0  0  0  0  0  0  0  0  0  0  0
   -1.5851   -5.3916   -2.4223 C   0  0  0  0  0  0  0  0  0  0  0  0
   -1.5094   -7.7676   -3.1363 C   0  0  0  0  0  0  0  0  0  0  0  0
   -2.3806   -6.6828   -2.5242 C   0  0  1  0  0  0  0  0  0  0  0  0
   -4.2441   -7.2362   -0.8799 C   0  0  0  0  0  0  0  0  0  0  0  0
   -4.6901   -7.6674    0.5077 C   0  0  0  0  0  0  0  0  0  0  0  0
    1.2232   -7.1103   -0.6954 C   0  0  0  0  0  0  0  0  0  0  0  0
    1.5369   -8.3533   -0.3493 C   0  0  0  0  0  0  0  0  0  0  0  0
    0.9272   -9.4237   -0.9579 C   0  0  0  0  0  0  0  0  0  0  0  0
    0.0538   -9.2400   -1.9936 C   0  0  0  0  0  0  0  0  0  0  0  0
   -0.2889   -7.9925   -2.2588 C   0  0  0  0  0  0  0  0  0  0  0  0
    0.3961   -6.8523   -1.7761 C   0  0  0  0  0  0  0  0  0  0  0  0
   -0.7109   -1.5237   -1.0104 N   0  0  0  0  0  0  0  0  0  0  0  0
    1.3976    3.8699   -2.1439 N   0  0  0  0  0  0  0  0  0  0  0  0
   -2.0491   -4.1852   -3.1223 N   0  0  0  0  0  0  0  0  0  0  0  0
   -2.8120   -7.0998   -1.1823 N   0  0  0  0  0  0  0  0  0  0  0  0
   -1.2743   -2.6175    2.0820 O   0  0  0  0  0  0  0  0  0  0  0  0
   -1.1591   -0.0223    2.1226 O   0  0  0  0  0  0  0  0  0  0  0  0
    0.3855   -3.5423   -1.6169 O   0  0  0  0  0  0  0  0  0  0  0  0
   -0.5187   -5.3551   -1.7318 O   0  0  0  0  0  0  0  0  0  0  0  0
   -5.1092   -6.9937   -1.7787 O   0  0  0  0  0  0  0  0  0  0  0  0
  1 28  1  0
  1 29  1  0
  2 24  1  0
  2  3  1  6
  2  1  1  0
  3  4  1  0
  4  5  1  0
  5  6  1  0
  6  7  1  0
  7 25  1  0
  8  9  1  1
  8 10  1  0
  8 26  1  0
  9 24  1  0
  9 30  2  0
 10 11  1  0
 11 12  1  0
 12 26  1  0
 13 15  1  0
 13 26  1  0
 13 31  2  0
 15 14  1  1
 14 22  1  0
 15 27  1  0
 16 17  1  0
 16 27  1  0
 16 32  2  0
 18 19  2  0
 18 23  1  0
 19 20  1  0
 20 21  2  0
 21 22  1  0
 22 23  2  0
M  END
>  <DRUGBANK_ID>  (1) 
DB07659

>  <COMMON_NAME>  (1) 
AC-(D)PHE-PRO-BOROHOMOLYS-OH

$$$$
