
     RDKit          3D

 31 33  0  0  0  0  0  0  0  0999 V2000
   -1.2687    0.0437   -1.9043 O   0  0  0  0  0  0  0  0  0  0  0  0
    0.1408    0.4240   -2.1612 C   0  0  1  0  0  0  0  0  0  0  0  0
    0.9811   -0.5046   -3.0265 C   0  0  1  0  0  0  0  0  0  0  0  0
    0.6008    1.9245   -2.2428 C   0  0  2  0  0  0  0  0  0  0  0  0
    2.4442   -0.3057   -3.4317 C   0  0  2  0  0  0  0  0  0  0  0  0
    2.1812    2.0198   -2.3571 C   0  0  1  0  0  0  0  0  0  0  0  0
    2.9041    1.1484   -3.4172 C   0  0  0  0  0  0  0  0  0  0  0  0
    0.2810    2.6462   -1.0127 O   0  0  0  0  0  0  0  0  0  0  0  0
    2.7744    3.3637   -2.2550 N   0  0  0  0  0  0  0  0  0  0  0  0
    2.9863   -1.3481   -4.3490 N   0  0  0  0  0  0  0  0  0  0  0  0
    1.0464   -1.6834   -2.2345 O   0  0  0  0  0  0  0  0  0  0  0  0
    1.4530   -1.6877   -0.8658 C   0  0  2  0  0  0  0  0  0  0  0  0
    0.8442   -0.7568    0.5722 C   0  0  1  0  0  0  0  0  0  0  0  0
    2.8494   -1.9289   -0.7171 O   0  0  0  0  0  0  0  0  0  0  0  0
    1.8143    0.3969    0.7371 C   0  0  2  0  0  0  0  0  0  0  0  0
    3.5776   -0.7443   -0.5495 C   0  0  1  0  0  0  0  0  0  0  0  0
    3.3018    0.0872    0.6799 C   0  0  1  0  0  0  0  0  0  0  0  0
    5.0244   -0.9227   -1.0145 C   0  0  0  0  0  0  0  0  0  0  0  0
    5.3682   -2.3056   -1.3232 N   0  0  0  0  0  0  0  0  0  0  0  0
    3.9930    1.3442    0.5053 O   0  0  0  0  0  0  0  0  0  0  0  0
    1.4903    1.3337    1.7531 O   0  0  0  0  0  0  0  0  0  0  0  0
   -0.4934   -0.1237    0.9173 N   0  0  0  0  0  0  0  0  0  0  0  0
   -1.7040   -1.3549   -1.4814 C   0  0  2  0  0  0  0  0  0  0  0  0
   -0.6987   -3.2057   -0.0689 C   0  0  1  0  0  0  0  0  0  0  0  0
   -1.3655   -1.8950   -0.1094 O   0  0  0  0  0  0  0  0  0  0  0  0
   -1.0375   -3.6849   -1.5248 C   0  0  2  0  0  0  0  0  0  0  0  0
   -1.3826   -2.4669   -2.4495 C   0  0  1  0  0  0  0  0  0  0  0  0
   -2.4049   -2.6774   -3.4473 O   0  0  0  0  0  0  0  0  0  0  0  0
   -2.2979   -4.3746   -1.3896 O   0  0  0  0  0  0  0  0  0  0  0  0
    0.7761   -3.6688    0.9173 C   0  0  0  0  0  0  0  0  0  0  0  0
    1.9854   -2.9307    1.3197 O   0  0  0  0  0  0  0  0  0  0  0  0
 23  1  1  6
  2  1  1  6
  3  2  1  0
  3 11  1  1
  4  2  1  0
  4  8  1  1
  5  3  1  0
  5 10  1  6
  6  4  1  0
  6  9  1  6
  7  5  1  0
  7  6  1  0
 12 11  1  6
 13 12  1  0
 13 22  1  6
 14 12  1  0
 15 13  1  0
 15 21  1  1
 16 14  1  0
 16 18  1  1
 17 15  1  0
 17 16  1  0
 17 20  1  6
 19 18  1  0
 23 25  1  0
 24 30  1  6
 25 24  1  0
 26 24  1  0
 26 29  1  1
 27 26  1  0
 27 23  1  0
 27 28  1  6
 31 30  1  0
M  END
>  <DRUGBANK_ID>  (1) 
DB03615

>  <SECONDARY_ACCESSION_NUMBERS>  (1) 
EXPT02786

>  <COMMON_NAME>  (1) 
Ribostamycin

>  <CAS_NUMBER>  (1) 
25546-65-0

>  <UNII>  (1) 
2Q5JOU7T53

>  <SYNONYMS>  (1) 
Ribostamicina; Ribostamycin; Ribostamycin A; Ribostamycine; Ribostamycinum; Vistamycin

$$$$
