
     RDKit          3D

 19 20  0  0  0  0  0  0  0  0999 V2000
    0.6360    0.2167   -0.0195 C   0  0  0  0  0  0  0  0  0  0  0  0
    0.3936    0.3879   -1.5117 C   0  0  0  0  0  0  0  0  0  0  0  0
    0.4518   -1.2494    0.5263 C   0  0  0  0  0  0  0  0  0  0  0  0
   -0.1074    1.3422    0.8280 C   0  0  0  0  0  0  0  0  0  0  0  0
   -0.1993   -0.5926   -2.3129 C   0  0  0  0  0  0  0  0  0  0  0  0
   -0.6780   -0.2554   -3.5653 C   0  0  0  0  0  0  0  0  0  0  0  0
   -0.6390    1.0647   -4.0141 C   0  0  0  0  0  0  0  0  0  0  0  0
    0.0449    2.0179   -3.2640 C   0  0  0  0  0  0  0  0  0  0  0  0
    0.6907    1.6140   -2.1242 C   0  0  0  0  0  0  0  0  0  0  0  0
   -0.8295    1.0312    1.9868 C   0  0  0  0  0  0  0  0  0  0  0  0
   -0.8051    1.9053    3.0928 C   0  0  0  0  0  0  0  0  0  0  0  0
   -0.2459    3.1827    2.9939 C   0  0  0  0  0  0  0  0  0  0  0  0
    0.2701    3.5807    1.7786 C   0  0  0  0  0  0  0  0  0  0  0  0
    0.2990    2.6921    0.7075 C   0  0  0  0  0  0  0  0  0  0  0  0
    1.1684   -1.6696    1.8555 C   0  0  0  0  0  0  0  0  0  0  0  0
    1.0869   -0.7202    2.9568 N   0  0  0  0  0  0  0  0  0  0  0  0
    1.1714   -1.2356    4.3095 C   0  0  0  0  0  0  0  0  0  0  0  0
    2.0005    0.4133    2.8333 C   0  0  0  0  0  0  0  0  0  0  0  0
   -0.2638    4.1481    4.1321 C   0  0  0  0  0  0  0  0  0  0  0  0
  1  3  1  0
  1  4  1  0
  2  1  1  0
  2  5  2  0
  3 15  1  0
  4 10  2  0
  5  6  1  0
  6  7  2  0
  7  8  1  0
  8  9  2  0
  9  2  1  0
 10 11  1  0
 11 12  2  0
 12 13  1  0
 12 19  1  0
 13 14  2  0
 14  4  1  0
 15 16  1  0
 16 17  1  0
 16 18  1  0
M  END
>  <DRUGBANK_ID>  (1) 
DB13305

>  <COMMON_NAME>  (1) 
Tolpropamine

>  <CAS_NUMBER>  (1) 
5632-44-0

>  <UNII>  (1) 
TBZ8909KFS

>  <SYNONYMS>  (1) 
Tolpropamina; Tolpropamine; Tolpropaminum

$$$$
