
     RDKit          3D

 26 29  0  0  1  0  0  0  0  0999 V2000
   -1.9471    0.2827    0.0188 Br  0  0  0  0  0  0  0  0  0  0  0  0
    3.1440    1.4084    0.0348 F   0  0  0  0  0  0  0  0  0  0  0  0
    3.2393   -3.9131    0.6201 O   0  0  0  0  0  0  0  0  0  0  0  0
    5.5863   -5.8094    1.3667 O   0  0  0  0  0  0  0  0  0  0  0  0
    1.9270   -6.4787    3.9500 O   0  0  0  0  0  0  0  0  0  0  0  0
    6.0851   -0.4898    1.7655 O   0  0  0  0  0  0  0  0  0  0  0  0
    5.4168   -3.6029    3.4224 N   0  0  0  0  0  0  0  0  0  0  0  0
    4.4566   -2.0595    1.2745 N   0  0  0  0  0  0  0  0  0  0  0  0
    3.7784   -6.4370    2.6164 N   0  0  0  0  0  0  0  0  0  0  0  0
    4.3255   -4.1680    2.6627 C   0  0  1  0  0  0  0  0  0  0  0  0
    3.0729   -4.3948    3.5223 C   0  0  0  0  0  0  0  0  0  0  0  0
    3.9663   -3.3485    1.4433 C   0  0  0  0  0  0  0  0  0  0  0  0
    4.6801   -5.5443    2.1423 C   0  0  0  0  0  0  0  0  0  0  0  0
    5.9625   -2.3855    3.1253 C   0  0  0  0  0  0  0  0  0  0  0  0
    2.8329   -5.8718    3.4020 C   0  0  0  0  0  0  0  0  0  0  0  0
    5.5264   -1.5548    2.0255 C   0  0  0  0  0  0  0  0  0  0  0  0
    6.0197   -4.1537    4.5206 C   0  0  0  0  0  0  0  0  0  0  0  0
    4.0710   -1.3080    0.0585 C   0  0  0  0  0  0  0  0  0  0  0  0
    6.9684   -2.1719    4.0521 C   0  0  0  0  0  0  0  0  0  0  0  0
    6.9996   -3.2811    4.9318 C   0  0  0  0  0  0  0  0  0  0  0  0
    2.6079   -0.9009    0.0011 C   0  0  0  0  0  0  0  0  0  0  0  0
    2.2180    0.4394    0.0276 C   0  0  0  0  0  0  0  0  0  0  0  0
    1.5809   -1.8489   -0.1203 C   0  0  0  0  0  0  0  0  0  0  0  0
    0.8691    0.8085    0.0112 C   0  0  0  0  0  0  0  0  0  0  0  0
    0.2361   -1.5094   -0.0443 C   0  0  0  0  0  0  0  0  0  0  0  0
   -0.1173   -0.1741    0.0090 C   0  0  0  0  0  0  0  0  0  0  0  0
  1 26  1  0
  2 22  1  0
  3 12  2  0
  4 13  2  0
  5 15  2  0
  6 16  2  0
  7 10  1  0
  7 14  1  0
  7 17  1  0
  8 12  1  0
  8 16  1  0
  8 18  1  0
  9 13  1  0
  9 15  1  0
 10 11  1  1
 10 12  1  0
 10 13  1  0
 11 15  1  0
 14 16  1  0
 14 19  2  0
 17 20  2  0
 18 21  1  0
 19 20  1  0
 21 22  2  0
 21 23  1  0
 22 24  1  0
 23 25  2  0
 24 26  2  0
 25 26  1  0
M  END
>  <DRUGBANK_ID>  (1) 
DB05327

>  <SECONDARY_ACCESSION_NUMBERS>  (1) 
DB12811

>  <COMMON_NAME>  (1) 
Ranirestat

>  <CAS_NUMBER>  (1) 
147254-64-6

>  <UNII>  (1) 
Z26P56GFTV

>  <SYNONYMS>  (1) 
Ranirestat

$$$$
