
     RDKit          3D

 17 18  0  0  0  0  0  0  0  0999 V2000
    1.4168   -0.0733    0.4178 C   0  0  0  0  0  0  0  0  0  0  0  0
    0.5413   -1.1076    0.7725 C   0  0  0  0  0  0  0  0  0  0  0  0
    0.8682    1.1860    0.1503 C   0  0  0  0  0  0  0  0  0  0  0  0
    2.8655   -0.4391    0.2689 C   0  0  0  0  0  0  0  0  0  0  0  0
   -0.8520   -0.9208    0.7790 C   0  0  0  0  0  0  0  0  0  0  0  0
   -0.5273    1.3797    0.1976 C   0  0  0  0  0  0  0  0  0  0  0  0
    3.7270    0.5967    0.1669 O   0  0  0  0  0  0  0  0  0  0  0  0
    3.2506   -1.5885    0.2535 O   0  0  0  0  0  0  0  0  0  0  0  0
   -1.3936    0.2977    0.3857 C   0  0  0  0  0  0  0  0  0  0  0  0
   -2.6863    0.4908   -0.0367 O   0  0  0  0  0  0  0  0  0  0  0  0
   -3.5102   -0.6625   -0.2972 C   0  0  0  0  0  0  0  0  0  0  0  0
   -3.2497   -1.4379   -1.6163 C   0  0  0  0  0  0  0  0  0  0  0  0
   -1.9488   -2.0557   -1.7817 N   0  0  0  0  0  0  0  0  0  0  0  0
   -0.7857   -1.4081   -2.1090 C   0  0  0  0  0  0  0  0  0  0  0  0
   -1.6286   -3.3631   -1.5434 C   0  0  0  0  0  0  0  0  0  0  0  0
    0.2102   -2.3348   -1.8868 C   0  0  0  0  0  0  0  0  0  0  0  0
   -0.3266   -3.5438   -1.5321 N   0  0  0  0  0  0  0  0  0  0  0  0
  1  2  2  0
  1  3  1  0
  1  4  1  0
  2  5  1  0
  3  6  2  0
  4  7  1  0
  4  8  2  0
  5  9  2  0
  6  9  1  0
  9 10  1  0
 10 11  1  0
 11 12  1  0
 12 13  1  0
 13 14  1  0
 13 15  1  0
 14 16  2  0
 15 17  2  0
 16 17  1  0
M  END
>  <DRUGBANK_ID>  (1) 
DB03052

>  <SECONDARY_ACCESSION_NUMBERS>  (1) 
EXPT03297

>  <COMMON_NAME>  (1) 
Dazoxiben

>  <CAS_NUMBER>  (1) 
78218-09-4

>  <UNII>  (1) 
09ZFC7974Q

>  <SYNONYMS>  (1) 
Dazoxiben; Dazoxibene; Dazoxibenum

$$$$
