
     RDKit          3D

 14 15  0  0  0  0  0  0  0  0999 V2000
    0.0615    0.7192   -0.0357 C   0  0  0  0  0  0  0  0  0  0  0  0
    0.0705   -0.7075   -0.0187 C   0  0  0  0  0  0  0  0  0  0  0  0
   -1.1869    1.3808   -0.0574 C   0  0  0  0  0  0  0  0  0  0  0  0
    1.3127    1.3879   -0.0085 C   0  0  0  0  0  0  0  0  0  0  0  0
   -1.1642   -1.3899   -0.0077 C   0  0  0  0  0  0  0  0  0  0  0  0
    1.3236   -1.3696   -0.0105 C   0  0  0  0  0  0  0  0  0  0  0  0
   -2.3396    0.6744   -0.0340 N   0  0  0  0  0  0  0  0  0  0  0  0
   -1.2612    2.7868   -0.2598 N   0  0  0  0  0  0  0  0  0  0  0  0
    2.5260    0.7035    0.0371 C   0  0  0  0  0  0  0  0  0  0  0  0
   -2.3286   -0.7050    0.0036 N   0  0  0  0  0  0  0  0  0  0  0  0
   -1.1951   -2.8111    0.1605 N   0  0  0  0  0  0  0  0  0  0  0  0
    2.5317   -0.6810    0.0252 C   0  0  0  0  0  0  0  0  0  0  0  0
   -2.4971    3.4511   -0.1179 N   0  0  0  0  0  0  0  0  0  0  0  0
   -2.4312   -3.4793   -0.0102 N   0  0  0  0  0  0  0  0  0  0  0  0
  1  2  1  0
  1  3  2  0
  1  4  1  0
  2  5  2  0
  2  6  1  0
  3  7  1  0
  3  8  1  0
  4  9  2  0
  5 10  1  0
  5 11  1  0
  6 12  2  0
  7 10  2  0
  8 13  1  0
  9 12  1  0
 11 14  1  0
M  END
>  <DRUGBANK_ID>  (1) 
DB12945

>  <COMMON_NAME>  (1) 
Dihydralazine

>  <CAS_NUMBER>  (1) 
484-23-1

>  <UNII>  (1) 
PCU411F5L6

>  <SYNONYMS>  (1) 
Dihidralazina; Dihydralazine; Dihydralazinum; Dihydrallazin; Dihydrazinophthalazine

$$$$
