ALH
     RDKit          3D

 20 22  0  0  0  0  0  0  0  0999 V2000
    2.3049   -0.0971    0.0763 O   0  0  0  0  0  0  0  0  0  0  0  0
    0.9668   -0.1711    0.3262 C   0  0  0  0  0  0  0  0  0  0  0  0
    0.2268   -1.3350    0.1480 C   0  0  0  0  0  0  0  0  0  0  0  0
   -1.1865   -1.2809    0.1558 C   0  0  0  0  0  0  0  0  0  0  0  0
   -1.8652   -0.0853    0.4249 C   0  0  0  0  0  0  0  0  0  0  0  0
   -1.0716    0.9891    0.8923 C   0  0  0  0  0  0  0  0  0  0  0  0
    0.3213    0.9961    0.6893 C   0  0  0  0  0  0  0  0  0  0  0  0
   -3.3337    0.0730    0.0993 C   0  0  0  0  0  0  0  0  0  0  0  0
   -4.2528   -0.4763    0.9880 N   0  0  0  0  0  0  0  0  0  0  0  0
   -5.5410   -0.2130    0.5961 C   0  0  0  0  0  0  0  0  0  0  0  0
   -6.6497   -0.5758    1.2808 N   0  0  0  0  0  0  0  0  0  0  0  0
   -5.4920    0.4758   -0.5947 C   0  0  0  0  0  0  0  0  0  0  0  0
   -6.6383    0.8690   -1.2359 N   0  0  0  0  0  0  0  0  0  0  0  0
   -7.7641    0.5298   -0.5637 C   0  0  0  0  0  0  0  0  0  0  0  0
   -7.7697   -0.1586    0.6397 C   0  0  0  0  0  0  0  0  0  0  0  0
   -4.1087    0.6610   -0.9555 C   0  0  0  0  0  0  0  0  0  0  0  0
   -3.7607    1.3491   -2.2918 C   0  0  0  0  0  0  0  0  0  0  0  0
   -2.9251    2.6378   -2.2219 C   0  0  0  0  0  0  0  0  0  0  0  0
   -1.5730    2.3255   -1.6548 C   0  0  0  0  0  0  0  0  0  0  0  0
   -0.7923    1.2316   -2.3755 C   0  0  0  0  0  0  0  0  0  0  0  0
  1  2  1  0
  2  3  2  0
  2  7  1  0
  3  4  1  0
  4  5  2  0
  5  6  1  0
  5  8  1  0
  6  7  2  0
  8  9  1  0
  8 16  2  0
  9 10  1  0
 10 11  2  0
 10 12  1  0
 11 15  1  0
 12 13  2  0
 12 16  1  0
 13 14  1  0
 14 15  2  0
 16 17  1  0
 17 18  1  0
 18 19  1  0
 19 20  1  0
M  END
>  <DRUGBANK_ID>  (1) 
DB07364

>  <COMMON_NAME>  (1) 
6-PHENYL[5H]PYRROLO[2,3-B]PYRAZINE

$$$$
