PQB
     RDKit          3D

 27 29  0  0  0  0  0  0  0  0999 V2000
    1.0473   -0.1860   -0.2559 N   0  0  0  0  0  0  0  0  0  0  0  0
    0.3771   -0.8897    0.7022 C   0  0  0  0  0  0  0  0  0  0  0  0
    0.6764   -1.0643    2.0383 C   0  0  0  0  0  0  0  0  0  0  0  0
   -0.3829   -1.8625    2.5266 C   0  0  0  0  0  0  0  0  0  0  0  0
   -1.3324   -2.0876    1.6154 N   0  0  0  0  0  0  0  0  0  0  0  0
   -0.8353   -1.5285    0.4831 N   0  0  0  0  0  0  0  0  0  0  0  0
   -1.5204   -1.6235   -0.7455 C   0  0  0  0  0  0  0  0  0  0  0  0
   -0.8398   -2.0865   -1.8807 C   0  0  0  0  0  0  0  0  0  0  0  0
   -1.4993   -2.1215   -3.1074 C   0  0  0  0  0  0  0  0  0  0  0  0
   -2.8109   -1.6659   -3.1911 C   0  0  0  0  0  0  0  0  0  0  0  0
   -3.4351   -1.6790   -4.3761 F   0  0  0  0  0  0  0  0  0  0  0  0
   -3.4845   -1.1905   -2.0675 C   0  0  0  0  0  0  0  0  0  0  0  0
   -2.8462   -1.1860   -0.8265 C   0  0  0  0  0  0  0  0  0  0  0  0
    1.8087   -0.4771    2.7159 C   0  0  0  0  0  0  0  0  0  0  0  0
    2.6007    0.2928    2.1567 O   0  0  0  0  0  0  0  0  0  0  0  0
    2.0769   -0.8162    4.1170 C   0  0  0  0  0  0  0  0  0  0  0  0
    2.2556   -2.1619    4.4569 C   0  0  0  0  0  0  0  0  0  0  0  0
    2.7988   -2.4842    5.6831 C   0  0  0  0  0  0  0  0  0  0  0  0
    3.2359   -1.4631    6.5102 C   0  0  0  0  0  0  0  0  0  0  0  0
    2.9507   -0.1206    6.2368 C   0  0  0  0  0  0  0  0  0  0  0  0
    3.2016    0.9121    7.0965 O   0  0  0  0  0  0  0  0  0  0  0  0
    3.8489    0.5729    8.3300 C   0  0  0  0  0  0  0  0  0  0  0  0
    2.8673   -0.0004    9.3849 C   0  0  1  0  0  0  0  0  0  0  0  0
    2.1843   -1.1952    8.9947 O   0  0  0  0  0  0  0  0  0  0  0  0
    3.6146   -0.3514   10.6683 C   0  0  0  0  0  0  0  0  0  0  0  0
    4.1035    0.8051   11.3267 O   0  0  0  0  0  0  0  0  0  0  0  0
    2.3420    0.2086    5.0331 C   0  0  0  0  0  0  0  0  0  0  0  0
  1  2  1  0
  2  3  2  0
  2  6  1  0
  3  4  1  0
  3 14  1  0
  4  5  2  0
  5  6  1  0
  6  7  1  0
  7  8  2  0
  7 13  1  0
  8  9  1  0
  9 10  2  0
 10 11  1  0
 10 12  1  0
 12 13  2  0
 14 15  2  0
 14 16  1  0
 16 17  2  0
 16 27  1  0
 17 18  1  0
 18 19  2  0
 19 20  1  0
 20 21  1  0
 20 27  2  0
 21 22  1  0
 22 23  1  0
 23 24  1  6
 23 25  1  0
 25 26  1  0
M  END
>  <DRUGBANK_ID>  (1) 
DB08424

>  <COMMON_NAME>  (1) 
[5-AMINO-1-(4-FLUOROPHENYL)-1H-PYRAZOL-4-YL](3-{[(2R)-2,3-DIHYDROXYPROPYL]OXY}PHENYL)METHANONE

$$$$
