
     RDKit          3D

 34 38  0  0  1  0  0  0  0  0999 V2000
   -2.0234   -0.3386    0.1414 C   0  0  1  0  0  0  0  0  0  0  0  0
   -2.6126   -1.7118    0.7112 C   0  0  0  0  0  0  0  0  0  0  0  0
   -2.0619   -2.6993   -0.3274 C   0  0  1  0  0  0  0  0  0  0  0  0
   -2.1678   -4.2074   -0.2225 C   0  0  0  0  0  0  0  0  0  0  0  0
   -2.5343   -2.4357   -1.8178 C   0  0  0  0  0  0  0  0  0  0  0  0
   -2.8276   -1.0896   -2.4069 C   0  0  0  0  0  0  0  0  0  0  0  0
   -2.6456   -0.0187   -1.4387 C   0  0  1  0  0  0  0  0  0  0  0  0
   -3.8334    0.3006   -0.7060 C   0  0  0  0  0  0  0  0  0  0  0  0
   -2.4736    1.4541   -2.3035 C   0  0  0  0  0  0  0  0  0  0  0  0
   -2.8232    2.6829   -1.4120 C   0  0  0  0  0  0  0  0  0  0  0  0
   -2.1614    2.3687    0.4420 C   0  0  2  0  0  0  0  0  0  0  0  0
   -2.9615    3.9267    1.6992 C   0  0  0  0  0  0  0  0  0  0  0  0
   -0.6434    2.2448    0.1077 C   0  0  0  0  0  0  0  0  0  0  0  0
    0.0008    1.4786   -0.7732 C   0  0  0  0  0  0  0  0  0  0  0  0
    1.3801    1.5862   -0.9744 C   0  0  0  0  0  0  0  0  0  0  0  0
    2.0654    2.5951   -0.4314 C   0  0  0  0  0  0  0  0  0  0  0  0
    3.5153    2.5919   -0.5208 C   0  0  0  0  0  0  0  0  0  0  0  0
    4.2041    1.5362   -1.3369 C   0  0  0  0  0  0  0  0  0  0  0  0
    4.1988    3.5845    0.0751 C   0  0  0  0  0  0  0  0  0  0  0  0
    5.5733    3.6846    0.0339 O   0  0  0  0  0  0  0  0  0  0  0  0
    3.4408    4.7489    0.6260 C   0  0  0  0  0  0  0  0  0  0  0  0
    3.9206    5.8755    0.6689 O   0  0  0  0  0  0  0  0  0  0  0  0
    2.0267    4.5884    0.9495 C   0  0  0  0  0  0  0  0  0  0  0  0
    1.3261    3.6286    0.3363 C   0  0  0  0  0  0  0  0  0  0  0  0
   -0.0987    3.3992    0.7692 C   0  0  2  0  0  0  0  0  0  0  0  0
    0.0200    3.1157    2.2442 C   0  0  0  0  0  0  0  0  0  0  0  0
   -1.5002    4.0334    0.2595 C   0  0  0  0  0  0  0  0  0  0  0  0
   -3.0337    2.4706    0.6119 C   0  0  0  0  0  0  0  0  0  0  0  0
   -2.3765    1.0658    1.1438 C   0  0  1  0  0  0  0  0  0  0  0  0
   -2.1117    0.9096    2.6214 C   0  0  0  0  0  0  0  0  0  0  0  0
   -0.5909   -2.5738    0.1049 C   0  0  0  0  0  0  0  0  0  0  0  0
   -0.2600   -2.4527    1.2892 O   0  0  0  0  0  0  0  0  0  0  0  0
    0.3005   -2.5823   -0.8990 O   0  0  0  0  0  0  0  0  0  0  0  0
    1.5994   -2.4621   -0.3303 C   0  0  0  0  0  0  0  0  0  0  0  0
  1  2  1  1
  1  7  1  0
  1 29  1  0
  3  2  1  0
  3  5  1  0
  3  4  1  1
  3 31  1  0
  5  6  1  0
  7  6  1  0
  7  9  1  0
  7  8  1  1
  9 10  1  0
 11 10  1  0
 11 13  1  0
 11 12  1  1
 13 14  2  0
 14 15  1  0
 15 16  2  0
 16 17  1  0
 16 24  1  0
 17 19  2  0
 17 18  1  0
 19 21  1  0
 19 20  1  0
 21 23  1  0
 21 22  2  0
 23 24  2  0
 25 24  1  0
 25 13  1  0
 25 27  1  0
 25 26  1  1
 27 28  1  0
 29 28  1  0
 29 11  1  0
 29 30  1  1
 31 32  2  0
 31 33  1  0
 33 34  1  0
M  END
>  <DRUGBANK_ID>  (1) 
DB17049

>  <COMMON_NAME>  (1) 
Pristimerin

>  <CAS_NUMBER>  (1) 
1258-84-0

>  <UNII>  (1) 
28ZK7PR57S

>  <SYNONYMS>  (1) 
(9.beta.,13.alpha.,14.beta.,20.alpha.)-3-hydroxy-9,13-dimethyl-2-oxo-24,25,26-trinoroleana-1(10),3,5,7-tetraen-29-oic acid; 24,25,26-trinoroleana-1(10),3,5,7-tetraen-29-oic acid, 3-hydroxy-9,13-dimethyl-2-oxo-, methyl ester, (9.beta.,13.alpha.,14.beta.,20.alpha.)-; Celastrol methyl ester

$$$$
