
     RDKit          3D

 19 18  0  0  0  0  0  0  0  0999 V2000
    1.0643    0.1700   -0.0427 C   0  0  0  0  0  0  0  0  0  0  0  0
   -0.3134    0.3770    2.1308 C   0  0  0  0  0  0  0  0  0  0  0  0
    3.2306   -5.2365    2.8854 C   0  0  0  0  0  0  0  0  0  0  0  0
    1.7364   -2.6616    0.7647 C   0  0  0  0  0  0  0  0  0  0  0  0
    0.7887   -1.7448    1.4988 C   0  0  0  0  0  0  0  0  0  0  0  0
    3.0093   -3.0213    1.5644 C   0  0  0  0  0  0  0  0  0  0  0  0
    2.0530   -3.2891    3.8445 C   0  0  0  0  0  0  0  0  0  0  0  0
    1.5806   -4.0328    5.0388 C   0  0  0  0  0  0  0  0  0  0  0  0
    0.5366   -0.4523    1.2095 C   0  0  0  0  0  0  0  0  0  0  0  0
    2.7490   -3.8165    2.8248 C   0  0  0  0  0  0  0  0  0  0  0  0
    7.6238   -2.3818    4.7227 O   0  0  0  0  0  0  0  0  0  0  0  0
    7.3489   -4.5319    5.8761 O   0  0  0  0  0  0  0  0  0  0  0  0
    7.0449   -4.3371    3.5451 O   0  0  0  0  0  0  0  0  0  0  0  0
    4.2656   -1.7456    7.4458 O   0  0  0  0  0  0  0  0  0  0  0  0
    4.3801   -4.2871    6.9989 O   0  0  0  0  0  0  0  0  0  0  0  0
    5.9620   -2.7767    6.2171 O   0  0  0  0  0  0  0  0  0  0  0  0
    6.5334   -3.6001    4.8071 P   0  0  0  0  0  0  0  0  0  0  0  0
    4.2417   -2.9300    6.3170 P   0  0  0  0  0  0  0  0  0  0  0  0
    2.1336   -3.1180    6.4395 S   0  0  0  0  0  0  0  0  0  0  0  0
  5  4  1  0
  6  4  1  0
  8  7  1  0
  9  1  1  0
  9  2  1  0
  9  5  2  3
 10  3  1  0
 10  6  1  0
 10  7  2  0
 17 11  1  0
 17 12  1  0
 17 13  2  0
 17 16  1  0
 18 14  1  0
 18 15  2  0
 18 16  1  0
 19  8  1  0
 19 18  1  0
M  END
>  <DRUGBANK_ID>  (1) 
DB04702

>  <COMMON_NAME>  (1) 
S-[(2E)-3,7-DIMETHYLOCTA-2,6-DIENYL] TRIHYDROGENTHIODIPHOSPHATE

$$$$
