
     RDKit          3D

 11  9  0  0  0  0  0  0  0  0999 V2000
    0.9134   -0.0272    0.0420 C   0  0  0  0  0  0  0  0  0  0  0  0
    0.1784   -0.7569   -1.0012 N   0  0  0  0  0  0  0  0  0  0  0  0
   -1.2916   -0.7569   -1.0012 C   0  0  0  0  0  0  0  0  0  0  0  0
   -1.7983   -0.1507   -2.2997 C   0  0  0  0  0  0  0  0  0  0  0  0
   -1.2916   -0.9722   -3.4740 C   0  0  0  0  0  0  0  0  0  0  0  0
   -1.9849   -2.9258   -3.3039 Hg  0  0  0  0  0  1  0  0  0  0  0  0
   -3.2183   -0.1507   -2.2997 O   0  0  0  0  0  0  0  0  0  0  0  0
   -3.6916   -1.4845   -2.1836 C   0  0  0  0  0  0  0  0  0  0  0  0
    0.2780    0.6037    0.9438 O   0  0  0  0  0  0  0  0  0  0  0  0
    2.3834   -0.0272    0.0420 N   0  0  0  0  0  0  0  0  0  0  0  0
    1.0938   -0.0082   -0.0336 Cl  0  0  0  0  0  0  0  0  0  0  0  0
  2  1  1  0
  3  2  1  0
  4  3  1  0
  4  5  1  0
  6  5  1  0
  7  4  1  0
  8  7  1  0
  9  1  2  0
 10  1  1  0
M  CHG  2   6   1  11  -1
M  ISO  1   6 197
M  END
>  <DRUGBANK_ID>  (1) 
DB09406

>  <COMMON_NAME>  (1) 
Chlormerodrin Hg-197

>  <CAS_NUMBER>  (1) 
64461-80-9

>  <UNII>  (1) 
1D6EFC579A

>  <SYNONYMS>  (1) 
Chlormerodrin (197Hg); Chlormerodrin Hg 197; Chlormerodrin Hg-197; Chlormerodrin, Hg-197

$$$$
