
     RDKit          3D

  8  9  0  0  1  0  0  0  0  0999 V2000
   -1.0034   -1.0507    0.4912 C   0  0  0  0  0  0  0  0  0  0  0  0
   -1.3528    0.4479    0.6131 C   0  0  0  0  0  0  0  0  0  0  0  0
   -0.0483    0.1039   -1.3632 C   0  0  0  0  0  0  0  0  0  0  0  0
    1.4424   -0.5072    0.4259 C   0  0  0  0  0  0  0  0  0  0  0  0
    0.2551   -1.0482   -0.3998 C   0  0  1  0  0  0  0  0  0  0  0  0
   -0.2796    1.1232   -0.2487 C   0  0  2  0  0  0  0  0  0  0  0  0
    1.0201    0.9417    0.5077 C   0  0  0  0  0  0  0  0  0  0  0  0
    1.6097    1.8140    1.1280 O   0  0  0  0  0  0  0  0  0  0  0  0
  2  1  1  0
  5  1  1  1
  5  3  1  0
  5  4  1  0
  6  2  1  1
  6  3  1  0
  7  4  1  0
  7  6  1  0
  8  7  2  0
M  END
>  <DRUGBANK_ID>  (1) 
DB03540

>  <SECONDARY_ACCESSION_NUMBERS>  (1) 
EXPT02311

>  <COMMON_NAME>  (1) 
Norcamphor

$$$$
