
     RDKit          3D

 19 20  0  0  0  0  0  0  0  0999 V2000
    1.0468   -0.0544   -0.0307 C   0  0  0  0  0  0  0  0  0  0  0  0
    0.5718   -5.2069    7.8568 C   0  0  0  0  0  0  0  0  0  0  0  0
   -0.1544   -4.2878    9.9566 C   0  0  0  0  0  0  0  0  0  0  0  0
    0.6588   -3.9221    7.3133 C   0  0  0  0  0  0  0  0  0  0  0  0
   -0.0700   -2.9924    9.4258 C   0  0  0  0  0  0  0  0  0  0  0  0
    2.4728   -0.8683    3.9567 C   0  0  0  0  0  0  0  0  0  0  0  0
    2.2016   -0.4396    2.6434 C   0  0  0  0  0  0  0  0  0  0  0  0
    0.1640   -5.4051    9.1784 C   0  0  0  0  0  0  0  0  0  0  0  0
    0.3471   -2.8148    8.1024 C   0  0  0  0  0  0  0  0  0  0  0  0
    1.4660   -0.8253    4.9135 C   0  0  0  0  0  0  0  0  0  0  0  0
    0.9277   -0.0031    2.3298 C   0  0  0  0  0  0  0  0  0  0  0  0
    0.1635   -6.6756    9.7257 N   0  0  0  0  0  0  0  0  0  0  0  0
    0.2363   -0.4538    4.5511 N   0  0  0  0  0  0  0  0  0  0  0  0
   -0.0320   -0.0054    3.2669 N   0  0  0  0  0  0  0  0  0  0  0  0
    1.6632   -1.4053    6.2013 N   0  0  0  0  0  0  0  0  0  0  0  0
    1.1817   -0.3831    8.4613 O   0  0  0  0  0  0  0  0  0  0  0  0
   -0.7952   -0.8170    6.9457 O   0  0  0  0  0  0  0  0  0  0  0  0
    0.5579    0.5674    1.1484 O   0  0  0  0  0  0  0  0  0  0  0  0
    0.5207   -1.1611    7.4379 S   0  0  0  0  0  0  0  0  0  0  0  0
  4  2  2  0
  5  3  1  0
  7  6  2  0
  8  2  1  0
  8  3  2  0
  9  4  1  0
  9  5  2  0
 10  6  1  0
 11  7  1  0
 12  8  1  0
 13 10  2  0
 14 11  2  0
 14 13  1  0
 15 10  1  0
 18  1  1  0
 18 11  1  0
 19  9  1  0
 19 15  1  0
 19 16  2  0
 19 17  2  0
M  END
>  <DRUGBANK_ID>  (1) 
DB13773

>  <COMMON_NAME>  (1) 
Sulfamethoxypyridazine

>  <CAS_NUMBER>  (1) 
80-35-3

>  <UNII>  (1) 
T034E4NS2Z

>  <SYNONYMS>  (1) 
Sulfamethoxypyridazine; sulfametoxipiridazina

$$$$
