998
     RDKit          3D

 32 34  0  0  0  0  0  0  0  0999 V2000
   -0.0158   -0.6821   -0.0258 C   0  0  0  0  0  0  0  0  0  0  0  0
    1.2740   -1.4879    0.0739 C   0  0  2  0  0  0  0  0  0  0  0  0
   -0.0354    0.7245   -0.0393 C   0  0  0  0  0  0  0  0  0  0  0  0
   -1.2427   -1.3645   -0.0601 C   0  0  0  0  0  0  0  0  0  0  0  0
    1.4437   -2.0499    1.4178 N   0  0  0  0  0  0  0  0  0  0  0  0
    2.5059   -0.6495   -0.3008 C   0  0  0  0  0  0  0  0  0  0  0  0
    1.2429    1.5223   -0.0834 C   0  0  0  0  0  0  0  0  0  0  0  0
   -1.2727    1.3996   -0.0662 C   0  0  0  0  0  0  0  0  0  0  0  0
   -2.4585   -0.6886   -0.0357 C   0  0  0  0  0  0  0  0  0  0  0  0
    0.7152   -3.1507    1.8286 C   0  0  0  0  0  0  0  0  0  0  0  0
    2.4631    0.7218    0.3718 C   0  0  0  0  0  0  0  0  0  0  0  0
   -2.4769    0.6954   -0.0351 C   0  0  0  0  0  0  0  0  0  0  0  0
    0.7300   -3.4314    3.3378 C   0  0  1  0  0  0  0  0  0  0  0  0
    0.1237   -3.9017    1.0429 O   0  0  0  0  0  0  0  0  0  0  0  0
   -0.5843   -3.7183    3.9553 N   0  0  0  0  0  0  0  0  0  0  0  0
    1.4580   -4.7704    3.5312 C   0  0  0  0  0  0  0  0  0  0  0  0
   -1.7105   -2.9544    3.6590 C   0  0  0  0  0  0  0  0  0  0  0  0
   -0.4133   -4.6614    5.0533 C   0  0  0  0  0  0  0  0  0  0  0  0
    1.0044   -5.2281    4.9070 C   0  0  0  0  0  0  0  0  0  0  0  0
   -3.1387   -3.3522    4.2149 C   0  0  1  0  0  0  0  0  0  0  0  0
   -1.5982   -1.9633    2.9328 O   0  0  0  0  0  0  0  0  0  0  0  0
   -3.8351   -2.1257    4.7511 N   0  0  0  0  0  0  0  0  0  0  0  0
   -4.0146   -4.1305    3.1760 C   0  0  0  0  0  0  0  0  0  0  0  0
   -5.0798   -1.6417    4.3641 C   0  0  0  0  0  0  0  0  0  0  0  0
   -3.3452   -5.4067    2.6461 C   0  0  0  0  0  0  0  0  0  0  0  0
   -5.3022   -4.6662    3.8993 C   0  0  0  0  0  0  0  0  0  0  0  0
   -4.2366   -3.2674    1.8918 C   0  0  0  0  0  0  0  0  0  0  0  0
   -5.5958   -0.3687    5.0050 C   0  0  1  0  0  0  0  0  0  0  0  0
   -5.8529   -2.1608    3.5565 O   0  0  0  0  0  0  0  0  0  0  0  0
   -5.8590    0.5621    3.8927 N   0  0  0  0  0  0  0  0  0  0  0  0
   -6.9038   -0.8026    5.6913 C   0  0  0  0  0  0  0  0  0  0  0  0
   -6.4739    1.7950    4.3085 C   0  0  0  0  0  0  0  0  0  0  0  0
  1  2  1  0
  1  3  1  0
  1  4  2  0
  2  6  1  0
  2  5  1  1
  3  7  1  0
  3  8  2  0
  4  9  1  0
  5 10  1  0
  6 11  1  0
  7 11  1  0
  8 12  1  0
  9 12  2  0
 10 14  2  0
 13 10  1  6
 13 15  1  0
 13 16  1  0
 15 17  1  0
 15 18  1  0
 16 19  1  0
 17 20  1  0
 17 21  2  0
 18 19  1  0
 20 22  1  6
 20 23  1  0
 22 24  1  0
 23 25  1  0
 23 26  1  0
 23 27  1  0
 24 28  1  0
 24 29  2  0
 28 30  1  0
 28 31  1  6
 30 32  1  0
M  END
>  <DRUGBANK_ID>  (1) 
DB02628

>  <SECONDARY_ACCESSION_NUMBERS>  (1) 
EXPT00351

>  <COMMON_NAME>  (1) 
1-[3,3-Dimethyl-2-(2-Methylamino-Propionylamino)-Butyryl]-Pyrrolidine-2-Carboxylic Acid(1,2,3,4-Tetrahydro-Naphthalen-1-Yl)-Amide

$$$$
