CPX
     RDKit          3D

 32 35  0  0  0  0  0  0  0  0999 V2000
    0.6589   -0.2667   -0.2862 O   0  0  0  0  0  0  0  0  0  0  0  0
   10.0020    3.7178   -1.1788 C   0  0  0  0  0  0  0  0  0  0  0  0
   10.0126    2.3312   -0.6065 C   0  0  0  0  0  0  0  0  0  0  0  0
    9.6607    3.4925    0.2808 C   0  0  0  0  0  0  0  0  0  0  0  0
    1.8856   -0.2361   -0.1101 C   0  0  0  0  0  0  0  0  0  0  0  0
    2.7480   -0.9079   -1.0180 N   0  0  0  0  0  0  0  0  0  0  0  0
    4.2346   -1.0542   -1.1866 C   0  0  0  0  0  0  0  0  0  0  0  0
    4.9777    0.0687   -1.9539 C   0  0  0  0  0  0  0  0  0  0  0  0
    6.3999   -0.3279   -2.3002 C   0  0  0  0  0  0  0  0  0  0  0  0
    6.3901   -1.8248   -2.1584 C   0  0  0  0  0  0  0  0  0  0  0  0
    4.9005   -2.2344   -1.9260 C   0  0  0  0  0  0  0  0  0  0  0  0
    2.4747    0.4478    0.9169 N   0  0  0  0  0  0  0  0  0  0  0  0
    2.1165    1.6407    1.8873 C   0  0  1  0  0  0  0  0  0  0  0  0
    2.3765    1.3022    3.5339 C   0  0  0  0  0  0  0  0  0  0  0  0
    3.7571    1.4267    4.3245 C   0  0  0  0  0  0  0  0  0  0  0  0
    1.5778    2.3037    4.3294 C   0  0  0  0  0  0  0  0  0  0  0  0
    2.7046    3.2274    1.5654 C   0  0  0  0  0  0  0  0  0  0  0  0
    1.8606    4.1169    1.3904 O   0  0  0  0  0  0  0  0  0  0  0  0
    4.0925    3.5803    1.7216 N   0  0  0  0  0  0  0  0  0  0  0  0
    5.3886    3.0072    1.1567 C   0  0  1  0  0  0  0  0  0  0  0  0
    6.4352    3.3678    2.1855 C   0  0  2  0  0  0  0  0  0  0  0  0
    6.0125    4.8009    2.5219 C   0  0  0  0  0  0  0  0  0  0  0  0
    4.4746    4.8672    2.2969 C   0  0  0  0  0  0  0  0  0  0  0  0
    7.7708    3.1036    1.7081 N   0  0  0  0  0  0  0  0  0  0  0  0
    8.2901    3.8558    0.6800 C   0  0  0  0  0  0  0  0  0  0  0  0
    7.7301    4.7833    0.1483 O   0  0  0  0  0  0  0  0  0  0  0  0
    5.2136    1.5568    0.7328 C   0  0  0  0  0  0  0  0  0  0  0  0
    4.0416    2.1437   -0.5539 C   0  0  0  0  0  0  0  0  0  0  0  0
    4.1839    3.0282   -1.4081 O   0  0  0  0  0  0  0  0  0  0  0  0
    4.9555    1.0575    2.1248 C   0  0  0  0  0  0  0  0  0  0  0  0
    4.9498   -0.4230    1.9447 C   0  0  0  0  0  0  0  0  0  0  0  0
    5.9944    0.0299    0.8769 C   0  0  0  0  0  0  0  0  0  0  0  0
  1  5  2  0
  2  3  1  0
  2  4  1  0
  3  4  1  0
  4 25  1  0
  5  6  1  0
  5 12  1  0
  6  7  1  0
  7  8  1  0
  7 11  1  0
  8  9  1  0
  9 10  1  0
 10 11  1  0
 13 12  1  6
 13 14  1  0
 13 17  1  0
 14 15  1  0
 14 16  1  0
 17 18  2  0
 17 19  1  0
 19 20  1  0
 19 23  1  0
 20 21  1  0
 20 27  1  1
 21 22  1  0
 21 24  1  6
 22 23  1  0
 24 25  1  0
 25 26  2  0
 27 28  1  0
 27 30  1  0
 27 32  1  0
 28 29  2  0
 30 31  1  0
 31 32  1  0
M  END
>  <DRUGBANK_ID>  (1) 
DB07582

>  <COMMON_NAME>  (1) 
N-[(2R,3S)-1-((2S)-2-{[(CYCLOPENTYLAMINO)CARBONYL]AMINO}-3-METHYLBUTANOYL)-2-(1-FORMYL-1-CYCLOBUTYL)PYRROLIDINYL]CYCLOPROPANECARBOXAMIDE

$$$$
