CT8
     RDKit          3D

 24 27  0  0  0  0  0  0  0  0999 V2000
   -1.5578   -0.0193   -0.0132 Br  0  0  0  0  0  0  0  0  0  0  0  0
    0.3333   -0.0256   -0.0116 C   0  0  0  0  0  0  0  0  0  0  0  0
    1.0209   -1.2447   -0.0130 C   0  0  0  0  0  0  0  0  0  0  0  0
    2.4272   -1.2796   -0.0001 C   0  0  0  0  0  0  0  0  0  0  0  0
    3.1105   -0.0490    0.0246 C   0  0  0  0  0  0  0  0  0  0  0  0
    2.4170    1.1689    0.0088 C   0  0  0  0  0  0  0  0  0  0  0  0
    1.0245    1.1815   -0.0085 C   0  0  0  0  0  0  0  0  0  0  0  0
    3.1612   -2.5623   -0.0122 C   0  0  0  0  0  0  0  0  0  0  0  0
    3.0101   -3.4727   -1.0692 C   0  0  0  0  0  0  0  0  0  0  0  0
    3.6938   -4.6969   -1.0966 C   0  0  0  0  0  0  0  0  0  0  0  0
    4.5578   -4.9327    0.0861 N   0  0  0  0  0  0  0  0  0  0  0  0
    5.3366   -5.9187    0.4561 N   0  0  0  0  0  0  0  0  0  0  0  0
    5.9130   -5.5500    1.6615 C   0  0  0  0  0  0  0  0  0  0  0  0
    4.6476   -3.9456    1.0834 C   0  0  0  0  0  0  0  0  0  0  0  0
    3.9703   -2.7640    1.0444 N   0  0  0  0  0  0  0  0  0  0  0  0
    3.6209   -5.5230   -2.1960 N   0  0  0  0  0  0  0  0  0  0  0  0
    4.1995   -6.8398   -2.3383 C   0  0  0  0  0  0  0  0  0  0  0  0
    3.2145   -7.9681   -2.1979 C   0  0  0  0  0  0  0  0  0  0  0  0
    1.8688   -7.7818   -1.8715 C   0  0  0  0  0  0  0  0  0  0  0  0
    1.0588   -8.8949   -1.7252 C   0  0  0  0  0  0  0  0  0  0  0  0
    1.5242  -10.1582   -1.7362 N   0  0  0  0  0  0  0  0  0  0  0  0
    2.8322  -10.3288   -2.0036 C   0  0  0  0  0  0  0  0  0  0  0  0
    3.6867   -9.2845   -2.3144 C   0  0  0  0  0  0  0  0  0  0  0  0
    5.5068   -4.3120    2.0951 N   0  0  0  0  0  0  0  0  0  0  0  0
  1  2  1  0
  2  3  2  0
  2  7  1  0
  3  4  1  0
  4  5  2  0
  4  8  1  0
  5  6  1  0
  6  7  2  0
  8  9  2  0
  8 15  1  0
  9 10  1  0
 10 11  2  0
 10 16  1  0
 11 12  1  0
 11 14  1  0
 12 13  1  0
 13 24  2  0
 14 15  2  0
 14 24  1  0
 16 17  1  0
 17 18  1  0
 18 19  2  0
 18 23  1  0
 19 20  1  0
 20 21  2  0
 21 22  1  0
 22 23  2  0
M  CHG  1  11   1
M  END
>  <DRUGBANK_ID>  (1) 
DB04669

>  <COMMON_NAME>  (1) 
TRIAZOLOPYRIMIDINE

$$$$
