434
     RDKit          3D

 22 25  0  0  0  0  0  0  0  0999 V2000
    0.7032    1.2727   -0.2728 N   0  0  0  0  0  0  0  0  0  0  0  0
   -0.7585   -1.2440    0.2013 C   0  0  0  0  0  0  0  0  0  0  0  0
    0.7054   -1.2381   -0.2415 C   0  0  0  0  0  0  0  0  0  0  0  0
   -1.4860    0.0028   -0.2428 C   0  0  0  0  0  0  0  0  0  0  0  0
    1.4005    0.0589    0.1908 C   0  0  0  0  0  0  0  0  0  0  0  0
   -0.6967    1.2446    0.2063 C   0  0  0  0  0  0  0  0  0  0  0  0
   -1.3035   -2.2056    0.9852 C   0  0  0  0  0  0  0  0  0  0  0  0
   -2.6763   -2.1822    1.5224 C   0  0  0  0  0  0  0  0  0  0  0  0
   -0.4349   -3.2954    1.4394 C   0  0  0  0  0  0  0  0  0  0  0  0
    0.7591    1.3717   -1.7336 C   0  0  0  0  0  0  0  0  0  0  0  0
   -2.8778   -2.0868    2.9162 C   0  0  0  0  0  0  0  0  0  0  0  0
   -0.0746   -3.3801    2.7954 C   0  0  0  0  0  0  0  0  0  0  0  0
   -3.7503   -2.4615    0.6682 C   0  0  0  0  0  0  0  0  0  0  0  0
    0.0134   -4.2263    0.4921 C   0  0  0  0  0  0  0  0  0  0  0  0
   -1.7665   -1.8456    3.8618 C   0  0  0  0  0  0  0  0  0  0  0  0
   -0.5434   -2.4042    3.8057 C   0  0  0  0  0  0  0  0  0  0  0  0
   -4.1763   -2.2274    3.4206 C   0  0  0  0  0  0  0  0  0  0  0  0
    0.7971   -4.4038    3.1672 C   0  0  0  0  0  0  0  0  0  0  0  0
   -5.0317   -2.6188    1.1880 C   0  0  0  0  0  0  0  0  0  0  0  0
    0.8847   -5.2274    0.8781 C   0  0  0  0  0  0  0  0  0  0  0  0
   -5.2450   -2.4989    2.5608 C   0  0  0  0  0  0  0  0  0  0  0  0
    1.2711   -5.3181    2.2146 C   0  0  0  0  0  0  0  0  0  0  0  0
  1  5  1  0
  1  6  1  0
  1 10  1  0
  2  3  1  0
  2  4  1  0
  2  7  2  3
  3  5  1  0
  4  6  1  0
  7  8  1  0
  7  9  1  0
  8 11  1  0
  8 13  2  0
  9 12  2  0
  9 14  1  0
 11 15  1  0
 11 17  2  0
 12 16  1  0
 12 18  1  0
 13 19  1  0
 14 20  2  0
 15 16  2  0
 17 21  1  0
 18 22  2  0
 19 21  2  0
 20 22  1  0
M  END
>  <DRUGBANK_ID>  (1) 
DB00434

>  <SECONDARY_ACCESSION_NUMBERS>  (1) 
APRD00033

>  <COMMON_NAME>  (1) 
Cyproheptadine

>  <CAS_NUMBER>  (1) 
129-03-3

>  <UNII>  (1) 
2YHB6175DO

>  <SYNONYMS>  (1) 
1-methyl-4-(5-dibenzo(a,e)cycloheptatrienylidene)piperidine; 1-Methyl-4-(5H-dibenzo(a,d)cycloheptenylidene)piperidine; 4-(5-dibenzo(a,d)cyclohepten-5-ylidine)-1-methylpiperidine; 4-(5H-dibenzo(a,d)cyclohepten-5-ylidene)-1-methylpiperidine; 4-Dibenzo[a,d]cyclohepten-5-ylidene-1-methyl-piperidine; 5-(1-methylpiperidylidene-4)-5H-dibenzo(a,d)cyclopheptene; Ciproheptadina; Cyproheptadin; Cyproheptadine; Cyproheptadinum

$$$$
