2LG
     RDKit          3D

 28 30  0  0  0  0  0  0  0  0999 V2000
   -1.3582   -1.2656    0.1154 C   0  0  0  0  0  0  0  0  0  0  0  0
   -1.4162    1.2335    0.1418 C   0  0  0  0  0  0  0  0  0  0  0  0
    2.2459   -0.0297   -0.0566 C   0  0  0  0  0  0  0  0  0  0  0  0
    1.8019   -2.5092   -0.0604 C   0  0  0  0  0  0  0  0  0  0  0  0
    5.8261    1.1966   -0.2544 C   0  0  0  0  0  0  0  0  0  0  0  0
    6.5711    2.0983    0.5380 C   0  0  0  0  0  0  0  0  0  0  0  0
    7.9706    2.1453    0.4374 C   0  0  0  0  0  0  0  0  0  0  0  0
    8.6282    1.3275   -0.4773 C   0  0  0  0  0  0  0  0  0  0  0  0
   10.8022    3.2130    3.3388 C   0  0  0  0  0  0  0  0  0  0  0  0
   10.1170    4.1733    4.3019 C   0  0  0  0  0  0  0  0  0  0  0  0
    0.0182   -0.6969    0.0427 C   0  0  0  0  0  0  0  0  0  0  0  0
   -0.0656    0.6631    0.0619 C   0  0  0  0  0  0  0  0  0  0  0  0
    1.3793   -1.1324   -0.0300 C   0  0  0  0  0  0  0  0  0  0  0  0
    1.3717    1.4506   -0.0101 S   0  0  0  0  0  0  0  0  0  0  0  0
   -2.2591   -0.0152   -0.2090 C   0  0  0  0  0  0  0  0  0  0  0  0
    3.6419    0.0525   -0.1153 N   0  0  0  0  0  0  0  0  0  0  0  0
    2.1529   -3.6091   -0.0801 N   0  0  0  0  0  0  0  0  0  0  0  0
    4.3529    1.2591   -0.1572 C   0  0  0  0  0  0  0  0  0  0  0  0
    3.9129    2.4037   -0.1051 O   0  0  0  0  0  0  0  0  0  0  0  0
    6.4852    0.3924   -1.1818 C   0  0  0  0  0  0  0  0  0  0  0  0
    7.8804    0.4617   -1.2871 C   0  0  0  0  0  0  0  0  0  0  0  0
    5.6542   -0.6716   -2.2586 Cl  0  0  0  0  0  0  0  0  0  0  0  0
    8.8885    3.3287    1.4098 S   0  0  0  0  0  0  0  0  0  0  0  0
    9.8291    2.3978    2.5201 N   0  0  0  0  0  0  0  0  0  0  0  0
    9.8017    4.0157    0.5215 O   0  0  0  0  0  0  0  0  0  0  0  0
    7.9049    4.0801    2.1581 O   0  0  0  0  0  0  0  0  0  0  0  0
    9.1498    1.3256    3.3061 C   0  0  0  0  0  0  0  0  0  0  0  0
    8.0896    1.8470    4.2563 C   0  0  0  0  0  0  0  0  0  0  0  0
  1 11  1  0
  1 15  1  0
  2 12  1  0
  2 15  1  0
  3 13  2  0
  3 14  1  0
  3 16  1  0
  4 13  1  0
  4 17  3  0
  5  6  2  0
  5 18  1  0
  5 20  1  0
  6  7  1  0
  7  8  2  0
  7 23  1  0
  8 21  1  0
  9 10  1  0
  9 24  1  0
 11 12  2  0
 11 13  1  0
 12 14  1  0
 16 18  1  0
 18 19  2  0
 20 21  2  0
 20 22  1  0
 23 24  1  0
 23 25  2  0
 23 26  2  0
 24 27  1  0
 27 28  1  0
M  END
>  <DRUGBANK_ID>  (1) 
DB06970

>  <COMMON_NAME>  (1) 
2-CHLORO-N-(3-CYANO-5,6-DIHYDRO-4H-CYCLOPENTA[B]THIOPHEN-2-YL)-5-DIETHYLSULFAMOYL-BENZAMIDE

$$$$
