AL5
     RDKit          3D

 21 22  0  0  0  0  0  0  0  0999 V2000
    0.1428    1.2771   -0.0014 C   0  0  0  0  0  0  0  0  0  0  0  0
    1.9866   -3.6071    1.2048 C   0  0  0  0  0  0  0  0  0  0  0  0
    2.5449   -4.8723    1.8025 C   0  0  0  0  0  0  0  0  0  0  0  0
    2.3830   -6.1244    1.2009 C   0  0  0  0  0  0  0  0  0  0  0  0
    2.8900   -7.2725    1.7928 C   0  0  0  0  0  0  0  0  0  0  0  0
    3.6077   -7.1938    2.9835 C   0  0  0  0  0  0  0  0  0  0  0  0
    3.8043   -5.9470    3.5855 C   0  0  0  0  0  0  0  0  0  0  0  0
    3.2786   -4.7934    2.9994 C   0  0  0  0  0  0  0  0  0  0  0  0
    4.1701   -8.4393    3.5905 C   0  0  0  0  0  0  0  0  0  0  0  0
   -0.9510    3.2314   -1.3022 O   0  0  0  0  0  0  0  0  0  0  0  0
   -0.9824    3.2645    1.2438 O   0  0  0  0  0  0  0  0  0  0  0  0
    1.1168    3.8555   -0.0373 N   0  0  0  0  0  0  0  0  0  0  0  0
   -0.3426    2.9860   -0.0212 S   0  0  0  0  0  0  0  0  0  0  0  0
    1.4156    0.7510   -0.0010 C   0  0  0  0  0  0  0  0  0  0  0  0
    1.4139   -0.6537   -0.0451 C   0  0  0  0  0  0  0  0  0  0  0  0
    0.1455   -1.1945   -0.0203 C   0  0  0  0  0  0  0  0  0  0  0  0
   -1.0514    0.0378   -0.0020 S   0  0  0  0  0  0  0  0  0  0  0  0
   -0.3311   -2.9077   -0.0081 S   0  0  0  0  0  0  0  0  0  0  0  0
   -0.9943   -3.1691    1.2441 O   0  0  0  0  0  0  0  0  0  0  0  0
   -0.9419   -3.1873   -1.2899 O   0  0  0  0  0  0  0  0  0  0  0  0
    1.1258   -3.7777    0.0127 N   0  0  0  0  0  0  0  0  0  0  0  0
  1 13  1  0
  1 14  2  0
  1 17  1  0
  2  3  1  0
  2 21  1  0
  3  4  2  0
  3  8  1  0
  4  5  1  0
  5  6  2  0
  6  7  1  0
  6  9  1  0
  7  8  2  0
 10 13  2  0
 11 13  2  0
 12 13  1  0
 14 15  1  0
 15 16  2  0
 16 17  1  0
 16 18  1  0
 18 19  2  0
 18 20  2  0
 18 21  1  0
M  END
>  <DRUGBANK_ID>  (1) 
DB07363

>  <COMMON_NAME>  (1) 
THIOPHENE-2,5-DISULFONIC ACID 2-AMIDE-5-(4-METHYL-BENZYLAMIDE)

>  <UNII>  (1) 
409XZT1EFW

$$$$
