
     RDKit          3D

 26 28  0  0  1  0  0  0  0  0999 V2000
   -0.7939   -4.6691    1.4282 C   0  0  0  0  0  0  0  0  0  0  0  0
    0.5616   -4.0643    1.5444 C   0  0  0  0  0  0  0  0  0  0  0  0
    1.4456   -4.5274    0.4650 C   0  0  0  0  0  0  0  0  0  0  0  0
    0.5793   -2.3168    1.4227 S   0  0  0  0  0  0  0  0  0  0  0  0
   -0.2754   -2.1452    2.5559 O   0  0  0  0  0  0  0  0  0  0  0  0
    1.9694   -1.9015    1.4453 O   0  0  0  0  0  0  0  0  0  0  0  0
   -0.0648   -1.6500   -0.0255 N   0  0  0  0  0  0  0  0  0  0  0  0
   -1.4851   -1.6019   -0.5159 C   0  0  1  0  0  0  0  0  0  0  0  0
   -1.7496   -2.9367   -1.2186 C   0  0  0  0  0  0  0  0  0  0  0  0
   -2.6437   -3.6359   -0.3321 O   0  0  0  0  0  0  0  0  0  0  0  0
   -2.8630   -2.8383    0.8786 C   0  0  0  0  0  0  0  0  0  0  0  0
   -2.5830   -1.4012    0.5441 C   0  0  1  0  0  0  0  0  0  0  0  0
   -2.4929   -0.4541    1.6779 O   0  0  0  0  0  0  0  0  0  0  0  0
   -1.3928   -0.0180    2.4092 C   0  0  0  0  0  0  0  0  0  0  0  0
   -0.2261    0.5089    1.8429 C   0  0  0  0  0  0  0  0  0  0  0  0
    1.0206    0.5069    2.5413 C   0  0  0  0  0  0  0  0  0  0  0  0
    1.1298    0.1044    3.8802 C   0  0  0  0  0  0  0  0  0  0  0  0
   -0.0677   -0.2028    4.5327 C   0  0  0  0  0  0  0  0  0  0  0  0
   -1.3098   -0.3011    3.8033 C   0  0  0  0  0  0  0  0  0  0  0  0
    2.4674    0.0544    4.5075 C   0  0  0  0  0  0  0  0  0  0  0  0
    3.4036    1.0638    4.4159 C   0  0  0  0  0  0  0  0  0  0  0  0
    4.5626    0.8382    5.1990 C   0  0  0  0  0  0  0  0  0  0  0  0
    4.5451   -0.4004    5.8001 C   0  0  0  0  0  0  0  0  0  0  0  0
    3.1015   -1.2613    5.4178 S   0  0  0  0  0  0  0  0  0  0  0  0
    5.6086   -0.8873    6.6540 C   0  0  0  0  0  0  0  0  0  0  0  0
    6.4734   -1.2143    7.3229 N   0  0  0  0  0  0  0  0  0  0  0  0
  1  2  1  0
  2  3  1  0
  2  4  1  0
  4  5  2  0
  4  6  2  0
  4  7  1  0
  8  9  1  0
  8 12  1  0
  8  7  1  1
  9 10  1  0
 10 11  1  0
 11 12  1  0
 12 13  1  1
 13 14  1  0
 14 15  2  0
 14 19  1  0
 15 16  1  0
 16 17  2  0
 17 18  1  0
 17 20  1  0
 18 19  2  0
 20 21  2  0
 20 24  1  0
 21 22  1  0
 22 23  2  0
 23 24  1  0
 23 25  1  0
 25 26  3  0
M  END
>  <DRUGBANK_ID>  (1) 
DB11843

>  <COMMON_NAME>  (1) 
PF-04958242

>  <CAS_NUMBER>  (1) 
1258963-59-5

>  <UNII>  (1) 
9G1A824CC2

$$$$
