6DE
     RDKit          3D

 19 20  0  0  0  0  0  0  0  0999 V2000
    1.2893   -0.0305   -0.2734 O   0  0  0  0  0  0  0  0  0  0  0  0
    2.5059   -0.0124   -0.1710 C   0  0  0  0  0  0  0  0  0  0  0  0
    3.0375   -0.6169    0.9585 O   0  0  0  0  0  0  0  0  0  0  0  0
    4.4350   -0.7342    1.2745 C   0  0  0  0  0  0  0  0  0  0  0  0
    5.0258   -1.6251    0.2433 C   0  0  0  0  0  0  0  0  0  0  0  0
    3.3396    0.7822   -1.1430 C   0  0  0  0  0  0  0  0  0  0  0  0
    2.9296    2.0824   -1.4729 C   0  0  0  0  0  0  0  0  0  0  0  0
    1.6815    2.8370   -1.1166 C   0  0  0  0  0  0  0  0  0  0  0  0
    4.4719    0.5553   -2.0738 C   0  0  0  0  0  0  0  0  0  0  0  0
    5.3808   -0.6377   -2.4299 C   0  0  0  0  0  0  0  0  0  0  0  0
    4.7430    1.6758   -2.7685 N   0  0  0  0  0  0  0  0  0  0  0  0
    3.8809    2.6148   -2.3191 N   0  0  0  0  0  0  0  0  0  0  0  0
    3.9227    3.9482   -2.8094 C   0  0  0  0  0  0  0  0  0  0  0  0
    3.9087    5.0512   -1.9388 C   0  0  0  0  0  0  0  0  0  0  0  0
    4.1407    4.9317   -0.2245 Cl  0  0  0  0  0  0  0  0  0  0  0  0
    3.8351    6.3499   -2.4550 C   0  0  0  0  0  0  0  0  0  0  0  0
    3.8138    6.5618   -3.8315 C   0  0  0  0  0  0  0  0  0  0  0  0
    3.8557    5.4720   -4.7008 C   0  0  0  0  0  0  0  0  0  0  0  0
    3.9166    4.1650   -4.1979 C   0  0  0  0  0  0  0  0  0  0  0  0
  1  2  2  0
  2  3  1  0
  2  6  1  0
  3  4  1  0
  4  5  1  0
  6  7  2  0
  6  9  1  0
  7  8  1  0
  7 12  1  0
  9 10  1  0
  9 11  2  0
 11 12  1  0
 12 13  1  0
 13 14  2  0
 13 19  1  0
 14 15  1  0
 14 16  1  0
 16 17  2  0
 17 18  1  0
 18 19  2  0
M  END
>  <DRUGBANK_ID>  (1) 
DB03807

>  <SECONDARY_ACCESSION_NUMBERS>  (1) 
EXPT00284

>  <COMMON_NAME>  (1) 
1-(2-Chlorophenyl)-3,5-Dimethyl-1h-Pyrazole-4-Carboxylic Acid Ethyl Ester

$$$$
