
     RDKit          3D

 13  9  0  0  0  0  0  0  0  0999 V2000
    0.9674    0.0545    0.0773 Cr  0  0  0  0  0 15  0  0  0  0  0  0
    0.9329   -0.0715   -0.0199 O   0  0  0  0  0  0  0  0  0  0  0  0
    2.3029   -0.0715   -0.0199 N   0  0  0  0  0  0  0  0  0  0  0  0
    2.9879   -1.2572   -0.0597 O   0  0  0  0  0  0  0  0  0  0  0  0
    2.9160    0.9898    0.0157 O   0  0  0  0  0  0  0  0  0  0  0  0
    0.9540    0.0879   -0.0125 O   0  0  0  0  0  0  0  0  0  0  0  0
    2.3240    0.0879   -0.0125 N   0  0  0  0  0  0  0  0  0  0  0  0
    3.0090    1.0899   -0.6479 O   0  0  0  0  0  0  0  0  0  0  0  0
    2.9371   -0.8089    0.5562 O   0  0  0  0  0  0  0  0  0  0  0  0
    1.0686   -0.0444    0.0577 O   0  0  0  0  0  0  0  0  0  0  0  0
    2.4386   -0.0444    0.0577 N   0  0  0  0  0  0  0  0  0  0  0  0
    3.1236   -0.6397   -0.9686 O   0  0  0  0  0  0  0  0  0  0  0  0
    3.0517    0.4884    0.9762 O   0  0  0  0  0  0  0  0  0  0  0  0
  2  3  1  0
  3  4  1  0
  3  5  2  0
  6  7  1  0
  7  8  1  0
  7  9  2  0
 10 11  1  0
 11 12  1  0
 11 13  2  0
M  CHG  8   1   3   2  -1   3   1   4  -1   6  -1   7   1   8  -1  10  -1
M  CHG  2  11   1  12  -1
M  END
>  <DRUGBANK_ID>  (1) 
DB14527

>  <SECONDARY_ACCESSION_NUMBERS>  (1) 
DBSALT002353

>  <COMMON_NAME>  (1) 
Chromic nitrate

>  <CAS_NUMBER>  (1) 
13548-38-4

>  <UNII>  (1) 
C6H0RE016B

$$$$
