1058
     RDKit          3D

 23 26  0  0  1  0  0  0  0  0999 V2000
    0.3659   -0.0813   -0.0444 O   0  0  0  0  0  0  0  0  0  0  0  0
    0.4929   -2.9285   -2.3806 O   0  0  0  0  0  0  0  0  0  0  0  0
    2.5495   -3.9811   -0.7059 N   0  0  0  0  0  0  0  0  0  0  0  0
    1.5150   -2.0511   -0.4171 N   0  0  0  0  0  0  0  0  0  0  0  0
    1.6140   -4.9341   -0.2499 C   0  0  0  0  0  0  0  0  0  0  0  0
    2.7811    0.3582    0.7769 C   0  0  0  0  0  0  0  0  0  0  0  0
    0.5913   -3.7925   -0.3141 C   0  0  0  0  0  0  0  0  0  0  0  0
    3.0074    1.9117    0.3206 C   0  0  0  0  0  0  0  0  0  0  0  0
    4.2389   -0.0965    1.0353 C   0  0  0  0  0  0  0  0  0  0  0  0
    1.4253   -0.6956    0.1475 C   0  0  0  0  0  0  0  0  0  0  0  0
    3.8467    2.0501   -0.9576 C   0  0  0  0  0  0  0  0  0  0  0  0
    5.0088   -0.0648   -0.2782 C   0  0  0  0  0  0  0  0  0  0  0  0
    1.3658   -5.5662    1.0987 C   0  0  0  0  0  0  0  0  0  0  0  0
    3.2591   -3.4934    0.5930 C   0  0  0  0  0  0  0  0  0  0  0  0
    2.2901   -1.7361   -1.7708 C   0  0  0  0  0  0  0  0  0  0  0  0
    5.2012    1.3569   -0.8039 C   0  0  0  0  0  0  0  0  0  0  0  0
    2.4762   -3.5811    2.0206 C   0  0  0  0  0  0  0  0  0  0  0  0
    1.7091   -2.9782   -1.9052 C   0  0  0  0  0  0  0  0  0  0  0  0
    1.7316   -4.8701    2.2366 C   0  0  0  0  0  0  0  0  0  0  0  0
    0.5991   -6.7544    1.2326 C   0  0  0  0  0  0  0  0  0  0  0  0
    1.3405   -5.3430    3.5016 C   0  0  0  0  0  0  0  0  0  0  0  0
    0.2353   -7.2411    2.4954 C   0  0  0  0  0  0  0  0  0  0  0  0
    0.6120   -6.5321    3.6317 C   0  0  0  0  0  0  0  0  0  0  0  0
  1 10  2  0
  2 18  2  0
  3  5  1  0
  3 14  1  0
  3 18  1  0
  4  7  1  0
  4 10  1  0
  4 15  1  0
  5  7  1  0
  5 13  1  0
  6  8  1  0
  6  9  1  0
  6 10  1  0
  8 11  1  0
  9 12  1  0
 11 16  1  0
 12 16  1  0
 13 19  2  0
 13 20  1  0
 14 17  1  0
 15 18  1  0
 17 19  1  0
 19 21  1  0
 20 22  2  0
 21 23  2  0
 22 23  1  0
M  END
>  <DRUGBANK_ID>  (1) 
DB01058

>  <SECONDARY_ACCESSION_NUMBERS>  (1) 
APRD01196; EXPT02728

>  <COMMON_NAME>  (1) 
Praziquantel

>  <CAS_NUMBER>  (1) 
55268-74-1

>  <UNII>  (1) 
6490C9U457

>  <SYNONYMS>  (1) 
Praziquantel

$$$$
