
     RDKit          3D

 26 29  0  0  1  0  0  0  0  0999 V2000
    8.4120    7.2633   -0.7540 C   0  0  0  0  0  0  0  0  0  0  0  0
    7.3549    7.1635    0.1712 O   0  0  0  0  0  0  0  0  0  0  0  0
    6.1658    7.3677   -0.4552 C   0  0  0  0  0  0  0  0  0  0  0  0
    5.7284    6.7491   -1.6412 C   0  0  0  0  0  0  0  0  0  0  0  0
    4.3861    6.7829   -2.0805 C   0  0  0  0  0  0  0  0  0  0  0  0
    3.4533    7.1489   -1.1181 C   0  0  0  0  0  0  0  0  0  0  0  0
    3.9868    7.8042   -0.0040 C   0  0  0  0  0  0  0  0  0  0  0  0
    5.2787    8.0725    0.3124 C   0  0  0  0  0  0  0  0  0  0  0  0
    2.2593    6.2181   -0.7502 C   0  0  1  0  0  0  0  0  0  0  0  0
    3.0441    5.0146   -0.0516 C   0  0  0  0  0  0  0  0  0  0  0  0
    3.9916    4.2491   -0.8139 C   0  0  0  0  0  0  0  0  0  0  0  0
    5.1944    3.8095   -0.2474 C   0  0  0  0  0  0  0  0  0  0  0  0
    5.4113    4.0265    1.1008 C   0  0  0  0  0  0  0  0  0  0  0  0
    4.4908    4.7425    1.8698 C   0  0  0  0  0  0  0  0  0  0  0  0
    3.2706    5.1690    1.3199 C   0  0  0  0  0  0  0  0  0  0  0  0
    2.4600    5.9590    2.1020 O   0  0  0  0  0  0  0  0  0  0  0  0
    1.1571    6.2192    1.5445 C   0  0  0  0  0  0  0  0  0  0  0  0
    1.1654    6.9782    0.1964 C   0  0  1  0  0  0  0  0  0  0  0  0
    1.1916    8.5643    0.3641 C   0  0  0  0  0  0  0  0  0  0  0  0
    0.4686    9.4384   -0.4686 C   0  0  0  0  0  0  0  0  0  0  0  0
    0.6813   10.8445   -0.4191 C   0  0  0  0  0  0  0  0  0  0  0  0
    1.6913   11.3797    0.3761 C   0  0  0  0  0  0  0  0  0  0  0  0
    2.3802   10.5561    1.2300 C   0  0  0  0  0  0  0  0  0  0  0  0
    2.0174    9.2104    1.3198 C   0  0  0  0  0  0  0  0  0  0  0  0
    2.0346   12.6969    0.4021 O   0  0  0  0  0  0  0  0  0  0  0  0
    6.5364    3.5234    1.6860 O   0  0  0  0  0  0  0  0  0  0  0  0
  1  2  1  0
  2  3  1  0
  3  4  2  0
  3  8  1  0
  4  5  1  0
  5  6  2  0
  6  7  1  0
  7  8  2  0
  9 10  1  0
  9 18  1  0
  9  6  1  1
 10 11  2  0
 10 15  1  0
 11 12  1  0
 12 13  2  0
 13 14  1  0
 13 26  1  0
 14 15  2  0
 15 16  1  0
 16 17  1  0
 18 17  1  0
 18 19  1  1
 19 20  2  0
 19 24  1  0
 20 21  1  0
 21 22  2  0
 22 23  1  0
 22 25  1  0
 23 24  2  0
M  END
>  <DRUGBANK_ID>  (1) 
DB06588

>  <COMMON_NAME>  (1) 
Triphendiol

>  <CAS_NUMBER>  (1) 
1213777-80-0

>  <UNII>  (1) 
6I62LZU21D

$$$$
