G1L
     RDKit          3D

 18 18  0  0  0  0  0  0  0  0999 V2000
    1.0546   -0.0125   -0.0394 F   0  0  0  0  0  0  0  0  0  0  0  0
    2.4143    0.0274    0.0402 C   0  0  0  0  0  0  0  0  0  0  0  0
    2.8330    0.7803   -1.0107 F   0  0  0  0  0  0  0  0  0  0  0  0
    2.8371   -1.2435   -0.2098 F   0  0  0  0  0  0  0  0  0  0  0  0
    2.8626    0.5594    1.3732 C   0  0  0  0  0  0  0  0  0  0  0  0
    3.1741   -0.3370    2.3895 C   0  0  0  0  0  0  0  0  0  0  0  0
    3.3419    0.1188    3.6875 C   0  0  0  0  0  0  0  0  0  0  0  0
    2.8292    1.9321    1.6661 C   0  0  0  0  0  0  0  0  0  0  0  0
    3.0804    2.3935    2.9699 C   0  0  0  0  0  0  0  0  0  0  0  0
    3.3441    1.4778    3.9981 C   0  0  0  0  0  0  0  0  0  0  0  0
    3.6452    1.9365    5.3066 N   0  0  0  0  0  0  0  0  0  0  0  0
    4.0446    1.1274    6.3617 C   0  0  0  0  0  0  0  0  0  0  0  0
    4.0846   -0.1103    6.3223 O   0  0  0  0  0  0  0  0  0  0  0  0
    4.4444    1.7827    7.6887 C   0  0  0  0  0  0  0  0  0  0  0  0
    5.8476    1.2627    8.0693 C   0  0  0  0  0  0  0  0  0  0  0  0
    3.4517    1.2480    8.7486 C   0  0  0  0  0  0  0  0  0  0  0  0
    4.4012    3.3109    7.7034 C   0  0  0  0  0  0  0  0  0  0  0  0
    5.5275    4.0698    6.5414 Cl  0  0  0  0  0  0  0  0  0  0  0  0
  1  2  1  0
  2  3  1  0
  2  5  1  0
  2  4  1  0
  5  8  2  0
  5  6  1  0
  6  7  2  0
  7 10  1  0
  8  9  1  0
  9 10  2  0
 10 11  1  0
 11 12  1  0
 12 14  1  0
 12 13  2  0
 14 16  1  0
 14 15  1  0
 14 17  1  0
 17 18  1  0
M  END
>  <DRUGBANK_ID>  (1) 
DB07805

>  <COMMON_NAME>  (1) 
3-CHLORO-2,2-DIMETHYL-N-[4-(TRIFLUOROMETHYL)PHENYL]PROPANAMIDE

>  <UNII>  (1) 
UHV4C5JZ3C

$$$$
