446816
     RDKit          3D

 21 22  0  0  0  0  0  0  0  0999 V2000
   -2.0757    0.6277   -0.1979 Cl  0  0  0  0  0  0  0  0  0  0  0  0
    5.6778   -1.1575    0.0946 O   0  0  0  0  0  0  0  0  0  0  0  0
    1.7386   -2.3426   -1.2860 N   0  0  0  0  0  0  0  0  0  0  0  0
    0.4535   -2.8080   -1.1376 N   0  0  0  0  0  0  0  0  0  0  0  0
    3.8761   -2.4502   -0.0161 N   0  0  0  0  0  0  0  0  0  0  0  0
    3.7545   -0.0124    0.2289 N   0  0  0  0  0  0  0  0  0  0  0  0
   -0.8990   -3.8104    0.8351 C   0  0  0  0  0  0  0  0  0  0  0  0
    0.4442   -3.4546    0.0541 C   0  0  0  0  0  0  0  0  0  0  0  0
   -1.7616   -2.7051    1.5619 C   0  0  0  0  0  0  0  0  0  0  0  0
   -1.8451   -4.4260   -0.1958 C   0  0  0  0  0  0  0  0  0  0  0  0
   -0.5908   -4.7828    1.9883 C   0  0  0  0  0  0  0  0  0  0  0  0
    1.7983   -3.7017    0.4533 C   0  0  0  0  0  0  0  0  0  0  0  0
    2.5880   -2.8673   -0.3312 C   0  0  0  0  0  0  0  0  0  0  0  0
    1.9881   -1.1756   -2.1149 C   0  0  0  0  0  0  0  0  0  0  0  0
    4.4240   -1.2071    0.0990 C   0  0  0  0  0  0  0  0  0  0  0  0
    2.4064    0.3504    0.5231 C   0  0  0  0  0  0  0  0  0  0  0  0
    1.8241    1.5887    0.1851 C   0  0  0  0  0  0  0  0  0  0  0  0
    1.5437   -0.5761    1.0209 C   0  0  0  0  0  0  0  0  0  0  0  0
    0.4062    1.7394    0.0728 C   0  0  0  0  0  0  0  0  0  0  0  0
    0.1888   -0.4733    0.7090 C   0  0  0  0  0  0  0  0  0  0  0  0
   -0.4124    0.6530    0.2318 C   0  0  0  0  0  0  0  0  0  0  0  0
  1 21  1  0
  2 15  2  0
  3  4  1  0
  3 13  1  0
  3 14  1  0
  4  8  2  0
  5 13  1  0
  5 15  1  0
  6 15  1  0
  6 16  1  0
  7  8  1  0
  7  9  1  0
  7 10  1  0
  7 11  1  0
  8 12  1  0
 12 13  2  0
 16 17  2  0
 16 18  1  0
 17 19  1  0
 18 20  2  0
 19 21  2  0
 20 21  1  0
M  END
>  <DRUGBANK_ID>  (1) 
DB02277

>  <SECONDARY_ACCESSION_NUMBERS>  (1) 
EXPT00726

>  <COMMON_NAME>  (1) 
1-(5-Tert-Butyl-2-Methyl-2h-Pyrazol-3-Yl)-3-(4-Chloro-Phenyl)-Urea

$$$$
