
     RDKit          3D

 22 25  0  0  1  0  0  0  0  0999 V2000
   11.5028  -13.8445  -23.4999 O   0  0  0  0  0  0  0  0  0  0  0  0
   11.9304  -12.3916  -23.0854 O   0  0  0  0  0  0  0  0  0  0  0  0
   10.1366  -10.1228  -25.8809 O   0  0  0  0  0  0  0  0  0  0  0  0
    8.3487  -12.1550  -25.5417 O   0  0  0  0  0  0  0  0  0  0  0  0
   13.9069  -10.7086  -22.3433 O   0  0  0  0  0  0  0  0  0  0  0  0
   13.3899  -13.6654  -24.4732 O   0  0  0  0  0  0  0  0  0  0  0  0
   11.9844   -7.4573  -24.8539 O   0  0  0  0  0  0  0  0  0  0  0  0
    8.8861  -12.1838  -22.0579 O   0  0  0  0  0  0  0  0  0  0  0  0
   13.4190  -11.0171  -25.7081 N   0  0  0  0  0  0  0  0  0  0  0  0
   12.3268   -9.1075  -26.2301 N   0  0  0  0  0  0  0  0  0  0  0  0
   13.3632  -10.3108  -27.8771 N   0  0  0  0  0  0  0  0  0  0  0  0
   12.7241  -11.0977  -24.5109 C   0  0  1  0  0  0  0  0  0  0  0  0
   11.6609  -10.5637  -23.7629 C   0  0  2  0  0  0  0  0  0  0  0  0
   10.4055  -12.4187  -23.7987 C   0  0  1  0  0  0  0  0  0  0  0  0
   10.8762  -10.7277  -24.8337 C   0  0  2  0  0  0  0  0  0  0  0  0
    9.1375  -12.5305  -24.4377 C   0  0  2  0  0  0  0  0  0  0  0  0
   10.8757  -12.1862  -24.7716 C   0  0  2  0  0  0  0  0  0  0  0  0
   13.6300  -11.9109  -23.2290 C   0  0  2  0  0  0  0  0  0  0  0  0
   12.8248  -13.3461  -23.3338 C   0  0  1  0  0  0  0  0  0  0  0  0
   11.9475   -8.9041  -24.8042 C   0  0  0  0  0  0  0  0  0  0  0  0
    8.4525  -11.7841  -23.3285 C   0  0  0  0  0  0  0  0  0  0  0  0
   13.0466  -10.1557  -26.5992 C   0  0  0  0  0  0  0  0  0  0  0  0
 14  1  1  6
  1 19  1  0
 17  2  1  1
  2 19  1  0
 15  3  1  6
 16  4  1  1
 19  6  1  6
  7 20  1  0
  8 21  1  0
 12  9  1  6
  9 22  1  0
 10 20  1  0
 10 22  2  0
 11 22  1  0
 12 13  1  0
 12 15  1  0
 12 18  1  0
 13 14  1  0
 13 20  1  6
 14 16  1  0
 15 17  1  0
 16 17  1  0
 16 21  1  0
 18 19  1  0
 18  5  1  1
M  CHG  2   6  -1  10   1
M  END
>  <DRUGBANK_ID>  (1) 
DB05232

>  <COMMON_NAME>  (1) 
Tetrodotoxin

>  <CAS_NUMBER>  (1) 
4368-28-9

>  <UNII>  (1) 
3KUM2721U9

>  <SYNONYMS>  (1) 
Tetrodotoxin

$$$$
