
     RDKit          3D

 38 42  0  0  0  0  0  0  0  0999 V2000
   -0.6624  -13.2236    4.2687 C   0  0  0  0  0  0  0  0  0  0  0  0
   -1.0384  -11.9275    3.7193 N   0  0  0  0  0  0  0  0  0  0  0  0
   -1.4689  -10.8735    4.6181 C   0  0  0  0  0  0  0  0  0  0  0  0
   -0.9939  -11.7765    2.3343 C   0  0  0  0  0  0  0  0  0  0  0  0
   -1.6209  -12.7617    1.5416 C   0  0  0  0  0  0  0  0  0  0  0  0
   -1.4187  -12.8047    0.1869 C   0  0  0  0  0  0  0  0  0  0  0  0
   -0.5232  -11.9035   -0.3545 C   0  0  0  0  0  0  0  0  0  0  0  0
   -0.1018  -10.7174    0.2852 C   0  0  0  0  0  0  0  0  0  0  0  0
   -0.2901  -10.6983    1.6824 C   0  0  0  0  0  0  0  0  0  0  0  0
    0.3301   -9.6317    2.3676 C   0  0  0  0  0  0  0  0  0  0  0  0
    0.9364   -8.5446    1.7525 C   0  0  0  0  0  0  0  0  0  0  0  0
    1.0169   -8.5093    0.3797 C   0  0  0  0  0  0  0  0  0  0  0  0
    0.5225   -9.5909   -0.3614 C   0  0  0  0  0  0  0  0  0  0  0  0
    0.6709   -9.3787   -2.1318 S   0  0  0  0  0  0  0  0  0  0  0  0
    0.0843   -8.1043   -2.4890 O   0  0  0  0  0  0  0  0  0  0  0  0
    2.0452   -9.6492   -2.4892 O   0  0  0  0  0  0  0  0  0  0  0  0
   -0.2635  -10.5864   -2.8476 N   0  0  0  0  0  0  0  0  0  0  0  0
   -1.7071  -10.6627   -2.5352 C   0  0  0  0  0  0  0  0  0  0  0  0
   -2.4135   -9.4551   -3.0371 C   0  0  0  0  0  0  0  0  0  0  0  0
   -2.2479   -9.4327   -4.5390 C   0  0  0  0  0  0  0  0  0  0  0  0
   -2.9282  -10.6732   -5.1291 C   0  0  0  0  0  0  0  0  0  0  0  0
   -4.4018  -10.7165   -4.6956 C   0  0  0  0  0  0  0  0  0  0  0  0
   -5.1396   -9.4549   -5.1579 C   0  0  0  0  0  0  0  0  0  0  0  0
   -5.0957   -9.3293   -6.6741 C   0  0  0  0  0  0  0  0  0  0  0  0
   -5.6856  -10.5444   -7.4185 C   0  0  0  0  0  0  0  0  0  0  0  0
   -7.1870  -10.6048   -7.5938 N   0  0  0  0  0  0  0  0  0  0  0  0
   -8.1631  -10.8006   -8.6725 C   0  0  0  0  0  0  0  0  0  0  0  0
   -9.3392  -10.7759   -8.2672 O   0  0  0  0  0  0  0  0  0  0  0  0
   -7.7531  -10.6465  -10.4179 C   0  0  1  0  0  0  0  0  0  0  0  0
   -7.8191   -9.1146  -10.3856 C   0  0  0  0  0  0  0  0  0  0  0  0
   -7.6695   -8.9749  -11.8425 C   0  0  2  0  0  0  0  0  0  0  0  0
   -9.1856   -9.7084  -12.0557 C   0  0  0  0  0  0  0  0  0  0  0  0
   -9.0649  -11.4662  -11.3216 C   0  0  2  0  0  0  0  0  0  0  0  0
   -7.3645  -12.4437  -11.7082 C   0  0  0  0  0  0  0  0  0  0  0  0
   -6.0730  -11.2946  -11.6273 C   0  0  1  0  0  0  0  0  0  0  0  0
   -6.2444   -9.7411  -12.1486 C   0  0  0  0  0  0  0  0  0  0  0  0
   -6.3695  -11.1556  -10.2204 C   0  0  0  0  0  0  0  0  0  0  0  0
   -8.1821  -11.2480  -12.3601 C   0  0  0  0  0  0  0  0  0  0  0  0
  1  2  1  0
  2  3  1  0
  2  4  1  0
  4  5  2  0
  4  9  1  0
  5  6  1  0
  6  7  2  0
  7  8  1  0
  8  9  2  0
  8 13  1  0
  9 10  1  0
 10 11  2  0
 11 12  1  0
 12 13  2  0
 13 14  1  0
 14 15  2  0
 14 16  2  0
 14 17  1  0
 17 18  1  0
 18 19  1  0
 19 20  1  0
 20 21  1  0
 21 22  1  0
 22 23  1  0
 23 24  1  0
 24 25  1  0
 25 26  1  0
 26 27  1  0
 27 28  2  0
 29 30  1  0
 29 38  1  0
 29 37  1  0
 29 27  1  1
 31 30  1  1
 31 32  1  0
 31 36  1  0
 33 32  1  1
 33 38  1  0
 33 34  1  0
 35 34  1  6
 35 36  1  0
 35 37  1  0
M  END
>  <DRUGBANK_ID>  (1) 
DB03031

>  <SECONDARY_ACCESSION_NUMBERS>  (1) 
EXPT01276

>  <COMMON_NAME>  (1) 
Adamantane-1-Carboxylic Acid-5-Dimethylamino-Naphthalene-1-Sulfonylamino-Octyl-Amide

$$$$
