
     RDKit          3D

 38 41  0  0  0  0  0  0  0  0999 V2000
    1.2978    0.2204   -0.1678 S   0  0  0  0  0  0  0  0  0  0  0  0
   -0.6631    1.3543    2.8213 S   0  0  0  0  0  0  0  0  0  0  0  0
    0.8426   -0.1011   -1.4910 O   0  0  0  0  0  0  0  0  0  0  0  0
    1.2014   -0.6574    0.9749 O   0  0  0  0  0  0  0  0  0  0  0  0
   -2.0911    1.7970    3.0458 O   0  0  0  0  0  0  0  0  0  0  0  0
    0.8167    6.2913   -2.9267 O   0  0  0  0  0  0  0  0  0  0  0  0
   -2.3290   -0.2906   -2.3813 O   0  0  0  0  0  0  0  0  0  0  0  0
    7.0022    0.1954   -0.6040 O   0  0  0  0  0  0  0  0  0  0  0  0
    7.2320   -3.0564    0.6647 O   0  0  0  0  0  0  0  0  0  0  0  0
    8.0933   -1.2553    1.7025 O   0  0  0  0  0  0  0  0  0  0  0  0
    0.7668    1.7637    0.2367 N   0  0  0  0  0  0  0  0  0  0  0  0
   -0.3597    3.4870    1.0285 N   0  0  0  0  0  0  0  0  0  0  0  0
   -0.9558   -2.3917    0.9870 N   0  0  0  0  0  0  0  0  0  0  0  0
    0.8367    2.7474   -0.7496 C   0  0  0  0  0  0  0  0  0  0  0  0
    0.0354    2.2300    1.3283 C   0  0  0  0  0  0  0  0  0  0  0  0
    0.1508    3.8332   -0.2316 C   0  0  0  0  0  0  0  0  0  0  0  0
    2.9964    0.2597   -0.2191 C   0  0  0  0  0  0  0  0  0  0  0  0
   -0.6857   -0.4335    2.4852 C   0  0  0  0  0  0  0  0  0  0  0  0
    1.4294    2.7665   -2.0262 C   0  0  0  0  0  0  0  0  0  0  0  0
    0.0950    5.0186   -1.0267 C   0  0  0  0  0  0  0  0  0  0  0  0
   -1.2619   -1.0681    1.1649 C   0  0  0  0  0  0  0  0  0  0  0  0
    0.7939    5.0838   -2.2632 C   0  0  0  0  0  0  0  0  0  0  0  0
    1.4387    3.9532   -2.7454 C   0  0  0  0  0  0  0  0  0  0  0  0
   -1.8217   -0.3517    0.0674 C   0  0  0  0  0  0  0  0  0  0  0  0
    3.6894    1.4361   -0.0706 C   0  0  0  0  0  0  0  0  0  0  0  0
    3.5802   -0.9979   -0.2365 C   0  0  0  0  0  0  0  0  0  0  0  0
   -1.9567   -0.9359   -1.2132 C   0  0  0  0  0  0  0  0  0  0  0  0
   -1.6277   -2.2784   -1.3674 C   0  0  0  0  0  0  0  0  0  0  0  0
    5.0379    1.3806   -0.2702 C   0  0  0  0  0  0  0  0  0  0  0  0
    4.9342   -1.0423   -0.2356 C   0  0  0  0  0  0  0  0  0  0  0  0
   -2.1767    1.0672    0.1243 C   0  0  0  0  0  0  0  0  0  0  0  0
    5.6631    0.1396   -0.3714 C   0  0  0  0  0  0  0  0  0  0  0  0
   -1.1391   -2.9502   -0.2488 C   0  0  0  0  0  0  0  0  0  0  0  0
   -1.8333   -2.9777   -2.6763 C   0  0  0  0  0  0  0  0  0  0  0  0
    1.5936    6.3397   -4.1347 C   0  0  0  0  0  0  0  0  0  0  0  0
   -2.5178    1.1201   -2.4902 C   0  0  0  0  0  0  0  0  0  0  0  0
    7.6479   -1.0656   -0.6803 C   0  0  0  0  0  0  0  0  0  0  0  0
    7.7061   -1.7836    0.6700 C   0  0  0  0  0  0  0  0  0  0  0  0
  1  3  2  0
  1  4  2  0
  1 11  1  0
  1 17  1  0
  2  5  2  0
  2 15  1  0
  2 18  1  0
  6 22  1  0
  6 35  1  0
  7 27  1  0
  7 36  1  0
  8 32  1  0
  8 37  1  0
  9 38  1  0
 10 38  2  0
 11 14  1  0
 11 15  1  0
 12 15  2  0
 12 16  1  0
 13 21  2  0
 13 33  1  0
 14 16  2  0
 14 19  1  0
 16 20  1  0
 17 25  2  0
 17 26  1  0
 18 21  1  0
 19 23  2  0
 20 22  2  0
 21 24  1  0
 22 23  1  0
 24 27  2  0
 24 31  1  0
 25 29  1  0
 26 30  2  0
 27 28  1  0
 28 33  2  0
 28 34  1  0
 29 32  2  0
 30 32  1  0
 37 38  1  0
M  END
>  <DRUGBANK_ID>  (1) 
DB13135

>  <COMMON_NAME>  (1) 
AGN-201904

>  <CAS_NUMBER>  (1) 
651729-53-2

>  <UNII>  (1) 
G0835O03ZM

$$$$
