
     RDKit          3D

 11 10  0  0  0  0  0  0  0  0999 V2000
   -2.7253    1.7372    1.0052 C   0  0  0  0  0  0  0  0  0  0  0  0
   -1.3265    1.3719    0.5345 C   0  0  2  0  0  0  0  0  0  0  0  0
   -0.4515    2.4315    0.9499 O   0  0  0  0  0  0  0  0  0  0  0  0
   -1.1300    1.1117   -0.9980 C   0  0  2  0  0  0  0  0  0  0  0  0
    0.2894    0.9147   -1.2553 O   0  0  0  0  0  0  0  0  0  0  0  0
   -1.6268    2.2050   -1.9889 C   0  0  1  0  0  0  0  0  0  0  0  0
   -0.9702    2.0369   -3.2782 O   0  0  0  0  0  0  0  0  0  0  0  0
   -3.1474    2.1908   -2.3224 C   0  0  1  0  0  0  0  0  0  0  0  0
   -4.0291    2.2535   -1.2213 O   0  0  0  0  0  0  0  0  0  0  0  0
   -3.5219    3.3871   -3.2105 C   0  0  0  0  0  0  0  0  0  0  0  0
   -2.9865    3.2818   -4.5203 O   0  0  0  0  0  0  0  0  0  0  0  0
  2  3  1  0
  2  1  1  6
  4  6  1  0
  4  5  1  1
  4  2  1  0
  6  7  1  6
  6  8  1  0
  8  9  1  1
  8 10  1  0
 10 11  1  0
M  END
>  <DRUGBANK_ID>  (1) 
DB02399

>  <SECONDARY_ACCESSION_NUMBERS>  (1) 
EXPT02796

>  <COMMON_NAME>  (1) 
L-Rhamnitol

>  <CAS_NUMBER>  (1) 
488-28-8

>  <UNII>  (1) 
IHI9UGC58P

>  <SYNONYMS>  (1) 
(2S,3S,4S,5S)-hexane-1,2,3,4,5-pentol; 1-deoxy-L-mannitol; 6-deoxy-L-mannitol

$$$$
