
     RDKit          3D

 43 47  0  0  0  0  0  0  0  0999 V2000
   -1.5206    0.6684    0.0114 C   0  0  2  0  0  0  0  0  0  0  0  0
   -2.7956    1.4321   -0.4815 C   0  0  0  0  0  0  0  0  0  0  0  0
   -3.0799    1.6155   -1.9623 C   0  0  0  0  0  0  0  0  0  0  0  0
   -3.3052    0.5229   -2.7467 C   0  0  0  0  0  0  0  0  0  0  0  0
   -3.6750    0.4317   -4.0915 C   0  0  0  0  0  0  0  0  0  0  0  0
   -3.7507    1.5674   -4.7920 C   0  0  0  0  0  0  0  0  0  0  0  0
   -3.6019    2.7340   -4.0599 C   0  0  0  0  0  0  0  0  0  0  0  0
   -3.2287    2.7705   -2.6788 C   0  0  0  0  0  0  0  0  0  0  0  0
   -0.2490    1.4271   -0.4685 C   0  0  2  0  0  0  0  0  0  0  0  0
    0.0488    1.0683   -1.8164 O   0  0  0  0  0  0  0  0  0  0  0  0
    0.9593    1.1742    0.4609 C   0  0  0  0  0  0  0  0  0  0  0  0
    1.7365   -0.0778    0.0987 N   0  0  0  0  0  0  0  0  0  0  0  0
    2.8088   -0.4720    1.4324 S   0  0  0  0  0  0  0  0  0  0  0  0
    1.9841   -0.9609    2.5174 O   0  0  0  0  0  0  0  0  0  0  0  0
    0.8931   -1.2221   -0.2439 N   0  0  0  0  0  0  0  0  0  0  0  0
   -1.3906   -0.8155   -0.2315 N   0  0  0  0  0  0  0  0  0  0  0  0
   -0.3186   -1.4231    0.4103 C   0  0  0  0  0  0  0  0  0  0  0  0
   -0.4473   -2.1067    1.4194 O   0  0  0  0  0  0  0  0  0  0  0  0
   -2.4437   -1.7198   -0.7943 C   0  0  0  0  0  0  0  0  0  0  0  0
    1.3689   -2.0135   -1.3644 C   0  0  0  0  0  0  0  0  0  0  0  0
    3.8281   -1.8143    0.8517 C   0  0  0  0  0  0  0  0  0  0  0  0
   -1.1170   -3.3719   -2.2714 C   0  0  0  0  0  0  0  0  0  0  0  0
   -0.2721   -3.5950   -3.3991 C   0  0  0  0  0  0  0  0  0  0  0  0
   -0.3598   -2.7993   -4.5208 C   0  0  0  0  0  0  0  0  0  0  0  0
   -1.4111   -1.9421   -4.5651 C   0  0  0  0  0  0  0  0  0  0  0  0
   -2.2641   -1.9376   -3.4398 C   0  0  0  0  0  0  0  0  0  0  0  0
   -1.9565   -2.3230   -2.1579 C   0  0  0  0  0  0  0  0  0  0  0  0
    0.7252   -4.2485   -0.2001 C   0  0  0  0  0  0  0  0  0  0  0  0
    0.9373   -5.5748    0.1271 C   0  0  0  0  0  0  0  0  0  0  0  0
    2.1623   -6.1031   -0.1743 C   0  0  0  0  0  0  0  0  0  0  0  0
    3.0570   -5.3894   -0.9631 C   0  0  0  0  0  0  0  0  0  0  0  0
    2.7340   -4.1247   -1.4682 C   0  0  0  0  0  0  0  0  0  0  0  0
    1.6022   -3.4742   -0.9977 C   0  0  0  0  0  0  0  0  0  0  0  0
    0.4664   -2.9313   -5.5839 O   0  0  0  0  0  0  0  0  0  0  0  0
    2.5284   -7.3091    0.3309 O   0  0  0  0  0  0  0  0  0  0  0  0
    4.7548   -1.6084   -0.1813 C   0  0  0  0  0  0  0  0  0  0  0  0
    3.8010   -3.0286    1.5455 C   0  0  0  0  0  0  0  0  0  0  0  0
    3.6886    0.6587    1.6384 O   0  0  0  0  0  0  0  0  0  0  0  0
    5.6690   -2.6233   -0.5014 C   0  0  0  0  0  0  0  0  0  0  0  0
    4.7595   -4.0047    1.2706 C   0  0  0  0  0  0  0  0  0  0  0  0
    5.6665   -3.8211    0.2228 C   0  0  0  0  0  0  0  0  0  0  0  0
    6.6414   -2.4336   -1.5584 C   0  0  0  0  0  0  0  0  0  0  0  0
    7.4191   -2.2873   -2.3804 N   0  0  0  0  0  0  0  0  0  0  0  0
  1  9  1  0
  1 16  1  0
  1  2  1  6
  2  3  1  0
  3  4  2  0
  3  8  1  0
  4  5  1  0
  5  6  2  0
  6  7  1  0
  7  8  2  0
  9 10  1  6
 11  9  1  0
 11 12  1  0
 12 13  1  0
 12 15  1  0
 14 13  2  0
 17 15  1  0
 17 16  1  0
 17 18  2  0
 19 16  1  0
 19 27  1  0
 20 15  1  0
 20 33  1  0
 21 13  1  0
 21 36  2  0
 21 37  1  0
 22 23  2  0
 22 27  1  0
 23 24  1  0
 24 25  2  0
 24 34  1  0
 25 26  1  0
 26 27  2  0
 28 29  2  0
 28 33  1  0
 29 30  1  0
 30 31  2  0
 30 35  1  0
 31 32  1  0
 32 33  2  0
 36 39  1  0
 37 40  2  0
 38 13  2  0
 41 39  2  0
 41 40  1  0
 42 39  1  0
 42 43  3  0
M  END
>  <DRUGBANK_ID>  (1) 
DB03141

>  <SECONDARY_ACCESSION_NUMBERS>  (1) 
EXPT00690

>  <COMMON_NAME>  (1) 
3-{[(5R,6R)-5-Benzyl-6-hydroxy-2,4-bis(4-hydroxybenzyl)-3-oxo-1,2,4-triazepan-1-yl]sulfonyl}benzonitril

$$$$
