
     RDKit          3D

 13 12  0  0  1  0  0  0  0  0999 V2000
    1.3174   -0.1115   -0.2309 C   0  0  0  0  0  0  0  0  0  0  0  0
    0.7766   -0.3747   -1.6452 C   0  0  0  0  0  0  0  0  0  0  0  0
    0.5023    0.4758    2.7685 C   0  0  0  0  0  0  0  0  0  0  0  0
    1.1404   -1.2556    0.7890 C   0  0  1  0  0  0  0  0  0  0  0  0
    1.1824   -0.8411    2.2987 C   0  0  2  0  0  0  0  0  0  0  0  0
    1.2316   -1.5946   -2.1963 O   0  0  0  0  0  0  0  0  0  0  0  0
   -0.0626   -1.9656    0.5318 O   0  0  0  0  0  0  0  0  0  0  0  0
    0.6199   -1.9271    3.0617 O   0  0  0  0  0  0  0  0  0  0  0  0
   -2.0354   -1.2742    1.7636 O   0  0  0  0  0  0  0  0  0  0  0  0
   -2.8251    1.0230    1.6028 O   0  0  0  0  0  0  0  0  0  0  0  0
   -2.0311   -0.1175   -0.2860 O   0  0  0  0  0  0  0  0  0  0  0  0
   -0.9383    0.4691    2.7487 O   0  0  0  0  0  0  0  0  0  0  0  0
   -1.5150    0.1596    1.1473 P   0  0  0  0  0  0  0  0  0  0  0  0
  2  1  1  0
  4  1  1  0
  4  7  1  6
  5  3  1  0
  5  4  1  0
  5  8  1  1
  6  2  1  0
 12  3  1  0
 13  9  1  0
 13 10  1  0
 13 11  2  0
 13 12  1  0
M  END
>  <DRUGBANK_ID>  (1) 
DB04087

>  <SECONDARY_ACCESSION_NUMBERS>  (1) 
EXPT01769

>  <COMMON_NAME>  (1) 
Open Form of 2'-Deoxy-Ribofuranose-5'-Phosphate

$$$$
