
     RDKit          3D

  9  9  0  0  0  0  0  0  0  0999 V2000
    0.9766    0.0920    0.1152 I   0  0  0  0  0  0  0  0  0  0  0  0
    3.0163    0.1093    0.0445 C   0  0  0  0  0  0  0  0  0  0  0  0
    3.7281    1.2448    0.0395 C   0  0  0  0  0  0  0  0  0  0  0  0
    5.0853    1.2381   -0.1459 N   0  0  0  0  0  0  0  0  0  0  0  0
    5.8274    0.0934   -0.2428 C   0  0  0  0  0  0  0  0  0  0  0  0
    7.0244    0.1138   -0.5130 O   0  0  0  0  0  0  0  0  0  0  0  0
    5.1413   -1.0669   -0.0321 N   0  0  0  0  0  0  0  0  0  0  0  0
    3.7742   -1.1769   -0.0442 C   0  0  0  0  0  0  0  0  0  0  0  0
    3.2311   -2.2746   -0.1275 O   0  0  0  0  0  0  0  0  0  0  0  0
  1  2  1  0
  2  3  2  0
  2  8  1  0
  3  4  1  0
  4  5  1  0
  5  6  2  0
  5  7  1  0
  7  8  1  0
  8  9  2  0
M  END
>  <DRUGBANK_ID>  (1) 
DB03554

>  <SECONDARY_ACCESSION_NUMBERS>  (1) 
EXPT01946

>  <COMMON_NAME>  (1) 
5-Iodouracil

>  <CAS_NUMBER>  (1) 
696-07-1

>  <UNII>  (1) 
H59BRK500M

$$$$
