
     RDKit          3D

 26 28  0  0  1  0  0  0  0  0999 V2000
   -2.2915   -0.3569   -0.0605 C   0  0  0  0  0  0  0  0  0  0  0  0
   -0.9308    0.0938   -0.1332 C   0  0  0  0  0  0  0  0  0  0  0  0
   -0.6603    1.4657   -0.1192 C   0  0  0  0  0  0  0  0  0  0  0  0
    0.6379    1.9358    0.0932 C   0  0  0  0  0  0  0  0  0  0  0  0
    1.6918    1.0125    0.0875 C   0  0  0  0  0  0  0  0  0  0  0  0
    1.4171   -0.3544   -0.0163 C   0  0  0  0  0  0  0  0  0  0  0  0
    0.1129   -0.8248   -0.0954 C   0  0  0  0  0  0  0  0  0  0  0  0
    2.4212   -1.2412    0.0149 F   0  0  0  0  0  0  0  0  0  0  0  0
    0.9474    3.2637    0.3420 O   0  0  0  0  0  0  0  0  0  0  0  0
   -0.0718    4.1859    0.4868 C   0  0  0  0  0  0  0  0  0  0  0  0
   -0.0653    5.3079   -0.3394 C   0  0  0  0  0  0  0  0  0  0  0  0
    1.0099    5.5781   -1.3264 C   0  0  2  0  0  0  0  0  0  0  0  0
    0.5851    6.8695   -2.0221 C   0  0  2  0  0  0  0  0  0  0  0  0
   -0.8036    7.3142   -1.4346 C   0  0  2  0  0  0  0  0  0  0  0  0
   -1.0782    6.2811   -0.3504 C   0  0  0  0  0  0  0  0  0  0  0  0
   -2.1253    6.1342    0.5689 C   0  0  0  0  0  0  0  0  0  0  0  0
   -2.1220    5.0277    1.4516 C   0  0  0  0  0  0  0  0  0  0  0  0
   -1.0887    4.0741    1.4261 C   0  0  0  0  0  0  0  0  0  0  0  0
   -3.4311    7.3449    0.6651 S   0  0  0  0  0  0  0  0  0  0  0  0
   -2.8024    8.5662    1.1322 O   0  0  0  0  0  0  0  0  0  0  0  0
   -4.1292    7.3106   -0.6043 O   0  0  0  0  0  0  0  0  0  0  0  0
   -4.5771    6.8140    1.9251 C   0  0  0  0  0  0  0  0  0  0  0  0
   -1.7746    7.2439   -2.4752 O   0  0  0  0  0  0  0  0  0  0  0  0
    0.5173    6.6545   -3.3665 F   0  0  0  0  0  0  0  0  0  0  0  0
    1.1486    4.5594   -2.2106 F   0  0  0  0  0  0  0  0  0  0  0  0
   -3.3815   -0.7092    0.0799 N   0  0  0  0  0  0  0  0  0  0  0  0
  1  2  1  0
  1 26  3  0
  2  3  2  0
  2  7  1  0
  3  4  1  0
  4  5  2  0
  4  9  1  0
  5  6  1  0
  6  7  2  0
  6  8  1  0
  9 10  1  0
 10 18  1  0
 11 10  2  0
 11 15  1  0
 12 11  1  0
 12 25  1  6
 13 12  1  0
 13 24  1  6
 14 13  1  0
 14 15  1  0
 14 23  1  6
 16 15  2  0
 16 19  1  0
 17 16  1  0
 18 17  2  0
 19 20  2  0
 19 21  2  0
 19 22  1  0
M  END
>  <DRUGBANK_ID>  (1) 
DB15463

>  <COMMON_NAME>  (1) 
Belzutifan

>  <CAS_NUMBER>  (1) 
1672668-24-4

>  <UNII>  (1) 
7K28NB895L

>  <SYNONYMS>  (1) 
Belzutifan

$$$$
