1539
     RDKit          3D

 14 15  0  0  0  0  0  0  0  0999 V2000
    1.3472   -0.0336    0.2095 N   0  0  0  0  0  0  0  0  0  0  0  0
    2.9377   -0.0147   -2.8829 N   0  0  0  0  0  0  0  0  0  0  0  0
    2.7828   -0.0336   -0.2274 C   0  0  0  0  0  0  0  0  0  0  0  0
    3.4608    1.2007    0.4292 C   0  0  0  0  0  0  0  0  0  0  0  0
    3.5405   -1.3104    0.2499 C   0  0  0  0  0  0  0  0  0  0  0  0
    4.9612    1.2694    0.2065 C   0  0  0  0  0  0  0  0  0  0  0  0
    5.0344   -1.2217   -0.0747 C   0  0  0  0  0  0  0  0  0  0  0  0
    0.6471    1.1832   -0.2667 C   0  0  0  0  0  0  0  0  0  0  0  0
    0.6304   -1.2319   -0.2628 C   0  0  0  0  0  0  0  0  0  0  0  0
    5.6660   -0.0159    0.6023 C   0  0  0  0  0  0  0  0  0  0  0  0
   -0.7828    1.2491    0.2359 C   0  0  0  0  0  0  0  0  0  0  0  0
   -0.8090   -1.2478    0.2333 C   0  0  0  0  0  0  0  0  0  0  0  0
   -1.5524    0.0116   -0.1857 C   0  0  0  0  0  0  0  0  0  0  0  0
    2.8960    0.0133   -1.7247 C   0  0  0  0  0  0  0  0  0  0  0  0
  1  3  1  0
  1  8  1  0
  1  9  1  0
  2 14  3  0
  3  4  1  0
  3  5  1  0
  3 14  1  0
  4  6  1  0
  5  7  1  0
  6 10  1  0
  7 10  1  0
  8 11  1  0
  9 12  1  0
 11 13  1  0
 12 13  1  0
M  END
>  <DRUGBANK_ID>  (1) 
DB01539

>  <COMMON_NAME>  (1) 
1-Piperidinocyclohexanecarbonitrile

>  <CAS_NUMBER>  (1) 
3867-15-0

>  <UNII>  (1) 
03ZI7ZZW5Q

$$$$
