7NH
     RDKit          3D

 27 30  0  0  0  0  0  0  0  0999 V2000
   -2.1370    0.6096    0.0042 N   0  0  0  0  0  0  0  0  0  0  0  0
   -2.0357   -0.7381    0.0071 C   0  0  0  0  0  0  0  0  0  0  0  0
   -0.8439   -1.4502   -0.0133 C   0  0  0  0  0  0  0  0  0  0  0  0
    0.3091   -0.6671   -0.0012 C   0  0  0  0  0  0  0  0  0  0  0  0
    0.2508    0.7264    0.0017 C   0  0  0  0  0  0  0  0  0  0  0  0
   -1.0017    1.3487   -0.0095 C   0  0  0  0  0  0  0  0  0  0  0  0
    1.6406   -1.0182    0.0215 N   0  0  0  0  0  0  0  0  0  0  0  0
    1.5878    1.1996    0.0121 C   0  0  0  0  0  0  0  0  0  0  0  0
    2.4343    0.1090    0.0050 C   0  0  0  0  0  0  0  0  0  0  0  0
    3.8932    0.0740   -0.0195 C   0  0  0  0  0  0  0  0  0  0  0  0
    4.6101    0.7088    1.0073 C   0  0  0  0  0  0  0  0  0  0  0  0
    6.0050    0.7156    1.0081 C   0  0  0  0  0  0  0  0  0  0  0  0
    6.6975    0.0860   -0.0225 C   0  0  0  0  0  0  0  0  0  0  0  0
    6.0077   -0.5538   -1.0693 C   0  0  0  0  0  0  0  0  0  0  0  0
    4.6028   -0.5467   -1.0584 C   0  0  0  0  0  0  0  0  0  0  0  0
    3.9575   -1.1725   -2.1000 O   0  0  0  0  0  0  0  0  0  0  0  0
    6.7595   -1.2208   -2.1345 C   0  0  0  0  0  0  0  0  0  0  0  0
    6.6698   -0.7969   -3.4684 C   0  0  0  0  0  0  0  0  0  0  0  0
    7.3883   -1.4427   -4.4723 C   0  0  0  0  0  0  0  0  0  0  0  0
    8.2500   -2.4836   -4.1448 C   0  0  0  0  0  0  0  0  0  0  0  0
    8.4161   -2.8651   -2.8107 C   0  0  0  0  0  0  0  0  0  0  0  0
    7.6056   -2.2895   -1.8255 C   0  0  0  0  0  0  0  0  0  0  0  0
    9.4943   -3.8339   -2.4286 C   0  0  0  0  0  0  0  0  0  0  0  0
   10.3784   -3.2453   -1.4413 N   0  0  0  0  0  0  0  0  0  0  0  0
   10.6182   -3.6418   -0.1774 C   0  0  0  0  0  0  0  0  0  0  0  0
   11.3709   -3.0114    0.5624 O   0  0  0  0  0  0  0  0  0  0  0  0
   10.0077   -4.7606    0.2482 N   0  0  0  0  0  0  0  0  0  0  0  0
  1  2  2  0
  1  6  1  0
  2  3  1  0
  3  4  2  0
  4  5  1  0
  4  7  1  0
  5  6  2  0
  5  8  1  0
  7  9  1  0
  8  9  2  0
  9 10  1  0
 10 11  2  0
 10 15  1  0
 11 12  1  0
 12 13  2  0
 13 14  1  0
 14 15  2  0
 14 17  1  0
 15 16  1  0
 17 18  2  0
 17 22  1  0
 18 19  1  0
 19 20  2  0
 20 21  1  0
 21 22  2  0
 21 23  1  0
 23 24  1  0
 24 25  1  0
 25 26  2  0
 25 27  1  0
M  END
>  <DRUGBANK_ID>  (1) 
DB07247

>  <COMMON_NAME>  (1) 
[2'-HYDROXY-3'-(1H-PYRROLO[3,2-C]PYRIDIN-2-YL)-BIPHENYL-3-YLMETHYL]-UREA

$$$$
