
     RDKit          3D

 12 11  0  0  1  0  0  0  0  0999 V2000
    0.8285    0.8152   -2.4600 C   0  0  0  0  0  0  0  0  0  0  0  0
    0.3476    0.8501   -1.0135 C   0  0  2  0  0  0  0  0  0  0  0  0
    1.0818   -0.1000   -0.0425 C   0  0  2  0  0  0  0  0  0  0  0  0
    1.1855    0.4683    1.4001 C   0  0  1  0  0  0  0  0  0  0  0  0
    2.0411    1.7606    1.5604 C   0  0  1  0  0  0  0  0  0  0  0  0
    1.5711    3.0739    0.9049 C   0  0  0  0  0  0  0  0  0  0  0  0
    0.2055    3.3911    1.1851 O   0  0  0  0  0  0  0  0  0  0  0  0
    2.1276    2.0416    2.9705 O   0  0  0  0  0  0  0  0  0  0  0  0
   -0.1019    0.6297    2.0258 O   0  0  0  0  0  0  0  0  0  0  0  0
    2.4026   -0.4046   -0.4909 O   0  0  0  0  0  0  0  0  0  0  0  0
   -1.0715    0.7310   -0.8792 O   0  0  0  0  0  0  0  0  0  0  0  0
    0.3481   -0.3584   -3.0892 O   0  0  0  0  0  0  0  0  0  0  0  0
  1 12  1  0
  2 11  1  6
  2  3  1  0
  2  1  1  0
  3 10  1  6
  3  4  1  0
  4  5  1  0
  4  9  1  6
  5  6  1  0
  5  8  1  1
  6  7  1  0
M  END
>  <DRUGBANK_ID>  (1) 
DB00742

>  <SECONDARY_ACCESSION_NUMBERS>  (1) 
APRD01083; EXPT02246

>  <COMMON_NAME>  (1) 
Mannitol

>  <CAS_NUMBER>  (1) 
69-65-8

>  <UNII>  (1) 
3OWL53L36A

>  <SYNONYMS>  (1) 
(2R,3R,4R,5R)-hexane-1,2,3,4,5,6-hexaol; (2R,3R,4R,5R)-hexane-1,2,3,4,5,6-hexol; D-(-)-Mannitol; D-Mannitol; Manitol; Manna Sugar; Mannit; Mannite; Mannitol; Mannitolum

$$$$
