0MO
     RDKit          3D

 20 21  0  0  0  0  0  0  0  0999 V2000
    1.3327   -0.0153   -0.0346 C   0  0  0  0  0  0  0  0  0  0  0  0
   -4.6750   -2.2912    0.8566 N   0  0  0  0  0  0  0  0  0  0  0  0
   -1.0228    2.2487    2.0062 O   0  0  0  0  0  0  0  0  0  0  0  0
    1.1560   -0.3145    1.4384 C   0  0  0  0  0  0  0  0  0  0  0  0
   -3.1788   -2.5844    2.5186 N   0  0  0  0  0  0  0  0  0  0  0  0
   -3.1046    3.0421   -0.0540 O   0  0  0  0  0  0  0  0  0  0  0  0
    1.1338    0.8938    2.3808 C   0  0  0  0  0  0  0  0  0  0  0  0
   -4.5539   -0.7090    2.5639 O   0  0  0  0  0  0  0  0  0  0  0  0
    0.4219    2.1785    1.8952 C   0  0  0  0  0  0  0  0  0  0  0  0
   -1.7402    1.4052    1.2036 C   0  0  0  0  0  0  0  0  0  0  0  0
   -2.6762    1.7798    0.2481 C   0  0  0  0  0  0  0  0  0  0  0  0
   -2.3382    4.0918    0.5156 C   0  0  0  0  0  0  0  0  0  0  0  0
   -3.2996    0.7729   -0.5075 C   0  0  0  0  0  0  0  0  0  0  0  0
   -2.7926   -0.5248   -0.5143 C   0  0  0  0  0  0  0  0  0  0  0  0
   -1.9553   -0.9150    0.5167 C   0  0  0  0  0  0  0  0  0  0  0  0
   -1.5402   -2.3726    0.7031 C   0  0  0  0  0  0  0  0  0  0  0  0
   -2.6214   -3.2488    1.3575 C   0  0  2  0  0  0  0  0  0  0  0  0
   -3.8497   -3.4094    0.4727 C   0  0  0  0  0  0  0  0  0  0  0  0
   -4.2222   -1.7589    2.0703 C   0  0  0  0  0  0  0  0  0  0  0  0
   -1.6659    0.0572    1.4859 C   0  0  0  0  0  0  0  0  0  0  0  0
  2 19  1  0
  3 10  1  0
  3  9  1  0
  4  1  1  0
  4  7  1  0
  5 19  1  0
  6 11  1  0
  7  9  1  0
 10 20  2  0
 11 10  1  0
 11 13  2  0
 12  6  1  0
 13 14  1  0
 14 15  2  0
 15 16  1  0
 17 16  1  6
 17  5  1  0
 17 18  1  0
 18  2  1  0
 19  8  2  0
 20 15  1  0
M  END
>  <DRUGBANK_ID>  (1) 
DB06842

>  <COMMON_NAME>  (1) 
(4R)-4-(3-butoxy-4-methoxybenzyl)imidazolidin-2-one

$$$$
