
     RDKit          3D

 30 32  0  0  1  0  0  0  0  0999 V2000
    0.0668   -3.6856   -2.5404 C   0  0  0  0  0  0  0  0  0  0  0  0
    1.5509   -3.6037   -2.1307 C   0  0  2  0  0  0  0  0  0  0  0  0
    1.6622   -4.1486   -0.6773 C   0  0  0  0  0  0  0  0  0  0  0  0
    1.4631   -3.1120    0.4302 C   0  0  0  0  0  0  0  0  0  0  0  0
    0.0579   -2.5029    0.5921 C   0  0  2  0  0  0  0  0  0  0  0  0
    0.0056   -1.0469    1.1951 C   0  0  0  0  0  0  0  0  0  0  0  0
    1.2903   -0.6745    1.9437 C   0  0  0  0  0  0  0  0  0  0  0  0
   -0.4187    0.0799    0.2004 C   0  0  0  0  0  0  0  0  0  0  0  0
   -0.7117   -3.4066    1.3753 O   0  0  0  0  0  0  0  0  0  0  0  0
    2.2289   -2.2263   -2.4651 C   0  0  1  0  0  0  0  0  0  0  0  0
    1.5742   -0.9856   -1.8609 C   0  0  0  0  0  0  0  0  0  0  0  0
    2.6291   -0.0764   -1.2385 C   0  0  0  0  0  0  0  0  0  0  0  0
    3.8362   -0.4892   -1.9952 C   0  0  2  0  0  0  0  0  0  0  0  0
    3.7341   -2.0311   -2.1365 C   0  0  2  0  0  0  0  0  0  0  0  0
    4.6071   -2.4304   -3.3326 C   0  0  0  0  0  0  0  0  0  0  0  0
    6.0533   -2.0625   -3.0445 C   0  0  0  0  0  0  0  0  0  0  0  0
    6.1593   -0.6346   -2.5446 C   0  0  0  0  0  0  0  0  0  0  0  0
    5.1840   -0.1569   -1.5041 C   0  0  0  0  0  0  0  0  0  0  0  0
    5.5086    0.5456   -0.3750 C   0  0  0  0  0  0  0  0  0  0  0  0
    6.8312    1.0893   -0.1775 C   0  0  0  0  0  0  0  0  0  0  0  0
    7.5272    1.7792   -1.1205 C   0  0  0  0  0  0  0  0  0  0  0  0
    8.9661    2.1584   -0.8870 C   0  0  0  0  0  0  0  0  0  0  0  0
    9.8964    1.6919   -2.0218 C   0  0  2  0  0  0  0  0  0  0  0  0
    9.3740    2.0517   -3.4150 C   0  0  0  0  0  0  0  0  0  0  0  0
    7.9525    1.5724   -3.6109 C   0  0  1  0  0  0  0  0  0  0  0  0
    7.0376    2.0762   -2.4875 C   0  0  0  0  0  0  0  0  0  0  0  0
    5.8082    2.5850   -2.7169 C   0  0  0  0  0  0  0  0  0  0  0  0
    7.4726    1.9292   -4.9030 O   0  0  0  0  0  0  0  0  0  0  0  0
   10.1574    0.2874   -1.9261 O   0  0  0  0  0  0  0  0  0  0  0  0
    4.3254   -2.7762   -0.8999 C   0  0  0  0  0  0  0  0  0  0  0  0
  2  3  1  0
  2  1  1  1
  3  4  1  0
  5  9  1  1
  5  6  1  0
  5  4  1  0
  6  7  1  0
  6  8  1  0
 10  2  1  0
 10 11  1  1
 10 14  1  0
 11 12  1  0
 13 12  1  1
 13 14  1  0
 13 18  1  0
 14 15  1  0
 14 30  1  1
 15 16  1  0
 16 17  1  0
 17 18  1  0
 18 19  2  0
 19 20  1  0
 20 21  2  0
 21 22  1  0
 21 26  1  0
 22 23  1  0
 23 24  1  0
 23 29  1  6
 24 25  1  0
 25 26  1  0
 25 28  1  6
 26 27  2  0
M  END
>  <DRUGBANK_ID>  (1) 
DB13689

>  <COMMON_NAME>  (1) 
Tacalcitol

>  <CAS_NUMBER>  (1) 
57333-96-7

>  <UNII>  (1) 
C2W72OJ5ZU

>  <SYNONYMS>  (1) 
Tacalcitol

$$$$
