
     RDKit          3D

 33 35  0  0  0  0  0  0  0  0999 V2000
    0.8124    1.6340    0.4560 C   0  0  1  0  0  0  0  0  0  0  0  0
    0.2954   -1.3814   -0.8880 C   0  0  2  0  0  0  0  0  0  0  0  0
    1.4100    0.1488    0.2907 C   0  0  2  0  0  0  0  0  0  0  0  0
   -0.9495    0.2553   -1.7147 C   0  0  1  0  0  0  0  0  0  0  0  0
    0.3946    0.4775   -1.4230 C   0  0  1  0  0  0  0  0  0  0  0  0
   -0.6740   -0.3293    0.4418 C   0  0  2  0  0  0  0  0  0  0  0  0
    0.9061    1.7599   -0.8338 O   0  0  0  0  0  0  0  0  0  0  0  0
    0.3780   -1.7420   -2.3742 O   0  0  0  0  0  0  0  0  0  0  0  0
    0.2312   -0.5668   -3.2717 C   0  0  1  0  0  0  0  0  0  0  0  0
    0.1861   -2.1423    0.7964 C   0  0  2  0  0  0  0  0  0  0  0  0
   -1.6810   -0.4068   -3.4243 O   0  0  0  0  0  0  0  0  0  0  0  0
   -0.7581    1.8216    0.6165 C   0  0  1  0  0  0  0  0  0  0  0  0
   -1.6144   -1.5665   -0.3485 C   0  0  2  0  0  0  0  0  0  0  0  0
    1.8537   -0.7814   -1.2476 O   0  0  0  0  0  0  0  0  0  0  0  0
   -2.0240    0.5668   -0.2645 C   0  0  0  0  0  0  0  0  0  0  0  0
   -2.8103    0.7617   -2.3877 C   0  0  0  0  0  0  0  0  0  0  0  0
    1.6654   -1.7661    0.4195 C   0  0  0  0  0  0  0  0  0  0  0  0
   -2.2359    2.1482   -1.7352 C   0  0  0  0  0  0  0  0  0  0  0  0
    1.1809    1.3005   -2.8991 C   0  0  1  0  0  0  0  0  0  0  0  0
   -0.3341    2.5169   -2.0729 C   0  0  0  0  0  0  0  0  0  0  0  0
   -2.7139   -0.6894    0.8905 N   0  0  0  0  0  0  0  0  0  0  0  0
   -1.3150    1.4078   -3.2894 O   0  0  0  0  0  0  0  0  0  0  0  0
    1.8002    0.1493    1.7818 O   0  0  0  0  0  0  0  0  0  0  0  0
   -0.8438    1.8148    2.0802 N   0  0  0  0  0  0  0  0  0  0  0  0
   -1.5187   -1.8454    1.5222 N   0  0  0  0  0  0  0  0  0  0  0  0
   -0.5395   -3.3194   -0.3934 O   0  0  0  0  0  0  0  0  0  0  0  0
    2.5516    1.2263   -1.9092 N   0  0  0  0  0  0  0  0  0  0  0  0
   -4.4229   -0.1229   -3.1533 N   0  0  0  0  0  0  0  0  0  0  0  0
    0.1335   -2.0809    2.6460 C   0  0  0  0  0  0  0  0  0  0  0  0
   -4.1144    0.2545   -1.8415 C   0  0  0  0  0  0  0  0  0  0  0  0
   -2.4455    1.8397    2.3424 C   0  0  0  0  0  0  0  0  0  0  0  0
   -2.9417   -0.8159    2.6894 C   0  0  0  0  0  0  0  0  0  0  0  0
   -3.8853    0.9519    1.5195 C   0  0  0  0  0  0  0  0  0  0  0  0
  1  7  1  6
  2  3  1  0
  2  8  1  6
  3  1  1  0
  3 23  1  1
  4  5  1  0
  4 22  1  1
  5  7  1  1
  6  4  1  0
  6 21  1  6
  9  8  1  1
 10 17  1  0
 10 26  1  0
 10  6  1  0
 11  9  1  0
 12  1  1  0
 12 24  1  1
 13  2  1  0
 13 15  1  0
 13 25  1  6
 14  5  1  0
 15 12  1  0
 16 11  1  0
 17 14  1  0
 18 16  2  0
 19  9  1  0
 19 27  1  1
 20 19  1  0
 20 18  1  0
 28 30  1  0
 10 29  1  1
 30 16  1  0
 31 24  1  0
 32 21  1  0
 33 31  1  0
M  END
>  <DRUGBANK_ID>  (1) 
DB00955

>  <SECONDARY_ACCESSION_NUMBERS>  (1) 
APRD00232

>  <COMMON_NAME>  (1) 
Netilmicin

>  <CAS_NUMBER>  (1) 
56391-56-1

>  <UNII>  (1) 
4O5J85GJJB

>  <SYNONYMS>  (1) 
1-N-Ethylsisomicin; Netilmicin; Netilmycin

$$$$
