918
     RDKit          3D

 23 25  0  0  0  0  0  0  0  0999 V2000
    1.0848   -0.0345   -0.0365 S   0  0  0  0  0  0  0  0  0  0  0  0
    0.7146    0.3142   -1.4070 O   0  0  0  0  0  0  0  0  0  0  0  0
    0.5749   -1.2389    0.5644 O   0  0  0  0  0  0  0  0  0  0  0  0
    0.5416    1.2377    0.9707 N   0  0  0  0  0  0  0  0  0  0  0  0
    4.0280   -3.7727   -3.8442 N   0  0  0  0  0  0  0  0  0  0  0  0
    7.1201   -1.8659   -6.4519 N   0  0  0  0  0  0  0  0  0  0  0  0
   -0.6189    1.9515    0.3578 C   0  0  0  0  0  0  0  0  0  0  0  0
    1.4683    2.3090    1.4261 C   0  0  0  0  0  0  0  0  0  0  0  0
    0.0659    3.0961   -0.3709 C   0  0  0  0  0  0  0  0  0  0  0  0
    1.0845    3.5659    0.6508 C   0  0  0  0  0  0  0  0  0  0  0  0
    2.8972    0.0077    0.0479 C   0  0  0  0  0  0  0  0  0  0  0  0
    3.4023   -1.0687   -0.8692 C   0  0  0  0  0  0  0  0  0  0  0  0
    4.1591   -1.7112   -3.0509 C   0  0  0  0  0  0  0  0  0  0  0  0
    4.0224   -0.7163   -2.0773 C   0  0  0  0  0  0  0  0  0  0  0  0
    4.5323   -1.6917   -4.4249 C   0  0  0  0  0  0  0  0  0  0  0  0
    3.8323   -3.0278   -2.7197 C   0  0  0  0  0  0  0  0  0  0  0  0
    3.1241   -2.4110   -0.5700 C   0  0  0  0  0  0  0  0  0  0  0  0
    5.2210   -0.5659   -5.1921 C   0  0  0  0  0  0  0  0  0  0  0  0
    3.3714   -3.4292   -1.4761 C   0  0  0  0  0  0  0  0  0  0  0  0
    4.0430   -2.9091   -4.9113 C   0  0  0  0  0  0  0  0  0  0  0  0
    6.7562   -0.7424   -5.5458 C   0  0  0  0  0  0  0  0  0  0  0  0
    8.5199   -1.9096   -6.8403 C   0  0  0  0  0  0  0  0  0  0  0  0
    6.9099   -3.1353   -5.7873 C   0  0  0  0  0  0  0  0  0  0  0  0
  1  2  2  0
  1  3  2  0
  1  4  1  0
  1 11  1  0
  4  7  1  0
  4  8  1  0
  5 16  1  0
  5 20  1  0
  6 21  1  0
  6 22  1  0
  6 23  1  0
  7  9  1  0
  8 10  1  0
  9 10  1  0
 11 12  1  0
 12 14  2  0
 12 17  1  0
 13 14  1  0
 13 15  1  0
 13 16  2  0
 15 18  1  0
 15 20  2  0
 16 19  1  0
 17 19  2  0
 18 21  1  0
M  END
>  <DRUGBANK_ID>  (1) 
DB00918

>  <SECONDARY_ACCESSION_NUMBERS>  (1) 
APRD00169

>  <COMMON_NAME>  (1) 
Almotriptan

>  <CAS_NUMBER>  (1) 
154323-57-6

>  <UNII>  (1) 
1O4XL5SN61

>  <SYNONYMS>  (1) 
1-(((3-(2-(Dimethylamino)ethyl)indol-5-yl)methyl)sulfonyl)pyrrolidine; Almotriptan

$$$$
