
     RDKit          3D

 38 42  0  0  1  0  0  0  0  0999 V2000
    0.4559    0.2255   -0.1941 C   0  0  0  0  0  0  0  0  0  0  0  0
    0.1501   -0.4113   -1.5090 C   0  0  0  0  0  0  0  0  0  0  0  0
    0.9355   -1.7272   -1.7072 C   0  0  1  0  0  0  0  0  0  0  0  0
    2.3806   -1.8686   -1.3132 N   0  0  0  0  0  0  0  0  0  0  0  0
    3.3756   -0.7794   -1.1231 C   0  0  0  0  0  0  0  0  0  0  0  0
    3.3830   -0.0851    0.2763 C   0  0  0  0  0  0  0  0  0  0  0  0
    3.6928    1.4026    0.0114 C   0  0  0  0  0  0  0  0  0  0  0  0
    3.8631    1.5831   -1.4966 C   0  0  0  0  0  0  0  0  0  0  0  0
    3.2873    0.3433   -2.1660 C   0  0  0  0  0  0  0  0  0  0  0  0
    2.8626   -3.2039   -1.5491 C   0  0  0  0  0  0  0  0  0  0  0  0
    4.1832   -3.4502   -1.6654 N   0  0  0  0  0  0  0  0  0  0  0  0
    4.6267   -4.7264   -1.8049 C   0  0  0  0  0  0  0  0  0  0  0  0
    5.9874   -4.9977   -1.9436 N   0  0  0  0  0  0  0  0  0  0  0  0
    6.9963   -4.0545   -2.0977 C   0  0  0  0  0  0  0  0  0  0  0  0
    7.1009   -3.1700   -1.0574 C   0  0  0  0  0  0  0  0  0  0  0  0
    7.9204   -2.0824   -1.1681 C   0  0  0  0  0  0  0  0  0  0  0  0
    8.7888   -1.8473   -2.2318 C   0  0  0  0  0  0  0  0  0  0  0  0
    8.7332   -2.7717   -3.2735 C   0  0  0  0  0  0  0  0  0  0  0  0
    7.8322   -3.8658   -3.2211 C   0  0  0  0  0  0  0  0  0  0  0  0
    7.8556   -4.6267   -4.3639 O   0  0  0  0  0  0  0  0  0  0  0  0
    6.9564   -5.7207   -4.4089 C   0  0  0  0  0  0  0  0  0  0  0  0
    9.7619   -0.6982   -2.2795 C   0  0  0  0  0  0  0  0  0  0  0  0
   10.5119   -0.5583   -3.2597 O   0  0  0  0  0  0  0  0  0  0  0  0
    9.8767    0.2144   -1.2507 N   0  0  0  0  0  0  0  0  0  0  0  0
    9.2399    0.1612    0.0594 C   0  0  0  0  0  0  0  0  0  0  0  0
    9.3599    1.4109    0.9009 C   0  0  0  0  0  0  0  0  0  0  0  0
   10.7804    1.5717    1.3937 C   0  0  0  0  0  0  0  0  0  0  0  0
   11.2381    0.3878    2.1364 N   0  0  0  0  0  0  0  0  0  0  0  0
   12.6241    0.5787    2.5454 C   0  0  0  0  0  0  0  0  0  0  0  0
   11.1670   -0.8280    1.3281 C   0  0  0  0  0  0  0  0  0  0  0  0
    9.7474   -1.0527    0.8741 C   0  0  0  0  0  0  0  0  0  0  0  0
    3.8300   -5.7962   -1.8491 N   0  0  0  0  0  0  0  0  0  0  0  0
    2.5125   -5.5498   -1.7626 C   0  0  0  0  0  0  0  0  0  0  0  0
    1.9596   -4.2863   -1.6244 C   0  0  0  0  0  0  0  0  0  0  0  0
    0.5638   -4.0977   -1.4375 N   0  0  0  0  0  0  0  0  0  0  0  0
   -0.4213   -5.1234   -1.6912 C   0  0  0  0  0  0  0  0  0  0  0  0
    0.1476   -2.8513   -1.0119 C   0  0  0  0  0  0  0  0  0  0  0  0
   -0.7834   -2.6861   -0.2137 O   0  0  0  0  0  0  0  0  0  0  0  0
  1  2  1  0
  3  2  1  1
  3  4  1  0
  3 37  1  0
  4  5  1  0
  4 10  1  0
  5  6  1  0
  5  9  1  0
  6  7  1  0
  7  8  1  0
  8  9  1  0
 10 11  1  0
 10 34  2  0
 11 12  2  0
 12 13  1  0
 12 32  1  0
 13 14  1  0
 14 15  2  0
 14 19  1  0
 15 16  1  0
 16 17  2  0
 17 18  1  0
 17 22  1  0
 18 19  2  0
 19 20  1  0
 20 21  1  0
 22 23  2  0
 22 24  1  0
 24 25  1  0
 25 26  1  0
 25 31  1  0
 26 27  1  0
 27 28  1  0
 28 29  1  0
 28 30  1  0
 30 31  1  0
 32 33  2  0
 33 34  1  0
 34 35  1  0
 35 36  1  0
 35 37  1  0
 37 38  2  0
M  END
>  <DRUGBANK_ID>  (1) 
DB16107

>  <COMMON_NAME>  (1) 
BI 2536

>  <CAS_NUMBER>  (1) 
755038-02-9

>  <UNII>  (1) 
4LJG22T9C6

$$$$
