441
     RDKit          3D

 18 19  0  0  1  0  0  0  0  0999 V2000
    1.0006   -0.2696    1.2183 F   0  0  0  0  0  0  0  0  0  0  0  0
    1.4353   -0.8447   -0.8405 F   0  0  0  0  0  0  0  0  0  0  0  0
   -1.9550   -0.5622   -0.0807 O   0  0  0  0  0  0  0  0  0  0  0  0
    0.5678    2.0557   -0.0193 O   0  0  0  0  0  0  0  0  0  0  0  0
   -2.3105    3.0597   -0.6169 O   0  0  0  0  0  0  0  0  0  0  0  0
   -0.6864   -4.0572    0.6407 O   0  0  0  0  0  0  0  0  0  0  0  0
   -0.8077   -2.4341   -0.9756 N   0  0  0  0  0  0  0  0  0  0  0  0
   -0.5974   -4.7498   -1.5181 N   0  0  0  0  0  0  0  0  0  0  0  0
   -0.2146   -5.4008   -3.6837 N   0  0  0  0  0  0  0  0  0  0  0  0
   -0.1314    0.8998   -0.4855 C   0  0  1  0  0  0  0  0  0  0  0  0
    0.4515   -0.4270   -0.0145 C   0  0  0  0  0  0  0  0  0  0  0  0
   -1.5589    0.8153    0.0392 C   0  0  1  0  0  0  0  0  0  0  0  0
   -0.7681   -1.3794    0.0461 C   0  0  1  0  0  0  0  0  0  0  0  0
   -2.5485    1.6693   -0.7531 C   0  0  0  0  0  0  0  0  0  0  0  0
   -0.6280   -2.1028   -2.3018 C   0  0  0  0  0  0  0  0  0  0  0  0
   -0.6983   -3.7663   -0.5594 C   0  0  0  0  0  0  0  0  0  0  0  0
   -0.2204   -3.0149   -3.1795 C   0  0  0  0  0  0  0  0  0  0  0  0
   -0.3435   -4.4175   -2.7463 C   0  0  0  0  0  0  0  0  0  0  0  0
  1 11  1  0
  2 11  1  0
  3 12  1  0
  3 13  1  0
  5 14  1  0
  6 16  2  0
  7 15  1  0
  7 16  1  0
  8 16  1  0
  8 18  2  0
  9 18  1  0
 10  4  1  1
 10 11  1  0
 10 12  1  0
 11 13  1  0
 12 14  1  6
 13  7  1  6
 15 17  2  0
 17 18  1  0
M  END
>  <DRUGBANK_ID>  (1) 
DB00441

>  <SECONDARY_ACCESSION_NUMBERS>  (1) 
APRD00201

>  <COMMON_NAME>  (1) 
Gemcitabine

>  <CAS_NUMBER>  (1) 
95058-81-4

>  <UNII>  (1) 
B76N6SBZ8R

>  <SYNONYMS>  (1) 
2'-Deoxy-2',2'-difluorocytidine; 2',2'-Difluorodeoxycytidine; 4-amino-1-((2R,4R,5R)-3,3-difluoro-4-hydroxy-5-(hydroxymethyl)-tetrahydrofuran-2-yl)pyrimidin-2(1H)-one; Gemcitabin; Gemcitabina; Gemcitabine; Gemcitabinum

$$$$
