
     RDKit          3D

 14 15  0  0  0  0  0  0  0  0999 V2000
    1.0119   -0.0242   -0.1002 C   0  0  0  0  0  0  0  0  0  0  0  0
    1.7608    4.7902    0.0313 C   0  0  0  0  0  0  0  0  0  0  0  0
   -0.9636    2.7582   -1.5138 C   0  0  0  0  0  0  0  0  0  0  0  0
   -0.5721    1.5229   -1.1633 C   0  0  0  0  0  0  0  0  0  0  0  0
   -0.2047    3.9408   -1.1110 C   0  0  0  0  0  0  0  0  0  0  0  0
   -2.3167    1.3470   -2.6365 C   0  0  0  0  0  0  0  0  0  0  0  0
    1.3614    2.3806    0.0016 C   0  0  0  0  0  0  0  0  0  0  0  0
   -3.0720    0.8143   -3.5195 N   0  0  0  0  0  0  0  0  0  0  0  0
   -2.0536    2.6725   -2.3627 N   0  0  0  0  0  0  0  0  0  0  0  0
   -1.4784    0.6669   -1.7691 N   0  0  0  0  0  0  0  0  0  0  0  0
    0.5621    1.3156   -0.4294 N   0  0  0  0  0  0  0  0  0  0  0  0
    0.9382    3.6626   -0.3678 N   0  0  0  0  0  0  0  0  0  0  0  0
   -0.5783    5.0656   -1.4476 O   0  0  0  0  0  0  0  0  0  0  0  0
    2.3847    2.1913    0.6613 O   0  0  0  0  0  0  0  0  0  0  0  0
  4  3  2  0
  5  3  1  0
  8  6  2  0
  9  3  1  0
  9  6  1  0
 10  4  1  0
 10  6  1  0
 11  1  1  0
 11  4  1  0
 11  7  1  0
 12  2  1  0
 12  5  1  0
 12  7  1  0
 13  5  2  0
 14  7  2  0
M  END
>  <DRUGBANK_ID>  (1) 
DB01778

>  <SECONDARY_ACCESSION_NUMBERS>  (1) 
EXPT00087

>  <COMMON_NAME>  (1) 
8-Aminotheophylline

>  <CAS_NUMBER>  (1) 
19410-53-8

>  <SYNONYMS>  (1) 
8-Amino-1,3-dimethyl-3,7-dihydropurine-2,6-dione

$$$$
