
     RDKit          3D

  9  8  0  0  1  0  0  0  0  0999 V2000
    0.7568   -1.6819    1.8222 N   0  0  0  0  0  0  0  0  0  0  0  0
    0.3438   -1.3098    0.4508 C   0  0  2  0  0  0  0  0  0  0  0  0
    1.0804   -0.0442   -0.0058 C   0  0  0  0  0  0  0  0  0  0  0  0
    2.4788   -0.5231   -0.3202 C   0  0  0  0  0  0  0  0  0  0  0  0
    2.9033   -0.4283   -1.6018 N   0  0  0  0  0  0  0  0  0  0  0  0
    3.1787   -1.1005    0.5089 O   0  0  0  0  0  0  0  0  0  0  0  0
   -1.1773   -1.1768    0.4008 C   0  0  0  0  0  0  0  0  0  0  0  0
   -1.7843   -2.0445   -0.4445 O   0  0  0  0  0  0  0  0  0  0  0  0
   -1.8157   -0.3711    1.0715 O   0  0  0  0  0  0  0  0  0  0  0  0
  2  7  1  0
  2  3  1  0
  2  1  1  1
  3  4  1  0
  4  5  1  0
  4  6  2  0
  7  8  1  0
  7  9  2  0
M  END
>  <DRUGBANK_ID>  (1) 
DB03943

>  <SECONDARY_ACCESSION_NUMBERS>  (1) 
EXPT01274

>  <COMMON_NAME>  (1) 
D-Asparagine

>  <CAS_NUMBER>  (1) 
2058-58-4

>  <UNII>  (1) 
T6QV1010K6

$$$$
