
     RDKit          3D

 19 21  0  0  1  0  0  0  0  0999 V2000
    1.0717   -0.1715    0.0070 C   0  0  0  0  0  0  0  0  0  0  0  0
   -2.7333   -6.0908   -3.8622 C   0  0  0  0  0  0  0  0  0  0  0  0
    0.0890   -5.0464   -0.6908 C   0  0  0  0  0  0  0  0  0  0  0  0
    0.5486   -0.9329   -1.2167 C   0  0  2  0  0  0  0  0  0  0  0  0
   -1.4421   -2.0542   -2.0362 C   0  0  2  0  0  0  0  0  0  0  0  0
   -1.2204   -6.4033   -1.6948 C   0  0  0  0  0  0  0  0  0  0  0  0
   -0.9473   -0.7296   -1.4239 C   0  0  2  0  0  0  0  0  0  0  0  0
   -2.0116   -7.4748   -2.1517 C   0  0  0  0  0  0  0  0  0  0  0  0
   -1.2812   -5.2169   -2.4167 C   0  0  0  0  0  0  0  0  0  0  0  0
   -0.1877   -2.9523   -2.0684 C   0  0  2  0  0  0  0  0  0  0  0  0
   -2.0563   -1.8622   -3.3621 N   0  0  0  0  0  0  0  0  0  0  0  0
   -2.0479   -8.6980   -1.5179 N   0  0  0  0  0  0  0  0  0  0  0  0
   -2.7737   -7.2954   -3.2516 N   0  0  0  0  0  0  0  0  0  0  0  0
   -2.0165   -4.9985   -3.5176 N   0  0  0  0  0  0  0  0  0  0  0  0
   -0.3611   -6.2831   -0.6248 N   0  0  0  0  0  0  0  0  0  0  0  0
   -0.4506   -4.3483   -1.7396 N   0  0  0  0  0  0  0  0  0  0  0  0
    0.5826   -0.7456    1.2128 O   0  0  0  0  0  0  0  0  0  0  0  0
   -1.1826    0.3755   -2.3091 O   0  0  0  0  0  0  0  0  0  0  0  0
    0.7445   -2.3566   -1.1121 O   0  0  0  0  0  0  0  0  0  0  0  0
  4  1  1  1
  5 11  1  6
  7  4  1  0
  7  5  1  0
  7 18  1  6
  8  6  2  0
  9  6  1  0
 10  5  1  0
 10 16  1  1
 12  8  1  0
 13  2  2  0
 13  8  1  0
 14  2  1  0
 14  9  2  0
 15  3  2  0
 15  6  1  0
 16  3  1  0
 16  9  1  0
 17  1  1  0
 19  4  1  0
 19 10  1  0
M  END
>  <DRUGBANK_ID>  (1) 
DB04102

>  <SECONDARY_ACCESSION_NUMBERS>  (1) 
EXPT00101

>  <COMMON_NAME>  (1) 
2-Amino-Adenosine

$$$$
