
     RDKit          3D

 20 22  0  0  0  0  0  0  0  0999 V2000
   -0.9483    1.4428    0.0101 C   0  0  0  0  0  0  0  0  0  0  0  0
   -2.0564    0.6143    0.0022 N   0  0  0  0  0  0  0  0  0  0  0  0
   -0.8895   -1.4511    0.0042 N   0  0  0  0  0  0  0  0  0  0  0  0
    0.2290   -0.6741    0.0233 C   0  0  0  0  0  0  0  0  0  0  0  0
    0.2931    0.7071    0.0246 C   0  0  0  0  0  0  0  0  0  0  0  0
    1.5851    1.1679    0.0157 N   0  0  0  0  0  0  0  0  0  0  0  0
    2.2966    0.0722   -0.0005 C   0  0  0  0  0  0  0  0  0  0  0  0
    1.5452   -1.0765    0.0281 N   0  0  0  0  0  0  0  0  0  0  0  0
    2.0654   -2.4277   -0.0454 C   0  0  2  0  0  0  0  0  0  0  0  0
    2.9098   -2.7075    1.0989 O   0  0  0  0  0  0  0  0  0  0  0  0
    4.0518   -3.4824    0.6667 C   0  0  2  0  0  0  0  0  0  0  0  0
    5.3848   -2.7574    0.9460 C   0  0  0  0  0  0  0  0  0  0  0  0
    5.5396   -1.4559    0.4101 O   0  0  0  0  0  0  0  0  0  0  0  0
    3.8372   -3.7997   -0.8111 C   0  0  1  0  0  0  0  0  0  0  0  0
    3.2041   -5.0701   -0.9818 O   0  0  0  0  0  0  0  0  0  0  0  0
    2.9004   -2.7182   -1.2879 C   0  0  0  0  0  0  0  0  0  0  0  0
   -2.0074   -0.7673   -0.0013 C   0  0  0  0  0  0  0  0  0  0  0  0
   -3.2118   -1.3882   -0.0151 N   0  0  0  0  0  0  0  0  0  0  0  0
   -1.0539    2.6695   -0.0001 O   0  0  0  0  0  0  0  0  0  0  0  0
    3.6060    0.0870   -0.1179 O   0  0  0  0  0  0  0  0  0  0  0  0
  1  2  1  0
  1  5  1  0
  2 17  1  0
  3  4  1  0
  4  5  2  0
  4  8  1  0
  5  6  1  0
  6  7  2  0
  7  8  1  0
  7 20  1  0
  9  8  1  6
  9 10  1  0
  9 16  1  0
 10 11  1  0
 11 14  1  0
 11 12  1  6
 12 13  1  0
 14 15  1  1
 14 16  1  0
 17  3  2  0
 17 18  1  0
 19  1  2  0
M  END
>  <DRUGBANK_ID>  (1) 
DB02502

>  <SECONDARY_ACCESSION_NUMBERS>  (1) 
EXPT00333

>  <COMMON_NAME>  (1) 
8-hydroxy-2'-deoxyguanosine

>  <CAS_NUMBER>  (1) 
88847-89-6

>  <UNII>  (1) 
4RGB38T3IB

>  <SYNONYMS>  (1) 
8-Hydroxydeoxyguanosine; 8-OHdG; 8-Oxo-7,8-dihydro-2'-deoxyguanosine; 8-Oxo-dG; 8-Oxoguanosine

$$$$
