
     RDKit          3D

 39 40  0  0  0  0  0  0  0  0999 V2000
    1.3760   -0.2488   -0.0040 C   0  0  0  0  0  0  0  0  0  0  0  0
   -4.0315   -0.7858    2.4244 C   0  0  0  0  0  0  0  0  0  0  0  0
   -4.0122    2.2427    1.0783 C   0  0  0  0  0  0  0  0  0  0  0  0
   -4.8532    4.4787    2.2800 C   0  0  1  0  0  0  0  0  0  0  0  0
   -6.3066    4.5842    2.8106 C   0  0  0  0  0  0  0  0  0  0  0  0
   -6.5541    4.1714    4.2219 C   0  0  0  0  0  0  0  0  0  0  0  0
   -6.0029    5.2324    5.0855 C   0  0  0  0  0  0  0  0  0  0  0  0
    0.4469   -1.2953   -0.1303 C   0  0  0  0  0  0  0  0  0  0  0  0
   -3.8085    5.6362    2.5994 C   0  0  0  0  0  0  0  0  0  0  0  0
   -2.9159    7.8770    2.5533 C   0  0  0  0  0  0  0  0  0  0  0  0
   -3.6578    7.0800    0.3787 C   0  0  0  0  0  0  0  0  0  0  0  0
   -3.1458    6.0043   -0.5549 C   0  0  0  0  0  0  0  0  0  0  0  0
   -3.8671    4.6988   -0.4393 C   0  0  0  0  0  0  0  0  0  0  0  0
   -5.5799    4.6225   -0.6511 C   0  0  0  0  0  0  0  0  0  0  0  0
   -0.9098   -1.0786   -0.0851 C   0  0  0  0  0  0  0  0  0  0  0  0
   -6.3055    5.9142   -0.1745 C   0  0  0  0  0  0  0  0  0  0  0  0
   -7.8170    5.9421   -0.1356 C   0  0  0  0  0  0  0  0  0  0  0  0
   -8.5209    4.7390    0.4439 C   0  0  0  0  0  0  0  0  0  0  0  0
   -7.9601    3.4590   -0.1290 C   0  0  0  0  0  0  0  0  0  0  0  0
   -6.4501    3.3470   -0.1520 C   0  0  0  0  0  0  0  0  0  0  0  0
   -1.3636    0.2208   -0.0166 C   0  0  0  0  0  0  0  0  0  0  0  0
   -0.4554    1.2952    0.0162 C   0  0  0  0  0  0  0  0  0  0  0  0
    0.9204    1.0627   -0.0012 C   0  0  0  0  0  0  0  0  0  0  0  0
   -2.8359    0.4499   -0.0219 C   0  0  0  0  0  0  0  0  0  0  0  0
   -3.1564    0.4500    2.4702 C   0  0  0  0  0  0  0  0  0  0  0  0
   -4.2995    3.0523    2.1824 N   0  0  0  0  0  0  0  0  0  0  0  0
   -3.6237    6.8186    1.8497 N   0  0  0  0  0  0  0  0  0  0  0  0
   -3.2530    1.1414    1.2259 N   0  0  0  0  0  0  0  0  0  0  0  0
   -3.3416   -1.9157    2.6958 O   0  0  0  0  0  0  0  0  0  0  0  0
   -5.2189   -0.7855    2.1460 O   0  0  0  0  0  0  0  0  0  0  0  0
   -4.2852    2.4145   -0.1024 O   0  0  0  0  0  0  0  0  0  0  0  0
    2.2115   -2.5327    1.2787 O   0  0  0  0  0  0  0  0  0  0  0  0
   -6.5795    6.3038    5.3572 O   0  0  0  0  0  0  0  0  0  0  0  0
   -4.7146    5.0173    5.3308 O   0  0  0  0  0  0  0  0  0  0  0  0
   -3.1224    5.5013    3.6239 O   0  0  0  0  0  0  0  0  0  0  0  0
    2.9953   -2.3957   -1.2433 O   0  0  0  0  0  0  0  0  0  0  0  0
    3.8985   -3.7175    0.4582 O   0  0  0  0  0  0  0  0  0  0  0  0
    2.7341   -0.4703    0.1904 O   0  0  0  0  0  0  0  0  0  0  0  0
    3.3163   -2.0939    0.3243 P   0  0  0  0  0  0  0  0  0  0  0  0
  1  8  2  0
  1 23  1  0
  1 38  1  0
  2 25  1  0
  2 29  1  0
  2 30  2  0
  3 26  1  0
  3 28  1  0
  3 31  2  0
  4  5  1  1
  4  9  1  0
  4 26  1  0
  5  6  1  0
  6  7  1  0
  7 33  2  0
  7 34  1  0
  8 15  1  0
  9 27  1  0
  9 35  2  0
 10 27  1  0
 11 12  1  0
 11 27  1  0
 12 13  1  0
 13 14  1  0
 14 16  1  0
 14 20  1  0
 15 21  2  0
 16 17  1  0
 17 18  1  0
 18 19  1  0
 19 20  1  0
 21 22  1  0
 21 24  1  0
 22 23  2  0
 24 28  1  0
 25 28  1  0
 32 39  2  0
 36 39  1  0
 37 39  1  0
 38 39  1  0
M  END
>  <DRUGBANK_ID>  (1) 
DB01773

>  <SECONDARY_ACCESSION_NUMBERS>  (1) 
EXPT03200

>  <COMMON_NAME>  (1) 
4-[3-carboxymethyl-3-(4-phosphonooxy-benzyl)-ureido]-4-[(3-cyclohexyl-propyl)-methyl-carbamoyl]butyric acid

$$$$
