TCO
     RDKit          3D

 17 17  0  0  0  0  0  0  0  0999 V2000
   -0.4711    1.6168   -1.0467 N   0  0  0  0  0  0  0  0  0  0  0  0
    0.3720    1.2071    0.0672 C   0  0  2  0  0  0  0  0  0  0  0  0
    1.1507    0.0083   -0.5290 C   0  0  0  0  0  0  0  0  0  0  0  0
    1.3322   -1.1106   -0.0639 O   0  0  0  0  0  0  0  0  0  0  0  0
   -0.0604    2.1161    2.4188 C   0  0  0  0  0  0  0  0  0  0  0  0
    1.3261    1.8086    2.9788 C   0  0  0  0  0  0  0  0  0  0  0  0
    1.3691    0.4185    3.6116 C   0  0  0  0  0  0  0  0  0  0  0  0
    0.9212   -0.6378    2.6224 C   0  0  0  0  0  0  0  0  0  0  0  0
   -0.4405   -0.3235    1.9870 C   0  0  0  0  0  0  0  0  0  0  0  0
   -0.4833    1.0717    1.3583 C   0  0  0  0  0  0  0  0  0  0  0  0
   -0.5898    2.8495   -1.6136 C   0  0  0  0  0  0  0  0  0  0  0  0
   -1.3051    2.9820   -2.5895 O   0  0  0  0  0  0  0  0  0  0  0  0
    0.1386    3.8294   -1.0035 O   0  0  0  0  0  0  0  0  0  0  0  0
    0.6344    5.2134   -2.9795 C   0  0  0  0  0  0  0  0  0  0  0  0
    0.0794    5.1807   -1.5504 C   0  0  0  0  0  0  0  0  0  0  0  0
   -1.3470    5.7408   -1.4899 C   0  0  0  0  0  0  0  0  0  0  0  0
    0.9729    6.0916   -0.6837 C   0  0  0  0  0  0  0  0  0  0  0  0
  1 11  1  0
  2 10  1  0
  2  3  1  6
  2  1  1  0
  3  4  2  0
  5  6  1  0
  5 10  1  0
  6  7  1  0
  7  8  1  0
  8  9  1  0
  9 10  1  0
 11 12  2  0
 11 13  1  0
 13 15  1  0
 14 15  1  0
 15 16  1  0
 15 17  1  0
M  END
>  <DRUGBANK_ID>  (1) 
DB04523

>  <SECONDARY_ACCESSION_NUMBERS>  (1) 
EXPT03026

>  <COMMON_NAME>  (1) 
Tert-Butyl(1s)-1-Cyclohexyl-2-Oxoethylcarbamate

$$$$
