FC1
     RDKit          3D

 18 19  0  0  0  0  0  0  0  0999 V2000
    0.9779    0.0842   -0.1914 O   0  0  0  0  0  0  0  0  0  0  0  0
   -1.4031   -3.2182   -2.2523 S   0  0  0  0  0  0  0  0  0  0  0  0
   -2.9442   -1.0761   -2.7057 C   0  0  0  0  0  0  0  0  0  0  0  0
   -2.5400    1.1780   -2.0004 C   0  0  0  0  0  0  0  0  0  0  0  0
    0.7041   -2.2410   -0.7299 C   0  0  0  0  0  0  0  0  0  0  0  0
   -0.8919   -0.5474   -1.5345 C   0  0  0  0  0  0  0  0  0  0  0  0
    0.3419   -0.9551   -0.8419 C   0  0  0  0  0  0  0  0  0  0  0  0
   -1.7264   -1.4826   -2.1585 C   0  0  0  0  0  0  0  0  0  0  0  0
   -1.2722    0.8066   -1.5585 C   0  0  0  0  0  0  0  0  0  0  0  0
    0.0148   -3.4284   -1.2794 C   0  0  0  0  0  0  0  0  0  0  0  0
    2.3982   -0.2145    4.2138 C   0  0  0  0  0  0  0  0  0  0  0  0
    2.4160   -1.4269    2.2171 C   0  0  0  0  0  0  0  0  0  0  0  0
    2.8854   -0.1915    2.8328 N   0  0  0  0  0  0  0  0  0  0  0  0
    2.3904    0.2056   -0.3400 C   0  0  0  0  0  0  0  0  0  0  0  0
   -3.4052    0.2152   -2.4994 C   0  0  0  0  0  0  0  0  0  0  0  0
    0.4565   -4.5410   -1.0553 O   0  0  0  0  0  0  0  0  0  0  0  0
    2.9055    1.2151    0.6920 C   0  0  0  0  0  0  0  0  0  0  0  0
    2.4072    1.0256    2.1422 C   0  0  0  0  0  0  0  0  0  0  0  0
  1  7  1  0
  1 14  1  0
  2  8  1  0
  2 10  1  0
  3  8  2  0
  3 15  1  0
  4  9  1  0
  4 15  2  0
  5  7  2  0
  5 10  1  0
  6  7  1  0
  6  8  1  0
  6  9  2  0
 10 16  2  0
 11 13  1  0
 12 13  1  0
 13 18  1  0
 14 17  1  0
 17 18  1  0
M  END
>  <DRUGBANK_ID>  (1) 
DB02462

>  <SECONDARY_ACCESSION_NUMBERS>  (1) 
EXPT01399

>  <COMMON_NAME>  (1) 
Thiocoumarin

>  <UNII>  (1) 
CM773J3THB

$$$$
