665
     RDKit          3D

 22 23  0  0  0  0  0  0  0  0999 V2000
    0.9706   -0.2835    0.2689 F   0  0  0  0  0  0  0  0  0  0  0  0
    2.9129   -0.7663    1.0232 F   0  0  0  0  0  0  0  0  0  0  0  0
    2.6184   -0.6556   -1.1250 F   0  0  0  0  0  0  0  0  0  0  0  0
    7.2082    1.8182   -0.2746 O   0  0  0  0  0  0  0  0  0  0  0  0
    5.5626    4.3009    3.1176 O   0  0  0  0  0  0  0  0  0  0  0  0
   -0.1692    3.4140   -0.8193 O   0  0  0  0  0  0  0  0  0  0  0  0
    0.1681    1.3019   -1.2435 O   0  0  0  0  0  0  0  0  0  0  0  0
    5.9032    3.1910    1.0929 N   0  0  0  0  0  0  0  0  0  0  0  0
    7.4922    4.5275    1.8977 N   0  0  0  0  0  0  0  0  0  0  0  0
    0.5197    2.3843   -0.7682 N   0  0  0  0  0  0  0  0  0  0  0  0
    8.2350    3.6412    1.0334 C   0  0  0  0  0  0  0  0  0  0  0  0
    7.0721    2.7385    0.5214 C   0  0  0  0  0  0  0  0  0  0  0  0
    9.2818    2.8597    1.8230 C   0  0  0  0  0  0  0  0  0  0  0  0
    8.9049    4.3938   -0.1085 C   0  0  0  0  0  0  0  0  0  0  0  0
    6.2192    4.0456    2.1123 C   0  0  0  0  0  0  0  0  0  0  0  0
    4.5775    2.9327    0.6599 C   0  0  0  0  0  0  0  0  0  0  0  0
    4.0858    1.6443    0.4424 C   0  0  0  0  0  0  0  0  0  0  0  0
    3.7045    4.0068    0.4283 C   0  0  0  0  0  0  0  0  0  0  0  0
    2.7200    1.3990    0.0787 C   0  0  0  0  0  0  0  0  0  0  0  0
    1.8804    2.4986   -0.1839 C   0  0  0  0  0  0  0  0  0  0  0  0
    2.3733    3.7977    0.0294 C   0  0  0  0  0  0  0  0  0  0  0  0
    2.2862   -0.0479    0.0428 C   0  0  0  0  0  0  0  0  0  0  0  0
  1 22  1  0
  2 22  1  0
  3 22  1  0
  4 12  2  0
  5 15  2  0
  6 10  1  0
  7 10  2  0
  8 12  1  0
  8 15  1  0
  8 16  1  0
  9 11  1  0
  9 15  1  0
 10 20  1  0
 11 12  1  0
 11 13  1  0
 11 14  1  0
 16 17  2  0
 16 18  1  0
 17 19  1  0
 18 21  2  0
 19 20  2  0
 19 22  1  0
 20 21  1  0
M  CHG  2   6  -1  10   1
M  END
>  <DRUGBANK_ID>  (1) 
DB00665

>  <SECONDARY_ACCESSION_NUMBERS>  (1) 
APRD00150

>  <COMMON_NAME>  (1) 
Nilutamide

>  <CAS_NUMBER>  (1) 
63612-50-0

>  <UNII>  (1) 
51G6I8B902

>  <SYNONYMS>  (1) 
5,5-Dimethyl-3-(α,α,α-trifluoro-4-nitro-m-tolyl)hydantoin; Nilutamida; Nilutamide; Nilutamidum

$$$$
