
     RDKit          3D

 21 24  0  0  0  0  0  0  0  0999 V2000
   -0.2411    2.1198   -0.0793 S   0  0  0  0  0  0  0  0  0  0  0  0
    4.5178    1.0768   -0.0629 O   0  0  0  0  0  0  0  0  0  0  0  0
    2.2888    1.4065   -0.2899 N   0  0  0  0  0  0  0  0  0  0  0  0
    2.5310   -1.6773    0.0185 N   0  0  0  0  0  0  0  0  0  0  0  0
    0.5173   -0.3410   -0.2422 C   0  0  0  0  0  0  0  0  0  0  0  0
   -0.9156   -0.3485   -0.1257 C   0  0  0  0  0  0  0  0  0  0  0  0
    0.9938    0.9501   -0.2069 C   0  0  0  0  0  0  0  0  0  0  0  0
    1.3518   -1.5201   -0.4701 C   0  0  0  0  0  0  0  0  0  0  0  0
   -1.4536    0.9153    0.0133 C   0  0  0  0  0  0  0  0  0  0  0  0
    0.8021   -2.5709   -1.3587 C   0  0  0  0  0  0  0  0  0  0  0  0
   -1.7770   -1.5692   -0.1716 C   0  0  0  0  0  0  0  0  0  0  0  0
   -2.9249    1.1854    0.2216 C   0  0  0  0  0  0  0  0  0  0  0  0
    3.3676    0.6513    0.1070 C   0  0  0  0  0  0  0  0  0  0  0  0
    3.0904   -0.6364    0.8804 C   0  0  0  0  0  0  0  0  0  0  0  0
   -3.1333   -1.3543    0.4669 C   0  0  0  0  0  0  0  0  0  0  0  0
    0.4852   -2.2295   -2.6775 C   0  0  0  0  0  0  0  0  0  0  0  0
    0.5343   -3.8542   -0.8677 C   0  0  0  0  0  0  0  0  0  0  0  0
   -3.7713   -0.0763   -0.0750 C   0  0  0  0  0  0  0  0  0  0  0  0
   -0.0926   -3.1803   -3.5138 C   0  0  0  0  0  0  0  0  0  0  0  0
   -0.0193   -4.8096   -1.7209 C   0  0  0  0  0  0  0  0  0  0  0  0
   -0.3434   -4.4676   -3.0362 C   0  0  0  0  0  0  0  0  0  0  0  0
  1  7  1  0
  1  9  1  0
  2 13  2  0
  3  7  1  0
  3 13  1  0
  4  8  2  0
  4 14  1  0
  5  6  1  0
  5  7  2  0
  5  8  1  0
  6  9  2  0
  6 11  1  0
  8 10  1  0
  9 12  1  0
 10 16  2  0
 10 17  1  0
 11 15  1  0
 12 18  1  0
 13 14  1  0
 15 18  1  0
 16 19  1  0
 17 20  2  0
 19 21  2  0
 20 21  1  0
M  END
>  <DRUGBANK_ID>  (1) 
DB14719

>  <COMMON_NAME>  (1) 
Bentazepam

>  <CAS_NUMBER>  (1) 
29462-18-8

>  <UNII>  (1) 
66JKK43S1Z

>  <SYNONYMS>  (1) 
Bentazepam; Bentazepamum; Thiadipone; Tiadipone

$$$$
