
     RDKit          3D

 33 36  0  0  0  0  0  0  0  0999 V2000
   -3.2584    0.3047   -1.6203 C   0  0  0  0  0  0  0  0  0  0  0  0
   -2.0792   -0.8550   -1.2405 C   0  0  0  0  0  0  0  0  0  0  0  0
   -2.3156   -1.9285   -0.0821 C   0  0  0  0  0  0  0  0  0  0  0  0
   -1.6385   -3.0869    0.4441 C   0  0  0  0  0  0  0  0  0  0  0  0
   -2.6712   -2.3732    2.4714 C   0  0  0  0  0  0  0  0  0  0  0  0
   -3.7708   -1.5528    1.8801 C   0  0  0  0  0  0  0  0  0  0  0  0
   -7.3893    0.0280   -0.2144 C   0  0  0  0  0  0  0  0  0  0  0  0
   -7.0413    3.0463   -1.3359 C   0  0  0  0  0  0  0  0  0  0  0  0
   -5.7891    2.1490   -1.0743 C   0  0  0  0  0  0  0  0  0  0  0  0
   -4.9129   -0.6872   -0.1373 C   0  0  1  0  0  0  0  0  0  0  0  0
   -5.8327    0.8357   -1.9193 C   0  0  1  0  0  0  0  0  0  0  0  0
   -4.7452   -0.1504   -1.5147 C   0  0  1  0  0  0  0  0  0  0  0  0
   -7.3515    0.6193   -1.9067 C   0  0  2  0  0  0  0  0  0  0  0  0
   -7.4431    2.3722   -2.6499 C   0  0  1  0  0  0  0  0  0  0  0  0
   -2.7264   -3.4719    1.4747 C   0  0  0  0  0  0  0  0  0  0  0  0
   -3.5702   -4.3161    1.3060 O   0  0  0  0  0  0  0  0  0  0  0  0
   -6.3916   -1.2153    0.0430 C   0  0  1  0  0  0  0  0  0  0  0  0
   -7.1811   -2.3541    0.4450 O   0  0  0  0  0  0  0  0  0  0  0  0
   -8.0467    3.6149   -3.6411 C   0  0  0  0  0  0  0  0  0  0  0  0
   -7.4428    4.7218   -3.6606 O   0  0  0  0  0  0  0  0  0  0  0  0
   -9.2487    3.5761   -4.5414 C   0  0  0  0  0  0  0  0  0  0  0  0
  -10.0670    4.7704   -4.3930 O   0  0  0  0  0  0  0  0  0  0  0  0
   -6.1454    2.7323   -3.5726 O   0  0  0  0  0  0  0  0  0  0  0  0
   -8.1063   -0.7116   -2.4125 C   0  0  0  0  0  0  0  0  0  0  0  0
   -3.8148   -1.7149    0.2548 C   0  0  1  0  0  0  0  0  0  0  0  0
   -4.1552   -2.8530   -0.7926 C   0  0  0  0  0  0  0  0  0  0  0  0
  -10.5121    5.2897   -3.2138 C   0  0  0  0  0  0  0  0  0  0  0  0
  -10.0247    4.6558   -1.9206 C   0  0  0  0  0  0  0  0  0  0  0  0
   -9.1523    5.5429   -1.0338 C   0  0  0  0  0  0  0  0  0  0  0  0
   -9.9654    6.7100   -0.5017 C   0  0  0  0  0  0  0  0  0  0  0  0
  -10.1475    6.6869    0.8487 O   0  0  0  0  0  0  0  0  0  0  0  0
  -10.4020    7.5784   -1.1788 O   0  0  0  0  0  0  0  0  0  0  0  0
  -11.3502    6.1625   -3.2120 O   0  0  0  0  0  0  0  0  0  0  0  0
  1  2  1  0
  2  3  1  0
  3  4  2  0
  3 25  1  0
  4 15  1  0
  5  6  1  0
  6 25  1  0
  7 13  1  0
  8  9  1  0
 11  9  1  1
 10 17  1  6
 12  1  1  1
 12 10  1  0
 12 11  1  0
 13 14  1  0
 13 11  1  0
 13 24  1  6
 14  8  1  0
 14 19  1  0
 14 23  1  6
 15  5  1  0
 15 16  2  0
 17  7  1  0
 17 18  1  1
 19 21  1  0
 19 20  2  0
 21 22  1  0
 22 27  1  0
 25 10  1  0
 25 26  1  1
 27 28  1  0
 27 33  2  0
 28 29  1  0
 29 30  1  0
 30 31  1  0
 30 32  2  0
M  END
>  <DRUGBANK_ID>  (1) 
DB14545

>  <COMMON_NAME>  (1) 
Hydrocortisone succinate

>  <CAS_NUMBER>  (1) 
2203-97-6

>  <UNII>  (1) 
IHV1VP592V

>  <SYNONYMS>  (1) 
Cortisol 21-(hydrogen succinate); Cortisol succinate; Hydrocortisone hemisuccinate anhydrous; Hydrocortisone hydrogen succinate; Hydrocortisone succinate; Hydroxycortisone succinate

$$$$
