
     RDKit          3D

 32 34  0  0  0  0  0  0  0  0999 V2000
    3.6031   -2.1379   -3.0928 C   0  0  0  0  0  0  0  0  0  0  0  0
    5.5670    0.1223   -6.0557 C   0  0  0  0  0  0  0  0  0  0  0  0
    2.7413   -1.6308    0.2958 C   0  0  0  0  0  0  0  0  0  0  0  0
    3.6171   -2.4783    2.1109 C   0  0  0  0  0  0  0  0  0  0  0  0
    4.5192   -2.0252   -0.4563 C   0  0  0  0  0  0  0  0  0  0  0  0
    5.1750   -2.7241    1.4494 C   0  0  0  0  0  0  0  0  0  0  0  0
    0.9568   -2.5585   -2.3925 C   0  0  0  0  0  0  0  0  0  0  0  0
    2.5535   -4.3294   -1.5350 C   0  0  0  0  0  0  0  0  0  0  0  0
    5.8135    1.3374   -3.4290 C   0  0  0  0  0  0  0  0  0  0  0  0
    6.0871   -1.1911   -3.6419 C   0  0  0  0  0  0  0  0  0  0  0  0
    1.1622   -3.8657   -1.5452 C   0  0  1  0  0  0  0  0  0  0  0  0
    5.8154   -0.0471   -2.7329 C   0  0  1  0  0  0  0  0  0  0  0  0
    3.7487    0.0178   -0.7468 C   0  0  0  0  0  0  0  0  0  0  0  0
    8.1156    0.1649   -6.0386 C   0  0  0  0  0  0  0  0  0  0  0  0
    1.2525   -3.2328    1.1086 C   0  0  0  0  0  0  0  0  0  0  0  0
    6.6831   -1.1004   -0.1786 C   0  0  0  0  0  0  0  0  0  0  0  0
    3.0061   -1.4511   -1.8506 C   0  0  1  0  0  0  0  0  0  0  0  0
    6.8556    0.2312   -5.2123 C   0  0  1  0  0  0  0  0  0  0  0  0
    2.4925   -2.6261    1.1925 N   0  0  0  0  0  0  0  0  0  0  0  0
    5.6159   -1.8769    0.3321 N   0  0  0  0  0  0  0  0  0  0  0  0
    4.0232    0.0786    0.5342 O   0  0  0  0  0  0  0  0  0  0  0  0
    4.6690    0.9883   -1.0635 O   0  0  0  0  0  0  0  0  0  0  0  0
    9.0457    0.9548   -5.9975 O   0  0  0  0  0  0  0  0  0  0  0  0
    8.1870   -0.9583   -6.7991 O   0  0  0  0  0  0  0  0  0  0  0  0
    0.5640   -3.4180    2.1385 O   0  0  0  0  0  0  0  0  0  0  0  0
    7.6707   -0.8893    0.5767 O   0  0  0  0  0  0  0  0  0  0  0  0
    1.6378   -1.3137   -2.1929 O   0  0  0  0  0  0  0  0  0  0  0  0
    3.0213   -3.0764   -1.1612 O   0  0  0  0  0  0  0  0  0  0  0  0
    6.8517    1.3866   -4.3780 O   0  0  0  0  0  0  0  0  0  0  0  0
    7.1420   -0.9512   -4.4684 O   0  0  0  0  0  0  0  0  0  0  0  0
    0.6903   -3.6639   -0.1138 O   0  0  0  0  0  0  0  0  0  0  0  0
    6.6710   -0.3148   -1.4228 O   0  0  0  0  0  0  0  0  0  0  0  0
  5  3  1  0
  6  4  1  0
 11  7  1  0
 11  8  1  0
 11 31  1  1
 12  9  1  0
 12 10  1  0
 12 32  1  1
 17 13  1  0
 17  1  1  6
 18 14  1  0
 18  2  1  6
 19  3  1  0
 19  4  1  0
 19 15  1  0
 20  5  1  0
 20  6  1  0
 20 16  1  0
 21 13  2  0
 22 13  1  0
 23 14  2  0
 24 14  1  0
 25 15  2  0
 26 16  2  0
 27  7  1  0
 27 17  1  0
 28  8  1  0
 28 17  1  0
 29  9  1  0
 29 18  1  0
 30 10  1  0
 30 18  1  0
 31 15  1  0
 32 16  1  0
M  END
>  <DRUGBANK_ID>  (1) 
DB07580

>  <COMMON_NAME>  (1) 
BIS-1,2-{[(Z)-2CARBOXY-2-METHYL-1,3-DIOXANE]-5-YLOXYCARBONYL}-PIPERAZINE

$$$$
