
     RDKit          3D

 19 20  0  0  0  0  0  0  0  0999 V2000
    0.9774   -0.7245   -0.0683 C   0  0  0  0  0  0  0  0  0  0  0  0
    1.3657   -2.3505    0.0156 C   0  0  0  0  0  0  0  0  0  0  0  0
    1.5860    0.4848   -0.0359 C   0  0  0  0  0  0  0  0  0  0  0  0
   -0.3334   -0.4252   -0.0430 C   0  0  0  0  0  0  0  0  0  0  0  0
    0.4007   -3.4668    0.0227 O   0  0  0  0  0  0  0  0  0  0  0  0
    2.5941   -2.6486    0.0920 O   0  0  0  0  0  0  0  0  0  0  0  0
    0.8284    1.7693   -0.0004 C   0  0  0  0  0  0  0  0  0  0  0  0
    2.9394    0.4740   -0.0377 O   0  0  0  0  0  0  0  0  0  0  0  0
   -1.1531    0.7192    0.2427 C   0  0  0  0  0  0  0  0  0  0  0  0
   -1.1870   -3.7962   -0.0208 C   0  0  0  0  0  0  0  0  0  0  0  0
   -0.5602    1.8935    0.1258 C   0  0  0  0  0  0  0  0  0  0  0  0
   -1.8147   -3.5358   -1.4536 C   0  0  0  0  0  0  0  0  0  0  0  0
   -2.0516   -3.2606    1.2053 C   0  0  0  0  0  0  0  0  0  0  0  0
   -1.6242   -2.0986   -1.8676 C   0  0  0  0  0  0  0  0  0  0  0  0
   -1.9915   -1.7687    1.2468 C   0  0  0  0  0  0  0  0  0  0  0  0
   -2.4929   -1.4289   -0.5440 C   0  0  0  0  0  0  0  0  0  0  0  0
   -0.1017   -1.9646   -2.3696 C   0  0  0  0  0  0  0  0  0  0  0  0
   -2.1880   -1.4227   -3.1273 C   0  0  0  0  0  0  0  0  0  0  0  0
   -0.5040   -1.6528    2.1296 C   0  0  0  0  0  0  0  0  0  0  0  0
  1  2  1  0
  1  3  2  0
  1  4  1  0
  2  5  1  0
  2  6  2  0
  3  7  1  0
  3  8  1  0
  4  9  2  0
  5 10  1  0
  7 11  2  0
  9 11  1  0
 10 12  1  0
 10 13  1  0
 12 14  1  0
 13 15  1  0
 14 16  1  0
 14 17  1  0
 14 18  1  0
 15 19  1  0
 15 16  1  0
M  END
>  <DRUGBANK_ID>  (1) 
DB11064

>  <COMMON_NAME>  (1) 
Homosalate

>  <CAS_NUMBER>  (1) 
118-56-9

>  <UNII>  (1) 
V06SV4M95S

>  <SYNONYMS>  (1) 
3,3,5-Trimethylcyclohexyl 2-hydroxybenzoate; Homosalate; Homosalato; Homosalatum

$$$$
