706
     RDKit          3D

 28 29  0  0  1  0  0  0  0  0999 V2000
    9.0777    1.4563   -4.7962 S   0  0  0  0  0  0  0  0  0  0  0  0
    2.7682   -1.2470    1.4634 O   0  0  0  0  0  0  0  0  0  0  0  0
    9.6698   -1.4659   -6.2878 O   0  0  0  0  0  0  0  0  0  0  0  0
   10.5373    1.6263   -4.7985 O   0  0  0  0  0  0  0  0  0  0  0  0
    8.2572    1.8074   -5.9066 O   0  0  0  0  0  0  0  0  0  0  0  0
    5.3210   -0.8503   -0.1119 O   0  0  0  0  0  0  0  0  0  0  0  0
    5.4693   -3.8377   -0.3389 N   0  0  0  0  0  0  0  0  0  0  0  0
    8.5995    2.5125   -3.5865 N   0  0  0  0  0  0  0  0  0  0  0  0
    6.4976   -3.3285   -1.2817 C   0  0  1  0  0  0  0  0  0  0  0  0
    7.5070   -2.0261   -1.1259 C   0  0  0  0  0  0  0  0  0  0  0  0
    8.0479   -1.6921   -2.4940 C   0  0  0  0  0  0  0  0  0  0  0  0
    7.3742   -4.5131   -0.8530 C   0  0  0  0  0  0  0  0  0  0  0  0
    3.6941   -3.8558   -0.3956 C   0  0  0  0  0  0  0  0  0  0  0  0
    8.2093   -0.3902   -2.9892 C   0  0  0  0  0  0  0  0  0  0  0  0
    8.7477   -0.2021   -4.2761 C   0  0  0  0  0  0  0  0  0  0  0  0
    8.3635   -2.7647   -3.3070 C   0  0  0  0  0  0  0  0  0  0  0  0
    2.5071   -2.8593    0.8044 C   0  0  0  0  0  0  0  0  0  0  0  0
    9.1309   -1.3264   -5.0438 C   0  0  0  0  0  0  0  0  0  0  0  0
    8.9562   -2.5992   -4.5198 C   0  0  0  0  0  0  0  0  0  0  0  0
    3.9676   -0.4767    1.8214 C   0  0  0  0  0  0  0  0  0  0  0  0
    5.2192   -0.4284    1.1330 C   0  0  0  0  0  0  0  0  0  0  0  0
    4.0076    0.3940    2.8711 C   0  0  0  0  0  0  0  0  0  0  0  0
    9.7383   -0.3340   -7.1134 C   0  0  0  0  0  0  0  0  0  0  0  0
    6.4487    0.1409    1.4687 C   0  0  0  0  0  0  0  0  0  0  0  0
    5.1762    1.2134    3.0986 C   0  0  0  0  0  0  0  0  0  0  0  0
    6.4079    1.0519    2.4514 C   0  0  0  0  0  0  0  0  0  0  0  0
    4.4302   -1.8528   -0.0135 C   0  0  0  0  0  0  0  0  0  0  0  0
    4.6143   -2.9908    1.6141 C   0  0  0  0  0  0  0  0  0  0  0  0
  1  4  2  0
  1  5  2  0
  1  8  1  0
  1 15  1  0
  2 17  1  0
  2 20  1  0
  3 18  1  0
  3 23  1  0
  6 21  1  0
  6 27  1  0
  7 13  1  0
  9 12  1  1
  9 10  1  0
  9  7  1  0
 10 11  1  0
 11 14  2  0
 11 16  1  0
 13 17  1  0
 14 15  1  0
 15 18  2  0
 16 19  2  0
 18 19  1  0
 20 21  2  0
 20 22  1  0
 21 24  1  0
 22 25  2  0
 24 26  2  0
 25 26  1  0
 27 28  1  0
M  END
>  <DRUGBANK_ID>  (1) 
DB00706

>  <SECONDARY_ACCESSION_NUMBERS>  (1) 
APRD00036

>  <COMMON_NAME>  (1) 
Tamsulosin

>  <CAS_NUMBER>  (1) 
106133-20-4

>  <UNII>  (1) 
G3P28OML5I

>  <SYNONYMS>  (1) 
(−)-tamsulosin; (R)-(−)-tamsulosin; (R)-5-(2-((2-(2-ethoxyphenoxy)ethyl)amino)propyl)-2-methoxybenzenesulfonamide; Tamsulosin; Tamsulosina; Tamsulosine; Tamsulosinum

$$$$
