
     RDKit          3D

 11 11  0  0  0  0  0  0  0  0999 V2000
    0.6754    0.0779   -0.0599 O   0  0  0  0  0  0  0  0  0  0  0  0
    1.8518    0.2604    0.1857 C   0  0  0  0  0  0  0  0  0  0  0  0
    2.6059    1.5470   -0.1387 C   0  0  0  0  0  0  0  0  0  0  0  0
    3.7838    1.7880    0.8020 C   0  0  0  0  0  0  0  0  0  0  0  0
    4.8027    0.6339    0.9895 C   0  0  0  0  0  0  0  0  0  0  0  0
    5.6979    0.1885   -0.2114 C   0  0  0  0  0  0  0  0  0  0  0  0
    5.2613    0.6468   -1.6068 C   0  0  0  0  0  0  0  0  0  0  0  0
    4.0938   -0.1869   -2.1611 C   0  0  0  0  0  0  0  0  0  0  0  0
    4.2677   -1.6294   -2.1302 N   0  0  0  0  0  0  0  0  0  0  0  0
    4.6429   -2.0728   -0.7807 C   0  0  0  0  0  0  0  0  0  0  0  0
    5.8872   -1.3442   -0.2713 C   0  0  0  0  0  0  0  0  0  0  0  0
  1  2  2  0
  2  3  1  0
  3  4  1  0
  4  5  1  0
  5  6  1  0
  6  7  1  0
  6 11  1  0
  7  8  1  0
  8  9  1  0
  9 10  1  0
 10 11  1  0
M  END
>  <DRUGBANK_ID>  (1) 
DB04654

>  <COMMON_NAME>  (1) 
4-PIPERIDIN-4-YLBUTANAL

$$$$
