
     RDKit          3D

 28 31  0  0  1  0  0  0  0  0999 V2000
    1.2270    0.1432   -0.2875 C   0  0  0  0  0  0  0  0  0  0  0  0
    0.6150    1.4843   -0.3258 N   0  0  0  0  0  0  0  0  0  0  0  0
    1.4135    2.5840   -0.8621 C   0  0  0  0  0  0  0  0  0  0  0  0
    0.7165    3.8400   -0.3900 C   0  0  0  0  0  0  0  0  0  0  0  0
   -0.5148    3.2999    0.3237 C   0  0  0  0  0  0  0  0  0  0  0  0
   -0.0375    1.9988    0.9262 C   0  0  1  0  0  0  0  0  0  0  0  0
   -0.7403    0.6381    1.2914 C   0  0  0  0  0  0  0  0  0  0  0  0
    0.8890    2.5077    2.0381 C   0  0  0  0  0  0  0  0  0  0  0  0
    1.2701    3.1067    3.7683 C   0  0  0  0  0  0  0  0  0  0  0  0
    2.7600    2.4992    5.0904 S   0  0  0  0  0  0  0  0  0  0  0  0
    3.9511    3.3053    4.8354 O   0  0  0  0  0  0  0  0  0  0  0  0
    2.1317    2.6752    6.3800 O   0  0  0  0  0  0  0  0  0  0  0  0
    3.2417    0.7251    4.9133 N   0  0  0  0  0  0  0  0  0  0  0  0
    2.7541   -0.3720    4.0903 C   0  0  0  0  0  0  0  0  0  0  0  0
    3.2733   -1.4830    4.0687 O   0  0  0  0  0  0  0  0  0  0  0  0
    1.6410   -0.1560    3.3610 N   0  0  0  0  0  0  0  0  0  0  0  0
    1.3041    1.1329    3.3795 C   0  0  0  0  0  0  0  0  0  0  0  0
    2.7615    2.2308    2.6712 C   0  0  0  0  0  0  0  0  0  0  0  0
    4.2091    2.1449    2.3907 C   0  0  0  0  0  0  0  0  0  0  0  0
    4.6423    3.6587    2.0387 C   0  0  0  0  0  0  0  0  0  0  0  0
    3.5789    4.7817    2.1786 C   0  0  0  0  0  0  0  0  0  0  0  0
    2.3591    3.9849    2.2507 C   0  0  0  0  0  0  0  0  0  0  0  0
    0.6952    4.6857    2.4617 C   0  0  0  0  0  0  0  0  0  0  0  0
   -0.6739    3.6452    3.0841 C   0  0  0  0  0  0  0  0  0  0  0  0
   -2.1298    3.9013    2.7420 C   0  0  0  0  0  0  0  0  0  0  0  0
   -2.8851    2.6376    3.1779 C   0  0  0  0  0  0  0  0  0  0  0  0
   -2.0342    1.3835    3.1648 C   0  0  0  0  0  0  0  0  0  0  0  0
   -0.4366    1.8949    3.5577 C   0  0  0  0  0  0  0  0  0  0  0  0
  1  2  1  0
  2  3  1  0
  3  4  1  0
  4  5  1  0
  6  5  1  0
  6  2  1  0
  6  7  1  1
  6  8  1  0
  8  9  2  0
  9 10  1  0
 10 11  2  0
 10 12  2  0
 10 13  1  0
 13 14  1  0
 14 15  2  0
 14 16  1  0
 16 17  1  0
 17 18  2  0
 17 28  1  0
 18 19  1  0
 18 22  1  0
 19 20  1  0
 20 21  1  0
 21 22  1  0
 22 23  2  0
 23 24  1  0
 24 25  1  0
 24 28  2  0
 25 26  1  0
 26 27  1  0
 27 28  1  0
M  END
>  <DRUGBANK_ID>  (1) 
DB18184

>  <COMMON_NAME>  (1) 
ZYIL-1

>  <CAS_NUMBER>  (1) 
2455519-86-3

>  <UNII>  (1) 
P9ZQS28F8C

$$$$
