
     RDKit          3D

 44 45  0  0  0  0  0  0  0  0999 V2000
    1.1715    0.0661   -0.1232 C   0  0  0  0  0  0  0  0  0  0  0  0
    2.6398    0.1035   -0.0652 C   0  0  0  0  0  0  0  0  0  0  0  0
    3.3150   -0.7849    0.7072 C   0  0  0  0  0  0  0  0  0  0  0  0
    3.3042    1.1519   -0.9233 C   0  0  0  0  0  0  0  0  0  0  0  0
    4.7640   -0.8655    0.7953 C   0  0  0  0  0  0  0  0  0  0  0  0
    5.5128   -1.7191    1.5174 C   0  0  0  0  0  0  0  0  0  0  0  0
    6.9934   -1.7069    1.5052 C   0  0  0  0  0  0  0  0  0  0  0  0
    7.7056   -2.5840    2.2469 C   0  0  0  0  0  0  0  0  0  0  0  0
    7.6639   -0.6703    0.6247 C   0  0  0  0  0  0  0  0  0  0  0  0
    9.1618   -2.6439    2.2967 C   0  0  0  0  0  0  0  0  0  0  0  0
    9.8628   -3.5137    3.0339 C   0  0  0  0  0  0  0  0  0  0  0  0
   11.3244   -3.5517    3.0664 C   0  0  0  0  0  0  0  0  0  0  0  0
   12.0380   -4.4282    3.8102 C   0  0  0  0  0  0  0  0  0  0  0  0
   13.5121   -4.4172    3.8022 C   0  0  0  0  0  0  0  0  0  0  0  0
   11.2910   -5.4323    4.6606 C   0  0  0  0  0  0  0  0  0  0  0  0
   14.2801   -5.2567    4.5164 C   0  0  0  0  0  0  0  0  0  0  0  0
   15.7300   -5.3268    4.5683 C   0  0  0  0  0  0  0  0  0  0  0  0
   16.4022   -6.2288    5.3292 C   0  0  0  0  0  0  0  0  0  0  0  0
   17.8639   -6.2692    5.2924 C   0  0  0  0  0  0  0  0  0  0  0  0
   15.6642   -7.2298    6.1877 C   0  0  0  0  0  0  0  0  0  0  0  0
   20.1525   -7.1031    5.9719 C   0  0  0  0  0  0  0  0  0  0  0  0
   20.7102   -8.3397    5.8955 C   0  0  0  0  0  0  0  0  0  0  0  0
   18.6864   -7.0153    6.0500 C   0  0  0  0  0  0  0  0  0  0  0  0
   22.4647   -6.0770    5.6768 C   0  0  0  0  0  0  0  0  0  0  0  0
   22.2059   -8.5222    5.9179 C   0  0  0  0  0  0  0  0  0  0  0  0
   19.9690   -9.6467    5.7551 C   0  0  0  0  0  0  0  0  0  0  0  0
   23.0623   -7.3155    6.2983 C   0  0  1  0  0  0  0  0  0  0  0  0
   22.6985   -9.6123    5.6500 O   0  0  0  0  0  0  0  0  0  0  0  0
   24.4100   -7.4167    5.8428 O   0  0  0  0  0  0  0  0  0  0  0  0
   20.8507   -5.1667    7.4553 C   0  0  0  0  0  0  0  0  0  0  0  0
   20.9888   -5.8035    6.0523 C   0  0  0  0  0  0  0  0  0  0  0  0
   20.5739   -4.7322    5.0249 C   0  0  0  0  0  0  0  0  0  0  0  0
   -3.2691    1.2867   -2.0335 C   0  0  0  0  0  0  0  0  0  0  0  0
   -4.0260    1.4709   -0.7196 C   0  0  2  0  0  0  0  0  0  0  0  0
   -1.1324    0.9081   -0.7821 C   0  0  0  0  0  0  0  0  0  0  0  0
   -1.7679    1.1254   -1.9647 C   0  0  0  0  0  0  0  0  0  0  0  0
    0.3466    0.9265   -0.7507 C   0  0  0  0  0  0  0  0  0  0  0  0
   -3.4190    0.5580    0.3143 C   0  0  0  0  0  0  0  0  0  0  0  0
   -1.9019    0.7545    0.5561 C   0  0  0  0  0  0  0  0  0  0  0  0
   -1.1232    1.2138   -3.3246 C   0  0  0  0  0  0  0  0  0  0  0  0
   -3.8430    1.2890   -3.1181 O   0  0  0  0  0  0  0  0  0  0  0  0
   -5.4134    1.1524   -0.8124 O   0  0  0  0  0  0  0  0  0  0  0  0
   -1.6078    1.9704    1.4647 C   0  0  0  0  0  0  0  0  0  0  0  0
   -1.5399   -0.5167    1.3499 C   0  0  0  0  0  0  0  0  0  0  0  0
  1  2  1  0
  2  3  2  0
  2  4  1  0
  3  5  1  0
  5  6  2  0
  6  7  1  0
  7  8  2  0
  7  9  1  0
  8 10  1  0
 10 11  2  0
 11 12  1  0
 12 13  2  0
 13 14  1  0
 13 15  1  0
 14 16  2  0
 16 17  1  0
 17 18  2  0
 18 19  1  0
 18 20  1  0
 19 23  2  0
 21 22  2  0
 21 23  1  0
 21 31  1  0
 22 26  1  0
 22 25  1  0
 24 27  1  0
 25 28  2  0
 25 27  1  0
 27 29  1  6
 31 30  1  0
 31 32  1  0
 31 24  1  0
 33 41  2  0
 33 34  1  0
 34 42  1  6
 35 36  2  0
 35 37  1  0
 35 39  1  0
 36 33  1  0
 36 40  1  0
 37  1  2  0
 38 34  1  0
 39 38  1  0
 39 43  1  0
 39 44  1  0
M  END
>  <DRUGBANK_ID>  (1) 
DB06543

>  <COMMON_NAME>  (1) 
Astaxanthin

>  <CAS_NUMBER>  (1) 
472-61-7

>  <UNII>  (1) 
8XPW32PR7I

$$$$
