
     RDKit          3D

 24 23  0  0  0  0  0  0  0  0999 V2000
    0.8505   -0.5883    0.4415 C   0  0  0  0  0  0  0  0  0  0  0  0
    0.4495   -0.8093   -0.9916 C   0  0  0  0  0  0  0  0  0  0  0  0
    1.2606   -1.5504   -1.8461 O   0  0  0  0  0  0  0  0  0  0  0  0
    2.6427   -1.1479   -1.7434 C   0  0  0  0  0  0  0  0  0  0  0  0
    3.1613    0.3586   -1.7203 C   0  0  0  0  0  0  0  0  0  0  0  0
    2.2912    1.7475   -0.5570 P   0  0  0  0  0  0  0  0  0  0  0  0
    3.3063    3.6186   -1.4021 C   0  0  0  0  0  0  0  0  0  0  0  0
    2.9481    4.4393   -2.6242 C   0  0  0  0  0  0  0  0  0  0  0  0
    1.5218    4.5602   -2.6296 O   0  0  0  0  0  0  0  0  0  0  0  0
    0.8731    3.2844   -2.3590 C   0  0  0  0  0  0  0  0  0  0  0  0
    1.0637    1.6914   -3.0526 C   0  0  0  0  0  0  0  0  0  0  0  0
   -0.0685    1.7004   -1.1077 C   0  0  0  0  0  0  0  0  0  0  0  0
   -0.9907    1.2161   -2.8033 C   0  0  0  0  0  0  0  0  0  0  0  0
   -0.1504   -0.2080   -4.5267 P   0  0  0  0  0  0  0  0  0  0  0  0
   -0.3067    0.6838   -6.2916 C   0  0  0  0  0  0  0  0  0  0  0  0
    0.1480    1.9284   -7.1703 C   0  0  0  0  0  0  0  0  0  0  0  0
    1.5015    2.6061   -7.4570 O   0  0  0  0  0  0  0  0  0  0  0  0
    2.3064    3.1737   -6.4032 C   0  0  0  0  0  0  0  0  0  0  0  0
    2.2358    4.6619   -5.5207 C   0  0  0  0  0  0  0  0  0  0  0  0
    2.1119   -0.1533   -4.8070 C   0  0  0  0  0  0  0  0  0  0  0  0
    3.0303    1.2376   -4.8242 C   0  0  0  0  0  0  0  0  0  0  0  0
    2.2257    2.7007   -4.3163 O   0  0  0  0  0  0  0  0  0  0  0  0
    0.4926    3.2786   -4.5945 C   0  0  0  0  0  0  0  0  0  0  0  0
   -0.1681    4.1313   -5.5678 C   0  0  0  0  0  0  0  0  0  0  0  0
  1  2  1  0
  2  3  1  0
  3  4  1  0
  4  5  1  0
  5  6  1  0
  6  7  1  0
  6 12  1  0
  7  8  1  0
  8  9  1  0
  9 10  1  0
 10 11  1  0
 12 13  1  0
 13 14  1  0
 14 15  1  0
 14 20  1  0
 15 16  1  0
 16 17  1  0
 17 18  1  0
 18 19  1  0
 20 21  1  0
 21 22  1  0
 22 23  1  0
 23 24  1  0
M  END
>  <DRUGBANK_ID>  (1) 
DB11180

>  <COMMON_NAME>  (1) 
Tetrofosmin

>  <CAS_NUMBER>  (1) 
127502-06-1

>  <UNII>  (1) 
3J0KPB596Q

>  <SYNONYMS>  (1) 
Tetrofosmin; Tetrofosmina

$$$$
