A41
     RDKit          3D

 20 21  0  0  0  0  0  0  0  0999 V2000
    1.3392   -0.2092    0.0222 C   0  0  0  0  0  0  0  0  0  0  0  0
    0.4623   -1.2941    0.0294 C   0  0  0  0  0  0  0  0  0  0  0  0
   -0.9192   -1.0786    0.0128 C   0  0  0  0  0  0  0  0  0  0  0  0
   -1.4190    0.2304    0.0138 C   0  0  0  0  0  0  0  0  0  0  0  0
   -0.5414    1.3176    0.0454 C   0  0  0  0  0  0  0  0  0  0  0  0
    0.8379    1.0935    0.0124 C   0  0  0  0  0  0  0  0  0  0  0  0
   -3.1567    0.5200   -0.2700 S   0  0  0  0  0  0  0  0  0  0  0  0
   -3.6756    1.4135    1.0500 N   0  0  0  0  0  0  0  0  0  0  0  0
   -3.2332    1.3191   -1.4763 O   0  0  0  0  0  0  0  0  0  0  0  0
   -3.8258   -0.7614   -0.1816 O   0  0  0  0  0  0  0  0  0  0  0  0
   -4.2903    2.7045    0.9314 C   0  0  0  0  0  0  0  0  0  0  0  0
   -5.2840    2.8850   -0.0419 C   0  0  0  0  0  0  0  0  0  0  0  0
   -5.9661    4.0948   -0.1689 C   0  0  0  0  0  0  0  0  0  0  0  0
   -5.7161    5.1355    0.7204 C   0  0  0  0  0  0  0  0  0  0  0  0
   -4.7949    4.9372    1.7599 C   0  0  0  0  0  0  0  0  0  0  0  0
   -4.0210    3.7590    1.8379 C   0  0  0  0  0  0  0  0  0  0  0  0
   -2.8677    3.6535    2.7893 C   0  0  0  0  0  0  0  0  0  0  0  0
   -2.5886    4.7276    3.5568 O   0  0  0  0  0  0  0  0  0  0  0  0
   -2.1634    2.6507    2.8592 O   0  0  0  0  0  0  0  0  0  0  0  0
   -6.3634    6.4773    0.5310 C   0  0  0  0  0  0  0  0  0  0  0  0
  1  2  2  0
  1  6  1  0
  2  3  1  0
  3  4  2  0
  4  5  1  0
  4  7  1  0
  5  6  2  0
  7  8  1  0
  7  9  2  0
  7 10  2  0
  8 11  1  0
 11 12  2  0
 11 16  1  0
 12 13  1  0
 13 14  2  0
 14 15  1  0
 14 20  1  0
 15 16  2  0
 16 17  1  0
 17 18  1  0
 17 19  2  0
M  END
>  <DRUGBANK_ID>  (1) 
DB07313

>  <COMMON_NAME>  (1) 
5-METHYL-2-[(PHENYLSULFONYL)AMINO]BENZOIC ACID

>  <UNII>  (1) 
BQ6W7H7DKV

$$$$
