
     RDKit          3D

 33 36  0  0  0  0  0  0  0  0999 V2000
   -1.1797   -1.2136   -0.0609 C   0  0  0  0  0  0  0  0  0  0  0  0
    0.2302   -1.2289   -0.0513 C   0  0  0  0  0  0  0  0  0  0  0  0
   -1.8816   -0.0217   -0.1513 C   0  0  0  0  0  0  0  0  0  0  0  0
    0.9141    0.0064   -0.0637 C   0  0  0  0  0  0  0  0  0  0  0  0
   -1.1828    1.1736   -0.2552 C   0  0  0  0  0  0  0  0  0  0  0  0
    0.2159    1.2264   -0.1364 C   0  0  0  0  0  0  0  0  0  0  0  0
    0.9060   -2.5283    0.0460 C   0  0  0  0  0  0  0  0  0  0  0  0
    1.7176   -2.8269    1.1513 C   0  0  0  0  0  0  0  0  0  0  0  0
    0.6913   -3.5219   -0.9223 C   0  0  0  0  0  0  0  0  0  0  0  0
    2.3024   -4.0892    1.2912 C   0  0  0  0  0  0  0  0  0  0  0  0
    1.2264   -4.7991   -0.7605 C   0  0  0  0  0  0  0  0  0  0  0  0
    2.0591   -5.0725    0.3254 C   0  0  0  0  0  0  0  0  0  0  0  0
    3.1354   -4.4283    2.4708 C   0  0  0  0  0  0  0  0  0  0  0  0
    3.6575   -5.5060    2.6855 O   0  0  0  0  0  0  0  0  0  0  0  0
    3.2553   -3.3988    3.3295 O   0  0  0  0  0  0  0  0  0  0  0  0
    2.2899    0.0827   -0.0043 O   0  0  0  0  0  0  0  0  0  0  0  0
    0.9054    2.4444    0.1460 N   0  0  0  0  0  0  0  0  0  0  0  0
    0.2938    3.6668    0.1049 N   0  0  0  0  0  0  0  0  0  0  0  0
   -0.6285    3.8772    0.9981 C   0  0  0  0  0  0  0  0  0  0  0  0
   -1.5395    5.0651    1.0124 C   0  0  0  0  0  0  0  0  0  0  0  0
   -1.1692    2.9794    2.0825 C   0  0  0  0  0  0  0  0  0  0  0  0
   -2.5529    4.8608    1.8081 N   0  0  0  0  0  0  0  0  0  0  0  0
   -2.3502    3.6133    2.4069 N   0  0  0  0  0  0  0  0  0  0  0  0
   -0.7030    1.9343    2.5004 O   0  0  0  0  0  0  0  0  0  0  0  0
   -1.3020    6.2764    0.1853 C   0  0  0  0  0  0  0  0  0  0  0  0
   -3.1755    3.2132    3.4665 C   0  0  0  0  0  0  0  0  0  0  0  0
   -2.5881    2.7470    4.6477 C   0  0  0  0  0  0  0  0  0  0  0  0
   -4.5613    3.2740    3.3645 C   0  0  0  0  0  0  0  0  0  0  0  0
   -3.3648    2.4102    5.7591 C   0  0  0  0  0  0  0  0  0  0  0  0
   -5.3487    2.9336    4.4670 C   0  0  0  0  0  0  0  0  0  0  0  0
   -4.7634    2.4740    5.6602 C   0  0  0  0  0  0  0  0  0  0  0  0
   -5.6588    2.0235    6.7801 C   0  0  0  0  0  0  0  0  0  0  0  0
   -2.6739    2.0532    7.0423 C   0  0  0  0  0  0  0  0  0  0  0  0
  2  1  2  0
  2  7  1  0
  3  1  1  0
  4  2  1  0
  4 16  1  0
  5  3  2  0
  6  4  2  0
  6  5  1  0
  6 17  1  0
  8  7  2  0
  9  7  1  0
 10  8  1  0
 10 13  1  0
 11  9  2  0
 12 10  2  0
 12 11  1  0
 14 13  2  0
 15 13  1  0
 17 18  1  0
 18 19  2  0
 20 19  1  0
 20 25  1  0
 21 19  1  0
 21 24  2  0
 22 20  2  0
 23 21  1  0
 23 22  1  0
 23 26  1  0
 27 26  2  0
 28 26  1  0
 29 27  1  0
 29 33  1  0
 30 28  2  0
 31 29  2  0
 31 30  1  0
 31 32  1  0
M  END
>  <DRUGBANK_ID>  (1) 
DB06210

>  <COMMON_NAME>  (1) 
Eltrombopag

>  <CAS_NUMBER>  (1) 
496775-61-2

>  <UNII>  (1) 
S56D65XJ9G

>  <SYNONYMS>  (1) 
Eltrombopag; Eltrombopagum

$$$$
