NDD
     RDKit          3D

 16 17  0  0  0  0  0  0  0  0999 V2000
    1.2429   -1.3905    0.0031 C   0  0  0  0  0  0  0  0  0  0  0  0
    2.4623   -0.6930   -0.0264 C   0  0  0  0  0  0  0  0  0  0  0  0
    2.4441    0.7029   -0.0126 C   0  0  0  0  0  0  0  0  0  0  0  0
    1.2231    1.3904    0.0203 C   0  0  0  0  0  0  0  0  0  0  0  0
   -0.0060    0.7048    0.0133 C   0  0  0  0  0  0  0  0  0  0  0  0
   -1.2408    1.3922    0.0002 C   0  0  0  0  0  0  0  0  0  0  0  0
   -2.4630    0.7015   -0.0093 C   0  0  0  0  0  0  0  0  0  0  0  0
   -2.4500   -0.6946   -0.0042 C   0  0  0  0  0  0  0  0  0  0  0  0
   -1.2305   -1.3887    0.0121 C   0  0  0  0  0  0  0  0  0  0  0  0
    0.0034   -0.7080    0.0128 C   0  0  0  0  0  0  0  0  0  0  0  0
    3.7370   -1.4623   -0.0796 C   0  0  0  0  0  0  0  0  0  0  0  0
    3.8338   -2.6773   -0.0957 O   0  0  0  0  0  0  0  0  0  0  0  0
    4.8296   -0.6753   -0.1187 O   0  0  0  0  0  0  0  0  0  0  0  0
   -3.7329    1.4808   -0.0200 C   0  0  0  0  0  0  0  0  0  0  0  0
   -3.8205    2.6966   -0.0234 O   0  0  0  0  0  0  0  0  0  0  0  0
   -4.8322    0.7027   -0.0198 O   0  0  0  0  0  0  0  0  0  0  0  0
  1  2  2  0
  1 10  1  0
  2  3  1  0
  2 11  1  0
  3  4  2  0
  4  5  1  0
  5  6  1  0
  5 10  2  0
  6  7  2  0
  7  8  1  0
  7 14  1  0
  8  9  2  0
  9 10  1  0
 11 12  2  0
 11 13  1  0
 14 15  2  0
 14 16  1  0
M  END
>  <DRUGBANK_ID>  (1) 
DB08262

>  <COMMON_NAME>  (1) 
2,6-dicarboxynaphthalene

>  <CAS_NUMBER>  (1) 
1141-38-4

>  <UNII>  (1) 
K3C4DYZ29O

$$$$
