
     RDKit          3D

  1  0  0  0  0  0  0  0  0  0999 V2000
    0.9238   -0.0344   -0.0548 Xe  0  0  0  0  0 15  0  0  0  0  0  0
M  ISO  1   1 129
M  END
>  <DRUGBANK_ID>  (1) 
DB17386

>  <COMMON_NAME>  (1) 
Xenon Xe-129

>  <CAS_NUMBER>  (1) 
13965-99-6

>  <UNII>  (1) 
9C7571UDT5

>  <SYNONYMS>  (1) 
Xenon xe-129m; Xenon-129m; Xenon, isotope of mass 129; Xenon, isotope of mass 129m(8.88 d); Xenon, xe-129m

$$$$
