TL1
     RDKit          3D

 28 31  0  0  0  0  0  0  0  0999 V2000
    1.0408   -0.0745   -0.0693 N   0  0  0  0  0  0  0  0  0  0  0  0
    0.4157   -0.9328   -0.8138 C   0  0  0  0  0  0  0  0  0  0  0  0
    1.0718   -1.8251   -1.6003 N   0  0  0  0  0  0  0  0  0  0  0  0
   -1.0538   -0.8829   -0.8502 C   0  0  0  0  0  0  0  0  0  0  0  0
   -1.6446    0.3879   -0.8161 C   0  0  0  0  0  0  0  0  0  0  0  0
   -2.9841    0.5022   -1.0496 C   0  0  0  0  0  0  0  0  0  0  0  0
   -3.6682   -0.6522   -1.3663 C   0  0  0  0  0  0  0  0  0  0  0  0
   -3.1423   -1.9405   -1.3321 C   0  0  0  0  0  0  0  0  0  0  0  0
   -3.8637   -3.0730   -1.5965 O   0  0  0  0  0  0  0  0  0  0  0  0
   -5.2582   -2.9424   -1.9096 C   0  0  2  0  0  0  0  0  0  0  0  0
   -5.6076   -2.1051   -3.1447 C   0  0  0  0  0  0  0  0  0  0  0  0
   -6.8714   -1.4795   -2.9011 O   0  0  0  0  0  0  0  0  0  0  0  0
   -7.1502   -1.5016   -1.4922 C   0  0  2  0  0  0  0  0  0  0  0  0
   -6.9340   -0.1461   -0.7988 C   0  0  1  0  0  0  0  0  0  0  0  0
   -8.1420    0.5792   -0.5664 O   0  0  0  0  0  0  0  0  0  0  0  0
   -9.0055    0.0718    0.3606 C   0  0  0  0  0  0  0  0  0  0  0  0
   -8.8643   -1.1705    0.9850 C   0  0  0  0  0  0  0  0  0  0  0  0
   -9.6882   -1.5837    1.9992 C   0  0  0  0  0  0  0  0  0  0  0  0
  -10.7075   -0.7480    2.3872 C   0  0  0  0  0  0  0  0  0  0  0  0
  -10.8767    0.5156    1.7929 C   0  0  0  0  0  0  0  0  0  0  0  0
  -11.8782    1.4444    2.3904 C   0  0  0  0  0  0  0  0  0  0  0  0
  -12.0590    2.6630    1.9905 N   0  0  0  0  0  0  0  0  0  0  0  0
  -12.6504    1.0449    3.4373 N   0  0  0  0  0  0  0  0  0  0  0  0
  -10.0505    0.9037    0.7317 C   0  0  0  0  0  0  0  0  0  0  0  0
   -6.0975   -0.4422    0.4602 C   0  0  0  0  0  0  0  0  0  0  0  0
   -5.5481   -1.7616    0.3047 O   0  0  0  0  0  0  0  0  0  0  0  0
   -6.1800   -2.4453   -0.7918 C   0  0  2  0  0  0  0  0  0  0  0  0
   -1.8009   -2.0603   -1.0362 C   0  0  0  0  0  0  0  0  0  0  0  0
  1  2  2  0
  2  3  1  0
  2  4  1  0
  4  5  2  0
  4 28  1  0
  5  6  1  0
  6  7  2  0
  7  8  1  0
  8  9  1  0
  8 28  2  0
 10  9  1  1
 10 11  1  0
 10 27  1  0
 11 12  1  0
 13 12  1  6
 13 14  1  0
 13 27  1  0
 14 25  1  0
 14 15  1  1
 15 16  1  0
 16 17  2  0
 16 24  1  0
 17 18  1  0
 18 19  2  0
 19 20  1  0
 20 21  1  0
 20 24  2  0
 21 22  2  0
 21 23  1  0
 25 26  1  0
 27 26  1  1
M  END
>  <DRUGBANK_ID>  (1) 
DB04790

>  <COMMON_NAME>  (1) 
2,5-bis-O-{3-[amino(imino)methyl]phenyl}-1,4:3,6-dianhydro-D-glucitol

>  <SYNONYMS>  (1) 
1,4:3,6-Dianhydro-2,5-bis-O-(3-carbamimidoylphenyl)-D-glucitol

$$$$
