
     RDKit          3D

 28 31  0  0  0  0  0  0  0  0999 V2000
    0.8596    1.5024    0.6850 C   0  0  0  0  0  0  0  0  0  0  0  0
    2.2332    1.4731    1.6303 C   0  0  1  0  0  0  0  0  0  0  0  0
   -0.3779   -0.9865    1.8289 C   0  0  0  0  0  0  0  0  0  0  0  0
   -0.4831    0.6357    1.2849 C   0  0  0  0  0  0  0  0  0  0  0  0
    2.1780    0.1035    2.3800 C   0  0  2  0  0  0  0  0  0  0  0  0
    0.8954   -0.8215    2.7581 C   0  0  2  0  0  0  0  0  0  0  0  0
    1.4291   -3.4382    2.5973 C   0  0  0  0  0  0  0  0  0  0  0  0
    0.6524   -3.6444    1.3370 C   0  0  0  0  0  0  0  0  0  0  0  0
   -0.6979   -2.3990    1.3395 C   0  0  0  0  0  0  0  0  0  0  0  0
    1.4124   -2.1236    2.2464 C   0  0  0  0  0  0  0  0  0  0  0  0
    4.7098   -0.4210    2.3232 C   0  0  0  0  0  0  0  0  0  0  0  0
    3.4848   -0.3315    3.2511 C   0  0  2  0  0  0  0  0  0  0  0  0
    3.9773    0.6288   -0.4989 C   0  0  0  0  0  0  0  0  0  0  0  0
    5.3140    0.6201   -1.1726 C   0  0  1  0  0  0  0  0  0  0  0  0
    6.0547    0.9042    0.4772 C   0  0  1  0  0  0  0  0  0  0  0  0
    1.2857   -4.0597    0.2931 O   0  0  0  0  0  0  0  0  0  0  0  0
    2.3791   -0.5994    0.7467 Cl  0  0  0  0  0  0  0  0  0  0  0  0
    4.9599    0.9581    1.6265 C   0  0  2  0  0  0  0  0  0  0  0  0
    5.0848    2.0492    2.7227 C   0  0  0  0  0  0  0  0  0  0  0  0
    3.7759    1.5011    0.7675 C   0  0  2  0  0  0  0  0  0  0  0  0
    0.5094   -0.5142    4.2218 C   0  0  0  0  0  0  0  0  0  0  0  0
    3.3861   -1.6079    3.8931 O   0  0  0  0  0  0  0  0  0  0  0  0
    4.3838   -0.3408   -2.3672 C   0  0  0  0  0  0  0  0  0  0  0  0
    7.5831    0.6107    0.8481 C   0  0  0  0  0  0  0  0  0  0  0  0
    8.1300    0.8419    2.2900 C   0  0  0  0  0  0  0  0  0  0  0  0
    9.4905   -0.2592    2.6356 Cl  0  0  0  0  0  0  0  0  0  0  0  0
    8.4102    0.6458   -0.0824 O   0  0  0  0  0  0  0  0  0  0  0  0
    6.3833    2.3716    0.3957 O   0  0  0  0  0  0  0  0  0  0  0  0
  2  1  1  6
  2  5  1  0
  3  4  1  0
  4  1  1  0
  5 12  1  0
  5  6  1  0
  5 17  1  6
  6  3  1  0
  6 10  1  0
  6 21  1  1
  7  8  1  0
  7 10  2  0
  8  9  1  0
  8 16  2  0
  9  3  2  0
 11 12  1  0
 12 22  1  6
 13 14  1  0
 14 23  1  6
 15 14  1  0
 15 24  1  0
 15 28  1  6
 18 11  1  0
 18 15  1  0
 18 19  1  1
 20  2  1  0
 20 13  1  6
 20 18  1  0
 24 25  1  0
 24 27  2  0
 25 26  1  0
M  END
>  <DRUGBANK_ID>  (1) 
DB00764

>  <SECONDARY_ACCESSION_NUMBERS>  (1) 
APRD00289

>  <COMMON_NAME>  (1) 
Mometasone

>  <CAS_NUMBER>  (1) 
105102-22-5

>  <UNII>  (1) 
8HR4QJ6DW8

>  <SYNONYMS>  (1) 
(+)-Mometasone; Mometason; Mometasona; Mom√©tasone; Mometasone; Mometasonum

$$$$
