
     RDKit          3D

 18 20  0  0  1  0  0  0  0  0999 V2000
    2.4742    0.2774   -0.2365 C   0  0  0  0  0  0  0  0  0  0  0  0
    1.0493    0.0706    0.3327 C   0  0  1  0  0  0  0  0  0  0  0  0
    0.2499    1.3826    0.1679 C   0  0  0  0  0  0  0  0  0  0  0  0
   -1.2113    1.3740    0.6484 C   0  0  0  0  0  0  0  0  0  0  0  0
   -2.0035    0.0680    0.5617 C   0  0  0  0  0  0  0  0  0  0  0  0
   -1.1094   -1.1733    0.6307 C   0  0  0  0  0  0  0  0  0  0  0  0
    0.2830   -1.2304   -0.1844 C   0  0  2  0  0  0  0  0  0  0  0  0
    1.0231   -2.5551    0.3631 C   0  0  0  0  0  0  0  0  0  0  0  0
    0.6101   -3.8826    0.2866 C   0  0  0  0  0  0  0  0  0  0  0  0
    1.6974   -4.8064    0.3743 C   0  0  0  0  0  0  0  0  0  0  0  0
    2.8633   -4.1713    0.7728 C   0  0  0  0  0  0  0  0  0  0  0  0
    2.5205   -2.5710    1.2363 S   0  0  0  0  0  0  0  0  0  0  0  0
    0.3244   -1.3419   -1.7244 N   0  0  0  0  0  0  0  0  0  0  0  0
   -0.0883   -0.2386   -2.6133 C   0  0  0  0  0  0  0  0  0  0  0  0
   -1.5680   -0.0003   -2.4657 C   0  0  0  0  0  0  0  0  0  0  0  0
   -2.4499   -1.2660   -2.5270 C   0  0  0  0  0  0  0  0  0  0  0  0
   -1.7801   -2.5929   -2.1415 C   0  0  0  0  0  0  0  0  0  0  0  0
   -0.2776   -2.5371   -2.3366 C   0  0  0  0  0  0  0  0  0  0  0  0
  2  1  1  6
  2  3  1  0
  2  7  1  0
  3  4  1  0
  4  5  1  0
  5  6  1  0
  6  7  1  0
  7 13  1  0
  7  8  1  1
  8  9  2  0
  8 12  1  0
  9 10  1  0
 10 11  2  0
 11 12  1  0
 13 14  1  0
 13 18  1  0
 14 15  1  0
 15 16  1  0
 16 17  1  0
 17 18  1  0
M  END
>  <DRUGBANK_ID>  (1) 
DB13096

>  <COMMON_NAME>  (1) 
Gacyclidine

>  <CAS_NUMBER>  (1) 
68134-81-6

>  <UNII>  (1) 
9290ND070R

>  <SYNONYMS>  (1) 
Gacyclidine

$$$$
