
     RDKit          3D

 22 21  0  0  1  0  0  0  0  0999 V2000
   -0.2190   -2.5741   -0.3234 C   0  0  0  0  0  0  0  0  0  0  0  0
   -0.2193   -0.0304   -0.8807 C   0  0  0  0  0  0  0  0  0  0  0  0
   -5.2813   -0.0029   -0.4203 C   0  0  0  0  0  0  0  0  0  0  0  0
   -0.9087   -0.1683    4.5954 C   0  0  0  0  0  0  0  0  0  0  0  0
   -9.3891    3.1452    1.9514 C   0  0  0  0  0  0  0  0  0  0  0  0
   -7.3100    4.4965    2.4618 C   0  0  0  0  0  0  0  0  0  0  0  0
   -7.7732    3.8200   -0.4002 C   0  0  0  0  0  0  0  0  0  0  0  0
   -3.6891   -0.7745    2.0823 C   0  0  0  0  0  0  0  0  0  0  0  0
   -7.8239    0.6206    2.4482 C   0  0  0  0  0  0  0  0  0  0  0  0
   -5.1833   -0.7722    2.0267 C   0  0  0  0  0  0  0  0  0  0  0  0
   -2.9528   -0.4917    3.1726 C   0  0  0  0  0  0  0  0  0  0  0  0
   -7.2904    0.1981    1.0742 C   0  0  0  0  0  0  0  0  0  0  0  0
   -7.3600    2.0258    2.8786 C   0  0  0  0  0  0  0  0  0  0  0  0
   -0.7206   -0.6976    2.1650 C   0  0  0  0  0  0  0  0  0  0  0  0
    0.5572   -1.2609   -0.4139 C   0  0  0  0  0  0  0  0  0  0  0  0
   -5.7504    0.2425    1.0136 C   0  0  2  0  0  0  0  0  0  0  0  0
   -1.4844   -0.4699    3.2462 C   0  0  0  0  0  0  0  0  0  0  0  0
    0.7523   -0.7238    2.0344 C   0  0  0  0  0  0  0  0  0  0  0  0
   -7.8543    3.1662    1.9439 C   0  0  0  0  0  0  0  0  0  0  0  0
    1.5161   -0.5191    2.9730 O   0  0  0  0  0  0  0  0  0  0  0  0
   -7.3133    2.9598    0.6307 O   0  0  0  0  0  0  0  0  0  0  0  0
    1.2701   -0.9916    0.8138 O   0  0  0  0  0  0  0  0  0  0  0  0
 10  8  1  0
 11  8  2  0
 12  9  1  0
 13  9  1  0
 15  1  1  0
 15  2  1  0
 16  3  1  6
 16 10  1  0
 16 12  1  0
 17  4  1  0
 17 11  1  0
 17 14  2  0
 18 14  1  0
 19  5  1  0
 19  6  1  0
 19 13  1  0
 20 18  2  0
 21  7  1  0
 21 19  1  0
 22 15  1  0
 22 18  1  0
M  END
>  <DRUGBANK_ID>  (1) 
DB11495

>  <COMMON_NAME>  (1) 
(S)-methoprene

>  <CAS_NUMBER>  (1) 
65733-16-6

>  <UNII>  (1) 
4YIQ0A94UR

>  <SYNONYMS>  (1) 
(7S)-Methoprene; isopropyl (2E,4E,7S)-11-methoxy-3,7,11-trimethyldodeca-2,4-dienoate; S-Methoprene

$$$$
