
     RDKit          3D

 16 17  0  0  0  0  0  0  0  0999 V2000
    1.0542    0.3717    0.3638 C   0  0  0  0  0  0  0  0  0  0  0  0
    0.4783    1.3975   -0.6057 C   0  0  0  0  0  0  0  0  0  0  0  0
    0.9493    1.3577   -2.0521 C   0  0  0  0  0  0  0  0  0  0  0  0
    1.0906    2.5880   -2.6064 N   0  0  0  0  0  0  0  0  0  0  0  0
    1.5348    2.6648   -3.8656 C   0  0  0  0  0  0  0  0  0  0  0  0
    1.6718    3.8999   -4.4199 N   0  0  0  0  0  0  0  0  0  0  0  0
    1.8524    1.6069   -4.6179 N   0  0  0  0  0  0  0  0  0  0  0  0
    1.6899    0.3921   -4.0738 C   0  0  0  0  0  0  0  0  0  0  0  0
    2.1811   -0.6715   -4.8302 N   0  0  0  0  0  0  0  0  0  0  0  0
    1.2104    0.1848   -2.7757 C   0  0  0  0  0  0  0  0  0  0  0  0
    1.0636   -1.1681   -2.2083 C   0  0  0  0  0  0  0  0  0  0  0  0
    2.2112   -1.9417   -1.9472 C   0  0  0  0  0  0  0  0  0  0  0  0
    2.1425   -3.0788   -1.1427 C   0  0  0  0  0  0  0  0  0  0  0  0
    0.9307   -3.4432   -0.5618 C   0  0  0  0  0  0  0  0  0  0  0  0
   -0.2263   -2.7180   -0.8488 C   0  0  0  0  0  0  0  0  0  0  0  0
   -0.1774   -1.6277   -1.7269 C   0  0  0  0  0  0  0  0  0  0  0  0
  1  2  1  0
  2  3  1  0
  3  4  2  0
  4  5  1  0
  5  6  1  0
  5  7  2  0
  7  8  1  0
  8  9  1  0
  8 10  2  0
 10  3  1  0
 10 11  1  0
 11 12  2  0
 12 13  1  0
 13 14  2  0
 14 15  1  0
 15 16  2  0
 16 11  1  0
M  END
>  <DRUGBANK_ID>  (1) 
DB07577

>  <COMMON_NAME>  (1) 
2,4-Diamino-5-phenyl-6-ethylpyrimidine

>  <CAS_NUMBER>  (1) 
27653-49-2

>  <UNII>  (1) 
KMJ59LN22F

>  <SYNONYMS>  (1) 
2,4-Diamino-6-ethyl-5-phenylpyrimidine

$$$$
