OES
     RDKit          3D

 13 12  0  0  0  0  0  0  0  0999 V2000
  -10.2235   -0.8066   -7.2859 C   0  0  0  0  0  0  0  0  0  0  0  0
   -9.2512   -1.4753   -6.3271 C   0  0  0  0  0  0  0  0  0  0  0  0
   -7.9439   -1.8406   -7.0347 C   0  0  0  0  0  0  0  0  0  0  0  0
   -7.2227   -0.6124   -7.6041 C   0  0  0  0  0  0  0  0  0  0  0  0
   -6.8829    0.4078   -6.5156 C   0  0  0  0  0  0  0  0  0  0  0  0
   -5.9391   -0.1802   -5.4653 C   0  0  0  0  0  0  0  0  0  0  0  0
   -4.5740   -0.5815   -6.0472 C   0  0  0  0  0  0  0  0  0  0  0  0
   -3.8196    0.5734   -6.6982 C   0  0  0  0  0  0  0  0  0  0  0  0
   -3.4357    1.9150   -5.5411 S   0  0  0  0  0  0  0  0  0  0  0  0
   -1.6252    1.7756   -5.5344 C   0  0  0  0  0  0  0  0  0  0  0  0
   -1.0752    2.9381   -4.7113 C   0  0  0  0  0  0  0  0  0  0  0  0
   -3.8515    1.5348   -4.1412 O   0  0  0  0  0  0  0  0  0  0  0  0
   -1.4534    2.8708   -3.3378 O   0  0  0  0  0  0  0  0  0  0  0  0
  1  2  1  0
  2  3  1  0
  3  4  1  0
  4  5  1  0
  5  6  1  0
  6  7  1  0
  7  8  1  0
  9 12  2  0
  9 10  1  0
  9  8  1  0
 10 11  1  0
 11 13  1  0
M  END
>  <DRUGBANK_ID>  (1) 
DB02415

>  <SECONDARY_ACCESSION_NUMBERS>  (1) 
EXPT02420

>  <COMMON_NAME>  (1) 
N-Octyl-2-Hydroxyethyl Sulfoxide

$$$$
