
     RDKit          3D

 24 20  0  0  0  0  0  0  0  0999 V2000
    1.0690   -0.0104   -0.0717 O   0  0  0  0  0  0  0  0  0  0  0  0
    0.1851   -0.8579    1.4865 C   0  0  0  0  0  0  0  0  0  0  0  0
    2.7990   -0.0104   -0.0717 P   0  0  0  0  0  0  0  0  0  0  0  0
    0.8237   -2.5639    1.6582 C   0  0  0  0  0  0  0  0  0  0  0  0
    0.5267   -0.0224    2.9512 C   0  0  0  0  0  0  0  0  0  0  0  0
    4.3473   -0.0104   -0.0717 O   0  0  0  0  0  0  0  0  0  0  0  0
    2.6345    0.5521   -1.5346 O   0  0  0  0  0  0  0  0  0  0  0  0
    3.2284    1.3284    0.5032 O   0  0  0  0  0  0  0  0  0  0  0  0
    2.5590   -2.9183    2.1731 C   0  0  0  0  0  0  0  0  0  0  0  0
   -0.0416    1.3626    3.1118 C   0  0  0  0  0  0  0  0  0  0  0  0
    2.8830   -2.3463    3.4243 O   0  0  0  0  0  0  0  0  0  0  0  0
   -1.4099    1.1589    2.8421 O   0  0  0  0  0  0  0  0  0  0  0  0
    1.0037    0.0614    0.0788 O   0  0  0  0  0  0  0  0  0  0  0  0
    0.4270    1.6676    0.3624 P   0  0  0  0  0  0  0  0  0  0  0  0
    2.1085   -0.9859    1.3730 C   0  0  0  0  0  0  0  0  0  0  0  0
    1.6219    2.3806    0.9000 O   0  0  0  0  0  0  0  0  0  0  0  0
    0.2893    1.7499   -1.1937 O   0  0  0  0  0  0  0  0  0  0  0  0
   -0.1496    3.2739    0.6459 O   0  0  0  0  0  0  0  0  0  0  0  0
    2.7277   -2.1251   -0.2038 C   0  0  0  0  0  0  0  0  0  0  0  0
    2.2744   -2.1151   -1.7522 C   0  0  0  0  0  0  0  0  0  0  0  0
    4.1555   -2.3015   -0.3152 O   0  0  0  0  0  0  0  0  0  0  0  0
    2.6916   -1.2793   -2.8196 O   0  0  0  0  0  0  0  0  0  0  0  0
    2.5188    2.4456   -0.7375 Fe  0  0  0  0  0 15  0  0  0  0  0  0
   -0.2638   -0.5008   -1.4390 Fe  0  0  0  0  0 15  0  0  0  0  0  0
  1  2  1  0
  1  3  1  0
  2  4  1  0
  2  5  1  0
  3  7  1  0
  3  8  1  0
  3  6  2  0
  4  9  1  0
  5 10  1  0
  9 11  1  0
 10 12  1  0
 13 14  1  0
 13 15  1  0
 14 16  2  0
 14 17  1  0
 14 18  1  0
 15 19  1  0
 19 20  1  0
 19 21  1  0
 20 22  1  0
M  CHG  6   7  -1   8  -1  17  -1  18  -1  23   2  24   2
M  END
>  <DRUGBANK_ID>  (1) 
DB15934

>  <COMMON_NAME>  (1) 
Ferric glycerophosphate

>  <CAS_NUMBER>  (1) 
1301-70-8

>  <UNII>  (1) 
MUL7ONL3Z6

>  <SYNONYMS>  (1) 
Ferric glyceryl phosphate; Iron(3+) glycerophosphate

$$$$
