
     RDKit          3D

 30 33  0  0  0  0  0  0  0  0999 V2000
    2.5530    0.7835    0.0014 C   0  0  0  0  0  0  0  0  0  0  0  0
    2.6608   -0.6051   -0.0669 C   0  0  0  0  0  0  0  0  0  0  0  0
    1.4321   -1.2689   -0.1907 C   0  0  0  0  0  0  0  0  0  0  0  0
    1.2562    1.3846    0.0073 C   0  0  0  0  0  0  0  0  0  0  0  0
    3.5539    1.7258    0.0086 O   0  0  0  0  0  0  0  0  0  0  0  0
    4.8723    1.2125    0.0006 C   0  0  0  0  0  0  0  0  0  0  0  0
    3.9263   -1.4916   -0.0375 C   0  0  0  0  0  0  0  0  0  0  0  0
    3.8244   -2.8157   -0.2525 N   0  0  0  0  0  0  0  0  0  0  0  0
    5.1035   -1.2065    0.1794 O   0  0  0  0  0  0  0  0  0  0  0  0
    0.0477    0.6706   -0.0006 C   0  0  0  0  0  0  0  0  0  0  0  0
    0.1272   -0.7258   -0.0719 C   0  0  0  0  0  0  0  0  0  0  0  0
   -1.0880   -1.4815   -0.0481 C   0  0  0  0  0  0  0  0  0  0  0  0
   -2.3070   -0.7911   -0.0065 C   0  0  0  0  0  0  0  0  0  0  0  0
   -2.2794    0.5922    0.0162 C   0  0  0  0  0  0  0  0  0  0  0  0
   -1.1378    1.3186    0.0278 N   0  0  0  0  0  0  0  0  0  0  0  0
   -1.2396   -2.8749   -0.1071 O   0  0  0  0  0  0  0  0  0  0  0  0
   -0.1788   -3.7466    0.0522 C   0  0  0  0  0  0  0  0  0  0  0  0
    0.6056   -3.7580    1.2019 C   0  0  0  0  0  0  0  0  0  0  0  0
    1.8004   -4.5071    1.2367 C   0  0  0  0  0  0  0  0  0  0  0  0
    2.2447   -5.3095    0.1619 C   0  0  0  0  0  0  0  0  0  0  0  0
    1.3915   -5.3450   -0.9657 C   0  0  0  0  0  0  0  0  0  0  0  0
    0.1904   -4.5802   -1.0153 C   0  0  0  0  0  0  0  0  0  0  0  0
    1.8583   -6.1903   -2.4032 Cl  0  0  0  0  0  0  0  0  0  0  0  0
    3.5844   -5.8851    0.1386 N   0  0  0  0  0  0  0  0  0  0  0  0
    4.5495   -5.6959    1.1258 C   0  0  0  0  0  0  0  0  0  0  0  0
    5.7595   -6.3487    0.9502 N   0  0  0  0  0  0  0  0  0  0  0  0
    4.4016   -4.9784    2.1115 O   0  0  0  0  0  0  0  0  0  0  0  0
    6.7079   -6.3489    2.0586 C   0  0  0  0  0  0  0  0  0  0  0  0
    7.9083   -5.4347    2.0831 C   0  0  0  0  0  0  0  0  0  0  0  0
    8.0968   -6.9176    1.9486 C   0  0  0  0  0  0  0  0  0  0  0  0
  1  2  2  0
  1  5  1  0
  2  3  1  0
  2  7  1  0
  3 11  2  0
  4  1  1  0
  5  6  1  0
  7  8  1  0
  7  9  2  0
 10  4  2  0
 10 11  1  0
 11 12  1  0
 12 13  2  0
 12 16  1  0
 13 14  1  0
 14 15  2  0
 15 10  1  0
 16 17  1  0
 17 18  2  0
 18 19  1  0
 19 20  2  0
 20 21  1  0
 20 24  1  0
 21 22  2  0
 21 23  1  0
 22 17  1  0
 24 25  1  0
 25 26  1  0
 25 27  2  0
 26 28  1  0
 28 30  1  0
 29 28  1  0
 30 29  1  0
M  END
>  <DRUGBANK_ID>  (1) 
DB09078

>  <COMMON_NAME>  (1) 
Lenvatinib

>  <CAS_NUMBER>  (1) 
417716-92-8

>  <UNII>  (1) 
EE083865G2

>  <SYNONYMS>  (1) 
4-{3-chloro-4-[(cyclopropylcarbamoyl)amino]phenoxy}-7-methoxyquinoline-6-carboxamide; Lenvatinib

$$$$
