TRL
     RDKit          3D

 29 29  0  0  0  0  0  0  0  0999 V2000
    6.5413    6.8547    0.7776 O   0  0  0  0  0  0  0  0  0  0  0  0
    5.4941    6.6080    0.1855 C   0  0  0  0  0  0  0  0  0  0  0  0
    5.4359    5.4750   -0.7659 C   0  0  1  0  0  0  0  0  0  0  0  0
    4.3608    4.8627   -0.0073 C   0  0  0  0  0  0  0  0  0  0  0  0
    2.9049    5.0503    0.0647 C   0  0  0  0  0  0  0  0  0  0  0  0
    5.1642    5.4788   -2.2339 C   0  0  1  0  0  0  0  0  0  0  0  0
    4.2754    4.3963   -2.7337 N   0  0  0  0  0  0  0  0  0  0  0  0
    3.4560    4.9940   -3.7938 C   0  0  0  0  0  0  0  0  0  0  0  0
    3.8054    6.5102   -3.8518 C   0  0  0  0  0  0  0  0  0  0  0  0
    4.5437    6.8380   -2.5568 C   0  0  2  0  0  0  0  0  0  0  0  0
    5.5559    7.9852   -2.7569 N   0  0  0  0  0  0  0  0  0  0  0  0
    6.7681    8.4363   -1.5887 S   0  0  0  0  0  0  0  0  0  0  0  0
    7.5902    9.4706   -2.1117 O   0  0  0  0  0  0  0  0  0  0  0  0
    5.8920    8.8233   -0.4747 O   0  0  0  0  0  0  0  0  0  0  0  0
    7.8528    6.8848   -1.4786 C   0  0  0  0  0  0  0  0  0  0  0  0
    4.0674    3.0327   -2.2810 C   0  0  0  0  0  0  0  0  0  0  0  0
    3.1013    2.3901   -2.7110 O   0  0  0  0  0  0  0  0  0  0  0  0
    4.9738    2.3668   -0.9852 C   0  0  2  0  0  0  0  0  0  0  0  0
    6.0635    1.3966   -1.3895 C   0  0  0  0  0  0  0  0  0  0  0  0
    7.4044    2.1654   -1.2405 C   0  0  0  0  0  0  0  0  0  0  0  0
    5.9998    0.2055   -0.4582 C   0  0  0  0  0  0  0  0  0  0  0  0
    4.2373    2.0547    0.4035 N   0  0  0  0  0  0  0  0  0  0  0  0
    4.2231    2.5782    1.7366 C   0  0  0  0  0  0  0  0  0  0  0  0
    3.2999    2.2908    2.4742 O   0  0  0  0  0  0  0  0  0  0  0  0
    5.2127    3.4824    2.1069 O   0  0  0  0  0  0  0  0  0  0  0  0
    5.1278    4.5109    3.2241 C   0  0  0  0  0  0  0  0  0  0  0  0
    3.7651    5.2028    3.4564 C   0  0  0  0  0  0  0  0  0  0  0  0
    5.6475    3.6884    4.3603 C   0  0  0  0  0  0  0  0  0  0  0  0
    6.1193    5.7095    3.1017 C   0  0  0  0  0  0  0  0  0  0  0  0
  1  2  2  0
  3  2  1  1
  3  4  1  0
  4  5  1  0
  6  3  1  0
  6  7  1  1
  6 10  1  0
  7  8  1  0
  7 16  1  0
  8  9  1  0
  9 10  1  0
 10 11  1  6
 11 12  1  0
 12 13  2  0
 12 14  2  0
 12 15  1  0
 16 17  2  0
 18 22  1  1
 18 19  1  0
 18 16  1  0
 19 20  1  0
 19 21  1  0
 22 23  1  0
 23 24  2  0
 23 25  1  0
 25 26  1  0
 26 27  1  0
 26 28  1  0
 26 29  1  0
M  END
>  <DRUGBANK_ID>  (1) 
DB08644

>  <COMMON_NAME>  (1) 
{1-[2-(1-FORMYL-PROPYL)-3-METHANESULFONYLAMINO-PYRROLIDINE-1-CARBONYL]-2-METHYL-PROPYL}-CARBAMIC ACID TERT-BUTYL ESTER

$$$$
