
     RDKit          3D

 19 19  0  0  0  0  0  0  0  0999 V2000
    3.1633    1.2587    0.6942 O   0  0  0  0  0  0  0  0  0  0  0  0
    2.9050    2.3370   -0.3108 C   0  0  0  0  0  0  0  0  0  0  0  0
    3.4649    2.2090   -1.8432 C   0  0  0  0  0  0  0  0  0  0  0  0
    3.0737    1.1004   -2.9406 C   0  0  0  0  0  0  0  0  0  0  0  0
    1.5473    0.7621   -3.3565 C   0  0  0  0  0  0  0  0  0  0  0  0
    1.0236    1.8732   -4.1823 C   0  0  0  0  0  0  0  0  0  0  0  0
    1.7026    1.6843   -5.5112 C   0  0  0  0  0  0  0  0  0  0  0  0
    1.4777    0.2615   -6.0450 C   0  0  0  0  0  0  0  0  0  0  0  0
    2.4435   -0.0494    0.5930 C   0  0  2  0  0  0  0  0  0  0  0  0
    3.0418   -1.1953    1.1750 O   0  0  0  0  0  0  0  0  0  0  0  0
    2.4202   -2.4177    0.6324 C   0  0  2  0  0  0  0  0  0  0  0  0
    2.8781   -3.5338    1.5195 C   0  0  0  0  0  0  0  0  0  0  0  0
    2.4598   -3.2026    2.8358 O   0  0  0  0  0  0  0  0  0  0  0  0
    2.8606   -2.7280   -0.7927 C   0  0  2  0  0  0  0  0  0  0  0  0
    2.2789   -1.6397   -1.6240 C   0  0  1  0  0  0  0  0  0  0  0  0
    2.4173   -0.3129   -0.8589 C   0  0  1  0  0  0  0  0  0  0  0  0
    1.2224    0.4225   -1.0063 O   0  0  0  0  0  0  0  0  0  0  0  0
    2.8799   -1.7575   -2.9421 O   0  0  0  0  0  0  0  0  0  0  0  0
    2.3826   -3.9819   -1.2848 O   0  0  0  0  0  0  0  0  0  0  0  0
  1  2  1  0
  2  3  1  0
  3  4  1  0
  4  5  1  0
  5  6  1  0
  6  7  1  0
  7  8  1  0
  9 10  1  0
  9 16  1  0
  9  1  1  6
 10 11  1  0
 11 12  1  1
 11 14  1  0
 12 13  1  0
 14 19  1  6
 15 14  1  0
 15 18  1  6
 16 15  1  0
 16 17  1  6
M  END
>  <DRUGBANK_ID>  (1) 
DB03338

>  <SECONDARY_ACCESSION_NUMBERS>  (1) 
EXPT00614

>  <COMMON_NAME>  (1) 
Heptyl glucoside

>  <CAS_NUMBER>  (1) 
78617-12-6

>  <UNII>  (1) 
BU2OC48XBR

>  <SYNONYMS>  (1) 
1-Heptyl beta-D-glucoside; Heptyl beta-D-glucopyranoside; Heptyl glucoside; n-Heptyl beta-D-glucopyranoside; n-Heptyl beta-D-glucoside

$$$$
