1555
     RDKit          3D

 26 27  0  0  1  0  0  0  0  0999 V2000
   -0.1335   -4.0681   -2.2444 O   0  0  0  0  0  0  0  0  0  0  0  0
   -2.0750   -2.9647   -2.4772 O   0  0  0  0  0  0  0  0  0  0  0  0
    2.2561   -0.2567   -2.6859 N   0  0  0  0  0  0  0  0  0  0  0  0
    2.1707   -4.1362   -3.4192 C   0  0  0  0  0  0  0  0  0  0  0  0
    2.2198   -2.6138   -3.8591 C   0  0  0  0  0  0  0  0  0  0  0  0
    1.3009   -4.3842   -2.0690 C   0  0  1  0  0  0  0  0  0  0  0  0
    2.8698   -1.5680   -2.8738 C   0  0  1  0  0  0  0  0  0  0  0  0
    3.6393   -4.6239   -3.2536 C   0  0  0  0  0  0  0  0  0  0  0  0
    1.4209   -4.9531   -4.5522 C   0  0  0  0  0  0  0  0  0  0  0  0
    1.8036   -3.8481   -0.7173 C   0  0  0  0  0  0  0  0  0  0  0  0
    4.3430   -1.4108   -3.1918 C   0  0  0  0  0  0  0  0  0  0  0  0
    4.4301   -4.1406   -2.1953 C   0  0  0  0  0  0  0  0  0  0  0  0
    1.3507   -6.3572   -4.4543 C   0  0  0  0  0  0  0  0  0  0  0  0
    4.3155   -5.3862   -4.2113 C   0  0  0  0  0  0  0  0  0  0  0  0
    0.7851   -4.3574   -5.6645 C   0  0  0  0  0  0  0  0  0  0  0  0
    1.1254   -4.2670    0.5532 C   0  0  0  0  0  0  0  0  0  0  0  0
    2.2847    0.7212   -3.7392 C   0  0  0  0  0  0  0  0  0  0  0  0
    2.0708    0.2828   -1.3411 C   0  0  0  0  0  0  0  0  0  0  0  0
    5.8070   -4.2487   -2.1434 C   0  0  0  0  0  0  0  0  0  0  0  0
    0.7020   -7.1219   -5.4231 C   0  0  0  0  0  0  0  0  0  0  0  0
    5.6852   -5.6393   -4.0818 C   0  0  0  0  0  0  0  0  0  0  0  0
    0.0618   -5.1167   -6.5855 C   0  0  0  0  0  0  0  0  0  0  0  0
   -0.8327   -2.9258   -2.3481 C   0  0  0  0  0  0  0  0  0  0  0  0
    6.4398   -5.0029   -3.0988 C   0  0  0  0  0  0  0  0  0  0  0  0
    0.0491   -6.5006   -6.4822 C   0  0  0  0  0  0  0  0  0  0  0  0
   -0.1896   -1.6015   -2.2878 C   0  0  0  0  0  0  0  0  0  0  0  0
  1 23  1  0
  2 23  2  0
  3 17  1  0
  3 18  1  0
  4  5  1  0
  4  6  1  0
  4  8  1  0
  4  9  1  0
  6  1  1  0
  6 10  1  1
  7 11  1  6
  7  5  1  0
  7  3  1  0
  8 12  2  0
  8 14  1  0
  9 13  2  0
  9 15  1  0
 10 16  1  0
 12 19  1  0
 13 20  1  0
 14 21  2  0
 15 22  2  0
 19 24  2  0
 20 25  2  0
 21 24  1  0
 22 25  1  0
 23 26  1  0
M  END
>  <DRUGBANK_ID>  (1) 
DB01555

>  <COMMON_NAME>  (1) 
Alphacetylmethadol

>  <CAS_NUMBER>  (1) 
17199-58-5

>  <UNII>  (1) 
BXF83S0HEL

>  <SYNONYMS>  (1) 
Alphacetylmethadol

$$$$
