
     RDKit          3D

 17 18  0  0  0  0  0  0  0  0999 V2000
    4.3093   -0.6089    3.8127 N   0  0  0  0  0  0  0  0  0  0  0  0
    4.3672   -0.3731    2.4230 C   0  0  0  0  0  0  0  0  0  0  0  0
    5.5681   -0.2891    1.8274 N   0  0  0  0  0  0  0  0  0  0  0  0
    5.5711    0.1216    0.5499 C   0  0  0  0  0  0  0  0  0  0  0  0
    6.7825    0.1641   -0.0997 N   0  0  0  0  0  0  0  0  0  0  0  0
    4.5054    0.5069   -0.1610 N   0  0  0  0  0  0  0  0  0  0  0  0
    3.3143    0.3938    0.4442 C   0  0  0  0  0  0  0  0  0  0  0  0
    2.1795    0.8625   -0.2311 N   0  0  0  0  0  0  0  0  0  0  0  0
    0.8850    0.4982    0.3363 C   0  0  0  0  0  0  0  0  0  0  0  0
    0.9195    0.7350    1.8670 C   0  0  2  0  0  0  0  0  0  0  0  0
    1.1854    2.2405    2.2017 C   0  0  1  0  0  0  0  0  0  0  0  0
    0.1186    3.0264    1.6211 O   0  0  0  0  0  0  0  0  0  0  0  0
    1.3207    2.5948    3.7138 C   0  0  2  0  0  0  0  0  0  0  0  0
    1.1274    1.4437    4.6842 C   0  0  0  0  0  0  0  0  0  0  0  0
    0.3843    3.6072    4.1022 O   0  0  0  0  0  0  0  0  0  0  0  0
    1.9345   -0.1783    2.3842 N   0  0  0  0  0  0  0  0  0  0  0  0
    3.1839   -0.0997    1.7510 C   0  0  0  0  0  0  0  0  0  0  0  0
  1  2  1  0
  2  3  2  0
  2 17  1  0
  3  4  1  0
  4  5  1  0
  4  6  2  0
  7  6  1  0
  7  8  1  0
  8  9  1  0
 10  9  1  6
 10 11  1  0
 11 12  1  1
 13 15  1  0
 13 14  1  1
 13 11  1  0
 16 10  1  0
 17 16  1  0
 17  7  2  0
M  END
>  <DRUGBANK_ID>  (1) 
DB12575

>  <COMMON_NAME>  (1) 
Ronopterin

>  <CAS_NUMBER>  (1) 
185243-78-1

>  <UNII>  (1) 
1D1Z87AY23

>  <SYNONYMS>  (1) 
Ronopterin

$$$$
