
     RDKit          3D

  9  9  0  0  1  0  0  0  0  0999 V2000
   -1.5087   -0.7729    0.0284 C   0  0  1  0  0  0  0  0  0  0  0  0
   -0.1038   -1.1147    0.0287 N   0  0  0  0  0  0  0  0  0  0  0  0
   -1.5049    0.7245   -0.2782 C   0  0  0  0  0  0  0  0  0  0  0  0
   -2.3709   -1.5311   -0.9900 C   0  0  0  0  0  0  0  0  0  0  0  0
    0.7070    0.0023    0.0477 C   0  0  0  0  0  0  0  0  0  0  0  0
   -0.1563    1.2192    0.2223 C   0  0  0  0  0  0  0  0  0  0  0  0
   -1.9753   -2.7951   -1.2653 O   0  0  0  0  0  0  0  0  0  0  0  0
   -3.4093   -1.0797   -1.4550 O   0  0  0  0  0  0  0  0  0  0  0  0
    1.9241   -0.0253   -0.0196 O   0  0  0  0  0  0  0  0  0  0  0  0
  1  2  1  0
  1  3  1  0
  1  4  1  6
  2  5  1  0
  3  6  1  0
  4  7  1  0
  4  8  2  0
  5  9  2  0
  5  6  1  0
M  END
>  <DRUGBANK_ID>  (1) 
DB03088

>  <SECONDARY_ACCESSION_NUMBERS>  (1) 
EXPT00247

>  <COMMON_NAME>  (1) 
Pidolic acid

>  <CAS_NUMBER>  (1) 
98-79-3

>  <UNII>  (1) 
SZB83O1W42

>  <SYNONYMS>  (1) 
(−)-2-pyrrolidone-5-carboxylic acid; (S)-(−)-2-pyrrolidone-5-carboxylic acid; (S)-pyroglutamic acid; 5-L-oxoproline; 5-oxo-2-pyrrolidinecarboxylic acid; 5-oxo-L-proline; 5-Pyrrolidone-2-carboxylic acid; Glutimic acid; L-5-Pyrrolidone-2-carboxylic acid; L-pyroglutamic acid; L-pyrrolidone carboxylic acid; PCA; Pidolic acid; Pyroglutamic acid

$$$$
