Structure #1
     RDKit          3D

 17 18  0  0  0  0  0  0  0  0999 V2000
    0.9428   -0.0317   -0.0756 C   0  0  0  0  0  0  0  0  0  0  0  0
   -7.0222    2.9393   -2.9779 C   0  0  0  0  0  0  0  0  0  0  0  0
    0.4361    1.3554   -0.4356 C   0  0  0  0  0  0  0  0  0  0  0  0
    0.9428    1.7373   -1.8168 C   0  0  0  0  0  0  0  0  0  0  0  0
   -4.4417    2.7440   -2.9998 C   0  0  0  0  0  0  0  0  0  0  0  0
   -3.4932   -0.6848   -3.0288 C   0  0  0  0  0  0  0  0  0  0  0  0
   -5.7143    2.1649   -2.9933 C   0  0  0  0  0  0  0  0  0  0  0  0
   -3.4937    1.7413   -3.0142 C   0  0  0  0  0  0  0  0  0  0  0  0
   -4.1964    0.5235   -3.0159 C   0  0  0  0  0  0  0  0  0  0  0  0
   -2.1035    1.7356   -3.0253 B   0  0  0  0  0  0  0  0  0  0  0  0
   -2.1126   -0.6711   -3.0408 N   0  0  0  0  0  0  0  0  0  0  0  0
   -1.4206    0.5402   -3.0330 N   0  0  0  0  0  0  0  0  0  0  0  0
   -1.3480    3.0315   -3.0290 O   0  0  0  0  0  0  0  0  0  0  0  0
    0.8496    0.9247   -4.4238 O   0  0  0  0  0  0  0  0  0  0  0  0
    0.8496   -0.8565   -2.6706 O   0  0  0  0  0  0  0  0  0  0  0  0
   -5.6173    0.8677   -3.0024 S   0  0  0  0  0  0  0  0  0  0  0  0
    0.3394    0.5402   -3.0330 S   0  0  0  0  0  0  0  0  0  0  0  0
  1  3  1  0
  2  7  1  0
  3  4  1  0
  4 17  1  0
  5  7  2  0
  5  8  1  0
  6  9  1  0
  6 11  2  0
  7 16  1  0
  8  9  2  0
  8 10  1  0
  9 16  1  0
 10 12  1  0
 10 13  1  0
 11 12  1  0
 12 17  1  0
 14 17  2  0
 15 17  2  0
M  END
>  <DRUGBANK_ID>  (1) 
DB08605

>  <COMMON_NAME>  (1) 
6-METHYL-2(PROPANE-1-SULFONYL)-2H-THIENO[3,2-D][1,2,3]DIAZABORININ-1-OL

$$$$
