
     RDKit          3D

 25 30  0  0  1  0  0  0  0  0999 V2000
    1.1565   -0.0284    0.2079 O   0  0  0  0  0  0  0  0  0  0  0  0
    0.6415    0.9062   -0.6328 C   0  0  0  0  0  0  0  0  0  0  0  0
   -0.4948    1.9273   -0.0312 C   0  0  0  0  0  0  0  0  0  0  0  0
   -1.5502    3.0125   -0.7759 C   0  0  0  0  0  0  0  0  0  0  0  0
   -1.5126    3.0327   -2.1808 C   0  0  0  0  0  0  0  0  0  0  0  0
   -2.3181    3.1977   -4.2038 C   0  0  0  0  0  0  0  0  0  0  0  0
   -1.2069    2.5090   -5.4338 C   0  0  2  0  0  0  0  0  0  0  0  0
   -1.6201    2.8104   -4.1425 N   0  0  0  0  0  0  0  0  0  0  0  0
   -1.0841    1.8717   -3.4521 C   0  0  0  0  0  0  0  0  0  0  0  0
    0.3575    3.3982   -2.5088 C   0  0  0  0  0  0  0  0  0  0  0  0
    0.9542    4.7822   -2.3392 C   0  0  0  0  0  0  0  0  0  0  0  0
    1.9767    3.1870   -2.3618 C   0  0  0  0  0  0  0  0  0  0  0  0
   -0.8900    4.5028   -3.7991 C   0  0  0  0  0  0  0  0  0  0  0  0
    1.0255    3.9734   -4.3126 C   0  0  0  0  0  0  0  0  0  0  0  0
    0.7137    2.3181   -4.1190 C   0  0  1  0  0  0  0  0  0  0  0  0
    1.3855    1.0447   -4.3789 C   0  0  2  0  0  0  0  0  0  0  0  0
    1.8036    0.4359   -2.9566 O   0  0  0  0  0  0  0  0  0  0  0  0
    1.0071    0.8503   -1.9296 C   0  0  0  0  0  0  0  0  0  0  0  0
    0.0675    1.6944   -2.2287 C   0  0  0  0  0  0  0  0  0  0  0  0
    2.4306    1.4075   -5.4283 C   0  0  0  0  0  0  0  0  0  0  0  0
    2.8598    0.3554   -6.0941 C   0  0  0  0  0  0  0  0  0  0  0  0
    2.3600    2.7111   -6.2036 C   0  0  0  0  0  0  0  0  0  0  0  0
    1.0065    3.3323   -6.5771 C   0  0  0  0  0  0  0  0  0  0  0  0
    0.0906    3.2671   -5.4431 C   0  0  1  0  0  0  0  0  0  0  0  0
   -0.2347    4.9921   -5.6510 O   0  0  0  0  0  0  0  0  0  0  0  0
  1  2  1  0
  2  3  2  0
  2 18  1  0
  3  4  1  0
  4  5  2  0
  5  6  1  0
  5 19  1  0
  7  6  1  6
  7  8  1  0
  8 13  1  0
  8  9  1  0
  9 10  1  0
 10 11  1  0
 10 12  1  0
 11 12  1  0
 13 14  1  0
 15 14  1  1
 15 16  1  0
 15 19  1  0
 15 24  1  0
 16 17  1  1
 16 20  1  0
 17 18  1  0
 18 19  2  0
 20 22  1  0
 20 21  2  0
 22 23  1  0
 24 23  1  0
 24  7  1  0
 24 25  1  1
M  END
>  <DRUGBANK_ID>  (1) 
DB06230

>  <COMMON_NAME>  (1) 
Nalmefene

>  <CAS_NUMBER>  (1) 
55096-26-9

>  <UNII>  (1) 
TOV02TDP9I

>  <SYNONYMS>  (1) 
Nalmefene; Nalmefeno

$$$$
