
     RDKit          3D

 30 32  0  0  0  0  0  0  0  0999 V2000
   -0.9692   -1.3649   -0.0174 C   0  0  0  0  0  0  0  0  0  0  0  0
   -2.1718   -0.6605   -0.0003 C   0  0  0  0  0  0  0  0  0  0  0  0
   -2.1395    0.7288    0.0010 C   0  0  0  0  0  0  0  0  0  0  0  0
   -0.9281    1.4395   -0.0110 C   0  0  0  0  0  0  0  0  0  0  0  0
   -4.5374   -0.7209    0.0123 C   0  0  0  0  0  0  0  0  0  0  0  0
    1.6049   -1.1135   -0.0645 C   0  0  0  0  0  0  0  0  0  0  0  0
    2.4289    0.0033   -0.0827 C   0  0  0  0  0  0  0  0  0  0  0  0
    2.0843    2.5288   -0.0857 C   0  0  0  0  0  0  0  0  0  0  0  0
    0.2869    0.7284   -0.0480 C   0  0  0  0  0  0  0  0  0  0  0  0
    0.2635   -0.6705   -0.0543 C   0  0  0  0  0  0  0  0  0  0  0  0
    3.5060    2.9646   -0.1646 C   0  0  0  0  0  0  0  0  0  0  0  0
    4.3227    2.5262   -1.2202 C   0  0  0  0  0  0  0  0  0  0  0  0
    5.7169    2.5378   -1.0591 C   0  0  0  0  0  0  0  0  0  0  0  0
    6.2847    3.1681    0.0479 C   0  0  0  0  0  0  0  0  0  0  0  0
    5.4712    3.7822    1.0006 C   0  0  0  0  0  0  0  0  0  0  0  0
    4.0800    3.6277    0.9313 C   0  0  0  0  0  0  0  0  0  0  0  0
    3.9208   -0.0650   -0.0276 C   0  0  0  0  0  0  0  0  0  0  0  0
    2.0693   -2.5371    0.0285 C   0  0  0  0  0  0  0  0  0  0  0  0
    1.5853   -3.2353    1.2976 C   0  0  0  0  0  0  0  0  0  0  0  0
    1.6331    1.1634   -0.0877 N   0  0  0  0  0  0  0  0  0  0  0  0
   -3.3042   -1.4321    0.0111 O   0  0  0  0  0  0  0  0  0  0  0  0
    1.2432    3.4266    0.0397 O   0  0  0  0  0  0  0  0  0  0  0  0
    0.9258   -4.2747    1.2371 O   0  0  0  0  0  0  0  0  0  0  0  0
    1.5961   -0.8837    4.8473 O   0  0  0  0  0  0  0  0  0  0  0  0
    7.9899    3.1222    0.2748 Cl  0  0  0  0  0  0  0  0  0  0  0  0
    1.9229   -2.7441    2.5362 N   0  0  0  0  0  0  0  0  0  0  0  0
    2.7431   -1.5771    2.8385 C   0  0  1  0  0  0  0  0  0  0  0  0
    1.9657   -0.4656    3.5434 C   0  0  0  0  0  0  0  0  0  0  0  0
    4.0627   -1.9205    3.5261 C   0  0  0  0  0  0  0  0  0  0  0  0
    4.8706   -2.9415    2.7356 C   0  0  0  0  0  0  0  0  0  0  0  0
  1  2  2  0
  2  3  1  0
  2 21  1  0
  3  4  2  0
  5 21  1  0
  6  7  2  0
  7 20  1  0
  8 20  1  0
  8 22  2  0
  9  4  1  0
  9 10  2  0
  9 20  1  0
 10  1  1  0
 10  6  1  0
 11  8  1  0
 11 12  2  0
 11 16  1  0
 12 13  1  0
 13 14  2  0
 14 15  1  0
 14 25  1  0
 15 16  2  0
 17  7  1  0
 18  6  1  0
 18 19  1  0
 19 23  2  0
 19 26  1  0
 27 26  1  0
 27 28  1  1
 27 29  1  0
 28 24  1  0
 29 30  1  0
M  END
>  <DRUGBANK_ID>  (1) 
DB07981

>  <COMMON_NAME>  (1) 
2-[1-(4-chlorobenzoyl)-5-methoxy-2-methyl-1H-indol-3-yl]-n-[(1R)-1-(hydroxymethyl)propyl]acetamide

$$$$
