
     RDKit          3D

 23 25  0  0  0  0  0  0  0  0999 V2000
    0.0308   -0.6631   -0.0045 C   0  0  0  0  0  0  0  0  0  0  0  0
   -0.0043    0.7296   -0.0030 C   0  0  0  0  0  0  0  0  0  0  0  0
    1.2220   -1.3710   -0.0065 O   0  0  0  0  0  0  0  0  0  0  0  0
   -1.1863   -1.3674   -0.0022 C   0  0  0  0  0  0  0  0  0  0  0  0
    1.2509    1.4709    0.0018 C   0  0  0  0  0  0  0  0  0  0  0  0
   -1.2248    1.4136   -0.0016 C   0  0  0  0  0  0  0  0  0  0  0  0
    2.4238   -0.6546    0.0217 C   0  0  0  0  0  0  0  0  0  0  0  0
   -2.4179   -0.6772    0.0001 C   0  0  0  0  0  0  0  0  0  0  0  0
    2.5073    0.6955    0.0062 C   0  0  0  0  0  0  0  0  0  0  0  0
    1.2334    2.7062    0.0094 O   0  0  0  0  0  0  0  0  0  0  0  0
   -2.4233    0.7171   -0.0004 C   0  0  0  0  0  0  0  0  0  0  0  0
   -1.3257    2.7801   -0.0008 O   0  0  0  0  0  0  0  0  0  0  0  0
    3.6691   -1.4657    0.0443 C   0  0  0  0  0  0  0  0  0  0  0  0
   -3.5565   -1.4449    0.0025 O   0  0  0  0  0  0  0  0  0  0  0  0
    3.6792    1.4315    0.0019 O   0  0  0  0  0  0  0  0  0  0  0  0
    4.5811   -1.3388    1.1136 C   0  0  0  0  0  0  0  0  0  0  0  0
    4.0522   -2.2232   -1.0725 C   0  0  0  0  0  0  0  0  0  0  0  0
   -4.7989   -0.7326    0.0021 C   0  0  0  0  0  0  0  0  0  0  0  0
    5.8216   -1.9749    1.0608 C   0  0  0  0  0  0  0  0  0  0  0  0
    5.3663   -2.6973   -1.1890 C   0  0  0  0  0  0  0  0  0  0  0  0
    6.2227   -2.6224   -0.1011 C   0  0  0  0  0  0  0  0  0  0  0  0
    6.6832   -1.9612    2.1214 O   0  0  0  0  0  0  0  0  0  0  0  0
    7.4466   -3.2207   -0.1869 O   0  0  0  0  0  0  0  0  0  0  0  0
  1  2  2  0
  1  3  1  0
  1  4  1  0
  2  5  1  0
  2  6  1  0
  3  7  1  0
  4  8  2  0
  5  9  1  0
  5 10  2  0
  6 11  2  0
  6 12  1  0
  7 13  1  0
  7  9  2  0
  8 14  1  0
  8 11  1  0
  9 15  1  0
 13 16  2  0
 13 17  1  0
 14 18  1  0
 16 19  1  0
 17 20  2  0
 19 21  2  0
 19 22  1  0
 20 21  1  0
 21 23  1  0
M  END
>  <DRUGBANK_ID>  (1) 
DB16772

>  <COMMON_NAME>  (1) 
Rhamnetin

>  <CAS_NUMBER>  (1) 
90-19-7

>  <UNII>  (1) 
71803L5F4S

>  <SYNONYMS>  (1) 
7-Methoxyquercetin; 7-Methylquercetin; 7-O-Methylquercetin; beta-Rhamnocitrin; Quercetin 7-methyl ether

$$$$
