1165
     RDKit          3D

 26 29  0  0  1  0  0  0  0  0999 V2000
    0.8894    0.0098    0.0695 F   0  0  0  0  0  0  0  0  0  0  0  0
    4.9237    2.4730    0.1315 O   0  0  0  0  0  0  0  0  0  0  0  0
    4.3448   -3.4858    0.0671 O   0  0  0  0  0  0  0  0  0  0  0  0
    8.6042   -3.6770    0.0563 O   0  0  0  0  0  0  0  0  0  0  0  0
    6.7163   -4.8491    0.0570 O   0  0  0  0  0  0  0  0  0  0  0  0
    2.2346    2.4907    0.1737 N   0  0  0  0  0  0  0  0  0  0  0  0
    6.4398   -0.0115    0.0981 N   0  0  0  0  0  0  0  0  0  0  0  0
    1.0034    5.0504    0.6541 N   0  0  0  0  0  0  0  0  0  0  0  0
    2.2304    3.5023   -0.8933 C   0  0  0  0  0  0  0  0  0  0  0  0
    1.1465    2.5996    1.1465 C   0  0  0  0  0  0  0  0  0  0  0  0
    7.1668    1.2607   -0.0110 C   0  0  0  0  0  0  0  0  0  0  0  0
    2.9040    1.2813    0.0432 C   0  0  0  0  0  0  0  0  0  0  0  0
    5.0393    0.0434    0.0484 C   0  0  0  0  0  0  0  0  0  0  0  0
    4.3229    1.2494    0.0393 C   0  0  0  0  0  0  0  0  0  0  0  0
    2.1695    4.9150   -0.2541 C   0  0  0  0  0  0  0  0  0  0  0  0
    1.1341    4.0323    1.7223 C   0  0  0  0  0  0  0  0  0  0  0  0
    6.3317    2.5439    0.0826 C   0  0  0  0  0  0  0  0  0  0  0  0
    4.3066   -1.1557    0.0500 C   0  0  0  0  0  0  0  0  0  0  0  0
    2.2311    0.0494    0.0481 C   0  0  0  0  0  0  0  0  0  0  0  0
    7.0801   -1.2475    0.1081 C   0  0  0  0  0  0  0  0  0  0  0  0
    2.9114   -1.1571    0.0483 C   0  0  0  0  0  0  0  0  0  0  0  0
    7.9095    1.2983   -1.3501 C   0  0  0  0  0  0  0  0  0  0  0  0
    5.0142   -2.4586    0.0677 C   0  0  0  0  0  0  0  0  0  0  0  0
    0.9277    6.3881    1.2249 C   0  0  0  0  0  0  0  0  0  0  0  0
    6.5076   -2.4640    0.0837 C   0  0  0  0  0  0  0  0  0  0  0  0
    7.2548   -3.7501    0.0666 C   0  0  0  0  0  0  0  0  0  0  0  0
  1 19  1  0
  2 14  1  0
  2 17  1  0
  3 23  2  0
  4 26  1  0
  5 26  2  0
  6  9  1  0
  6 10  1  0
  6 12  1  0
  7 11  1  0
  7 13  1  0
  7 20  1  0
  8 15  1  0
  8 16  1  0
  8 24  1  0
  9 15  1  0
 10 16  1  0
 11 17  1  0
 11 22  1  0
 12 14  1  0
 12 19  2  0
 13 14  2  0
 13 18  1  0
 18 21  2  0
 18 23  1  0
 19 21  1  0
 20 25  2  0
 23 25  1  0
 25 26  1  0
M  END
>  <DRUGBANK_ID>  (1) 
DB01165

>  <SECONDARY_ACCESSION_NUMBERS>  (1) 
APRD00502

>  <COMMON_NAME>  (1) 
Ofloxacin

>  <CAS_NUMBER>  (1) 
82419-36-1

>  <UNII>  (1) 
A4P49JAZ9H

>  <SYNONYMS>  (1) 
8-Fluoro-3-methyl-9-(4-methyl-piperazin-1-yl)-6-oxo-2,3-dihydro-6H-1-oxa-3a-aza-phenalene-5-carboxylic acid; Ofloxacin; Ofloxacine; Ofloxacino; Ofloxacinum; OFLX

$$$$
