
     RDKit          3D

 26 30  0  0  1  0  0  0  0  0999 V2000
    0.9900   -0.0424   -0.0395 C   0  0  0  0  0  0  0  0  0  0  0  0
    2.2680    6.1706    5.9314 C   0  0  0  0  0  0  0  0  0  0  0  0
    0.5389    0.8449    1.1199 C   0  0  0  0  0  0  0  0  0  0  0  0
    1.0368    5.2592    5.8420 C   0  0  0  0  0  0  0  0  0  0  0  0
    1.0790    9.2973   -0.2214 C   0  0  0  0  0  0  0  0  0  0  0  0
    1.0795    9.0675    1.1259 C   0  0  0  0  0  0  0  0  0  0  0  0
    2.1443    2.9286   -1.5476 C   0  0  0  0  0  0  0  0  0  0  0  0
    1.0506    8.2093   -1.0951 C   0  0  0  0  0  0  0  0  0  0  0  0
    1.0251    7.7749    1.6039 C   0  0  0  0  0  0  0  0  0  0  0  0
    2.3558    5.2980   -1.9747 C   0  0  0  0  0  0  0  0  0  0  0  0
    2.3782    2.5620    0.5297 C   0  0  0  0  0  0  0  0  0  0  0  0
    2.3014    1.8684   -2.5393 C   0  0  0  0  0  0  0  0  0  0  0  0
    3.4998    4.1189   -1.0356 C   0  0  0  0  0  0  0  0  0  0  0  0
    0.8086    3.1365    2.2517 C   0  0  0  0  0  0  0  0  0  0  0  0
    0.9083    6.8873   -0.5819 C   0  0  0  0  0  0  0  0  0  0  0  0
    1.1942    5.6083   -1.0554 C   0  0  0  0  0  0  0  0  0  0  0  0
    0.8472    6.6498    0.7936 C   0  0  0  0  0  0  0  0  0  0  0  0
    0.7737    4.4923    2.2572 C   0  0  0  0  0  0  0  0  0  0  0  0
    0.6301    4.6210   -0.1967 C   0  0  0  0  0  0  0  0  0  0  0  0
    0.7598    2.8698   -0.3085 C   0  0  2  0  0  0  0  0  0  0  0  0
    0.8763    5.1447    3.5728 C   0  0  0  0  0  0  0  0  0  0  0  0
    0.9921    2.3034    1.0151 C   0  0  2  0  0  0  0  0  0  0  0  0
    2.5013    2.4188   -1.1707 N   0  0  0  0  0  0  0  0  0  0  0  0
    0.7078    5.2510    1.0525 N   0  0  0  0  0  0  0  0  0  0  0  0
    0.7144    6.3384    3.7077 O   0  0  0  0  0  0  0  0  0  0  0  0
    1.0835    4.3946    4.6803 O   0  0  0  0  0  0  0  0  0  0  0  0
  3  1  1  0
  4  2  1  0
  6  5  2  0
  8  5  1  0
  9  6  1  0
 11  7  1  0
 12  7  1  0
 13 10  1  0
 15  8  2  0
 16 10  1  0
 16 15  1  0
 17  9  2  0
 17 15  1  0
 18 14  2  0
 19 16  2  0
 20 19  1  0
 21 18  1  0
 22  3  1  1
 22 11  1  0
 22 14  1  0
 22 20  1  0
 23 12  1  0
 23 13  1  0
 20 23  1  6
 24 17  1  0
 24 18  1  0
 24 19  1  0
 25 21  2  0
 26  4  1  0
 26 21  1  0
M  END
>  <DRUGBANK_ID>  (1) 
DB12131

>  <COMMON_NAME>  (1) 
Vinpocetine

>  <CAS_NUMBER>  (1) 
42971-09-5

>  <UNII>  (1) 
543512OBTC

>  <SYNONYMS>  (1) 
CERACTIN; ETHYL APOVINCAMIN-22-OATE; Vinpocetina; Vinpocetine

$$$$
