
     RDKit          3D

 23 25  0  0  1  0  0  0  0  0999 V2000
    1.9160    0.1409   -0.3348 C   0  0  1  0  0  0  0  0  0  0  0  0
    2.5602    1.1025   -1.2939 C   0  0  0  0  0  0  0  0  0  0  0  0
    3.8615    1.5450   -0.6202 C   0  0  0  0  0  0  0  0  0  0  0  0
    3.7791    1.0174    0.8165 C   0  0  2  0  0  0  0  0  0  0  0  0
    4.5483   -0.2480    1.0555 C   0  0  2  0  0  0  0  0  0  0  0  0
    3.9935   -1.4349   -0.4066 C   0  0  2  0  0  0  0  0  0  0  0  0
    2.3640   -1.2802   -0.6654 C   0  0  0  0  0  0  0  0  0  0  0  0
    4.5834   -3.1666   -0.6357 C   0  0  0  0  0  0  0  0  0  0  0  0
    3.7908   -4.1092   -1.2576 C   0  0  0  0  0  0  0  0  0  0  0  0
    4.0755   -5.4897   -1.0181 C   0  0  0  0  0  0  0  0  0  0  0  0
    4.9542   -5.9532   -0.0124 C   0  0  0  0  0  0  0  0  0  0  0  0
    5.4180   -7.9484    0.2855 I   0  0  0  0  0  0  0  0  0  0  0  0
    5.7015   -5.0578    0.6792 C   0  0  0  0  0  0  0  0  0  0  0  0
    5.7395   -3.7805    0.1160 C   0  0  0  0  0  0  0  0  0  0  0  0
    4.7006   -0.5047    3.0477 C   0  0  0  0  0  0  0  0  0  0  0  0
    5.6751   -0.7941    3.6883 O   0  0  0  0  0  0  0  0  0  0  0  0
    3.5403   -0.8541    3.7857 O   0  0  0  0  0  0  0  0  0  0  0  0
    3.3180   -2.1467    4.5069 C   0  0  0  0  0  0  0  0  0  0  0  0
    2.3832    0.6153    0.9499 N   0  0  0  0  0  0  0  0  0  0  0  0
    2.2120   -0.4200    1.9632 C   0  0  0  0  0  0  0  0  0  0  0  0
    3.0547   -1.9895    1.8331 C   0  0  0  0  0  0  0  0  0  0  0  0
    4.7889   -2.3897    1.8689 C   0  0  0  0  0  0  0  0  0  0  0  0
    5.9811   -1.7139    1.9807 F   0  0  0  0  0  0  0  0  0  0  0  0
  1  2  1  6
  1  7  1  0
  1 19  1  0
  2  3  1  0
  4  3  1  6
  4 19  1  0
  5  4  1  0
  5  6  1  0
  5 15  1  1
  6  7  1  0
  6  8  1  1
  8  9  2  0
  8 14  1  0
  9 10  1  0
 10 11  2  0
 11 12  1  0
 11 13  1  0
 13 14  2  0
 15 16  2  0
 15 17  1  0
 17 18  1  0
 19 20  1  0
 20 21  1  0
 21 22  1  0
 22 23  1  0
M  ISO  1  23  18
M  END
>  <DRUGBANK_ID>  (1) 
DB16913

>  <COMMON_NAME>  (1) 
Ioflupane F-18

>  <CAS_NUMBER>  (1) 
186381-69-1

>  <UNII>  (1) 
NT4P0L3OCX

>  <SYNONYMS>  (1) 
(18f)fp-cit; 18f-beta-cit-fp; 18f-cit-fp; 18f-fp-.beta.-cit; 18f-fpcit; 18f-ioflupane; 18fluorine-n-3-fluoropropyl-2beta-carbomethoxy-3beta-(4-iodophenyl) nortropane; 8-azabicyclo(3.2.1)octane-2-carboxylic acid, 8-(3-(fluoro-18f)propyl)-3-(4-iodophenyl)-, methyl ester, (1r,2s,3s,5s)-; F-18-fpcit; Methyl (1s,3s,4s,5r)-8-(3-fluoranylpropyl)-3-(4-iodophenyl)-8-azabicyclo(3.2.1)octane-4-carboxylate

$$$$
