
     RDKit          3D

 23 25  0  0  0  0  0  0  0  0999 V2000
    2.2886    1.6624   -0.0612 F   0  0  0  0  0  0  0  0  0  0  0  0
    1.2590    0.8165   -0.0282 C   0  0  0  0  0  0  0  0  0  0  0  0
   -0.0079    1.3267    0.0454 C   0  0  0  0  0  0  0  0  0  0  0  0
   -1.0434    0.4292    0.1910 C   0  0  0  0  0  0  0  0  0  0  0  0
   -2.1709    1.0734    0.4012 F   0  0  0  0  0  0  0  0  0  0  0  0
   -0.9618   -0.9519    0.1762 C   0  0  0  0  0  0  0  0  0  0  0  0
   -1.9449   -1.8949    0.3179 O   0  0  0  0  0  0  0  0  0  0  0  0
   -3.3519   -1.6024    0.4155 C   0  0  0  0  0  0  0  0  0  0  0  0
   -3.7860   -0.6016    1.4453 C   0  0  0  0  0  0  0  0  0  0  0  0
   -3.5079   -1.0811    2.7369 C   0  0  0  0  0  0  0  0  0  0  0  0
   -3.4519   -0.2199    3.8070 C   0  0  0  0  0  0  0  0  0  0  0  0
   -3.6753    1.1335    3.5922 C   0  0  0  0  0  0  0  0  0  0  0  0
   -4.0414    1.6151    2.3210 C   0  0  0  0  0  0  0  0  0  0  0  0
   -4.1998    0.7506    1.2095 C   0  0  0  0  0  0  0  0  0  0  0  0
   -4.6412    1.4096   -0.1560 C   0  0  0  0  0  0  0  0  0  0  0  0
   -6.0027    0.8609   -0.5868 C   0  0  0  0  0  0  0  0  0  0  0  0
   -5.8640   -0.5206   -1.2059 C   0  0  0  0  0  0  0  0  0  0  0  0
   -4.8851   -0.5963   -2.3107 N   0  0  0  0  0  0  0  0  0  0  0  0
   -3.6116    0.1331   -2.1662 C   0  0  0  0  0  0  0  0  0  0  0  0
   -3.7699    1.4697   -1.4619 C   0  0  0  0  0  0  0  0  0  0  0  0
    0.3419   -1.4284    0.0393 C   0  0  0  0  0  0  0  0  0  0  0  0
    0.5692   -2.7465    0.0007 F   0  0  0  0  0  0  0  0  0  0  0  0
    1.4401   -0.5560   -0.0268 C   0  0  0  0  0  0  0  0  0  0  0  0
  1  2  1  0
  2  3  2  0
  2 23  1  0
  3  4  1  0
  4  5  1  0
  4  6  2  0
  6  7  1  0
  6 21  1  0
  7  8  1  0
  8  9  1  0
  9 10  2  0
  9 14  1  0
 10 11  1  0
 11 12  2  0
 12 13  1  0
 13 14  2  0
 14 15  1  0
 15 16  1  0
 15 20  1  0
 16 17  1  0
 17 18  1  0
 18 19  1  0
 19 20  1  0
 21 22  1  0
 21 23  2  0
M  END
>  <DRUGBANK_ID>  (1) 
DB15348

>  <COMMON_NAME>  (1) 
Ampreloxetine

>  <CAS_NUMBER>  (1) 
1227056-84-9

>  <UNII>  (1) 
19997EZ42I

>  <SYNONYMS>  (1) 
Ampreloxetine

$$$$
