
     RDKit          3D

 28 32  0  0  1  0  0  0  0  0999 V2000
   -0.4765   -0.6379   -2.6940 C   0  0  0  0  0  0  0  0  0  0  0  0
   -1.9531   -1.1578   -4.3401 C   0  0  2  0  0  0  0  0  0  0  0  0
   -3.3795   -1.3262   -6.3311 C   0  0  0  0  0  0  0  0  0  0  0  0
   -4.5496   -1.8198   -8.2122 C   0  0  0  0  0  0  0  0  0  0  0  0
   -3.9002   -2.4466   -9.6233 C   0  0  0  0  0  0  0  0  0  0  0  0
   -3.6749   -3.1179   -8.4208 C   0  0  0  0  0  0  0  0  0  0  0  0
   -2.5072   -2.6106   -7.9369 C   0  0  0  0  0  0  0  0  0  0  0  0
   -1.7468   -1.7433   -8.6887 C   0  0  0  0  0  0  0  0  0  0  0  0
   -0.5919   -1.3805   -8.1753 F   0  0  0  0  0  0  0  0  0  0  0  0
   -2.0962   -1.4010   -9.9783 C   0  0  0  0  0  0  0  0  0  0  0  0
   -3.2572   -1.6758  -10.5118 N   0  0  0  0  0  0  0  0  0  0  0  0
   -5.1316   -3.5563   -7.4022 C   0  0  1  0  0  0  0  0  0  0  0  0
   -5.4830   -4.7855   -8.1330 C   0  0  0  0  0  0  0  0  0  0  0  0
   -4.6790   -5.7750   -7.3518 C   0  0  0  0  0  0  0  0  0  0  0  0
   -3.8828   -4.9831   -6.2674 C   0  0  0  0  0  0  0  0  0  0  0  0
   -4.6405   -3.7661   -6.0899 N   0  0  0  0  0  0  0  0  0  0  0  0
   -4.8475   -2.9324   -4.9636 C   0  0  0  0  0  0  0  0  0  0  0  0
   -3.8924   -2.4572   -4.2092 N   0  0  0  0  0  0  0  0  0  0  0  0
   -4.2000   -1.6436   -3.1235 C   0  0  0  0  0  0  0  0  0  0  0  0
   -3.5229   -0.8115   -2.2794 C   0  0  0  0  0  0  0  0  0  0  0  0
   -4.1993   -0.3255   -1.2591 C   0  0  0  0  0  0  0  0  0  0  0  0
   -5.4577   -0.5276   -1.5781 N   0  0  0  0  0  0  0  0  0  0  0  0
   -5.4450   -1.3184   -2.7149 N   0  0  0  0  0  0  0  0  0  0  0  0
   -6.4708   -1.8174   -3.4800 C   0  0  0  0  0  0  0  0  0  0  0  0
   -6.2360   -2.5628   -4.5712 C   0  0  0  0  0  0  0  0  0  0  0  0
   -2.3382   -0.2605   -2.5040 C   0  0  0  0  0  0  0  0  0  0  0  0
   -1.8282    0.6156   -3.2567 O   0  0  0  0  0  0  0  0  0  0  0  0
   -1.8635   -1.5736   -2.4800 N   0  0  0  0  0  0  0  0  0  0  0  0
  2  1  1  1
  2  3  1  0
  2 28  1  0
  3  4  1  0
  4  5  1  0
  5  6  2  0
  5 11  1  0
  6  7  1  0
  7  8  2  0
  8  9  1  0
  8 10  1  0
 10 11  2  0
 12  6  1  0
 12 13  1  6
 12 16  1  0
 13 14  1  0
 14 15  1  0
 15 16  1  0
 16 17  1  0
 17 18  2  0
 17 25  1  0
 18 19  1  0
 19 20  2  0
 19 23  1  0
 20 21  1  0
 20 26  1  0
 21 22  2  0
 22 23  1  0
 23 24  1  0
 24 25  2  0
 26 27  2  0
 26 28  1  0
M  END
>  <DRUGBANK_ID>  (1) 
DB14896

>  <COMMON_NAME>  (1) 
Selitrectinib

>  <CAS_NUMBER>  (1) 
2097002-61-2

>  <UNII>  (1) 
0J45910S3X

>  <SYNONYMS>  (1) 
Selitrectinib

$$$$
