
     RDKit          3D

 28 31  0  0  0  0  0  0  0  0999 V2000
    0.9198   -0.0415    0.0578 C   0  0  0  0  0  0  0  0  0  0  0  0
    0.4000    1.3664    0.3058 C   0  0  0  0  0  0  0  0  0  0  0  0
    0.8772    2.3081   -0.6898 N   0  0  0  0  0  0  0  0  0  0  0  0
    0.0097    2.8786   -1.6229 C   0  0  0  0  0  0  0  0  0  0  0  0
   -1.1416    3.5356   -1.1654 C   0  0  0  0  0  0  0  0  0  0  0  0
   -1.9968    4.1578   -2.0588 C   0  0  0  0  0  0  0  0  0  0  0  0
   -1.6700    4.0948   -3.3994 C   0  0  0  0  0  0  0  0  0  0  0  0
   -0.5645    3.4775   -3.8945 N   0  0  0  0  0  0  0  0  0  0  0  0
    0.2655    2.8519   -3.0228 C   0  0  0  0  0  0  0  0  0  0  0  0
    1.3709    2.1954   -3.5321 N   0  0  0  0  0  0  0  0  0  0  0  0
    1.6091    0.7675   -3.3327 C   0  0  0  0  0  0  0  0  0  0  0  0
    3.0050    0.5494   -2.7078 C   0  0  0  0  0  0  0  0  0  0  0  0
    4.0289    1.2089   -3.5231 N   0  0  0  0  0  0  0  0  0  0  0  0
    3.7614    2.6578   -3.7301 C   0  0  0  0  0  0  0  0  0  0  0  0
    2.3591    2.8882   -4.3587 C   0  0  0  0  0  0  0  0  0  0  0  0
    5.1963    0.6208   -3.9976 C   0  0  0  0  0  0  0  0  0  0  0  0
    6.0265    1.2944   -4.6213 O   0  0  0  0  0  0  0  0  0  0  0  0
    5.4603   -0.7831   -3.7084 C   0  0  0  0  0  0  0  0  0  0  0  0
    6.5906   -1.3056   -3.0965 C   0  0  0  0  0  0  0  0  0  0  0  0
    6.4545   -2.7156   -2.9861 C   0  0  0  0  0  0  0  0  0  0  0  0
    7.2402   -3.7380   -2.4095 C   0  0  0  0  0  0  0  0  0  0  0  0
    6.7921   -5.0667   -2.4281 C   0  0  0  0  0  0  0  0  0  0  0  0
    5.5844   -5.3736   -3.0525 C   0  0  0  0  0  0  0  0  0  0  0  0
    4.8027   -4.3799   -3.6669 C   0  0  0  0  0  0  0  0  0  0  0  0
    5.2533   -3.0532   -3.6042 C   0  0  0  0  0  0  0  0  0  0  0  0
    4.7011   -1.8780   -4.0842 N   0  0  0  0  0  0  0  0  0  0  0  0
    7.6136   -5.9673   -1.7984 O   0  0  0  0  0  0  0  0  0  0  0  0
    7.1809   -7.3248   -1.7790 C   0  0  0  0  0  0  0  0  0  0  0  0
  1  2  1  0
  2  3  1  0
  3  4  1  0
  4  5  2  0
  4  9  1  0
  5  6  1  0
  6  7  2  0
  7  8  1  0
  8  9  2  0
  9 10  1  0
 10 11  1  0
 10 15  1  0
 11 12  1  0
 12 13  1  0
 13 14  1  0
 13 16  1  0
 14 15  1  0
 16 17  2  0
 16 18  1  0
 18 19  2  0
 18 26  1  0
 19 20  1  0
 20 21  2  0
 20 25  1  0
 21 22  1  0
 22 23  2  0
 22 27  1  0
 23 24  1  0
 24 25  2  0
 25 26  1  0
 27 28  1  0
M  END
>  <DRUGBANK_ID>  (1) 
DB12264

>  <COMMON_NAME>  (1) 
Atevirdine

>  <CAS_NUMBER>  (1) 
136816-75-6

>  <UNII>  (1) 
N24015WC6D

>  <SYNONYMS>  (1) 
Atevirdine

$$$$
