FE1
     RDKit          3D

 33 36  0  0  0  0  0  0  0  0999 V2000
    1.1225    0.2378   -0.0425 O   0  0  0  0  0  0  0  0  0  0  0  0
    2.3444    0.1146   -0.0742 C   0  0  0  0  0  0  0  0  0  0  0  0
    3.1031    0.2237   -1.2358 N   0  0  0  0  0  0  0  0  0  0  0  0
    4.2467   -0.6241   -1.5479 C   0  0  0  0  0  0  0  0  0  0  0  0
    5.4796    0.2320   -1.8092 C   0  0  0  0  0  0  0  0  0  0  0  0
    2.7180    1.1345   -2.3005 C   0  0  0  0  0  0  0  0  0  0  0  0
    3.8923    2.0860   -2.5688 C   0  0  0  0  0  0  0  0  0  0  0  0
    5.2013    1.3245   -2.8552 C   0  0  0  0  0  0  0  0  0  0  0  0
    6.3873    2.2721   -2.9676 C   0  0  0  0  0  0  0  0  0  0  0  0
    7.0524    2.4001   -3.9933 O   0  0  0  0  0  0  0  0  0  0  0  0
    6.6278    2.9398   -1.8059 O   0  0  0  0  0  0  0  0  0  0  0  0
    7.7402    3.8430   -1.8507 C   0  0  0  0  0  0  0  0  0  0  0  0
    3.0889   -0.0579    1.2022 C   0  0  0  0  0  0  0  0  0  0  0  0
    2.6811   -0.9791    2.1552 C   0  0  0  0  0  0  0  0  0  0  0  0
    3.4476   -1.1626    3.3192 C   0  0  0  0  0  0  0  0  0  0  0  0
    4.6039   -0.4059    3.6077 C   0  0  0  0  0  0  0  0  0  0  0  0
    4.9779    0.5094    2.6134 C   0  0  0  0  0  0  0  0  0  0  0  0
    4.2045    0.7317    1.4672 C   0  0  0  0  0  0  0  0  0  0  0  0
    5.2933   -0.5240    4.8117 N   0  0  0  0  0  0  0  0  0  0  0  0
    6.4741    0.2813    5.1377 C   0  0  0  0  0  0  0  0  0  0  0  0
    4.7912   -1.3868    5.9090 C   0  0  0  0  0  0  0  0  0  0  0  0
    3.3933   -1.0357    6.3994 C   0  0  0  0  0  0  0  0  0  0  0  0
    2.5198   -2.0432    6.6407 N   0  0  0  0  0  0  0  0  0  0  0  0
    1.2394   -1.6863    6.9976 C   0  0  0  0  0  0  0  0  0  0  0  0
    0.8227   -0.3598    7.1380 C   0  0  0  0  0  0  0  0  0  0  0  0
    1.7133    0.6185    6.9149 N   0  0  0  0  0  0  0  0  0  0  0  0
    2.9763    0.2738    6.5448 C   0  0  0  0  0  0  0  0  0  0  0  0
    0.2368   -2.6167    7.2520 C   0  0  0  0  0  0  0  0  0  0  0  0
    0.5361   -3.9725    7.1665 N   0  0  0  0  0  0  0  0  0  0  0  0
   -1.0180   -2.2950    7.6164 N   0  0  0  0  0  0  0  0  0  0  0  0
   -1.2934   -0.9962    7.7276 C   0  0  0  0  0  0  0  0  0  0  0  0
   -0.4180   -0.0205    7.4961 N   0  0  0  0  0  0  0  0  0  0  0  0
   -2.5539   -0.6408    8.1203 N   0  0  0  0  0  0  0  0  0  0  0  0
  1  2  2  0
  2  3  1  0
  2 13  1  0
  3  4  1  0
  3  6  1  0
  4  5  1  0
  5  8  1  0
  6  7  1  0
  7  8  1  0
  8  9  1  0
  9 10  2  0
  9 11  1  0
 11 12  1  0
 13 14  2  0
 13 18  1  0
 14 15  1  0
 15 16  2  0
 16 17  1  0
 16 19  1  0
 17 18  2  0
 19 20  1  0
 19 21  1  0
 21 22  1  0
 22 23  2  0
 22 27  1  0
 23 24  1  0
 24 25  2  0
 24 28  1  0
 25 26  1  0
 25 32  1  0
 26 27  2  0
 28 29  1  0
 28 30  2  0
 30 31  1  0
 31 32  2  0
 31 33  1  0
M  END
>  <DRUGBANK_ID>  (1) 
DB07765

>  <COMMON_NAME>  (1) 
METHYL 1-(4-{[(2,4-DIAMINOPTERIDIN-6-YL)METHYL](METHYL)AMINO}BENZOYL)PIPERIDINE-4-CARBOXYLATE

$$$$
