
     RDKit          3D

 25 26  0  0  0  0  0  0  0  0999 V2000
    1.0990    0.0049    0.0292 C   0  0  0  0  0  0  0  0  0  0  0  0
   -6.0146    3.2108   -1.9852 C   0  0  0  0  0  0  0  0  0  0  0  0
   -5.3096    4.3671   -1.6826 C   0  0  0  0  0  0  0  0  0  0  0  0
   -5.3736    1.9757   -2.0493 C   0  0  0  0  0  0  0  0  0  0  0  0
   -1.6708    4.5837   -2.8583 C   0  0  0  0  0  0  0  0  0  0  0  0
   -4.0057    4.2449   -1.2274 C   0  0  0  0  0  0  0  0  0  0  0  0
   -4.0346    1.8786   -1.7730 C   0  0  0  0  0  0  0  0  0  0  0  0
   -0.6722    4.3216   -3.8996 C   0  0  0  0  0  0  0  0  0  0  0  0
   -1.9469    2.6437   -0.8747 C   0  0  0  0  0  0  0  0  0  0  0  0
   -1.2855    3.2808    0.5063 C   0  0  0  0  0  0  0  0  0  0  0  0
   -0.7871    4.7621   -1.5831 C   0  0  0  0  0  0  0  0  0  0  0  0
    0.5705    1.4227    0.3639 C   0  0  1  0  0  0  0  0  0  0  0  0
   -3.3697    2.9793   -1.2437 C   0  0  0  0  0  0  0  0  0  0  0  0
   -1.4882    2.2391    1.5183 C   0  0  1  0  0  0  0  0  0  0  0  0
    0.5581    3.6540   -3.1602 C   0  0  1  0  0  0  0  0  0  0  0  0
    1.0291    2.5653   -0.9149 C   0  0  0  0  0  0  0  0  0  0  0  0
   -3.0077    2.3404    1.6874 C   0  0  0  0  0  0  0  0  0  0  0  0
    1.6768    4.6447   -3.3979 C   0  0  0  0  0  0  0  0  0  0  0  0
   -0.8226    1.1023    0.8763 N   0  0  0  0  0  0  0  0  0  0  0  0
    0.3307    3.6449   -1.6877 N   0  0  0  0  0  0  0  0  0  0  0  0
    2.2455    2.4059   -1.1758 O   0  0  0  0  0  0  0  0  0  0  0  0
   -3.5559    3.3055    2.1945 O   0  0  0  0  0  0  0  0  0  0  0  0
   -3.7414    1.5025    0.9312 O   0  0  0  0  0  0  0  0  0  0  0  0
    1.6132    5.6408   -4.0648 O   0  0  0  0  0  0  0  0  0  0  0  0
    2.7742    4.3772   -2.6727 O   0  0  0  0  0  0  0  0  0  0  0  0
  3  2  2  0
  4  2  1  0
  6  3  1  0
  7  4  2  0
  8  5  1  0
 10  9  1  0
 11  5  1  0
 12  1  1  6
 13  6  2  0
 13  7  1  0
 13  9  1  0
 14 10  1  6
 14 19  1  0
 15  8  1  0
 15 18  1  1
 16 12  1  0
 17 14  1  0
 19 12  1  0
 20 11  1  0
 20 15  1  0
 20 16  1  0
 21 16  2  0
 22 17  2  0
 23 17  1  0
 24 18  2  0
 25 18  1  0
M  END
>  <DRUGBANK_ID>  (1) 
DB09477

>  <COMMON_NAME>  (1) 
Enalaprilat

>  <CAS_NUMBER>  (1) 
76420-72-9

>  <UNII>  (1) 
Q508Q118JM

>  <SYNONYMS>  (1) 
Enalaprilat; Enalaprilat anhydrous

$$$$
