
     RDKit          3D

 16 16  0  0  0  0  0  0  0  0999 V2000
    1.0613    0.0529   -0.0629 C   0  0  0  0  0  0  0  0  0  0  0  0
    0.2815    0.5549   -1.2497 C   0  0  0  0  0  0  0  0  0  0  0  0
   -1.0683    0.5893   -1.2961 C   0  0  0  0  0  0  0  0  0  0  0  0
   -1.8479    1.0890   -2.4091 C   0  0  0  0  0  0  0  0  0  0  0  0
   -3.1843    1.0488   -2.5138 C   0  0  0  0  0  0  0  0  0  0  0  0
   -3.9499    1.5379   -3.7050 C   0  0  0  0  0  0  0  0  0  0  0  0
    2.2893    0.0462   -0.0575 O   0  0  0  0  0  0  0  0  0  0  0  0
    0.3680   -0.3882    1.0029 O   0  0  0  0  0  0  0  0  0  0  0  0
    1.0805    0.9830   -2.3084 O   0  0  0  0  0  0  0  0  0  0  0  0
   -5.1750    1.5889   -3.6508 O   0  0  0  0  0  0  0  0  0  0  0  0
   -1.4638    1.7773   -6.5686 C   0  0  0  0  0  0  0  0  0  0  0  0
   -1.8872    2.9543   -7.1797 C   0  0  0  0  0  0  0  0  0  0  0  0
   -2.9666    3.6677   -6.6552 C   0  0  0  0  0  0  0  0  0  0  0  0
   -3.6602    3.1786   -5.5454 C   0  0  0  0  0  0  0  0  0  0  0  0
   -3.2414    1.9942   -4.9309 C   0  0  0  0  0  0  0  0  0  0  0  0
   -2.1599    1.2809   -5.4684 C   0  0  0  0  0  0  0  0  0  0  0  0
  1  2  1  0
  1  8  1  0
  1  7  2  0
  2  3  2  0
  2  9  1  0
  3  4  1  0
  4  5  2  0
  5  6  1  0
  6 10  2  0
  6 15  1  0
 11 16  2  0
 11 12  1  0
 12 13  2  0
 13 14  1  0
 14 15  2  0
 15 16  1  0
M  END
>  <DRUGBANK_ID>  (1) 
DB07914

>  <COMMON_NAME>  (1) 
2-hydroxy-6-oxo-6-phenyl-2,4-hexadienoic acid

>  <CAS_NUMBER>  (1) 
50480-67-6

$$$$
