1471
     RDKit          3D

 23 26  0  0  1  0  0  0  0  0999 V2000
    1.3629   -2.8446    6.1885 O   0  0  0  0  0  0  0  0  0  0  0  0
   -6.0042   -8.4714    0.0296 O   0  0  0  0  0  0  0  0  0  0  0  0
   -0.8663   -4.4224    4.0532 C   0  0  2  0  0  0  0  0  0  0  0  0
    0.6338   -4.3369    4.1395 C   0  0  1  0  0  0  0  0  0  0  0  0
   -1.5023   -4.7805    2.7651 C   0  0  1  0  0  0  0  0  0  0  0  0
   -1.1842   -6.2277    2.4228 C   0  0  1  0  0  0  0  0  0  0  0  0
    0.5325   -3.9319    5.7862 C   0  0  2  0  0  0  0  0  0  0  0  0
   -2.5332   -6.9740    1.5886 C   0  0  2  0  0  0  0  0  0  0  0  0
    1.1483   -5.7487    3.5213 C   0  0  0  0  0  0  0  0  0  0  0  0
    0.4139   -6.1605    2.1506 C   0  0  0  0  0  0  0  0  0  0  0  0
   -1.3808   -3.1455    4.6900 C   0  0  0  0  0  0  0  0  0  0  0  0
   -2.9840   -4.7475    2.9199 C   0  0  1  0  0  0  0  0  0  0  0  0
   -0.9596   -3.4373    6.0926 C   0  0  0  0  0  0  0  0  0  0  0  0
   -3.4593   -4.8341    1.3146 C   0  0  0  0  0  0  0  0  0  0  0  0
   -3.2315   -6.1936    0.5401 C   0  0  0  0  0  0  0  0  0  0  0  0
    1.2412   -3.2759    3.2028 C   0  0  0  0  0  0  0  0  0  0  0  0
   -4.3478   -6.9705    2.2623 C   0  0  0  0  0  0  0  0  0  0  0  0
    0.8300   -5.2100    6.5517 C   0  0  0  0  0  0  0  0  0  0  0  0
   -1.6109   -7.8953    0.6429 C   0  0  0  0  0  0  0  0  0  0  0  0
   -3.2551   -5.7563    4.2497 C   0  0  0  0  0  0  0  0  0  0  0  0
   -5.7094   -6.5789    1.3454 C   0  0  0  0  0  0  0  0  0  0  0  0
   -3.9952   -7.1161   -0.2025 C   0  0  0  0  0  0  0  0  0  0  0  0
   -5.3989   -7.4655    0.2540 C   0  0  0  0  0  0  0  0  0  0  0  0
  2 23  2  0
  3  4  1  0
  3  5  1  0
  3 11  1  6
  4  7  1  0
  4  9  1  0
  4 16  1  6
  5  6  1  0
  5 12  1  1
  6  8  1  0
  6 10  1  6
  7  1  1  0
  7 13  1  0
  7 18  1  1
  8 15  1  0
  8 17  1  0
  8 19  1  6
  9 10  1  0
 11 13  1  0
 12 14  1  0
 12 20  1  1
 14 15  1  0
 15 22  2  0
 17 21  1  0
 21 23  1  0
 22 23  1  0
M  END
>  <DRUGBANK_ID>  (1) 
DB01471

>  <COMMON_NAME>  (1) 
Bolasterone

>  <CAS_NUMBER>  (1) 
1605-89-6

>  <UNII>  (1) 
T7ZM08F7FU

>  <SYNONYMS>  (1) 
Bolasterone

$$$$
