
     RDKit          3D

 24 25  0  0  0  0  0  0  0  0999 V2000
   -1.5447   -1.7478    0.0107 C   0  0  0  0  0  0  0  0  0  0  0  0
    5.5613   -4.0513    4.8118 C   0  0  0  0  0  0  0  0  0  0  0  0
    1.8687   -0.4340    0.0195 C   0  0  0  0  0  0  0  0  0  0  0  0
    5.4401   -0.3953    4.7554 C   0  0  0  0  0  0  0  0  0  0  0  0
    0.2642    3.0126    0.0118 C   0  0  0  0  0  0  0  0  0  0  0  0
    1.6625   -0.7875    4.5914 C   0  0  0  0  0  0  0  0  0  0  0  0
    3.0182    1.7844    0.1376 C   0  0  0  0  0  0  0  0  0  0  0  0
    3.7383    1.4223    4.6679 C   0  0  0  0  0  0  0  0  0  0  0  0
   -0.4163   -0.7566    0.0017 C   0  0  0  0  0  0  0  0  0  0  0  0
    4.9983   -2.6594    4.7651 C   0  0  0  0  0  0  0  0  0  0  0  0
    1.7523    0.9576    0.0796 C   0  0  0  0  0  0  0  0  0  0  0  0
    4.0882   -0.0488    4.6710 C   0  0  0  0  0  0  0  0  0  0  0  0
    0.4480    1.5140    0.0485 C   0  0  0  0  0  0  0  0  0  0  0  0
    3.1372   -1.0994    4.6503 C   0  0  0  0  0  0  0  0  0  0  0  0
   -0.6452    0.6267    0.0151 C   0  0  0  0  0  0  0  0  0  0  0  0
    3.6184   -2.4223    4.6878 C   0  0  0  0  0  0  0  0  0  0  0  0
    0.8268   -1.2905   -0.0094 N   0  0  0  0  0  0  0  0  0  0  0  0
    5.9086   -1.6594    4.8057 N   0  0  0  0  0  0  0  0  0  0  0  0
    0.7407    3.6367    1.1916 O   0  0  0  0  0  0  0  0  0  0  0  0
    1.2588   -0.0564    5.7413 O   0  0  0  0  0  0  0  0  0  0  0  0
   -1.9502    1.0323   -0.0038 O   0  0  0  0  0  0  0  0  0  0  0  0
    2.8052   -3.5208    4.6725 O   0  0  0  0  0  0  0  0  0  0  0  0
    4.0704    1.4678    1.6071 S   0  0  0  0  0  0  0  0  0  0  0  0
    2.8890    2.0610    3.1836 S   0  0  0  0  0  0  0  0  0  0  0  0
  9  1  1  0
 10  2  1  0
 11  3  2  0
 11  7  1  0
 12  4  2  0
 12  8  1  0
 13  5  1  0
 13 11  1  0
 14  6  1  0
 14 12  1  0
 15  9  1  0
 15 13  2  0
 16 10  1  0
 16 14  2  0
 17  3  1  0
 17  9  2  0
 18  4  1  0
 18 10  2  0
 19  5  1  0
 20  6  1  0
 21 15  1  0
 22 16  1  0
 23  7  1  0
 24  8  1  0
 24 23  1  0
M  END
>  <DRUGBANK_ID>  (1) 
DB13084

>  <COMMON_NAME>  (1) 
Pyritinol

>  <CAS_NUMBER>  (1) 
1098-97-1

>  <UNII>  (1) 
AK5Q5FZH2R

>  <SYNONYMS>  (1) 
Pyritinol

$$$$
