
     RDKit          3D

 14 13  0  0  1  0  0  0  0  0999 V2000
   -2.6729    0.6692    1.2518 O   0  0  0  0  0  0  0  0  0  0  0  0
   -1.2397    0.8738    1.1248 C   0  0  0  0  0  0  0  0  0  0  0  0
   -0.4670    0.5974    2.4579 C   0  0  1  0  0  0  0  0  0  0  0  0
   -0.8996   -0.4383    3.3354 O   0  0  0  0  0  0  0  0  0  0  0  0
    0.8768    1.2400    2.9361 C   0  0  2  0  0  0  0  0  0  0  0  0
    1.9189    0.6116    2.1962 O   0  0  0  0  0  0  0  0  0  0  0  0
    1.1292    1.1483    4.5289 C   0  0  1  0  0  0  0  0  0  0  0  0
    2.5545    1.2263    4.7150 O   0  0  0  0  0  0  0  0  0  0  0  0
    0.5139    2.2276    5.5227 C   0  0  0  0  0  0  0  0  0  0  0  0
   -0.9212    2.3264    5.6317 O   0  0  0  0  0  0  0  0  0  0  0  0
   -1.4979    2.7331    4.0522 P   0  0  0  0  0  0  0  0  0  0  0  0
   -2.7145    1.6658    4.3281 O   0  0  0  0  0  0  0  0  0  0  0  0
   -2.2587    3.9503    4.8276 O   0  0  0  0  0  0  0  0  0  0  0  0
   -2.0140    3.0971    2.6385 O   0  0  0  0  0  0  0  0  0  0  0  0
  1  2  1  0
  2  3  1  0
  3  4  1  6
  5  7  1  0
  5  6  1  6
  5  3  1  0
  7  8  1  6
  7  9  1  0
  9 10  1  0
 10 11  1  0
 11 12  1  0
 11 13  1  0
 11 14  2  0
M  END
>  <DRUGBANK_ID>  (1) 
DB02630

>  <SECONDARY_ACCESSION_NUMBERS>  (1) 
EXPT02071

>  <COMMON_NAME>  (1) 
L-xylitol 5-phosphate

>  <CAS_NUMBER>  (1) 
64913-51-5

>  <SYNONYMS>  (1) 
Xylitol 5-P; Xylitol 5-phosphate

$$$$
