
     RDKit          3D

 18 19  0  0  0  0  0  0  0  0999 V2000
    1.1328    0.0897    0.1416 C   0  0  0  0  0  0  0  0  0  0  0  0
    0.2669    0.5724    1.2288 N   0  0  0  0  0  0  0  0  0  0  0  0
   -1.2919    0.5810    1.5779 C   0  0  0  0  0  0  0  0  0  0  0  0
   -0.5631   -1.3299   -0.8360 N   0  0  0  0  0  0  0  0  0  0  0  0
    0.6811   -0.7151   -1.1905 C   0  0  0  0  0  0  0  0  0  0  0  0
    2.3946    0.3200    0.2423 O   0  0  0  0  0  0  0  0  0  0  0  0
   -2.3181   -0.4999    1.4825 C   0  0  0  0  0  0  0  0  0  0  0  0
   -1.9093    1.8778    1.5778 C   0  0  0  0  0  0  0  0  0  0  0  0
   -1.4895   -0.1401   -0.9861 C   0  0  0  0  0  0  0  0  0  0  0  0
   -0.0388   -2.2278    0.4176 C   0  0  0  0  0  0  0  0  0  0  0  0
   -4.2120    0.9351    1.2302 C   0  0  0  0  0  0  0  0  0  0  0  0
    1.3727   -1.9772   -1.7838 C   0  0  0  0  0  0  0  0  0  0  0  0
   -3.3373    2.0000    1.3705 C   0  0  0  0  0  0  0  0  0  0  0  0
   -3.7049   -0.3018    1.3419 C   0  0  0  0  0  0  0  0  0  0  0  0
   -2.2911   -1.9680    1.2253 C   0  0  0  0  0  0  0  0  0  0  0  0
   -1.1615    3.1926    1.5039 C   0  0  0  0  0  0  0  0  0  0  0  0
    0.4539   -3.5434   -0.1123 C   0  0  0  0  0  0  0  0  0  0  0  0
    1.6957   -3.0985   -0.7846 C   0  0  0  0  0  0  0  0  0  0  0  0
  2  1  1  0
  3  2  1  0
  4  5  1  0
  5  1  1  0
  6  1  2  0
  7  3  2  0
  8  3  1  0
  9  4  1  0
 10  4  1  0
 11 13  1  0
 12  5  1  0
 13  8  2  0
 14  7  1  0
 14 11  2  0
 15  7  1  0
 16  8  1  0
 17 18  1  0
 17 10  1  0
 18 12  1  0
M  END
>  <DRUGBANK_ID>  (1) 
DB00961

>  <SECONDARY_ACCESSION_NUMBERS>  (1) 
APRD01094

>  <COMMON_NAME>  (1) 
Mepivacaine

>  <CAS_NUMBER>  (1) 
96-88-8

>  <UNII>  (1) 
B6E06QE59J

>  <SYNONYMS>  (1) 
(+-)-1-Methyl-2',6'-pipecoloxylidide; 1-methyl-2',6'-pipecoloxylidide; DL-Mepivacaine; Mepivacaina; Mepivacaine; Mepivacainum; N-(2,6-Dimethylphenyl)-1-methyl-2-piperidinecarboxamide; N-(2,6-Dimethylphenyl)-1-methylpiperidine-2-carboxamide

$$$$
