
     RDKit          3D

 42 45  0  0  0  0  0  0  0  0999 V2000
    1.2256   -1.3450    0.0001 C   0  0  0  0  0  0  0  0  0  0  0  0
    2.3949   -0.6814   -0.0021 N   0  0  0  0  0  0  0  0  0  0  0  0
    2.3288    0.6491   -0.0025 C   0  0  0  0  0  0  0  0  0  0  0  0
    1.1928    1.3460    0.0016 N   0  0  0  0  0  0  0  0  0  0  0  0
    0.0407    0.6702    0.0027 C   0  0  0  0  0  0  0  0  0  0  0  0
   -0.0181   -0.7253   -0.0005 C   0  0  0  0  0  0  0  0  0  0  0  0
   -1.1139    1.3606    0.0058 N   0  0  0  0  0  0  0  0  0  0  0  0
   -2.2835    0.6699   -0.0150 C   0  0  0  0  0  0  0  0  0  0  0  0
   -2.3391   -0.7080   -0.0422 C   0  0  0  0  0  0  0  0  0  0  0  0
   -1.1952   -1.4272   -0.0140 N   0  0  0  0  0  0  0  0  0  0  0  0
   -3.6581   -1.4368   -0.0804 C   0  0  0  0  0  0  0  0  0  0  0  0
   -3.7968   -2.2490   -1.2970 N   0  0  0  0  0  0  0  0  0  0  0  0
   -3.8563   -3.6181   -1.1557 C   0  0  0  0  0  0  0  0  0  0  0  0
   -4.7306   -4.1032   -0.2290 C   0  0  0  0  0  0  0  0  0  0  0  0
   -4.8782   -5.4535   -0.0593 C   0  0  0  0  0  0  0  0  0  0  0  0
   -4.0698   -6.4229   -0.6345 C   0  0  0  0  0  0  0  0  0  0  0  0
   -3.0691   -5.9231   -1.4723 C   0  0  0  0  0  0  0  0  0  0  0  0
   -3.0526   -4.5469   -1.8222 C   0  0  0  0  0  0  0  0  0  0  0  0
   -4.2465   -7.9129   -0.4672 C   0  0  0  0  0  0  0  0  0  0  0  0
   -3.4528   -8.6789   -1.0157 O   0  0  0  0  0  0  0  0  0  0  0  0
   -5.2800   -8.4811    0.2485 N   0  0  0  0  0  0  0  0  0  0  0  0
   -6.3649   -7.9049    1.0300 C   0  0  1  0  0  0  0  0  0  0  0  0
   -7.7250   -8.0945    0.3604 C   0  0  0  0  0  0  0  0  0  0  0  0
   -8.2689   -9.4950    0.5179 C   0  0  0  0  0  0  0  0  0  0  0  0
   -8.3979   -9.9050    1.9803 C   0  0  0  0  0  0  0  0  0  0  0  0
   -9.1556   -8.9712    2.7998 N   0  0  0  0  0  0  0  0  0  0  0  0
  -10.2963   -9.3968    3.4453 C   0  0  0  0  0  0  0  0  0  0  0  0
  -11.2101   -8.3477    3.9754 C   0  0  0  0  0  0  0  0  0  0  0  0
  -10.5670  -10.5762    3.6379 O   0  0  0  0  0  0  0  0  0  0  0  0
  -11.7396   -7.2804    3.2191 C   0  0  0  0  0  0  0  0  0  0  0  0
  -12.6184   -6.3870    3.8602 C   0  0  0  0  0  0  0  0  0  0  0  0
  -12.8186   -6.4375    5.2407 C   0  0  0  0  0  0  0  0  0  0  0  0
  -12.2392   -7.4525    5.9872 C   0  0  0  0  0  0  0  0  0  0  0  0
  -11.5563   -8.4766    5.3350 C   0  0  0  0  0  0  0  0  0  0  0  0
  -11.4035   -7.1076    1.7654 C   0  0  0  0  0  0  0  0  0  0  0  0
  -11.7951   -5.9516    1.1817 O   0  0  0  0  0  0  0  0  0  0  0  0
  -10.7529   -7.8871    1.1248 O   0  0  0  0  0  0  0  0  0  0  0  0
   -6.1059   -7.9226    2.5680 C   0  0  0  0  0  0  0  0  0  0  0  0
   -6.1064   -6.7065    3.1759 O   0  0  0  0  0  0  0  0  0  0  0  0
   -5.8293   -8.9131    3.2270 O   0  0  0  0  0  0  0  0  0  0  0  0
    1.2902   -2.7334    0.0189 N   0  0  0  0  0  0  0  0  0  0  0  0
    3.5076    1.3416   -0.0054 N   0  0  0  0  0  0  0  0  0  0  0  0
  1  2  2  0
  1  6  1  0
  1 41  1  0
  2  3  1  0
  3  4  2  0
  3 42  1  0
  4  5  1  0
  5  7  1  0
  5  6  2  0
  6 10  1  0
  7  8  2  0
  8  9  1  0
  9 10  2  0
  9 11  1  0
 11 12  1  0
 12 13  1  0
 13 14  2  0
 13 18  1  0
 14 15  1  0
 15 16  2  0
 16 17  1  0
 16 19  1  0
 17 18  2  0
 19 20  2  0
 19 21  1  0
 21 22  1  0
 22 23  1  1
 22 38  1  0
 23 24  1  0
 24 25  1  0
 25 26  1  0
 26 27  1  0
 27 28  1  0
 27 29  2  0
 28 30  2  0
 28 34  1  0
 30 31  1  0
 30 35  1  0
 31 32  2  0
 32 33  1  0
 33 34  2  0
 35 36  1  0
 35 37  2  0
 38 39  1  0
 38 40  2  0
M  END
>  <DRUGBANK_ID>  (1) 
DB06178

>  <COMMON_NAME>  (1) 
Talotrexin

>  <CAS_NUMBER>  (1) 
113857-87-7

>  <UNII>  (1) 
A8E516A20K

>  <SYNONYMS>  (1) 
Talotrexin

$$$$
