
     RDKit          3D

 34 36  0  0  1  0  0  0  0  0999 V2000
    1.1286    0.2725   -0.3167 O   0  0  0  0  0  0  0  0  0  0  0  0
    0.1678   -1.7735    0.8007 O   0  0  0  0  0  0  0  0  0  0  0  0
    3.3312   -9.5790   -6.3302 O   0  0  0  0  0  0  0  0  0  0  0  0
   -0.0159   -5.5247   -7.3988 O   0  0  0  0  0  0  0  0  0  0  0  0
   -0.3950   -7.5163   -8.3171 O   0  0  0  0  0  0  0  0  0  0  0  0
    0.8210   -6.0664  -12.0701 O   0  0  0  0  0  0  0  0  0  0  0  0
    0.2947   -7.7632  -10.7252 O   0  0  0  0  0  0  0  0  0  0  0  0
    2.2764   -2.4173   -0.0588 N   0  0  0  0  0  0  0  0  0  0  0  0
    5.0776   -2.4000    0.1171 N   0  0  0  0  0  0  0  0  0  0  0  0
    4.1947   -4.8173   -2.2018 N   0  0  0  0  0  0  0  0  0  0  0  0
    5.0487   -0.0166   -0.1050 N   0  0  0  0  0  0  0  0  0  0  0  0
    3.1142    1.2913   -0.0316 N   0  0  0  0  0  0  0  0  0  0  0  0
    2.4835   -8.0460   -7.7091 N   0  0  0  0  0  0  0  0  0  0  0  0
    5.1545    2.2799   -0.0835 N   0  0  0  0  0  0  0  0  0  0  0  0
    3.0573   -3.6194   -0.4377 C   0  0  2  0  0  0  0  0  0  0  0  0
    4.3581   -3.6426    0.3859 C   0  0  0  0  0  0  0  0  0  0  0  0
    3.4080   -3.6181   -1.9436 C   0  0  0  0  0  0  0  0  0  0  0  0
    3.0031   -1.2011   -0.0061 C   0  0  0  0  0  0  0  0  0  0  0  0
    4.3733   -1.2047   -0.0019 C   0  0  0  0  0  0  0  0  0  0  0  0
    2.3272    0.1621   -0.0946 C   0  0  0  0  0  0  0  0  0  0  0  0
    0.9357   -2.5700    0.2834 C   0  0  0  0  0  0  0  0  0  0  0  0
    3.9162   -5.6459   -3.2510 C   0  0  0  0  0  0  0  0  0  0  0  0
    4.3958    1.1674   -0.0633 C   0  0  0  0  0  0  0  0  0  0  0  0
    3.3357   -5.1675   -4.3872 C   0  0  0  0  0  0  0  0  0  0  0  0
    4.1898   -7.0112   -3.1651 C   0  0  0  0  0  0  0  0  0  0  0  0
    1.9451   -6.7820   -8.1853 C   0  0  1  0  0  0  0  0  0  0  0  0
    2.7414   -6.2069   -9.3525 C   0  0  0  0  0  0  0  0  0  0  0  0
    3.3072   -7.4067   -5.3909 C   0  0  0  0  0  0  0  0  0  0  0  0
    3.0564   -6.0314   -5.4163 C   0  0  0  0  0  0  0  0  0  0  0  0
    3.8828   -7.8908   -4.2139 C   0  0  0  0  0  0  0  0  0  0  0  0
    3.0357   -8.3946   -6.4978 C   0  0  0  0  0  0  0  0  0  0  0  0
    2.5469   -6.9641  -10.6430 C   0  0  0  0  0  0  0  0  0  0  0  0
    0.4104   -6.6539   -8.0257 C   0  0  0  0  0  0  0  0  0  0  0  0
    1.1188   -6.9808  -11.1285 C   0  0  0  0  0  0  0  0  0  0  0  0
  1 20  2  0
  2 21  2  0
  3 31  2  0
  4 33  1  0
  5 33  2  0
  6 34  1  0
  7 34  2  0
  8 15  1  0
  8 18  1  0
  8 21  1  0
  9 16  1  0
  9 19  1  0
 10 17  1  0
 10 22  1  0
 11 19  1  0
 11 23  1  0
 12 20  1  0
 12 23  2  0
 13 31  1  0
 14 23  1  0
 15 16  1  0
 15 17  1  6
 18 19  2  0
 18 20  1  0
 22 24  2  0
 22 25  1  0
 24 29  1  0
 25 30  2  0
 26 13  1  0
 26 27  1  6
 26 33  1  0
 27 32  1  0
 28 29  2  0
 28 30  1  0
 28 31  1  0
 32 34  1  0
M  END
>  <DRUGBANK_ID>  (1) 
DB11596

>  <COMMON_NAME>  (1) 
Levoleucovorin

>  <CAS_NUMBER>  (1) 
68538-85-2

>  <UNII>  (1) 
990S25980Y

>  <SYNONYMS>  (1) 
(6S)-5-Formyl-5,6,7,8-tetrahydrofolic acid; (6S)-5-formyltetrahydrofolic acid; (6S)-Folinic acid; (6S)-Leucovorin; (S)-Leucovorin; ácido levofolínico; Citrovorum factor; L-Folinic acid; Levofolene; Levofolinic acid; N-[4-({[(6S)-2-amino-5-formyl-4-oxo-1,4,5,6,7,8-hexahydropteridin-6-yl]methyl}amino)benzoyl]-L-glutamic acid

$$$$
