PU5
     RDKit          3D

 23 25  0  0  0  0  0  0  0  0999 V2000
    1.4219   -0.0297    0.1540 C   0  0  0  0  0  0  0  0  0  0  0  0
    0.9463    0.5607    1.4950 C   0  0  0  0  0  0  0  0  0  0  0  0
    1.0774    2.0567    1.6212 C   0  0  0  0  0  0  0  0  0  0  0  0
    0.3072    2.8307    0.5344 C   0  0  0  0  0  0  0  0  0  0  0  0
   -1.1557    2.7690    0.5536 N   0  0  0  0  0  0  0  0  0  0  0  0
   -1.9446    3.8983    0.7361 C   0  0  0  0  0  0  0  0  0  0  0  0
   -1.5768    5.1668    0.9696 N   0  0  0  0  0  0  0  0  0  0  0  0
   -2.6636    5.9727    1.1029 C   0  0  0  0  0  0  0  0  0  0  0  0
   -1.7230    0.2685   -0.0571 C   0  0  0  0  0  0  0  0  0  0  0  0
   -3.9773    5.6447    1.0400 N   0  0  0  0  0  0  0  0  0  0  0  0
   -3.2477    3.4393    0.6193 C   0  0  0  0  0  0  0  0  0  0  0  0
   -4.2884    4.3599    0.7963 C   0  0  0  0  0  0  0  0  0  0  0  0
   -5.6036    3.9569    0.7140 N   0  0  0  0  0  0  0  0  0  0  0  0
   -3.2887    2.1169    0.3249 N   0  0  0  0  0  0  0  0  0  0  0  0
   -2.0298    1.7059    0.2857 C   0  0  0  0  0  0  0  0  0  0  0  0
   -3.4673   -0.8574    1.3260 C   0  0  0  0  0  0  0  0  0  0  0  0
   -2.1149   -0.7579    1.0133 C   0  0  0  0  0  0  0  0  0  0  0  0
   -1.2223   -1.6205    1.7108 C   0  0  0  0  0  0  0  0  0  0  0  0
   -3.9098   -1.7658    2.2813 C   0  0  0  0  0  0  0  0  0  0  0  0
   -3.0031   -2.5646    2.9828 C   0  0  0  0  0  0  0  0  0  0  0  0
   -1.6406   -2.4788    2.7281 C   0  0  0  0  0  0  0  0  0  0  0  0
   -0.8376   -3.2718    3.5046 O   0  0  0  0  0  0  0  0  0  0  0  0
    0.5784   -3.1452    3.3806 C   0  0  0  0  0  0  0  0  0  0  0  0
  1  2  1  0
  2  3  1  0
  3  4  1  0
  4  5  1  0
  5  6  1  0
  5 15  1  0
  6  7  2  0
  6 11  1  0
  7  8  1  0
  8 10  2  0
  9 15  1  0
  9 17  1  0
 10 12  1  0
 11 12  2  0
 11 14  1  0
 12 13  1  0
 14 15  2  0
 16 17  2  0
 16 19  1  0
 17 18  1  0
 18 21  2  0
 19 20  2  0
 20 21  1  0
 21 22  1  0
 22 23  1  0
M  END
>  <DRUGBANK_ID>  (1) 
DB03809

>  <SECONDARY_ACCESSION_NUMBERS>  (1) 
EXPT02696

>  <COMMON_NAME>  (1) 
9-Butyl-8-(3-Methoxybenzyl)-9h-Purin-6-Amine

$$$$
