
     RDKit          3D

 28 28  0  0  1  0  0  0  0  0999 V2000
    1.0009    0.2000    0.1414 C   0  0  0  0  0  0  0  0  0  0  0  0
    0.5477    0.0441   -1.3023 C   0  0  2  0  0  0  0  0  0  0  0  0
    0.5518   -1.4410   -1.7030 C   0  0  2  0  0  0  0  0  0  0  0  0
    1.4404   -1.8481   -2.8691 C   0  0  2  0  0  0  0  0  0  0  0  0
    2.0747   -0.7398   -3.6653 C   0  0  0  0  0  0  0  0  0  0  0  0
    1.9558    0.5829   -3.3799 C   0  0  0  0  0  0  0  0  0  0  0  0
    1.1975    1.0314   -2.1939 C   0  0  0  0  0  0  0  0  0  0  0  0
    1.0621    2.2435   -1.9460 O   0  0  0  0  0  0  0  0  0  0  0  0
    2.4929    1.6471   -4.0699 O   0  0  0  0  0  0  0  0  0  0  0  0
    3.2875    1.3772   -5.2002 C   0  0  0  0  0  0  0  0  0  0  0  0
    2.8529   -1.1223   -4.7510 O   0  0  0  0  0  0  0  0  0  0  0  0
    3.0395   -2.4927   -5.0694 C   0  0  0  0  0  0  0  0  0  0  0  0
    0.7133   -2.6814   -3.7846 O   0  0  0  0  0  0  0  0  0  0  0  0
   -0.8742   -1.9359   -1.9352 C   0  0  0  0  0  0  0  0  0  0  0  0
   -1.8008   -1.2453   -1.0373 C   0  0  0  0  0  0  0  0  0  0  0  0
   -2.7873   -0.4138   -1.4036 C   0  0  0  0  0  0  0  0  0  0  0  0
   -3.0928   -0.0885   -2.8344 C   0  0  0  0  0  0  0  0  0  0  0  0
   -3.5579    0.3402   -0.3464 C   0  0  0  0  0  0  0  0  0  0  0  0
   -4.3453   -0.6053    0.5677 C   0  0  0  0  0  0  0  0  0  0  0  0
   -3.4422   -1.4111    1.4436 C   0  0  0  0  0  0  0  0  0  0  0  0
   -3.2752   -1.4887    2.7651 C   0  0  0  0  0  0  0  0  0  0  0  0
   -4.1361   -0.7003    3.6825 C   0  0  0  0  0  0  0  0  0  0  0  0
   -2.2172   -2.4149    3.3522 C   0  0  0  0  0  0  0  0  0  0  0  0
   -2.3876   -3.9128    2.9969 C   0  0  0  0  0  0  0  0  0  0  0  0
   -2.1861   -4.2670    1.5406 C   0  0  0  0  0  0  0  0  0  0  0  0
   -1.1810   -4.9793    1.0087 C   0  0  0  0  0  0  0  0  0  0  0  0
   -1.0458   -5.1445   -0.4751 C   0  0  0  0  0  0  0  0  0  0  0  0
   -0.1929   -5.6785    1.8779 C   0  0  0  0  0  0  0  0  0  0  0  0
  2  1  1  1
  2  3  1  0
  2  7  1  0
  3  4  1  0
  3 14  1  6
  4  5  1  0
  4 13  1  6
  5  6  2  0
  5 11  1  0
  6  7  1  0
  6  9  1  0
  7  8  2  0
  9 10  1  0
 11 12  1  0
 14 15  1  0
 15 16  2  0
 16 17  1  0
 16 18  1  0
 18 19  1  0
 19 20  1  0
 20 21  2  0
 21 22  1  0
 21 23  1  0
 23 24  1  0
 24 25  1  0
 25 26  2  3
 26 27  1  0
 26 28  1  0
M  END
>  <DRUGBANK_ID>  (1) 
DB12326

>  <COMMON_NAME>  (1) 
Antroquinonol

>  <CAS_NUMBER>  (1) 
1010081-09-0

>  <UNII>  (1) 
AX9P92T7JZ

>  <SYNONYMS>  (1) 
HOCENA

$$$$
