
     RDKit          3D

 24 27  0  0  0  0  0  0  0  0999 V2000
    1.0306   -0.0572    0.0764 C   0  0  0  0  0  0  0  0  0  0  0  0
    0.5055   -0.7162   -1.1906 C   0  0  0  0  0  0  0  0  0  0  0  0
    1.0152   -2.0821   -1.2885 N   0  0  0  0  0  0  0  0  0  0  0  0
   -0.0439   -3.0575   -1.0167 C   0  0  0  0  0  0  0  0  0  0  0  0
    0.6084   -4.4089   -0.9939 C   0  0  0  0  0  0  0  0  0  0  0  0
    1.4239   -4.8267   -2.1982 C   0  0  0  0  0  0  0  0  0  0  0  0
    2.3609   -3.6946   -2.6038 C   0  0  0  0  0  0  0  0  0  0  0  0
    1.6272   -2.3507   -2.5942 C   0  0  0  0  0  0  0  0  0  0  0  0
    2.0866   -6.1040   -1.9832 O   0  0  0  0  0  0  0  0  0  0  0  0
    3.0960   -6.1567   -1.0457 C   0  0  0  0  0  0  0  0  0  0  0  0
    2.9154   -6.1261    0.3530 C   0  0  0  0  0  0  0  0  0  0  0  0
    3.9257   -6.1422    1.2597 N   0  0  0  0  0  0  0  0  0  0  0  0
    5.1928   -6.3000    0.8440 C   0  0  0  0  0  0  0  0  0  0  0  0
    5.4430   -6.4711   -0.5067 C   0  0  0  0  0  0  0  0  0  0  0  0
    4.4302   -6.4015   -1.4721 C   0  0  0  0  0  0  0  0  0  0  0  0
    5.0709   -6.6266   -2.7407 C   0  0  0  0  0  0  0  0  0  0  0  0
    6.4253   -6.8374   -2.5004 C   0  0  0  0  0  0  0  0  0  0  0  0
    6.6301   -6.7338   -1.1546 N   0  0  0  0  0  0  0  0  0  0  0  0
    7.3931   -7.0997   -3.4018 N   0  0  0  0  0  0  0  0  0  0  0  0
    6.9313   -7.1498   -4.6741 C   0  0  0  0  0  0  0  0  0  0  0  0
    5.6123   -6.9582   -5.0608 C   0  0  0  0  0  0  0  0  0  0  0  0
    4.6535   -6.6923   -4.0817 C   0  0  0  0  0  0  0  0  0  0  0  0
    1.6287   -6.0888    1.0231 C   0  0  0  0  0  0  0  0  0  0  0  0
    0.6029   -5.9587    1.5439 N   0  0  0  0  0  0  0  0  0  0  0  0
  1  2  1  0
  2  3  1  0
  3  4  1  0
  3  8  1  0
  4  5  1  0
  5  6  1  0
  6  7  1  0
  6  9  1  0
  7  8  1  0
  9 10  1  0
 10 11  2  0
 10 15  1  0
 11 12  1  0
 11 23  1  0
 12 13  2  0
 13 14  1  0
 14 15  2  0
 14 18  1  0
 15 16  1  0
 16 17  2  0
 16 22  1  0
 17 18  1  0
 17 19  1  0
 19 20  2  0
 20 21  1  0
 21 22  2  0
 23 24  3  0
M  END
>  <DRUGBANK_ID>  (1) 
DB14791

>  <COMMON_NAME>  (1) 
GDC-0425

>  <CAS_NUMBER>  (1) 
1627539-18-7

>  <UNII>  (1) 
4N173XZ7SX

$$$$
