2S2
     RDKit          3D

 17 18  0  0  0  0  0  0  0  0999 V2000
    0.8401   -0.3354   -0.0491 O   0  0  0  0  0  0  0  0  0  0  0  0
    0.3706    0.3494    1.0090 C   0  0  0  0  0  0  0  0  0  0  0  0
    1.1947    1.0129    1.6286 O   0  0  0  0  0  0  0  0  0  0  0  0
   -1.1558    0.2631    1.2085 C   0  0  1  0  0  0  0  0  0  0  0  0
   -1.7115    0.4713    2.6450 C   0  0  0  0  0  0  0  0  0  0  0  0
   -1.2416   -0.5356    3.6958 C   0  0  0  0  0  0  0  0  0  0  0  0
    0.2712   -0.5614    3.8935 C   0  0  0  0  0  0  0  0  0  0  0  0
    0.8217    0.8065    4.3019 C   0  0  0  0  0  0  0  0  0  0  0  0
   -1.7034    1.3077    0.2807 C   0  0  0  0  0  0  0  0  0  0  0  0
   -1.4820    2.7106    0.4378 C   0  0  0  0  0  0  0  0  0  0  0  0
   -0.8589    3.4878    1.4354 C   0  0  0  0  0  0  0  0  0  0  0  0
   -0.6870    4.8519    1.2613 C   0  0  0  0  0  0  0  0  0  0  0  0
   -1.1261    5.4519    0.0913 C   0  0  0  0  0  0  0  0  0  0  0  0
   -1.7635    4.7118   -0.9182 C   0  0  0  0  0  0  0  0  0  0  0  0
   -1.9301    3.3355   -0.7187 C   0  0  0  0  0  0  0  0  0  0  0  0
   -2.4718    2.3542   -1.5211 N   0  0  0  0  0  0  0  0  0  0  0  0
   -2.3345    1.1227   -0.9313 C   0  0  0  0  0  0  0  0  0  0  0  0
  2  1  1  0
  3  2  2  0
  4  2  1  0
  4  9  1  0
  4  5  1  1
  6  5  1  0
  7  6  1  0
  8  7  1  0
  9 10  1  0
 10 11  2  0
 11 12  1  0
 13 12  2  0
 14 13  1  0
 15 10  1  0
 15 14  2  0
 16 15  1  0
 17  9  2  0
 17 16  1  0
M  END
>  <DRUGBANK_ID>  (1) 
DB06980

>  <COMMON_NAME>  (1) 
(2S)-2-(1H-indol-3-yl)hexanoic acid

$$$$
