
     RDKit          3D

 27 29  0  0  1  0  0  0  0  0999 V2000
    0.9766   -0.0837   -0.1293 C   0  0  0  0  0  0  0  0  0  0  0  0
    3.4647    0.6648   -4.4846 C   0  0  0  0  0  0  0  0  0  0  0  0
    3.4120   -3.6284   -3.7073 C   0  0  0  0  0  0  0  0  0  0  0  0
    0.3922   -1.2980   -0.9205 C   0  0  2  0  0  0  0  0  0  0  0  0
    4.2499   -1.8848   -4.5953 C   0  0  0  0  0  0  0  0  0  0  0  0
    0.7079   -2.6861   -0.4233 C   0  0  2  0  0  0  0  0  0  0  0  0
    1.7651   -3.3073   -1.2802 C   0  0  2  0  0  0  0  0  0  0  0  0
    4.9712   -0.9097   -5.2889 C   0  0  0  0  0  0  0  0  0  0  0  0
    3.1459   -1.4410   -3.8968 C   0  0  0  0  0  0  0  0  0  0  0  0
    1.4103   -2.6593   -2.5733 C   0  0  2  0  0  0  0  0  0  0  0  0
    6.0826   -1.2226   -6.0318 N   0  0  0  0  0  0  0  0  0  0  0  0
    4.5538    0.3768   -5.2272 N   0  0  0  0  0  0  0  0  0  0  0  0
    2.7074   -0.1812   -3.7742 N   0  0  0  0  0  0  0  0  0  0  0  0
    4.4195   -3.2475   -4.4588 N   0  0  0  0  0  0  0  0  0  0  0  0
    2.5965   -2.5698   -3.3850 N   0  0  0  0  0  0  0  0  0  0  0  0
   -0.4485   -3.4742   -0.2642 O   0  0  0  0  0  0  0  0  0  0  0  0
    1.7076   -4.7280   -1.3805 O   0  0  0  0  0  0  0  0  0  0  0  0
    2.6876   -0.9005    1.9589 O   0  0  0  0  0  0  0  0  0  0  0  0
    0.5849   -0.8449    3.4279 O   0  0  0  0  0  0  0  0  0  0  0  0
   -0.1357   -4.2589    2.1119 O   0  0  0  0  0  0  0  0  0  0  0  0
    2.2014   -4.3831    1.1975 O   0  0  0  0  0  0  0  0  0  0  0  0
    1.6304   -5.2188    3.4663 O   0  0  0  0  0  0  0  0  0  0  0  0
    0.5653   -0.0216    1.2683 O   0  0  0  0  0  0  0  0  0  0  0  0
    0.8376   -1.3557   -2.2792 O   0  0  0  0  0  0  0  0  0  0  0  0
    1.7186   -2.7984    2.9801 O   0  0  0  0  0  0  0  0  0  0  0  0
    1.1419   -1.4100    2.1242 P   0  0  1  0  0  0  0  0  0  0  0  0
    1.4378   -4.2528    2.4212 S   0  0  0  0  0  0  0  0  0  0  0  0
  1 23  1  0
  2 13  2  0
  2 12  1  0
  3 15  1  0
  3 14  2  0
  4  1  1  1
  4  6  1  0
  4 24  1  0
  5  8  1  0
  5  9  2  0
  5 14  1  0
  6  7  1  0
  6 16  1  6
  7 10  1  0
  7 17  1  6
  8 11  1  0
  8 12  2  0
  9 13  1  0
  9 15  1  0
 10 24  1  0
 10 15  1  6
 26 18  1  1
 19 26  2  0
 20 27  1  0
 21 27  2  0
 22 27  2  0
 23 26  1  0
 25 26  1  0
 25 27  1  0
M  END
>  <DRUGBANK_ID>  (1) 
DB03708

>  <SECONDARY_ACCESSION_NUMBERS>  (1) 
EXPT00441

>  <COMMON_NAME>  (1) 
Adenosine 5'-phosphosulfate

>  <CAS_NUMBER>  (1) 
485-84-7

>  <UNII>  (1) 
U98POO8KQU

>  <SYNONYMS>  (1) 
5'-adenylyl sulfate; adenosine phosphosulfate; Adenosine-5'-phosphosulfate; Adenylylsulfate; APS

$$$$
