
     RDKit          3D

 27 29  0  0  0  0  0  0  0  0999 V2000
    0.4255    4.8697   -1.3296 C   0  0  0  0  0  0  0  0  0  0  0  0
   -0.2571    5.3563   -2.4777 C   0  0  0  0  0  0  0  0  0  0  0  0
   -0.1464    6.7006   -2.8260 N   0  0  0  0  0  0  0  0  0  0  0  0
    1.2249    5.8113   -0.5566 C   0  0  0  0  0  0  0  0  0  0  0  0
    0.3229    3.5298   -0.9523 C   0  0  0  0  0  0  0  0  0  0  0  0
    0.6409    7.5915   -2.1479 C   0  0  0  0  0  0  0  0  0  0  0  0
    1.4531    7.0353   -1.0320 C   0  0  0  0  0  0  0  0  0  0  0  0
   -0.6840    2.8215   -1.6235 C   0  0  0  0  0  0  0  0  0  0  0  0
   -1.0715    4.5422   -3.2485 C   0  0  0  0  0  0  0  0  0  0  0  0
    1.3885   -1.0111    0.0710 C   0  0  2  0  0  0  0  0  0  0  0  0
    2.0717    0.2946    0.3872 N   0  0  0  0  0  0  0  0  0  0  0  0
   -1.3616    3.2984   -2.7576 C   0  0  0  0  0  0  0  0  0  0  0  0
    0.6552    8.7751   -2.3895 O   0  0  0  0  0  0  0  0  0  0  0  0
    1.1918    2.8912    0.1611 C   0  0  2  0  0  0  0  0  0  0  0  0
    1.0395    1.3440    0.2880 C   0  0  0  0  0  0  0  0  0  0  0  0
   -1.5773    4.9677   -4.4426 O   0  0  0  0  0  0  0  0  0  0  0  0
    0.6776    3.4307    1.3845 O   0  0  0  0  0  0  0  0  0  0  0  0
    2.3340   -2.1989    0.2264 C   0  0  0  0  0  0  0  0  0  0  0  0
    0.6079   -1.1867   -1.3079 C   0  0  0  0  0  0  0  0  0  0  0  0
    0.9184   -0.2362   -2.4545 C   0  0  0  0  0  0  0  0  0  0  0  0
   -0.1001    0.3036   -3.2478 C   0  0  0  0  0  0  0  0  0  0  0  0
    0.2005    1.2927   -4.1962 C   0  0  0  0  0  0  0  0  0  0  0  0
    1.4481    1.9114   -4.1950 C   0  0  0  0  0  0  0  0  0  0  0  0
    2.4448    1.4060   -3.3754 C   0  0  0  0  0  0  0  0  0  0  0  0
    2.2158    0.2431   -2.6452 C   0  0  0  0  0  0  0  0  0  0  0  0
    1.5543    3.0302   -4.9731 O   0  0  0  0  0  0  0  0  0  0  0  0
    2.8849    3.4794   -5.2013 C   0  0  0  0  0  0  0  0  0  0  0  0
  2  1  2  0
  3  2  1  0
  4  1  1  0
  5  1  1  0
  6  7  1  0
  6  3  1  0
  7  4  2  0
  8 12  1  0
  8  5  2  0
  9  2  1  0
 10 11  1  0
 10 19  1  0
 10 18  1  6
 11 15  1  0
 12  9  2  0
 13  6  2  0
 14 17  1  1
 14 15  1  0
 14  5  1  0
 16  9  1  0
 19 20  1  0
 20 21  2  0
 21 22  1  0
 22 23  2  0
 23 24  1  0
 23 26  1  0
 24 25  2  0
 25 20  1  0
 26 27  1  0
M  END
>  <DRUGBANK_ID>  (1) 
DB15784

>  <COMMON_NAME>  (1) 
Carmoterol

>  <CAS_NUMBER>  (1) 
147568-66-9

>  <UNII>  (1) 
9810NUL4D1

>  <SYNONYMS>  (1) 
Carmoterol; Quinoterol

$$$$
