
     RDKit          3D

 36 38  0  0  1  0  0  0  0  0999 V2000
   -5.1664    0.5529   -2.9509 C   0  0  0  0  0  0  0  0  0  0  0  0
   -4.9582    1.9904   -2.4457 C   0  0  0  0  0  0  0  0  0  0  0  0
   -6.1794    2.6444   -1.8103 C   0  0  0  0  0  0  0  0  0  0  0  0
   -3.8869    2.1105   -1.5487 O   0  0  0  0  0  0  0  0  0  0  0  0
   -4.1107    1.3393   -0.4661 C   0  0  0  0  0  0  0  0  0  0  0  0
   -5.0730    0.6769   -0.2315 O   0  0  0  0  0  0  0  0  0  0  0  0
   -2.7543    1.2517    0.2046 C   0  0  1  0  0  0  0  0  0  0  0  0
   -1.9394    0.1976   -0.6279 C   0  0  0  0  0  0  0  0  0  0  0  0
   -2.0330    2.2149    1.1877 N   0  0  0  0  0  0  0  0  0  0  0  0
   -1.0157    2.2226    2.7399 P   0  0  2  0  0  0  0  0  0  0  0  0
   -1.9751    3.2953    3.2377 O   0  0  0  0  0  0  0  0  0  0  0  0
   -1.1200    0.5920    2.7962 O   0  0  0  0  0  0  0  0  0  0  0  0
   -1.8558   -0.3210    2.0482 C   0  0  0  0  0  0  0  0  0  0  0  0
   -3.4535   -0.4605    2.0973 C   0  0  1  0  0  0  0  0  0  0  0  0
   -3.8987   -1.6158    2.7224 O   0  0  0  0  0  0  0  0  0  0  0  0
   -4.0300   -1.2268    4.0531 C   0  0  1  0  0  0  0  0  0  0  0  0
   -2.9505   -2.0474    4.6452 N   0  0  0  0  0  0  0  0  0  0  0  0
   -1.5884   -2.1471    4.2436 C   0  0  0  0  0  0  0  0  0  0  0  0
   -0.6162   -2.6914    4.9758 C   0  0  0  0  0  0  0  0  0  0  0  0
   -1.0252   -3.3077    6.2177 C   0  0  0  0  0  0  0  0  0  0  0  0
   -0.1891   -3.8879    6.9214 O   0  0  0  0  0  0  0  0  0  0  0  0
   -2.3403   -3.1960    6.5499 N   0  0  0  0  0  0  0  0  0  0  0  0
   -3.3389   -2.6602    5.7978 C   0  0  0  0  0  0  0  0  0  0  0  0
   -4.5015   -2.6266    6.2212 O   0  0  0  0  0  0  0  0  0  0  0  0
   -4.1923    0.3701    4.1711 C   0  0  2  0  0  0  0  0  0  0  0  0
   -3.0114    1.0718    4.6044 C   0  0  0  0  0  0  0  0  0  0  0  0
   -5.4362    1.0629    5.2465 Cl  0  0  0  0  0  0  0  0  0  0  0  0
   -4.2912    0.7819    2.7528 C   0  0  2  0  0  0  0  0  0  0  0  0
   -5.6438    0.9783    2.3602 O   0  0  0  0  0  0  0  0  0  0  0  0
   -0.3346    1.7673    4.4154 O   0  0  0  0  0  0  0  0  0  0  0  0
   -0.6939    1.2263    5.8039 C   0  0  0  0  0  0  0  0  0  0  0  0
   -1.4570    0.0935    6.2127 C   0  0  0  0  0  0  0  0  0  0  0  0
   -2.3167   -0.0686    7.3531 C   0  0  0  0  0  0  0  0  0  0  0  0
   -2.0196    0.6445    8.4443 C   0  0  0  0  0  0  0  0  0  0  0  0
   -0.9449    1.5186    8.2709 C   0  0  0  0  0  0  0  0  0  0  0  0
   -0.3542    1.8808    6.9690 C   0  0  0  0  0  0  0  0  0  0  0  0
  1  2  1  0
  2  3  1  0
  2  4  1  0
  4  5  1  0
  5  6  2  0
  7  5  1  0
  7  8  1  6
  7  9  1  0
 10  9  1  0
 10 11  2  0
 10 12  1  0
 10 30  1  0
 12 13  1  0
 14 15  1  0
 14 13  1  1
 16 15  1  0
 16 17  1  1
 17 18  1  0
 17 23  1  0
 18 19  2  0
 19 20  1  0
 20 21  2  0
 20 22  1  0
 22 23  1  0
 23 24  2  0
 25 16  1  0
 25 28  1  0
 25 27  1  0
 25 26  1  1
 28 14  1  0
 28 29  1  6
 30 31  1  0
 31 32  2  0
 31 36  1  0
 32 33  1  0
 33 34  2  0
 34 35  1  0
 35 36  2  0
M  END
>  <DRUGBANK_ID>  (1) 
DB15206

>  <COMMON_NAME>  (1) 
Uprifosbuvir

>  <CAS_NUMBER>  (1) 
1496551-77-9

>  <UNII>  (1) 
JW31KPS26S

>  <SYNONYMS>  (1) 
Uprifosbuvir

$$$$
