
     RDKit          3D

 18 19  0  0  0  0  0  0  0  0999 V2000
    0.8769   -0.0428    0.0369 O   0  0  0  0  0  0  0  0  0  0  0  0
   -4.8966   -7.4523    1.2170 O   0  0  0  0  0  0  0  0  0  0  0  0
   -3.2564   -6.6834    2.4909 O   0  0  0  0  0  0  0  0  0  0  0  0
   -2.5363   -3.5428   -0.1918 N   0  0  0  0  0  0  0  0  0  0  0  0
   -1.9220   -4.4795    1.7047 N   0  0  0  0  0  0  0  0  0  0  0  0
   -3.7445   -5.5314    0.5225 N   0  0  0  0  0  0  0  0  0  0  0  0
   -1.4802   -2.7848    0.2697 C   0  0  0  0  0  0  0  0  0  0  0  0
   -1.1283   -3.3947    1.4648 C   0  0  0  0  0  0  0  0  0  0  0  0
    0.2615   -1.1597    0.5403 C   0  0  0  0  0  0  0  0  0  0  0  0
   -0.8127   -1.6546   -0.2205 C   0  0  0  0  0  0  0  0  0  0  0  0
   -0.0831   -2.8650    2.2350 C   0  0  0  0  0  0  0  0  0  0  0  0
   -2.7634   -4.5712    0.7015 C   0  0  0  0  0  0  0  0  0  0  0  0
    2.3099   -0.0640    0.0785 C   0  0  0  0  0  0  0  0  0  0  0  0
    0.6008   -1.7341    1.7670 C   0  0  0  0  0  0  0  0  0  0  0  0
    2.8296    1.2353   -0.5407 C   0  0  0  0  0  0  0  0  0  0  0  0
    2.3506    2.4513    0.2406 C   0  0  0  0  0  0  0  0  0  0  0  0
   -3.9097   -6.5369    1.4628 C   0  0  0  0  0  0  0  0  0  0  0  0
   -5.7613   -7.4547    0.0793 C   0  0  0  0  0  0  0  0  0  0  0  0
  1  9  1  0
  1 13  1  0
  2 17  1  0
  2 18  1  0
  3 17  2  0
  4  7  1  0
  4 12  1  0
  5  8  1  0
  5 12  2  0
  6 12  1  0
  6 17  1  0
  7  8  2  0
  7 10  1  0
  8 11  1  0
  9 10  2  0
  9 14  1  0
 11 14  2  0
 13 15  1  0
 15 16  1  0
M  END
>  <DRUGBANK_ID>  (1) 
DB04910

>  <COMMON_NAME>  (1) 
Oxibendazole

>  <CAS_NUMBER>  (1) 
20559-55-1

>  <UNII>  (1) 
022N12KJ0X

>  <SYNONYMS>  (1) 
5-Propoxy-2-benzimidazolecarbamic acid methyl ester; Methyl 5-n-propoxy-2-benzimidazole carbamate; Methyl 5-propoxy-2-benzimidazolecarbamate; Oxibendazole; Oxibendazolo; Oxibendazolum

$$$$
