
     RDKit          3D

 38 42  0  0  0  0  0  0  0  0999 V2000
    0.9614   -0.0921   -0.0057 P   0  0  2  0  0  0  0  0  0  0  0  0
    3.5031   -0.9415   -1.5256 O   0  0  0  0  0  0  0  0  0  0  0  0
    1.2533    3.6702   -1.4134 O   0  0  0  0  0  0  0  0  0  0  0  0
    0.6842    0.0708   -1.6741 O   0  0  0  0  0  0  0  0  0  0  0  0
    0.9675   -1.7205    0.2931 O   0  0  0  0  0  0  0  0  0  0  0  0
    5.3787   -2.8450   -1.4166 O   0  0  0  0  0  0  0  0  0  0  0  0
    2.7741    1.0253   -1.8657 O   0  0  0  0  0  0  0  0  0  0  0  0
   -0.7686   -0.0921   -0.0057 O   0  0  0  0  0  0  0  0  0  0  0  0
    2.5098   -0.0921   -0.0057 O   0  0  0  0  0  0  0  0  0  0  0  0
   -2.5489    4.2386   -1.9726 O   0  0  0  0  0  0  0  0  0  0  0  0
    1.4772    5.7130    0.0964 O   0  0  0  0  0  0  0  0  0  0  0  0
    4.4832    1.9039   -0.1137 N   0  0  0  0  0  0  0  0  0  0  0  0
   -0.3715    4.5988   -2.4687 N   0  0  0  0  0  0  0  0  0  0  0  0
    2.5467    2.3677    2.1009 N   0  0  0  0  0  0  0  0  0  0  0  0
    3.9458    4.1377   -0.7820 N   0  0  0  0  0  0  0  0  0  0  0  0
   -2.0291    5.7096   -3.6296 N   0  0  0  0  0  0  0  0  0  0  0  0
    0.9661    4.1275    1.5948 N   0  0  0  0  0  0  0  0  0  0  0  0
    0.3205    2.6868    3.1878 N   0  0  0  0  0  0  0  0  0  0  0  0
   -1.4815    7.0355   -5.3512 N   0  0  0  0  0  0  0  0  0  0  0  0
    0.4915    1.4791   -2.2433 C   0  0  2  0  0  0  0  0  0  0  0  0
    3.3146   -2.1472   -0.6154 C   0  0  1  0  0  0  0  0  0  0  0  0
    4.7676   -2.2273   -0.2680 C   0  0  2  0  0  0  0  0  0  0  0  0
    4.6163    0.2320   -0.8658 C   0  0  1  0  0  0  0  0  0  0  0  0
    5.3536   -0.7760   -0.0597 C   0  0  0  0  0  0  0  0  0  0  0  0
    1.6151    2.5160   -2.0255 C   0  0  2  0  0  0  0  0  0  0  0  0
   -0.5895    2.2413   -1.5377 C   0  0  0  0  0  0  0  0  0  0  0  0
   -0.1170    3.6946   -1.4346 C   0  0  1  0  0  0  0  0  0  0  0  0
    2.3155   -2.1904    0.6540 C   0  0  0  0  0  0  0  0  0  0  0  0
    2.1610    1.8724   -0.9442 C   0  0  0  0  0  0  0  0  0  0  0  0
    3.5822    2.7631    1.0905 C   0  0  0  0  0  0  0  0  0  0  0  0
    4.5630    3.0062   -1.1058 C   0  0  0  0  0  0  0  0  0  0  0  0
    3.2305    3.9835    0.4195 C   0  0  0  0  0  0  0  0  0  0  0  0
    0.6447    5.2544   -3.1557 C   0  0  0  0  0  0  0  0  0  0  0  0
   -1.6943    4.8282   -2.6639 C   0  0  0  0  0  0  0  0  0  0  0  0
    0.3499    5.8791   -4.2779 C   0  0  0  0  0  0  0  0  0  0  0  0
    1.8554    4.7442    0.6883 C   0  0  0  0  0  0  0  0  0  0  0  0
    1.3176    3.1131    2.2945 C   0  0  0  0  0  0  0  0  0  0  0  0
   -1.0839    6.1751   -4.3923 C   0  0  0  0  0  0  0  0  0  0  0  0
  1  4  1  0
  1  5  1  0
  1  8  1  1
  1  9  2  0
  2 21  1  0
  2 23  1  0
  3 25  1  0
  3 27  1  0
 20  4  1  1
  5 28  1  0
  7 29  1  0
 10 34  2  0
 11 36  2  0
 12 30  1  0
 12 31  1  0
 27 13  1  6
 13 33  1  0
 13 34  1  0
 14 30  1  0
 14 37  1  0
 15 31  2  0
 15 32  1  0
 16 34  1  0
 16 38  2  0
 17 36  1  0
 17 37  2  0
 18 37  1  0
 19 38  1  0
 20 25  1  0
 20 26  1  0
 21 22  1  0
 21 28  1  1
 22  6  1  6
 22 24  1  0
 23 24  1  0
 23 12  1  1
 25 29  1  1
 26 27  1  0
 30 32  2  0
 32 36  1  0
 33 35  2  0
 35 38  1  0
M  END
>  <DRUGBANK_ID>  (1) 
DB03326

>  <SECONDARY_ACCESSION_NUMBERS>  (1) 
EXPT00901

>  <COMMON_NAME>  (1) 
Deoxycytidylyl-3',5'-guanosine

>  <CAS_NUMBER>  (1) 
52474-59-6

$$$$
