
     RDKit          3D

 12 13  0  0  0  0  0  0  0  0999 V2000
   -0.2563   -0.9972    0.0026 N   0  0  0  0  0  0  0  0  0  0  0  0
    1.0365   -0.5692   -0.0005 C   0  0  0  0  0  0  0  0  0  0  0  0
    0.9728    0.8037    0.0031 C   0  0  0  0  0  0  0  0  0  0  0  0
   -0.4122    1.1187    0.0110 C   0  0  0  0  0  0  0  0  0  0  0  0
   -0.9370    2.4533    0.0074 C   0  0  0  0  0  0  0  0  0  0  0  0
   -2.2451    2.7728    0.0353 C   0  0  0  0  0  0  0  0  0  0  0  0
   -2.6770    4.1306   -0.0166 C   0  0  0  0  0  0  0  0  0  0  0  0
   -2.2161    5.1723   -0.8061 C   0  0  0  0  0  0  0  0  0  0  0  0
   -2.9044    6.3993   -0.5815 C   0  0  0  0  0  0  0  0  0  0  0  0
   -3.8800    6.2697    0.3788 C   0  0  0  0  0  0  0  0  0  0  0  0
   -3.9808    4.6685    0.9737 S   0  0  0  0  0  0  0  0  0  0  0  0
   -1.1531    0.0016    0.0059 N   0  0  0  0  0  0  0  0  0  0  0  0
  1  2  1  0
  1 12  1  0
  2  3  2  0
  3  4  1  0
  4  5  1  0
  4 12  2  0
  5  6  2  0
  6  7  1  0
  7  8  2  0
  7 11  1  0
  8  9  1  0
  9 10  2  0
 10 11  1  0
M  END
>  <DRUGBANK_ID>  (1) 
DB16397

>  <COMMON_NAME>  (1) 
Terevalefim

>  <CAS_NUMBER>  (1) 
1070881-42-3

>  <UNII>  (1) 
GG91UXK2M5

>  <SYNONYMS>  (1) 
Refanalin; Terevalefim

$$$$
