
     RDKit          3D

 24 23  0  0  0  0  0  0  0  0999 V2000
    4.0046   -2.4114    1.6428 C   0  0  0  0  0  0  0  0  0  0  0  0
    2.7552   -3.2541    1.4635 C   0  0  0  0  0  0  0  0  0  0  0  0
    5.0686   -2.9492    1.9604 O   0  0  0  0  0  0  0  0  0  0  0  0
    2.8780   -4.1825    0.2260 C   0  0  0  0  0  0  0  0  0  0  0  0
    3.9412   -5.2746    0.3322 C   0  0  0  0  0  0  0  0  0  0  0  0
    3.7248   -6.1764    1.5433 C   0  0  1  0  0  0  0  0  0  0  0  0
    2.3731   -6.9138    1.4389 C   0  0  0  0  0  0  0  0  0  0  0  0
    4.8546   -7.1052    1.6593 N   0  0  0  0  0  0  0  0  0  0  0  0
    2.4700   -8.2598    1.4017 O   0  0  0  0  0  0  0  0  0  0  0  0
    1.2804   -6.3549    1.3817 O   0  0  0  0  0  0  0  0  0  0  0  0
    4.0699   -1.0876    1.3608 N   0  0  0  0  0  0  0  0  0  0  0  0
    2.3356   -0.0293   -0.2297 C   0  0  0  0  0  0  0  0  0  0  0  0
    3.1139    0.0471    1.1270 C   0  0  2  0  0  0  0  0  0  0  0  0
    2.1098   -1.2912   -0.6863 N   0  0  0  0  0  0  0  0  0  0  0  0
    3.0407    2.9320    0.9687 S   0  0  0  0  0  0  0  0  0  0  0  0
    3.9482    1.3603    1.1280 C   0  0  0  0  0  0  0  0  0  0  0  0
    1.8187    0.9352   -0.7839 O   0  0  0  0  0  0  0  0  0  0  0  0
    2.4515   -2.3447   -2.8516 C   0  0  0  0  0  0  0  0  0  0  0  0
    1.4184   -1.6448   -1.9279 C   0  0  1  0  0  0  0  0  0  0  0  0
    2.1972   -3.6133   -3.2424 O   0  0  0  0  0  0  0  0  0  0  0  0
    0.1410   -2.4516   -1.6185 C   0  0  0  0  0  0  0  0  0  0  0  0
   -0.7403   -1.7460   -0.5784 C   0  0  0  0  0  0  0  0  0  0  0  0
   -0.6853   -2.6428   -2.8952 C   0  0  0  0  0  0  0  0  0  0  0  0
    3.5223   -1.8242   -3.1518 O   0  0  0  0  0  0  0  0  0  0  0  0
  1  2  1  0
  1  3  2  0
  1 11  1  0
  2  4  1  0
  4  5  1  0
  5  6  1  0
  6  7  1  0
  6  8  1  6
  7  9  1  0
  7 10  2  0
 12 14  1  0
 13 16  1  6
 13 11  1  0
 13 12  1  0
 15 16  1  0
 17 12  2  0
 18 19  1  0
 18 20  1  0
 19 14  1  1
 19 21  1  0
 21 22  1  0
 21 23  1  0
 24 18  2  0
M  END
>  <DRUGBANK_ID>  (1) 
DB02025

>  <SECONDARY_ACCESSION_NUMBERS>  (1) 
EXPT00421

>  <COMMON_NAME>  (1) 
ACV tripeptide

>  <CAS_NUMBER>  (1) 
32467-88-2

>  <UNII>  (1) 
O3VOU3H9VS

>  <SYNONYMS>  (1) 
(alpha-Aminoadipyl)-cys-val; 5-(2-Aminoad)-cys-val; AADCV; ACV; delta(L-2-Aminoadipyl)-L-cysteinyl-D-valine; L-delta-(alpha-Aminoadipoyl)-L-cysteinyl-D-valine; N-[L-5-Amino-5-carboxypentanoyl]-L-cysteinyl-D-valine

$$$$
