D15
     RDKit          3D

 32 35  0  0  0  0  0  0  0  0999 V2000
    3.6866    1.6190    2.1461 C   0  0  0  0  0  0  0  0  0  0  0  0
    4.5326    1.7616    3.2439 C   0  0  0  0  0  0  0  0  0  0  0  0
    4.9632    0.4284    4.2298 Cl  0  0  0  0  0  0  0  0  0  0  0  0
    4.9664    3.0127    3.6195 C   0  0  0  0  0  0  0  0  0  0  0  0
    4.4871    4.1232    2.9351 C   0  0  0  0  0  0  0  0  0  0  0  0
    3.6688    3.9730    1.8060 C   0  0  0  0  0  0  0  0  0  0  0  0
    3.2920    2.7017    1.3556 C   0  0  0  0  0  0  0  0  0  0  0  0
    2.5425    2.5348    0.0322 C   0  0  2  0  0  0  0  0  0  0  0  0
    1.4222    1.4759   -0.0570 C   0  0  0  0  0  0  0  0  0  0  0  0
    0.9577    1.1849   -1.5174 C   0  0  0  0  0  0  0  0  0  0  0  0
    1.8355    0.4417   -2.4264 N   0  0  0  0  0  0  0  0  0  0  0  0
    3.5015    2.5318   -1.1783 C   0  0  0  0  0  0  0  0  0  0  0  0
    3.4182    3.4370   -2.0199 O   0  0  0  0  0  0  0  0  0  0  0  0
    4.4270    1.5294   -1.4072 N   0  0  0  0  0  0  0  0  0  0  0  0
    4.6762    0.3811   -0.6280 C   0  0  0  0  0  0  0  0  0  0  0  0
    5.9442    0.1677   -0.0992 C   0  0  0  0  0  0  0  0  0  0  0  0
    6.0390   -0.7751    0.9494 C   0  0  0  0  0  0  0  0  0  0  0  0
    3.6521   -0.5110   -0.2985 C   0  0  0  0  0  0  0  0  0  0  0  0
    3.6946   -1.4228    0.7369 C   0  0  0  0  0  0  0  0  0  0  0  0
    4.9142   -1.4990    1.3447 C   0  0  0  0  0  0  0  0  0  0  0  0
    5.2651   -2.1914    2.4529 N   0  0  0  0  0  0  0  0  0  0  0  0
    6.5058   -1.9460    2.8278 N   0  0  0  0  0  0  0  0  0  0  0  0
    7.0375   -1.2162    1.8494 C   0  0  0  0  0  0  0  0  0  0  0  0
    8.3808   -0.9301    1.7704 N   0  0  0  0  0  0  0  0  0  0  0  0
    9.3889   -1.4793    2.5276 C   0  0  0  0  0  0  0  0  0  0  0  0
   10.5470   -1.0469    2.3958 O   0  0  0  0  0  0  0  0  0  0  0  0
    9.1654   -2.6276    3.4486 C   0  0  0  0  0  0  0  0  0  0  0  0
    8.3894   -3.7268    3.0474 C   0  0  0  0  0  0  0  0  0  0  0  0
    8.0923   -4.7582    3.9291 C   0  0  0  0  0  0  0  0  0  0  0  0
    8.7428   -4.8053    5.1528 C   0  0  0  0  0  0  0  0  0  0  0  0
    9.6289   -3.7854    5.5130 C   0  0  0  0  0  0  0  0  0  0  0  0
    9.7895   -2.6609    4.6962 C   0  0  0  0  0  0  0  0  0  0  0  0
  1  2  2  0
  1  7  1  0
  2  3  1  0
  2  4  1  0
  4  5  2  0
  5  6  1  0
  6  7  2  0
  8 12  1  0
  8  9  1  1
  8  7  1  0
  9 10  1  0
 10 11  1  0
 12 13  2  0
 12 14  1  0
 14 15  1  0
 15 16  2  0
 15 18  1  0
 16 17  1  0
 17 20  2  0
 17 23  1  0
 18 19  2  0
 19 20  1  0
 20 21  1  0
 21 22  1  0
 22 23  2  0
 23 24  1  0
 24 25  1  0
 25 26  2  0
 25 27  1  0
 27 28  2  0
 27 32  1  0
 28 29  1  0
 29 30  2  0
 30 31  1  0
 31 32  2  0
M  END
>  <DRUGBANK_ID>  (1) 
DB07608

>  <COMMON_NAME>  (1) 
N-(5-{[(2S)-4-amino-2-(3-chlorophenyl)butanoyl]amino}-1H-indazol-3-yl)benzamide

$$$$
