
     RDKit          3D

 25 27  0  0  0  0  0  0  0  0999 V2000
    2.5378   -0.4125   -0.3121 C   0  0  0  0  0  0  0  0  0  0  0  0
    1.0718   -0.0893   -0.1568 C   0  0  0  0  0  0  0  0  0  0  0  0
    0.4611    1.1749   -0.0750 C   0  0  0  0  0  0  0  0  0  0  0  0
   -0.9390    1.2595   -0.0260 C   0  0  0  0  0  0  0  0  0  0  0  0
   -1.6871    0.1002   -0.0224 C   0  0  0  0  0  0  0  0  0  0  0  0
   -1.1405   -1.1273   -0.0244 N   0  0  0  0  0  0  0  0  0  0  0  0
    0.2176   -1.2082   -0.0356 C   0  0  0  0  0  0  0  0  0  0  0  0
    0.7960   -2.5975    0.1032 C   0  0  0  0  0  0  0  0  0  0  0  0
    0.2962   -3.4909    1.5843 S   0  0  0  0  0  0  0  0  0  0  0  0
    1.0761   -4.7685    1.7140 O   0  0  0  0  0  0  0  0  0  0  0  0
    0.8133   -2.4733    2.9018 C   0  0  0  0  0  0  0  0  0  0  0  0
    1.3352   -2.9948    4.0677 N   0  0  0  0  0  0  0  0  0  0  0  0
    1.3940   -1.9853    5.0011 C   0  0  0  0  0  0  0  0  0  0  0  0
    1.7370   -1.9647    6.3591 C   0  0  0  0  0  0  0  0  0  0  0  0
    1.6990   -0.7195    7.0028 C   0  0  0  0  0  0  0  0  0  0  0  0
    1.3374    0.4402    6.3147 C   0  0  0  0  0  0  0  0  0  0  0  0
    0.9787    0.3862    4.9600 C   0  0  0  0  0  0  0  0  0  0  0  0
    0.9970   -0.8536    4.2998 C   0  0  0  0  0  0  0  0  0  0  0  0
    0.6397   -1.1768    3.0076 N   0  0  0  0  0  0  0  0  0  0  0  0
    1.0334    2.4171    0.0156 O   0  0  0  0  0  0  0  0  0  0  0  0
    2.4442    2.5328    0.1689 C   0  0  0  0  0  0  0  0  0  0  0  0
    3.0188    2.0186    1.5001 C   0  0  0  0  0  0  0  0  0  0  0  0
    2.5078    0.8516    1.9308 F   0  0  0  0  0  0  0  0  0  0  0  0
    4.3567    1.8243    1.3730 F   0  0  0  0  0  0  0  0  0  0  0  0
    2.8307    2.9124    2.4943 F   0  0  0  0  0  0  0  0  0  0  0  0
  1  2  1  0
  2  3  2  0
  2  7  1  0
  3  4  1  0
  3 20  1  0
  4  5  2  0
  5  6  1  0
  6  7  2  0
  7  8  1  0
  9  8  1  0
  9 10  2  0
  9 11  1  0
 11 12  1  0
 11 19  2  0
 12 13  1  0
 13 14  2  0
 13 18  1  0
 14 15  1  0
 15 16  2  0
 16 17  1  0
 17 18  2  0
 18 19  1  0
 20 21  1  0
 21 22  1  0
 22 23  1  0
 22 24  1  0
 22 25  1  0
M  END
>  <DRUGBANK_ID>  (1) 
DB05351

>  <COMMON_NAME>  (1) 
Dexlansoprazole

>  <CAS_NUMBER>  (1) 
138530-94-6

>  <UNII>  (1) 
UYE4T5I70X

>  <SYNONYMS>  (1) 
(+)-2-((R)-((3-METHYL-4-(2,2,2-TRIFLUOROETHOXY)PYRIDIN-2-YL)METHYL)SULFINYL)-1H-BENZIMIDAZOLE; (R)-LANSOPRAZOLE; 1H-BENZIMIDAZOLE, 2-((R)-((3-METHYL-4-(2,2,2-TRIFLUOROETHOXY)-2-PYRIDINYL)METHYL)SULFINYL)-; 2-((R)-((3-methyl-4-(2,2,2-trifluoroethoxy)-2-pyridinyl)methyl)sulfinyl)-1H-benzimidazole; Dexlansoprazole; LANSOPRAZOLE R-FORM; LANSOPRAZOLE, (R)-

$$$$
