
     RDKit          3D

 19 18  0  0  0  0  0  0  0  0999 V2000
    2.0782   -0.3386    0.3242 C   0  0  0  0  0  0  0  0  0  0  0  0
    2.0827    0.4405    1.7576 C   0  0  0  0  0  0  0  0  0  0  0  0
    2.1472    2.1793    1.7921 C   0  0  0  0  0  0  0  0  0  0  0  0
    1.2346    3.4215    0.9355 C   0  0  0  0  0  0  0  0  0  0  0  0
   -0.3723    3.8576    1.1168 C   0  0  0  0  0  0  0  0  0  0  0  0
   -1.2999    3.8514    2.2741 N   0  0  0  0  0  0  0  0  0  0  0  0
   -1.0545    2.6956    3.1375 C   0  0  0  0  0  0  0  0  0  0  0  0
   -1.3996    1.2455    2.6829 C   0  0  0  0  0  0  0  0  0  0  0  0
   -0.9715    0.5407    1.3001 C   0  0  0  0  0  0  0  0  0  0  0  0
   -2.7864    3.9138    1.9980 C   0  0  0  0  0  0  0  0  0  0  0  0
    0.2406    0.8431    0.8575 O   0  0  0  0  0  0  0  0  0  0  0  0
   -1.5815   -1.1744    1.1128 P   0  0  0  0  0  0  0  0  0  0  0  0
   -1.5815    1.5604   -0.0916 P   0  0  0  0  0  0  0  0  0  0  0  0
   -2.3068   -1.0397    2.5811 O   0  0  0  0  0  0  0  0  0  0  0  0
   -2.8343   -0.6346    0.1830 O   0  0  0  0  0  0  0  0  0  0  0  0
   -2.0976   -2.6256    0.9544 O   0  0  0  0  0  0  0  0  0  0  0  0
   -3.1008    1.7088    0.3291 O   0  0  0  0  0  0  0  0  0  0  0  0
   -0.5000    1.1232   -1.2015 O   0  0  0  0  0  0  0  0  0  0  0  0
   -2.0976    2.4232   -1.2692 O   0  0  0  0  0  0  0  0  0  0  0  0
  1  2  1  0
  2  3  1  0
  3  4  1  0
  4  5  1  0
  5  6  1  0
  6 10  1  0
  6  7  1  0
  7  8  1  0
  8  9  1  0
  9 11  1  0
  9 12  1  0
  9 13  1  0
 12 14  1  0
 12 15  1  0
 12 16  2  0
 13 17  1  0
 13 18  1  0
 13 19  2  0
M  END
>  <DRUGBANK_ID>  (1) 
DB00710

>  <SECONDARY_ACCESSION_NUMBERS>  (1) 
APRD00231; DB04635

>  <COMMON_NAME>  (1) 
Ibandronate

>  <CAS_NUMBER>  (1) 
114084-78-5

>  <UNII>  (1) 
UMD7G2653W

>  <SYNONYMS>  (1) 
ácido ibandrónico; Ibandronic acid

$$$$
