
     RDKit          3D

 31 34  0  0  0  0  0  0  0  0999 V2000
    3.1923    2.7690   -0.7137 Cl  0  0  0  0  0  0  0  0  0  0  0  0
    0.7056   -0.5682    0.6595 F   0  0  0  0  0  0  0  0  0  0  0  0
    0.7966    3.3624   -4.1946 O   0  0  0  0  0  0  0  0  0  0  0  0
    4.2833    5.4216    0.8806 O   0  0  0  0  0  0  0  0  0  0  0  0
    5.8174   -0.3894   -2.5739 O   0  0  0  0  0  0  0  0  0  0  0  0
    5.4412    5.0928   -2.4161 O   0  0  0  0  0  0  0  0  0  0  0  0
    5.8045    3.2284   -1.1504 O   0  0  0  0  0  0  0  0  0  0  0  0
    0.7133    3.2016   -0.8691 C   0  0  2  0  0  0  0  0  0  0  0  0
    1.7293    2.5073   -1.9320 C   0  0  2  0  0  0  0  0  0  0  0  0
    0.9185    5.1158   -0.6052 C   0  0  1  0  0  0  0  0  0  0  0  0
    1.7929    5.1692   -1.7729 C   0  0  1  0  0  0  0  0  0  0  0  0
    1.9002    0.9045   -2.3596 C   0  0  2  0  0  0  0  0  0  0  0  0
    1.8438    3.3292   -3.2518 C   0  0  2  0  0  0  0  0  0  0  0  0
    2.8692    6.1408   -0.8553 C   0  0  2  0  0  0  0  0  0  0  0  0
    2.4874    4.5764   -2.8625 C   0  0  0  0  0  0  0  0  0  0  0  0
    0.7801    1.9295    0.3551 C   0  0  0  0  0  0  0  0  0  0  0  0
    2.3316    0.0983   -1.1007 C   0  0  0  0  0  0  0  0  0  0  0  0
    1.2752    6.9356   -1.5450 C   0  0  0  0  0  0  0  0  0  0  0  0
    2.7997    7.2693   -1.7341 C   0  0  1  0  0  0  0  0  0  0  0  0
    1.0056    0.4006   -0.2474 C   0  0  1  0  0  0  0  0  0  0  0  0
    3.0944    0.7801   -3.1884 C   0  0  0  0  0  0  0  0  0  0  0  0
    0.0533    5.3116   -2.4224 C   0  0  0  0  0  0  0  0  0  0  0  0
    4.2019    5.7048   -0.3154 C   0  0  0  0  0  0  0  0  0  0  0  0
    1.0035    0.5219   -3.6132 C   0  0  0  0  0  0  0  0  0  0  0  0
    3.7329   -0.2297   -1.0360 C   0  0  0  0  0  0  0  0  0  0  0  0
    3.7297   -0.3222   -3.5939 C   0  0  0  0  0  0  0  0  0  0  0  0
    4.5981   -0.3846   -2.4088 C   0  0  0  0  0  0  0  0  0  0  0  0
    3.3831    8.5870   -1.2790 C   0  0  0  0  0  0  0  0  0  0  0  0
    5.4244    5.8242   -1.2094 C   0  0  0  0  0  0  0  0  0  0  0  0
    5.5811    3.7557   -2.2115 C   0  0  0  0  0  0  0  0  0  0  0  0
    5.2500    3.0234   -3.4721 C   0  0  0  0  0  0  0  0  0  0  0  0
  4 23  2  0
  5 27  2  0
  6 29  1  0
  6 30  1  0
  7 30  2  0
  8  9  1  0
  8 10  1  0
  8 16  1  1
  9  1  1  1
  9 12  1  0
  9 13  1  0
 10 11  1  0
 10 18  1  6
 11 14  1  0
 11 15  1  0
 11 22  1  6
 12 17  1  0
 12 21  1  0
 12 24  1  6
 13  3  1  1
 13 15  1  0
 14 19  1  0
 14 23  1  6
 16 20  1  0
 17 20  1  0
 17 25  2  0
 18 19  1  0
 19 28  1  1
 20  2  1  1
 21 26  2  0
 23 29  1  0
 25 27  1  0
 26 27  1  0
 30 31  1  0
M  END
>  <DRUGBANK_ID>  (1) 
DB14652

>  <SECONDARY_ACCESSION_NUMBERS>  (1) 
DBSALT000939

>  <COMMON_NAME>  (1) 
Clocortolone acetate

>  <CAS_NUMBER>  (1) 
4258-85-9

>  <UNII>  (1) 
85061HTR8T

>  <SYNONYMS>  (1) 
Clocortolone acetate

$$$$
