
     RDKit          3D

 30 33  0  0  0  0  0  0  0  0999 V2000
    3.4047   -0.3178    1.6379 C   0  0  0  0  0  0  0  0  0  0  0  0
    2.2677    0.7740    1.1905 C   0  0  0  0  0  0  0  0  0  0  0  0
    2.5544    1.7494    0.0546 C   0  0  0  0  0  0  0  0  0  0  0  0
    2.2473    3.0458   -0.3148 C   0  0  0  0  0  0  0  0  0  0  0  0
    1.9155    2.3231   -2.4268 C   0  0  0  0  0  0  0  0  0  0  0  0
    3.5393    1.7050   -1.9417 C   0  0  0  0  0  0  0  0  0  0  0  0
    7.3789    0.5507    0.0724 C   0  0  0  0  0  0  0  0  0  0  0  0
    8.7709   -0.1695    2.6802 C   0  0  0  0  0  0  0  0  0  0  0  0
    6.9288   -0.5090    3.2736 C   0  0  0  0  0  0  0  0  0  0  0  0
    4.9519    0.7243    0.0726 C   0  0  2  0  0  0  0  0  0  0  0  0
    6.0542   -0.5939    1.9730 C   0  0  1  0  0  0  0  0  0  0  0  0
    4.8372    0.2564    1.5632 C   0  0  2  0  0  0  0  0  0  0  0  0
    7.2725    0.0511    1.5068 C   0  0  1  0  0  0  0  0  0  0  0  0
    8.3836   -1.3308    1.9869 C   0  0  1  0  0  0  0  0  0  0  0  0
    1.3464    3.2792   -1.3434 C   0  0  0  0  0  0  0  0  0  0  0  0
    0.8085    4.3645   -1.1941 O   0  0  0  0  0  0  0  0  0  0  0  0
    6.2566    1.4021   -0.3390 C   0  0  1  0  0  0  0  0  0  0  0  0
    6.5739    2.6686    0.1943 O   0  0  0  0  0  0  0  0  0  0  0  0
    8.6031   -2.4069    0.9902 C   0  0  0  0  0  0  0  0  0  0  0  0
    9.5606   -3.2634    1.1214 O   0  0  0  0  0  0  0  0  0  0  0  0
    7.6236   -2.5193   -0.1631 C   0  0  0  0  0  0  0  0  0  0  0  0
    7.9892   -2.1026   -1.4637 O   0  0  0  0  0  0  0  0  0  0  0  0
    8.8114   -2.0255    3.3313 O   0  0  0  0  0  0  0  0  0  0  0  0
    7.3683    1.6204    2.5410 C   0  0  0  0  0  0  0  0  0  0  0  0
    3.9379    1.7786   -0.2950 C   0  0  2  0  0  0  0  0  0  0  0  0
    4.1871    3.0140    0.8280 C   0  0  0  0  0  0  0  0  0  0  0  0
    9.3798   -1.3779   -1.8084 P   0  0  0  0  0  0  0  0  0  0  0  0
   10.0251   -1.0396   -0.3999 O   0  0  0  0  0  0  0  0  0  0  0  0
   10.2731   -1.9687   -2.8314 O   0  0  0  0  0  0  0  0  0  0  0  0
    9.1689    0.1921   -2.0528 O   0  0  0  0  0  0  0  0  0  0  0  0
  1  2  1  0
  2  3  1  0
  3  4  2  0
  3 25  1  0
  4 15  1  0
  5  6  1  0
  6 25  1  0
  7 13  1  0
  8  9  1  0
 11  9  1  1
 10 17  1  1
 12  1  1  6
 12 10  1  0
 12 11  1  0
 13 11  1  0
 13 14  1  0
 13 24  1  1
 14  8  1  0
 14 23  1  1
 14 19  1  0
 15  5  1  0
 15 16  2  0
 17  7  1  0
 17 18  1  1
 19 21  1  0
 19 20  2  0
 21 22  1  0
 22 27  1  0
 25 10  1  0
 25 26  1  6
 27 28  1  0
 27 29  2  0
 27 30  1  0
M  END
>  <DRUGBANK_ID>  (1) 
DB14542

>  <SECONDARY_ACCESSION_NUMBERS>  (1) 
DBSALT002214

>  <COMMON_NAME>  (1) 
Hydrocortisone phosphate

>  <CAS_NUMBER>  (1) 
3863-59-0

>  <UNII>  (1) 
2Y87E22X71

>  <SYNONYMS>  (1) 
Cortisol 21-phosphate; Hydrocortisone 21-phosphate

$$$$
