
     RDKit          3D

 25 28  0  0  0  0  0  0  0  0999 V2000
    1.6715   -0.1115    0.2233 C   0  0  0  0  0  0  0  0  0  0  0  0
    1.0624   -1.4857    0.2253 C   0  0  0  0  0  0  0  0  0  0  0  0
   -0.1674   -1.6150    1.4734 S   0  0  0  0  0  0  0  0  0  0  0  0
    1.0178   -2.1362    2.6853 C   0  0  0  0  0  0  0  0  0  0  0  0
    2.1456   -2.8148    1.8460 C   0  0  0  0  0  0  0  0  0  0  0  0
    1.8859   -2.6081    0.4201 N   0  0  0  0  0  0  0  0  0  0  0  0
    2.1033   -3.5762   -0.5643 C   0  0  0  0  0  0  0  0  0  0  0  0
    2.7971   -4.5455   -0.3307 O   0  0  0  0  0  0  0  0  0  0  0  0
    1.5356   -3.3702   -2.0168 C   0  0  0  0  0  0  0  0  0  0  0  0
    0.0169   -3.5465   -2.3317 C   0  0  0  0  0  0  0  0  0  0  0  0
   -0.9449   -2.4365   -1.9182 C   0  0  0  0  0  0  0  0  0  0  0  0
   -1.8913   -2.5523   -0.9123 C   0  0  0  0  0  0  0  0  0  0  0  0
   -2.2261   -1.2753   -0.4773 N   0  0  0  0  0  0  0  0  0  0  0  0
   -1.5079   -0.3171   -1.1861 C   0  0  0  0  0  0  0  0  0  0  0  0
   -0.8079   -1.0039   -2.1916 C   0  0  0  0  0  0  0  0  0  0  0  0
    0.1724   -0.2743   -2.9168 C   0  0  0  0  0  0  0  0  0  0  0  0
    0.3978    1.0892   -2.6592 C   0  0  0  0  0  0  0  0  0  0  0  0
   -0.2884    1.7333   -1.6308 C   0  0  0  0  0  0  0  0  0  0  0  0
   -1.2214    1.0306   -0.8514 C   0  0  0  0  0  0  0  0  0  0  0  0
    0.1865   -3.0851    3.5474 C   0  0  0  0  0  0  0  0  0  0  0  0
   -0.9296   -2.3236    4.3000 C   0  0  0  0  0  0  0  0  0  0  0  0
   -0.4202   -1.1385    5.0182 N   0  0  0  0  0  0  0  0  0  0  0  0
    0.5361   -1.5528    6.0416 C   0  0  0  0  0  0  0  0  0  0  0  0
    0.2229   -0.1780    4.1061 C   0  0  0  0  0  0  0  0  0  0  0  0
    1.4196   -0.8192    3.3741 C   0  0  0  0  0  0  0  0  0  0  0  0
  1  2  1  0
  2  3  1  0
  2  6  1  0
  3  4  1  0
  4  5  1  0
  4 20  1  0
  4 25  1  0
  5  6  1  0
  6  7  1  0
  7  8  2  0
  7  9  1  0
  9 10  1  0
 10 11  1  0
 11 12  2  0
 11 15  1  0
 12 13  1  0
 13 14  1  0
 14 15  2  0
 14 19  1  0
 15 16  1  0
 16 17  2  0
 17 18  1  0
 18 19  2  0
 20 21  1  0
 21 22  1  0
 22 23  1  0
 22 24  1  0
 24 25  1  0
M  END
>  <DRUGBANK_ID>  (1) 
DB16911

>  <COMMON_NAME>  (1) 
AF-710B

>  <CAS_NUMBER>  (1) 
1235733-73-9

>  <UNII>  (1) 
AAE07Z061B

>  <SYNONYMS>  (1) 
1-(2,8-dimethyl-1-thia-3,8-diazaspiro(4.5)dec-3-yl)-3-(1h-indol-3-yl)propan-1-one; 1-(2,8-Dimethyl-1-Thia-3,8-Diazaspiro[4.5]Dec-3-yl)-3-(1H-Indol-3-yl)Propan-1-one; 1-propanone, 1-(2,8-dimethyl-1-thia-3,8-diazaspiro(4.5)dec-3-yl)-3-(1h-indol-3-yl)-; Anavex 3-71; ANAVEX3-71

$$$$
