
     RDKit          3D

 23 24  0  0  0  0  0  0  0  0999 V2000
    0.8828    0.1130    0.3311 C   0  0  0  0  0  0  0  0  0  0  0  0
   -0.1329    1.1975   -0.3040 C   0  0  0  0  0  0  0  0  0  0  0  0
    0.4971   -0.9905    0.7988 O   0  0  0  0  0  0  0  0  0  0  0  0
   -1.2971    0.7721   -1.3713 C   0  0  0  0  0  0  0  0  0  0  0  0
   -0.8460    1.8266    0.8184 C   0  0  0  0  0  0  0  0  0  0  0  0
    2.2444    0.3356    0.3346 O   0  0  0  0  0  0  0  0  0  0  0  0
    1.6666    1.2573   -2.5379 N   0  0  0  0  0  0  0  0  0  0  0  0
    3.0900    1.2842   -0.4429 C   0  0  0  0  0  0  0  0  0  0  0  0
    3.0115    1.4138   -2.0342 C   0  0  0  0  0  0  0  0  0  0  0  0
   -1.5692   -0.5955   -1.6594 C   0  0  0  0  0  0  0  0  0  0  0  0
   -1.8276    1.7228   -2.2743 C   0  0  0  0  0  0  0  0  0  0  0  0
   -1.5359    0.9591    1.6598 C   0  0  0  0  0  0  0  0  0  0  0  0
   -0.8038    3.2055    0.9858 C   0  0  0  0  0  0  0  0  0  0  0  0
    1.2496    1.8163   -3.8127 C   0  0  0  0  0  0  0  0  0  0  0  0
    1.3543   -0.1344   -2.3106 C   0  0  0  0  0  0  0  0  0  0  0  0
    1.4378    0.7832   -4.8900 C   0  0  0  0  0  0  0  0  0  0  0  0
    1.4531   -1.4943   -2.8781 C   0  0  0  0  0  0  0  0  0  0  0  0
   -2.5292    1.3084   -3.4278 C   0  0  0  0  0  0  0  0  0  0  0  0
   -2.1173    1.4661    2.7797 C   0  0  0  0  0  0  0  0  0  0  0  0
   -1.3702    3.7084    2.1292 C   0  0  0  0  0  0  0  0  0  0  0  0
   -2.0303   -0.9821   -2.9300 C   0  0  0  0  0  0  0  0  0  0  0  0
   -2.5526   -0.0358   -3.7978 C   0  0  0  0  0  0  0  0  0  0  0  0
   -2.0277    2.8382    3.0123 C   0  0  0  0  0  0  0  0  0  0  0  0
  2  1  1  0
  3  1  2  0
  4  2  1  0
  5  2  1  0
  6  1  1  0
  7  9  1  0
  8  6  1  0
  9  8  1  0
 10  4  2  0
 11  4  1  0
 12  5  2  0
 13  5  1  0
 14  7  1  0
 15  7  1  0
 16 14  1  0
 17 15  1  0
 18 11  2  0
 19 12  1  0
 20 13  2  0
 21 10  1  0
 22 18  1  0
 22 21  2  0
 23 20  1  0
 23 19  2  0
M  END
>  <DRUGBANK_ID>  (1) 
DB15795

>  <COMMON_NAME>  (1) 
Adiphenine

>  <CAS_NUMBER>  (1) 
64-95-9

>  <UNII>  (1) 
YKG6OR043Q

>  <SYNONYMS>  (1) 
Adiphenine

$$$$
