
     RDKit          3D

 18 19  0  0  1  0  0  0  0  0999 V2000
   -0.8785    0.3477    1.9931 C   0  0  0  0  0  0  0  0  0  0  0  0
    1.4724    5.0560   -0.9711 C   0  0  0  0  0  0  0  0  0  0  0  0
   -0.0755    1.9276    0.2546 C   0  0  0  0  0  0  0  0  0  0  0  0
    2.0076    4.7852    2.0291 C   0  0  0  0  0  0  0  0  0  0  0  0
    0.3134    0.7341    1.1365 C   0  0  1  0  0  0  0  0  0  0  0  0
    1.4679    3.5426    1.5510 C   0  0  0  0  0  0  0  0  0  0  0  0
    0.4522    3.3545    0.4688 C   0  0  1  0  0  0  0  0  0  0  0  0
    3.0577    4.5936    2.9003 C   0  0  0  0  0  0  0  0  0  0  0  0
    2.0541    2.5078    2.2342 C   0  0  0  0  0  0  0  0  0  0  0  0
    3.7762    5.5134    5.3447 N   0  0  0  0  0  0  0  0  0  0  0  0
    1.0579    3.6784   -0.8256 N   0  0  0  0  0  0  0  0  0  0  0  0
    1.3857    0.4828    3.5554 O   0  0  0  0  0  0  0  0  0  0  0  0
    2.8926    0.2195    1.5269 O   0  0  0  0  0  0  0  0  0  0  0  0
    5.4923    5.1436    3.5068 O   0  0  0  0  0  0  0  0  0  0  0  0
    3.7685    6.9943    3.3129 O   0  0  0  0  0  0  0  0  0  0  0  0
    3.2630    2.9662    3.3111 S   0  0  0  0  0  0  0  0  0  0  0  0
    1.7465    0.8062    2.1909 S   0  0  0  0  0  0  0  0  0  0  0  0
    4.1621    5.6728    3.7205 S   0  0  0  0  0  0  0  0  0  0  0  0
  5  3  1  0
  5  1  1  1
  6  4  1  0
  7  3  1  0
  7  6  1  0
  7 11  1  6
  8  4  2  0
  9  6  2  0
 11  2  1  0
 16  8  1  0
 16  9  1  0
 17  5  1  0
 17  9  1  0
 17 12  2  0
 17 13  2  0
 18  8  1  0
 18 10  1  0
 18 14  2  0
 18 15  2  0
M  END
>  <DRUGBANK_ID>  (1) 
DB04081

>  <SECONDARY_ACCESSION_NUMBERS>  (1) 
EXPT02251

>  <COMMON_NAME>  (1) 
(4s-Trans)-4-(Methylamino)-5,6-Dihydro-6-Methyl-4h-Thieno(2,3-B)Thiopyran-2-Sulfonamide-7,7-Dioxide

$$$$
