
     RDKit          3D

 32 36  0  0  0  0  0  0  0  0999 V2000
   -0.0104   -0.2683   -0.3214 C   0  0  0  0  0  0  0  0  0  0  0  0
   -0.2661   -0.0316    1.1491 C   0  0  0  0  0  0  0  0  0  0  0  0
   -0.4417   -1.0865    1.9705 N   0  0  0  0  0  0  0  0  0  0  0  0
   -0.4371   -0.5597    3.2248 N   0  0  0  0  0  0  0  0  0  0  0  0
   -0.3486    0.8109    3.1980 C   0  0  0  0  0  0  0  0  0  0  0  0
   -0.0844    1.1827    1.8996 C   0  0  0  0  0  0  0  0  0  0  0  0
    0.4080    2.5278    1.4785 C   0  0  0  0  0  0  0  0  0  0  0  0
    1.8707    2.5731    1.2908 N   0  0  0  0  0  0  0  0  0  0  0  0
    2.3734    1.6043    0.3184 C   0  0  0  0  0  0  0  0  0  0  0  0
    2.7044    0.1945    0.9246 C   0  0  0  0  0  0  0  0  0  0  0  0
    3.5207    0.2200    2.2135 C   0  0  0  0  0  0  0  0  0  0  0  0
    2.9380    1.2553    3.1603 C   0  0  0  0  0  0  0  0  0  0  0  0
    2.6692    2.6102    2.5185 C   0  0  0  0  0  0  0  0  0  0  0  0
    3.3644   -1.0505    2.9464 O   0  0  0  0  0  0  0  0  0  0  0  0
    4.5645   -1.7506    3.3516 C   0  0  0  0  0  0  0  0  0  0  0  0
    5.4236   -2.0215    2.1117 C   0  0  0  0  0  0  0  0  0  0  0  0
    4.6654   -2.7143    1.2130 F   0  0  0  0  0  0  0  0  0  0  0  0
    6.4900   -2.7986    2.3996 F   0  0  0  0  0  0  0  0  0  0  0  0
    5.8153   -0.6647    1.5930 C   0  0  0  0  0  0  0  0  0  0  0  0
    4.9283    0.3757    1.7385 C   0  0  0  0  0  0  0  0  0  0  0  0
    5.5097    1.8231    1.0633 S   0  0  0  0  0  0  0  0  0  0  0  0
    6.9476    1.1204    0.6383 C   0  0  0  0  0  0  0  0  0  0  0  0
    8.0856    2.1245   -0.1340 Cl  0  0  0  0  0  0  0  0  0  0  0  0
    7.0513   -0.2096    1.0307 C   0  0  0  0  0  0  0  0  0  0  0  0
   -0.7297   -1.3256    4.3936 C   0  0  0  0  0  0  0  0  0  0  0  0
    0.2546   -2.0940    4.9507 N   0  0  0  0  0  0  0  0  0  0  0  0
   -0.0394   -2.7325    6.1091 C   0  0  0  0  0  0  0  0  0  0  0  0
   -1.2637   -2.6408    6.7486 C   0  0  0  0  0  0  0  0  0  0  0  0
   -2.2515   -1.8540    6.1649 C   0  0  0  0  0  0  0  0  0  0  0  0
   -1.9968   -1.1682    4.9696 C   0  0  0  0  0  0  0  0  0  0  0  0
   -3.0998   -0.3964    4.2962 C   0  0  0  0  0  0  0  0  0  0  0  0
   -2.8948    1.0081    4.3079 O   0  0  0  0  0  0  0  0  0  0  0  0
  1  2  1  0
  2  3  2  0
  2  6  1  0
  3  4  1  0
  4  5  1  0
  4 25  1  0
  5  6  2  0
  6  7  1  0
  7  8  1  0
  8  9  1  0
  8 13  1  0
  9 10  1  0
 10 11  1  0
 11 12  1  0
 11 14  1  0
 11 20  1  0
 12 13  1  0
 14 15  1  0
 15 16  1  0
 16 17  1  0
 16 18  1  0
 16 19  1  0
 19 20  2  0
 19 24  1  0
 20 21  1  0
 21 22  1  0
 22 23  1  0
 22 24  2  0
 25 26  2  0
 25 30  1  0
 26 27  1  0
 27 28  2  0
 28 29  1  0
 29 30  2  0
 30 31  1  0
 31 32  1  0
M  END
>  <DRUGBANK_ID>  (1) 
DB16048

>  <COMMON_NAME>  (1) 
BTRX-246040

>  <CAS_NUMBER>  (1) 
1307245-86-8

>  <UNII>  (1) 
4I67US2V8Q

$$$$
