
     RDKit          3D

 28 30  0  0  0  0  0  0  0  0999 V2000
    1.1832    0.1485    0.7659 O   0  0  0  0  0  0  0  0  0  0  0  0
    2.5414   -4.2231   -1.3439 O   0  0  0  0  0  0  0  0  0  0  0  0
    0.6820   -4.6308    2.4605 N   0  0  0  0  0  0  0  0  0  0  0  0
    1.4647   -2.1506   -1.1112 N   0  0  0  0  0  0  0  0  0  0  0  0
    1.0451   -2.4012    0.3851 C   0  0  0  0  0  0  0  0  0  0  0  0
    0.2878   -3.7398    0.1901 C   0  0  0  0  0  0  0  0  0  0  0  0
    2.0478   -2.7561    1.5807 C   0  0  0  0  0  0  0  0  0  0  0  0
   -0.2401   -4.4603    1.3549 C   0  0  0  0  0  0  0  0  0  0  0  0
    1.2799   -3.3542    2.8052 C   0  0  0  0  0  0  0  0  0  0  0  0
    0.4195   -1.0718    1.0066 C   0  0  0  0  0  0  0  0  0  0  0  0
   -0.0305   -5.2592    3.5878 C   0  0  0  0  0  0  0  0  0  0  0  0
    0.8872   -0.9930   -1.7892 C   0  0  0  0  0  0  0  0  0  0  0  0
    1.9989   -3.2089   -1.8697 C   0  0  0  0  0  0  0  0  0  0  0  0
   -1.2877   -4.5076    4.1248 C   0  0  0  0  0  0  0  0  0  0  0  0
    2.0431   -3.1773   -3.3766 C   0  0  0  0  0  0  0  0  0  0  0  0
    1.6850    0.1456   -1.8715 C   0  0  0  0  0  0  0  0  0  0  0  0
   -0.3526   -0.9116   -2.4238 C   0  0  0  0  0  0  0  0  0  0  0  0
   -2.4357   -4.3255    3.1366 C   0  0  0  0  0  0  0  0  0  0  0  0
    2.6150    0.0832    0.8299 C   0  0  0  0  0  0  0  0  0  0  0  0
    0.7466   -3.0784   -4.1491 C   0  0  0  0  0  0  0  0  0  0  0  0
    1.2117    1.3808   -2.2980 C   0  0  0  0  0  0  0  0  0  0  0  0
   -0.6210    0.2116   -3.2470 C   0  0  0  0  0  0  0  0  0  0  0  0
   -2.9797   -5.4511    2.4954 C   0  0  0  0  0  0  0  0  0  0  0  0
   -2.7771   -3.0400    2.6472 C   0  0  0  0  0  0  0  0  0  0  0  0
    0.0987    1.3957   -3.1016 C   0  0  0  0  0  0  0  0  0  0  0  0
   -3.8465   -5.3031    1.4107 C   0  0  0  0  0  0  0  0  0  0  0  0
   -3.6520   -2.8990    1.5632 C   0  0  0  0  0  0  0  0  0  0  0  0
   -4.1887   -4.0312    0.9516 C   0  0  0  0  0  0  0  0  0  0  0  0
  1 10  1  0
  1 19  1  0
  2 13  2  0
  3  8  1  0
  3  9  1  0
  3 11  1  0
  4  5  1  0
  4 12  1  0
  4 13  1  0
  5  6  1  0
  5  7  1  0
  5 10  1  0
  6  8  1  0
  7  9  1  0
 11 14  1  0
 12 16  2  0
 12 17  1  0
 13 15  1  0
 14 18  1  0
 15 20  1  0
 16 21  1  0
 17 22  2  0
 18 23  2  0
 18 24  1  0
 21 25  2  0
 22 25  1  0
 23 26  1  0
 24 27  2  0
 26 28  2  0
 27 28  1  0
M  END
>  <DRUGBANK_ID>  (1) 
DB09179

>  <COMMON_NAME>  (1) 
R-30490

>  <CAS_NUMBER>  (1) 
60618-49-7

>  <UNII>  (1) 
03DNV05OD4

$$$$
