AD8
     RDKit          3D

 18 21  0  0  0  0  0  0  0  0999 V2000
   -0.3074   -1.0725   -0.0768 N   0  0  0  0  0  0  0  0  0  0  0  0
   -1.1290    0.0189   -0.0263 C   0  0  0  0  0  0  0  0  0  0  0  0
   -0.4404    1.1400    0.0156 N   0  0  0  0  0  0  0  0  0  0  0  0
    0.8708    0.7609    0.0059 C   0  0  0  0  0  0  0  0  0  0  0  0
    0.9733   -0.6051   -0.0088 C   0  0  0  0  0  0  0  0  0  0  0  0
   -0.7268   -2.4655   -0.0711 C   0  0  0  0  0  0  0  0  0  0  0  0
   -0.2194   -3.2616   -1.2853 C   0  0  0  0  0  0  0  0  0  0  0  0
   -0.5486   -2.9422   -2.4239 O   0  0  0  0  0  0  0  0  0  0  0  0
    0.7825   -4.4200   -1.0309 C   0  0  2  0  0  0  0  0  0  0  0  0
    2.1212   -3.7598   -0.6573 C   0  0  0  0  0  0  0  0  0  0  0  0
    1.0708   -5.3615   -2.2394 C   0  0  0  0  0  0  0  0  0  0  0  0
    0.2589   -5.3473    0.0855 C   0  0  0  0  0  0  0  0  0  0  0  0
    1.3370   -6.3586    0.4898 C   0  0  2  0  0  0  0  0  0  0  0  0
    2.6066   -5.6066    0.9241 C   0  0  0  0  0  0  0  0  0  0  0  0
    1.6608   -7.2524   -0.7147 C   0  0  0  0  0  0  0  0  0  0  0  0
    2.1897   -6.3867   -1.8762 C   0  0  2  0  0  0  0  0  0  0  0  0
    3.4753   -5.6574   -1.4463 C   0  0  0  0  0  0  0  0  0  0  0  0
    3.1725   -4.7752   -0.2386 C   0  0  1  0  0  0  0  0  0  0  0  0
  1  6  1  0
  2  1  1  0
  3  2  2  0
  3  4  1  0
  4  5  2  0
  5  1  1  0
  6  7  1  0
  8  7  2  0
  9  7  1  6
  9 12  1  0
  9 11  1  0
 10  9  1  0
 18 10  1  6
 16 11  1  1
 13 12  1  6
 13 15  1  0
 14 13  1  0
 16 15  1  0
 17 16  1  0
 18 14  1  0
 18 17  1  0
M  END
>  <DRUGBANK_ID>  (1) 
DB07342

>  <COMMON_NAME>  (1) 
1-(adamantan-1-yl)-2-(1H-imidazol-1-yl)ethanone

$$$$
