
     RDKit          3D

 16 16  0  0  0  0  0  0  0  0999 V2000
    2.5496   -0.0501   -0.0162 C   0  0  0  0  0  0  0  0  0  0  0  0
    1.0302    0.1044    0.0051 C   0  0  0  0  0  0  0  0  0  0  0  0
    0.2784    1.3114    0.0003 C   0  0  0  0  0  0  0  0  0  0  0  0
   -1.1579    1.2485    0.0025 C   0  0  0  0  0  0  0  0  0  0  0  0
   -1.8343    0.0195   -0.0045 C   0  0  0  0  0  0  0  0  0  0  0  0
   -1.1003   -1.1653    0.0020 C   0  0  0  0  0  0  0  0  0  0  0  0
    0.3084   -1.1286    0.0072 C   0  0  0  0  0  0  0  0  0  0  0  0
    3.0395   -1.1763   -0.0571 O   0  0  0  0  0  0  0  0  0  0  0  0
    3.4464    0.9890    0.0039 N   0  0  0  0  0  0  0  0  0  0  0  0
   -1.8284   -2.4507    0.0071 N   0  0  0  0  0  0  0  0  0  0  0  0
   -1.1646   -3.4939    0.0196 O   0  0  0  0  0  0  0  0  0  0  0  0
   -3.0677   -2.4058    0.0016 O   0  0  0  0  0  0  0  0  0  0  0  0
   -2.0123    2.4811    0.0128 N   0  0  0  0  0  0  0  0  0  0  0  0
   -3.2434    2.3167    0.0049 O   0  0  0  0  0  0  0  0  0  0  0  0
   -1.4858    3.5932    0.0330 O   0  0  0  0  0  0  0  0  0  0  0  0
    0.8974    2.6707   -0.0154 C   0  0  0  0  0  0  0  0  0  0  0  0
  1  2  1  0
  1  8  2  0
  1  9  1  0
  2  3  2  0
  2  7  1  0
  3  4  1  0
  3 16  1  0
  4  5  2  0
  4 13  1  0
  5  6  1  0
  6  7  2  0
  6 10  1  0
 10 11  2  0
 10 12  1  0
 13 14  2  0
 13 15  1  0
M  CHG  4  10   1  12  -1  13   1  15  -1
M  END
>  <DRUGBANK_ID>  (1) 
DB11480

>  <COMMON_NAME>  (1) 
Zoalene

>  <CAS_NUMBER>  (1) 
148-01-6

>  <UNII>  (1) 
AOX68RY4TV

>  <SYNONYMS>  (1) 
Coccidine A; Dinitolmida; Dinitolmide; Dinitolmidum; Zoalene

$$$$
