AGA
     RDKit          3D

 30 29  0  0  0  0  0  0  0  0999 V2000
    2.7554    1.4928    2.1992 O   0  0  0  0  0  0  0  0  0  0  0  0
    2.4449    0.5515    3.1946 C   0  0  0  0  0  0  0  0  0  0  0  0
    0.9752    0.3295    3.3054 C   0  0  2  0  0  0  0  0  0  0  0  0
    0.3526   -0.3277    2.2135 O   0  0  0  0  0  0  0  0  0  0  0  0
    0.4938    1.7180    3.6451 C   0  0  0  0  0  0  0  0  0  0  0  0
   -1.3951    2.0650    1.6543 P   0  0  1  0  0  0  0  0  0  0  0  0
   -0.0243    1.7996    1.3452 O   0  0  0  0  0  0  0  0  0  0  0  0
   -2.3710    0.9004    1.7883 O   0  0  0  0  0  0  0  0  0  0  0  0
   -0.8184    1.7503    3.2547 O   0  0  0  0  0  0  0  0  0  0  0  0
   -1.9718    2.3797    0.0538 O   0  0  0  0  0  0  0  0  0  0  0  0
   -1.0148    2.8629   -0.9540 C   0  0  0  0  0  0  0  0  0  0  0  0
    0.1173    3.8822   -0.6034 C   0  0  1  0  0  0  0  0  0  0  0  0
    0.9266    3.5868    0.6087 C   0  0  0  0  0  0  0  0  0  0  0  0
    1.6204    2.0554    0.2629 O   0  0  0  0  0  0  0  0  0  0  0  0
    0.9972    0.7211   -0.1444 C   0  0  0  0  0  0  0  0  0  0  0  0
   -0.1483    0.4372   -0.5263 O   0  0  0  0  0  0  0  0  0  0  0  0
    1.8519   -0.4954    0.0919 C   0  0  0  0  0  0  0  0  0  0  0  0
    3.1559   -0.3639   -0.6149 C   0  0  0  0  0  0  0  0  0  0  0  0
    4.1290    0.7522   -0.1297 C   0  0  0  0  0  0  0  0  0  0  0  0
    4.8958    0.5567    1.1899 C   0  0  0  0  0  0  0  0  0  0  0  0
    1.2828    3.9857   -1.4780 O   0  0  0  0  0  0  0  0  0  0  0  0
    1.9272    2.8383   -1.9088 C   0  0  0  0  0  0  0  0  0  0  0  0
    1.4461    1.7761   -2.1415 O   0  0  0  0  0  0  0  0  0  0  0  0
    3.2648    3.0527   -2.5107 C   0  0  0  0  0  0  0  0  0  0  0  0
    2.7373    3.2558   -3.9206 C   0  0  0  0  0  0  0  0  0  0  0  0
    1.8933    4.5426   -3.9522 C   0  0  0  0  0  0  0  0  0  0  0  0
    2.7371    5.6938   -3.3828 C   0  0  0  0  0  0  0  0  0  0  0  0
    3.9552    5.8774   -4.2840 C   0  0  0  0  0  0  0  0  0  0  0  0
    3.4967    6.1360   -5.7173 C   0  0  0  0  0  0  0  0  0  0  0  0
    2.6263    7.3812   -5.7593 C   0  0  0  0  0  0  0  0  0  0  0  0
  1  2  1  0
  3  5  1  0
  3  4  1  6
  3  2  1  0
  5  9  1  0
  6  7  1  6
  6  8  2  0
  6  9  1  0
  6 10  1  0
 10 11  1  0
 12 11  1  6
 12 13  1  0
 12 21  1  0
 13 14  1  0
 14 15  1  0
 15 16  2  0
 15 17  1  0
 17 18  1  0
 18 19  1  0
 19 20  1  0
 21 22  1  0
 22 23  2  0
 22 24  1  0
 24 25  1  0
 25 26  1  0
 26 27  1  0
 27 28  1  0
 28 29  1  0
 29 30  1  0
M  CHG  1   7  -1
M  END
>  <DRUGBANK_ID>  (1) 
DB07349

>  <COMMON_NAME>  (1) 
(1S)-2-{[{[(2S)-2,3-DIHYDROXYPROPYL]OXY}(HYDROXY)PHOSPHORYL]OXY}-1-[(PENTANOYLOXY)METHYL]ETHYL OCTANOATE

$$$$
