ITB
     RDKit          3D

 23 25  0  0  0  0  0  0  0  0999 V2000
    0.3554   -1.0295    0.2113 C   0  0  0  0  0  0  0  0  0  0  0  0
    1.7902   -1.5420    0.2599 C   0  0  0  0  0  0  0  0  0  0  0  0
    2.6130   -2.9172    0.5956 C   0  0  0  0  0  0  0  0  0  0  0  0
    2.4669   -4.0710    0.2484 O   0  0  0  0  0  0  0  0  0  0  0  0
    3.9474   -2.5132    1.0128 N   0  0  0  0  0  0  0  0  0  0  0  0
    4.1754   -1.9057    2.3919 C   0  0  0  0  0  0  0  0  0  0  0  0
    5.2855   -0.8981    2.6278 C   0  0  0  0  0  0  0  0  0  0  0  0
    6.5261   -1.4144    2.5297 O   0  0  0  0  0  0  0  0  0  0  0  0
    5.1138    0.2843    2.8947 O   0  0  0  0  0  0  0  0  0  0  0  0
    4.3444   -1.4931   -0.2972 S   0  0  0  0  0  0  0  0  0  0  0  0
    4.1091   -2.2039   -1.5506 O   0  0  0  0  0  0  0  0  0  0  0  0
    5.6129   -0.9016   -0.0186 O   0  0  0  0  0  0  0  0  0  0  0  0
    2.8268   -0.6121   -0.0049 C   0  0  0  0  0  0  0  0  0  0  0  0
    2.6038    0.7550   -0.0355 C   0  0  0  0  0  0  0  0  0  0  0  0
    3.6389    1.7809   -0.1581 C   0  0  0  0  0  0  0  0  0  0  0  0
    3.4867    2.9947   -0.0954 O   0  0  0  0  0  0  0  0  0  0  0  0
    4.7882    1.1836   -0.3286 O   0  0  0  0  0  0  0  0  0  0  0  0
    1.3028    1.2411    0.0911 C   0  0  0  0  0  0  0  0  0  0  0  0
    0.1995    0.4094    0.1479 C   0  0  0  0  0  0  0  0  0  0  0  0
   -1.0287    1.1241    0.0773 C   0  0  0  0  0  0  0  0  0  0  0  0
   -2.2194    0.4787   -0.1493 C   0  0  0  0  0  0  0  0  0  0  0  0
   -2.1968   -0.8985   -0.0232 C   0  0  0  0  0  0  0  0  0  0  0  0
   -0.9683   -1.6316    0.1991 C   0  0  0  0  0  0  0  0  0  0  0  0
  1 23  1  0
  1  2  2  0
  1 19  1  0
  2  3  1  0
  2 13  1  0
  3  4  2  0
  3  5  1  0
  5  6  1  0
  5 10  1  0
  6  7  1  0
  7  9  2  0
  7  8  1  0
 10 11  2  0
 10 12  2  0
 10 13  1  0
 13 14  2  0
 14 18  1  0
 14 15  1  0
 15 16  2  0
 15 17  1  0
 18 19  2  0
 19 20  1  0
 20 21  2  0
 21 22  1  0
 22 23  2  0
M  END
>  <DRUGBANK_ID>  (1) 
DB08000

>  <COMMON_NAME>  (1) 
2-(CARBOXYMETHYL)-1-OXO-1,2-DIHYDRONAPHTHO[1,2-D]ISOTHIAZOLE-4-CARBOXYLIC ACID 3,3-DIOXIDE

$$$$
