
     RDKit          3D

 17 18  0  0  1  0  0  0  0  0999 V2000
    1.9820    6.3149    1.5308 C   0  0  0  0  0  0  0  0  0  0  0  0
    3.2220   -1.6269    1.4106 C   0  0  0  0  0  0  0  0  0  0  0  0
    1.9298    5.1291    0.6535 C   0  0  0  0  0  0  0  0  0  0  0  0
    2.9788   -0.5430    0.3465 C   0  0  2  0  0  0  0  0  0  0  0  0
    4.1714   -0.5623   -0.6298 C   0  0  2  0  0  0  0  0  0  0  0  0
    4.0005    0.4879   -1.7178 C   0  0  1  0  0  0  0  0  0  0  0  0
    3.6514    1.8389   -1.1182 C   0  0  2  0  0  0  0  0  0  0  0  0
    2.4259    1.6926   -0.1931 C   0  0  2  0  0  0  0  0  0  0  0  0
    1.9354    3.0883    0.0718 C   0  0  0  0  0  0  0  0  0  0  0  0
    1.4657    5.0988   -0.5654 N   0  0  0  0  0  0  0  0  0  0  0  0
    1.3880    3.7855   -0.9092 N   0  0  0  0  0  0  0  0  0  0  0  0
    2.0993   -1.7400    2.2741 O   0  0  0  0  0  0  0  0  0  0  0  0
    4.3294   -1.8563   -1.2207 O   0  0  0  0  0  0  0  0  0  0  0  0
    5.2012    0.5789   -2.4927 O   0  0  0  0  0  0  0  0  0  0  0  0
    3.4830    2.7392   -2.2186 O   0  0  0  0  0  0  0  0  0  0  0  0
    2.3032    3.8797    1.1375 O   0  0  0  0  0  0  0  0  0  0  0  0
    2.7510    0.8017    0.9091 O   0  0  0  0  0  0  0  0  0  0  0  0
  3  1  1  0
  4  2  1  1
  5  4  1  0
  5 13  1  6
  6  5  1  0
  6 14  1  1
  7  6  1  0
  7 15  1  6
  8  7  1  0
  8  9  1  1
 10  3  2  0
 11  9  2  0
 11 10  1  0
 12  2  1  0
 16  3  1  0
 16  9  1  0
 17  4  1  0
 17  8  1  0
M  END
>  <DRUGBANK_ID>  (1) 
DB03354

>  <SECONDARY_ACCESSION_NUMBERS>  (1) 
EXPT02455

>  <COMMON_NAME>  (1) 
2-(Beta-D-Glucopyranosyl)-5-Methyl-1,3,4-Oxadiazole

$$$$
