007
     RDKit          3D

 13 14  0  0  0  0  0  0  0  0999 V2000
    1.2311   -0.1269    0.2672 C   0  0  0  0  0  0  0  0  0  0  0  0
    0.2977   -1.3101    0.0151 C   0  0  0  0  0  0  0  0  0  0  0  0
    0.4792    1.1187   -0.2556 C   0  0  0  0  0  0  0  0  0  0  0  0
   -1.1135   -0.7427    0.0982 C   0  0  0  0  0  0  0  0  0  0  0  0
   -0.9756    0.7784    0.1446 C   0  0  0  0  0  0  0  0  0  0  0  0
    1.0178    2.4286    0.3497 C   0  0  0  0  0  0  0  0  0  0  0  0
    2.3719    2.7648    0.1700 C   0  0  0  0  0  0  0  0  0  0  0  0
    0.1811    3.3914    0.9431 C   0  0  0  0  0  0  0  0  0  0  0  0
    2.8547    4.0356    0.4884 C   0  0  0  0  0  0  0  0  0  0  0  0
    0.6637    4.6666    1.2551 C   0  0  0  0  0  0  0  0  0  0  0  0
    1.9933    4.9915    1.0195 C   0  0  0  0  0  0  0  0  0  0  0  0
    0.6116    1.2904   -1.8131 C   0  0  0  0  0  0  0  0  0  0  0  0
    0.2284    0.1517   -2.6458 N   0  0  0  0  0  0  0  0  0  0  0  0
  1  2  1  0
  1  3  1  0
  2  4  1  0
  3  5  1  0
  3  6  1  0
  3 12  1  0
  4  5  1  0
  6  7  2  0
  6  8  1  0
  7  9  1  0
  8 10  2  0
  9 11  2  0
 10 11  1  0
 12 13  1  0
M  END
>  <DRUGBANK_ID>  (1) 
DB04577

>  <COMMON_NAME>  (1) 
1-(1-phenylcyclopentyl)methylamine

>  <CAS_NUMBER>  (1) 
17511-89-6

>  <UNII>  (1) 
03L0BL8FBI

>  <SYNONYMS>  (1) 
1-(1-phenylcyclopentyl)methanamine; 1-Phenylcyclopentanemethylamine; C-(1-Phenyl-cyclopentyl)-methylamine

$$$$
