
     RDKit          3D

 20 23  0  0  0  0  0  0  0  0999 V2000
   -0.6694   -0.0782    0.2206 C   0  0  0  0  0  0  0  0  0  0  0  0
    0.6628    0.0291    0.2298 C   0  0  0  0  0  0  0  0  0  0  0  0
   -1.5333    1.1349   -0.0590 C   0  0  0  0  0  0  0  0  0  0  0  0
   -1.5142   -1.1604    0.3389 N   0  0  0  0  0  0  0  0  0  0  0  0
    1.5507   -1.1667   -0.0465 C   0  0  0  0  0  0  0  0  0  0  0  0
    1.4881    1.1243    0.3718 N   0  0  0  0  0  0  0  0  0  0  0  0
   -2.9148    0.6131   -0.1005 C   0  0  0  0  0  0  0  0  0  0  0  0
   -1.1798    2.2796   -0.2740 O   0  0  0  0  0  0  0  0  0  0  0  0
   -2.8339   -0.7527    0.2068 C   0  0  0  0  0  0  0  0  0  0  0  0
    2.9240   -0.6173   -0.0741 C   0  0  0  0  0  0  0  0  0  0  0  0
    1.2185   -2.3147   -0.2769 O   0  0  0  0  0  0  0  0  0  0  0  0
    2.8153    0.7443    0.2434 C   0  0  0  0  0  0  0  0  0  0  0  0
   -4.1072    1.2520   -0.3849 C   0  0  0  0  0  0  0  0  0  0  0  0
   -3.9873   -1.4947    0.3473 C   0  0  0  0  0  0  0  0  0  0  0  0
    4.1303   -1.2244   -0.3696 C   0  0  0  0  0  0  0  0  0  0  0  0
    3.9485    1.5223    0.3511 C   0  0  0  0  0  0  0  0  0  0  0  0
   -5.2735    0.4902   -0.2840 C   0  0  0  0  0  0  0  0  0  0  0  0
   -5.2153   -0.8630    0.1041 C   0  0  0  0  0  0  0  0  0  0  0  0
    5.2766   -0.4287   -0.2943 C   0  0  0  0  0  0  0  0  0  0  0  0
    5.1877    0.9268    0.0801 C   0  0  0  0  0  0  0  0  0  0  0  0
  1  2  2  0
  1  3  1  0
  1  4  1  0
  2  5  1  0
  2  6  1  0
  3  7  1  0
  3  8  2  0
  4  9  1  0
  5 10  1  0
  5 11  2  0
  6 12  1  0
  7 13  1  0
  7  9  2  0
  9 14  1  0
 10 15  1  0
 10 12  2  0
 12 16  1  0
 13 17  2  0
 14 18  2  0
 15 19  2  0
 16 20  2  0
 17 18  1  0
 19 20  1  0
M  END
>  <DRUGBANK_ID>  (1) 
DB16862

>  <COMMON_NAME>  (1) 
Indigo

>  <CAS_NUMBER>  (1) 
482-89-3

>  <UNII>  (1) 
1G5BK41P4F

>  <SYNONYMS>  (1) 
D&C Blue No. 6; Indigotin

$$$$
