L1R
     RDKit          3D

 25 26  0  0  0  0  0  0  0  0999 V2000
    1.2591    0.1293    0.0644 C   0  0  0  0  0  0  0  0  0  0  0  0
    0.6116   -1.1596   -0.3390 C   0  0  0  0  0  0  0  0  0  0  0  0
    1.1650   -2.3651    0.4594 C   0  0  0  0  0  0  0  0  0  0  0  0
   -0.8332   -1.0377   -0.3616 O   0  0  0  0  0  0  0  0  0  0  0  0
   -1.5642   -0.9405    0.7820 C   0  0  0  0  0  0  0  0  0  0  0  0
   -1.3146   -0.0583    1.8026 C   0  0  0  0  0  0  0  0  0  0  0  0
   -2.1290   -0.0243    2.9292 C   0  0  0  0  0  0  0  0  0  0  0  0
   -3.2608   -0.8377    3.0156 C   0  0  0  0  0  0  0  0  0  0  0  0
   -3.6124   -1.6462    1.9327 C   0  0  0  0  0  0  0  0  0  0  0  0
   -4.8436   -2.3398    1.9695 N   0  0  0  0  0  0  0  0  0  0  0  0
   -5.4475   -3.1935    1.0500 C   0  0  0  0  0  0  0  0  0  0  0  0
   -6.6167   -3.5040    1.1653 O   0  0  0  0  0  0  0  0  0  0  0  0
   -4.6712   -3.8077   -0.0568 C   0  0  0  0  0  0  0  0  0  0  0  0
   -3.5004   -4.5061    0.2381 C   0  0  0  0  0  0  0  0  0  0  0  0
   -2.6932   -5.0418   -0.7786 C   0  0  0  0  0  0  0  0  0  0  0  0
   -1.2774   -5.8440   -0.1606 Cl  0  0  0  0  0  0  0  0  0  0  0  0
   -3.0216   -4.8230   -2.1387 C   0  0  0  0  0  0  0  0  0  0  0  0
   -2.2086   -4.9479   -3.2609 O   0  0  0  0  0  0  0  0  0  0  0  0
   -0.7627   -5.0005   -3.1688 C   0  0  0  0  0  0  0  0  0  0  0  0
   -0.0841   -3.7152   -2.6742 C   0  0  0  0  0  0  0  0  0  0  0  0
   -0.9248   -3.2509   -1.6256 N   0  0  0  0  0  0  0  0  0  0  0  0
   -4.2892   -4.2454   -2.4015 C   0  0  0  0  0  0  0  0  0  0  0  0
   -4.9406   -4.2418   -4.0081 Cl  0  0  0  0  0  0  0  0  0  0  0  0
   -5.0943   -3.7059   -1.3802 C   0  0  0  0  0  0  0  0  0  0  0  0
   -2.7530   -1.6571    0.8287 C   0  0  0  0  0  0  0  0  0  0  0  0
  1  2  1  0
  2  3  1  0
  2  4  1  0
  4  5  1  0
  5  6  2  0
  5 25  1  0
  6  7  1  0
  7  8  2  0
  8  9  1  0
  9 10  1  0
  9 25  2  0
 10 11  1  0
 11 12  2  0
 11 13  1  0
 13 14  2  0
 13 24  1  0
 14 15  1  0
 15 16  1  0
 15 17  2  0
 17 18  1  0
 17 22  1  0
 18 19  1  0
 19 20  1  0
 20 21  1  0
 22 23  1  0
 22 24  2  0
M  END
>  <DRUGBANK_ID>  (1) 
DB08072

>  <COMMON_NAME>  (1) 
4-(2-AMINOETHOXY)-3,5-DICHLORO-N-[3-(1-METHYLETHOXY)PHENYL]BENZAMIDE

$$$$
