251
     RDKit          3D

 24 26  0  0  0  0  0  0  0  0999 V2000
    1.3500   -0.1283    0.2385 C   0  0  0  0  0  0  0  0  0  0  0  0
    0.4470   -1.1658    0.5014 C   0  0  0  0  0  0  0  0  0  0  0  0
   -0.9523   -0.9680    0.3649 C   0  0  0  0  0  0  0  0  0  0  0  0
   -1.4144    0.3275    0.1618 C   0  0  0  0  0  0  0  0  0  0  0  0
   -0.5105    1.3902    0.0716 C   0  0  0  0  0  0  0  0  0  0  0  0
    0.8655    1.1571    0.0390 C   0  0  0  0  0  0  0  0  0  0  0  0
   -1.8784   -2.1263    0.2794 C   0  0  0  0  0  0  0  0  0  0  0  0
   -1.8950   -3.1819    1.1766 C   0  0  0  0  0  0  0  0  0  0  0  0
   -2.8866   -4.0916    0.7830 C   0  0  0  0  0  0  0  0  0  0  0  0
   -3.4341   -3.6499   -0.4047 C   0  0  0  0  0  0  0  0  0  0  0  0
   -2.7666   -2.4801   -0.7706 N   0  0  0  0  0  0  0  0  0  0  0  0
   -4.4729   -4.3266   -1.1788 C   0  0  0  0  0  0  0  0  0  0  0  0
   -4.1774   -4.9279   -2.4040 C   0  0  0  0  0  0  0  0  0  0  0  0
   -5.1642   -5.5295   -3.1753 C   0  0  0  0  0  0  0  0  0  0  0  0
   -6.4330   -5.6902   -2.6407 C   0  0  0  0  0  0  0  0  0  0  0  0
   -6.7117   -5.2128   -1.3593 C   0  0  0  0  0  0  0  0  0  0  0  0
   -5.7569   -4.4741   -0.6568 C   0  0  0  0  0  0  0  0  0  0  0  0
   -2.9997   -1.8025   -2.0723 C   0  0  0  0  0  0  0  0  0  0  0  0
   -2.6495   -2.6126   -3.3480 C   0  0  0  0  0  0  0  0  0  0  0  0
   -1.4200   -3.2548   -3.5184 N   0  0  0  0  0  0  0  0  0  0  0  0
   -3.4662   -2.7045   -4.2748 O   0  0  0  0  0  0  0  0  0  0  0  0
   -0.2212   -3.0476   -2.9164 C   0  0  0  0  0  0  0  0  0  0  0  0
    0.8398   -3.7697   -3.0696 N   0  0  0  0  0  0  0  0  0  0  0  0
   -0.0288   -2.0299   -2.1158 N   0  0  0  0  0  0  0  0  0  0  0  0
  1  2  2  0
  3  7  1  0
  3  2  1  0
  4  3  2  0
  5  4  1  0
  5  6  2  0
  6  1  1  0
  7  8  2  0
  9  8  1  0
 10  9  2  0
 11 10  1  0
 11  7  1  0
 12 10  1  0
 13 12  2  0
 14 13  1  0
 15 16  1  0
 15 14  2  0
 16 17  2  0
 17 12  1  0
 18 19  1  0
 18 11  1  0
 19 21  2  0
 20 22  1  0
 20 19  1  0
 22 23  2  0
 24 22  1  0
M  END
>  <DRUGBANK_ID>  (1) 
DB06930

>  <COMMON_NAME>  (1) 
N-[amino(imino)methyl]-2-(2,5-diphenyl-1H-pyrrol-1-yl)acetamide

$$$$
