
     RDKit          3D

 21 21  0  0  0  0  0  0  0  0999 V2000
    1.4959   -0.0252    0.2166 N   0  0  0  0  0  0  0  0  0  0  0  0
    0.3767   -0.5087    1.0553 C   0  0  0  0  0  0  0  0  0  0  0  0
   -0.9796   -0.4188    1.0133 C   0  0  0  0  0  0  0  0  0  0  0  0
   -2.7234   -3.9371   -1.0001 C   0  0  0  0  0  0  0  0  0  0  0  0
   -2.6520   -2.5642   -1.0154 O   0  0  0  0  0  0  0  0  0  0  0  0
   -3.9124   -2.1065   -1.3264 C   0  0  0  0  0  0  0  0  0  0  0  0
   -4.0211   -4.3344   -1.2431 C   0  0  0  0  0  0  0  0  0  0  0  0
   -4.7778   -3.1695   -1.4293 C   0  0  0  0  0  0  0  0  0  0  0  0
    1.3721    0.5968   -0.8551 O   0  0  0  0  0  0  0  0  0  0  0  0
    2.6116   -0.2785    0.6577 O   0  0  0  0  0  0  0  0  0  0  0  0
   -1.4898   -4.7740   -0.8157 C   0  0  0  0  0  0  0  0  0  0  0  0
   -1.7301   -0.9949    2.0708 N   0  0  0  0  0  0  0  0  0  0  0  0
   -1.7717    0.1944    0.0818 N   0  0  0  0  0  0  0  0  0  0  0  0
   -0.4672   -4.6046   -1.8662 N   0  0  0  0  0  0  0  0  0  0  0  0
   -3.4189    0.1026   -2.9455 S   0  0  0  0  0  0  0  0  0  0  0  0
   -4.2086   -0.6618   -1.5132 C   0  0  0  0  0  0  0  0  0  0  0  0
   -1.4428    0.8308   -1.1568 C   0  0  0  0  0  0  0  0  0  0  0  0
   -1.6904    0.0357   -2.4204 C   0  0  0  0  0  0  0  0  0  0  0  0
    0.6387   -5.5427   -1.6410 C   0  0  0  0  0  0  0  0  0  0  0  0
   -1.0291   -4.8387   -3.2000 C   0  0  0  0  0  0  0  0  0  0  0  0
   -3.1778   -1.1554    2.2390 C   0  0  0  0  0  0  0  0  0  0  0  0
  2  1  1  0
  3  2  2  3
  4  5  1  0
  5  6  1  0
  6 16  1  0
  7  8  1  0
  7  4  2  0
  8  6  2  0
  9  1  1  0
 10  1  2  0
 11  4  1  0
 12  3  1  0
 13  3  1  0
 14 11  1  0
 15 18  1  0
 16 15  1  0
 17 13  1  0
 18 17  1  0
 19 14  1  0
 20 14  1  0
 21 12  1  0
M  CHG  2   1   1   9  -1
M  END
>  <DRUGBANK_ID>  (1) 
DB00863

>  <SECONDARY_ACCESSION_NUMBERS>  (1) 
APRD00254

>  <COMMON_NAME>  (1) 
Ranitidine

>  <CAS_NUMBER>  (1) 
66357-35-5

>  <UNII>  (1) 
884KT10YB7

>  <SYNONYMS>  (1) 
Ranitidina; Ranitidine; Ranitidinum

$$$$
