
     RDKit          3D

 12 12  0  0  0  0  0  0  0  0999 V2000
    1.1376   -0.2253    0.2446 C   0  0  0  0  0  0  0  0  0  0  0  0
    0.5023    1.1350    0.6458 C   0  0  0  0  0  0  0  0  0  0  0  0
   -0.9155    1.1548   -0.0085 C   0  0  0  0  0  0  0  0  0  0  0  0
   -0.9104    1.5088   -1.5140 C   0  0  0  0  0  0  0  0  0  0  0  0
   -0.0932    2.7673   -1.7837 C   0  0  0  0  0  0  0  0  0  0  0  0
    1.3177    2.7773   -1.1313 C   0  0  0  0  0  0  0  0  0  0  0  0
    1.1546    2.4319    0.2944 N   0  0  0  0  0  0  0  0  0  0  0  0
    2.3832    2.5661    0.9499 O   0  0  0  0  0  1  0  0  0  0  0  0
    2.3207    1.8518   -1.8527 C   0  0  0  0  0  0  0  0  0  0  0  0
    1.8443    4.2352   -1.3186 C   0  0  0  0  0  0  0  0  0  0  0  0
   -0.5503    0.4346   -2.3817 O   0  0  0  0  0  0  0  0  0  0  0  0
    0.4241    1.0692    2.2040 C   0  0  0  0  0  0  0  0  0  0  0  0
  1  2  1  0
  2  3  1  0
  2  7  1  0
  2 12  1  0
  3  4  1  0
  4  5  1  0
  4 11  1  0
  5  6  1  0
  6  7  1  0
  6  9  1  0
  6 10  1  0
  7  8  1  0
M  RAD  1   8   2
M  END
>  <DRUGBANK_ID>  (1) 
DB12449

>  <COMMON_NAME>  (1) 
Tempol

>  <CAS_NUMBER>  (1) 
2226-96-2

>  <UNII>  (1) 
U78ZX2F65X

>  <SYNONYMS>  (1) 
1-PIPERIDINYLOXY,4-HYDROXY-2,2,6,6-TETRAMETHYL-; 2,2,6,6-TETRAMETHYL-4-HYDROXYPIPERIDINE 1-OXIDE RADICAL; 2,2,6,6-TETRAMETHYL-4-HYDROXYPIPERIDINOOXY; 2,2,6,6-TETRAMETHYL-4-HYDROXYPIPERIDINOOXY RADICAL; 4-HYDROXY-2,2,6,6-TETRAMETHYL-1-PIPERIDINYLOXY; 4-HYDROXY-2,2,6,6-TETRAMETHYL-PIPERIDIN-1-OXYL; 4-HYDROXY-2,2,6,6-TETRAMETHYLPIPERIDIN-1-YL)OXIDANYL; 4-Hydroxy-2,2,6,6-tetramethylpiperidine-N-oxyl; 4-HYDROXY-2,2,6,6-TETRAMETHYLPIPERIDINEY-1-OXYL; 4-HYDROXY-2,2,6,6-TETRAMETHYLPIPERIDINLYOXY; 4-HYDROXY-2,2,6,6-TETRAMETHYLPIPERIDINOOXY; 4-HYDROXY-2,2,6,6-TETRAMETHYLPIPERIDINOOXYL; 4-OXYPIPERIDOL

$$$$
