
     RDKit          3D

 17 17  0  0  0  0  0  0  0  0999 V2000
    0.9550   -0.0783    0.0429 C   0  0  0  0  0  0  0  0  0  0  0  0
    5.4963   -2.5386   -2.8556 C   0  0  0  0  0  0  0  0  0  0  0  0
   -0.3488   -0.0783    0.0429 C   0  0  0  0  0  0  0  0  0  0  0  0
    4.7445   -2.0952   -3.9597 C   0  0  0  0  0  0  0  0  0  0  0  0
    5.0352   -3.5912   -2.0669 C   0  0  0  0  0  0  0  0  0  0  0  0
    4.2074   -4.5273   -2.7136 C   0  0  0  0  0  0  0  0  0  0  0  0
    3.8679   -2.9944   -4.5623 C   0  0  0  0  0  0  0  0  0  0  0  0
    6.8984   -1.5883   -2.4311 Cl  0  0  0  0  0  0  0  0  0  0  0  0
    2.8897   -0.9168   -0.9955 N   0  0  0  0  0  0  0  0  0  0  0  0
    3.6961   -4.2411   -3.9982 C   0  0  0  0  0  0  0  0  0  0  0  0
    3.1061   -2.5564   -6.0404 Cl  0  0  0  0  0  0  0  0  0  0  0  0
    2.4750   -0.0783    0.0429 C   0  0  0  0  0  0  0  0  0  0  0  0
    5.4215   -3.8182   -0.7660 O   0  0  0  0  0  0  0  0  0  0  0  0
    5.0046   -1.5480    0.3397 C   0  0  0  0  0  0  0  0  0  0  0  0
    4.3105   -0.8172   -0.8018 C   0  0  0  0  0  0  0  0  0  0  0  0
    4.8367   -3.0661    0.3400 C   0  0  0  0  0  0  0  0  0  0  0  0
    2.1980   -2.2034   -0.9591 C   0  0  0  0  0  0  0  0  0  0  0  0
  1  3  3  0
  1 12  1  0
  2  4  2  0
  2  5  1  0
  2  8  1  0
  4  7  1  0
  5  6  2  0
  5 13  1  0
  6 10  1  0
  7 10  2  0
  7 11  1  0
  9 12  1  0
  9 15  1  0
  9 17  1  0
 13 16  1  0
 14 15  1  0
 14 16  1  0
M  END
>  <DRUGBANK_ID>  (1) 
DB04017

>  <SECONDARY_ACCESSION_NUMBERS>  (1) 
EXPT02182; DB14032

>  <COMMON_NAME>  (1) 
Clorgiline

>  <CAS_NUMBER>  (1) 
17780-72-2

>  <UNII>  (1) 
LYJ16FZU9Q

>  <SYNONYMS>  (1) 
Clorgilina; Clorgiline; Clorgilinum; Clorgyline

$$$$
