LI3
     RDKit          3D

 25 28  0  0  0  0  0  0  0  0999 V2000
    2.2047   -0.0562   -0.0658 F   0  0  0  0  0  0  0  0  0  0  0  0
    0.8667   -0.0175   -0.0224 C   0  0  0  0  0  0  0  0  0  0  0  0
    0.2311    1.2236   -0.0144 C   0  0  0  0  0  0  0  0  0  0  0  0
   -1.1449    1.3152    0.1547 C   0  0  0  0  0  0  0  0  0  0  0  0
   -1.8041    0.1155    0.4017 C   0  0  0  0  0  0  0  0  0  0  0  0
   -1.2444   -1.1443    0.1341 C   0  0  0  0  0  0  0  0  0  0  0  0
    0.1417   -1.2061   -0.0057 C   0  0  0  0  0  0  0  0  0  0  0  0
   -2.0664   -2.4077   -0.0024 C   0  0  0  0  0  0  0  0  0  0  0  0
   -1.4896   -3.4896    0.0002 O   0  0  0  0  0  0  0  0  0  0  0  0
   -3.4609   -2.4028   -0.0855 N   0  0  0  0  0  0  0  0  0  0  0  0
   -4.3431   -1.3197   -0.2390 C   0  0  0  0  0  0  0  0  0  0  0  0
   -4.0908   -0.3247   -1.1879 C   0  0  0  0  0  0  0  0  0  0  0  0
   -4.7389    0.9111   -1.1228 C   0  0  0  0  0  0  0  0  0  0  0  0
   -5.7469    1.0662   -0.1675 C   0  0  0  0  0  0  0  0  0  0  0  0
   -6.5346    2.1589    0.1235 N   0  0  0  0  0  0  0  0  0  0  0  0
   -7.4804    1.8140    1.0510 C   0  0  0  0  0  0  0  0  0  0  0  0
   -7.2023    0.5349    1.4778 C   0  0  0  0  0  0  0  0  0  0  0  0
   -6.1101    0.0447    0.7100 C   0  0  0  0  0  0  0  0  0  0  0  0
   -5.3907   -1.1715    0.6828 C   0  0  0  0  0  0  0  0  0  0  0  0
   -1.8057    2.5159    0.0505 N   0  0  0  0  0  0  0  0  0  0  0  0
   -1.5978    3.3552   -1.1410 C   0  0  0  0  0  0  0  0  0  0  0  0
   -1.3766    4.7900   -0.6534 C   0  0  0  0  0  0  0  0  0  0  0  0
   -2.5018    5.2569    0.1187 O   0  0  0  0  0  0  0  0  0  0  0  0
   -2.7074    4.4132    1.2741 C   0  0  0  0  0  0  0  0  0  0  0  0
   -2.9572    2.9536    0.8552 C   0  0  0  0  0  0  0  0  0  0  0  0
  1  2  1  0
  2  3  2  0
  2  7  1  0
  3  4  1  0
  4  5  2  0
  4 20  1  0
  5  6  1  0
  6  7  2  0
  6  8  1  0
  8  9  2  0
  8 10  1  0
 10 11  1  0
 11 12  2  0
 11 19  1  0
 12 13  1  0
 13 14  2  0
 14 15  1  0
 14 18  1  0
 15 16  1  0
 16 17  2  0
 17 18  1  0
 18 19  2  0
 20 21  1  0
 20 25  1  0
 21 22  1  0
 22 23  1  0
 23 24  1  0
 24 25  1  0
M  END
>  <DRUGBANK_ID>  (1) 
DB08092

>  <COMMON_NAME>  (1) 
3-fluoro-N-1H-indol-5-yl-5-morpholin-4-ylbenzamide

$$$$
