
     RDKit          3D

  9  9  0  0  0  0  0  0  0  0999 V2000
    1.1028    0.0077   -0.0070 C   0  0  0  0  0  0  0  0  0  0  0  0
    0.5513   -0.0100    1.3886 C   0  0  0  0  0  0  0  0  0  0  0  0
    0.3110   -1.2227    2.0428 C   0  0  0  0  0  0  0  0  0  0  0  0
   -0.2448   -1.2381    3.3240 C   0  0  0  0  0  0  0  0  0  0  0  0
   -0.6164   -0.0325    3.9188 C   0  0  0  0  0  0  0  0  0  0  0  0
   -1.2645   -0.0245    5.1293 O   0  0  0  0  0  0  0  0  0  0  0  0
   -0.3778    1.1942    3.2890 C   0  0  0  0  0  0  0  0  0  0  0  0
   -0.6135    2.4031    3.9693 N   0  0  0  0  0  0  0  0  0  0  0  0
    0.2886    1.1952    2.0607 C   0  0  0  0  0  0  0  0  0  0  0  0
  1  2  1  0
  2  3  2  0
  2  9  1  0
  3  4  1  0
  4  5  2  0
  5  6  1  0
  5  7  1  0
  7  8  1  0
  7  9  2  0
M  END
>  <DRUGBANK_ID>  (1) 
DB04533

>  <SECONDARY_ACCESSION_NUMBERS>  (1) 
EXPT00100

>  <COMMON_NAME>  (1) 
2-Amino-4-methylphenol

>  <CAS_NUMBER>  (1) 
95-84-1

>  <UNII>  (1) 
9ZV2574SER

>  <SYNONYMS>  (1) 
2-Amino-p-cresol; 2-Hydroxy-5-methylaniline; 3-Amino-4-hydroxytoluene; 4-Methyl-2-aminophenol

$$$$
