
     RDKit          3D

 34 39  0  0  0  0  0  0  0  0999 V2000
    4.3261    0.7301   -0.9019 C   0  0  0  0  0  0  0  0  0  0  0  0
    3.5831    1.9008   -0.7394 C   0  0  0  0  0  0  0  0  0  0  0  0
    2.3245    1.8650   -0.1337 C   0  0  0  0  0  0  0  0  0  0  0  0
    3.8096   -0.4910   -0.4773 C   0  0  0  0  0  0  0  0  0  0  0  0
    1.7739    0.6501    0.2786 C   0  0  0  0  0  0  0  0  0  0  0  0
    2.5259   -0.5427    0.0833 C   0  0  0  0  0  0  0  0  0  0  0  0
    1.9997   -1.8260    0.6780 C   0  0  0  0  0  0  0  0  0  0  0  0
    0.5634    0.6022    0.9936 N   0  0  0  0  0  0  0  0  0  0  0  0
    0.7683   -2.2531   -0.0954 C   0  0  0  0  0  0  0  0  0  0  0  0
   -0.4573   -1.3542   -0.0876 C   0  0  0  0  0  0  0  0  0  0  0  0
   -0.5487   -0.0755    0.4952 C   0  0  0  0  0  0  0  0  0  0  0  0
   -1.7639    0.6300    0.4651 C   0  0  0  0  0  0  0  0  0  0  0  0
   -2.8761    0.0837   -0.1427 C   0  0  0  0  0  0  0  0  0  0  0  0
   -2.7865   -1.1552   -0.7596 C   0  0  0  0  0  0  0  0  0  0  0  0
   -1.5870   -1.8648   -0.7353 C   0  0  0  0  0  0  0  0  0  0  0  0
   -4.3526    0.9595   -0.1452 Cl  0  0  0  0  0  0  0  0  0  0  0  0
    0.4070    1.2181    2.3339 C   0  0  0  0  0  0  0  0  0  0  0  0
    1.2629    0.5298    3.3543 C   0  0  0  0  0  0  0  0  0  0  0  0
    2.6981    0.6516    2.9686 C   0  0  0  0  0  0  0  0  0  0  0  0
    3.4799    1.8971    2.9341 N   0  0  0  0  0  0  0  0  0  0  0  0
    4.1579    0.2107    7.8322 C   0  0  0  0  0  0  0  0  0  0  0  0
    5.0487    1.1033    8.6968 C   0  0  0  0  0  0  0  0  0  0  0  0
    4.2643    2.4283    9.2355 C   0  0  0  0  0  0  0  0  0  0  0  0
    4.0082    3.2340    7.9456 C   0  0  0  0  0  0  0  0  0  0  0  0
    3.1650    2.3878    7.0757 N   0  0  0  0  0  0  0  0  0  0  0  0
    2.8894    1.0022    7.5238 C   0  0  0  0  0  0  0  0  0  0  0  0
    4.6443    4.1629    7.0579 N   0  0  0  0  0  0  0  0  0  0  0  0
    4.9239    3.4487    5.8796 C   0  0  0  0  0  0  0  0  0  0  0  0
    3.7261    2.5158    5.7160 C   0  0  0  0  0  0  0  0  0  0  0  0
    4.6561    1.4455    3.6351 C   0  0  0  0  0  0  0  0  0  0  0  0
    4.1626    1.2318    5.0505 C   0  0  0  0  0  0  0  0  0  0  0  0
    2.6621    3.2620    4.9066 C   0  0  0  0  0  0  0  0  0  0  0  0
    3.0705    3.2191    3.4436 C   0  0  0  0  0  0  0  0  0  0  0  0
    5.9238    3.5325    5.2355 O   0  0  0  0  0  0  0  0  0  0  0  0
  1  2  2  0
  2  3  1  0
  3  5  2  0
  4  1  1  0
  5  8  1  0
  5  6  1  0
  6  4  2  0
  6  7  1  0
  7  9  1  0
  8 17  1  0
  8 11  1  0
  9 10  1  0
 10 11  2  0
 11 12  1  0
 12 13  2  0
 13 16  1  0
 13 14  1  0
 14 15  2  0
 15 10  1  0
 17 18  1  0
 18 19  1  0
 19 20  1  0
 21 22  1  0
 21 26  1  0
 22 23  1  0
 23 24  1  0
 24 25  1  0
 24 27  1  0
 25 26  1  0
 27 28  1  0
 28 29  1  0
 28 34  2  0
 29 25  1  0
 29 32  1  0
 30 31  1  0
 30 20  1  0
 31 29  1  0
 32 33  1  0
 33 20  1  0
M  END
>  <DRUGBANK_ID>  (1) 
DB13676

>  <COMMON_NAME>  (1) 
Mosapramine

>  <CAS_NUMBER>  (1) 
89419-40-9

>  <UNII>  (1) 
04UZQ7O9SJ

>  <SYNONYMS>  (1) 
Mosapramine

$$$$
