
     RDKit          3D

 35 38  0  0  1  0  0  0  0  0999 V2000
   -2.4762    1.5636    0.9891 C   0  0  0  0  0  0  0  0  0  0  0  0
   -3.0898    1.5671   -0.4051 C   0  0  0  0  0  0  0  0  0  0  0  0
   -2.9647   -0.9364   -0.4579 C   0  0  0  0  0  0  0  0  0  0  0  0
   -1.3414   -2.1987    1.0335 C   0  0  0  0  0  0  0  0  0  0  0  0
   -1.5124    0.3727    1.2427 C   0  0  2  0  0  0  0  0  0  0  0  0
    0.5443    1.8272    0.5480 C   0  0  0  0  0  0  0  0  0  0  0  0
    2.9243   -1.7257   -0.3397 C   0  0  0  0  0  0  0  0  0  0  0  0
    4.0969   -1.0702   -1.0467 C   0  0  0  0  0  0  0  0  0  0  0  0
   -1.1646    0.4009    2.7557 C   0  0  0  0  0  0  0  0  0  0  0  0
   -0.2214    0.4798    0.3656 C   0  0  1  0  0  0  0  0  0  0  0  0
    0.6891   -0.7740    0.5548 C   0  0  2  0  0  0  0  0  0  0  0  0
    1.9113   -0.6046   -0.3300 C   0  0  1  0  0  0  0  0  0  0  0  0
    2.7144    0.6528    0.0533 C   0  0  1  0  0  0  0  0  0  0  0  0
    3.0253    0.7214    1.5650 C   0  0  0  0  0  0  0  0  0  0  0  0
   -3.8593    0.2769   -0.6568 C   0  0  2  0  0  0  0  0  0  0  0  0
   -4.3523    0.2732   -1.9934 O   0  0  0  0  0  0  0  0  0  0  0  0
   -0.0253   -2.0994    0.2722 C   0  0  2  0  0  0  0  0  0  0  0  0
   -0.2180   -2.3235   -1.1182 O   0  0  0  0  0  0  0  0  0  0  0  0
   -2.2563   -0.9620    0.9106 C   0  0  1  0  0  0  0  0  0  0  0  0
    6.1197   -0.6966    1.2469 C   0  0  0  0  0  0  0  0  0  0  0  0
    5.8943    0.7975    0.9991 C   0  0  0  0  0  0  0  0  0  0  0  0
    7.1486   -1.3384    0.3364 C   0  0  0  0  0  0  0  0  0  0  0  0
    7.0227   -1.5992   -0.8529 O   0  0  0  0  0  0  0  0  0  0  0  0
    3.9834    0.4662   -0.8347 C   0  0  1  0  0  0  0  0  0  0  0  0
    1.8642    1.9039   -0.2426 C   0  0  1  0  0  0  0  0  0  0  0  0
    1.5782    2.0757   -1.6253 O   0  0  0  0  0  0  0  0  0  0  0  0
    5.2654    1.2213   -0.3667 C   0  0  2  0  0  0  0  0  0  0  0  0
    6.3473    1.1533   -1.4490 C   0  0  0  0  0  0  0  0  0  0  0  0
    8.3216   -1.6298    0.9301 N   0  0  0  0  0  0  0  0  0  0  0  0
    9.4627   -1.9586    0.1111 C   0  0  0  0  0  0  0  0  0  0  0  0
   10.6620   -1.1815    0.5777 C   0  0  0  0  0  0  0  0  0  0  0  0
   11.2979   -3.1393    2.1051 O   0  0  0  0  0  0  0  0  0  0  0  0
   12.2569   -0.9029    2.6566 O   0  0  0  0  0  0  0  0  0  0  0  0
   11.0150   -1.5572    2.2844 S   0  0  0  0  0  0  0  0  0  0  0  0
    9.8168   -1.4355    3.0759 O   0  0  0  0  0  0  0  0  0  0  0  0
  2  1  1  0
  4 17  1  0
  5 10  1  0
  5  9  1  1
  5  1  1  0
  6 25  1  0
  8  7  1  0
 10  6  1  1
 10 11  1  0
 11 12  1  0
 11 17  1  6
 12 13  1  0
 12  7  1  1
 13 24  1  0
 13 25  1  0
 13 14  1  1
 15  3  1  0
 15  2  1  0
 15 16  1  6
 17 18  1  6
 19  5  1  0
 19  3  1  6
 19  4  1  0
 20 21  1  0
 20 22  1  0
 22 29  1  0
 22 23  2  0
 24  8  1  1
 24 27  1  0
 25 26  1  6
 27 21  1  0
 27 28  1  6
 29 30  1  0
 30 31  1  0
 31 34  1  0
 34 32  1  0
 34 33  2  0
 34 35  2  0
M  END
>  <DRUGBANK_ID>  (1) 
DB04348

>  <SECONDARY_ACCESSION_NUMBERS>  (1) 
EXPT03023

>  <COMMON_NAME>  (1) 
Taurocholic acid

>  <CAS_NUMBER>  (1) 
81-24-3

>  <UNII>  (1) 
5E090O0G3Z

$$$$
