
     RDKit          3D

 20 20  0  0  1  0  0  0  0  0999 V2000
   -0.7278    1.6886   -0.0227 C   0  0  0  0  0  0  0  0  0  0  0  0
    0.5445    1.2109   -0.7473 C   0  0  2  0  0  0  0  0  0  0  0  0
    2.1561    1.7509   -3.1551 C   0  0  2  0  0  0  0  0  0  0  0  0
    1.4018    2.4620   -0.8653 C   0  0  2  0  0  0  0  0  0  0  0  0
    2.5713    2.2949   -1.7857 C   0  0  2  0  0  0  0  0  0  0  0  0
    1.3112    0.4568   -2.9391 C   0  0  1  0  0  0  0  0  0  0  0  0
    3.3757    1.5206   -3.9780 N   0  0  0  0  0  0  0  0  0  0  0  0
    1.8344    2.9005    0.4209 O   0  0  0  0  0  0  0  0  0  0  0  0
    3.1485    3.6113   -1.8813 O   0  0  0  0  0  0  0  0  0  0  0  0
    2.1246   -0.6267   -2.5207 O   0  0  0  0  0  0  0  0  0  0  0  0
    5.1206    3.2087   -3.0487 O   0  0  0  0  0  0  0  0  0  0  0  0
    5.3187    2.3718   -5.3292 O   0  0  0  0  0  0  0  0  0  0  0  0
    3.4239    3.9351   -4.6889 O   0  0  0  0  0  0  0  0  0  0  0  0
   -0.8876    2.4313   -3.1355 O   0  0  0  0  0  0  0  0  0  0  0  0
   -2.9682    1.6817   -2.0121 O   0  0  0  0  0  0  0  0  0  0  0  0
   -2.4203    4.1278   -2.4166 O   0  0  0  0  0  0  0  0  0  0  0  0
   -1.2565    2.8645   -0.6423 O   0  0  0  0  0  0  0  0  0  0  0  0
    0.2397    0.6114   -2.0022 O   0  0  0  0  0  0  0  0  0  0  0  0
    4.3344    2.8402   -4.4012 S   0  0  0  0  0  0  0  0  0  0  0  0
   -2.0372    2.7831   -2.0650 S   0  0  0  0  0  0  0  0  0  0  0  0
  2  1  1  6
  3  7  1  6
  4  2  1  0
  4  8  1  1
  5  3  1  0
  5  4  1  0
  5  9  1  6
  6  3  1  0
  6 10  1  1
 17  1  1  0
 18  2  1  0
 18  6  1  0
 19  7  1  0
 19 11  1  0
 19 12  2  0
 19 13  2  0
 20 14  1  0
 20 15  2  0
 20 16  2  0
 20 17  1  0
M  END
>  <DRUGBANK_ID>  (1) 
DB03959

>  <SECONDARY_ACCESSION_NUMBERS>  (1) 
EXPT02898

>  <COMMON_NAME>  (1) 
N,O6-Disulfo-Glucosamine

$$$$
