
     RDKit          3D

 29 30  0  0  0  0  0  0  0  0999 V2000
    0.8939    0.1846   -0.0088 N   0  0  0  0  0  0  0  0  0  0  0  0
    0.3201   -0.7934   -0.8497 C   0  0  0  0  0  0  0  0  0  0  0  0
   -0.7849   -0.5056   -1.6563 C   0  0  0  0  0  0  0  0  0  0  0  0
   -1.4554   -1.5160   -2.3530 C   0  0  0  0  0  0  0  0  0  0  0  0
   -0.9930   -2.8404   -2.3351 C   0  0  0  0  0  0  0  0  0  0  0  0
    0.1187   -3.1446   -1.5445 C   0  0  0  0  0  0  0  0  0  0  0  0
    0.7599   -2.1275   -0.8029 C   0  0  0  0  0  0  0  0  0  0  0  0
    0.2173    1.0435    0.8078 C   0  0  0  0  0  0  0  0  0  0  0  0
   -1.0565    1.1441    0.9791 N   0  0  0  0  0  0  0  0  0  0  0  0
    0.9732    1.8765    1.5446 N   0  0  0  0  0  0  0  0  0  0  0  0
   -1.7033   -3.8113   -3.2168 C   0  0  0  0  0  0  0  0  0  0  0  0
   -2.6552   -3.4409   -3.9065 O   0  0  0  0  0  0  0  0  0  0  0  0
   -1.1549   -5.0833   -3.2010 O   0  0  0  0  0  0  0  0  0  0  0  0
   -1.6553   -5.9681   -4.1813 C   0  0  0  0  0  0  0  0  0  0  0  0
   -1.8244   -5.5769   -5.5133 C   0  0  0  0  0  0  0  0  0  0  0  0
   -2.3814   -6.4470   -6.4555 C   0  0  0  0  0  0  0  0  0  0  0  0
   -2.6834   -7.7568   -6.1065 C   0  0  0  0  0  0  0  0  0  0  0  0
   -2.3489   -8.1710   -4.8133 C   0  0  0  0  0  0  0  0  0  0  0  0
   -1.9089   -7.2818   -3.8248 C   0  0  0  0  0  0  0  0  0  0  0  0
   -3.3971   -8.6750   -7.0738 C   0  0  0  0  0  0  0  0  0  0  0  0
   -2.6397   -9.9529   -7.3465 C   0  0  0  0  0  0  0  0  0  0  0  0
   -3.2136  -11.1446   -7.0531 O   0  0  0  0  0  0  0  0  0  0  0  0
   -4.4856  -11.2946   -6.4110 C   0  0  0  0  0  0  0  0  0  0  0  0
   -4.6185  -10.6841   -5.0055 C   0  0  0  0  0  0  0  0  0  0  0  0
   -5.4669   -9.8141   -4.7951 O   0  0  0  0  0  0  0  0  0  0  0  0
   -3.7421  -11.1043   -4.0140 N   0  0  0  0  0  0  0  0  0  0  0  0
   -2.7304  -12.1371   -4.1866 C   0  0  0  0  0  0  0  0  0  0  0  0
   -3.7823  -10.4169   -2.7245 C   0  0  0  0  0  0  0  0  0  0  0  0
   -1.5118   -9.9320   -7.8377 O   0  0  0  0  0  0  0  0  0  0  0  0
  1  8  1  0
  1  2  1  0
  2  3  2  0
  3  4  1  0
  4  5  2  0
  5 11  1  0
  5  6  1  0
  6  7  2  0
  7  2  1  0
  8  9  2  0
  8 10  1  0
 11 12  2  0
 11 13  1  0
 13 14  1  0
 14 15  2  0
 15 16  1  0
 16 17  2  0
 17 18  1  0
 17 20  1  0
 18 19  2  0
 19 14  1  0
 20 21  1  0
 21 22  1  0
 21 29  2  0
 22 23  1  0
 23 24  1  0
 24 25  2  0
 24 26  1  0
 26 27  1  0
 26 28  1  0
M  END
>  <DRUGBANK_ID>  (1) 
DB13729

>  <COMMON_NAME>  (1) 
Camostat

>  <CAS_NUMBER>  (1) 
59721-28-7

>  <UNII>  (1) 
0FD207WKDU

>  <SYNONYMS>  (1) 
Camostat; Camostatum

$$$$
