
     RDKit          3D

 20 21  0  0  0  0  0  0  0  0999 V2000
    1.2400    1.3880    0.0370 C   0  0  0  0  0  0  0  0  0  0  0  0
   -0.0040    0.7070    0.0140 C   0  0  0  0  0  0  0  0  0  0  0  0
    0.0010   -0.7260    0.0180 C   0  0  0  0  0  0  0  0  0  0  0  0
    1.2490   -1.3950    0.0090 C   0  0  0  0  0  0  0  0  0  0  0  0
    2.4310   -0.6990   -0.0310 C   0  0  0  0  0  0  0  0  0  0  0  0
    2.4280    0.7140   -0.0200 C   0  0  0  0  0  0  0  0  0  0  0  0
   -1.2280    1.3850   -0.0150 C   0  0  0  0  0  0  0  0  0  0  0  0
   -2.4390    0.7130   -0.0150 C   0  0  0  0  0  0  0  0  0  0  0  0
   -2.4200   -0.6910   -0.0130 C   0  0  0  0  0  0  0  0  0  0  0  0
   -1.2590   -1.3940    0.0150 C   0  0  0  0  0  0  0  0  0  0  0  0
    1.2525    2.9053    0.1273 C   0  0  0  0  0  0  0  0  0  0  0  0
    0.5227    3.4902   -1.0709 C   0  0  1  0  0  0  0  0  0  0  0  0
   -3.4134    3.4779   -1.0159 C   0  0  0  0  0  0  0  0  0  0  0  0
   -1.9763    3.9731   -1.0067 C   0  0  0  0  0  0  0  0  0  0  0  0
   -0.8670    3.0113   -1.0798 N   0  0  0  0  0  0  0  0  0  0  0  0
   -1.7338    5.2186   -0.9359 O   0  0  0  0  0  0  0  0  0  0  0  0
    1.9541    5.5759   -0.9668 O   0  0  0  0  0  0  0  0  0  0  0  0
   -0.1843    5.6645   -2.1583 O   0  0  0  0  0  0  0  0  0  0  0  0
   -0.1497    5.5187    0.2866 O   0  0  0  0  0  0  0  0  0  0  0  0
    0.5359    5.0873   -0.9759 B   0  0  0  0  0  0  0  0  0  0  0  0
  1  2  2  0
  1  6  1  0
  1 11  1  0
  2  3  1  0
  2  7  1  0
  3  4  2  0
  4  5  1  0
  5  6  2  0
  7  8  2  0
  8  9  1  0
 10  3  1  0
 10  9  2  0
 12 11  1  1
 12 15  1  0
 14 13  1  0
 14 15  1  0
 14 16  2  0
 20 12  1  0
 20 17  1  0
 20 18  1  0
 20 19  1  0
M  CHG  1  20  -1
M  END
>  <DRUGBANK_ID>  (1) 
DB08566

>  <COMMON_NAME>  (1) 
D-1-naphthyl-2-acetamido-ethane boronic acid

$$$$
