
     RDKit          3D

 27 30  0  0  1  0  0  0  0  0999 V2000
    0.8756   -0.0551    0.0620 C   0  0  0  0  0  0  0  0  0  0  0  0
    0.3999    1.3661   -0.3017 C   0  0  0  0  0  0  0  0  0  0  0  0
    0.8622    1.6339   -1.7636 C   0  0  0  0  0  0  0  0  0  0  0  0
   -1.0691    1.4714   -0.1762 N   0  0  0  0  0  0  0  0  0  0  0  0
   -1.8874    2.2758    0.6161 C   0  0  0  0  0  0  0  0  0  0  0  0
   -3.0861    2.2639    0.4441 O   0  0  0  0  0  0  0  0  0  0  0  0
   -1.2605    3.0181    1.5945 O   0  0  0  0  0  0  0  0  0  0  0  0
   -2.0359    3.9098    2.4693 C   0  0  2  0  0  0  0  0  0  0  0  0
   -2.2720    5.3009    1.8601 C   0  0  0  0  0  0  0  0  0  0  0  0
   -1.6941    6.4479    2.6732 N   0  0  0  0  0  0  0  0  0  0  0  0
   -0.3060    6.3072    3.1739 C   0  0  0  0  0  0  0  0  0  0  0  0
   -0.0073    4.9073    3.6161 C   0  0  0  0  0  0  0  0  0  0  0  0
   -1.3108    4.1659    3.8256 C   0  0  0  0  0  0  0  0  0  0  0  0
   -2.1567    5.1417    4.6789 C   0  0  0  0  0  0  0  0  0  0  0  0
   -2.4053    6.4890    3.9497 C   0  0  0  0  0  0  0  0  0  0  0  0
    1.0701    2.4350    0.5080 C   0  0  0  0  0  0  0  0  0  0  0  0
    1.8440    2.3042    1.6429 C   0  0  0  0  0  0  0  0  0  0  0  0
    2.6550    3.8192    1.8921 S   0  0  0  0  0  0  0  0  0  0  0  0
    1.5996    4.6175    0.7162 C   0  0  0  0  0  0  0  0  0  0  0  0
    0.8854    3.7436    0.0496 N   0  0  0  0  0  0  0  0  0  0  0  0
    1.3977    6.1184    0.5890 C   0  0  0  0  0  0  0  0  0  0  0  0
    0.1124    6.6519    0.2602 C   0  0  0  0  0  0  0  0  0  0  0  0
   -0.3273    7.9717    0.6017 C   0  0  0  0  0  0  0  0  0  0  0  0
    0.5904    8.8481    1.1332 C   0  0  0  0  0  0  0  0  0  0  0  0
    0.1960   10.0468    1.5933 F   0  0  0  0  0  0  0  0  0  0  0  0
    1.8968    8.4037    1.3467 C   0  0  0  0  0  0  0  0  0  0  0  0
    2.2882    7.0530    1.1158 C   0  0  0  0  0  0  0  0  0  0  0  0
  1  2  1  0
  2  3  1  0
  2  4  1  0
  2 16  1  0
  4  5  1  0
  5  6  2  0
  5  7  1  0
  8  7  1  6
  8  9  1  0
  8 13  1  0
  9 10  1  0
 10 11  1  0
 10 15  1  0
 11 12  1  0
 12 13  1  0
 13 14  1  0
 14 15  1  0
 16 17  2  0
 16 20  1  0
 17 18  1  0
 18 19  1  0
 19 20  2  0
 19 21  1  0
 21 22  2  0
 21 27  1  0
 22 23  1  0
 23 24  2  0
 24 25  1  0
 24 26  1  0
 26 27  2  0
M  END
>  <DRUGBANK_ID>  (1) 
DB14966

>  <COMMON_NAME>  (1) 
Venglustat

>  <CAS_NUMBER>  (1) 
1401090-53-6

>  <UNII>  (1) 
BLP1XA3FZA

>  <SYNONYMS>  (1) 
GENZ-682452; Venglustat

$$$$
