336
     RDKit          3D

 14 14  0  0  0  0  0  0  0  0999 V2000
    0.2501    5.1079   -0.0335 O   0  0  0  0  0  0  0  0  0  0  0  0
    0.5733    7.7321   -0.0267 O   0  0  0  0  0  0  0  0  0  0  0  0
    2.7686    7.5162   -0.0034 O   0  0  0  0  0  0  0  0  0  0  0  0
   -3.4485   -0.3096    0.0036 O   0  0  0  0  0  0  0  0  0  0  0  0
    1.6122    7.0668   -0.0188 N   0  0  0  0  0  0  0  0  0  0  0  0
   -1.8755    2.9379   -0.0276 N   0  0  0  0  0  0  0  0  0  0  0  0
   -2.6758    1.8030   -0.0179 N   0  0  0  0  0  0  0  0  0  0  0  0
   -1.2610   -0.1243    0.0051 N   0  0  0  0  0  0  0  0  0  0  0  0
    0.4483    3.7609   -0.0311 C   0  0  0  0  0  0  0  0  0  0  0  0
    1.8021    3.4623   -0.0274 C   0  0  0  0  0  0  0  0  0  0  0  0
    1.5049    5.6463   -0.0268 C   0  0  0  0  0  0  0  0  0  0  0  0
    2.4875    4.6856   -0.0233 C   0  0  0  0  0  0  0  0  0  0  0  0
   -0.6018    2.7962   -0.0261 C   0  0  0  0  0  0  0  0  0  0  0  0
   -2.4749    0.4529   -0.0029 C   0  0  0  0  0  0  0  0  0  0  0  0
  1  9  1  0
  1 11  1  0
  2  5  1  0
  3  5  2  0
  4 14  2  0
  5 11  1  0
  6  7  1  0
  6 13  2  0
  7 14  1  0
  8 14  1  0
  9 10  2  0
  9 13  1  0
 10 12  1  0
 11 12  2  0
M  CHG  2   2  -1   5   1
M  END
>  <DRUGBANK_ID>  (1) 
DB00336

>  <SECONDARY_ACCESSION_NUMBERS>  (1) 
APRD00050

>  <COMMON_NAME>  (1) 
Nitrofural

>  <CAS_NUMBER>  (1) 
59-87-0

>  <UNII>  (1) 
X8XI70B5Z6

>  <SYNONYMS>  (1) 
5-Nitro-2-furaldehyde semicarbazone; Furacilin; Nitrofural; Nitrofurazone

$$$$
