
     RDKit          3D

 28 32  0  0  1  0  0  0  0  0999 V2000
   -3.4789   -0.7681   -0.1138 C   0  0  0  0  0  0  0  0  0  0  0  0
   -2.1632   -0.2449    0.2153 N   0  0  0  0  0  0  0  0  0  0  0  0
   -1.9168    1.0722   -0.3875 C   0  0  0  0  0  0  0  0  0  0  0  0
   -0.6209    1.7102    0.1818 C   0  0  1  0  0  0  0  0  0  0  0  0
   -0.8078    2.1497    1.6343 C   0  0  0  0  0  0  0  0  0  0  0  0
   -1.1043    1.2176    2.6468 C   0  0  0  0  0  0  0  0  0  0  0  0
   -1.3764    1.6020    3.9586 C   0  0  0  0  0  0  0  0  0  0  0  0
   -1.2986    2.9720    4.2937 C   0  0  0  0  0  0  0  0  0  0  0  0
   -1.5859    3.3573    5.6078 C   0  0  0  0  0  0  0  0  0  0  0  0
   -1.9470    2.4130    6.5711 C   0  0  0  0  0  0  0  0  0  0  0  0
   -2.0242    1.0627    6.2342 C   0  0  0  0  0  0  0  0  0  0  0  0
   -1.7369    0.6605    4.9337 C   0  0  0  0  0  0  0  0  0  0  0  0
   -0.9457    3.9009    3.3021 C   0  0  0  0  0  0  0  0  0  0  0  0
   -0.7158    3.5007    1.9840 C   0  0  0  0  0  0  0  0  0  0  0  0
    0.5514    0.7566    0.0263 C   0  0  0  0  0  0  0  0  0  0  0  0
    1.8652    1.2453    0.0033 C   0  0  0  0  0  0  0  0  0  0  0  0
    2.9482    0.3645   -0.0566 C   0  0  0  0  0  0  0  0  0  0  0  0
    2.7498   -1.0239   -0.0829 C   0  0  0  0  0  0  0  0  0  0  0  0
    1.4245   -1.5024   -0.0813 C   0  0  0  0  0  0  0  0  0  0  0  0
    0.3202   -0.6294   -0.0333 C   0  0  0  0  0  0  0  0  0  0  0  0
   -1.0894   -1.1982   -0.1023 C   0  0  0  0  0  0  0  0  0  0  0  0
    3.8852   -1.9527   -0.0169 C   0  0  0  0  0  0  0  0  0  0  0  0
    4.0604   -2.8284   -1.0283 N   0  0  0  0  0  0  0  0  0  0  0  0
    5.0868   -3.7689   -0.9683 N   0  0  0  0  0  0  0  0  0  0  0  0
    5.8449   -3.8913    0.1375 C   0  0  0  0  0  0  0  0  0  0  0  0
    6.7799   -4.9198    0.2387 N   0  0  0  0  0  0  0  0  0  0  0  0
    5.6151   -3.0615    1.2184 C   0  0  0  0  0  0  0  0  0  0  0  0
    4.7064   -2.0121    1.0984 C   0  0  0  0  0  0  0  0  0  0  0  0
  1  2  1  0
  2  3  1  0
  2 21  1  0
  4  3  1  0
  4 15  1  0
  4  5  1  1
  5  6  2  0
  5 14  1  0
  6  7  1  0
  7  8  2  0
  7 12  1  0
  8  9  1  0
  8 13  1  0
  9 10  2  0
 10 11  1  0
 11 12  2  0
 13 14  2  0
 15 16  1  0
 15 20  2  0
 16 17  2  0
 17 18  1  0
 18 19  2  0
 18 22  1  0
 19 20  1  0
 20 21  1  0
 22 23  2  0
 22 28  1  0
 23 24  1  0
 24 25  2  0
 25 26  1  0
 25 27  1  0
 27 28  2  0
M  END
>  <DRUGBANK_ID>  (1) 
DB14878

>  <COMMON_NAME>  (1) 
Liafensine

>  <CAS_NUMBER>  (1) 
1198790-53-2

>  <UNII>  (1) 
R34ID086Z6

>  <SYNONYMS>  (1) 
BMS-820836; Liafensine

$$$$
