
     RDKit          3D

 14 14  0  0  0  0  0  0  0  0999 V2000
    1.1874   -0.1366    0.2114 O   0  0  0  0  0  0  0  0  0  0  0  0
    2.6215   -0.0185    0.2250 S   0  0  0  0  0  0  0  0  0  0  0  0
    3.3422   -0.0485    1.4805 O   0  0  0  0  0  0  0  0  0  0  0  0
    3.1844   -1.2427   -0.6617 O   0  0  0  0  0  0  0  0  0  0  0  0
    3.2144    1.3645   -0.7686 C   0  0  0  0  0  0  0  0  0  0  0  0
    2.7058    1.4117   -2.2087 C   0  0  0  0  0  0  0  0  0  0  0  0
    1.1886    1.4790   -2.3214 C   0  0  0  0  0  0  0  0  0  0  0  0
    0.6485    2.6337   -1.6020 N   0  0  0  0  0  0  0  0  0  0  0  0
   -0.8209    2.6197   -1.5684 C   0  0  0  0  0  0  0  0  0  0  0  0
   -1.3015    3.8630   -0.8005 C   0  0  0  0  0  0  0  0  0  0  0  0
   -2.8233    3.8679   -0.6663 C   0  0  0  0  0  0  0  0  0  0  0  0
   -3.3307    2.5940    0.0034 C   0  0  0  0  0  0  0  0  0  0  0  0
   -2.8663    1.3585   -0.7480 C   0  0  0  0  0  0  0  0  0  0  0  0
   -1.3581    1.3491   -0.8894 C   0  0  0  0  0  0  0  0  0  0  0  0
  1  2  2  0
  2  3  2  0
  2  4  1  0
  2  5  1  0
  5  6  1  0
  6  7  1  0
  7  8  1  0
  8  9  1  0
  9 10  1  0
 10 11  1  0
 11 12  1  0
 12 13  1  0
 13 14  1  0
 14  9  1  0
M  END
>  <DRUGBANK_ID>  (1) 
DB02219

>  <SECONDARY_ACCESSION_NUMBERS>  (1) 
EXPT01070

>  <COMMON_NAME>  (1) 
3-(cyclohexylamino)propanesulfonic acid

>  <CAS_NUMBER>  (1) 
1135-40-6

>  <UNII>  (1) 
4W981O1LXP

>  <SYNONYMS>  (1) 
3-(Cyclohexylamino)-1-propanesulfonic acid; 3-Cyclohexylaminopropane-1-sulphonic acid; CAPS

$$$$
