
     RDKit          3D

 25 24  0  0  0  0  0  0  0  0999 V2000
    0.9799    0.0559   -0.3451 O   0  0  0  0  0  0  0  0  0  0  0  0
    0.7326    2.2379    3.2027 O   0  0  0  0  0  0  0  0  0  0  0  0
    1.6746    4.4759    0.8856 O   0  0  0  0  0  0  0  0  0  0  0  0
    4.5169    4.3563    4.8400 O   0  0  0  0  0  0  0  0  0  0  0  0
    4.4700    4.5185    2.5797 O   0  0  0  0  0  0  0  0  0  0  0  0
    2.4367    2.4074    0.5967 N   0  0  0  0  0  0  0  0  0  0  0  0
    2.9697   -0.7993   -0.8314 N   0  0  0  0  0  0  0  0  0  0  0  0
    6.3535   -3.1511   -2.7787 N   0  0  0  0  0  0  0  0  0  0  0  0
    8.3963   -3.9829   -3.4626 N   0  0  0  0  0  0  0  0  0  0  0  0
    6.4659   -4.9369   -4.2705 N   0  0  0  0  0  0  0  0  0  0  0  0
    2.3581    0.3826    2.1440 C   0  0  0  0  0  0  0  0  0  0  0  0
    2.8489    1.0239    0.8571 C   0  0  1  0  0  0  0  0  0  0  0  0
    2.9886   -0.8612    2.7268 C   0  0  0  0  0  0  0  0  0  0  0  0
    2.1992    0.1043   -0.1750 C   0  0  0  0  0  0  0  0  0  0  0  0
    4.5082   -0.8628    2.6663 C   0  0  0  0  0  0  0  0  0  0  0  0
    2.5790   -0.9042    4.2129 C   0  0  0  0  0  0  0  0  0  0  0  0
    4.4078   -0.8930   -0.8519 C   0  0  0  0  0  0  0  0  0  0  0  0
    4.8740   -2.2640   -0.3708 C   0  0  0  0  0  0  0  0  0  0  0  0
    4.4114   -3.3731   -1.2978 C   0  0  0  0  0  0  0  0  0  0  0  0
    1.9709    3.3977    1.4052 C   0  0  0  0  0  0  0  0  0  0  0  0
    1.7679    3.1960    2.9175 C   0  0  2  0  0  0  0  0  0  0  0  0
    4.8866   -3.1271   -2.7153 C   0  0  0  0  0  0  0  0  0  0  0  0
    3.1022    2.8934    3.6461 C   0  0  0  0  0  0  0  0  0  0  0  0
    4.0376    4.0351    3.6322 C   0  0  0  0  0  0  0  0  0  0  0  0
    7.0620   -4.0224   -3.5049 C   0  0  0  0  0  0  0  0  0  0  0  0
  1 14  2  0
  3 20  2  0
  4 24  1  0
  5 24  2  0
  6 20  1  0
  7 14  1  0
  7 17  1  0
  8 22  1  0
  8 25  2  3
  9 25  1  0
 10 25  1  0
 12 11  1  1
 11 13  1  0
 12  6  1  0
 12 14  1  0
 13 15  1  0
 13 16  1  0
 17 18  1  0
 18 19  1  0
 19 22  1  0
 20 21  1  0
 21  2  1  6
 21 23  1  0
 23 24  1  0
M  CHG  1   8   1
M  END
>  <DRUGBANK_ID>  (1) 
DB04276

>  <SECONDARY_ACCESSION_NUMBERS>  (1) 
EXPT01317

>  <COMMON_NAME>  (1) 
4-[[(2S)-2-[[(2S)-3-Carboxy-2-hydroxypropanoyl]amino]-4-methylpentanoyl]amino]butyl-(diaminomethylidene)azanium

$$$$
