P9A
     RDKit          3D

 32 36  0  0  0  0  0  0  0  0999 V2000
    1.2735   -0.2479   -0.9576 O   0  0  0  0  0  0  0  0  0  0  0  0
   -1.3414    0.0054    2.3486 O   0  0  0  0  0  0  0  0  0  0  0  0
   -3.3751   -5.2979   -0.8912 O   0  0  0  0  0  0  0  0  0  0  0  0
   -1.1466   -2.4664    2.8470 O   0  0  0  0  0  0  0  0  0  0  0  0
    1.3229   -4.5094   -1.2797 O   0  0  0  0  0  0  0  0  0  0  0  0
    3.6272   -3.2381   -1.5816 O   0  0  0  0  0  0  0  0  0  0  0  0
    3.9444   -1.3310   -0.4472 O   0  0  0  0  0  0  0  0  0  0  0  0
   -1.2550   -4.3713   -0.5610 N   0  0  0  0  0  0  0  0  0  0  0  0
   -2.6553   -4.2781   -0.9336 C   0  0  0  0  0  0  0  0  0  0  0  0
   -3.3991   -2.9533   -1.1614 C   0  0  0  0  0  0  0  0  0  0  0  0
   -3.5531   -2.1540    0.1042 C   0  0  0  0  0  0  0  0  0  0  0  0
   -2.1440   -1.9029    0.7059 C   0  0  2  0  0  0  0  0  0  0  0  0
   -2.1259   -0.5712    1.6760 C   0  0  0  0  0  0  0  0  0  0  0  0
   -3.3591    0.1292    1.6121 C   0  0  0  0  0  0  0  0  0  0  0  0
   -2.8902    0.5660   -0.1166 C   0  0  0  0  0  0  0  0  0  0  0  0
   -1.3332    0.5339   -0.7856 C   0  0  2  0  0  0  0  0  0  0  0  0
   -1.0044   -0.9601   -0.4450 C   0  0  1  0  0  0  0  0  0  0  0  0
    0.3713   -0.5608    0.0754 C   0  0  2  0  0  0  0  0  0  0  0  0
    0.7551    0.5691    1.1426 C   0  0  0  0  0  0  0  0  0  0  0  0
    0.5187    1.7248    0.2810 C   0  0  2  0  0  0  0  0  0  0  0  0
   -0.9468    1.7985   -0.0183 C   0  0  0  0  0  0  0  0  0  0  0  0
   -0.0318    1.2711   -1.9498 C   0  0  0  0  0  0  0  0  0  0  0  0
    1.1908    1.1737   -0.9547 C   0  0  2  0  0  0  0  0  0  0  0  0
    2.6906    1.5421   -0.7809 C   0  0  0  0  0  0  0  0  0  0  0  0
   -2.3000   -3.6960    1.4820 C   0  0  0  0  0  0  0  0  0  0  0  0
    3.3236   -2.5292   -0.6957 C   0  0  0  0  0  0  0  0  0  0  0  0
    2.2381   -2.8690    0.2965 C   0  0  0  0  0  0  0  0  0  0  0  0
    1.1648   -3.6912   -0.1946 C   0  0  0  0  0  0  0  0  0  0  0  0
   -0.1204   -3.6042    0.3723 C   0  0  0  0  0  0  0  0  0  0  0  0
   -0.1374   -2.8352    1.7964 C   0  0  0  0  0  0  0  0  0  0  0  0
    0.9117   -2.0457    2.2116 C   0  0  0  0  0  0  0  0  0  0  0  0
    2.0984   -2.0432    1.4574 C   0  0  0  0  0  0  0  0  0  0  0  0
  2 13  2  0
  3  9  2  0
  4 30  1  0
  5 28  1  0
  6 26  2  0
  8 29  1  0
  9  8  1  0
 10  9  1  0
 10 11  1  0
 12 11  1  0
 12 25  1  1
 17 12  1  1
 13 12  1  0
 14 13  1  0
 14 15  1  0
 16 15  1  6
 16 21  1  0
 16 22  1  0
 16 17  1  0
 17 18  1  0
 18  1  1  0
 18 19  1  1
 20 19  1  1
 20 23  1  0
 21 20  1  0
 22 23  1  0
 23  1  1  0
 23 24  1  6
 26  7  1  0
 27 26  1  0
 27 32  2  0
 28 27  1  0
 29 28  2  0
 29 30  1  0
 30 31  2  0
 31 32  1  0
M  END
>  <DRUGBANK_ID>  (1) 
DB08366

>  <COMMON_NAME>  (1) 
3-({3-[(1S,4aS,6S,7S,9S,9aR)-1,6-dimethyl-2-oxodecahydro-6,9-epoxy-4a,7-methanobenzo[7]annulen-1-yl]propanoyl}amino)-2,4-dihydroxybenzoic acid

$$$$
