
     RDKit          3D

  7  6  0  0  0  0  0  0  0  0999 V2000
    1.0313    0.0017    0.0538 O   0  0  0  0  0  0  0  0  0  0  0  0
    2.2582    0.0171    0.0753 C   0  0  0  0  0  0  0  0  0  0  0  0
    3.0629    0.4924    1.2586 C   0  0  0  0  0  0  0  0  0  0  0  0
    3.9949   -0.6009    1.7795 C   0  0  0  0  0  0  0  0  0  0  0  0
    5.0350   -1.0648    0.7607 C   0  0  0  0  0  0  0  0  0  0  0  0
    5.9515    0.0609    0.3526 C   0  0  0  0  0  0  0  0  0  0  0  0
    7.1699    0.0268    0.4953 O   0  0  0  0  0  0  0  0  0  0  0  0
  1  2  2  0
  2  3  1  0
  3  4  1  0
  4  5  1  0
  5  6  1  0
  6  7  2  0
M  END
>  <DRUGBANK_ID>  (1) 
DB03266

>  <SECONDARY_ACCESSION_NUMBERS>  (1) 
EXPT02681

>  <COMMON_NAME>  (1) 
Glutaral

>  <CAS_NUMBER>  (1) 
111-30-8

>  <UNII>  (1) 
T3C89M417N

>  <SYNONYMS>  (1) 
Glutaral; Pentanedial

$$$$
