
     RDKit          3D

 15 15  0  0  0  0  0  0  0  0999 V2000
   -0.2873   -1.1362   -0.0135 N   0  0  0  0  0  0  0  0  0  0  0  0
   -1.1384   -0.0517    0.0010 C   0  0  0  0  0  0  0  0  0  0  0  0
    0.9899   -0.6269    0.0035 C   0  0  0  0  0  0  0  0  0  0  0  0
   -0.7116   -2.5308   -0.0365 C   0  0  0  0  0  0  0  0  0  0  0  0
   -0.3234    1.0580    0.0028 C   0  0  0  0  0  0  0  0  0  0  0  0
    0.9950    0.6920    0.0124 N   0  0  0  0  0  0  0  0  0  0  0  0
   -0.2620   -3.2280   -1.3135 C   0  0  0  0  0  0  0  0  0  0  0  0
    0.5201   -4.3531   -1.1515 N   0  0  0  0  0  0  0  0  0  0  0  0
    1.1603   -5.0190   -2.2846 C   0  0  0  0  0  0  0  0  0  0  0  0
   -0.5528   -2.7771   -2.4194 O   0  0  0  0  0  0  0  0  0  0  0  0
    2.6901   -4.9276   -2.2556 C   0  0  0  0  0  0  0  0  0  0  0  0
    3.2050   -5.5959   -1.1059 O   0  0  0  0  0  0  0  0  0  0  0  0
    2.2010   -1.4083    0.0561 N   0  0  0  0  0  0  0  0  0  0  0  0
    3.2772   -0.8054   -0.0541 O   0  0  0  0  0  0  0  0  0  0  0  0
    2.0956   -2.6282    0.2390 O   0  0  0  0  0  0  0  0  0  0  0  0
  1  2  1  0
  1  3  1  0
  1  4  1  0
  2  5  2  0
  3  6  2  0
  3 13  1  0
  4  7  1  0
  5  6  1  0
  7  8  1  0
  7 10  2  0
  8  9  1  0
  9 11  1  0
 11 12  1  0
 14 13  1  0
 15 13  2  0
M  CHG  2  13   1  14  -1
M  END
>  <DRUGBANK_ID>  (1) 
DB12736

>  <COMMON_NAME>  (1) 
Etanidazole

>  <CAS_NUMBER>  (1) 
22668-01-5

>  <UNII>  (1) 
30DKA3Q1HL

>  <SYNONYMS>  (1) 
Etanidazol; Etanidazole; Etanidazolum

$$$$
