194
     RDKit          3D

 31 33  0  0  0  0  0  0  0  0999 V2000
    1.4105   -0.1155   -0.0861 C   0  0  0  0  0  0  0  0  0  0  0  0
    0.5762   -1.2261   -0.1276 C   0  0  0  0  0  0  0  0  0  0  0  0
   -0.8025   -1.0685   -0.1031 C   0  0  0  0  0  0  0  0  0  0  0  0
   -1.3321    0.2250   -0.0097 C   0  0  0  0  0  0  0  0  0  0  0  0
   -0.4872    1.3614    0.0785 C   0  0  0  0  0  0  0  0  0  0  0  0
    0.8920    1.1920   -0.0967 C   0  0  0  0  0  0  0  0  0  0  0  0
    1.8958    2.2507   -0.3881 C   0  0  0  0  0  0  0  0  0  0  0  0
    1.4512    3.4691   -0.7323 O   0  0  0  0  0  0  0  0  0  0  0  0
    3.1022    2.0188   -0.3379 O   0  0  0  0  0  0  0  0  0  0  0  0
   -1.1619    2.6378    0.4504 C   0  0  0  0  0  0  0  0  0  0  0  0
   -0.3804    3.6619    0.8460 O   0  0  0  0  0  0  0  0  0  0  0  0
   -2.3736    2.7602    0.4076 O   0  0  0  0  0  0  0  0  0  0  0  0
   -1.6963   -2.1160   -0.1079 O   0  0  0  0  0  0  0  0  0  0  0  0
   -1.2514   -3.4113    0.0898 C   0  0  0  0  0  0  0  0  0  0  0  0
   -0.5850   -3.8647    1.2431 C   0  0  0  0  0  0  0  0  0  0  0  0
   -0.4019   -5.2413    1.3612 C   0  0  0  0  0  0  0  0  0  0  0  0
   -0.5828   -6.1270    0.3124 C   0  0  0  0  0  0  0  0  0  0  0  0
   -1.2547   -5.6888   -0.8056 C   0  0  0  0  0  0  0  0  0  0  0  0
   -1.6103   -4.3395   -0.9098 C   0  0  0  0  0  0  0  0  0  0  0  0
   -0.0658   -2.9831    2.2291 N   0  0  0  0  0  0  0  0  0  0  0  0
    0.8813   -3.1761    3.2266 C   0  0  0  0  0  0  0  0  0  0  0  0
    1.1786   -2.2498    3.9795 O   0  0  0  0  0  0  0  0  0  0  0  0
    1.5793   -4.4743    3.4211 C   0  0  0  0  0  0  0  0  0  0  0  0
    2.2260   -5.1241    2.3560 C   0  0  0  0  0  0  0  0  0  0  0  0
    2.5998   -6.4692    2.5003 C   0  0  0  0  0  0  0  0  0  0  0  0
    2.4937   -7.1065    3.7423 C   0  0  0  0  0  0  0  0  0  0  0  0
    1.9914   -6.3969    4.8372 C   0  0  0  0  0  0  0  0  0  0  0  0
    1.4725   -5.1092    4.6650 C   0  0  0  0  0  0  0  0  0  0  0  0
    2.9972   -7.2421    1.3135 N   0  0  0  0  0  0  0  0  0  0  0  0
    3.3928   -8.4028    1.4865 O   0  0  0  0  0  0  0  0  0  0  0  0
    2.8791   -6.6975    0.2067 O   0  0  0  0  0  0  0  0  0  0  0  0
  1  2  2  0
  1  6  1  0
  2  3  1  0
  3  4  2  0
  3 13  1  0
  4  5  1  0
  5  6  2  0
  5 10  1  0
  6  7  1  0
  7  8  1  0
  7  9  2  0
 10 11  1  0
 10 12  2  0
 13 14  1  0
 14 15  1  0
 14 19  2  0
 15 16  2  0
 15 20  1  0
 16 17  1  0
 17 18  2  0
 18 19  1  0
 20 21  1  0
 21 22  2  0
 21 23  1  0
 23 24  2  0
 23 28  1  0
 24 25  1  0
 25 26  2  0
 25 29  1  0
 26 27  1  0
 27 28  2  0
 29 30  1  0
 29 31  2  0
M  CHG  2  29   1  30  -1
M  END
>  <DRUGBANK_ID>  (1) 
DB04044

>  <SECONDARY_ACCESSION_NUMBERS>  (1) 
EXPT00061

>  <COMMON_NAME>  (1) 
4-{2-[(3-Nitrobenzoyl)Amino]Phenoxy}Phthalic Acid

$$$$
