TDA
     RDKit          3D

 15 14  0  0  0  0  0  0  0  0999 V2000
    0.8929    0.2205   -0.1881 O   0  0  0  0  0  0  0  0  0  0  0  0
    0.9931   -0.7997   -2.1695 O   0  0  0  0  0  0  0  0  0  0  0  0
    0.3105   -0.3557   -1.2552 C   0  0  0  0  0  0  0  0  0  0  0  0
   -1.1928   -0.4008   -1.1857 C   0  0  0  0  0  0  0  0  0  0  0  0
   -1.6865   -1.2996   -0.0518 C   0  0  0  0  0  0  0  0  0  0  0  0
   -1.2705   -0.7680    1.3227 C   0  0  0  0  0  0  0  0  0  0  0  0
   -1.7917    0.6593    1.5295 C   0  0  0  0  0  0  0  0  0  0  0  0
   -3.3224    0.6584    1.5269 C   0  0  0  0  0  0  0  0  0  0  0  0
   -3.8382   -0.2394    2.6554 C   0  0  0  0  0  0  0  0  0  0  0  0
   -3.3296    0.2788    4.0048 C   0  0  0  0  0  0  0  0  0  0  0  0
   -3.8343    1.7064    4.2347 C   0  0  0  0  0  0  0  0  0  0  0  0
   -5.3670    1.7273    4.2366 C   0  0  0  0  0  0  0  0  0  0  0  0
   -5.9188    0.8473    5.3639 C   0  0  0  0  0  0  0  0  0  0  0  0
   -5.4204    1.3206    6.7300 C   0  0  0  0  0  0  0  0  0  0  0  0
   -5.8684    2.7498    6.9891 C   0  0  0  0  0  0  0  0  0  0  0  0
  1  3  1  0
  2  3  2  0
  3  4  1  0
  4  5  1  0
  5  6  1  0
  6  7  1  0
  7  8  1  0
  8  9  1  0
  9 10  1  0
 10 11  1  0
 11 12  1  0
 12 13  1  0
 13 14  1  0
 14 15  1  0
M  END
>  <DRUGBANK_ID>  (1) 
DB02448

>  <SECONDARY_ACCESSION_NUMBERS>  (1) 
EXPT03028

>  <COMMON_NAME>  (1) 
N-Tridecanoic Acid

>  <CAS_NUMBER>  (1) 
638-53-9

>  <UNII>  (1) 
19936LIY2V

$$$$
