
     RDKit          3D

 26 28  0  0  0  0  0  0  0  0999 V2000
    1.0529    0.0957    0.0645 C   0  0  0  0  0  0  0  0  0  0  0  0
    1.1047    1.8970   -1.6722 C   0  0  0  0  0  0  0  0  0  0  0  0
   -5.3404    5.0669    3.6143 C   0  0  0  0  0  0  0  0  0  0  0  0
   -4.3626    5.0564    2.6395 C   0  0  0  0  0  0  0  0  0  0  0  0
   -6.0777    3.9102    3.8749 C   0  0  0  0  0  0  0  0  0  0  0  0
   -4.1331    3.8880    1.9335 C   0  0  0  0  0  0  0  0  0  0  0  0
   -5.8422    2.7348    3.1615 C   0  0  0  0  0  0  0  0  0  0  0  0
   -6.7300    0.5418   -4.5235 C   0  0  0  0  0  0  0  0  0  0  0  0
   -7.6675    2.6315   -3.7533 C   0  0  0  0  0  0  0  0  0  0  0  0
   -5.8920    0.5110   -3.4049 C   0  0  0  0  0  0  0  0  0  0  0  0
   -6.8713    2.5699   -2.6044 C   0  0  0  0  0  0  0  0  0  0  0  0
   -3.0214    2.7192   -1.0990 C   0  0  0  0  0  0  0  0  0  0  0  0
   -3.0414    0.1640   -1.0657 C   0  0  0  0  0  0  0  0  0  0  0  0
   -1.5188    2.6735   -1.0540 C   0  0  0  0  0  0  0  0  0  0  0  0
   -1.5350    0.2536   -1.0776 C   0  0  0  0  0  0  0  0  0  0  0  0
   -4.7532    1.4948    1.2690 C   0  0  0  0  0  0  0  0  0  0  0  0
    0.4697    1.4583   -0.3444 C   0  0  0  0  0  0  0  0  0  0  0  0
   -4.8983    2.7244    2.1391 C   0  0  0  0  0  0  0  0  0  0  0  0
   -7.6331    1.5902   -4.6783 C   0  0  0  0  0  0  0  0  0  0  0  0
   -5.9819    1.5063   -2.4198 C   0  0  0  0  0  0  0  0  0  0  0  0
   -3.6808    1.4413   -1.5863 C   0  0  0  0  0  0  0  0  0  0  0  0
   -5.6727    1.5108    0.0199 C   0  0  0  0  0  0  0  0  0  0  0  0
   -8.7545    1.5667   -5.9835 Cl  0  0  0  0  0  0  0  0  0  0  0  0
   -1.0177    1.4509   -0.4025 N   0  0  0  0  0  0  0  0  0  0  0  0
   -5.1252    1.4660   -1.2755 N   0  0  0  0  0  0  0  0  0  0  0  0
   -6.9064    1.4971    0.2000 O   0  0  0  0  0  0  0  0  0  0  0  0
  4  3  2  0
  5  3  1  0
  6  4  1  0
  7  5  2  0
 10  8  2  0
 11  9  1  0
 14 12  1  0
 15 13  1  0
 17  1  1  0
 17  2  1  0
 18  6  2  0
 18  7  1  0
 18 16  1  0
 19  8  1  0
 19  9  2  0
 20 10  1  0
 20 11  2  0
 21 12  1  0
 21 13  1  0
 22 16  1  0
 23 19  1  0
 24 14  1  0
 24 15  1  0
 24 17  1  0
 25 20  1  0
 25 21  1  0
 25 22  1  0
 26 22  2  0
M  END
>  <DRUGBANK_ID>  (1) 
DB13653

>  <COMMON_NAME>  (1) 
Lorcainide

>  <CAS_NUMBER>  (1) 
59729-31-6

>  <UNII>  (1) 
KGJ2T0N7IQ

>  <SYNONYMS>  (1) 
Lorcainide

$$$$
