
     RDKit          3D

 39 43  0  0  0  0  0  0  0  0999 V2000
    0.9289   -0.0165   -0.0684 P   0  0  2  0  0  0  0  0  0  0  0  0
    0.7418    3.0878   -2.4924 O   0  0  0  0  0  0  0  0  0  0  0  0
    3.9470   -1.3342   -0.5591 O   0  0  0  0  0  0  0  0  0  0  0  0
    0.8417   -0.4678   -1.6290 O   0  0  0  0  0  0  0  0  0  0  0  0
    0.9161   -1.3612    0.8878 O   0  0  0  0  0  0  0  0  0  0  0  0
    3.3220    1.3428   -1.7663 O   0  0  0  0  0  0  0  0  0  0  0  0
    4.5346   -4.0851   -0.2119 O   0  0  0  0  0  0  0  0  0  0  0  0
    6.6621   -2.7794    0.7618 O   0  0  0  0  0  0  0  0  0  0  0  0
    1.5223    4.3553   -4.7405 O   0  0  0  0  0  0  0  0  0  0  0  0
   -0.8011   -0.0165   -0.0684 O   0  0  0  0  0  0  0  0  0  0  0  0
    2.4773   -0.0165   -0.0684 O   0  0  0  0  0  0  0  0  0  0  0  0
   -0.8906    1.8895   -4.5660 O   0  0  0  0  0  0  0  0  0  0  0  0
   -5.1593    2.3274   -3.2572 O   0  0  0  0  0  0  0  0  0  0  0  0
    5.5282    0.5206    0.3651 N   0  0  0  0  0  0  0  0  0  0  0  0
   -1.3093    1.9317   -2.2959 N   0  0  0  0  0  0  0  0  0  0  0  0
    6.6071    2.3499   -0.4938 N   0  0  0  0  0  0  0  0  0  0  0  0
   -3.0246    1.8341   -3.8732 N   0  0  0  0  0  0  0  0  0  0  0  0
    4.5496    1.9016    2.3872 N   0  0  0  0  0  0  0  0  0  0  0  0
    4.5888    4.3263    1.7845 N   0  0  0  0  0  0  0  0  0  0  0  0
    5.4924    5.0119   -0.3126 N   0  0  0  0  0  0  0  0  0  0  0  0
    0.9235    0.6752   -2.4951 C   0  0  2  0  0  0  0  0  0  0  0  0
    2.3252    1.2743   -2.7729 C   0  0  1  0  0  0  0  0  0  0  0  0
    0.1201    1.9111   -1.9865 C   0  0  1  0  0  0  0  0  0  0  0  0
    3.1523   -2.2579    0.2952 C   0  0  1  0  0  0  0  0  0  0  0  0
    4.2574   -3.1099    0.8109 C   0  0  2  0  0  0  0  0  0  0  0  0
    5.4323   -2.1083    1.0408 C   0  0  2  0  0  0  0  0  0  0  0  0
    2.0301    2.7417   -3.0498 C   0  0  1  0  0  0  0  0  0  0  0  0
    5.1904   -0.9477    0.0822 C   0  0  1  0  0  0  0  0  0  0  0  0
    2.2447   -1.6900    1.4519 C   0  0  0  0  0  0  0  0  0  0  0  0
    2.0323    3.0434   -4.5330 C   0  0  0  0  0  0  0  0  0  0  0  0
    5.2131    1.6584    1.2052 C   0  0  0  0  0  0  0  0  0  0  0  0
    6.4900    1.0556   -0.5151 C   0  0  0  0  0  0  0  0  0  0  0  0
   -1.6856    1.8804   -3.6258 C   0  0  0  0  0  0  0  0  0  0  0  0
   -2.2734    2.0193   -1.2999 C   0  0  0  0  0  0  0  0  0  0  0  0
    5.7305    2.7367    0.4602 C   0  0  0  0  0  0  0  0  0  0  0  0
   -3.5759    2.0869   -1.5577 C   0  0  0  0  0  0  0  0  0  0  0  0
   -4.0162    2.0916   -2.9614 C   0  0  0  0  0  0  0  0  0  0  0  0
    5.2712    4.0522    0.6712 C   0  0  0  0  0  0  0  0  0  0  0  0
    4.3764    3.2755    2.6111 C   0  0  0  0  0  0  0  0  0  0  0  0
  1  4  1  0
  1  5  1  0
  1 10  1  1
  1 11  2  0
  2 23  1  0
  2 27  1  0
  3 24  1  0
  3 28  1  0
  5 29  1  0
  9 30  1  0
 12 33  2  0
 13 37  2  0
 14 31  1  0
 14 32  1  0
 15 33  1  0
 15 34  1  0
 16 32  2  0
 16 35  1  0
 17 33  1  0
 17 37  1  0
 18 31  1  0
 18 39  2  0
 19 38  2  0
 19 39  1  0
 20 38  1  0
 21  4  1  1
 21 22  1  0
 21 23  1  0
 22  6  1  1
 22 27  1  0
 23 15  1  6
 24 25  1  0
 24 29  1  1
 25  7  1  6
 25 26  1  0
 26 28  1  0
 26  8  1  6
 27 30  1  6
 28 14  1  1
 31 35  2  0
 34 36  2  0
 35 38  1  0
 36 37  1  0
M  END
>  <DRUGBANK_ID>  (1) 
DB03447

>  <SECONDARY_ACCESSION_NUMBERS>  (1) 
EXPT03196

>  <COMMON_NAME>  (1) 
Uridylyl-2'-5'-phospho-adenosine

$$$$
