
     RDKit          3D

 15 15  0  0  1  0  0  0  0  0999 V2000
    0.9851   -0.0174   -0.0212 C   0  0  0  0  0  0  0  0  0  0  0  0
    0.9311    1.9731    1.5101 C   0  0  0  0  0  0  0  0  0  0  0  0
   -1.0625    0.4557    1.3607 C   0  0  0  0  0  0  0  0  0  0  0  0
   -6.4689    0.4915    1.1421 C   0  0  0  0  0  0  0  0  0  0  0  0
   -3.9212    0.2134    1.1321 C   0  0  0  0  0  0  0  0  0  0  0  0
    0.4646    0.5379    1.3017 C   0  0  0  0  0  0  0  0  0  0  0  0
   -5.2031   -0.2806    1.1184 C   0  0  0  0  0  0  0  0  0  0  0  0
   -1.6650   -0.9634    1.2175 C   0  0  1  0  0  0  0  0  0  0  0  0
   -1.1881   -1.8879    2.3342 C   0  0  0  0  0  0  0  0  0  0  0  0
   -7.2538    0.2108   -0.0516 N   0  0  0  0  0  0  0  0  0  0  0  0
   -5.1464   -1.6497    1.0942 N   0  0  0  0  0  0  0  0  0  0  0  0
   -3.8687   -2.0124    1.0637 N   0  0  0  0  0  0  0  0  0  0  0  0
   -3.1269   -0.8959    1.1780 N   0  0  0  0  0  0  0  0  0  0  0  0
   -1.8423   -2.4040    3.2288 O   0  0  0  0  0  0  0  0  0  0  0  0
    0.1479   -2.1052    2.3174 O   0  0  0  0  0  0  0  0  0  0  0  0
  6  1  1  0
  6  2  1  0
  6  3  1  0
  7  4  1  0
  7  5  2  0
  8  3  1  1
  8 13  1  0
  9  8  1  0
 10  4  1  0
 11  7  1  0
 12 11  2  0
 13  5  1  0
 13 12  1  0
 14  9  2  0
 15  9  1  0
M  END
>  <DRUGBANK_ID>  (1) 
DB03244

>  <SECONDARY_ACCESSION_NUMBERS>  (1) 
EXPT03000

>  <COMMON_NAME>  (1) 
(S)-2-[4-(Aminomethyl)-1h-1,2,3-Triazol-1-Yl]-4-Methylpentanoic Acid

$$$$
