
     RDKit          3D

 22 20  0  0  1  0  0  0  0  0999 V2000
    1.3440   -0.2250    0.0360 C   0  0  0  0  0  0  0  0  0  0  0  0
    0.5020   -1.2510   -0.0040 C   0  0  0  0  0  0  0  0  0  0  0  0
   -0.8560   -1.0420    0.0030 C   0  0  0  0  0  0  0  0  0  0  0  0
   -1.3730    0.2230   -0.0410 C   0  0  0  0  0  0  0  0  0  0  0  0
   -0.5090    1.2150    0.0750 C   0  0  0  0  0  0  0  0  0  0  0  0
    0.8920    1.0800   -0.0700 C   0  0  0  0  0  0  0  0  0  0  0  0
    1.8171    2.2600   -0.3195 C   0  0  0  0  0  0  0  0  0  0  0  0
    1.4218    2.9486   -1.6156 C   0  0  1  0  0  0  0  0  0  0  0  0
   -0.0120    3.4422   -1.5103 C   0  0  0  0  0  0  0  0  0  0  0  0
   -0.2679    4.6812   -1.6309 O   0  0  0  0  0  0  0  0  0  0  0  0
   -1.0654    2.5190   -1.2771 O   0  0  0  0  0  0  0  0  0  0  0  0
    2.3164    4.0897   -1.8569 N   0  0  0  0  0  0  0  0  0  0  0  0
   -1.7661   -2.1950    0.0586 N   0  0  0  0  0  0  0  0  0  0  0  0
   -3.0806   -1.6388   -0.2931 C   0  0  0  0  0  0  0  0  0  0  0  0
   -3.9761   -2.7487   -0.8191 C   0  0  0  0  0  0  0  0  0  0  0  0
   -4.1758   -3.9950    0.4361 Cl  0  0  0  0  0  0  0  0  0  0  0  0
   -3.2208   -1.9835    0.0666 C   0  0  0  0  0  0  0  0  0  0  0  0
   -3.8390   -2.6679   -1.1417 C   0  0  0  0  0  0  0  0  0  0  0  0
   -3.4928   -4.4127   -1.0769 Cl  0  0  0  0  0  0  0  0  0  0  0  0
   -1.2586   -3.4668    0.1030 O   0  0  0  0  0  0  0  0  0  0  0  0
    0.9387   -0.0544    0.0573 Cl  0  0  0  0  0  0  0  0  0  0  0  0
    1.0605    0.0748   -0.0273 Cl  0  0  0  0  0  0  0  0  0  0  0  0
  1  2  2  0
  1  6  1  0
  2  3  1  0
  3  4  2  0
  3 13  1  0
  4  5  1  0
  5  6  2  0
  6  7  1  0
  7  8  1  0
  8  9  1  0
  8 12  1  1
  9 10  2  0
  9 11  1  0
 13 14  1  0
 13 17  1  0
 13 20  1  0
 14 15  1  0
 15 16  1  0
 17 18  1  0
 18 19  1  0
M  CHG  2  13   1  20  -1
M  END
>  <DRUGBANK_ID>  (1) 
DB06082

>  <COMMON_NAME>  (1) 
PX-478

>  <CAS_NUMBER>  (1) 
685898-44-6

>  <UNII>  (1) 
T23U22X160

$$$$
