467
     RDKit          3D

 23 25  0  0  0  0  0  0  0  0999 V2000
    0.8608    0.0177    0.0694 F   0  0  0  0  0  0  0  0  0  0  0  0
    4.3398   -3.4940    0.0087 O   0  0  0  0  0  0  0  0  0  0  0  0
    8.5915   -3.6771   -0.0066 O   0  0  0  0  0  0  0  0  0  0  0  0
    6.7015   -4.8443    0.0035 O   0  0  0  0  0  0  0  0  0  0  0  0
    2.2478    2.4496   -0.0189 N   0  0  0  0  0  0  0  0  0  0  0  0
    0.4940    4.6419   -0.8123 N   0  0  0  0  0  0  0  0  0  0  0  0
    6.3834   -0.0061   -0.0067 N   0  0  0  0  0  0  0  0  0  0  0  0
    4.2775    1.2244    0.0712 N   0  0  0  0  0  0  0  0  0  0  0  0
    1.2477    2.9478    0.9341 C   0  0  0  0  0  0  0  0  0  0  0  0
    2.7258    3.4489   -0.9685 C   0  0  0  0  0  0  0  0  0  0  0  0
    0.0691    3.6080    0.1632 C   0  0  0  0  0  0  0  0  0  0  0  0
    1.5033    4.0452   -1.7170 C   0  0  0  0  0  0  0  0  0  0  0  0
    2.9106    1.2422    0.0962 C   0  0  0  0  0  0  0  0  0  0  0  0
    4.9610    0.0373    0.0489 C   0  0  0  0  0  0  0  0  0  0  0  0
    4.2726   -1.1742    0.0484 C   0  0  0  0  0  0  0  0  0  0  0  0
    2.2023    0.0357    0.1099 C   0  0  0  0  0  0  0  0  0  0  0  0
    2.8792   -1.1750    0.0739 C   0  0  0  0  0  0  0  0  0  0  0  0
    7.0860    1.2881   -0.0032 C   0  0  0  0  0  0  0  0  0  0  0  0
    5.0004   -2.4605    0.0157 C   0  0  0  0  0  0  0  0  0  0  0  0
    7.0511   -1.2297   -0.0047 C   0  0  0  0  0  0  0  0  0  0  0  0
    6.4949   -2.4555    0.0031 C   0  0  0  0  0  0  0  0  0  0  0  0
    6.8137    2.1007   -1.2617 C   0  0  0  0  0  0  0  0  0  0  0  0
    7.2430   -3.7453   -0.0002 C   0  0  0  0  0  0  0  0  0  0  0  0
  1 16  1  0
  2 19  2  0
  3 23  1  0
  4 23  2  0
  5  9  1  0
  5 10  1  0
  5 13  1  0
  6 11  1  0
  6 12  1  0
  7 14  1  0
  7 18  1  0
  7 20  1  0
  8 13  1  0
  8 14  2  0
  9 11  1  0
 10 12  1  0
 13 16  2  0
 14 15  1  0
 15 17  2  0
 15 19  1  0
 16 17  1  0
 18 22  1  0
 19 21  1  0
 20 21  2  0
 21 23  1  0
M  END
>  <DRUGBANK_ID>  (1) 
DB00467

>  <SECONDARY_ACCESSION_NUMBERS>  (1) 
APRD00947

>  <COMMON_NAME>  (1) 
Enoxacin

>  <CAS_NUMBER>  (1) 
74011-58-8

>  <UNII>  (1) 
325OGW249P

>  <SYNONYMS>  (1) 
1-ethyl-6-fluoro-1,4-dihydro-4-oxo-7-(1-piperazinyl)-1,8-naphthyridine-3-carboxylic acid; 1-Ethyl-6-fluoro-4-oxo-7-piperazin-1-yl-1,4-dihydro-[1,8]naphthyridine-3-carboxylic acid; Enoxacin; Enoxacina; Ã‰noxacine; Enoxacino; Enoxacinum

$$$$
