
     RDKit          3D

 38 41  0  0  0  0  0  0  0  0999 V2000
   -0.4319    0.2520   -0.1126 C   0  0  0  0  0  0  0  0  0  0  0  0
   -0.1963   -1.5028    0.0080 C   0  0  0  0  0  0  0  0  0  0  0  0
    0.8564   -2.2950    0.8934 O   0  0  0  0  0  0  0  0  0  0  0  0
    2.2628   -2.5603    0.6880 C   0  0  0  0  0  0  0  0  0  0  0  0
    2.7698   -3.8727    0.8475 C   0  0  0  0  0  0  0  0  0  0  0  0
    4.1962   -4.0880    0.9143 C   0  0  0  0  0  0  0  0  0  0  0  0
    5.1365   -3.0474    0.7418 C   0  0  0  0  0  0  0  0  0  0  0  0
    4.7220   -1.7790    0.5668 C   0  0  0  0  0  0  0  0  0  0  0  0
    3.3385   -1.5614    0.6277 C   0  0  0  0  0  0  0  0  0  0  0  0
    3.2293   -0.2121    0.8443 O   0  0  0  0  0  0  0  0  0  0  0  0
    1.9535    0.0661    0.4750 C   0  0  0  0  0  0  0  0  0  0  0  0
    1.8301   -0.4565   -1.1647 C   0  0  0  0  0  0  0  0  0  0  0  0
    5.5578   -0.7386    0.7786 F   0  0  0  0  0  0  0  0  0  0  0  0
    6.4272   -3.4686    1.2904 C   0  0  0  0  0  0  0  0  0  0  0  0
    7.4977   -2.7147    1.3598 N   0  0  0  0  0  0  0  0  0  0  0  0
    6.2723   -4.7326    1.7713 N   0  0  0  0  0  0  0  0  0  0  0  0
    4.9861   -5.3169    1.3377 C   0  0  0  0  0  0  0  0  0  0  0  0
    7.1779   -5.4054    2.7114 C   0  0  0  0  0  0  0  0  0  0  0  0
    6.5651   -5.8232    4.0647 C   0  0  0  0  0  0  0  0  0  0  0  0
    6.4922   -7.0257    4.4010 O   0  0  0  0  0  0  0  0  0  0  0  0
    6.1077   -4.7861    5.0364 C   0  0  0  0  0  0  0  0  0  0  0  0
    5.2943   -3.7736    4.5861 C   0  0  0  0  0  0  0  0  0  0  0  0
    4.8493   -2.6852    5.3843 C   0  0  0  0  0  0  0  0  0  0  0  0
    5.1761   -2.6241    6.7310 C   0  0  0  0  0  0  0  0  0  0  0  0
    5.9390   -3.7162    7.2434 C   0  0  0  0  0  0  0  0  0  0  0  0
    6.3939   -4.7767    6.3904 C   0  0  0  0  0  0  0  0  0  0  0  0
    6.2457   -3.8425    8.5885 N   0  0  0  0  0  0  0  0  0  0  0  0
    5.2177   -3.6493    9.6079 C   0  0  0  0  0  0  0  0  0  0  0  0
    5.5116   -2.4191   10.4735 C   0  0  0  0  0  0  0  0  0  0  0  0
    6.8499   -2.4502   10.9997 O   0  0  0  0  0  0  0  0  0  0  0  0
    7.7979   -2.4673    9.9160 C   0  0  0  0  0  0  0  0  0  0  0  0
    7.6314   -3.7170    9.0369 C   0  0  0  0  0  0  0  0  0  0  0  0
    4.8439   -1.6116    7.6062 O   0  0  0  0  0  0  0  0  0  0  0  0
    4.1127   -0.3934    7.4030 C   0  0  0  0  0  0  0  0  0  0  0  0
    4.0522   -1.5932    4.7478 C   0  0  0  0  0  0  0  0  0  0  0  0
    2.5830   -1.6581    5.2409 C   0  0  0  0  0  0  0  0  0  0  0  0
    4.9686   -0.3287    4.6081 C   0  0  0  0  0  0  0  0  0  0  0  0
    3.7881   -1.8442    3.3184 C   0  0  0  0  0  0  0  0  0  0  0  0
  1  2  1  0
  2  3  1  0
  3  4  1  0
  4  5  2  0
  4  9  1  0
  5  6  1  0
  6  7  2  0
  6 17  1  0
  7  8  1  0
  7 14  1  0
  8  9  2  0
  8 13  1  0
  9 10  1  0
 10 11  1  0
 11 12  1  0
 14 15  2  0
 14 16  1  0
 16 17  1  0
 16 18  1  0
 18 19  1  0
 19 20  2  0
 19 21  1  0
 21 22  2  0
 21 26  1  0
 22 23  1  0
 23 24  2  0
 23 35  1  0
 24 25  1  0
 24 33  1  0
 25 26  2  0
 25 27  1  0
 27 28  1  0
 27 32  1  0
 28 29  1  0
 29 30  1  0
 30 31  1  0
 31 32  1  0
 33 34  1  0
 35 36  1  0
 35 37  1  0
 35 38  1  0
M  END
>  <DRUGBANK_ID>  (1) 
DB12046

>  <COMMON_NAME>  (1) 
Atopaxar

>  <CAS_NUMBER>  (1) 
751475-53-3

>  <UNII>  (1) 
HTI275SD2D

>  <SYNONYMS>  (1) 
Atopaxar

$$$$
