4829
     RDKit          3D

 24 27  0  0  1  0  0  0  0  0999 V2000
    3.6459    1.5801    1.7047 O   0  0  0  0  0  0  0  0  0  0  0  0
    4.0329   -2.4780   -0.2075 N   0  0  0  0  0  0  0  0  0  0  0  0
    1.5857   -7.4724    2.0695 N   0  0  0  0  0  0  0  0  0  0  0  0
    3.3352    0.2134    3.5166 N   0  0  0  0  0  0  0  0  0  0  0  0
    3.5284   -3.5204    0.7291 C   0  0  1  0  0  0  0  0  0  0  0  0
    2.3127   -2.9788    1.5378 C   0  0  0  0  0  0  0  0  0  0  0  0
    3.1528   -4.8513   -0.0143 C   0  0  0  0  0  0  0  0  0  0  0  0
    2.9751   -0.6291    1.0754 C   0  0  1  0  0  0  0  0  0  0  0  0
    4.2980   -1.2358    0.5502 C   0  0  0  0  0  0  0  0  0  0  0  0
    2.4825   -5.7951    0.9249 C   0  0  0  0  0  0  0  0  0  0  0  0
    1.6083   -3.9478    2.4176 C   0  0  0  0  0  0  0  0  0  0  0  0
    1.7826   -5.2787    2.0342 C   0  0  0  0  0  0  0  0  0  0  0  0
    1.9812   -1.6708    1.5272 C   0  0  0  0  0  0  0  0  0  0  0  0
    1.2362   -6.3273    2.7524 C   0  0  0  0  0  0  0  0  0  0  0  0
    5.2068   -2.9004   -0.9613 C   0  0  0  0  0  0  0  0  0  0  0  0
    3.3153    0.4598    2.1375 C   0  0  0  0  0  0  0  0  0  0  0  0
    2.3484   -7.1610    0.9633 C   0  0  0  0  0  0  0  0  0  0  0  0
    0.8840   -3.7177    3.5976 C   0  0  0  0  0  0  0  0  0  0  0  0
    0.4874   -6.1104    3.9121 C   0  0  0  0  0  0  0  0  0  0  0  0
    0.3365   -4.7799    4.3284 C   0  0  0  0  0  0  0  0  0  0  0  0
    2.9478   -1.0137    4.1942 C   0  0  0  0  0  0  0  0  0  0  0  0
    3.6628    1.3162    4.4194 C   0  0  0  0  0  0  0  0  0  0  0  0
    4.0216   -1.6885    5.0097 C   0  0  0  0  0  0  0  0  0  0  0  0
    5.1266    1.7032    4.3192 C   0  0  0  0  0  0  0  0  0  0  0  0
  1 16  2  0
  2  5  1  0
  2  9  1  0
  2 15  1  0
  3 14  1  0
  3 17  1  0
  4 16  1  0
  4 21  1  0
  4 22  1  0
  5  6  1  0
  5  7  1  6
  6 11  1  0
  6 13  2  0
  7 10  1  0
  8  9  1  0
  8 13  1  0
  8 16  1  1
 10 12  1  0
 10 17  2  0
 11 12  2  0
 11 18  1  0
 12 14  1  0
 14 19  2  0
 18 20  2  0
 19 20  1  0
 21 23  1  0
 22 24  1  0
M  END
>  <DRUGBANK_ID>  (1) 
DB04829

>  <COMMON_NAME>  (1) 
Lysergic acid diethylamide

>  <CAS_NUMBER>  (1) 
50-37-3

>  <UNII>  (1) 
8NA5SWF92O

>  <SYNONYMS>  (1) 
(+)-LSD; D-lysergic acid diethylamide; Diethylamid kyseliny lysergove; LSD; LSD 25; Lysergic acid diethylamide; Lysergide; Lysergidum; Lysergsäurediäthylamid; Lysergsäurediethylamid; N,N-diethyl-(+)-lysergamide; N,N-diethyl-D-lysergamide; N,N-diethyllysergamide

$$$$
