
     RDKit          3D

 29 33  0  0  0  0  0  0  0  0999 V2000
   -1.3432   -1.0433    0.0192 O   0  0  0  0  0  0  0  0  0  0  0  0
   -3.2593    0.1962   -0.0138 O   0  0  0  0  0  0  0  0  0  0  0  0
    1.2533   -5.6863   -0.4368 N   0  0  0  0  0  0  0  0  0  0  0  0
    0.8752   -2.8096    0.2688 N   0  0  0  0  0  0  0  0  0  0  0  0
   -1.2120    1.2423   -0.0343 N   0  0  0  0  0  0  0  0  0  0  0  0
    0.0644   -4.8908   -0.8123 C   0  0  0  0  0  0  0  0  0  0  0  0
    1.8208   -5.0932    0.7965 C   0  0  0  0  0  0  0  0  0  0  0  0
    0.3448   -3.3884   -1.0017 C   0  0  0  0  0  0  0  0  0  0  0  0
    2.0455   -3.5645    0.7407 C   0  0  0  0  0  0  0  0  0  0  0  0
    2.2149   -5.9426   -1.5478 C   0  0  0  0  0  0  0  0  0  0  0  0
    1.0348   -1.4195    0.1573 C   0  0  0  0  0  0  0  0  0  0  0  0
    3.0195   -4.7804   -2.1342 C   0  0  0  0  0  0  0  0  0  0  0  0
   -0.0410   -0.5913    0.0271 C   0  0  0  0  0  0  0  0  0  0  0  0
    2.2317   -0.7171    0.2281 C   0  0  0  0  0  0  0  0  0  0  0  0
    0.0630    0.7909   -0.0159 C   0  0  0  0  0  0  0  0  0  0  0  0
    4.0546   -4.1882   -1.3825 C   0  0  0  0  0  0  0  0  0  0  0  0
    2.6812   -4.1668   -3.3430 C   0  0  0  0  0  0  0  0  0  0  0  0
    2.3539    0.7017    0.1303 C   0  0  0  0  0  0  0  0  0  0  0  0
    1.2362    1.4909    0.0135 C   0  0  0  0  0  0  0  0  0  0  0  0
    4.4665   -2.8390   -1.5891 C   0  0  0  0  0  0  0  0  0  0  0  0
    3.2332   -2.9225   -3.6730 C   0  0  0  0  0  0  0  0  0  0  0  0
   -2.0546    0.1479   -0.0082 C   0  0  0  0  0  0  0  0  0  0  0  0
    4.0104   -2.2194   -2.7501 C   0  0  0  0  0  0  0  0  0  0  0  0
    5.2671   -2.0880   -0.5759 C   0  0  0  0  0  0  0  0  0  0  0  0
    6.1603   -2.7612    0.2431 C   0  0  0  0  0  0  0  0  0  0  0  0
    5.1832   -0.6881   -0.3740 C   0  0  0  0  0  0  0  0  0  0  0  0
    6.9856   -2.0663    1.1288 C   0  0  0  0  0  0  0  0  0  0  0  0
    5.8704   -0.0082    0.6405 C   0  0  0  0  0  0  0  0  0  0  0  0
    6.8223   -0.7012    1.3586 C   0  0  0  0  0  0  0  0  0  0  0  0
  1 13  1  0
  1 22  1  0
  2 22  2  0
  3  6  1  0
  3  7  1  0
  3 10  1  0
  4  8  1  0
  4  9  1  0
  4 11  1  0
  5 15  1  0
  5 22  1  0
  6  8  1  0
  7  9  1  0
 10 12  1  0
 11 13  2  0
 11 14  1  0
 12 16  2  0
 12 17  1  0
 13 15  1  0
 14 18  2  0
 15 19  2  0
 16 20  1  0
 17 21  2  0
 18 19  1  0
 20 23  2  0
 20 24  1  0
 21 23  1  0
 24 25  2  0
 24 26  1  0
 25 27  1  0
 26 28  2  0
 27 29  2  0
 28 29  1  0
M  END
>  <DRUGBANK_ID>  (1) 
DB04888

>  <COMMON_NAME>  (1) 
Bifeprunox

>  <CAS_NUMBER>  (1) 
350992-10-8

>  <UNII>  (1) 
AP69E83Z79

>  <SYNONYMS>  (1) 
Bifeprunox; Bifeprunoxum

$$$$
