C62
     RDKit          3D

 23 25  0  0  0  0  0  0  0  0999 V2000
    0.9995   -0.1767   -0.1081 O   0  0  0  0  0  0  0  0  0  0  0  0
    2.4366   -0.0624   -0.0213 S   0  0  0  0  0  0  0  0  0  0  0  0
    3.0997    0.3584    1.1913 O   0  0  0  0  0  0  0  0  0  0  0  0
    3.0599   -1.5894   -0.3569 N   0  0  0  0  0  0  0  0  0  0  0  0
    2.9788    1.0038   -1.3313 C   0  0  0  0  0  0  0  0  0  0  0  0
    2.5487    2.3299   -1.2571 C   0  0  0  0  0  0  0  0  0  0  0  0
    2.9260    3.2441   -2.2424 C   0  0  0  0  0  0  0  0  0  0  0  0
    3.7427    2.8593   -3.3166 C   0  0  0  0  0  0  0  0  0  0  0  0
    4.2358    1.5466   -3.3382 C   0  0  0  0  0  0  0  0  0  0  0  0
    3.8212    0.6021   -2.3731 C   0  0  0  0  0  0  0  0  0  0  0  0
    4.1008    3.8703   -4.3081 C   0  0  0  0  0  0  0  0  0  0  0  0
    3.6358    3.7430   -5.5938 O   0  0  0  0  0  0  0  0  0  0  0  0
    4.7446    5.0756   -4.1672 C   0  0  0  0  0  0  0  0  0  0  0  0
    4.6472    5.7308   -5.4084 C   0  0  0  0  0  0  0  0  0  0  0  0
    3.9948    4.8879   -6.3023 C   0  0  0  0  0  0  0  0  0  0  0  0
    3.7065    5.1320   -7.6830 C   0  0  0  0  0  0  0  0  0  0  0  0
    4.6539    5.4620   -8.5771 C   0  0  0  0  0  0  0  0  0  0  0  0
    6.3607    5.6129   -8.3214 S   0  0  0  0  0  0  0  0  0  0  0  0
    6.6667    6.0904   -9.9753 C   0  0  0  0  0  0  0  0  0  0  0  0
    5.4957    6.1115  -10.6639 N   0  0  0  0  0  0  0  0  0  0  0  0
    4.3535    5.7529  -10.0088 C   0  0  0  0  0  0  0  0  0  0  0  0
    3.2527    5.6786  -10.5316 O   0  0  0  0  0  0  0  0  0  0  0  0
    7.7643    6.3549  -10.4203 O   0  0  0  0  0  0  0  0  0  0  0  0
  2  1  2  0
  2  4  1  0
  2  5  1  0
  3  2  2  0
  5  6  2  0
  5 10  1  0
  7  6  1  0
  8  7  2  0
  8 11  1  0
  9  8  1  0
 10  9  2  0
 11 12  1  0
 11 13  2  0
 12 15  1  0
 13 14  1  0
 14 15  2  0
 15 16  1  0
 16 17  2  0
 17 18  1  0
 17 21  1  0
 18 19  1  0
 19 20  1  0
 19 23  2  0
 20 21  1  0
 21 22  2  0
M  END
>  <DRUGBANK_ID>  (1) 
DB07531

>  <COMMON_NAME>  (1) 
4-{5-[(Z)-(2,4-DIOXO-1,3-THIAZOLIDIN-5-YLIDENE)METHYL]FURAN-2-YL}BENZENESULFONAMIDE

$$$$
