
     RDKit          3D

 14 13  0  0  0  0  0  0  0  0999 V2000
    1.4038   -0.2983    0.1455 C   0  0  0  0  0  0  0  0  0  0  0  0
   -2.6344    0.1749   -0.1833 C   0  0  0  0  0  0  0  0  0  0  0  0
    0.8193    0.8587   -0.5362 C   0  0  1  0  0  0  0  0  0  0  0  0
   -1.6014   -0.4541   -1.1925 C   0  0  2  0  0  0  0  0  0  0  0  0
   -0.2368    0.2704   -1.6439 C   0  0  1  0  0  0  0  0  0  0  0  0
    0.6745   -1.1272    0.7304 O   0  0  0  0  0  0  0  0  0  0  0  0
    0.5211    1.4523    0.8218 O   0  0  0  0  0  0  0  0  0  0  0  0
   -2.3673   -0.8181   -2.3677 O   0  0  0  0  0  0  0  0  0  0  0  0
   -0.4214    1.1951   -2.7436 O   0  0  0  0  0  0  0  0  0  0  0  0
   -1.1609    1.9557   -0.1679 O   0  0  0  0  0  0  0  0  0  0  0  0
   -2.5918    1.9766   -2.5610 O   0  0  0  0  0  0  0  0  0  0  0  0
   -1.0886    3.7006   -1.6750 O   0  0  0  0  0  0  0  0  0  0  0  0
   -3.2190    1.4558   -0.5932 O   0  0  0  0  0  0  0  0  0  0  0  0
   -2.0948    2.6404   -1.1641 P   0  0  0  0  0  0  0  0  0  0  0  0
  3  1  1  0
  3  7  1  1
  4  2  1  0
  4  8  1  6
  5  3  1  0
  5  4  1  0
  5  9  1  6
  6  1  2  0
 13  2  1  0
 14 10  1  0
 14 11  1  0
 14 12  2  0
 14 13  1  0
M  END
>  <DRUGBANK_ID>  (1) 
DB02053

>  <SECONDARY_ACCESSION_NUMBERS>  (1) 
EXPT02747

>  <COMMON_NAME>  (1) 
Ribose-5-phosphate

>  <CAS_NUMBER>  (1) 
4151-19-3

>  <UNII>  (1) 
4B2428FLTO

>  <SYNONYMS>  (1) 
5-O-phosphono-D-ribose; aldehydo-D-ribose 5-phosphate; D-Ribose 5-phosphate

$$$$
