
     RDKit          3D

 16 17  0  0  0  0  0  0  0  0999 V2000
    1.4549   -0.2989    0.0175 C   0  0  0  0  0  0  0  0  0  0  0  0
   -0.8374   -1.0951   -0.0036 C   0  0  0  0  0  0  0  0  0  0  0  0
    0.5385   -1.3496    0.0283 C   0  0  0  0  0  0  0  0  0  0  0  0
   -1.3133    0.2238   -0.0607 C   0  0  0  0  0  0  0  0  0  0  0  0
    1.0014    1.0100   -0.0338 C   0  0  0  0  0  0  0  0  0  0  0  0
   -0.3641    1.2592   -0.0763 C   0  0  0  0  0  0  0  0  0  0  0  0
   -2.8069    0.5084   -0.1962 C   0  0  0  0  0  0  0  0  0  0  0  0
   -3.4406    1.2562    0.9763 C   0  0  0  0  0  0  0  0  0  0  0  0
   -2.9953    2.5520    1.3087 C   0  0  0  0  0  0  0  0  0  0  0  0
   -3.6266    3.3475    2.2558 C   0  0  0  0  0  0  0  0  0  0  0  0
   -4.7780    2.8721    2.8587 C   0  0  0  0  0  0  0  0  0  0  0  0
   -4.5757    0.7867    1.6559 C   0  0  0  0  0  0  0  0  0  0  0  0
   -5.2665    1.6112    2.5477 C   0  0  0  0  0  0  0  0  0  0  0  0
   -3.0938    1.2729   -1.5004 C   0  0  0  0  0  0  0  0  0  0  0  0
   -5.0919   -0.4658    1.4797 O   0  0  0  0  0  0  0  0  0  0  0  0
   -5.4470    3.6384    3.7631 O   0  0  0  0  0  0  0  0  0  0  0  0
  1  5  2  0
  2  3  2  0
  3  1  1  0
  4  2  1  0
  4  7  1  0
  5  6  1  0
  6  4  2  0
  7  8  1  0
  7 14  1  0
  8 12  1  0
  9  8  2  0
 10  9  1  0
 11 10  2  0
 11 16  1  0
 12 13  2  0
 12 15  1  0
 13 11  1  0
M  END
>  <DRUGBANK_ID>  (1) 
DB14120

>  <COMMON_NAME>  (1) 
Phenylethyl resorcinol

>  <CAS_NUMBER>  (1) 
85-27-8

>  <UNII>  (1) 
G37UFG162O

>  <SYNONYMS>  (1) 
(+/-)-Phenylethyl resorcinol

$$$$
