
     RDKit          3D

 24 26  0  0  0  0  0  0  0  0999 V2000
    2.5115    4.2969    3.1973 C   0  0  0  0  0  0  0  0  0  0  0  0
    2.8505    5.5170    3.5852 N   0  0  0  0  0  0  0  0  0  0  0  0
    2.2823    6.3656    2.6493 C   0  0  0  0  0  0  0  0  0  0  0  0
    1.6798    5.6230    1.6667 C   0  0  0  0  0  0  0  0  0  0  0  0
    1.7880    4.3166    2.0356 N   0  0  0  0  0  0  0  0  0  0  0  0
    2.2812    7.8212    2.6397 C   0  0  0  0  0  0  0  0  0  0  0  0
    1.6927    8.4855    1.7808 O   0  0  0  0  0  0  0  0  0  0  0  0
    2.9737    8.4318    3.6324 N   0  0  0  0  0  0  0  0  0  0  0  0
    1.2876    3.1916    1.2392 C   0  0  1  0  0  0  0  0  0  0  0  0
   -0.2729    3.1502    1.2172 C   0  0  2  0  0  0  0  0  0  0  0  0
   -0.8663    2.4089    0.0198 C   0  0  0  0  0  0  0  0  0  0  0  0
    1.8959    3.2207   -0.1918 C   0  0  0  0  0  0  0  0  0  0  0  0
    3.4167    3.1230   -0.2300 C   0  0  0  0  0  0  0  0  0  0  0  0
    3.9075    1.8542    0.4405 C   0  0  0  0  0  0  0  0  0  0  0  0
    3.5105    0.6122   -0.0972 C   0  0  0  0  0  0  0  0  0  0  0  0
    3.8548   -0.5806    0.5283 C   0  0  0  0  0  0  0  0  0  0  0  0
    4.6062   -0.5517    1.6992 C   0  0  0  0  0  0  0  0  0  0  0  0
    5.0440    0.6656    2.2460 C   0  0  0  0  0  0  0  0  0  0  0  0
    5.8259    0.6855    3.4139 C   0  0  0  0  0  0  0  0  0  0  0  0
    6.2488    1.8881    3.9820 C   0  0  0  0  0  0  0  0  0  0  0  0
    5.9034    3.0880    3.3873 C   0  0  0  0  0  0  0  0  0  0  0  0
    5.1596    3.0807    2.2124 C   0  0  0  0  0  0  0  0  0  0  0  0
    4.7000    1.8861    1.6167 C   0  0  0  0  0  0  0  0  0  0  0  0
   -0.8723    4.4488    1.1992 O   0  0  0  0  0  0  0  0  0  0  0  0
  1  2  2  0
  1  5  1  0
  2  3  1  0
  3  4  2  0
  3  6  1  0
  4  5  1  0
  5  9  1  0
  6  7  2  0
  6  8  1  0
  9 12  1  6
 10 24  1  0
 10 11  1  6
 10  9  1  0
 12 13  1  0
 13 14  1  0
 14 15  2  0
 14 23  1  0
 15 16  1  0
 16 17  2  0
 17 18  1  0
 18 19  1  0
 18 23  2  0
 19 20  2  0
 20 21  1  0
 21 22  2  0
 22 23  1  0
M  END
>  <DRUGBANK_ID>  (1) 
DB03220

>  <SECONDARY_ACCESSION_NUMBERS>  (1) 
EXPT01485

>  <COMMON_NAME>  (1) 
FR-234938

>  <CAS_NUMBER>  (1) 
256461-79-7

>  <UNII>  (1) 
10302WQ21V

$$$$
