
     RDKit          3D

 10 10  0  0  0  0  0  0  0  0999 V2000
    2.3409    0.0324   -0.0480 N   0  0  0  0  0  0  0  0  0  0  0  0
    0.9533   -0.0318    0.0058 C   0  0  0  0  0  0  0  0  0  0  0  0
    0.2404    1.1776   -0.0055 C   0  0  0  0  0  0  0  0  0  0  0  0
   -1.1524    1.1932    0.0041 C   0  0  0  0  0  0  0  0  0  0  0  0
   -1.8540   -0.0057    0.0050 C   0  0  0  0  0  0  0  0  0  0  0  0
   -1.1665   -1.2242   -0.0017 C   0  0  0  0  0  0  0  0  0  0  0  0
    0.2406   -1.2593   -0.0021 C   0  0  0  0  0  0  0  0  0  0  0  0
    1.0103   -2.5546    0.0009 C   0  0  0  0  0  0  0  0  0  0  0  0
    0.2988   -3.7019    0.0010 O   0  0  0  0  0  0  0  0  0  0  0  0
    2.2360   -2.5979    0.0104 O   0  0  0  0  0  0  0  0  0  0  0  0
  1  2  1  0
  2  3  2  0
  2  7  1  0
  3  4  1  0
  4  5  2  0
  5  6  1  0
  6  7  2  0
  7  8  1  0
  8  9  1  0
  8 10  2  0
M  END
>  <DRUGBANK_ID>  (1) 
DB04166

>  <SECONDARY_ACCESSION_NUMBERS>  (1) 
EXPT00283; EXPT00656; DB04056

>  <COMMON_NAME>  (1) 
Anthranilic acid

>  <CAS_NUMBER>  (1) 
118-92-3

>  <UNII>  (1) 
0YS975XI6W

>  <SYNONYMS>  (1) 
2-Aminobenzoesäure; 2-aminobenzoic acid; 2-carboxyaniline; o-Aminobenzoesäure; o-Aminobenzoic acid; o-carboxyaniline; Vitamin L1

$$$$
