
     RDKit          3D

 17 18  0  0  1  0  0  0  0  0999 V2000
    1.5650   -0.3870   -0.0080 B   0  0  0  0  0  0  0  0  0  0  0  0
    0.0110   -0.4750   -0.0300 C   0  0  0  0  0  0  0  0  0  0  0  0
   -0.4180    0.8540   -0.0210 C   0  0  0  0  0  0  0  0  0  0  0  0
   -1.7720    1.1840    0.0020 C   0  0  0  0  0  0  0  0  0  0  0  0
   -2.6930    0.1620    0.0190 C   0  0  0  0  0  0  0  0  0  0  0  0
   -2.2940   -1.1730    0.0150 C   0  0  0  0  0  0  0  0  0  0  0  0
   -0.9430   -1.5040   -0.0120 C   0  0  0  0  0  0  0  0  0  0  0  0
   -0.5351   -2.8641   -0.0212 O   0  0  0  0  0  0  0  0  0  0  0  0
    0.8465   -3.1908   -0.0488 C   0  0  0  0  0  0  0  0  0  0  0  0
    1.4798   -2.6090   -1.3022 C   0  0  0  0  0  0  0  0  0  0  0  0
    1.3165   -1.0978   -1.2977 C   0  0  0  0  0  0  0  0  0  0  0  0
    1.9540   -0.5563   -0.1502 O   0  0  0  0  0  0  0  0  0  0  0  0
    0.7540    1.8000   -0.0010 C   0  0  2  0  0  0  0  0  0  0  0  0
    1.9330    0.9520    0.0150 O   0  0  0  0  0  0  0  0  0  0  0  0
    0.7098    2.7301    1.2004 C   0  0  0  0  0  0  0  0  0  0  0  0
    1.8865    3.6110    1.1817 N   0  0  0  0  0  0  0  0  0  0  0  0
    2.5310   -1.3270    0.0130 O   0  0  0  0  0  0  0  0  0  0  0  0
  1  2  1  0
  1 14  1  0
  1 17  1  0
  2  3  2  0
  2  7  1  0
  3  4  1  0
  3 13  1  0
  4  5  2  0
  5  6  1  0
  6  7  2  0
  7  8  1  0
  8  9  1  0
  9 10  1  0
 10 11  1  0
 11 12  1  0
 13 14  1  0
 13 15  1  1
 15 16  1  0
M  END
>  <DRUGBANK_ID>  (1) 
DB11744

>  <COMMON_NAME>  (1) 
Epetraborole

>  <CAS_NUMBER>  (1) 
1093643-37-8

>  <UNII>  (1) 
6MC93Z2DF9

>  <SYNONYMS>  (1) 
Epetraborole

$$$$
