
     RDKit          3D

  3  2  0  0  0  0  0  0  0  0999 V2000
    0.9030    0.1131   -0.0726 N   0  0  0  0  0  0  0  0  0  0  0  0
    0.3501   -0.7770    0.7562 O   0  0  0  0  0  0  0  0  0  0  0  0
    2.2365    0.0543   -0.0179 O   0  0  0  0  0  0  0  0  0  0  0  0
  2  1  1  0
  3  1  2  0
M  CHG  1   2  -1
M  END
>  <DRUGBANK_ID>  (1) 
DB12529

>  <COMMON_NAME>  (1) 
Nitrite

>  <CAS_NUMBER>  (1) 
14797-65-0

>  <UNII>  (1) 
J39976L608

>  <SYNONYMS>  (1) 
Nitrite anion; Nitrite ion

$$$$
