
     RDKit          3D

 28 30  0  0  1  0  0  0  0  0999 V2000
    8.2084   -1.5970   -7.1383 C   0  0  0  0  0  0  0  0  0  0  0  0
    7.6594   -2.9119   -7.6676 C   0  0  0  0  0  0  0  0  0  0  0  0
    6.2322   -3.0984   -7.1789 C   0  0  0  0  0  0  0  0  0  0  0  0
    5.3708   -1.9509   -7.6807 C   0  0  0  0  0  0  0  0  0  0  0  0
    5.3875   -1.9318   -9.2005 C   0  0  0  0  0  0  0  0  0  0  0  0
    4.8385   -3.2466   -9.7298 C   0  0  0  0  0  0  0  0  0  0  0  0
    3.4113   -3.4331   -9.2411 C   0  0  0  0  0  0  0  0  0  0  0  0
    2.5499   -2.2857   -9.7429 C   0  0  0  0  0  0  0  0  0  0  0  0
    2.8622   -4.7479   -9.7704 C   0  0  0  0  0  0  0  0  0  0  0  0
    3.3946   -3.4522   -7.7213 C   0  0  0  0  0  0  0  0  0  0  0  0
    3.3212   -4.6653   -7.0334 C   0  0  0  0  0  0  0  0  0  0  0  0
    3.2986   -4.6657   -5.6571 C   0  0  0  0  0  0  0  0  0  0  0  0
    3.3503   -3.4724   -4.9441 C   0  0  0  0  0  0  0  0  0  0  0  0
    3.4267   -2.2721   -5.6179 C   0  0  0  0  0  0  0  0  0  0  0  0
    3.4524   -2.2597   -7.0033 C   0  0  0  0  0  0  0  0  0  0  0  0
    3.4940   -0.9461   -4.9054 O   0  0  0  0  0  0  0  0  0  0  0  0
    3.0342   -1.0905   -3.4566 C   0  0  0  0  0  0  0  0  0  0  0  0
    3.8062   -2.2505   -2.8176 C   0  0  1  0  0  0  0  0  0  0  0  0
    3.3147   -3.5559   -3.4404 C   0  0  2  0  0  0  0  0  0  0  0  0
    7.1968    0.5157   -0.8558 C   0  0  0  0  0  0  0  0  0  0  0  0
    6.7253   -0.7900   -1.4749 C   0  0  0  0  0  0  0  0  0  0  0  0
    5.7687   -0.7779   -2.4421 C   0  0  0  0  0  0  0  0  0  0  0  0
    5.2972   -2.0836   -3.0612 C   0  0  0  0  0  0  0  0  0  0  0  0
    7.1968    0.5157   -0.8558 C   0  0  0  0  0  0  0  0  0  0  0  0
    7.7424    1.3494   -1.8676 O   0  0  0  0  0  0  0  0  0  0  0  0
    1.5404   -1.3672   -3.4076 C   0  0  0  0  0  0  0  0  0  0  0  0
    3.3182    0.1953   -2.6972 C   0  0  0  0  0  0  0  0  0  0  0  0
    3.2215   -5.8987   -4.9570 O   0  0  0  0  0  0  0  0  0  0  0  0
  1  2  1  0
  2  3  1  0
  3  4  1  0
  4  5  1  0
  5  6  1  0
  6  7  1  0
  7  8  1  0
  7  9  1  0
  7 10  1  0
 10 11  2  0
 10 15  1  0
 11 12  1  0
 12 13  2  0
 12 28  1  0
 13 14  1  0
 14 15  2  0
 14 16  1  0
 16 17  1  0
 17 18  1  0
 17 26  1  0
 17 27  1  0
 18 19  1  0
 18 23  1  6
 19 13  1  0
 19 20  1  1
 20 21  1  0
 21 22  2  0
 21 24  1  0
 22 23  1  0
 24 25  1  0
M  END
>  <DRUGBANK_ID>  (1) 
DB06444

>  <COMMON_NAME>  (1) 
Dexanabinol

>  <CAS_NUMBER>  (1) 
112924-45-5

>  <UNII>  (1) 
R6VT8U5372

>  <SYNONYMS>  (1) 
Sinnabidol

$$$$
