
     RDKit          3D

 29 30  0  0  0  0  0  0  0  0999 V2000
    1.1088    0.0168   -0.1346 O   0  0  0  0  0  0  0  0  0  0  0  0
    8.6443    0.9305   -0.9250 O   0  0  0  0  0  0  0  0  0  0  0  0
    3.1172    0.7288   -0.7863 N   0  0  0  0  0  0  0  0  0  0  0  0
    3.0526   -9.6469    7.8875 C   0  0  0  0  0  0  0  0  0  0  0  0
    3.8364  -10.3981    9.0031 C   0  0  0  0  0  0  0  0  0  0  0  0
    5.2950   -9.9782    9.0498 C   0  0  0  0  0  0  0  0  0  0  0  0
    3.4286   -8.1436    7.8447 C   0  0  0  0  0  0  0  0  0  0  0  0
    5.3879   -8.4954    9.3810 C   0  0  0  0  0  0  0  0  0  0  0  0
    4.4268   -7.6283    8.6031 C   0  0  0  0  0  0  0  0  0  0  0  0
    1.5537   -9.8887    8.1904 C   0  0  0  0  0  0  0  0  0  0  0  0
    3.3791  -10.2880    6.5244 C   0  0  0  0  0  0  0  0  0  0  0  0
    2.6509   -7.2813    6.9512 C   0  0  0  0  0  0  0  0  0  0  0  0
    4.7147   -6.1544    8.7668 C   0  0  0  0  0  0  0  0  0  0  0  0
    3.1959   -6.4306    6.0571 C   0  0  0  0  0  0  0  0  0  0  0  0
    2.4921   -5.4821    5.1960 C   0  0  0  0  0  0  0  0  0  0  0  0
    0.9805   -5.4692    5.2247 C   0  0  0  0  0  0  0  0  0  0  0  0
    3.1773   -4.6242    4.3972 C   0  0  0  0  0  0  0  0  0  0  0  0
    2.5169   -3.6795    3.5075 C   0  0  0  0  0  0  0  0  0  0  0  0
    3.0770   -2.7984    2.6627 C   0  0  0  0  0  0  0  0  0  0  0  0
    2.3203   -1.8940    1.7738 C   0  0  0  0  0  0  0  0  0  0  0  0
    2.9767   -1.0295    0.9697 C   0  0  0  0  0  0  0  0  0  0  0  0
    0.8123   -1.9151    1.7652 C   0  0  0  0  0  0  0  0  0  0  0  0
    2.3324   -0.0967   -0.0246 C   0  0  0  0  0  0  0  0  0  0  0  0
    4.5106    0.7614   -0.8899 C   0  0  0  0  0  0  0  0  0  0  0  0
    5.2519   -0.4202   -0.9619 C   0  0  0  0  0  0  0  0  0  0  0  0
    5.1619    1.9948   -0.9166 C   0  0  0  0  0  0  0  0  0  0  0  0
    6.6419   -0.3866   -0.9520 C   0  0  0  0  0  0  0  0  0  0  0  0
    6.5581    2.0308   -0.9137 C   0  0  0  0  0  0  0  0  0  0  0  0
    7.2849    0.8434   -0.9267 C   0  0  0  0  0  0  0  0  0  0  0  0
  1 23  2  0
  2 29  1  0
  3 23  1  0
  3 24  1  0
  4  5  1  0
  4  7  1  0
  4 10  1  0
  4 11  1  0
  5  6  1  0
  6  8  1  0
  7  9  2  0
  7 12  1  0
  8  9  1  0
  9 13  1  0
 12 14  2  0
 14 15  1  0
 15 16  1  0
 15 17  2  0
 17 18  1  0
 18 19  2  0
 19 20  1  0
 20 21  2  0
 20 22  1  0
 21 23  1  0
 24 25  2  0
 24 26  1  0
 25 27  1  0
 26 28  2  0
 27 29  2  0
 28 29  1  0
M  END
>  <DRUGBANK_ID>  (1) 
DB05076

>  <SECONDARY_ACCESSION_NUMBERS>  (1) 
DB03922

>  <COMMON_NAME>  (1) 
Fenretinide

>  <CAS_NUMBER>  (1) 
65646-68-6

>  <UNII>  (1) 
187EJ7QEXL

>  <SYNONYMS>  (1) 
4-HPR; 4-hydroxy(phenyl)retinamide; 4-hydroxyphenyl retinamide; Fenretinida; Fenretinide; Fenretinidum; N-(4-hydroxyphenyl)all-trans retinamide

$$$$
