582
     RDKit          3D

 17 19  0  0  0  0  0  0  0  0999 V2000
   -3.3374    0.2142   -0.0018 C   0  0  0  0  0  0  0  0  0  0  0  0
   -2.5395   -0.9180   -0.0050 C   0  0  0  0  0  0  0  0  0  0  0  0
   -1.1421   -0.8246   -0.0027 C   0  0  0  0  0  0  0  0  0  0  0  0
   -0.5289    0.4668   -0.0005 C   0  0  0  0  0  0  0  0  0  0  0  0
   -1.3455    1.6062   -0.0019 C   0  0  0  0  0  0  0  0  0  0  0  0
   -2.7453    1.4704   -0.0013 C   0  0  0  0  0  0  0  0  0  0  0  0
   -0.3379   -2.0195    0.0098 N   0  0  0  0  0  0  0  0  0  0  0  0
    1.0577   -1.9896    0.0647 C   0  0  0  0  0  0  0  0  0  0  0  0
    1.6646   -0.6937    0.0248 C   0  0  0  0  0  0  0  0  0  0  0  0
    0.9350    0.4733    0.0019 C   0  0  0  0  0  0  0  0  0  0  0  0
    1.7410   -3.0146    0.1427 O   0  0  0  0  0  0  0  0  0  0  0  0
   -0.9158   -3.3542   -0.0029 C   0  0  0  0  0  0  0  0  0  0  0  0
    1.8785    1.4658   -0.0033 N   0  0  0  0  0  0  0  0  0  0  0  0
    3.0216   -0.3366    0.0035 C   0  0  0  0  0  0  0  0  0  0  0  0
    4.1750   -1.2807   -0.0030 C   0  0  0  0  0  0  0  0  0  0  0  0
    3.1583    0.9986   -0.0092 N   0  0  0  0  0  0  0  0  0  0  0  0
   -0.5542   -4.1159   -1.2707 C   0  0  0  0  0  0  0  0  0  0  0  0
  1  6  2  0
  1  2  1  0
  2  3  2  0
  3  4  1  0
  3  7  1  0
  4  5  2  0
  4 10  1  0
  5  6  1  0
  7  8  1  0
  7 12  1  0
  8  9  1  0
  8 11  2  0
  9 10  2  0
  9 14  1  0
 10 13  1  0
 12 17  1  0
 13 16  1  0
 14 16  2  0
 14 15  1  0
M  END
>  <DRUGBANK_ID>  (1) 
DB07158

>  <COMMON_NAME>  (1) 
5-ETHYL-3-METHYL-1,5-DIHYDRO-4H-PYRAZOLO[4,3-C]QUINOLIN-4-ONE

$$$$
