
     RDKit          3D

 14 14  0  0  0  0  0  0  0  0999 V2000
   -1.0613    1.2403    0.2155 C   0  0  2  0  0  0  0  0  0  0  0  0
    0.4215    1.1125   -0.1118 C   0  0  0  0  0  0  0  0  0  0  0  0
    1.0798   -0.1777    0.3293 C   0  0  1  0  0  0  0  0  0  0  0  0
    0.3145   -1.3645   -0.2205 C   0  0  0  0  0  0  0  0  0  0  0  0
   -1.1581   -1.2823    0.1792 C   0  0  0  0  0  0  0  0  0  0  0  0
   -1.8670    0.0179   -0.3090 C   0  0  1  0  0  0  0  0  0  0  0  0
   -1.6134    2.5211   -0.1089 O   0  0  0  0  0  0  0  0  0  0  0  0
   -1.2293    3.2236   -1.2911 C   0  0  0  0  0  0  0  0  0  0  0  0
   -0.2456    4.3515   -0.9448 C   0  0  0  0  0  0  0  0  0  0  0  0
    0.9989    3.8919   -0.4522 O   0  0  0  0  0  0  0  0  0  0  0  0
    2.5378   -0.1381   -0.1258 C   0  0  0  0  0  0  0  0  0  0  0  0
   -3.3645    0.0208    0.1459 C   0  0  0  0  0  0  0  0  0  0  0  0
   -4.1552    1.2403   -0.3416 C   0  0  0  0  0  0  0  0  0  0  0  0
   -4.1111   -1.2293   -0.3443 C   0  0  0  0  0  0  0  0  0  0  0  0
  1  2  1  0
  1  6  1  0
  1  7  1  6
  2  3  1  0
  3  4  1  0
  3 11  1  6
  4  5  1  0
  5  6  1  0
  6 12  1  1
  7  8  1  0
  8  9  1  0
  9 10  1  0
 12 13  1  0
 12 14  1  0
M  END
>  <DRUGBANK_ID>  (1) 
DB11174

>  <COMMON_NAME>  (1) 
2-(l-menthoxy)ethanol

>  <CAS_NUMBER>  (1) 
75443-64-0

>  <UNII>  (1) 
5ZWW23169H

$$$$
