64U
     RDKit          3D

 27 29  0  0  0  0  0  0  0  0999 V2000
    1.0459   -0.0687   -0.0586 C   0  0  0  0  0  0  0  0  0  0  0  0
    0.8563    1.4243    1.9924 N   0  0  0  0  0  0  0  0  0  0  0  0
    0.2701    0.2444    1.3072 C   0  0  1  0  0  0  0  0  0  0  0  0
   -1.4122    0.3165    1.5298 C   0  0  0  0  0  0  0  0  0  0  0  0
   -1.9232   -0.5099    2.2970 O   0  0  0  0  0  0  0  0  0  0  0  0
   -2.1938    1.3682    1.0259 N   0  0  0  0  0  0  0  0  0  0  0  0
   -2.0171    1.9304   -0.2153 C   0  0  0  0  0  0  0  0  0  0  0  0
   -2.4780    3.3306   -0.1958 C   0  0  0  0  0  0  0  0  0  0  0  0
   -3.7638    3.1914    0.4464 C   0  0  0  0  0  0  0  0  0  0  0  0
   -3.4506    1.9890    1.4133 C   0  0  1  0  0  0  0  0  0  0  0  0
   -4.5814    1.0904    1.0971 C   0  0  0  0  0  0  0  0  0  0  0  0
   -5.1171    0.6066    2.2143 N   0  0  0  0  0  0  0  0  0  0  0  0
   -6.4797    0.2388    2.1947 C   0  0  0  0  0  0  0  0  0  0  0  0
   -6.6081   -1.1894    2.5586 C   0  0  0  0  0  0  0  0  0  0  0  0
   -6.8868   -2.1380    1.5696 C   0  0  0  0  0  0  0  0  0  0  0  0
   -7.0246   -3.4695    1.9285 C   0  0  0  0  0  0  0  0  0  0  0  0
   -6.8464   -3.8606    3.2553 C   0  0  0  0  0  0  0  0  0  0  0  0
   -6.5248   -2.9168    4.2323 C   0  0  0  0  0  0  0  0  0  0  0  0
   -6.4008   -1.5810    3.8842 C   0  0  0  0  0  0  0  0  0  0  0  0
   -5.0492    0.8930   -0.0603 O   0  0  0  0  0  0  0  0  0  0  0  0
    0.9712    0.9543   -1.2709 C   0  0  0  0  0  0  0  0  0  0  0  0
    1.3787    2.3683   -0.7855 C   0  0  0  0  0  0  0  0  0  0  0  0
    1.0826    3.5445   -1.7029 C   0  0  0  0  0  0  0  0  0  0  0  0
   -0.3780    3.6566   -2.0080 C   0  0  0  0  0  0  0  0  0  0  0  0
   -0.9409    2.2562   -2.5469 C   0  0  0  0  0  0  0  0  0  0  0  0
   -0.4171    0.8716   -1.8797 C   0  0  0  0  0  0  0  0  0  0  0  0
   -7.4439   -4.6311    0.7332 Cl  0  0  0  0  0  0  0  0  0  0  0  0
  1  3  1  0
  1 21  1  0
  3  2  1  6
  3  4  1  0
  4  5  2  0
  4  6  1  0
  6  7  1  0
  6 10  1  0
  7  8  1  0
  8  9  1  0
  9 10  1  0
 10 11  1  6
 11 12  1  0
 11 20  2  0
 12 13  1  0
 13 14  1  0
 14 15  2  0
 14 19  1  0
 15 16  1  0
 16 17  2  0
 16 27  1  0
 17 18  1  0
 18 19  2  0
 21 22  1  0
 21 26  1  0
 22 23  1  0
 23 24  1  0
 24 25  1  0
 25 26  1  0
M  END
>  <DRUGBANK_ID>  (1) 
DB07190

>  <COMMON_NAME>  (1) 
3-cyclohexyl-D-alanyl-N-(3-chlorobenzyl)-L-prolinamide

$$$$
