
     RDKit          3D

  8  8  0  0  0  0  0  0  0  0999 V2000
    0.8565    0.0387    0.0021 O   0  0  0  0  0  0  0  0  0  0  0  0
    2.0876   -2.0584   -3.6458 O   0  0  0  0  0  0  0  0  0  0  0  0
    0.9595   -1.0587   -1.9668 N   0  0  0  0  0  0  0  0  0  0  0  0
    2.0256    0.2090   -3.5817 N   0  0  0  0  0  0  0  0  0  0  0  0
    0.3970    0.0811   -1.3262 C   0  0  2  0  0  0  0  0  0  0  0  0
    0.8403    1.3581   -1.9384 C   0  0  0  0  0  0  0  0  0  0  0  0
    1.7065   -1.0280   -3.0990 C   0  0  0  0  0  0  0  0  0  0  0  0
    1.6172    1.3848   -3.0228 C   0  0  0  0  0  0  0  0  0  0  0  0
  2  7  2  0
  3  5  1  0
  3  7  1  0
  4  7  1  0
  4  8  1  0
  5  1  1  1
  5  6  1  0
  6  8  2  0
M  END
>  <DRUGBANK_ID>  (1) 
DB03939

>  <SECONDARY_ACCESSION_NUMBERS>  (1) 
EXPT01777

>  <COMMON_NAME>  (1) 
(4S)-4-hydroxy-3,4-dihydro-2(1H)-pyrimidinone

$$$$
