
     RDKit          3D

 35 34  0  0  0  0  0  0  0  0999 V2000
    1.4667   -0.3129    0.5018 C   0  0  0  0  0  0  0  0  0  0  0  0
    0.7568   -1.4980    0.1981 O   0  0  0  0  0  0  0  0  0  0  0  0
    1.0898   -1.9857   -1.1065 C   0  0  0  0  0  0  0  0  0  0  0  0
    0.4471   -1.2303   -2.3089 C   0  0  0  0  0  0  0  0  0  0  0  0
    0.8140    0.1506   -2.4828 O   0  0  0  0  0  0  0  0  0  0  0  0
    0.2221    1.0716   -1.6643 C   0  0  0  0  0  0  0  0  0  0  0  0
   -0.8061    0.9645   -1.0554 O   0  0  0  0  0  0  0  0  0  0  0  0
    1.1407    2.0503   -1.3644 N   0  0  0  0  0  0  0  0  0  0  0  0
    2.1162    2.4839   -2.3008 C   0  0  0  0  0  0  0  0  0  0  0  0
    1.4747    3.6730   -2.8882 C   0  0  0  0  0  0  0  0  0  0  0  0
    1.3812    4.7922   -1.7841 C   0  0  0  0  0  0  0  0  0  0  0  0
    2.6636    5.4677   -1.4448 C   0  0  0  0  0  0  0  0  0  0  0  0
    3.3756    6.0339   -2.6938 C   0  0  0  0  0  0  0  0  0  0  0  0
    2.6993    7.3093   -3.4204 C   0  0  0  0  0  0  0  0  0  0  0  0
    3.2645    8.4038   -3.4556 O   0  0  0  0  0  0  0  0  0  0  0  0
    1.4774    7.2183   -4.0696 N   0  0  0  0  0  0  0  0  0  0  0  0
    0.7165    6.0249   -4.1989 C   0  0  0  0  0  0  0  0  0  0  0  0
   -0.5920    5.9568   -3.3468 C   0  0  0  0  0  0  0  0  0  0  0  0
   -1.5084    6.8395   -4.0533 C   0  0  0  0  0  0  0  0  0  0  0  0
   -1.5976    6.2066   -5.4336 C   0  0  0  0  0  0  0  0  0  0  0  0
   -2.4465    4.9187   -5.4212 C   0  0  0  0  0  0  0  0  0  0  0  0
   -3.7825    5.0144   -4.6883 C   0  0  0  0  0  0  0  0  0  0  0  0
   -4.6015    5.9648   -5.3373 O   0  0  0  0  0  0  0  0  0  0  0  0
   -3.8255    7.5093   -5.4103 P   0  0  0  0  0  0  0  0  0  0  0  0
   -3.5391    7.2902   -6.9092 O   0  0  0  0  0  0  0  0  0  0  0  0
   -5.2963    8.1654   -5.6583 O   0  0  0  0  0  0  0  0  0  0  0  0
   -3.0496    9.0538   -5.4833 O   0  0  0  0  0  0  0  0  0  0  0  0
    4.7046    6.2961   -2.1870 N   0  0  0  0  0  0  0  0  0  0  0  0
    5.7402    5.3827   -2.2065 C   0  0  0  0  0  0  0  0  0  0  0  0
    6.6590    5.4542   -1.4145 O   0  0  0  0  0  0  0  0  0  0  0  0
    5.7330    4.6294   -3.3546 O   0  0  0  0  0  0  0  0  0  0  0  0
    7.0096    4.1457   -3.8723 C   0  0  0  0  0  0  0  0  0  0  0  0
    7.8918    5.1550   -4.6757 C   0  0  0  0  0  0  0  0  0  0  0  0
    8.3623    6.2897   -3.9442 O   0  0  0  0  0  0  0  0  0  0  0  0
    7.3242    7.2294   -3.7359 C   0  0  0  0  0  0  0  0  0  0  0  0
  1  2  1  0
  2  3  1  0
  3  4  1  0
  4  5  1  0
  5  6  1  0
  6  7  2  0
  6  8  1  0
  8  9  1  0
  9 10  1  0
 10 11  1  0
 11 12  1  0
 12 13  1  0
 13 14  1  0
 13 28  1  0
 14 15  2  0
 14 16  1  0
 16 17  1  0
 17 18  1  0
 18 19  1  0
 19 20  1  0
 20 21  1  0
 21 22  1  0
 22 23  1  0
 23 24  1  0
 24 25  2  0
 24 26  1  0
 24 27  1  0
 28 29  1  0
 29 30  2  0
 29 31  1  0
 31 32  1  0
 32 33  1  0
 33 34  1  0
 34 35  1  0
M  END
>  <DRUGBANK_ID>  (1) 
DB06293

>  <COMMON_NAME>  (1) 
Pegnivacogin

>  <CAS_NUMBER>  (1) 
959716-28-0

>  <UNII>  (1) 
AYC3D1NPYB

>  <SYNONYMS>  (1) 
Pegnivacogin

$$$$
