
     RDKit          3D

  9  8  0  0  1  0  0  0  0  0999 V2000
    1.0077   -0.0715    0.0695 C   0  0  0  0  0  0  0  0  0  0  0  0
    0.3144   -1.8846   -0.6775 Hg  0  0  0  0  0  2  0  0  0  0  0  0
   -0.4756   -3.9506   -1.5287 S   0  0  0  0  0  0  0  0  0  0  0  0
   -1.6501   -3.6407   -2.8706 C   0  0  0  0  0  0  0  0  0  0  0  0
   -2.8216   -2.8296   -2.3415 C   0  0  1  0  0  0  0  0  0  0  0  0
   -2.3316   -1.5481   -1.8135 N   0  0  0  0  0  0  0  0  0  0  0  0
   -3.8078   -2.5693   -3.4684 C   0  0  0  0  0  0  0  0  0  0  0  0
   -5.1444   -3.0376   -3.3645 O   0  0  0  0  0  0  0  0  0  0  0  0
   -3.4363   -1.9327   -4.5037 O   0  0  0  0  0  0  0  0  0  0  0  0
  1  2  1  0
  2  3  1  0
  3  4  1  0
  4  5  1  0
  5  6  1  6
  5  7  1  0
  7  8  1  0
  7  9  2  0
M  END
>  <DRUGBANK_ID>  (1) 
DB02750

>  <SECONDARY_ACCESSION_NUMBERS>  (1) 
EXPT00956

>  <COMMON_NAME>  (1) 
S-(Methylmercury)-L-Cysteine

$$$$
