
     RDKit          3D

 34 33  0  0  1  0  0  0  0  0999 V2000
    1.0599    0.0431   -0.0018 C   0  0  0  0  0  0  0  0  0  0  0  0
    0.6288   -0.7895   -1.1982 C   0  0  0  0  0  0  0  0  0  0  0  0
    1.1245   -2.2293   -1.0572 C   0  0  0  0  0  0  0  0  0  0  0  0
    0.5599   -2.8972    0.2011 C   0  0  0  0  0  0  0  0  0  0  0  0
   -0.9720   -2.9084    0.1709 C   0  0  0  0  0  0  0  0  0  0  0  0
   -1.4678   -3.7042   -1.0398 C   0  0  0  0  0  0  0  0  0  0  0  0
   -0.9595   -5.1459   -0.9506 C   0  0  0  0  0  0  0  0  0  0  0  0
   -1.4803   -5.7840    0.3387 C   0  0  0  0  0  0  0  0  0  0  0  0
   -3.0113   -5.7502    0.3177 C   0  0  0  0  0  0  0  0  0  0  0  0
   -3.5007   -6.5373   -0.9053 C   0  0  0  0  0  0  0  0  0  0  0  0
   -2.9909   -7.9725   -0.7766 C   0  0  0  0  0  0  0  0  0  0  0  0
   -3.4865   -8.4989    0.5751 C   0  0  0  0  0  0  0  0  0  0  0  0
   -5.0273   -8.3613    0.6106 C   0  0  0  0  0  0  0  0  0  0  0  0
   -5.5958   -9.1797   -0.5177 C   0  0  0  0  0  0  0  0  0  0  0  0
   -5.0901  -10.5439   -0.1937 C   0  0  0  0  0  0  0  0  0  0  0  0
   -5.7180  -11.0887    1.0892 C   0  0  0  0  0  0  0  0  0  0  0  0
   -7.2429  -11.2917    0.9442 C   0  0  0  0  0  0  0  0  0  0  0  0
   -7.8554  -11.9723   -0.2893 C   0  0  0  0  0  0  0  0  0  0  0  0
   -7.2961  -13.2222   -0.5728 O   0  0  0  0  0  0  0  0  0  0  0  0
   -5.9057  -13.1917   -0.6517 C   0  0  0  0  0  0  0  0  0  0  0  0
   -5.2065  -12.9382   -2.0667 C   0  0  1  0  0  0  0  0  0  0  0  0
   -5.6407  -11.8330   -2.8587 O   0  0  0  0  0  0  0  0  0  0  0  0
   -3.6574  -12.9996   -1.9305 C   0  0  0  0  0  0  0  0  0  0  0  0
   -3.1840  -14.3416   -1.7051 O   0  0  0  0  0  0  0  0  0  0  0  0
   -3.7607  -15.0817   -0.2516 P   0  0  0  0  0  0  0  0  0  0  0  0
   -2.6189  -16.2299   -0.4206 O   0  0  0  0  0  0  0  0  0  0  0  0
   -3.1176  -13.9836    0.5854 O   0  0  0  0  0  0  0  0  0  0  0  0
   -4.3374  -15.8218    1.2019 O   0  0  0  0  0  0  0  0  0  0  0  0
   -5.0714  -17.0729    0.8906 C   0  0  0  0  0  0  0  0  0  0  0  0
   -6.4046  -17.1050   -0.0720 C   0  0  0  0  0  0  0  0  0  0  0  0
   -6.2046  -16.8727   -1.7026 N   0  0  0  0  0  0  0  0  0  0  0  0
   -5.1114  -17.7212   -2.3092 C   0  0  0  0  0  0  0  0  0  0  0  0
   -7.4979  -16.6762   -2.5331 C   0  0  0  0  0  0  0  0  0  0  0  0
   -5.8183  -15.5346   -1.8708 C   0  0  0  0  0  0  0  0  0  0  0  0
  1  2  1  0
  2  3  1  0
  3  4  1  0
  4  5  1  0
  5  6  1  0
  6  7  1  0
  7  8  1  0
  8  9  1  0
  9 10  1  0
 10 11  1  0
 11 12  1  0
 12 13  1  0
 13 14  1  0
 14 15  1  0
 15 16  1  0
 16 17  1  0
 17 18  1  0
 18 19  1  0
 19 20  1  0
 20 21  1  0
 21 22  1  1
 21 23  1  0
 23 24  1  0
 25 24  1  0
 25 26  1  0
 25 27  2  0
 25 28  1  0
 28 29  1  0
 29 30  1  0
 30 31  1  0
 31 32  1  0
 31 33  1  0
 31 34  1  0
M  CHG  1  31   1
M  END
>  <DRUGBANK_ID>  (1) 
DB03633

>  <SECONDARY_ACCESSION_NUMBERS>  (1) 
EXPT02056

>  <COMMON_NAME>  (1) 
Lpc-Ether

$$$$
