APF
     RDKit          3D

 18 18  0  0  0  0  0  0  0  0999 V2000
    4.1720   -0.3581    1.3626 C   0  0  0  0  0  0  0  0  0  0  0  0
    4.1128   -0.2168    2.8588 C   0  0  0  0  0  0  0  0  0  0  0  0
    5.0961    0.1167    3.5260 O   0  0  0  0  0  0  0  0  0  0  0  0
    2.9346   -0.4840    3.4980 N   0  0  0  0  0  0  0  0  0  0  0  0
    1.6451   -0.7804    2.8734 C   0  0  2  0  0  0  0  0  0  0  0  0
    0.8498    0.5215    2.7140 C   0  0  0  0  0  0  0  0  0  0  0  0
    0.0729    1.0541    3.9256 C   0  0  0  0  0  0  0  0  0  0  0  0
    0.8857   -1.9029    3.5849 C   0  0  0  0  0  0  0  0  0  0  0  0
    0.8202    1.0763    1.6059 O   0  0  0  0  0  0  0  0  0  0  0  0
    0.3099    2.3722    4.1458 F   0  0  0  0  0  0  0  0  0  0  0  0
   -1.2832    0.9544    3.7979 F   0  0  0  0  0  0  0  0  0  0  0  0
    0.3773    0.4155    5.0866 F   0  0  0  0  0  0  0  0  0  0  0  0
   -0.3737   -2.3430    2.8657 C   0  0  0  0  0  0  0  0  0  0  0  0
   -0.6349   -3.7007    2.7041 C   0  0  0  0  0  0  0  0  0  0  0  0
   -1.8356   -4.1202    2.1210 C   0  0  0  0  0  0  0  0  0  0  0  0
   -2.8193   -3.2006    1.7555 C   0  0  0  0  0  0  0  0  0  0  0  0
   -2.5891   -1.8559    1.9313 C   0  0  0  0  0  0  0  0  0  0  0  0
   -1.3494   -1.4509    2.3954 C   0  0  0  0  0  0  0  0  0  0  0  0
  1  2  1  0
  2  3  2  0
  2  4  1  0
  5  8  1  1
  5  6  1  0
  5  4  1  0
  6  7  1  0
  6  9  2  0
  7 10  1  0
  7 11  1  0
  7 12  1  0
  8 13  1  0
 13 14  2  0
 13 18  1  0
 14 15  1  0
 15 16  2  0
 16 17  1  0
 17 18  2  0
M  END
>  <DRUGBANK_ID>  (1) 
DB07380

>  <COMMON_NAME>  (1) 
1,1,1-TRIFLUORO-3-ACETAMIDO-4-PHENYL BUTAN-2-ONE(N-ACETYL-L-PHENYLALANYL TRIFLUOROMETHYL KETONE)

$$$$
