DI5
     RDKit          3D

 30 31  0  0  0  0  0  0  0  0999 V2000
   -0.7492   -1.8852    0.3492 B   0  0  0  0  0  0  0  0  0  0  0  0
    0.1706   -1.1832   -0.7558 C   0  0  2  0  0  0  0  0  0  0  0  0
    0.9306   -0.0287   -0.1233 C   0  0  0  0  0  0  0  0  0  0  0  0
    2.3116   -0.6301    0.0811 C   0  0  0  0  0  0  0  0  0  0  0  0
    2.8570   -1.1119   -1.2534 C   0  0  0  0  0  0  0  0  0  0  0  0
   -0.4784   -1.1650   -3.2177 C   0  0  0  0  0  0  0  0  0  0  0  0
   -1.3522   -0.6394   -4.3449 C   0  0  2  0  0  0  0  0  0  0  0  0
   -1.6913    0.8118   -4.1446 C   0  0  0  0  0  0  0  0  0  0  0  0
   -2.8742    1.0347   -5.1345 C   0  0  0  0  0  0  0  0  0  0  0  0
   -3.6127   -0.3061   -5.1085 C   0  0  0  0  0  0  0  0  0  0  0  0
   -3.0550   -2.5721   -3.8327 C   0  0  0  0  0  0  0  0  0  0  0  0
   -4.4905   -4.3854   -4.7341 C   0  0  0  0  0  0  0  0  0  0  0  0
   -4.4827   -3.0784   -3.9581 C   0  0  1  0  0  0  0  0  0  0  0  0
   -6.2416   -2.5648   -2.1903 C   0  0  0  0  0  0  0  0  0  0  0  0
   -6.8211   -2.7951   -0.8041 C   0  0  0  0  0  0  0  0  0  0  0  0
   -2.4995   -6.0297   -2.0470 C   0  0  0  0  0  0  0  0  0  0  0  0
   -2.7156   -7.3017   -2.3609 C   0  0  0  0  0  0  0  0  0  0  0  0
   -3.4108   -7.6328   -3.4988 C   0  0  0  0  0  0  0  0  0  0  0  0
   -3.8166   -6.6696   -4.3803 C   0  0  0  0  0  0  0  0  0  0  0  0
   -3.6501   -5.4164   -3.9985 C   0  0  0  0  0  0  0  0  0  0  0  0
   -2.8265   -5.0078   -2.9230 C   0  0  0  0  0  0  0  0  0  0  0  0
   -0.6745   -0.6748   -1.8459 N   0  0  0  0  0  0  0  0  0  0  0  0
    2.9495    0.0228   -2.1834 N   0  0  0  0  0  0  0  0  0  0  0  0
   -2.6884   -1.2615   -4.3884 N   0  0  0  0  0  0  0  0  0  0  0  0
   -5.0432   -3.3011   -2.6175 N   0  0  0  0  0  0  0  0  0  0  0  0
   -0.2218   -3.1266    1.0054 O   0  0  0  0  0  0  0  0  0  0  0  0
   -2.0771   -1.3239    0.7638 O   0  0  0  0  0  0  0  0  0  0  0  0
    0.4219   -2.0284   -3.4614 O   0  0  0  0  0  0  0  0  0  0  0  0
   -2.1782   -3.2820   -3.2474 O   0  0  0  0  0  0  0  0  0  0  0  0
   -6.7931   -1.7356   -2.9799 O   0  0  0  0  0  0  0  0  0  0  0  0
  1 26  1  0
  1 27  1  0
  2 22  1  0
  2  3  1  1
  2  1  1  0
  3  4  1  0
  4  5  1  0
  5 23  1  0
  6 22  1  0
  6 28  2  0
  7  6  1  1
  7  8  1  0
  7 24  1  0
  8  9  1  0
  9 10  1  0
 10 24  1  0
 11 13  1  0
 11 24  1  0
 11 29  2  0
 13 12  1  6
 12 20  1  0
 13 25  1  0
 14 15  1  0
 14 25  1  0
 14 30  2  0
 16 17  2  0
 16 21  1  0
 17 18  1  0
 18 19  2  0
 19 20  1  0
 20 21  2  0
M  END
>  <DRUGBANK_ID>  (1) 
DB07660

>  <COMMON_NAME>  (1) 
AC-(D)PHE-PRO-BOROHOMOORNITHINE-OH

$$$$
