
     RDKit          3D

 20 19  0  0  0  0  0  0  0  0999 V2000
    1.2256   -0.0269    0.5610 N   0  0  0  0  0  0  0  0  0  0  0  0
    0.6649    0.8115    1.7611 C   0  0  1  0  0  0  0  0  0  0  0  0
    1.1244    2.2131    1.5841 C   0  0  0  0  0  0  0  0  0  0  0  0
    0.5618    2.9039    0.3301 C   0  0  0  0  0  0  0  0  0  0  0  0
   -0.9609    2.9386    0.0790 C   0  0  0  0  0  0  0  0  0  0  0  0
   -1.5861    3.9658    0.3760 O   0  0  0  0  0  0  0  0  0  0  0  0
   -1.6930    1.8309   -0.4003 N   0  0  0  0  0  0  0  0  0  0  0  0
   -1.3628    0.3287   -0.3885 C   0  0  1  0  0  0  0  0  0  0  0  0
   -1.4890   -0.9623    0.7782 C   0  0  0  0  0  0  0  0  0  0  0  0
   -1.5909   -0.3550   -1.6918 C   0  0  0  0  0  0  0  0  0  0  0  0
   -0.6670   -0.6320   -2.4560 O   0  0  0  0  0  0  0  0  0  0  0  0
   -2.8847   -0.6973   -1.9231 N   0  0  0  0  0  0  0  0  0  0  0  0
   -3.9826   -0.4335   -1.0114 C   0  0  0  0  0  0  0  0  0  0  0  0
   -5.0383    0.5618   -1.4112 C   0  0  0  0  0  0  0  0  0  0  0  0
   -6.2156    0.4047   -1.3182 O   0  0  0  0  0  0  0  0  0  0  0  0
   -4.4761    1.7782   -1.6504 O   0  0  0  0  0  0  0  0  0  0  0  0
   -0.8653    0.9421    2.4718 C   0  0  0  0  0  0  0  0  0  0  0  0
   -1.1951    0.4522    3.5323 O   0  0  0  0  0  0  0  0  0  0  0  0
   -1.8252    1.6181    1.8250 O   0  0  0  0  0  0  0  0  0  0  0  0
   -3.0301   -1.5452    1.6624 S   0  0  0  0  0  0  0  0  0  0  0  0
  2  1  1  6
  2  3  1  0
  2 17  1  0
  3  4  1  0
  4  5  1  0
  5  6  2  0
  5  7  1  0
  7  8  1  0
  8  9  1  1
  8 10  1  0
  9 20  1  0
 10 11  2  0
 10 12  1  0
 12 13  1  0
 13 14  1  0
 14 15  2  0
 14 16  1  0
 17 18  2  0
 17 19  1  0
M  END
>  <DRUGBANK_ID>  (1) 
DB00143

>  <SECONDARY_ACCESSION_NUMBERS>  (1) 
NUTR00029; EXPT01650

>  <COMMON_NAME>  (1) 
Glutathione

>  <CAS_NUMBER>  (1) 
70-18-8

>  <UNII>  (1) 
GAN16C9B8O

>  <SYNONYMS>  (1) 
5-L-Glutamyl-L-cysteinylglycine; AEC GLUTATHIONE; gamma-L-Glutamyl-L-cysteinyl-glycine; Glutathion; Glutathione; Glutathione-SH; GLYCINE, L-.GAMMA.-GLUTAMYL-L-CYSTEINYL-; GSH; L-GLUTATHIONE REDUCED; Liposomal glutathione; N-(N-gamma-L-Glutamyl-L-cysteinyl)glycine; Reduced glutathione; REDUCED L-GLUTATHIONE

$$$$
