
     RDKit          3D

 24 26  0  0  0  0  0  0  0  0999 V2000
    0.9995    0.0674    0.0898 C   0  0  0  0  0  0  0  0  0  0  0  0
    2.6417   -4.9324   -0.4504 C   0  0  0  0  0  0  0  0  0  0  0  0
   -6.0569   -3.7333   -0.4638 C   0  0  0  0  0  0  0  0  0  0  0  0
   -0.1118   -7.9671    0.8916 C   0  0  0  0  0  0  0  0  0  0  0  0
    1.4150   -4.7090   -0.9963 C   0  0  0  0  0  0  0  0  0  0  0  0
    3.3110   -3.8225    0.0578 C   0  0  0  0  0  0  0  0  0  0  0  0
   -5.3257   -2.5562   -0.3075 C   0  0  0  0  0  0  0  0  0  0  0  0
   -5.4588   -4.9630   -0.2692 C   0  0  0  0  0  0  0  0  0  0  0  0
   -1.2946   -7.8553    0.1872 C   0  0  0  0  0  0  0  0  0  0  0  0
    0.4955   -6.8121    1.3677 C   0  0  0  0  0  0  0  0  0  0  0  0
    0.9650   -3.4187   -0.8154 C   0  0  0  0  0  0  0  0  0  0  0  0
    2.8138   -2.4773   -0.0478 C   0  0  0  0  0  0  0  0  0  0  0  0
   -3.9627   -2.6221   -0.0703 C   0  0  0  0  0  0  0  0  0  0  0  0
   -4.1626   -4.9922    0.1694 C   0  0  0  0  0  0  0  0  0  0  0  0
   -1.7441   -6.5962   -0.1987 C   0  0  0  0  0  0  0  0  0  0  0  0
   -0.1467   -5.5572    1.2344 C   0  0  0  0  0  0  0  0  0  0  0  0
   -1.5740   -3.5842   -1.7140 C   0  0  0  0  0  0  0  0  0  0  0  0
   -1.5171   -2.0263   -1.9771 C   0  0  0  0  0  0  0  0  0  0  0  0
    0.6940   -1.0275   -0.9229 C   0  0  0  0  0  0  0  0  0  0  0  0
    1.5594   -2.2503   -0.5872 C   0  0  0  0  0  0  0  0  0  0  0  0
   -3.3561   -3.8722    0.0631 C   0  0  0  0  0  0  0  0  0  0  0  0
   -1.2557   -5.4089    0.3585 C   0  0  0  0  0  0  0  0  0  0  0  0
   -1.8660   -4.0320   -0.1128 C   0  0  0  0  0  0  0  0  0  0  0  0
   -0.8208   -1.1620   -0.9823 N   0  0  0  0  0  0  0  0  0  0  0  0
  5  2  2  0
  6  2  1  0
  7  3  2  0
  8  3  1  0
  9  4  2  0
 10  4  1  0
 11  5  1  0
 12  6  2  0
 13  7  1  0
 14  8  2  0
 15  9  1  0
 16 10  2  0
 18 17  1  0
 19  1  1  0
 20 11  2  0
 20 12  1  0
 20 19  1  0
 21 13  2  0
 21 14  1  0
 22 15  2  0
 22 16  1  0
 23 17  1  0
 23 21  1  0
 23 22  1  0
 24 18  1  0
 24 19  1  0
M  END
>  <DRUGBANK_ID>  (1) 
DB08980

>  <COMMON_NAME>  (1) 
Fendiline

>  <CAS_NUMBER>  (1) 
13042-18-7

>  <UNII>  (1) 
S253D559A8

>  <SYNONYMS>  (1) 
Fendiline

$$$$
