
     RDKit          3D

 27 29  0  0  0  0  0  0  0  0999 V2000
    0.9890   -0.3011    0.2888 C   0  0  0  0  0  0  0  0  0  0  0  0
    0.6235   -0.1935   -1.0574 O   0  0  0  0  0  0  0  0  0  0  0  0
    1.0310    1.0714   -1.4005 C   0  0  0  0  0  0  0  0  0  0  0  0
    2.3999    1.3734   -1.6800 C   0  0  0  0  0  0  0  0  0  0  0  0
    2.7808    2.5047   -2.4491 C   0  0  0  0  0  0  0  0  0  0  0  0
    1.8190    3.3039   -2.9544 C   0  0  0  0  0  0  0  0  0  0  0  0
    2.3927    4.5571   -4.1463 C   0  0  0  0  0  0  0  0  0  0  0  0
    2.0750    5.1932   -5.6753 C   0  0  0  0  0  0  0  0  0  0  0  0
    0.5933    5.4666   -5.9912 C   0  0  0  0  0  0  0  0  0  0  0  0
    0.1452    6.4941   -5.0854 O   0  0  0  0  0  0  0  0  0  0  0  0
    0.0361    6.0536   -3.6995 C   0  0  0  0  0  0  0  0  0  0  0  0
   -0.6679    4.5975   -3.7854 C   0  0  0  0  0  0  0  0  0  0  0  0
   -0.1724    3.1349   -4.5664 N   0  0  0  0  0  0  0  0  0  0  0  0
    0.9622    2.7489   -5.3206 C   0  0  0  0  0  0  0  0  0  0  0  0
    1.3259    1.4531   -5.2003 C   0  0  0  0  0  0  0  0  0  0  0  0
    0.2965    0.8298   -4.6400 N   0  0  0  0  0  0  0  0  0  0  0  0
   -0.5980    1.7852   -4.3523 C   0  0  0  0  0  0  0  0  0  0  0  0
    1.2801    6.5624   -2.4734 C   0  0  0  0  0  0  0  0  0  0  0  0
    1.8888    7.7628   -2.7779 C   0  0  0  0  0  0  0  0  0  0  0  0
    3.2995    7.9359   -2.5705 C   0  0  0  0  0  0  0  0  0  0  0  0
    4.1677    6.9341   -2.0907 C   0  0  0  0  0  0  0  0  0  0  0  0
    5.5204    6.8404   -2.2096 O   0  0  0  0  0  0  0  0  0  0  0  0
    6.0914    8.1153   -2.1011 C   0  0  0  0  0  0  0  0  0  0  0  0
    3.6266    5.8303   -1.5654 C   0  0  0  0  0  0  0  0  0  0  0  0
    2.2260    5.7195   -1.7229 C   0  0  0  0  0  0  0  0  0  0  0  0
    0.5017    3.0307   -2.2046 C   0  0  0  0  0  0  0  0  0  0  0  0
    0.1076    1.9353   -1.4522 C   0  0  0  0  0  0  0  0  0  0  0  0
  1  2  1  0
  2  3  1  0
  3  4  2  0
  3 27  1  0
  4  5  1  0
  5  6  2  0
  6  7  1  0
  6 26  1  0
  7  8  1  0
  8  9  1  0
  9 10  1  0
 10 11  1  0
 11 12  1  0
 11 18  1  0
 12 13  1  0
 13 14  1  0
 13 17  1  0
 14 15  2  0
 15 16  1  0
 16 17  2  0
 18 19  2  0
 18 25  1  0
 19 20  1  0
 20 21  2  0
 21 22  1  0
 21 24  1  0
 22 23  1  0
 24 25  2  0
 26 27  2  0
M  END
>  <DRUGBANK_ID>  (1) 
DB17054

>  <COMMON_NAME>  (1) 
SKF-96365 free base

>  <CAS_NUMBER>  (1) 
162849-90-3

>  <UNII>  (1) 
I61V87164A

>  <SYNONYMS>  (1) 
1-(2-(3-(4-methoxyphenyl)propoxy)-4-methoxyphenylethyl)-1h-imidazole

$$$$
