UIN
     RDKit          3D

 23 25  0  0  0  0  0  0  0  0999 V2000
    5.1130    0.0760    0.0429 C   0  0  0  0  0  0  0  0  0  0  0  0
    6.1627   -0.8455   -0.4844 C   0  0  0  0  0  0  0  0  0  0  0  0
    6.2990   -1.9699   -0.0378 O   0  0  0  0  0  0  0  0  0  0  0  0
    7.0257   -0.3424   -1.4433 O   0  0  0  0  0  0  0  0  0  0  0  0
    6.8873    0.9787   -1.9347 C   0  0  0  0  0  0  0  0  0  0  0  0
    5.9754    1.8192   -1.4194 C   0  0  0  0  0  0  0  0  0  0  0  0
    5.2154    1.3668   -0.2993 C   0  0  0  0  0  0  0  0  0  0  0  0
    4.6864    2.3807    0.4647 O   0  0  0  0  0  0  0  0  0  0  0  0
    2.6200   -0.2219    0.4473 C   0  0  0  0  0  0  0  0  0  0  0  0
    1.6555   -1.2223    0.3499 C   0  0  0  0  0  0  0  0  0  0  0  0
    0.3648   -0.9095   -0.1185 C   0  0  0  0  0  0  0  0  0  0  0  0
    0.0317    0.3795   -0.5495 C   0  0  0  0  0  0  0  0  0  0  0  0
    0.9659    1.3781   -0.4580 C   0  0  0  0  0  0  0  0  0  0  0  0
    2.1885    1.0665    0.1029 C   0  0  0  0  0  0  0  0  0  0  0  0
    4.0486   -0.4846    0.9836 C   0  0  2  0  0  0  0  0  0  0  0  0
    4.2369    0.0505    2.4165 C   0  0  0  0  0  0  0  0  0  0  0  0
    3.2054   -0.5091    3.3816 C   0  0  0  0  0  0  0  0  0  0  0  0
    7.9305    1.4841   -2.8959 C   0  0  0  0  0  0  0  0  0  0  0  0
    9.3230    1.7867   -2.3146 C   0  0  0  0  0  0  0  0  0  0  0  0
    9.4571    2.5980   -0.9998 C   0  0  0  0  0  0  0  0  0  0  0  0
    8.1749    3.0614   -0.3156 C   0  0  0  0  0  0  0  0  0  0  0  0
    7.3030    3.9344   -1.2513 C   0  0  0  0  0  0  0  0  0  0  0  0
    5.9941    3.2911   -1.7364 C   0  0  0  0  0  0  0  0  0  0  0  0
  1  2  1  0
  1  7  2  0
  2  3  2  0
  2  4  1  0
  4  5  1  0
  5  6  2  0
  5 18  1  0
  6  7  1  0
  6 23  1  0
  7  8  1  0
  9 10  2  0
  9 14  1  0
 10 11  1  0
 11 12  2  0
 12 13  1  0
 13 14  2  0
 15 16  1  1
 15  9  1  0
 15  1  1  0
 16 17  1  0
 18 19  1  0
 19 20  1  0
 20 21  1  0
 21 22  1  0
 22 23  1  0
M  END
>  <DRUGBANK_ID>  (1) 
DB08686

>  <COMMON_NAME>  (1) 
5,6,7,8,9,10-HEXAHYDRO-4-HYDROXY-3-(1-PHENYLPROPYL)CYCLOOCTA[B]PYRAN-2-ONE

$$$$
