
     RDKit          3D

 36 40  0  0  1  0  0  0  0  0999 V2000
    1.9684   -0.7360    0.7456 C   0  0  2  0  0  0  0  0  0  0  0  0
    2.0967   -2.8319    0.9875 C   0  0  0  0  0  0  0  0  0  0  0  0
    2.6526   -3.5955   -0.2146 C   0  0  0  0  0  0  0  0  0  0  0  0
    2.2492   -2.3043   -0.6966 C   0  0  1  0  0  0  0  0  0  0  0  0
    2.7637   -2.0376   -1.9761 O   0  0  0  0  0  0  0  0  0  0  0  0
    0.4593   -2.4375   -0.6264 C   0  0  0  0  0  0  0  0  0  0  0  0
    0.0540   -3.7016   -0.2636 F   0  0  0  0  0  0  0  0  0  0  0  0
   -0.1276   -1.6489    0.3366 F   0  0  0  0  0  0  0  0  0  0  0  0
   -0.0981   -2.0837   -1.9541 C   0  0  0  0  0  0  0  0  0  0  0  0
    0.3191   -0.8563   -2.3335 F   0  0  0  0  0  0  0  0  0  0  0  0
    0.2845   -2.9897   -2.8784 F   0  0  0  0  0  0  0  0  0  0  0  0
   -1.4506   -2.0635   -1.9214 F   0  0  0  0  0  0  0  0  0  0  0  0
    3.1431   -1.4927    0.7091 C   0  0  2  0  0  0  0  0  0  0  0  0
    2.3847   -1.3956    2.4645 C   0  0  0  0  0  0  0  0  0  0  0  0
    4.5640   -1.1259    0.5147 C   0  0  0  0  0  0  0  0  0  0  0  0
    5.2054   -0.1087    1.5629 C   0  0  2  0  0  0  0  0  0  0  0  0
    4.9126   -0.5709    2.9868 C   0  0  0  0  0  0  0  0  0  0  0  0
    5.1806   -1.8824    3.4034 C   0  0  0  0  0  0  0  0  0  0  0  0
    4.8956   -2.2653    4.7181 C   0  0  0  0  0  0  0  0  0  0  0  0
    4.2904   -1.3632    5.6110 C   0  0  0  0  0  0  0  0  0  0  0  0
    3.9412   -0.0969    5.1745 C   0  0  0  0  0  0  0  0  0  0  0  0
    4.2278    0.2770    3.8842 C   0  0  0  0  0  0  0  0  0  0  0  0
    4.0148   -1.7668    7.0087 C   0  0  0  0  0  0  0  0  0  0  0  0
    3.3428   -0.7955    7.9532 C   0  0  0  0  0  0  0  0  0  0  0  0
    4.3505   -2.8874    7.3863 O   0  0  0  0  0  0  0  0  0  0  0  0
    4.7411    1.3651    1.3948 C   0  0  0  0  0  0  0  0  0  0  0  0
    5.4557    2.7226    1.5310 C   0  0  0  0  0  0  0  0  0  0  0  0
    6.9274    3.9525    1.8806 C   0  0  0  0  0  0  0  0  0  0  0  0
    7.5117    4.9356    0.5918 C   0  0  0  0  0  0  0  0  0  0  0  0
    6.8213    3.9918   -0.2362 C   0  0  0  0  0  0  0  0  0  0  0  0
    7.3336    2.8868   -0.4244 O   0  0  0  0  0  0  0  0  0  0  0  0
    5.3727    4.3208   -0.1999 C   0  0  0  0  0  0  0  0  0  0  0  0
    4.6621    3.5826    0.6672 C   0  0  0  0  0  0  0  0  0  0  0  0
    3.1761    3.5481    0.4943 C   0  0  0  0  0  0  0  0  0  0  0  0
    2.2899    2.2658    0.5590 C   0  0  0  0  0  0  0  0  0  0  0  0
    2.9635    0.9302    1.0320 C   0  0  1  0  0  0  0  0  0  0  0  0
  1  2  1  1
  1 13  1  0
  1 36  1  0
  2  3  1  0
  4  3  1  0
  4  6  1  0
  4  5  1  6
  6  7  1  0
  6  8  1  0
  6  9  1  0
  9 10  1  0
  9 11  1  0
  9 12  1  0
 13  4  1  0
 13 14  1  1
 13 15  1  0
 16 15  1  0
 16 17  1  1
 16 26  1  0
 17 18  2  0
 17 22  1  0
 18 19  1  0
 19 20  2  0
 20 21  1  0
 20 23  1  0
 21 22  2  0
 23 24  1  0
 23 25  2  0
 26 27  2  0
 27 28  1  0
 27 33  1  0
 28 29  1  0
 29 30  1  0
 30 31  2  0
 30 32  1  0
 32 33  2  0
 33 34  1  0
 34 35  1  0
 36 35  1  6
 36 26  1  0
M  END
>  <DRUGBANK_ID>  (1) 
DB16221

>  <COMMON_NAME>  (1) 
Lonaprisan

>  <CAS_NUMBER>  (1) 
211254-73-8

>  <UNII>  (1) 
F5Z5EL4D26

>  <SYNONYMS>  (1) 
Lonaprisan

$$$$
