
     RDKit          3D

 29 30  0  0  0  0  0  0  0  0999 V2000
   -0.8183   -3.5578    0.0659 C   0  0  0  0  0  0  0  0  0  0  0  0
   -1.4083   -2.3045    0.0001 N   0  0  0  0  0  0  0  0  0  0  0  0
    1.8401   -5.5299    1.7164 C   0  0  0  0  0  0  0  0  0  0  0  0
    0.5763   -3.6259    0.6610 C   0  0  1  0  0  0  0  0  0  0  0  0
    0.7667   -4.7164    1.6065 N   0  0  0  0  0  0  0  0  0  0  0  0
    0.5550   -0.6237    0.6762 C   0  0  0  0  0  0  0  0  0  0  0  0
   -0.9833   -1.0178    0.6314 C   0  0  2  0  0  0  0  0  0  0  0  0
   -1.3601   -4.5238   -0.4691 O   0  0  0  0  0  0  0  0  0  0  0  0
    1.6813   -3.4248   -0.4666 C   0  0  0  0  0  0  0  0  0  0  0  0
    1.9634   -6.2866    2.6780 O   0  0  0  0  0  0  0  0  0  0  0  0
    2.6977   -5.3927    0.6951 O   0  0  0  0  0  0  0  0  0  0  0  0
    1.4647   -1.3230    1.1391 O   0  0  0  0  0  0  0  0  0  0  0  0
    1.6130   -2.3970   -1.5881 C   0  0  0  0  0  0  0  0  0  0  0  0
    1.3980   -0.5757   -3.7105 C   0  0  0  0  0  0  0  0  0  0  0  0
    3.8790   -6.1851    0.6105 C   0  0  0  0  0  0  0  0  0  0  0  0
    0.4227   -2.2085   -2.2854 C   0  0  0  0  0  0  0  0  0  0  0  0
    2.7414   -1.6759   -2.0253 C   0  0  0  0  0  0  0  0  0  0  0  0
    0.2856   -1.2615   -3.2798 C   0  0  0  0  0  0  0  0  0  0  0  0
    2.6347   -0.7752   -3.1007 C   0  0  0  0  0  0  0  0  0  0  0  0
    0.6175    1.2431   -0.8019 F   0  0  0  0  0  0  0  0  0  0  0  0
    1.0345    0.7374    0.3754 C   0  0  0  0  0  0  0  0  0  0  0  0
    4.7759   -5.9745    1.7933 C   0  0  0  0  0  0  0  0  0  0  0  0
    1.2051    0.2605   -4.7657 O   0  0  0  0  0  0  0  0  0  0  0  0
   -1.5801   -0.9685    2.0393 C   0  0  0  0  0  0  0  0  0  0  0  0
    4.8070   -4.7431    2.4678 C   0  0  0  0  0  0  0  0  0  0  0  0
    5.4969   -7.0592    2.2954 C   0  0  0  0  0  0  0  0  0  0  0  0
    6.1134   -6.9563    3.5372 C   0  0  0  0  0  0  0  0  0  0  0  0
    5.4538   -4.6344    3.6923 C   0  0  0  0  0  0  0  0  0  0  0  0
    6.1017   -5.7442    4.2286 C   0  0  0  0  0  0  0  0  0  0  0  0
  2  1  1  0
  3  5  1  0
  4  1  1  0
  4  9  1  6
  5  4  1  0
  7 24  1  1
  7  2  1  0
  7  6  1  0
  8  1  2  0
 10  3  2  0
 11  3  1  0
 12  6  2  0
 13  9  1  0
 14 19  2  0
 14 18  1  0
 15 11  1  0
 16 13  1  0
 17 13  2  0
 18 16  2  0
 19 17  1  0
 20 21  1  0
 21  6  1  0
 22 15  1  0
 23 14  1  0
 25 22  2  0
 26 22  1  0
 27 26  2  0
 28 25  1  0
 29 27  1  0
 29 28  2  0
M  END
>  <DRUGBANK_ID>  (1) 
DB08775

>  <COMMON_NAME>  (1) 
Benzoyl-tyrosine-alanine-fluoro-methyl ketone

$$$$
