
     RDKit          3D

 25 28  0  0  1  0  0  0  0  0999 V2000
   -2.0156   -0.0524    0.0031 N   0  0  0  0  0  0  0  0  0  0  0  0
   -0.6807   -0.1014   -0.0033 C   0  0  0  0  0  0  0  0  0  0  0  0
    0.1206   -1.1332   -0.0088 N   0  0  0  0  0  0  0  0  0  0  0  0
    1.4052   -0.6289   -0.0294 N   0  0  0  0  0  0  0  0  0  0  0  0
    1.2827    0.6829   -0.0387 C   0  0  0  0  0  0  0  0  0  0  0  0
    2.3599    1.7132   -0.0159 C   0  0  0  0  0  0  0  0  0  0  0  0
    2.3694    2.6366   -1.1743 N   0  0  0  0  0  0  0  0  0  0  0  0
    3.6161    3.4476   -1.1777 C   0  0  2  0  0  0  0  0  0  0  0  0
    3.7529    4.8814   -1.6116 C   0  0  0  0  0  0  0  0  0  0  0  0
    4.1337    3.8044   -2.5629 C   0  0  1  0  0  0  0  0  0  0  0  0
    5.5134    3.4260   -3.0039 C   0  0  0  0  0  0  0  0  0  0  0  0
    5.7526    2.0809   -3.2761 C   0  0  0  0  0  0  0  0  0  0  0  0
    6.8482    1.6953   -4.0362 C   0  0  0  0  0  0  0  0  0  0  0  0
    7.8515    2.5792   -4.3910 C   0  0  0  0  0  0  0  0  0  0  0  0
    9.0460    2.2211   -4.9524 O   0  0  0  0  0  0  0  0  0  0  0  0
    9.3833    0.8195   -5.0291 C   0  0  0  0  0  0  0  0  0  0  0  0
    9.4653    0.0583   -3.7128 C   0  0  0  0  0  0  0  0  0  0  0  0
    8.4408   -0.8310   -3.3347 C   0  0  0  0  0  0  0  0  0  0  0  0
    8.4205   -1.4356   -2.0834 C   0  0  0  0  0  0  0  0  0  0  0  0
    9.5201   -1.3012   -1.2516 C   0  0  0  0  0  0  0  0  0  0  0  0
   10.6051   -0.5217   -1.6565 C   0  0  0  0  0  0  0  0  0  0  0  0
   10.5512    0.2119   -2.8474 C   0  0  0  0  0  0  0  0  0  0  0  0
    7.6278    3.9294   -4.1465 C   0  0  0  0  0  0  0  0  0  0  0  0
    6.4788    4.3461   -3.4452 C   0  0  0  0  0  0  0  0  0  0  0  0
   -0.0249    1.0956   -0.0087 O   0  0  0  0  0  0  0  0  0  0  0  0
  1  2  1  0
  2  3  2  0
  2 25  1  0
  3  4  1  0
  4  5  2  0
  5  6  1  0
  5 25  1  0
  6  7  1  0
  8  7  1  6
  8  9  1  0
  8 10  1  0
 10  9  1  0
 10 11  1  1
 11 12  2  0
 11 24  1  0
 12 13  1  0
 13 14  2  0
 14 15  1  0
 14 23  1  0
 15 16  1  0
 16 17  1  0
 17 18  2  0
 17 22  1  0
 18 19  1  0
 19 20  2  0
 20 21  1  0
 21 22  2  0
 23 24  2  0
M  END
>  <DRUGBANK_ID>  (1) 
DB16446

>  <COMMON_NAME>  (1) 
Vafidemstat

>  <CAS_NUMBER>  (1) 
1357362-02-7

>  <UNII>  (1) 
LZ82JLT4UP

>  <SYNONYMS>  (1) 
Vafidemstat

$$$$
