K2C
     RDKit          3D

 24 29  0  0  0  0  0  0  0  0999 V2000
    1.2108    2.8911    0.0058 C   0  0  0  0  0  0  0  0  0  0  0  0
   -0.0396    3.6262   -0.0021 N   0  0  0  0  0  0  0  0  0  0  0  0
    0.6973    1.5088    0.0010 C   0  0  0  0  0  0  0  0  0  0  0  0
    1.4008    0.2743    0.0001 C   0  0  0  0  0  0  0  0  0  0  0  0
    0.6877   -0.8826   -0.0000 C   0  0  0  0  0  0  0  0  0  0  0  0
    1.6064   -1.8897    0.0011 N   0  0  0  0  0  0  0  0  0  0  0  0
    2.8907   -1.3511    0.0006 C   0  0  0  0  0  0  0  0  0  0  0  0
    2.7804    0.0577    0.0002 C   0  0  0  0  0  0  0  0  0  0  0  0
    3.9707    0.8107   -0.0000 C   0  0  0  0  0  0  0  0  0  0  0  0
    5.2109    0.1510   -0.0008 C   0  0  0  0  0  0  0  0  0  0  0  0
    5.2863   -1.2394   -0.0006 C   0  0  0  0  0  0  0  0  0  0  0  0
    4.1268   -2.0163    0.0007 C   0  0  0  0  0  0  0  0  0  0  0  0
   -2.3043    3.3994   -0.0008 O   0  0  0  0  0  0  0  0  0  0  0  0
   -1.2004    2.8658   -0.0013 C   0  0  0  0  0  0  0  0  0  0  0  0
   -0.7361    1.5045   -0.0007 C   0  0  0  0  0  0  0  0  0  0  0  0
   -1.4133    0.2558   -0.0004 C   0  0  0  0  0  0  0  0  0  0  0  0
   -0.6866   -0.8924   -0.0001 C   0  0  0  0  0  0  0  0  0  0  0  0
   -1.5976   -1.9079    0.0000 N   0  0  0  0  0  0  0  0  0  0  0  0
   -2.8869   -1.3803    0.0000 C   0  0  0  0  0  0  0  0  0  0  0  0
   -2.7887    0.0278    0.0001 C   0  0  0  0  0  0  0  0  0  0  0  0
   -3.9839    0.7709    0.0006 C   0  0  0  0  0  0  0  0  0  0  0  0
   -5.2194    0.1125   -0.0006 C   0  0  0  0  0  0  0  0  0  0  0  0
   -5.2856   -1.2760   -0.0009 C   0  0  0  0  0  0  0  0  0  0  0  0
   -4.1213   -2.0486   -0.0001 C   0  0  0  0  0  0  0  0  0  0  0  0
  1  3  1  0
  2  1  1  0
  3  4  2  0
  4  5  1  0
  4  8  1  0
  5  6  1  0
  6  7  1  0
  7 12  2  0
  8  9  2  0
  8  7  1  0
  9 10  1  0
 10 11  2  0
 12 11  1  0
 13 14  2  0
 14  2  1  0
 14 15  1  0
 15 16  2  0
 15  3  1  0
 16 17  1  0
 17  5  2  0
 18 17  1  0
 19 18  1  0
 20 19  2  0
 20 16  1  0
 21 20  1  0
 22 21  2  0
 22 23  1  0
 23 24  2  0
 24 19  1  0
M  END
>  <DRUGBANK_ID>  (1) 
DB08036

>  <COMMON_NAME>  (1) 
6,7,12,13-tetrahydro-5H-indolo[2,3-a]pyrrolo[3,4-c]carbazol-5-one

>  <UNII>  (1) 
HAJ5XS5HPF

$$$$
