
     RDKit          3D

 22 25  0  0  0  0  0  0  0  0999 V2000
    1.2810   -0.1223    0.7630 C   0  0  0  0  0  0  0  0  0  0  0  0
    1.3506   -0.2613   -0.6328 C   0  0  0  0  0  0  0  0  0  0  0  0
    0.0052   -0.7153    1.3407 C   0  0  1  0  0  0  0  0  0  0  0  0
    0.0448   -0.7653   -1.2561 C   0  0  2  0  0  0  0  0  0  0  0  0
   -1.2113   -0.0352    0.7305 C   0  0  0  0  0  0  0  0  0  0  0  0
   -1.2131   -0.0918   -0.6759 C   0  0  0  0  0  0  0  0  0  0  0  0
    2.3049    0.5287    1.4499 C   0  0  0  0  0  0  0  0  0  0  0  0
    3.3738    1.0684    0.7364 C   0  0  0  0  0  0  0  0  0  0  0  0
    2.5258    0.0883   -1.2970 C   0  0  0  0  0  0  0  0  0  0  0  0
    3.4824    0.8497   -0.6336 C   0  0  0  0  0  0  0  0  0  0  0  0
   -2.2709    0.5655    1.4138 C   0  0  0  0  0  0  0  0  0  0  0  0
   -3.3269    1.1271    0.6983 C   0  0  0  0  0  0  0  0  0  0  0  0
   -2.3313    0.3834   -1.3679 C   0  0  0  0  0  0  0  0  0  0  0  0
   -3.3562    1.0382   -0.6891 C   0  0  0  0  0  0  0  0  0  0  0  0
   -0.0358   -2.0953    0.8302 O   0  0  0  0  0  0  0  0  0  0  0  0
   -0.0496   -2.1234   -0.7261 O   0  0  0  0  0  0  0  0  0  0  0  0
    0.0696   -0.7178   -2.8064 C   0  0  0  0  0  0  0  0  0  0  0  0
    0.0326    0.6963   -3.4627 C   0  0  0  0  0  0  0  0  0  0  0  0
    0.9870    1.7805   -2.9946 C   0  0  0  0  0  0  0  0  0  0  0  0
    2.0052    2.0236   -3.8544 O   0  0  0  0  0  0  0  0  0  0  0  0
   -0.0053   -0.7120    2.8694 C   0  0  0  0  0  0  0  0  0  0  0  0
    0.8537    2.4033   -1.9644 O   0  0  0  0  0  0  0  0  0  0  0  0
  2  1  1  0
  3  1  1  0
  3 15  1  0
  3 21  1  1
  4  2  1  0
  4 16  1  0
  4 17  1  6
  5  3  1  0
  6  4  1  0
  6  5  2  0
  7  1  2  0
  8  7  1  0
  9  2  2  0
 10  8  2  0
 10  9  1  0
 11  5  1  0
 12 11  2  0
 13  6  1  0
 14 12  1  0
 14 13  2  0
 15 16  1  0
 17 18  1  0
 18 19  1  0
 19 20  1  0
 19 22  2  0
M  END
>  <DRUGBANK_ID>  (1) 
DB08332

>  <COMMON_NAME>  (1) 
9-(2-carboxyethyl)-10-methylanthracene endoperoxide

>  <SYNONYMS>  (1) 
[2'-CARBOXYLETHYL]-10-METHYL-ANTHRACENE ENDOPEROXIDE

$$$$
