
     RDKit          3D

 38 43  0  0  0  0  0  0  0  0999 V2000
    1.0006   -0.1763    0.0286 C   0  0  2  0  0  0  0  0  0  0  0  0
    0.6598   -1.6122    0.3955 C   0  0  1  0  0  0  0  0  0  0  0  0
    0.9600   -2.7521   -0.5699 C   0  0  0  0  0  0  0  0  0  0  0  0
    0.4198   -2.4506   -1.8838 C   0  0  1  0  0  0  0  0  0  0  0  0
    0.9680   -1.0996   -2.4280 C   0  0  2  0  0  0  0  0  0  0  0  0
    0.5307    0.0596   -1.4485 C   0  0  0  0  0  0  0  0  0  0  0  0
    0.8076   -3.6616   -2.7334 C   0  0  0  0  0  0  0  0  0  0  0  0
    0.2113   -3.6331   -4.1488 C   0  0  0  0  0  0  0  0  0  0  0  0
    0.6954   -2.3335   -4.8746 C   0  0  2  0  0  0  0  0  0  0  0  0
    0.1882   -1.1517   -3.7168 C   0  0  2  0  0  0  0  0  0  0  0  0
    0.7297   -2.1031   -6.7719 C   0  0  1  0  0  0  0  0  0  0  0  0
    0.1105   -0.8730   -6.4194 C   0  0  2  0  0  0  0  0  0  0  0  0
   -0.5410   -0.2348   -5.3612 C   0  0  0  0  0  0  0  0  0  0  0  0
    0.2512    0.1956   -4.2330 C   0  0  0  0  0  0  0  0  0  0  0  0
    0.8294   -0.5697   -8.1435 C   0  0  0  0  0  0  0  0  0  0  0  0
   -0.5415    0.1789   -8.3902 C   0  0  1  0  0  0  0  0  0  0  0  0
   -0.9499   -1.0309   -7.6500 C   0  0  2  0  0  0  0  0  0  0  0  0
    0.1089   -1.9751    1.6494 O   0  0  0  0  0  0  0  0  0  0  0  0
    2.6073   -0.0012    0.2817 N   0  0  0  0  0  0  0  0  0  0  0  0
    2.4661   -0.8353   -2.8750 C   0  0  0  0  0  0  0  0  0  0  0  0
    2.0030   -0.6384   -6.3056 C   0  0  0  0  0  0  0  0  0  0  0  0
   -0.9630    1.6519   -7.6990 N   0  0  0  0  0  0  0  0  0  0  0  0
   -2.2555   -1.3256   -7.2026 O   0  0  0  0  0  0  0  0  0  0  0  0
   -0.6216    2.8998   -8.5246 C   0  0  0  0  0  0  0  0  0  0  0  0
   -2.8388   -2.5409   -7.3592 C   0  0  0  0  0  0  0  0  0  0  0  0
   -2.0530   -3.7470   -7.7887 C   0  0  0  0  0  0  0  0  0  0  0  0
   -4.0434   -2.6394   -7.1389 O   0  0  0  0  0  0  0  0  0  0  0  0
   -0.3304    2.1929   -6.4028 C   0  0  0  0  0  0  0  0  0  0  0  0
   -0.5559    3.6057   -6.1508 C   0  0  0  0  0  0  0  0  0  0  0  0
   -0.3767    4.0840   -7.5369 C   0  0  0  0  0  0  0  0  0  0  0  0
   -2.5215    1.4843   -7.5849 C   0  0  0  0  0  0  0  0  0  0  0  0
   -3.1336    1.1717   -8.9390 C   0  0  0  0  0  0  0  0  0  0  0  0
   -3.6921    0.0282   -9.3665 C   0  0  0  0  0  0  0  0  0  0  0  0
    3.3764   -1.2992   -0.0551 C   0  0  0  0  0  0  0  0  0  0  0  0
    3.2800   -2.6172    0.8767 C   0  0  0  0  0  0  0  0  0  0  0  0
    3.5801   -2.3091    2.2124 O   0  0  0  0  0  0  0  0  0  0  0  0
    2.9666   -1.0833    2.6759 C   0  0  0  0  0  0  0  0  0  0  0  0
    3.0763    0.1426    1.7070 C   0  0  0  0  0  0  0  0  0  0  0  0
  1  2  1  0
  1  6  1  0
  1 19  1  6
  2  3  1  0
  2 18  1  1
  4  3  1  1
  4  5  1  0
  4  7  1  0
  5  6  1  0
  5 10  1  0
  5 20  1  6
  7  8  1  0
  9  8  1  6
  9 10  1  0
  9 11  1  0
 10 14  1  6
 11 12  1  0
 11 15  1  1
 12 13  1  0
 12 17  1  0
 12 21  1  6
 13 14  1  0
 15 16  1  0
 16 17  1  0
 16 22  1  1
 17 23  1  1
 19 34  1  0
 19 38  1  0
 22 24  1  0
 22 28  1  0
 22 31  1  0
 23 25  1  0
 24 30  1  0
 25 26  1  0
 25 27  2  0
 28 29  1  0
 29 30  1  0
 31 32  1  0
 32 33  2  0
 34 35  1  0
 35 36  1  0
 36 37  1  0
 37 38  1  0
M  CHG  1  22   1
M  END
>  <DRUGBANK_ID>  (1) 
DB00728

>  <SECONDARY_ACCESSION_NUMBERS>  (1) 
APRD01221

>  <COMMON_NAME>  (1) 
Rocuronium

>  <CAS_NUMBER>  (1) 
143558-00-3

>  <UNII>  (1) 
WRE554RFEZ

>  <SYNONYMS>  (1) 
Rocuronio; Rocuronium

$$$$
