PFE
     RDKit          3D

 30 33  0  0  0  0  0  0  0  0999 V2000
    0.9505    0.0605    0.0619 O   0  0  0  0  0  0  0  0  0  0  0  0
    0.4560   -1.2686    0.1834 C   0  0  0  0  0  0  0  0  0  0  0  0
    0.8870   -2.1286   -0.9612 C   0  0  0  0  0  0  0  0  0  0  0  0
    1.5949   -1.4859   -2.3954 S   0  0  0  0  0  0  0  0  0  0  0  0
    1.6123   -3.0515   -3.0717 C   0  0  0  0  0  0  0  0  0  0  0  0
    0.7029   -3.4331   -0.9543 N   0  0  0  0  0  0  0  0  0  0  0  0
    1.1001   -3.9514   -2.1564 C   0  0  0  0  0  0  0  0  0  0  0  0
    0.9049   -5.3330   -2.5050 C   0  0  0  0  0  0  0  0  0  0  0  0
   -0.3790   -5.9123   -2.4343 C   0  0  0  0  0  0  0  0  0  0  0  0
    1.9909   -6.0260   -3.0430 C   0  0  0  0  0  0  0  0  0  0  0  0
    1.7462   -7.1648   -3.7669 C   0  0  0  0  0  0  0  0  0  0  0  0
    0.4570   -7.6812   -3.7878 C   0  0  0  0  0  0  0  0  0  0  0  0
   -0.6025   -7.1517   -3.0285 C   0  0  0  0  0  0  0  0  0  0  0  0
   -1.7893   -7.9117   -2.7670 N   0  0  0  0  0  0  0  0  0  0  0  0
   -2.1338   -9.0574   -3.5430 C   0  0  0  0  0  0  0  0  0  0  0  0
   -3.1441   -8.8663   -4.4074 N   0  0  0  0  0  0  0  0  0  0  0  0
   -3.1763   -9.7122   -5.4382 C   0  0  0  0  0  0  0  0  0  0  0  0
   -1.2622  -10.1749   -3.6133 C   0  0  0  0  0  0  0  0  0  0  0  0
   -0.2186  -10.4236   -2.6726 C   0  0  0  0  0  0  0  0  0  0  0  0
    0.8758  -11.2244   -2.9944 C   0  0  0  0  0  0  0  0  0  0  0  0
    1.9930  -11.3059   -2.2137 O   0  0  0  0  0  0  0  0  0  0  0  0
    2.2651  -10.4387   -1.1123 C   0  0  0  0  0  0  0  0  0  0  0  0
    2.4793   -8.9918   -1.4808 C   0  0  0  0  0  0  0  0  0  0  0  0
   -1.3467  -10.9323   -4.7691 C   0  0  0  0  0  0  0  0  0  0  0  0
   -2.3204  -10.7225   -5.6798 N   0  0  0  0  0  0  0  0  0  0  0  0
   -0.3093  -11.8401   -5.0265 C   0  0  0  0  0  0  0  0  0  0  0  0
    0.8459  -11.9218   -4.2089 C   0  0  0  0  0  0  0  0  0  0  0  0
    1.8685  -12.6542   -4.7739 O   0  0  0  0  0  0  0  0  0  0  0  0
    3.1628  -12.6634   -4.1554 C   0  0  0  0  0  0  0  0  0  0  0  0
    3.9048  -11.3309   -4.2733 C   0  0  0  0  0  0  0  0  0  0  0  0
  1  2  1  0
  2  3  1  0
  3  4  1  0
  3  6  2  0
  4  5  1  0
  5  7  2  0
  6  7  1  0
  7  8  1  0
  8  9  2  0
  8 10  1  0
  9 13  1  0
 10 11  2  0
 11 12  1  0
 12 13  2  0
 13 14  1  0
 14 15  1  0
 15 16  2  0
 15 18  1  0
 16 17  1  0
 17 25  2  0
 18 19  2  0
 18 24  1  0
 19 20  1  0
 20 21  1  0
 20 27  2  0
 21 22  1  0
 22 23  1  0
 24 25  1  0
 24 26  2  0
 26 27  1  0
 27 28  1  0
 28 29  1  0
 29 30  1  0
M  END
>  <DRUGBANK_ID>  (1) 
DB02848

>  <SECONDARY_ACCESSION_NUMBERS>  (1) 
EXPT02557

>  <COMMON_NAME>  (1) 
{4-[3-(6,7-Diethoxy-Quinazolin-4-Ylamino)-Phenyl]-Thiazol-2-Yl}-Methanol

$$$$
