
     RDKit          3D

 21 22  0  0  0  0  0  0  0  0999 V2000
   -1.1128    0.5543    0.1803 N   0  0  0  0  0  0  0  0  0  0  0  0
   -1.9001   -1.9511    0.2931 C   0  0  0  0  0  0  0  0  0  0  0  0
   -1.5808   -2.9530    0.9246 O   0  0  0  0  0  0  0  0  0  0  0  0
   -0.9480   -0.8616   -0.2437 C   0  0  2  0  0  0  0  0  0  0  0  0
    0.1611    1.2640    0.0547 C   0  0  0  0  0  0  0  0  0  0  0  0
    1.2323    0.1753   -0.0842 C   0  0  2  0  0  0  0  0  0  0  0  0
    0.5000   -1.1403    0.1854 C   0  0  0  0  0  0  0  0  0  0  0  0
   -3.1752   -1.7710   -0.1081 O   0  0  0  0  0  0  0  0  0  0  0  0
   -2.3038    1.0828    0.6296 C   0  0  0  0  0  0  0  0  0  0  0  0
   -2.4271    2.5593    0.9819 C   0  0  1  0  0  0  0  0  0  0  0  0
   -3.2950    0.3781    0.8303 O   0  0  0  0  0  0  0  0  0  0  0  0
   -3.4818    3.2269    0.0766 C   0  0  0  0  0  0  0  0  0  0  0  0
   -2.8096    2.6638    2.4631 C   0  0  0  0  0  0  0  0  0  0  0  0
   -5.2111    2.6274    0.1835 S   0  0  0  0  0  0  0  0  0  0  0  0
    2.7669    0.5119    0.8758 S   0  0  0  0  0  0  0  0  0  0  0  0
    2.2366    0.6094    2.5822 C   0  0  0  0  0  0  0  0  0  0  0  0
    1.7070   -0.4989    3.2467 C   0  0  0  0  0  0  0  0  0  0  0  0
    2.5247    1.7538    3.3353 C   0  0  0  0  0  0  0  0  0  0  0  0
    1.3852   -0.4529    4.6019 C   0  0  0  0  0  0  0  0  0  0  0  0
    2.2992    1.7669    4.7184 C   0  0  0  0  0  0  0  0  0  0  0  0
    1.6943    0.6781    5.3435 C   0  0  0  0  0  0  0  0  0  0  0  0
  1  5  1  0
  1  9  1  0
  2  3  2  0
  4  1  1  0
  4  7  1  0
  4  2  1  1
  5  6  1  0
  6  7  1  0
  6 15  1  1
  8  2  1  0
  9 10  1  0
  9 11  2  0
 10 12  1  0
 10 13  1  1
 12 14  1  0
 15 16  1  0
 17 16  2  0
 18 16  1  0
 19 17  1  0
 20 18  2  0
 21 19  2  0
 21 20  1  0
M  END
>  <DRUGBANK_ID>  (1) 
DB08766

>  <COMMON_NAME>  (1) 
Zofenoprilat

>  <CAS_NUMBER>  (1) 
75176-37-3

>  <UNII>  (1) 
4G4WDK2YBS

>  <SYNONYMS>  (1) 
Zofenoprilat

$$$$
