
     RDKit          3D

 27 30  0  0  1  0  0  0  0  0999 V2000
   -2.4373    0.3301   -1.3693 C   0  0  0  0  0  0  0  0  0  0  0  0
   -3.1725   -0.5222   -0.4893 O   0  0  0  0  0  0  0  0  0  0  0  0
   -2.3018   -1.3284    0.3087 C   0  0  0  0  0  0  0  0  0  0  0  0
   -1.4823   -2.3744   -0.4641 C   0  0  0  0  0  0  0  0  0  0  0  0
   -0.6191   -1.7937   -1.4186 O   0  0  0  0  0  0  0  0  0  0  0  0
    0.6143   -1.1130   -1.0812 C   0  0  1  0  0  0  0  0  0  0  0  0
    0.8349   -0.2998   -2.3884 C   0  0  2  0  0  0  0  0  0  0  0  0
    1.1023   -1.1603   -3.5053 O   0  0  0  0  0  0  0  0  0  0  0  0
    1.8865    0.7952   -2.1676 C   0  0  2  0  0  0  0  0  0  0  0  0
    1.3253    1.6701   -1.1479 N   0  0  0  0  0  0  0  0  0  0  0  0
    0.9194    1.1449    0.0693 C   0  0  0  0  0  0  0  0  0  0  0  0
    0.6619   -0.1956    0.1731 C   0  0  0  0  0  0  0  0  0  0  0  0
    0.3537   -0.7862    1.4771 C   0  0  0  0  0  0  0  0  0  0  0  0
   -0.0369    0.0320    2.4819 C   0  0  0  0  0  0  0  0  0  0  0  0
    0.1548    1.3929    2.3563 N   0  0  0  0  0  0  0  0  0  0  0  0
   -0.0296    2.3764    3.3031 C   0  0  0  0  0  0  0  0  0  0  0  0
   -0.5428    2.1519    4.6758 C   0  0  0  0  0  0  0  0  0  0  0  0
    0.4790    3.5249    2.7292 C   0  0  0  0  0  0  0  0  0  0  0  0
    0.6559    4.8394    3.3918 C   0  0  0  0  0  0  0  0  0  0  0  0
    0.8826    3.2900    1.4285 N   0  0  0  0  0  0  0  0  0  0  0  0
    0.6920    1.9973    1.2229 C   0  0  0  0  0  0  0  0  0  0  0  0
    2.1444    1.5263   -3.4649 C   0  0  0  0  0  0  0  0  0  0  0  0
    1.1248    2.2488   -4.1018 C   0  0  0  0  0  0  0  0  0  0  0  0
    1.3367    2.8091   -5.3568 C   0  0  0  0  0  0  0  0  0  0  0  0
    2.5154    2.5347   -6.0454 C   0  0  0  0  0  0  0  0  0  0  0  0
    3.5071    1.7569   -5.4522 C   0  0  0  0  0  0  0  0  0  0  0  0
    3.3649    1.3411   -4.1308 C   0  0  0  0  0  0  0  0  0  0  0  0
  1  2  1  0
  2  3  1  0
  3  4  1  0
  4  5  1  0
  6 12  1  0
  6  5  1  6
  7  6  1  0
  7  9  1  0
  7  8  1  6
  9 10  1  0
  9 22  1  6
 10 11  1  0
 11 12  2  0
 11 21  1  0
 12 13  1  0
 13 14  2  0
 14 15  1  0
 15 16  1  0
 15 21  1  0
 16 17  1  0
 16 18  2  0
 18 19  1  0
 18 20  1  0
 20 21  2  0
 22 23  2  0
 22 27  1  0
 23 24  1  0
 24 25  2  0
 25 26  1  0
 26 27  2  0
M  END
>  <DRUGBANK_ID>  (1) 
DB17856

>  <COMMON_NAME>  (1) 
Soraprazan

>  <CAS_NUMBER>  (1) 
261944-46-1

>  <UNII>  (1) 
5XB3671655

>  <SYNONYMS>  (1) 
(7r,8r,9r)-7-(2-methoxyethoxy)-2,3-dimethyl-9-phenyl-7,8,9,10-tetrahydroimidazo(1,2-h)(1,7)naphtyridin-8-ol; Soraprazan

$$$$
