
     RDKit          3D

 13 15  0  0  0  0  0  0  0  0999 V2000
    0.0018    1.6212    0.0066 N   0  0  0  0  0  0  0  0  0  0  0  0
    1.1355    0.8401    0.0129 C   0  0  0  0  0  0  0  0  0  0  0  0
   -0.7139   -0.4868    0.0158 C   0  0  0  0  0  0  0  0  0  0  0  0
   -1.1332    0.8420   -0.0001 C   0  0  0  0  0  0  0  0  0  0  0  0
    0.7140   -0.4879    0.0052 C   0  0  0  0  0  0  0  0  0  0  0  0
   -1.6860   -1.5067    0.0283 C   0  0  0  0  0  0  0  0  0  0  0  0
   -3.0403   -1.1636    0.0049 C   0  0  0  0  0  0  0  0  0  0  0  0
   -3.4312    0.1731   -0.0227 C   0  0  0  0  0  0  0  0  0  0  0  0
   -2.4855    1.2049   -0.0202 C   0  0  0  0  0  0  0  0  0  0  0  0
    1.6843   -1.5094   -0.0150 C   0  0  0  0  0  0  0  0  0  0  0  0
    2.4884    1.2010    0.0208 C   0  0  0  0  0  0  0  0  0  0  0  0
    3.4325    0.1681    0.0013 C   0  0  0  0  0  0  0  0  0  0  0  0
    3.0393   -1.1681   -0.0242 C   0  0  0  0  0  0  0  0  0  0  0  0
  1  2  1  0
  1  4  1  0
  2 11  2  0
  3  5  1  0
  4  3  2  0
  5  2  1  0
  6  3  1  0
  6  7  2  0
  7  8  1  0
  8  9  2  0
  9  4  1  0
 10  5  2  0
 10 13  1  0
 11 12  1  0
 12 13  2  0
M  END
>  <DRUGBANK_ID>  (1) 
DB07301

>  <COMMON_NAME>  (1) 
Carbazole

>  <CAS_NUMBER>  (1) 
86-74-8

>  <UNII>  (1) 
0P2197HHHN

>  <SYNONYMS>  (1) 
9-Azafluorene; 9H-Carbazole; Dibenzopyrrole; Diphenylenimide

$$$$
