
     RDKit          3D

 33 35  0  0  1  0  0  0  0  0999 V2000
    0.9838    0.5539    2.3460 C   0  0  0  0  0  0  0  0  0  0  0  0
    0.5760   -0.4162    1.2165 C   0  0  2  0  0  0  0  0  0  0  0  0
    1.1056    0.0732   -0.0854 C   0  0  0  0  0  0  0  0  0  0  0  0
    0.6421    1.2916   -0.6040 C   0  0  0  0  0  0  0  0  0  0  0  0
    1.0107    1.6686   -1.8776 C   0  0  0  0  0  0  0  0  0  0  0  0
    1.9119    0.8760   -2.6018 C   0  0  0  0  0  0  0  0  0  0  0  0
    2.3378   -0.3588   -2.0884 C   0  0  0  0  0  0  0  0  0  0  0  0
    1.9340   -0.7478   -0.8346 C   0  0  0  0  0  0  0  0  0  0  0  0
    2.3460   -1.9265   -0.3485 F   0  0  0  0  0  0  0  0  0  0  0  0
    2.4944    1.3634   -3.8468 C   0  0  0  0  0  0  0  0  0  0  0  0
    2.1779    0.6228   -5.0096 C   0  0  0  0  0  0  0  0  0  0  0  0
    2.7508    0.9351   -6.2275 C   0  0  0  0  0  0  0  0  0  0  0  0
    3.6485    1.9911   -6.2929 C   0  0  0  0  0  0  0  0  0  0  0  0
    3.9759    2.7549   -5.1548 C   0  0  0  0  0  0  0  0  0  0  0  0
    3.3989    2.4703   -3.9021 C   0  0  0  0  0  0  0  0  0  0  0  0
    3.7101    3.2476   -2.6262 C   0  0  0  0  0  0  0  0  0  0  0  0
    3.2743    2.9910   -1.5182 O   0  0  0  0  0  0  0  0  0  0  0  0
    4.5293    4.3077   -2.8217 O   0  0  0  0  0  0  0  0  0  0  0  0
    4.8029    5.0605   -1.6342 C   0  0  0  0  0  0  0  0  0  0  0  0
    5.1441    3.9951   -5.4654 Cl  0  0  0  0  0  0  0  0  0  0  0  0
   -0.8583   -0.6299    0.9174 N   0  0  0  0  0  0  0  0  0  0  0  0
   -1.6067   -1.7648    0.9602 C   0  0  0  0  0  0  0  0  0  0  0  0
   -2.7660   -1.8897    0.5595 O   0  0  0  0  0  0  0  0  0  0  0  0
   -0.9907   -2.8078    1.7783 C   0  0  0  0  0  0  0  0  0  0  0  0
    0.0726   -3.4642    0.8723 C   0  0  0  0  0  0  0  0  0  0  0  0
   -1.0085   -4.3003    1.4357 C   0  0  0  0  0  0  0  0  0  0  0  0
   -0.9550   -2.3946    3.1857 N   0  0  0  0  0  0  0  0  0  0  0  0
   -1.6268   -1.3152    3.8207 C   0  0  0  0  0  0  0  0  0  0  0  0
   -1.4844   -1.2917    5.0591 O   0  0  0  0  0  0  0  0  0  0  0  0
   -2.5198   -0.1408    3.1435 C   0  0  0  0  0  0  0  0  0  0  0  0
   -1.8626    0.7326    2.3212 F   0  0  0  0  0  0  0  0  0  0  0  0
   -3.5993   -0.5842    2.4476 F   0  0  0  0  0  0  0  0  0  0  0  0
   -3.0402    0.7083    4.0846 F   0  0  0  0  0  0  0  0  0  0  0  0
  2 21  1  0
  2  3  1  0
  2  1  1  1
  3  4  2  0
  3  8  1  0
  4  5  1  0
  5  6  2  0
  6  7  1  0
  6 10  1  0
  7  8  2  0
  8  9  1  0
 10 11  2  0
 10 15  1  0
 11 12  1  0
 12 13  2  0
 13 14  1  0
 14 15  2  0
 14 20  1  0
 15 16  1  0
 16 17  2  0
 16 18  1  0
 18 19  1  0
 21 22  1  0
 22 23  2  0
 22 24  1  0
 24 25  1  0
 24 26  1  0
 24 27  1  0
 25 26  1  0
 27 28  1  0
 28 29  2  0
 28 30  1  0
 30 31  1  0
 30 32  1  0
 30 33  1  0
M  END
>  <DRUGBANK_ID>  (1) 
DB12563

>  <COMMON_NAME>  (1) 
MK-0686

>  <CAS_NUMBER>  (1) 
578727-68-1

>  <UNII>  (1) 
M310323W0U

$$$$
