EG3
     RDKit          3D

 33 34  0  0  0  0  0  0  0  0999 V2000
    0.9424    0.1831    0.0593 S   0  0  0  0  0  0  0  0  0  0  0  0
    0.5030    0.6672    1.3784 O   0  0  0  0  0  0  0  0  0  0  0  0
    0.5192    0.7651   -1.1644 O   0  0  0  0  0  0  0  0  0  0  0  0
    0.4762   -1.4493    0.0170 N   0  0  0  0  0  0  0  0  0  0  0  0
    5.4898    0.1035   -0.2268 C   0  0  0  0  0  0  0  0  0  0  0  0
    4.7006   -1.0365   -0.2499 C   0  0  0  0  0  0  0  0  0  0  0  0
    3.3462   -1.0455   -0.0193 C   0  0  0  0  0  0  0  0  0  0  0  0
    2.7029    0.1620    0.0817 C   0  0  0  0  0  0  0  0  0  0  0  0
    3.4391    1.3580    0.0412 C   0  0  0  0  0  0  0  0  0  0  0  0
    4.8330    1.3337   -0.1550 C   0  0  0  0  0  0  0  0  0  0  0  0
    6.9698    0.0164   -0.1873 C   0  0  0  0  0  0  0  0  0  0  0  0
    7.6405    1.0504   -0.2450 O   0  0  0  0  0  0  0  0  0  0  0  0
    7.6416   -1.1677    0.0365 N   0  0  0  0  0  0  0  0  0  0  0  0
    7.3500   -2.6359    0.1542 C   0  0  0  0  0  0  0  0  0  0  0  0
    7.8024   -3.6353   -0.9241 C   0  0  0  0  0  0  0  0  0  0  0  0
    9.1189   -3.5597   -1.4008 O   0  0  0  0  0  0  0  0  0  0  0  0
    9.7705   -2.3186   -1.4893 C   0  0  0  0  0  0  0  0  0  0  0  0
    9.2903   -1.3769   -2.6026 C   0  0  0  0  0  0  0  0  0  0  0  0
    7.9148   -1.0766   -2.6715 O   0  0  0  0  0  0  0  0  0  0  0  0
    6.9674   -2.0634   -2.9643 C   0  0  0  0  0  0  0  0  0  0  0  0
    7.3556   -3.1714   -3.9761 C   0  0  0  0  0  0  0  0  0  0  0  0
    8.7284   -3.7698   -3.9850 N   0  0  0  0  0  0  0  0  0  0  0  0
    9.2230   -5.0363   -3.8228 C   0  0  0  0  0  0  0  0  0  0  0  0
   10.4496   -5.1895   -3.7854 O   0  0  0  0  0  0  0  0  0  0  0  0
    8.2715   -6.2282   -3.8068 C   0  0  1  0  0  0  0  0  0  0  0  0
    7.4435   -6.2070   -2.5910 N   0  0  0  0  0  0  0  0  0  0  0  0
    7.4103   -6.2101   -5.0752 C   0  0  0  0  0  0  0  0  0  0  0  0
    8.2616   -6.2828   -6.3113 C   0  0  0  0  0  0  0  0  0  0  0  0
    8.8063   -5.1157   -6.8739 C   0  0  0  0  0  0  0  0  0  0  0  0
    9.7250   -5.1939   -7.9100 C   0  0  0  0  0  0  0  0  0  0  0  0
   10.0997   -6.4425   -8.3914 C   0  0  0  0  0  0  0  0  0  0  0  0
    9.5824   -7.6047   -7.8171 C   0  0  0  0  0  0  0  0  0  0  0  0
    8.6213   -7.5270   -6.8174 C   0  0  0  0  0  0  0  0  0  0  0  0
  1  2  2  0
  1  3  2  0
  1  4  1  0
  1  8  1  0
  5  6  2  0
  5 10  1  0
  5 11  1  0
  6  7  1  0
  7  8  2  0
  8  9  1  0
  9 10  2  0
 11 12  2  0
 11 13  1  0
 13 14  1  0
 14 15  1  0
 15 16  1  0
 16 17  1  0
 17 18  1  0
 18 19  1  0
 19 20  1  0
 20 21  1  0
 21 22  1  0
 22 23  1  0
 23 24  2  0
 23 25  1  0
 25 26  1  1
 25 27  1  0
 27 28  1  0
 28 29  2  0
 28 33  1  0
 29 30  1  0
 30 31  2  0
 31 32  1  0
 32 33  2  0
M  END
>  <DRUGBANK_ID>  (1) 
DB07710

>  <COMMON_NAME>  (1) 
PHENYLALANYLAMINODI(ETHYLOXY)ETHYL BENZENESULFONAMIDEAMINOCARBONYLBENZENESULFONAMIDE

$$$$
