
     RDKit          3D

 13 13  0  0  1  0  0  0  0  0999 V2000
    0.9177   -0.1250    0.0382 C   0  0  0  0  0  0  0  0  0  0  0  0
   -0.0392    2.3605   -4.3788 C   0  0  0  0  0  0  0  0  0  0  0  0
    0.9176    2.5656   -3.1829 C   0  0  2  0  0  0  0  0  0  0  0  0
    2.8785    1.0580   -3.7943 C   0  0  2  0  0  0  0  0  0  0  0  0
    2.4742    0.1361   -2.6365 C   0  0  2  0  0  0  0  0  0  0  0  0
    2.4215    2.5127   -3.5423 C   0  0  2  0  0  0  0  0  0  0  0  0
    0.9635    0.2952   -2.3300 C   0  0  1  0  0  0  0  0  0  0  0  0
    0.5813    2.6347   -5.6267 O   0  0  0  0  0  0  0  0  0  0  0  0
    2.4220    0.5239   -5.0398 O   0  0  0  0  0  0  0  0  0  0  0  0
    3.2923    0.4783   -1.5085 O   0  0  0  0  0  0  0  0  0  0  0  0
    0.5123   -0.5377   -1.2575 O   0  0  0  0  0  0  0  0  0  0  0  0
    0.5977    1.6648   -2.1068 O   0  0  0  0  0  0  0  0  0  0  0  0
    3.3796    3.3586   -2.1887 S   0  0  0  0  0  0  0  0  0  0  0  0
  3  2  1  6
  4  9  1  6
  5  4  1  0
  5 10  1  1
  6  3  1  0
  6  4  1  0
  6 13  1  1
  7  5  1  0
  7 11  1  1
  8  2  1  0
 11  1  1  0
 12  3  1  0
 12  7  1  0
M  END
>  <DRUGBANK_ID>  (1) 
DB03406

>  <SECONDARY_ACCESSION_NUMBERS>  (1) 
EXPT02101

>  <COMMON_NAME>  (1) 
O1-Methyl-4-Deoxy-4-Thio-Alpha-D-Glucose

$$$$
