379
     RDKit          3D

 13 13  0  0  1  0  0  0  0  0999 V2000
    1.2005    0.0061   -0.0107 O   0  0  0  0  0  0  0  0  0  0  0  0
    1.8252    2.0145    2.2591 N   0  0  0  0  0  0  0  0  0  0  0  0
    0.5328    1.9063    1.5503 C   0  0  0  0  0  0  0  0  0  0  0  0
    0.4094    1.1739    0.1650 C   0  0  0  0  0  0  0  0  0  0  0  0
    2.5517    0.1201   -0.1972 C   0  0  0  0  0  0  0  0  0  0  0  0
    3.3038    1.3171   -0.3486 C   0  0  0  0  0  0  0  0  0  0  0  0
    3.2310   -1.1292   -0.1088 C   0  0  0  0  0  0  0  0  0  0  0  0
   -0.1032    3.2998    1.3982 C   0  0  0  0  0  0  0  0  0  0  0  0
    4.6946    1.2401   -0.2222 C   0  0  0  0  0  0  0  0  0  0  0  0
    4.6253   -1.1568   -0.0729 C   0  0  0  0  0  0  0  0  0  0  0  0
    5.3575    0.0242   -0.0896 C   0  0  0  0  0  0  0  0  0  0  0  0
    2.7854    2.7096   -0.6203 C   0  0  0  0  0  0  0  0  0  0  0  0
    2.4975   -2.4502   -0.0270 C   0  0  0  0  0  0  0  0  0  0  0  0
  1  4  1  0
  1  5  1  0
  2  3  1  0
  3  4  1  0
  3  8  1  0
  5  6  2  0
  5  7  1  0
  6  9  1  0
  6 12  1  0
  7 10  2  0
  7 13  1  0
  9 11  2  0
 10 11  1  0
M  END
>  <DRUGBANK_ID>  (1) 
DB00379

>  <SECONDARY_ACCESSION_NUMBERS>  (1) 
APRD00242

>  <COMMON_NAME>  (1) 
Mexiletine

>  <CAS_NUMBER>  (1) 
31828-71-4

>  <UNII>  (1) 
1U511HHV4Z

>  <SYNONYMS>  (1) 
(±)-1-(2,6-dimethylphenoxy)propan-2-amine; (2RS)-1-(2,6-dimethylphenoxy)-2-aminopropane; 1-(2,6-dimethylphenoxy)-2-propanamine; 1-(2',6'-dimethylphenoxy)-2-aminopropane; 1-methyl-2-(2,6-xylyloxy)ethanamine; Mexiletina; Mexiletine; Mexilétine; Mexiletinum

$$$$
