
     RDKit          3D

 14 13  0  0  0  0  0  0  0  0999 V2000
    1.1086   -0.2091    0.1192 C   0  0  0  0  0  0  0  0  0  0  0  0
    0.6096    0.3762   -1.2381 C   0  0  0  0  0  0  0  0  0  0  0  0
    1.0923   -0.3831   -2.4793 C   0  0  0  0  0  0  0  0  0  0  0  0
    0.5602   -1.7811   -2.3762 C   0  0  0  0  0  0  0  0  0  0  0  0
   -0.9610   -1.8569   -2.2513 C   0  0  0  0  0  0  0  0  0  0  0  0
   -1.5331   -1.4422   -3.5853 C   0  0  0  0  0  0  0  0  0  0  0  0
   -1.0190   -2.4116   -4.6483 C   0  0  0  0  0  0  0  0  0  0  0  0
   -1.5066   -3.8380   -4.3618 C   0  0  0  0  0  0  0  0  0  0  0  0
   -3.0328   -3.8874   -4.3219 C   0  0  0  0  0  0  0  0  0  0  0  0
   -3.5971   -3.3930   -5.6435 C   0  0  0  0  0  0  0  0  0  0  0  0
    0.4831   -1.8132    0.8858 S   0  0  0  0  0  0  0  0  0  0  0  0
    1.0007   -1.9154    2.2206 O   0  0  0  0  0  0  0  0  0  0  0  0
   -0.9414   -1.9787    0.6391 O   0  0  0  0  0  0  0  0  0  0  0  0
    1.2104   -3.0366    0.0973 O   0  0  0  0  0  0  0  0  0  0  0  0
  1  2  1  0
  1 11  1  0
  2  3  1  0
  3  4  1  0
  4  5  1  0
  5  6  1  0
  6  7  1  0
  7  8  1  0
  8  9  1  0
  9 10  1  0
 11 12  2  0
 11 13  2  0
 11 14  1  0
M  END
>  <DRUGBANK_ID>  (1) 
DB06893

>  <COMMON_NAME>  (1) 
Decylsulfonic acid

>  <CAS_NUMBER>  (1) 
20283-21-0

>  <UNII>  (1) 
VUY16B7Z2D

>  <SYNONYMS>  (1) 
Decane-1-sulfonic acid

$$$$
