
     RDKit          3D

 33 36  0  0  0  0  0  0  0  0999 V2000
    1.1805   -0.0452   -0.0266 C   0  0  0  0  0  0  0  0  0  0  0  0
    0.8365   -1.4276    0.0106 O   0  0  0  0  0  0  0  0  0  0  0  0
    0.9946   -2.0591   -1.1916 C   0  0  0  0  0  0  0  0  0  0  0  0
    2.2794   -2.1693   -1.7182 C   0  0  0  0  0  0  0  0  0  0  0  0
    2.4873   -2.8935   -2.8782 C   0  0  0  0  0  0  0  0  0  0  0  0
    1.4025   -3.5205   -3.4722 C   0  0  0  0  0  0  0  0  0  0  0  0
    1.6249   -4.2398   -4.7753 C   0  0  0  0  0  0  0  0  0  0  0  0
    1.2125   -5.6273   -4.7753 N   0  0  0  0  0  0  0  0  0  0  0  0
    0.2645   -6.2286   -5.5608 C   0  0  0  0  0  0  0  0  0  0  0  0
    0.0256   -7.4244   -5.4097 O   0  0  0  0  0  0  0  0  0  0  0  0
   -0.4834   -5.4152   -6.5492 C   0  0  0  0  0  0  0  0  0  0  0  0
    0.1998   -4.6281   -7.4845 C   0  0  0  0  0  0  0  0  0  0  0  0
   -0.4953   -3.7449   -8.3175 C   0  0  0  0  0  0  0  0  0  0  0  0
   -1.8825   -3.7656   -8.2226 C   0  0  0  0  0  0  0  0  0  0  0  0
   -2.5808   -4.5582   -7.3722 N   0  0  0  0  0  0  0  0  0  0  0  0
   -1.8780   -5.3806   -6.5349 C   0  0  0  0  0  0  0  0  0  0  0  0
   -2.6645   -6.2140   -5.6121 C   0  0  0  0  0  0  0  0  0  0  0  0
   -3.4103   -7.1953   -6.1864 N   0  0  0  0  0  0  0  0  0  0  0  0
   -3.9640   -8.1084   -5.3614 C   0  0  0  0  0  0  0  0  0  0  0  0
   -3.8218   -8.0948   -3.9835 C   0  0  0  0  0  0  0  0  0  0  0  0
   -3.0894   -7.0661   -3.4067 C   0  0  0  0  0  0  0  0  0  0  0  0
   -2.5170   -6.1008   -4.2267 C   0  0  0  0  0  0  0  0  0  0  0  0
    0.2289   -2.8626   -9.2315 C   0  0  0  0  0  0  0  0  0  0  0  0
    0.1705   -1.4688   -9.1458 C   0  0  0  0  0  0  0  0  0  0  0  0
    0.8789   -0.6233   -9.9360 N   0  0  0  0  0  0  0  0  0  0  0  0
    1.6856   -1.1919  -10.8645 C   0  0  0  0  0  0  0  0  0  0  0  0
    1.8111   -2.5599  -11.0360 C   0  0  0  0  0  0  0  0  0  0  0  0
    2.8641   -3.2157  -12.2202 Cl  0  0  0  0  0  0  0  0  0  0  0  0
    1.0722   -3.4004  -10.2124 C   0  0  0  0  0  0  0  0  0  0  0  0
    0.1368   -3.4262   -2.9831 N   0  0  0  0  0  0  0  0  0  0  0  0
   -0.0599   -2.7128   -1.8415 C   0  0  0  0  0  0  0  0  0  0  0  0
   -1.3732   -2.7202   -1.4493 O   0  0  0  0  0  0  0  0  0  0  0  0
   -1.6947   -2.0459   -0.2395 C   0  0  0  0  0  0  0  0  0  0  0  0
  1  2  1  0
  2  3  1  0
  3  4  2  0
  3 31  1  0
  4  5  1  0
  5  6  2  0
  6  7  1  0
  6 30  1  0
  7  8  1  0
  8  9  1  0
  9 10  2  0
  9 11  1  0
 11 12  2  0
 11 16  1  0
 12 13  1  0
 13 14  2  0
 13 23  1  0
 14 15  1  0
 15 16  2  0
 16 17  1  0
 17 18  2  0
 17 22  1  0
 18 19  1  0
 19 20  2  0
 20 21  1  0
 21 22  2  0
 23 24  2  0
 23 29  1  0
 24 25  1  0
 25 26  2  0
 26 27  1  0
 27 28  1  0
 27 29  2  0
 30 31  2  0
 31 32  1  0
 32 33  1  0
M  END
>  <DRUGBANK_ID>  (1) 
DB15028

>  <COMMON_NAME>  (1) 
MK-1064

>  <CAS_NUMBER>  (1) 
1207253-08-4

>  <UNII>  (1) 
O812716S9E

$$$$
