
     RDKit          3D

  9  8  0  0  0  0  0  0  0  0999 V2000
    0.9387    0.0796    0.3298 C   0  0  0  0  0  0  0  0  0  0  0  0
    0.5704   -0.3610    1.7395 C   0  0  0  0  0  0  0  0  0  0  0  0
    0.5169    1.4580   -0.1667 C   0  0  0  0  0  0  0  0  0  0  0  0
    0.2270   -0.9325   -0.3684 O   0  0  0  0  0  0  0  0  0  0  0  0
   -0.2572    0.4664    2.4147 O   0  0  0  0  0  0  0  0  0  0  0  0
    0.8965   -1.4405    2.1945 O   0  0  0  0  0  0  0  0  0  0  0  0
    1.0367    1.7945   -1.5717 C   0  0  0  0  0  0  0  0  0  0  0  0
    0.3092    0.8087   -2.9499 S   0  0  0  0  0  0  0  0  0  0  0  0
    1.1568   -0.8196   -2.8841 C   0  0  0  0  0  0  0  0  0  0  0  0
  1  2  1  0
  1  3  1  0
  1  4  1  0
  2  5  1  0
  2  6  2  0
  3  7  1  0
  7  8  1  0
  8  9  1  0
M  END
>  <DRUGBANK_ID>  (1) 
DB15832

>  <COMMON_NAME>  (1) 
Desmeninol

>  <CAS_NUMBER>  (1) 
583-91-5

>  <UNII>  (1) 
Z94465H1Y7

>  <SYNONYMS>  (1) 
2-Hydroxy-4-(methylthio) butanoic acid; 2-Hydroxy-4-(methylthio)butanoic acid; alpha-Hydroxy-gamma-(methylmercapto)butyric acid; alpha-Hydroxy-gamma-(methylthio)butyric acid; Desmeninol; DL-2-hydroxy-4-(methylthio)-butyric acid; Methionine hydroxy analog

$$$$
