
     RDKit          3D

 20 19  0  0  1  0  0  0  0  0999 V2000
   -2.1849   -3.8200   -1.3904 O   0  0  0  0  0  0  0  0  0  0  0  0
   -2.0222   -3.7755   -2.8076 C   0  0  2  0  0  0  0  0  0  0  0  0
   -3.3553   -3.9124   -3.6104 C   0  0  0  0  0  0  0  0  0  0  0  0
   -3.2011   -3.9926   -5.0889 O   0  0  0  0  0  0  0  0  0  0  0  0
   -2.5710   -2.5998   -5.8988 P   0  0  0  0  0  0  0  0  0  0  0  0
   -3.7508   -1.7614   -5.1609 O   0  0  0  0  0  0  0  0  0  0  0  0
   -1.4800   -2.7358   -4.8092 O   0  0  0  0  0  0  0  0  0  0  0  0
   -2.0070   -1.3532   -6.6237 O   0  0  0  0  0  0  0  0  0  0  0  0
   -0.8705   -4.7313   -3.3668 C   0  0  1  0  0  0  0  0  0  0  0  0
   -0.9450   -5.0296   -4.7907 O   0  0  0  0  0  0  0  0  0  0  0  0
    0.5555   -4.1500   -3.1130 C   0  0  2  0  0  0  0  0  0  0  0  0
    0.6766   -3.8989   -1.7066 O   0  0  0  0  0  0  0  0  0  0  0  0
    1.0767   -2.9225   -3.9632 C   0  0  2  0  0  0  0  0  0  0  0  0
    0.6904   -1.6979   -3.3267 O   0  0  0  0  0  0  0  0  0  0  0  0
    0.9316   -2.9907   -5.5322 C   0  0  0  0  0  0  0  0  0  0  0  0
    0.9229   -1.7773   -6.2376 O   0  0  0  0  0  0  0  0  0  0  0  0
    0.3462   -0.3053   -5.5351 P   0  0  0  0  0  0  0  0  0  0  0  0
    0.1574    0.2640   -7.0358 O   0  0  0  0  0  0  0  0  0  0  0  0
   -0.9394   -0.7971   -4.8306 O   0  0  0  0  0  0  0  0  0  0  0  0
   -0.1699    1.0122   -4.9064 O   0  0  0  0  0  0  0  0  0  0  0  0
  2  9  1  0
  2  3  1  0
  2  1  1  1
  3  4  1  0
  4  5  1  0
  5  6  1  0
  5  7  1  0
  5  8  2  0
  9 10  1  6
 11 12  1  1
 11  9  1  0
 13 15  1  0
 13 14  1  1
 13 11  1  0
 15 16  1  0
 16 17  1  0
 17 18  1  0
 17 19  1  0
 17 20  2  0
M  END
>  <DRUGBANK_ID>  (1) 
DB04733

>  <COMMON_NAME>  (1) 
1,6-DI-O-PHOSPHONO-D-MANNITOL

$$$$
