
     RDKit          3D

 26 28  0  0  0  0  0  0  0  0999 V2000
    1.2123    0.0831   -0.1415 C   0  0  0  0  0  0  0  0  0  0  0  0
    0.3335    1.2950    0.1981 C   0  0  0  0  0  0  0  0  0  0  0  0
   -0.6242    1.8304   -0.8365 C   0  0  0  0  0  0  0  0  0  0  0  0
   -1.6430    0.7720   -1.2241 C   0  0  0  0  0  0  0  0  0  0  0  0
    0.7209   -0.9941   -0.4255 O   0  0  0  0  0  0  0  0  0  0  0  0
    2.5854    0.2215   -0.1176 N   0  0  0  0  0  0  0  0  0  0  0  0
   -1.3434    3.0366   -0.2023 C   0  0  0  0  0  0  0  0  0  0  0  0
    4.4397    1.7450   -0.2786 N   0  0  0  0  0  0  0  0  0  0  0  0
    4.7973    2.8680    0.4334 N   0  0  0  0  0  0  0  0  0  0  0  0
    4.0429    3.0310    1.5398 C   0  0  0  0  0  0  0  0  0  0  0  0
    3.1399    2.0450    1.4701 C   0  0  0  0  0  0  0  0  0  0  0  0
    3.3257    1.2982    0.3185 C   0  0  0  0  0  0  0  0  0  0  0  0
    2.7764    3.1643    3.4796 N   0  0  0  0  0  0  0  0  0  0  0  0
    3.9068    3.8897    2.7604 C   0  0  0  0  0  0  0  0  0  0  0  0
    2.3461    2.0131    2.6596 C   0  0  0  0  0  0  0  0  0  0  0  0
    2.2617    3.6599    4.6946 C   0  0  0  0  0  0  0  0  0  0  0  0
    2.7580    4.6968    5.1695 O   0  0  0  0  0  0  0  0  0  0  0  0
    0.1187    0.8095    4.1653 N   0  0  0  0  0  0  0  0  0  0  0  0
    1.3150    0.6703    5.0073 C   0  0  0  0  0  0  0  0  0  0  0  0
    1.3795    1.6491    6.1377 C   0  0  0  0  0  0  0  0  0  0  0  0
    1.1029    3.0433    5.5865 C   0  0  0  0  0  0  0  0  0  0  0  0
   -0.3159    3.0883    5.0215 C   0  0  0  0  0  0  0  0  0  0  0  0
   -0.4287    2.1478    3.8497 C   0  0  0  0  0  0  0  0  0  0  0  0
    0.1170   -0.1410    3.0640 C   0  0  0  0  0  0  0  0  0  0  0  0
    3.4691    5.2879    2.3377 C   0  0  0  0  0  0  0  0  0  0  0  0
    5.1769    3.8308    3.5928 C   0  0  0  0  0  0  0  0  0  0  0  0
  1  2  1  0
  1  5  2  0
  1  6  1  0
  2  3  1  0
  3  4  1  0
  3  7  1  0
  6 12  1  0
  8  9  1  0
  8 12  2  0
  9 10  1  0
 10 11  2  0
 10 14  1  0
 11 12  1  0
 11 15  1  0
 13 14  1  0
 13 15  1  0
 13 16  1  0
 14 25  1  0
 14 26  1  0
 16 17  2  0
 16 21  1  0
 18 19  1  0
 18 23  1  0
 18 24  1  0
 19 20  1  0
 20 21  1  0
 21 22  1  0
 22 23  1  0
M  END
>  <DRUGBANK_ID>  (1) 
DB12686

>  <COMMON_NAME>  (1) 
PHA-793887

>  <CAS_NUMBER>  (1) 
718630-59-2

>  <UNII>  (1) 
MKS45S912B

$$$$
