
     RDKit          3D

 26 28  0  0  0  0  0  0  0  0999 V2000
    1.7338    0.0431   -1.8969 Zn  0  0  0  0  0 15  0  0  0  0  0  0
    1.4934    1.0676   -0.2329 N   0  0  0  0  0  0  0  0  0  0  0  0
    4.2513   -2.0026    1.4849 N   0  0  0  0  0  0  0  0  0  0  0  0
    1.4811   -0.9478   -0.2611 N   0  0  0  0  0  0  0  0  0  0  0  0
    5.0614   -0.1230    2.3426 N   0  0  0  0  0  0  0  0  0  0  0  0
   -3.5223   -2.7786    0.0217 N   0  0  0  0  0  0  0  0  0  0  0  0
    6.7849   -1.1129    7.2135 N   0  0  0  0  0  0  0  0  0  0  0  0
   -4.6512   -0.8167    0.0140 N   0  0  0  0  0  0  0  0  0  0  0  0
    6.2241   -3.2933    7.4501 N   0  0  0  0  0  0  0  0  0  0  0  0
    3.7968    0.0590    0.2150 C   0  0  0  0  0  0  0  0  0  0  0  0
    2.2682    0.0521    0.2965 C   0  0  0  0  0  0  0  0  0  0  0  0
    4.4120   -0.6799    1.3077 C   0  0  0  0  0  0  0  0  0  0  0  0
    0.1969    0.7543    0.1287 C   0  0  0  0  0  0  0  0  0  0  0  0
    4.6219   -2.2682    2.7520 C   0  0  0  0  0  0  0  0  0  0  0  0
    0.1960   -0.6573    0.1250 C   0  0  0  0  0  0  0  0  0  0  0  0
    5.1730   -1.0833    3.2833 C   0  0  0  0  0  0  0  0  0  0  0  0
   -0.9933    1.4677    0.1529 C   0  0  0  0  0  0  0  0  0  0  0  0
    4.5337   -3.4245    3.5119 C   0  0  0  0  0  0  0  0  0  0  0  0
   -0.9761   -1.4130    0.1608 C   0  0  0  0  0  0  0  0  0  0  0  0
    5.6926   -1.0326    4.5712 C   0  0  0  0  0  0  0  0  0  0  0  0
   -2.2037   -0.7175    0.1232 C   0  0  0  0  0  0  0  0  0  0  0  0
    5.6576   -2.2020    5.3475 C   0  0  0  0  0  0  0  0  0  0  0  0
   -2.1756    0.7075    0.1044 C   0  0  0  0  0  0  0  0  0  0  0  0
    5.0668   -3.3747    4.8015 C   0  0  0  0  0  0  0  0  0  0  0  0
   -3.4968   -1.4653    0.0535 C   0  0  0  0  0  0  0  0  0  0  0  0
    6.2375   -2.2062    6.7107 C   0  0  0  0  0  0  0  0  0  0  0  0
  2 11  1  0
  2 13  1  0
  3 12  1  0
  3 14  1  0
  4 11  2  0
  4 15  1  0
  5 12  2  0
  5 16  1  0
  6 25  2  0
  7 26  2  0
  8 25  1  0
  9 26  1  0
 10 11  1  0
 10 12  1  0
 13 15  2  0
 13 17  1  0
 14 16  2  0
 14 18  1  0
 15 19  1  0
 16 20  1  0
 17 23  2  0
 18 24  2  0
 19 21  2  0
 20 22  2  0
 21 23  1  0
 21 25  1  0
 22 24  1  0
 22 26  1  0
M  CHG  5   1   2   2  -1   3  -1   6   1   7   1
M  END
>  <DRUGBANK_ID>  (1) 
DB04008

>  <SECONDARY_ACCESSION_NUMBERS>  (1) 
EXPT00628

>  <COMMON_NAME>  (1) 
Zinc;[amino-[2-[[5-[amino(azaniumylidene)methyl]benzimidazol-1-id-2-yl]methyl]benzimidazol-1-id-5-yl]methylidene]azanium

>  <SYNONYMS>  (1) 
bis(5-amidino-benzimidazolyl)methane zinc

$$$$
