
     RDKit          3D

 20 23  0  0  1  0  0  0  0  0999 V2000
    3.8907   -0.8440    0.3169 C   0  0  0  0  0  0  0  0  0  0  0  0
    3.3392   -1.3227   -0.8680 C   0  0  0  0  0  0  0  0  0  0  0  0
    2.1130   -0.8342   -1.3016 C   0  0  0  0  0  0  0  0  0  0  0  0
    1.4105    0.1045   -0.5260 C   0  0  0  0  0  0  0  0  0  0  0  0
    1.9753    0.6207    0.6535 C   0  0  0  0  0  0  0  0  0  0  0  0
    3.2269    0.1370    1.0607 C   0  0  0  0  0  0  0  0  0  0  0  0
    1.2727    1.6877    1.4715 C   0  0  0  0  0  0  0  0  0  0  0  0
   -0.1003    2.0136    1.0538 N   0  0  0  0  0  0  0  0  0  0  0  0
   -0.2690    1.9297   -0.4090 C   0  0  1  0  0  0  0  0  0  0  0  0
   -0.0079    0.4835   -0.9052 C   0  0  2  0  0  0  0  0  0  0  0  0
   -1.0868   -0.4871   -0.3872 C   0  0  0  0  0  0  0  0  0  0  0  0
   -0.7705   -1.8322   -0.1117 C   0  0  0  0  0  0  0  0  0  0  0  0
   -1.7099   -2.6852    0.4522 C   0  0  0  0  0  0  0  0  0  0  0  0
   -3.0002   -2.2580    0.6947 C   0  0  0  0  0  0  0  0  0  0  0  0
   -3.3613   -0.9383    0.4050 C   0  0  0  0  0  0  0  0  0  0  0  0
   -2.4025   -0.0361   -0.1261 C   0  0  0  0  0  0  0  0  0  0  0  0
   -2.7523    1.4397   -0.2237 C   0  0  0  0  0  0  0  0  0  0  0  0
   -1.6762    2.2987   -0.8962 C   0  0  0  0  0  0  0  0  0  0  0  0
   -3.8760   -3.1632    1.2328 O   0  0  0  0  0  0  0  0  0  0  0  0
   -1.3120   -3.9384    0.8303 O   0  0  0  0  0  0  0  0  0  0  0  0
  1  2  2  0
  1  6  1  0
  2  3  1  0
  3  4  2  0
  4  5  1  0
  5  6  2  0
  5  7  1  0
  7  8  1  0
  9  8  1  0
  9 10  1  0
  9 18  1  1
 10  4  1  1
 10 11  1  0
 11 12  2  0
 11 16  1  0
 12 13  1  0
 13 14  2  0
 13 20  1  0
 14 15  1  0
 14 19  1  0
 15 16  2  0
 16 17  1  0
 17 18  1  0
M  END
>  <DRUGBANK_ID>  (1) 
DB12890

>  <COMMON_NAME>  (1) 
Dihydrexidine

>  <CAS_NUMBER>  (1) 
123039-93-0

>  <UNII>  (1) 
32D64VH037

$$$$
