TUN
     RDKit          3D

 11 10  0  0  0  0  0  0  0  0999 V2000
    1.2983    5.0054    2.5075 C   0  0  0  0  0  0  0  0  0  0  0  0
    1.7199    4.6286    1.1054 C   0  0  0  0  0  0  0  0  0  0  0  0
    2.8903    3.7761    1.1179 O   0  0  0  0  0  0  0  0  0  0  0  0
    2.7629    2.1099    1.2810 P   0  0  0  0  0  0  0  0  0  0  0  0
    1.2145    2.1099    1.2810 O   0  0  0  0  0  0  0  0  0  0  0  0
    2.7307    1.8386    3.0071 N   0  0  0  0  0  0  0  0  0  0  0  0
    3.6507    2.3581    4.0074 C   0  0  0  0  0  0  0  0  0  0  0  0
    3.5401    3.8474    4.2729 C   0  0  0  0  0  0  0  0  0  0  0  0
    1.4425    1.3179    3.6115 C   0  0  0  0  0  0  0  0  0  0  0  0
    0.2259    2.2611    3.8106 C   0  0  0  0  0  0  0  0  0  0  0  0
    4.4929    2.1099    1.2810 O   0  0  0  0  0  0  0  0  0  0  0  0
  1  2  1  0
  2  3  1  0
  4  6  1  0
  4 11  1  0
  4  5  2  0
  4  3  1  0
  6  7  1  0
  6  9  1  0
  7  8  1  0
  9 10  1  0
M  END
>  <DRUGBANK_ID>  (1) 
DB08658

>  <COMMON_NAME>  (1) 
Ethyl hydrogen diethylamidophosphate

$$$$
