
     RDKit          3D

 25 26  0  0  1  0  0  0  0  0999 V2000
   -3.4536    2.3384   -0.0875 C   0  0  0  0  0  0  0  0  0  0  0  0
   -1.9269    2.2476   -0.0781 C   0  0  0  0  0  0  0  0  0  0  0  0
   -1.3995    3.0753    1.1044 C   0  0  0  0  0  0  0  0  0  0  0  0
   -1.4176    0.7937    0.0497 C   0  0  1  0  0  0  0  0  0  0  0  0
   -1.8402   -0.2107   -1.0326 C   0  0  0  0  0  0  0  0  0  0  0  0
   -1.0229   -1.0206   -1.4759 O   0  0  0  0  0  0  0  0  0  0  0  0
   -3.1292   -0.1045   -1.4258 O   0  0  0  0  0  0  0  0  0  0  0  0
   -3.6279   -0.8415   -2.5643 C   0  0  0  0  0  0  0  0  0  0  0  0
   -3.2516   -0.1854   -3.9027 C   0  0  0  0  0  0  0  0  0  0  0  0
   -1.7273   -0.1289   -4.1299 C   0  0  2  0  0  0  0  0  0  0  0  0
   -1.2043    1.2966   -3.8169 C   0  0  0  0  0  0  0  0  0  0  0  0
    0.1538    1.5626   -4.2196 N   0  0  0  0  0  0  0  0  0  0  0  0
    1.2588    0.9367   -3.6919 C   0  0  0  0  0  0  0  0  0  0  0  0
    2.3138    1.0960   -4.4631 N   0  0  0  0  0  0  0  0  0  0  0  0
    1.8816    1.9075   -5.4801 C   0  0  0  0  0  0  0  0  0  0  0  0
    0.5525    2.2390   -5.3419 C   0  0  0  0  0  0  0  0  0  0  0  0
   -0.2198    2.9699   -6.1874 N   0  0  0  0  0  0  0  0  0  0  0  0
    0.4303    3.4093   -7.2351 C   0  0  0  0  0  0  0  0  0  0  0  0
    1.7634    3.1377   -7.4758 N   0  0  0  0  0  0  0  0  0  0  0  0
    2.5757    2.3607   -6.6624 C   0  0  0  0  0  0  0  0  0  0  0  0
    3.7320    2.0974   -6.9592 O   0  0  0  0  0  0  0  0  0  0  0  0
   -0.1861    4.1698   -8.1706 N   0  0  0  0  0  0  0  0  0  0  0  0
   -1.3142   -0.7200   -5.4744 C   0  0  0  0  0  0  0  0  0  0  0  0
    0.0598   -1.0832   -5.4924 O   0  0  0  0  0  0  0  0  0  0  0  0
    0.0773    0.8260    0.0636 N   0  0  0  0  0  0  0  0  0  0  0  0
  1  2  1  0
  2  3  1  0
  2  4  1  0
  4  5  1  0
  4 25  1  6
  5  6  2  0
  5  7  1  0
  7  8  1  0
  8  9  1  0
 10 23  1  6
 10 11  1  0
 10  9  1  0
 11 12  1  0
 12 13  1  0
 12 16  1  0
 13 14  2  0
 14 15  1  0
 15 16  2  0
 15 20  1  0
 16 17  1  0
 17 18  2  0
 18 19  1  0
 18 22  1  0
 19 20  1  0
 20 21  2  0
 23 24  1  0
M  END
>  <DRUGBANK_ID>  (1) 
DB06575

>  <COMMON_NAME>  (1) 
Valomaciclovir

>  <CAS_NUMBER>  (1) 
195157-34-7

>  <UNII>  (1) 
F094Y61748

>  <SYNONYMS>  (1) 
Valomaciclovir

$$$$
