A8N
     RDKit          3D

 24 26  0  0  0  0  0  0  0  0999 V2000
    3.6522    0.8931   -0.0556 C   0  0  0  0  0  0  0  0  0  0  0  0
    3.7608   -0.4760   -0.1708 C   0  0  0  0  0  0  0  0  0  0  0  0
    2.5986   -1.2329   -0.2503 C   0  0  0  0  0  0  0  0  0  0  0  0
    1.2933   -0.7175   -0.0267 C   0  0  0  0  0  0  0  0  0  0  0  0
    1.2184    0.6881    0.0096 C   0  0  0  0  0  0  0  0  0  0  0  0
    2.3880    1.4748   -0.0155 C   0  0  0  0  0  0  0  0  0  0  0  0
    0.0738   -1.4629    0.1276 C   0  0  0  0  0  0  0  0  0  0  0  0
   -1.1617   -0.7674    0.0561 C   0  0  0  0  0  0  0  0  0  0  0  0
   -1.1506    0.6360    0.0332 C   0  0  0  0  0  0  0  0  0  0  0  0
    0.0240    1.2854    0.0374 N   0  0  0  0  0  0  0  0  0  0  0  0
    0.0524   -2.8315    0.3839 N   0  0  0  0  0  0  0  0  0  0  0  0
   -2.5041   -1.4892    0.0304 C   0  0  0  0  0  0  0  0  0  0  0  0
   -3.6742   -0.6117   -0.4331 C   0  0  0  0  0  0  0  0  0  0  0  0
   -3.6585    0.7149    0.3107 C   0  0  0  0  0  0  0  0  0  0  0  0
   -2.3908    1.4798   -0.0459 C   0  0  0  0  0  0  0  0  0  0  0  0
    1.2001   -3.6527    0.7260 C   0  0  0  0  0  0  0  0  0  0  0  0
    1.1155   -4.2671    2.1032 C   0  0  0  0  0  0  0  0  0  0  0  0
   -0.0081   -5.2721    2.1984 C   0  0  0  0  0  0  0  0  0  0  0  0
    0.1564   -6.3687    1.1399 C   0  0  0  0  0  0  0  0  0  0  0  0
    1.4869   -7.1197    1.3031 C   0  0  0  0  0  0  0  0  0  0  0  0
    1.5759   -7.7793    2.6833 C   0  0  0  0  0  0  0  0  0  0  0  0
    0.4278   -8.7750    2.8953 C   0  0  0  0  0  0  0  0  0  0  0  0
    0.4222   -9.8752    1.8409 C   0  0  0  0  0  0  0  0  0  0  0  0
    1.6997  -10.6197    1.9282 N   0  0  0  0  0  0  0  0  0  0  0  0
  1  2  2  0
  1  6  1  0
  2  3  1  0
  3  4  2  0
  4  5  1  0
  4  7  1  0
  5  6  2  0
  5 10  1  0
  7  8  2  0
  7 11  1  0
  8  9  1  0
  8 12  1  0
  9 10  2  0
  9 15  1  0
 11 16  1  0
 12 13  1  0
 13 14  1  0
 14 15  1  0
 16 17  1  0
 17 18  1  0
 18 19  1  0
 19 20  1  0
 20 21  1  0
 21 22  1  0
 22 23  1  0
 23 24  1  0
M  CHG  2  10   1  24   1
M  END
>  <DRUGBANK_ID>  (1) 
DB04617

>  <COMMON_NAME>  (1) 
(9S)-9-[(8-AMMONIOOCTYL)AMINO]-1,2,3,4,9,10-HEXAHYDROACRIDINIUM

$$$$
