
     RDKit          3D

 19 19  0  0  0  0  0  0  0  0999 V2000
   -3.6764   -0.7371    2.9922 C   0  0  0  0  0  0  0  0  0  0  0  0
   -4.1044   -1.9068    3.6192 C   0  0  0  0  0  0  0  0  0  0  0  0
   -3.6307   -3.1312    3.1361 C   0  0  0  0  0  0  0  0  0  0  0  0
   -2.9871   -3.2110    1.9076 C   0  0  0  0  0  0  0  0  0  0  0  0
   -2.5987   -2.0394    1.2494 C   0  0  0  0  0  0  0  0  0  0  0  0
   -2.9284   -0.8044    1.8178 C   0  0  0  0  0  0  0  0  0  0  0  0
   -5.1392   -1.8574    4.7209 C   0  0  0  0  0  0  0  0  0  0  0  0
   -6.4868   -2.5170    4.3136 C   0  0  0  0  0  0  0  0  0  0  0  0
   -7.5072   -2.3744    5.4422 C   0  0  0  0  0  0  0  0  0  0  0  0
   -6.3637   -4.0092    3.9902 C   0  0  0  0  0  0  0  0  0  0  0  0
   -1.7881   -2.1251   -0.0279 C   0  0  2  0  0  0  0  0  0  0  0  0
   -0.5593   -1.2045   -0.0138 C   0  0  0  0  0  0  0  0  0  0  0  0
   -0.5033    0.0153   -0.7530 N   0  0  0  0  0  0  0  0  0  0  0  0
    0.8809    1.0005   -0.7158 S   0  0  0  0  0  0  0  0  0  0  0  0
    1.3596    1.1033   -2.4291 C   0  0  0  0  0  0  0  0  0  0  0  0
    0.4662    2.3185   -0.3047 O   0  0  0  0  0  0  0  0  0  0  0  0
    1.9819    0.3216   -0.0598 O   0  0  0  0  0  0  0  0  0  0  0  0
   -2.6853   -2.1542   -1.2502 C   0  0  0  0  0  0  0  0  0  0  0  0
    0.3717   -1.5434    0.7130 O   0  0  0  0  0  0  0  0  0  0  0  0
  1  2  2  0
  2  3  1  0
  2  7  1  0
  3  4  2  0
  4  5  1  0
  5  6  2  0
  6  1  1  0
  7  8  1  0
  8 10  1  0
  8  9  1  0
 11 18  1  6
 11 12  1  0
 11  5  1  0
 12 13  1  0
 12 19  2  0
 13 14  1  0
 14 15  1  0
 14 16  2  0
 14 17  2  0
M  END
>  <DRUGBANK_ID>  (1) 
DB12614

>  <COMMON_NAME>  (1) 
Reparixin

>  <CAS_NUMBER>  (1) 
266359-83-5

>  <UNII>  (1) 
U604E1NB3K

>  <SYNONYMS>  (1) 
Reparixin; Reparixina; RÃ©parixine; Reparixinum

$$$$
