
     RDKit          3D

 29 31  0  0  0  0  0  0  0  0999 V2000
   -2.0658   -0.0152   -1.2189 C   0  0  1  0  0  0  0  0  0  0  0  0
   -1.9013    1.0423   -0.1164 C   0  0  0  0  0  0  0  0  0  0  0  0
   -0.6263    1.4186    0.2494 N   0  0  0  0  0  0  0  0  0  0  0  0
   -0.3392   -1.7687    0.1985 S   0  0  0  0  0  0  0  0  0  0  0  0
   -1.8294   -1.5001   -0.7937 C   0  0  1  0  0  0  0  0  0  0  0  0
    0.5518    0.8990   -0.4334 C   0  0  0  0  0  0  0  0  0  0  0  0
    0.7850   -0.5288   -0.4898 C   0  0  0  0  0  0  0  0  0  0  0  0
   -3.2703    0.2107   -1.9873 O   0  0  0  0  0  0  0  0  0  0  0  0
   -0.5460    2.4462    1.3532 C   0  0  0  0  0  0  0  0  0  0  0  0
   -3.0457   -2.2229   -0.2252 C   0  0  0  0  0  0  0  0  0  0  0  0
   -4.4471    0.2890   -1.3124 C   0  0  0  0  0  0  0  0  0  0  0  0
   -2.8496    1.6865    0.3412 O   0  0  0  0  0  0  0  0  0  0  0  0
   -4.6237    0.2019   -0.0864 O   0  0  0  0  0  0  0  0  0  0  0  0
   -4.1131   -2.4458   -1.1075 C   0  0  0  0  0  0  0  0  0  0  0  0
   -3.2385   -2.5506    1.1235 C   0  0  0  0  0  0  0  0  0  0  0  0
   -0.1072    1.9776    2.8053 C   0  0  0  0  0  0  0  0  0  0  0  0
    1.3066    1.5587    2.9666 N   0  0  0  0  0  0  0  0  0  0  0  0
   -5.5863   -2.9996    0.7165 C   0  0  0  0  0  0  0  0  0  0  0  0
   -4.4796   -3.0255    1.5640 C   0  0  0  0  0  0  0  0  0  0  0  0
   -5.3952   -2.6941   -0.6229 C   0  0  0  0  0  0  0  0  0  0  0  0
    1.6780    1.7468   -0.5224 C   0  0  0  0  0  0  0  0  0  0  0  0
   -6.7962   -3.2651    1.2951 O   0  0  0  0  0  0  0  0  0  0  0  0
    2.1072   -1.0291   -0.5403 C   0  0  0  0  0  0  0  0  0  0  0  0
   -5.5942    0.2841   -2.2414 C   0  0  0  0  0  0  0  0  0  0  0  0
    1.7562    1.2429    4.3010 C   0  0  0  0  0  0  0  0  0  0  0  0
    1.4882    0.2866    2.3220 C   0  0  0  0  0  0  0  0  0  0  0  0
   -7.9405   -3.0455    0.4748 C   0  0  0  0  0  0  0  0  0  0  0  0
    2.9792    1.2183   -0.5635 C   0  0  0  0  0  0  0  0  0  0  0  0
    3.1944   -0.1594   -0.5714 C   0  0  0  0  0  0  0  0  0  0  0  0
  1  8  1  1
  2  1  1  0
  3  2  1  0
  4  5  1  0
  5  1  1  0
  5 10  1  1
  6  3  1  0
  7  4  1  0
  7  6  2  0
  9  3  1  0
 11  8  1  0
 12  2  2  0
 13 11  2  0
 14 10  2  0
 15 10  1  0
 16  9  1  0
 17 16  1  0
 18 19  1  0
 19 15  2  0
 20 14  1  0
 20 18  2  0
 21  6  1  0
 22 18  1  0
 23  7  1  0
 24 11  1  0
 25 17  1  0
 26 17  1  0
 27 22  1  0
 28 21  2  0
 29 23  2  0
 29 28  1  0
M  END
>  <DRUGBANK_ID>  (1) 
DB00343

>  <SECONDARY_ACCESSION_NUMBERS>  (1) 
APRD00473

>  <COMMON_NAME>  (1) 
Diltiazem

>  <CAS_NUMBER>  (1) 
42399-41-7

>  <UNII>  (1) 
EE92BBP03H

>  <SYNONYMS>  (1) 
(+)-cis-5-[2-(dimethylamino)ethyl]-2,3-dihydro-3-hydroxy-2-(p-methoxyphenyl)-1,5-benzothiazepin-4(5H)-one acetate ester; (2S-cis)-3-(acetyloxy)-5-[2-(dimethylamino)ethyl]-2,3-dihydro-2-(4-methoxyphenyl)-1,5-benzothiazepin-4(5H)-one; (2S,3S)-5-(2-(dimethylamino)ethyl)-2-(4-methoxyphenyl)-4-oxo-2,3,4,5-tetrahydrobenzo[b][1,4]thiazepin-3-yl acetate; Acetic acid (2S,3S)-5-(2-dimethylamino-ethyl)-2-(4-methoxy-phenyl)-4-oxo-2,3,4,5-tetrahydro-benzo[b][1,4]thiazepin-3-yl ester; d-cis-diltiazem; Diltiazem; Diltiazemum

$$$$
