Y15
     RDKit          3D

 33 35  0  0  0  0  0  0  0  0999 V2000
   11.9073   -0.4550    0.5409 C   0  0  0  0  0  0  0  0  0  0  0  0
   12.3060    1.4509   -0.7913 C   0  0  0  0  0  0  0  0  0  0  0  0
   12.2237    1.6166   -2.2974 C   0  0  0  0  0  0  0  0  0  0  0  0
   13.8028   -0.1438   -2.6135 C   0  0  0  0  0  0  0  0  0  0  0  0
   13.8663   -0.3608   -1.0908 C   0  0  0  0  0  0  0  0  0  0  0  0
   12.4091   -0.4097    1.6627 O   0  0  0  0  0  0  0  0  0  0  0  0
   13.4604    1.2253   -2.9282 O   0  0  0  0  0  0  0  0  0  0  0  0
   12.5426    0.0482   -0.5650 N   0  0  0  0  0  0  0  0  0  0  0  0
   10.6861   -1.0235    0.2084 N   0  0  0  0  0  0  0  0  0  0  0  0
    9.8878   -1.8807    1.1169 C   0  0  1  0  0  0  0  0  0  0  0  0
   10.7872   -2.6637    2.1023 C   0  0  0  0  0  0  0  0  0  0  0  0
   11.8634   -3.4872    1.3497 C   0  0  0  0  0  0  0  0  0  0  0  0
   13.3305   -3.0424    1.5686 C   0  0  0  0  0  0  0  0  0  0  0  0
   14.3167   -3.9098    0.8098 C   0  0  0  0  0  0  0  0  0  0  0  0
   14.1619   -5.3496    1.2323 C   0  0  0  0  0  0  0  0  0  0  0  0
   12.7268   -5.8199    1.0209 C   0  0  0  0  0  0  0  0  0  0  0  0
   11.7262   -4.9482    1.7669 C   0  0  0  0  0  0  0  0  0  0  0  0
    8.8814   -1.0391    1.9140 C   0  0  0  0  0  0  0  0  0  0  0  0
    9.3386   -0.0894    2.5413 O   0  0  0  0  0  0  0  0  0  0  0  0
    5.5242   -1.5220    3.4384 C   0  0  0  0  0  0  0  0  0  0  0  0
    5.5919    0.2503    1.7094 C   0  0  0  0  0  0  0  0  0  0  0  0
    7.5112   -1.3719    1.8876 N   0  0  0  0  0  0  0  0  0  0  0  0
    4.5566   -0.8491    4.2665 O   0  0  0  0  0  0  0  0  0  0  0  0
    5.0857   -0.0205    5.3257 C   0  0  0  0  0  0  0  0  0  0  0  0
    5.9995   -0.7904    6.2514 C   0  0  0  0  0  0  0  0  0  0  0  0
    6.8953   -0.1448    7.1101 C   0  0  0  0  0  0  0  0  0  0  0  0
    7.6095   -0.8885    8.0534 C   0  0  0  0  0  0  0  0  0  0  0  0
    7.4774   -2.2776    8.1102 C   0  0  0  0  0  0  0  0  0  0  0  0
    6.6413   -2.9331    7.2232 C   0  0  0  0  0  0  0  0  0  0  0  0
    5.9064   -2.1907    6.3191 C   0  0  0  0  0  0  0  0  0  0  0  0
    7.1899    0.3295    3.6096 C   0  0  0  0  0  0  0  0  0  0  0  0
    7.8204    1.0986    4.3849 N   0  0  0  0  0  0  0  0  0  0  0  0
    6.4299   -0.5976    2.6751 C   0  0  2  0  0  0  0  0  0  0  0  0
  1  6  2  0
  3  2  1  0
  4  7  1  0
  4  5  1  0
  5  8  1  0
  7  3  1  0
  8  2  1  0
  8  1  1  0
  9  1  1  0
 10  9  1  0
 10 18  1  0
 10 11  1  1
 12 11  1  0
 12 17  1  0
 13 12  1  0
 14 13  1  0
 14 15  1  0
 15 16  1  0
 16 17  1  0
 18 22  1  0
 19 18  2  0
 20 23  1  0
 23 24  1  0
 24 25  1  0
 25 26  2  0
 26 27  1  0
 28 27  2  0
 29 28  1  0
 30 25  1  0
 30 29  2  0
 31 32  3  0
 33 31  1  0
 33 20  1  0
 33 22  1  0
 33 21  1  6
M  END
>  <DRUGBANK_ID>  (1) 
DB08755

>  <COMMON_NAME>  (1) 
N-[(1S)-2-{[(1R)-2-(benzyloxy)-1-cyano-1-methylethyl]amino}-1-(cyclohexylmethyl)-2-oxoethyl]morpholine-4-carboxamide

$$$$
