1009
     RDKit          3D

 19 20  0  0  1  0  0  0  0  0999 V2000
    0.8854    0.1140   -0.0132 O   0  0  0  0  0  0  0  0  0  0  0  0
   -2.2034   -4.4766    3.9207 O   0  0  0  0  0  0  0  0  0  0  0  0
    0.9783   -1.5558   -1.4941 O   0  0  0  0  0  0  0  0  0  0  0  0
   -1.2258   -0.7387   -0.8018 C   0  0  0  0  0  0  0  0  0  0  0  0
   -1.7441   -1.0707    0.5860 C   0  0  0  0  0  0  0  0  0  0  0  0
   -1.7723   -2.4104    0.9788 C   0  0  0  0  0  0  0  0  0  0  0  0
   -2.0217   -2.7591    2.3096 C   0  0  0  0  0  0  0  0  0  0  0  0
   -2.0691   -0.0873    1.5291 C   0  0  0  0  0  0  0  0  0  0  0  0
   -1.7274    0.6039   -1.3167 C   0  0  0  0  0  0  0  0  0  0  0  0
   -2.2976   -1.7591    3.2483 C   0  0  0  0  0  0  0  0  0  0  0  0
   -2.3060   -0.4235    2.8584 C   0  0  0  0  0  0  0  0  0  0  0  0
   -1.9606   -4.1735    2.7567 C   0  0  0  0  0  0  0  0  0  0  0  0
    0.2958   -0.7819   -0.8300 C   0  0  0  0  0  0  0  0  0  0  0  0
   -1.6390   -5.2480    1.7961 C   0  0  0  0  0  0  0  0  0  0  0  0
   -0.4082   -5.2871    1.1274 C   0  0  0  0  0  0  0  0  0  0  0  0
   -2.6074   -6.2244    1.5639 C   0  0  0  0  0  0  0  0  0  0  0  0
   -0.1638   -6.2975    0.1983 C   0  0  0  0  0  0  0  0  0  0  0  0
   -2.3303   -7.2668    0.6831 C   0  0  0  0  0  0  0  0  0  0  0  0
   -1.1238   -7.2868   -0.0199 C   0  0  0  0  0  0  0  0  0  0  0  0
  1 13  1  0
  2 12  2  0
  3 13  2  0
  4  5  1  0
  4  9  1  0
  4 13  1  0
  5  6  2  0
  5  8  1  0
  6  7  1  0
  7 10  2  0
  7 12  1  0
  8 11  2  0
 10 11  1  0
 12 14  1  0
 14 15  2  0
 14 16  1  0
 15 17  1  0
 16 18  2  0
 17 19  2  0
 18 19  1  0
M  END
>  <DRUGBANK_ID>  (1) 
DB01009

>  <SECONDARY_ACCESSION_NUMBERS>  (1) 
APRD01059; DB05823; DB05335

>  <COMMON_NAME>  (1) 
Ketoprofen

>  <CAS_NUMBER>  (1) 
22071-15-4

>  <UNII>  (1) 
90Y4QC304K

>  <SYNONYMS>  (1) 
2-(3-Benzoylphenyl)propionic acid; 3-Benzoyl-alpha-methylbenzeneacetic acid; 3-Benzoyl-Î±-methylbenzeneacetic acid; 3-Benzoylhydratropic acid; Ketoprofen; Ketoprofeno; L'acide (benzoyl-3-phenyl)-2-propionique; m-Benzoylhydratropic acid

$$$$
