MA9
     RDKit          3D

 32 35  0  0  0  0  0  0  0  0999 V2000
    1.4077   -0.2300   -0.0031 C   0  0  0  0  0  0  0  0  0  0  0  0
    0.9187    1.0784   -0.0183 C   0  0  0  0  0  0  0  0  0  0  0  0
   -0.4623    1.2929   -0.0065 C   0  0  0  0  0  0  0  0  0  0  0  0
   -1.3454    0.2099   -0.0403 C   0  0  0  0  0  0  0  0  0  0  0  0
   -1.7813   -2.2408    0.0924 C   0  0  0  0  0  0  0  0  0  0  0  0
   -3.7528   -5.5203    4.3572 C   0  0  0  0  0  0  0  0  0  0  0  0
   -2.1771   -7.4685    4.9387 C   0  0  0  0  0  0  0  0  0  0  0  0
    0.0553   -8.2082    6.4791 C   0  0  0  0  0  0  0  0  0  0  0  0
   -1.0625   -8.1327    4.3797 C   0  0  0  0  0  0  0  0  0  0  0  0
   -3.3160   -7.3211    2.6192 C   0  0  1  0  0  0  0  0  0  0  0  0
   -2.2490   -6.3794    1.9928 C   0  0  0  0  0  0  0  0  0  0  0  0
   -1.0017   -8.4593    3.0829 F   0  0  0  0  0  0  0  0  0  0  0  0
    0.0483   -8.4855    5.1279 C   0  0  0  0  0  0  0  0  0  0  0  0
    1.1295   -8.5396    7.2044 F   0  0  0  0  0  0  0  0  0  0  0  0
   -1.0454   -7.6094    7.0788 C   0  0  0  0  0  0  0  0  0  0  0  0
   -1.0648   -7.4081    8.4018 F   0  0  0  0  0  0  0  0  0  0  0  0
   -2.1521   -7.2325    6.3223 C   0  0  0  0  0  0  0  0  0  0  0  0
   -3.4111   -7.0283    4.1441 C   0  0  2  0  0  0  0  0  0  0  0  0
   -2.7099   -4.6189    3.6769 C   0  0  0  0  0  0  0  0  0  0  0  0
   -4.6107   -7.0809    1.9478 N   0  0  0  0  0  0  0  0  0  0  0  0
   -2.6521   -5.0053    2.2767 N   0  0  0  0  0  0  0  0  0  0  0  0
   -2.6038   -4.1302    1.2276 C   0  0  0  0  0  0  0  0  0  0  0  0
   -1.7264   -3.0754    1.1950 C   0  0  0  0  0  0  0  0  0  0  0  0
   -3.4623   -4.3509    0.2200 N   0  0  0  0  0  0  0  0  0  0  0  0
   -3.4637   -3.4729   -0.7899 C   0  0  0  0  0  0  0  0  0  0  0  0
   -2.6666   -2.4057   -0.9077 N   0  0  0  0  0  0  0  0  0  0  0  0
   -0.8632   -1.1069   -0.0248 C   0  0  0  0  0  0  0  0  0  0  0  0
    0.5258   -1.3139   -0.0146 C   0  0  0  0  0  0  0  0  0  0  0  0
    3.1440   -0.5363    0.2462 S   0  0  0  0  0  0  0  0  0  0  0  0
    3.3365   -1.9794    0.2233 O   0  0  0  0  0  0  0  0  0  0  0  0
    3.5390    0.2381    1.4022 O   0  0  0  0  0  0  0  0  0  0  0  0
    3.9660    0.1228   -1.1746 C   0  0  0  0  0  0  0  0  0  0  0  0
  1 29  1  0
  1 28  2  0
  1  2  1  0
  2  3  2  0
  3  4  1  0
  4 27  2  0
  5 26  1  0
  5 27  1  0
  5 23  2  0
  6 19  1  0
  6 18  1  0
  7 17  2  0
  7  9  1  0
  8 15  2  0
  8 13  1  0
  8 14  1  0
  9 12  1  0
  9 13  2  0
 10 11  1  0
 10 18  1  0
 10 20  1  6
 11 21  1  0
 15 17  1  0
 15 16  1  0
 18  7  1  1
 19 21  1  0
 21 22  1  0
 22 24  2  0
 22 23  1  0
 24 25  1  0
 25 26  2  0
 27 28  1  0
 29 32  1  0
 29 31  2  0
 29 30  2  0
M  END
>  <DRUGBANK_ID>  (1) 
DB08164

>  <COMMON_NAME>  (1) 
(3R,4R)-1-{6-[3-(METHYLSULFONYL)PHENYL]PYRIMIDIN-4-YL}-4-(2,4,5-TRIFLUOROPHENYL)PIPERIDIN-3-AMINE

$$$$
