
     RDKit          3D

 29 32  0  0  0  0  0  0  0  0999 V2000
    0.7367    0.1986   -0.0668 N   0  0  0  0  0  0  0  0  0  0  0  0
    0.0908    1.1333   -0.8494 C   0  0  0  0  0  0  0  0  0  0  0  0
    0.5691    1.1795   -2.1267 N   0  0  0  0  0  0  0  0  0  0  0  0
   -0.0302    2.0009   -3.0057 C   0  0  0  0  0  0  0  0  0  0  0  0
    0.4024    2.0172   -4.3030 O   0  0  0  0  0  0  0  0  0  0  0  0
   -1.0476    2.8286   -2.5532 C   0  0  0  0  0  0  0  0  0  0  0  0
   -1.7897    3.7170   -3.2186 N   0  0  0  0  0  0  0  0  0  0  0  0
   -2.5084    4.3199   -2.2481 N   0  0  0  0  0  0  0  0  0  0  0  0
   -2.3631    3.7939   -0.9829 N   0  0  0  0  0  0  0  0  0  0  0  0
   -1.4550    2.8031   -1.1856 C   0  0  0  0  0  0  0  0  0  0  0  0
   -0.9173    1.8899   -0.3032 N   0  0  0  0  0  0  0  0  0  0  0  0
   -3.4459    5.3239   -2.6920 C   0  0  0  0  0  0  0  0  0  0  0  0
   -4.2058    4.9902   -3.8344 C   0  0  0  0  0  0  0  0  0  0  0  0
   -5.0460    5.9102   -4.4226 C   0  0  0  0  0  0  0  0  0  0  0  0
   -5.1064    7.1911   -3.9133 C   0  0  0  0  0  0  0  0  0  0  0  0
   -4.3512    7.6282   -2.8264 C   0  0  0  0  0  0  0  0  0  0  0  0
   -3.5042    6.6572   -2.1995 C   0  0  0  0  0  0  0  0  0  0  0  0
   -4.3977    9.0625   -2.3203 C   0  0  0  0  0  0  0  0  0  0  0  0
   -3.6625    9.3844   -1.4013 O   0  0  0  0  0  0  0  0  0  0  0  0
   -5.2302   10.0539   -2.8287 N   0  0  0  0  0  0  0  0  0  0  0  0
   -6.1847   10.1352   -3.9146 C   0  0  0  0  0  0  0  0  0  0  0  0
   -7.6075   10.2034   -3.4495 C   0  0  0  0  0  0  0  0  0  0  0  0
   -8.1837   11.4611   -3.2681 C   0  0  0  0  0  0  0  0  0  0  0  0
   -9.5151   11.5684   -2.8832 C   0  0  0  0  0  0  0  0  0  0  0  0
  -10.1943   13.1325   -2.6740 Cl  0  0  0  0  0  0  0  0  0  0  0  0
  -10.2919   10.4309   -2.6760 C   0  0  0  0  0  0  0  0  0  0  0  0
   -9.7244    9.1730   -2.8569 C   0  0  0  0  0  0  0  0  0  0  0  0
  -10.6838    7.7620   -2.6227 Cl  0  0  0  0  0  0  0  0  0  0  0  0
   -8.3871    9.0508   -3.2370 C   0  0  0  0  0  0  0  0  0  0  0  0
  2  1  1  0
  2  3  1  0
  2 11  2  0
  4  3  2  0
  4  5  1  0
  4  6  1  0
  6  7  2  0
  7  8  1  0
  8  9  1  0
 10  6  1  0
 10  9  2  0
 10 11  1  0
 12  8  1  0
 12 13  2  0
 12 17  1  0
 13 14  1  0
 14 15  2  0
 15 16  1  0
 16 17  2  0
 16 18  1  0
 18 19  2  0
 18 20  1  0
 21 20  1  0
 21 22  1  0
 22 23  2  0
 22 29  1  0
 23 24  1  0
 24 25  1  0
 24 26  2  0
 26 27  1  0
 27 28  1  0
 27 29  2  0
M  END
>  <DRUGBANK_ID>  (1) 
DB03571

>  <SECONDARY_ACCESSION_NUMBERS>  (1) 
EXPT00198

>  <COMMON_NAME>  (1) 
3-(5-amino-7-hydroxy-[1,2,3]triazolo[4,5-d]pyrimidin-2-yl)-N-(3,5-dichlorobenzyl)-benzamide

$$$$
