
     RDKit          3D

  9 10  0  0  0  0  0  0  0  0999 V2000
    2.1532    0.7307   -0.0114 C   0  0  0  0  0  0  0  0  0  0  0  0
    2.1891   -0.6663   -0.0017 C   0  0  0  0  0  0  0  0  0  0  0  0
    0.9321    1.4175   -0.0037 C   0  0  0  0  0  0  0  0  0  0  0  0
    1.0127   -1.4253    0.0067 C   0  0  0  0  0  0  0  0  0  0  0  0
   -2.2843    0.0047   -0.0010 C   0  0  0  0  0  0  0  0  0  0  0  0
   -0.2570    0.6745    0.0021 C   0  0  0  0  0  0  0  0  0  0  0  0
   -0.1896   -0.7153    0.0018 C   0  0  0  0  0  0  0  0  0  0  0  0
   -1.5629    1.1021    0.0057 N   0  0  0  0  0  0  0  0  0  0  0  0
   -1.5013   -1.1150   -0.0088 N   0  0  0  0  0  0  0  0  0  0  0  0
  2  1  2  0
  3  1  1  0
  4  2  1  0
  6  3  2  0
  7  4  2  0
  7  6  1  0
  8  5  2  0
  8  6  1  0
  9  5  1  0
  9  7  1  0
M  END
>  <DRUGBANK_ID>  (1) 
DB02962

>  <SECONDARY_ACCESSION_NUMBERS>  (1) 
EXPT00791

>  <COMMON_NAME>  (1) 
Benzimidazole

>  <CAS_NUMBER>  (1) 
51-17-2

>  <UNII>  (1) 
E24GX49LD8

$$$$
