
     RDKit          3D

 33 35  0  0  1  0  0  0  0  0999 V2000
    1.1402   -0.0958    0.4074 C   0  0  0  0  0  0  0  0  0  0  0  0
    0.4895   -1.4848    0.0618 C   0  0  0  0  0  0  0  0  0  0  0  0
    1.2254   -2.4625    0.9738 C   0  0  0  0  0  0  0  0  0  0  0  0
   -1.2321   -1.5758    0.0944 C   0  0  1  0  0  0  0  0  0  0  0  0
   -2.1403   -0.7503   -0.9572 N   0  0  0  0  0  0  0  0  0  0  0  0
   -2.6247   -0.9554   -2.2643 C   0  0  0  0  0  0  0  0  0  0  0  0
   -3.0888    0.0138   -2.8815 O   0  0  0  0  0  0  0  0  0  0  0  0
   -2.6180   -2.3119   -2.9724 C   0  0  0  0  0  0  0  0  0  0  0  0
   -1.3586   -3.0404   -3.0813 N   0  0  0  0  0  0  0  0  0  0  0  0
   -1.5235   -4.4560   -2.9838 C   0  0  0  0  0  0  0  0  0  0  0  0
   -2.5728   -5.0336   -2.8400 O   0  0  0  0  0  0  0  0  0  0  0  0
   -0.2454   -5.2562   -2.9350 C   0  0  0  0  0  0  0  0  0  0  0  0
   -0.3302   -6.6246   -2.7496 N   0  0  0  0  0  0  0  0  0  0  0  0
    0.8671   -4.5305   -3.0240 C   0  0  0  0  0  0  0  0  0  0  0  0
    0.9829   -3.1606   -3.1532 N   0  0  0  0  0  0  0  0  0  0  0  0
   -0.0934   -2.4295   -3.1988 C   0  0  0  0  0  0  0  0  0  0  0  0
    0.0714   -0.8850   -3.3284 C   0  0  0  0  0  0  0  0  0  0  0  0
   -0.1874    0.0346   -2.3227 C   0  0  0  0  0  0  0  0  0  0  0  0
   -0.3456    1.4156   -2.3268 C   0  0  0  0  0  0  0  0  0  0  0  0
    0.1402    2.0207   -3.4189 C   0  0  0  0  0  0  0  0  0  0  0  0
    0.7373    1.1876   -4.3817 C   0  0  0  0  0  0  0  0  0  0  0  0
    0.6539   -0.2456   -4.3761 C   0  0  0  0  0  0  0  0  0  0  0  0
   -1.7367   -3.0129    0.0230 C   0  0  1  0  0  0  0  0  0  0  0  0
   -1.1380   -3.9371    0.9044 O   0  0  0  0  0  0  0  0  0  0  0  0
   -3.2383   -3.1313    0.0559 C   0  0  0  0  0  0  0  0  0  0  0  0
   -3.9705   -4.1536   -0.3335 N   0  0  0  0  0  0  0  0  0  0  0  0
   -5.2076   -3.6501   -0.6882 N   0  0  0  0  0  0  0  0  0  0  0  0
   -5.1672   -2.3492   -0.4912 C   0  0  0  0  0  0  0  0  0  0  0  0
   -3.9873   -1.9635    0.0796 O   0  0  0  0  0  0  0  0  0  0  0  0
   -6.2742   -1.3439   -0.6541 C   0  0  0  0  0  0  0  0  0  0  0  0
   -7.0664   -1.6226   -1.9468 C   0  0  0  0  0  0  0  0  0  0  0  0
   -7.1765   -1.5591    0.5647 C   0  0  0  0  0  0  0  0  0  0  0  0
   -5.8236    0.1292   -0.6918 C   0  0  0  0  0  0  0  0  0  0  0  0
  1  2  1  0
  2  3  1  0
  2  4  1  0
  4  5  1  6
  4 23  1  0
  5  6  1  0
  6  7  2  0
  6  8  1  0
  8  9  1  0
  9 10  1  0
  9 16  1  0
 10 11  2  0
 10 12  1  0
 12 13  1  0
 12 14  2  0
 14 15  1  0
 15 16  2  0
 16 17  1  0
 17 18  2  0
 17 22  1  0
 18 19  1  0
 19 20  2  0
 20 21  1  0
 21 22  2  0
 23 24  1  1
 23 25  1  0
 25 26  2  0
 25 29  1  0
 26 27  1  0
 27 28  2  0
 28 29  1  0
 28 30  1  0
 30 31  1  0
 30 32  1  0
 30 33  1  0
M  END
>  <DRUGBANK_ID>  (1) 
DB03925

>  <SECONDARY_ACCESSION_NUMBERS>  (1) 
EXPT00279

>  <COMMON_NAME>  (1) 
Freselestat

>  <CAS_NUMBER>  (1) 
208848-19-5

>  <UNII>  (1) 
1CW4RL23VP

>  <SYNONYMS>  (1) 
Freselestat

$$$$
