
     RDKit          3D

 26 28  0  0  1  0  0  0  0  0999 V2000
    0.3717    0.5106   -0.9051 C   0  0  1  0  0  0  0  0  0  0  0  0
    1.6469    0.4332   -0.0687 C   0  0  1  0  0  0  0  0  0  0  0  0
    1.5299    1.3809    1.1199 C   0  0  0  0  0  0  0  0  0  0  0  0
    1.6939   -1.0435    0.2610 C   0  0  0  0  0  0  0  0  0  0  0  0
    3.1141   -1.9405    0.6945 S   0  0  0  0  0  0  0  0  0  0  0  0
    4.6142   -0.9510    0.4774 C   0  0  2  0  0  0  0  0  0  0  0  0
    4.7559    0.1461    1.5008 C   0  0  0  0  0  0  0  0  0  0  0  0
    5.6461    1.1358    0.9194 N   0  0  0  0  0  0  0  0  0  0  0  0
    5.4999    1.0636   -0.5620 C   0  0  1  0  0  0  0  0  0  0  0  0
    4.7999   -0.2704   -0.8707 C   0  0  0  0  0  0  0  0  0  0  0  0
    4.7574    2.3123   -1.1500 C   0  0  0  0  0  0  0  0  0  0  0  0
    3.8521    2.1773   -1.9834 O   0  0  0  0  0  0  0  0  0  0  0  0
    5.1840    3.5906   -0.7975 N   0  0  0  0  0  0  0  0  0  0  0  0
    6.2736    3.8910    0.1141 C   0  0  0  0  0  0  0  0  0  0  0  0
    4.4757    4.7350   -1.3563 C   0  0  0  0  0  0  0  0  0  0  0  0
    0.4537   -1.5798    0.1129 C   0  0  0  0  0  0  0  0  0  0  0  0
   -0.4065   -0.7084   -0.5509 N   0  0  0  0  0  0  0  0  0  0  0  0
   -1.4387    0.0071    0.0101 C   0  0  0  0  0  0  0  0  0  0  0  0
   -2.3510   -0.3447    0.7117 O   0  0  0  0  0  0  0  0  0  0  0  0
   -0.8764    1.3506   -0.5234 C   0  0  2  0  0  0  0  0  0  0  0  0
   -1.6000    2.0517   -1.6608 C   0  0  1  0  0  0  0  0  0  0  0  0
   -0.7783    3.2521   -2.1316 C   0  0  0  0  0  0  0  0  0  0  0  0
   -1.8256    1.1609   -2.7476 O   0  0  0  0  0  0  0  0  0  0  0  0
    0.0682   -2.9882    0.4839 C   0  0  0  0  0  0  0  0  0  0  0  0
   -1.2271   -3.3145    0.2835 O   0  0  0  0  0  0  0  0  0  0  0  0
    0.8399   -3.8174    0.9431 O   0  0  0  0  0  0  0  0  0  0  0  0
  1  2  1  0
  1 17  1  1
  1 20  1  0
  2  3  1  1
  2  4  1  0
  4  5  1  0
  4 16  2  0
  6  5  1  6
  6  7  1  0
  6 10  1  0
  7  8  1  0
  8  9  1  0
  9 10  1  0
  9 11  1  1
 11 12  2  0
 11 13  1  0
 13 14  1  0
 13 15  1  0
 16 17  1  0
 16 24  1  0
 17 18  1  0
 18 19  2  0
 20 18  1  6
 20 21  1  0
 21 22  1  6
 21 23  1  0
 24 25  1  0
 24 26  2  0
M  END
>  <DRUGBANK_ID>  (1) 
DB00760

>  <SECONDARY_ACCESSION_NUMBERS>  (1) 
APRD01097; EXPT02153

>  <COMMON_NAME>  (1) 
Meropenem

>  <CAS_NUMBER>  (1) 
96036-03-2

>  <UNII>  (1) 
YOP6PX0BAO

>  <SYNONYMS>  (1) 
(4R,5S,6S)-3-{[(3S,5S)-5-(dimethylcarbamoyl)pyrrolidin-3-yl]thio}-6-[(1R)-1-hydroxyethyl]-4-methyl-7-oxo-1-azabicyclo[3.2.0]hept-2-ene-2-carboxylic acid; Meropenem; Meropenem anhydrous; Meropenemum

$$$$
