CB3
     RDKit          3D

 35 37  0  0  0  0  0  0  0  0999 V2000
    1.2362    1.3843    0.1049 N   0  0  0  0  0  0  0  0  0  0  0  0
    2.3815    0.6665   -0.0348 C   0  0  0  0  0  0  0  0  0  0  0  0
    3.4977    1.4165   -0.1247 N   0  0  0  0  0  0  0  0  0  0  0  0
    2.4818   -0.6220   -0.0832 N   0  0  0  0  0  0  0  0  0  0  0  0
    1.3294   -1.3739    0.0012 C   0  0  0  0  0  0  0  0  0  0  0  0
    1.3341   -2.6008   -0.0397 O   0  0  0  0  0  0  0  0  0  0  0  0
    0.0201   -0.6859    0.0921 C   0  0  0  0  0  0  0  0  0  0  0  0
   -1.1709   -1.4041    0.1371 C   0  0  0  0  0  0  0  0  0  0  0  0
   -2.3813   -0.7239   -0.0218 C   0  0  0  0  0  0  0  0  0  0  0  0
   -2.3717    0.6665   -0.1645 C   0  0  0  0  0  0  0  0  0  0  0  0
   -1.2013    1.3830    0.0713 C   0  0  0  0  0  0  0  0  0  0  0  0
    0.0167    0.7102    0.0984 C   0  0  0  0  0  0  0  0  0  0  0  0
   -3.6897   -1.4662    0.0399 C   0  0  0  0  0  0  0  0  0  0  0  0
   -3.7825   -2.4900   -0.9807 N   0  0  0  0  0  0  0  0  0  0  0  0
   -3.9726   -6.4938    0.3646 C   0  0  0  0  0  0  0  0  0  0  0  0
   -3.3591   -6.0865   -0.8228 C   0  0  0  0  0  0  0  0  0  0  0  0
   -3.1342   -4.7717   -1.1694 C   0  0  0  0  0  0  0  0  0  0  0  0
   -3.8743   -3.7957   -0.5605 C   0  0  0  0  0  0  0  0  0  0  0  0
   -4.7386   -4.2048    0.4706 C   0  0  0  0  0  0  0  0  0  0  0  0
   -4.7182   -5.5092    0.9992 C   0  0  0  0  0  0  0  0  0  0  0  0
   -3.9015   -7.8798    0.9755 C   0  0  0  0  0  0  0  0  0  0  0  0
   -4.5321   -8.1283    2.0041 O   0  0  0  0  0  0  0  0  0  0  0  0
   -3.0994   -8.8822    0.4620 N   0  0  0  0  0  0  0  0  0  0  0  0
   -2.2891   -8.8463   -0.7381 C   0  0  1  0  0  0  0  0  0  0  0  0
   -0.8109   -9.0892   -0.5202 C   0  0  0  0  0  0  0  0  0  0  0  0
   -0.4849  -10.4781   -0.0478 C   0  0  0  0  0  0  0  0  0  0  0  0
   -0.6854  -11.5324   -1.0951 C   0  0  0  0  0  0  0  0  0  0  0  0
    0.1183  -11.8696   -1.9447 O   0  0  0  0  0  0  0  0  0  0  0  0
   -1.9207  -12.0465   -1.0968 O   0  0  0  0  0  0  0  0  0  0  0  0
   -3.0006   -9.3872   -1.9872 C   0  0  0  0  0  0  0  0  0  0  0  0
   -2.9262   -8.9109   -3.1097 O   0  0  0  0  0  0  0  0  0  0  0  0
   -3.6433  -10.5522   -1.8081 O   0  0  0  0  0  0  0  0  0  0  0  0
   -3.6273   -2.1358   -2.3914 C   0  0  0  0  0  0  0  0  0  0  0  0
   -4.7213   -1.2462   -2.7888 C   0  0  0  0  0  0  0  0  0  0  0  0
   -5.6416   -0.5098   -3.0774 C   0  0  0  0  0  0  0  0  0  0  0  0
  1  2  1  0
  1 12  1  0
  2  3  1  0
  2  4  2  0
  4  5  1  0
  5  6  2  0
  5  7  1  0
  7  8  1  0
  7 12  2  0
  8  9  2  0
  9 10  1  0
  9 13  1  0
 10 11  2  0
 11 12  1  0
 13 14  1  0
 14 18  1  0
 14 33  1  0
 15 16  2  0
 15 20  1  0
 15 21  1  0
 16 17  1  0
 17 18  2  0
 18 19  1  0
 19 20  2  0
 21 22  2  0
 21 23  1  0
 24 23  1  0
 24 25  1  1
 24 30  1  0
 25 26  1  0
 26 27  1  0
 27 28  2  0
 27 29  1  0
 30 31  2  0
 30 32  1  0
 33 34  1  0
 34 35  3  0
M  END
>  <DRUGBANK_ID>  (1) 
DB03541

>  <SECONDARY_ACCESSION_NUMBERS>  (1) 
EXPT00839

>  <COMMON_NAME>  (1) 
10-Propargyl-5,8-Dideazafolic Acid

$$$$
