304
     RDKit          3D

 23 26  0  0  1  0  0  0  0  0999 V2000
    0.1598    0.8766    0.3540 O   0  0  0  0  0  0  0  0  0  0  0  0
    0.3919   -1.5928    0.2650 C   0  0  1  0  0  0  0  0  0  0  0  0
   -1.0207   -1.9063    0.7962 C   0  0  2  0  0  0  0  0  0  0  0  0
   -1.8280   -2.4000   -0.4379 C   0  0  1  0  0  0  0  0  0  0  0  0
   -1.4276   -3.8024   -1.3739 C   0  0  1  0  0  0  0  0  0  0  0  0
    0.7132   -0.2990    1.1883 C   0  0  2  0  0  0  0  0  0  0  0  0
   -1.4665   -0.7323    1.7402 C   0  0  0  0  0  0  0  0  0  0  0  0
    0.7910   -3.2316    0.1608 C   0  0  0  0  0  0  0  0  0  0  0  0
   -0.1931   -0.1015    2.3432 C   0  0  0  0  0  0  0  0  0  0  0  0
   -2.4779   -4.0974   -2.9526 C   0  0  2  0  0  0  0  0  0  0  0  0
   -3.2772   -2.3379   -0.1268 C   0  0  0  0  0  0  0  0  0  0  0  0
    0.1779   -3.7872   -1.2259 C   0  0  0  0  0  0  0  0  0  0  0  0
    1.0372   -0.8110   -1.0490 C   0  0  0  0  0  0  0  0  0  0  0  0
   -3.8989   -2.5386   -1.4796 C   0  0  0  0  0  0  0  0  0  0  0  0
   -3.5295   -3.9353   -1.8950 C   0  0  0  0  0  0  0  0  0  0  0  0
   -3.9318   -4.9086   -3.9254 C   0  0  0  0  0  0  0  0  0  0  0  0
    0.3246   -0.8473   -2.3079 C   0  0  0  0  0  0  0  0  0  0  0  0
    2.1921   -0.6131    1.2832 C   0  0  0  0  0  0  0  0  0  0  0  0
   -5.4938   -4.6024   -3.4690 C   0  0  0  0  0  0  0  0  0  0  0  0
   -4.2142   -5.0297   -1.5329 C   0  0  0  0  0  0  0  0  0  0  0  0
    1.0481   -3.9896   -2.2338 C   0  0  0  0  0  0  0  0  0  0  0  0
   -5.6171   -4.8120   -1.9568 C   0  0  0  0  0  0  0  0  0  0  0  0
    2.9992   -1.3530    0.8242 C   0  0  0  0  0  0  0  0  0  0  0  0
  2  3  1  0
  2  6  1  0
  2  8  1  0
  2 13  1  6
  3  4  1  0
  3  7  1  6
  4  5  1  0
  4 11  1  1
  5 10  1  0
  5 12  1  6
  6  1  1  6
  6  9  1  0
  6 18  1  0
  7  9  1  0
  8 12  1  0
 10 15  1  0
 10 16  1  1
 11 14  1  0
 12 21  2  0
 13 17  1  0
 14 15  1  0
 15 20  2  0
 16 19  1  0
 18 23  3  0
 19 22  1  0
 20 22  1  0
M  END
>  <DRUGBANK_ID>  (1) 
DB00304

>  <SECONDARY_ACCESSION_NUMBERS>  (1) 
APRD00762

>  <COMMON_NAME>  (1) 
Desogestrel

>  <CAS_NUMBER>  (1) 
54024-22-5

>  <UNII>  (1) 
81K9V7M3A3

>  <SYNONYMS>  (1) 
13-Ethyl-11-methylene-18,19-dinor-17α-pregn-4-en-20-yn-17-ol; Desogestrel; Désogestrel; Desogestrelum

$$$$
