1550
     RDKit          3D

 14 14  0  0  1  0  0  0  0  0999 V2000
    1.0989   -0.0060    0.0203 N   0  0  0  0  0  0  0  0  0  0  0  0
    4.1189    2.4301   -0.4548 N   0  0  0  0  0  0  0  0  0  0  0  0
    0.5075    0.3611    1.3583 C   0  0  0  0  0  0  0  0  0  0  0  0
    0.8715    1.7541    2.0098 C   0  0  0  0  0  0  0  0  0  0  0  0
    0.1986    3.0336    1.4065 C   0  0  0  0  0  0  0  0  0  0  0  0
   -0.9967    0.0876    1.5179 C   0  0  0  0  0  0  0  0  0  0  0  0
    0.8681    0.8745   -1.1435 C   0  0  0  0  0  0  0  0  0  0  0  0
   -0.8062    2.9482    0.4042 C   0  0  0  0  0  0  0  0  0  0  0  0
    0.9205    4.2343    1.4117 C   0  0  0  0  0  0  0  0  0  0  0  0
    1.6114    2.1992   -1.0541 C   0  0  0  0  0  0  0  0  0  0  0  0
   -1.0291    3.8900   -0.5990 C   0  0  0  0  0  0  0  0  0  0  0  0
    0.6035    5.2542    0.4866 C   0  0  0  0  0  0  0  0  0  0  0  0
   -0.3217    5.0624   -0.5488 C   0  0  0  0  0  0  0  0  0  0  0  0
    3.0587    2.2696   -0.8518 C   0  0  0  0  0  0  0  0  0  0  0  0
  1  3  1  0
  1  7  1  0
  2 14  3  0
  3  4  1  0
  3  6  1  0
  4  5  1  0
  5  8  2  0
  5  9  1  0
  7 10  1  0
  8 11  1  0
  9 12  2  0
 10 14  1  0
 11 13  2  0
 12 13  1  0
M  END
>  <DRUGBANK_ID>  (1) 
DB01550

>  <COMMON_NAME>  (1) 
Fenproporex

>  <CAS_NUMBER>  (1) 
16397-28-7

>  <UNII>  (1) 
W0194S5FOA

>  <SYNONYMS>  (1) 
Femproporex; Fenproporex; Fenproporexum

$$$$
