
     RDKit          3D

 24 26  0  0  0  0  0  0  0  0999 V2000
    0.9668    0.0901    0.0273 C   0  0  0  0  0  0  0  0  0  0  0  0
   -2.3238   -9.2188   -4.1836 C   0  0  0  0  0  0  0  0  0  0  0  0
    2.2911   -4.9773   -6.5273 C   0  0  0  0  0  0  0  0  0  0  0  0
   -3.2892   -8.2370   -4.4056 C   0  0  0  0  0  0  0  0  0  0  0  0
   -1.1789   -8.9119   -3.4528 C   0  0  0  0  0  0  0  0  0  0  0  0
    0.9175   -4.8265   -6.7154 C   0  0  0  0  0  0  0  0  0  0  0  0
    2.7971   -5.0680   -5.2360 C   0  0  0  0  0  0  0  0  0  0  0  0
   -3.1033   -6.9393   -3.9270 C   0  0  0  0  0  0  0  0  0  0  0  0
   -0.9947   -7.6146   -2.9626 C   0  0  0  0  0  0  0  0  0  0  0  0
    0.0430   -4.7929   -5.6132 C   0  0  0  0  0  0  0  0  0  0  0  0
    1.9271   -5.0440   -4.1400 C   0  0  0  0  0  0  0  0  0  0  0  0
   -0.3972   -2.1158    0.1741 C   0  0  0  0  0  0  0  0  0  0  0  0
   -1.6843   -2.5145   -0.5398 C   0  0  0  0  0  0  0  0  0  0  0  0
    0.3517   -1.0761   -0.6657 C   0  0  0  0  0  0  0  0  0  0  0  0
   -1.9294   -6.6045   -3.2585 C   0  0  0  0  0  0  0  0  0  0  0  0
    0.5422   -4.8970   -4.3068 C   0  0  0  0  0  0  0  0  0  0  0  0
   -1.4469   -3.2459   -1.8733 C   0  0  0  0  0  0  0  0  0  0  0  0
   -2.3411   -4.4327   -2.1612 C   0  0  0  0  0  0  0  0  0  0  0  0
   -0.0671   -3.8614   -2.1763 C   0  0  0  0  0  0  0  0  0  0  0  0
   -1.6357   -5.2220   -3.1044 N   0  0  0  0  0  0  0  0  0  0  0  0
   -0.2925   -4.8231   -3.1508 N   0  0  0  0  0  0  0  0  0  0  0  0
    0.4182   -1.1177   -1.8973 O   0  0  0  0  0  0  0  0  0  0  0  0
   -3.4354   -4.6411   -1.6425 O   0  0  0  0  0  0  0  0  0  0  0  0
    1.0296   -3.6006   -1.6882 O   0  0  0  0  0  0  0  0  0  0  0  0
  4  2  2  0
  5  2  1  0
  6  3  2  0
  7  3  1  0
  8  4  1  0
  9  5  2  0
 10  6  1  0
 11  7  2  0
 13 12  1  0
 14  1  1  0
 14 12  1  0
 15  8  2  0
 15  9  1  0
 16 10  2  0
 16 11  1  0
 17 13  1  0
 18 17  1  0
 19 17  1  0
 20 15  1  0
 20 18  1  0
 21 16  1  0
 21 19  1  0
 21 20  1  0
 22 14  2  0
 23 18  2  0
 24 19  2  0
M  END
>  <DRUGBANK_ID>  (1) 
DB08940

>  <COMMON_NAME>  (1) 
Kebuzone

>  <CAS_NUMBER>  (1) 
853-34-9

>  <UNII>  (1) 
4VD83UL6Y6

>  <SYNONYMS>  (1) 
Kebuzone; ketophenylbutazone; quebuzona

$$$$
