22425
     RDKit          3D

 28 31  0  0  0  0  0  0  0  0999 V2000
   -0.2025   -2.0989    0.0004 S   0  0  0  0  0  0  0  0  0  0  0  0
    1.8237    1.0868    1.7547 O   0  0  0  0  0  0  0  0  0  0  0  0
    1.3181    3.3105   -0.6667 O   0  0  0  0  0  0  0  0  0  0  0  0
   -0.8991    3.3651   -0.7163 O   0  0  0  0  0  0  0  0  0  0  0  0
    0.9510    4.0321    3.0945 N   0  0  0  0  0  0  0  0  0  0  0  0
   -0.0577    1.0839   -0.8354 N   0  0  0  0  0  0  0  0  0  0  0  0
   -2.4374    1.2968   -0.3072 N   0  0  0  0  0  0  0  0  0  0  0  0
    2.2040    3.6262    2.5506 C   0  0  0  0  0  0  0  0  0  0  0  0
    0.5952    5.2126    2.2898 C   0  0  0  0  0  0  0  0  0  0  0  0
    3.4669    4.4016    2.1597 C   0  0  0  0  0  0  0  0  0  0  0  0
    1.8426    6.1730    2.2593 C   0  0  0  0  0  0  0  0  0  0  0  0
    3.0436    5.6686    1.4692 C   0  0  0  0  0  0  0  0  0  0  0  0
    0.0852    2.7896    2.9650 C   0  0  0  0  0  0  0  0  0  0  0  0
    0.5008    1.6480    1.9549 C   0  0  0  0  0  0  0  0  0  0  0  0
    2.9556    1.7936    1.1168 C   0  0  0  0  0  0  0  0  0  0  0  0
    2.7693    2.9720   -0.2433 C   0  0  0  0  0  0  0  0  0  0  0  0
    1.0597    0.0935   -0.9361 C   0  0  0  0  0  0  0  0  0  0  0  0
   -1.3410    0.5036   -0.4498 C   0  0  0  0  0  0  0  0  0  0  0  0
    1.1895   -1.1794   -0.4556 C   0  0  0  0  0  0  0  0  0  0  0  0
   -1.4630   -0.8750   -0.1984 C   0  0  0  0  0  0  0  0  0  0  0  0
    0.0513    2.6274   -0.8269 C   0  0  0  0  0  0  0  0  0  0  0  0
    2.2881    0.5726   -1.2412 C   0  0  0  0  0  0  0  0  0  0  0  0
    2.4859   -1.7512   -0.1765 C   0  0  0  0  0  0  0  0  0  0  0  0
   -2.7238   -1.4321   -0.0167 C   0  0  0  0  0  0  0  0  0  0  0  0
    3.6004    0.1251   -0.9931 C   0  0  0  0  0  0  0  0  0  0  0  0
    3.6904   -1.0746   -0.3707 C   0  0  0  0  0  0  0  0  0  0  0  0
   -3.8411   -0.6323    0.0119 C   0  0  0  0  0  0  0  0  0  0  0  0
   -3.6473    0.7279   -0.0733 C   0  0  0  0  0  0  0  0  0  0  0  0
  1 19  1  0
  1 20  1  0
  2 14  1  0
  2 15  1  0
  3 16  1  0
  3 21  1  0
  4 21  2  0
  5  8  1  0
  5  9  1  0
  5 13  1  0
  6 17  1  0
  6 18  1  0
  6 21  1  0
  7 18  1  0
  7 28  2  0
  8 10  1  0
  9 11  1  0
 10 12  1  0
 11 12  1  0
 13 14  1  0
 15 16  1  0
 17 19  2  0
 17 22  1  0
 18 20  2  0
 19 23  1  0
 20 24  1  0
 22 25  2  0
 23 26  2  0
 24 27  2  0
 25 26  1  0
 27 28  1  0
M  END
>  <DRUGBANK_ID>  (1) 
DB08796

>  <COMMON_NAME>  (1) 
Pipazethate

>  <CAS_NUMBER>  (1) 
2167-85-3

>  <UNII>  (1) 
M5EK1T5V2L

>  <SYNONYMS>  (1) 
Pipazetate; Pipazetato; Pipazetatum; Pipazethate

$$$$
