
     RDKit          3D

 16 17  0  0  0  0  0  0  0  0999 V2000
    2.2745   -0.6454    0.0290 C   0  0  0  0  0  0  0  0  0  0  0  0
    2.2401    0.7520    0.0184 C   0  0  0  0  0  0  0  0  0  0  0  0
    1.0360    1.4532    0.0228 C   0  0  0  0  0  0  0  0  0  0  0  0
    1.0902   -1.3906    0.0448 C   0  0  0  0  0  0  0  0  0  0  0  0
   -1.4124    1.0911   -0.2543 N   0  0  0  0  0  0  0  0  0  0  0  0
   -0.1295   -0.7099   -0.0952 C   0  0  0  0  0  0  0  0  0  0  0  0
   -0.1138    0.6813   -0.0967 C   0  0  0  0  0  0  0  0  0  0  0  0
   -1.4848   -1.1261   -0.2782 C   0  0  0  0  0  0  0  0  0  0  0  0
   -2.1122    0.0193   -0.7630 C   0  0  0  0  0  0  0  0  0  0  0  0
    3.4145   -1.4055   -0.0112 O   0  0  0  0  0  0  0  0  0  0  0  0
    4.6287   -0.6739   -0.0958 C   0  0  0  0  0  0  0  0  0  0  0  0
   -2.0760   -2.5165   -0.1017 C   0  0  0  0  0  0  0  0  0  0  0  0
   -2.9585   -2.7888    1.1827 C   0  0  0  0  0  0  0  0  0  0  0  0
   -4.2310   -2.0295    1.3209 N   0  0  0  0  0  0  0  0  0  0  0  0
   -5.0636   -2.4525    2.4443 C   0  0  0  0  0  0  0  0  0  0  0  0
   -3.9671   -0.6265    1.5817 C   0  0  0  0  0  0  0  0  0  0  0  0
  1 10  1  0
  1  2  2  0
  2  3  1  0
  3  7  2  0
  4  1  1  0
  5  9  1  0
  6  7  1  0
  6  4  2  0
  7  5  1  0
  8 12  1  0
  8  6  1  0
  8  9  2  0
 10 11  1  0
 12 13  1  0
 13 14  1  0
 14 15  1  0
 14 16  1  0
M  END
>  <DRUGBANK_ID>  (1) 
DB14010

>  <COMMON_NAME>  (1) 
5-methoxy-N,N-dimethyltryptamine

>  <CAS_NUMBER>  (1) 
1019-45-0

>  <UNII>  (1) 
X0MKX3GWU9

>  <SYNONYMS>  (1) 
3-(2-dimethylaminoethyl)-5-methoxyindole; 3-[2-(N,N-Dimethylamino)ethyl]-5-methoxy-indole; 5-MeO-DMT; 5-methoxy-N,N-dimethyl-1H-indole-3-ethanamine; MeODMT; Methoxybufotenin; N,N-dimethyl-5-methoxytryptamine; O-methylbufotenine

$$$$
