
     RDKit          3D

 14 15  0  0  0  0  0  0  0  0999 V2000
    1.8561   -0.5681   -0.1507 C   0  0  0  0  0  0  0  0  0  0  0  0
    2.1902   -1.3049    1.0572 C   0  0  0  0  0  0  0  0  0  0  0  0
    2.4107   -1.2618   -1.2196 C   0  0  0  0  0  0  0  0  0  0  0  0
    1.1935    0.6366    0.0123 C   0  0  0  0  0  0  0  0  0  0  0  0
    0.4454   -0.9632    1.1971 C   0  0  0  0  0  0  0  0  0  0  0  0
    3.7933   -1.9911    1.1146 C   0  0  0  0  0  0  0  0  0  0  0  0
    3.6490   -0.7143   -1.2892 C   0  0  0  0  0  0  0  0  0  0  0  0
    0.0629    0.3392    0.7529 C   0  0  0  0  0  0  0  0  0  0  0  0
    1.6112    2.0507    0.2911 C   0  0  0  0  0  0  0  0  0  0  0  0
    4.9172   -1.3155    0.2003 C   0  0  0  0  0  0  0  0  0  0  0  0
    5.2002   -3.1613    0.7057 C   0  0  0  0  0  0  0  0  0  0  0  0
    4.7230   -1.5895   -1.1096 C   0  0  0  0  0  0  0  0  0  0  0  0
    3.9658    0.6810   -0.6247 C   0  0  0  0  0  0  0  0  0  0  0  0
    3.3115    1.3931   -1.7611 C   0  0  0  0  0  0  0  0  0  0  0  0
  1  2  1  0
  1  3  2  0
  1  4  1  0
  2  5  2  0
  2  6  1  0
  3  7  1  0
  4  8  2  0
  4  9  1  0
  5  8  1  0
  6 10  2  0
  6 11  1  0
  7 12  2  0
  7 13  1  0
 10 12  1  0
 13 14  1  0
M  END
>  <DRUGBANK_ID>  (1) 
DB15931

>  <COMMON_NAME>  (1) 
Chamazulene

>  <CAS_NUMBER>  (1) 
529-05-5

>  <UNII>  (1) 
Z439UH6E5F

>  <SYNONYMS>  (1) 
Camazulene; Chamazulen; Dimethulene

$$$$
