
     RDKit          3D

 28 29  0  0  0  0  0  0  0  0999 V2000
    1.0521   -1.3471    0.0021 C   0  0  0  0  0  0  0  0  0  0  0  0
    2.0905   -0.5184   -0.3237 C   0  0  0  0  0  0  0  0  0  0  0  0
    1.9144    0.8229   -0.5359 C   0  0  0  0  0  0  0  0  0  0  0  0
    0.8920    1.5317   -0.0496 C   0  0  0  0  0  0  0  0  0  0  0  0
   -0.2564    0.7793    0.0853 C   0  0  0  0  0  0  0  0  0  0  0  0
   -1.4407    1.4982    0.0778 C   0  0  0  0  0  0  0  0  0  0  0  0
   -2.6543    0.8381    0.0271 C   0  0  0  0  0  0  0  0  0  0  0  0
   -2.6845   -0.5394    0.0227 C   0  0  0  0  0  0  0  0  0  0  0  0
   -1.5094   -1.2762    0.0656 C   0  0  0  0  0  0  0  0  0  0  0  0
   -0.2227   -0.6753    0.0706 C   0  0  0  0  0  0  0  0  0  0  0  0
    1.3876   -2.8189   -0.1712 C   0  0  0  0  0  0  0  0  0  0  0  0
    0.4048   -3.5806   -0.5881 N   0  0  0  0  0  0  0  0  0  0  0  0
    2.5653   -3.5429    0.0319 N   0  0  0  0  0  0  0  0  0  0  0  0
    1.0142    2.8769    0.1604 O   0  0  0  0  0  0  0  0  0  0  0  0
    2.3481    3.4736    0.1861 C   0  0  0  0  0  0  0  0  0  0  0  0
    3.2534    3.1072    1.3887 C   0  0  0  0  0  0  0  0  0  0  0  0
    3.8066    1.6777    1.3885 C   0  0  0  0  0  0  0  0  0  0  0  0
    4.6939    1.3493    0.1454 C   0  0  0  0  0  0  0  0  0  0  0  0
    5.9947    2.0904    0.1070 C   0  0  0  0  0  0  0  0  0  0  0  0
    6.7884    1.6290    1.2904 C   0  0  0  0  0  0  0  0  0  0  0  0
    3.9313   -3.0413    0.0020 C   0  0  0  0  0  0  0  0  0  0  0  0
    4.7242   -3.3209    1.2667 C   0  0  0  0  0  0  0  0  0  0  0  0
    5.2266   -4.7447    1.3668 C   0  0  0  0  0  0  0  0  0  0  0  0
    5.9351   -5.1673    0.0848 C   0  0  0  0  0  0  0  0  0  0  0  0
    2.4650   -5.0439   -0.0022 C   0  0  0  0  0  0  0  0  0  0  0  0
    1.8634   -5.6168    1.3054 C   0  0  0  0  0  0  0  0  0  0  0  0
    0.3721   -5.3549    1.4762 C   0  0  0  0  0  0  0  0  0  0  0  0
   -0.4228   -5.9131    0.2915 C   0  0  0  0  0  0  0  0  0  0  0  0
  1  2  2  0
  1 10  1  0
  1 11  1  0
  2  3  1  0
  3  4  2  0
  4  5  1  0
  4 14  1  0
  5  6  1  0
  5 10  2  0
  6  7  2  0
  7  8  1  0
  8  9  2  0
  9 10  1  0
 11 12  2  0
 11 13  1  0
 13 21  1  0
 13 25  1  0
 14 15  1  0
 15 16  1  0
 16 17  1  0
 17 18  1  0
 18 19  1  0
 19 20  1  0
 21 22  1  0
 22 23  1  0
 23 24  1  0
 25 26  1  0
 26 27  1  0
 27 28  1  0
M  END
>  <DRUGBANK_ID>  (1) 
DB11501

>  <COMMON_NAME>  (1) 
Bunamidine

>  <CAS_NUMBER>  (1) 
3748-77-4

>  <UNII>  (1) 
A9IW1G3P6C

>  <SYNONYMS>  (1) 
Bunamidina; Bunamidine; Bunamidinum; N,N-Dibutyl-4-(hexyloxy)-1-naphthamidine; N,N-Dibutyl-4-hexyloxy-1-naphthamidin

$$$$
