
     RDKit          3D

 26 27  0  0  1  0  0  0  0  0999 V2000
   -4.1626    0.6950    0.9228 C   0  0  0  0  0  0  0  0  0  0  0  0
   -2.7189    0.5498    1.3757 C   0  0  0  0  0  0  0  0  0  0  0  0
   -2.4584    0.2647    2.5865 O   0  0  0  0  0  0  0  0  0  0  0  0
   -1.6240    0.7391    0.4133 N   0  0  0  0  0  0  0  0  0  0  0  0
   -1.9239    1.0697   -0.9873 C   0  0  2  0  0  0  0  0  0  0  0  0
   -0.7705    0.6239   -1.8713 C   0  0  0  0  0  0  0  0  0  0  0  0
    0.5556    0.7255   -1.1353 C   0  0  0  0  0  0  0  0  0  0  0  0
    1.1503   -0.4294   -0.6930 C   0  0  0  0  0  0  0  0  0  0  0  0
    2.4015   -0.3823   -0.0380 C   0  0  0  0  0  0  0  0  0  0  0  0
    3.0171    0.8222    0.1600 C   0  0  0  0  0  0  0  0  0  0  0  0
    2.4666    2.0303   -0.3392 C   0  0  0  0  0  0  0  0  0  0  0  0
    1.1908    1.9827   -0.9899 C   0  0  0  0  0  0  0  0  0  0  0  0
    0.6433    3.2098   -1.4677 C   0  0  0  0  0  0  0  0  0  0  0  0
    1.3225    4.3769   -1.3276 C   0  0  0  0  0  0  0  0  0  0  0  0
    2.5722    4.4378   -0.6903 C   0  0  0  0  0  0  0  0  0  0  0  0
    3.1263    3.2589   -0.2199 C   0  0  0  0  0  0  0  0  0  0  0  0
   -2.1256    2.6505   -1.1308 B   0  0  0  0  0  0  0  0  0  0  0  0
   -2.4316    2.9878   -2.5600 O   0  0  0  0  0  0  0  0  0  0  0  0
   -3.2639    3.0904   -0.2585 O   0  0  0  0  0  0  0  0  0  0  0  0
   -0.8706    3.3551   -0.7083 O   0  0  0  0  0  0  0  0  0  0  0  0
   -1.0497    4.7580   -0.8356 C   0  0  0  0  0  0  0  0  0  0  0  0
   -1.4169    5.0968   -2.2712 C   0  0  2  0  0  0  0  0  0  0  0  0
   -0.1919    5.2191   -3.0745 N   0  0  0  0  0  0  0  0  0  0  0  0
   -2.1769    6.4128   -2.3026 C   0  0  0  0  0  0  0  0  0  0  0  0
   -3.4992    6.4569   -2.8184 O   0  0  0  0  0  0  0  0  0  0  0  0
   -1.6289    7.4737   -1.8673 O   0  0  0  0  0  0  0  0  0  0  0  0
  1  2  1  0
  2  3  2  0
  2  4  1  0
  5 17  1  0
  5  6  1  6
  5  4  1  0
  6  7  1  0
  7  8  2  0
  7 12  1  0
  8  9  1  0
  9 10  2  0
 10 11  1  0
 11 12  2  0
 11 16  1  0
 12 13  1  0
 13 14  2  0
 14 15  1  0
 15 16  2  0
 17 18  1  0
 17 19  1  0
 17 20  1  0
 20 21  1  0
 22 24  1  0
 22 23  1  6
 22 21  1  0
 24 25  1  0
 24 26  2  0
M  CHG  1  17  -1
M  END
>  <DRUGBANK_ID>  (1) 
DB02677

>  <SECONDARY_ACCESSION_NUMBERS>  (1) 
EXPT02852

>  <COMMON_NAME>  (1) 
D-naphthyl-1-acetamido boronic acid alanine

$$$$
