106
     RDKit          3D

 23 25  0  0  0  0  0  0  0  0999 V2000
    1.5514    1.1391    0.0007 N   0  0  0  0  0  0  0  0  0  0  0  0
    2.4086    0.0498    0.0001 C   0  0  0  0  0  0  0  0  0  0  0  0
    1.6067   -1.2192   -0.0042 C   0  0  0  0  0  0  0  0  0  0  0  0
   -0.9162   -1.5288    0.0001 C   0  0  0  0  0  0  0  0  0  0  0  0
   -2.0714   -0.8385    0.0003 C   0  0  0  0  0  0  0  0  0  0  0  0
   -2.0732    0.6204   -0.0010 C   0  0  0  0  0  0  0  0  0  0  0  0
   -0.9413    1.3499   -0.0011 C   0  0  0  0  0  0  0  0  0  0  0  0
    0.3635    0.6400    0.0000 C   0  0  0  0  0  0  0  0  0  0  0  0
    0.3292   -0.8251   -0.0009 C   0  0  0  0  0  0  0  0  0  0  0  0
    3.6298    0.1138    0.0051 O   0  0  0  0  0  0  0  0  0  0  0  0
    2.0618   -2.5206   -0.0082 N   0  0  0  0  0  0  0  0  0  0  0  0
   -3.7207   -1.7133    0.0012 Br  0  0  0  0  0  0  0  0  0  0  0  0
    3.3000   -2.7241   -0.0261 N   0  0  0  0  0  0  0  0  0  0  0  0
    3.6344   -4.1096   -0.0230 C   0  0  0  0  0  0  0  0  0  0  0  0
    2.9963   -5.0551   -0.8399 C   0  0  0  0  0  0  0  0  0  0  0  0
    3.2717   -6.4291   -0.7203 C   0  0  0  0  0  0  0  0  0  0  0  0
    4.2912   -6.8711    0.1281 C   0  0  0  0  0  0  0  0  0  0  0  0
    5.0581   -5.9352    0.8207 C   0  0  0  0  0  0  0  0  0  0  0  0
    4.6932   -4.5726    0.7801 C   0  0  0  0  0  0  0  0  0  0  0  0
    4.4909   -8.6249    0.3513 S   0  0  0  0  0  0  0  0  0  0  0  0
    3.3320   -9.1085    1.0662 O   0  0  0  0  0  0  0  0  0  0  0  0
    4.9185   -9.2012   -0.9010 O   0  0  0  0  0  0  0  0  0  0  0  0
    5.7739   -8.8060    1.4329 N   0  0  0  0  0  0  0  0  0  0  0  0
  1  2  1  0
  1  8  2  0
  2  3  1  0
  2 10  2  0
  3  9  2  0
  3 11  1  0
  4  5  2  0
  4  9  1  0
  5  6  1  0
  5 12  1  0
  6  7  2  0
  7  8  1  0
  8  9  1  0
 11 13  2  0
 13 14  1  0
 14 15  2  0
 14 19  1  0
 15 16  1  0
 16 17  2  0
 17 18  1  0
 17 20  1  0
 18 19  2  0
 20 21  2  0
 20 22  2  0
 20 23  1  0
M  END
>  <DRUGBANK_ID>  (1) 
DB02973

>  <SECONDARY_ACCESSION_NUMBERS>  (1) 
EXPT00008

>  <COMMON_NAME>  (1) 
4-(5-Bromo-2-Oxo-2h-Indol-3-Ylazo)-Benzenesulfonamide

$$$$
