3SC
     RDKit          3D

 28 31  0  0  0  0  0  0  0  0999 V2000
    1.4013   -1.3853   -0.0190 C   0  0  0  0  0  0  0  0  0  0  0  0
    0.1341   -0.8371    0.0128 C   0  0  0  0  0  0  0  0  0  0  0  0
    0.3102    0.5590    0.0081 N   0  0  0  0  0  0  0  0  0  0  0  0
    1.6373    0.8688    0.0097 N   0  0  0  0  0  0  0  0  0  0  0  0
    2.2756   -0.2907   -0.0080 C   0  0  0  0  0  0  0  0  0  0  0  0
   -1.1065   -1.4047    0.0504 N   0  0  0  0  0  0  0  0  0  0  0  0
   -2.1270   -0.5982    0.0334 C   0  0  0  0  0  0  0  0  0  0  0  0
   -2.0367    0.9029   -0.0017 C   0  0  0  0  0  0  0  0  0  0  0  0
   -0.8033    1.4550    0.0023 C   0  0  0  0  0  0  0  0  0  0  0  0
   -0.6083    2.8438   -0.0025 N   0  0  0  0  0  0  0  0  0  0  0  0
   -3.4927   -1.1942    0.1027 C   0  0  0  0  0  0  0  0  0  0  0  0
    0.6456    3.5859    0.0165 C   0  0  0  0  0  0  0  0  0  0  0  0
    0.7707    4.4336   -1.2170 C   0  0  0  0  0  0  0  0  0  0  0  0
    0.9748    3.8528   -2.4741 C   0  0  0  0  0  0  0  0  0  0  0  0
    1.0345    4.6815   -3.5815 C   0  0  0  0  0  0  0  0  0  0  0  0
    0.9377    6.0272   -3.5157 N   0  0  0  0  0  0  0  0  0  0  0  0
    0.7854    6.5656   -2.2870 C   0  0  0  0  0  0  0  0  0  0  0  0
    0.7008    5.8224   -1.1235 C   0  0  0  0  0  0  0  0  0  0  0  0
   -4.4539   -1.0073   -0.9029 C   0  0  0  0  0  0  0  0  0  0  0  0
   -5.7137   -1.6178   -0.7678 C   0  0  0  0  0  0  0  0  0  0  0  0
   -5.9988   -2.4320    0.3341 C   0  0  0  0  0  0  0  0  0  0  0  0
   -5.0312   -2.6434    1.3134 C   0  0  0  0  0  0  0  0  0  0  0  0
   -3.7831   -2.0248    1.2017 C   0  0  0  0  0  0  0  0  0  0  0  0
    1.9695   -3.0325   -0.0484 S   0  0  0  0  0  0  0  0  0  0  0  0
    0.5400   -3.9276   -0.0574 C   0  0  0  0  0  0  0  0  0  0  0  0
   -0.3697   -4.6552   -0.0590 N   0  0  0  0  0  0  0  0  0  0  0  0
   -4.0822   -0.0833   -2.3237 Cl  0  0  0  0  0  0  0  0  0  0  0  0
   -6.9774   -1.4012   -1.9315 Cl  0  0  0  0  0  0  0  0  0  0  0  0
  1  2  2  0
  1 24  1  0
  2  6  1  0
  3  9  1  0
  3  2  1  0
  4  5  2  0
  4  3  1  0
  5  1  1  0
  6  7  2  0
  7 11  1  0
  8  7  1  0
  9  8  2  0
 10 12  1  0
 10  9  1  0
 11 19  2  0
 13 18  1  0
 13 12  1  0
 14 13  2  0
 15 16  2  0
 15 14  1  0
 16 17  1  0
 17 18  2  0
 19 27  1  0
 19 20  1  0
 20 28  1  0
 21 20  2  0
 22 21  1  0
 23 11  1  0
 23 22  2  0
 24 25  1  0
 25 26  3  0
M  END
>  <DRUGBANK_ID>  (1) 
DB07065

>  <COMMON_NAME>  (1) 
5-(2,3-dichlorophenyl)-N-(pyridin-4-ylmethyl)-3-thiocyanatopyrazolo[1,5-a]pyrimidin-7-amine

$$$$
