80A
     RDKit          3D

 22 24  0  0  0  0  0  0  0  0999 V2000
    1.8055   -0.1990   -0.0140 C   0  0  0  0  0  0  0  0  0  0  0  0
    1.2313    1.1333    0.0904 C   0  0  0  0  0  0  0  0  0  0  0  0
   -0.1112    1.2666    0.0802 C   0  0  0  0  0  0  0  0  0  0  0  0
   -0.6665   -0.0225   -0.2342 C   0  0  0  0  0  0  0  0  0  0  0  0
   -0.2740   -1.3139    0.0178 C   0  0  0  0  0  0  0  0  0  0  0  0
    0.9923   -1.4214    0.0058 C   0  0  0  0  0  0  0  0  0  0  0  0
    1.3706   -2.8890   -0.0412 C   0  0  1  0  0  0  0  0  0  0  0  0
    0.8427   -3.5489   -1.2125 O   0  0  0  0  0  0  0  0  0  0  0  0
    2.8308   -2.9706    0.0209 C   0  0  0  0  0  0  0  0  0  0  0  0
    3.4744   -2.3846    1.1228 C   0  0  0  0  0  0  0  0  0  0  0  0
    4.8185   -2.1742    1.0152 C   0  0  0  0  0  0  0  0  0  0  0  0
    5.5402   -2.5673   -0.0561 N   0  0  0  0  0  0  0  0  0  0  0  0
    4.8777   -3.1509   -1.0853 C   0  0  0  0  0  0  0  0  0  0  0  0
    3.5291   -3.3475   -1.1112 C   0  0  0  0  0  0  0  0  0  0  0  0
   -0.7500    2.5547    0.1251 O   0  0  0  0  0  0  0  0  0  0  0  0
   -2.2727    3.1006    0.2910 C   0  0  0  0  0  0  0  0  0  0  0  0
   -3.4174    2.5400   -0.8286 C   0  0  0  0  0  0  0  0  0  0  0  0
   -3.6969    1.1315   -0.5674 N   0  0  0  0  0  0  0  0  0  0  0  0
   -4.0951   -0.1402   -1.1446 C   0  0  0  0  0  0  0  0  0  0  0  0
   -4.3304   -0.8556    0.2318 C   0  0  0  0  0  0  0  0  0  0  0  0
   -3.1628   -0.5028    1.0928 C   0  0  0  0  0  0  0  0  0  0  0  0
   -2.8472    0.7807    0.4961 C   0  0  0  0  0  0  0  0  0  0  0  0
  1  6  2  0
  1  2  1  0
  2  3  2  0
  3  4  1  0
  3 15  1  0
  5  4  2  0
  6  5  1  0
  7  6  1  0
  7  8  1  6
  9  7  1  0
  9 14  1  0
 10  9  2  0
 11 10  1  0
 11 12  2  0
 12 13  1  0
 13 14  2  0
 16 15  1  0
 16 17  1  0
 18 17  1  0
 18 19  1  0
 20 19  1  0
 21 20  1  0
 21 22  1  0
 22 18  1  0
M  END
>  <DRUGBANK_ID>  (1) 
DB07258

>  <COMMON_NAME>  (1) 
(R)-pyridin-4-yl[4-(2-pyrrolidin-1-ylethoxy)phenyl]methanol

$$$$
