
     RDKit          3D

 22 24  0  0  0  0  0  0  0  0999 V2000
   -2.0993    0.6322   -0.0065 N   0  0  0  0  0  0  0  0  0  0  0  0
   -2.0085   -0.7062   -0.0080 C   0  0  0  0  0  0  0  0  0  0  0  0
   -3.1900   -1.3848   -0.0077 N   0  0  0  0  0  0  0  0  0  0  0  0
   -0.8698   -1.4360   -0.0105 N   0  0  0  0  0  0  0  0  0  0  0  0
    0.2386   -0.6740   -0.0099 C   0  0  0  0  0  0  0  0  0  0  0  0
    0.2882    0.7136   -0.0000 C   0  0  0  0  0  0  0  0  0  0  0  0
   -0.9519    1.3291   -0.0039 C   0  0  0  0  0  0  0  0  0  0  0  0
   -1.0218    3.0237   -0.0030 Cl  0  0  0  0  0  0  0  0  0  0  0  0
    1.5899    1.1621    0.0190 N   0  0  0  0  0  0  0  0  0  0  0  0
    2.3246    0.0716    0.0156 C   0  0  0  0  0  0  0  0  0  0  0  0
    1.5564   -1.0611   -0.0115 N   0  0  0  0  0  0  0  0  0  0  0  0
    1.6304   -5.7805   -4.2036 C   0  0  0  0  0  0  0  0  0  0  0  0
    5.0780   -3.5874   -4.7683 C   0  0  0  0  0  0  0  0  0  0  0  0
    1.0665   -4.5273   -1.7538 C   0  0  0  0  0  0  0  0  0  0  0  0
    4.6609   -2.4046   -2.5935 C   0  0  0  0  0  0  0  0  0  0  0  0
    2.0808   -2.4113    0.0484 C   0  0  0  0  0  0  0  0  0  0  0  0
    3.9760   -2.1286   -1.4610 N   0  0  0  0  0  0  0  0  0  0  0  0
    2.7888   -4.9694   -4.2625 O   0  0  0  0  0  0  0  0  0  0  0  0
    4.2611   -3.3454   -3.5276 C   0  0  0  0  0  0  0  0  0  0  0  0
    2.3272   -3.7913   -2.0964 C   0  0  0  0  0  0  0  0  0  0  0  0
    2.8107   -2.7973   -1.2267 C   0  0  0  0  0  0  0  0  0  0  0  0
    3.0725   -4.0586   -3.2717 C   0  0  0  0  0  0  0  0  0  0  0  0
  2  1  2  0
  2  3  1  0
  2  4  1  0
  5  4  2  0
  5  6  1  0
  5 11  1  0
  6  7  2  0
  6  9  1  0
  7  1  1  0
  7  8  1  0
 10  9  2  0
 10 11  1  0
 12 18  1  0
 13 19  1  0
 14 20  1  0
 15 17  2  0
 15 19  1  0
 16 11  1  0
 16 21  1  0
 19 22  2  0
 20 21  2  0
 20 22  1  0
 21 17  1  0
 22 18  1  0
M  END
>  <DRUGBANK_ID>  (1) 
DB12359

>  <COMMON_NAME>  (1) 
BIIB021

>  <CAS_NUMBER>  (1) 
848695-25-0

>  <UNII>  (1) 
851B9FQ7Q0

$$$$
