G30
     RDKit          3D

 17 18  0  0  0  0  0  0  0  0999 V2000
   -3.1251    0.2639   -0.0740 F   0  0  0  0  0  0  0  0  0  0  0  0
   -1.7925    0.2020   -0.0023 C   0  0  0  0  0  0  0  0  0  0  0  0
   -1.2328   -1.0724    0.0474 C   0  0  0  0  0  0  0  0  0  0  0  0
    0.1084   -1.1323    0.1958 C   0  0  0  0  0  0  0  0  0  0  0  0
    0.7941    0.0669    0.2430 C   0  0  0  0  0  0  0  0  0  0  0  0
    2.0337    0.0336    0.6088 F   0  0  0  0  0  0  0  0  0  0  0  0
   -1.0213    1.4148   -0.0059 C   0  0  0  0  0  0  0  0  0  0  0  0
    0.3589    1.3339    0.0523 C   0  0  0  0  0  0  0  0  0  0  0  0
    1.3614    2.3502   -0.0403 N   0  0  0  0  0  0  0  0  0  0  0  0
    2.7951    2.2932   -0.0977 C   0  0  0  0  0  0  0  0  0  0  0  0
    3.3272    3.4091   -0.2046 O   0  0  0  0  0  0  0  0  0  0  0  0
    3.8378    1.1208    0.0601 C   0  0  1  0  0  0  0  0  0  0  0  0
    4.0528   -0.4204   -0.0940 C   0  0  2  0  0  0  0  0  0  0  0  0
    4.3859    0.4784   -1.2272 C   0  0  0  0  0  0  0  0  0  0  0  0
    3.1312   -1.5904   -0.2235 C   0  0  0  0  0  0  0  0  0  0  0  0
    2.4687   -1.7386   -1.3927 O   0  0  0  0  0  0  0  0  0  0  0  0
    2.9006   -2.3220    0.7537 O   0  0  0  0  0  0  0  0  0  0  0  0
  2  1  1  0
  2  7  2  0
  3  2  1  0
  4  3  2  0
  4  5  1  0
  5  8  2  0
  6  5  1  0
  8  7  1  0
  8  9  1  0
  9 10  1  0
 10 11  2  0
 12 10  1  6
 12 14  1  0
 13 12  1  0
 13 14  1  0
 13 15  1  6
 16 15  1  0
 17 15  2  0
M  END
>  <DRUGBANK_ID>  (1) 
DB07808

>  <COMMON_NAME>  (1) 
(1S,2R)-2-[(2,5-difluorophenyl)carbamoyl]cyclopropanecarboxylic acid

$$$$
