1216
     RDKit          3D

 27 30  0  0  1  0  0  0  0  0999 V2000
    7.5918   -1.9612    5.3252 O   0  0  0  0  0  0  0  0  0  0  0  0
    7.2513    6.4251   -1.6901 O   0  0  0  0  0  0  0  0  0  0  0  0
    9.8971    5.5510   -1.3919 N   0  0  0  0  0  0  0  0  0  0  0  0
    6.3860   -1.2691    3.2781 N   0  0  0  0  0  0  0  0  0  0  0  0
    8.6215    2.5768    4.4591 C   0  0  2  0  0  0  0  0  0  0  0  0
    7.2233    2.0780    4.4447 C   0  0  1  0  0  0  0  0  0  0  0  0
    9.1322    2.6917    2.9284 C   0  0  1  0  0  0  0  0  0  0  0  0
    8.3224    3.6232    2.0121 C   0  0  1  0  0  0  0  0  0  0  0  0
    8.8342    3.6398    0.4171 C   0  0  1  0  0  0  0  0  0  0  0  0
    6.8538    0.7102    5.5617 C   0  0  2  0  0  0  0  0  0  0  0  0
    6.3213    3.3842    3.6039 C   0  0  0  0  0  0  0  0  0  0  0  0
    6.7914    3.4760    2.1414 C   0  0  0  0  0  0  0  0  0  0  0  0
    9.2245    1.4696    5.3483 C   0  0  0  0  0  0  0  0  0  0  0  0
   10.5516    3.1162    2.8374 C   0  0  0  0  0  0  0  0  0  0  0  0
    8.1275    0.9761    6.3689 C   0  0  0  0  0  0  0  0  0  0  0  0
   10.1470    4.3930    0.1351 C   0  0  1  0  0  0  0  0  0  0  0  0
   11.0873    3.4285    1.2484 C   0  0  0  0  0  0  0  0  0  0  0  0
    7.5391    0.9017    3.6335 C   0  0  0  0  0  0  0  0  0  0  0  0
    8.8111    2.2746   -0.2671 C   0  0  0  0  0  0  0  0  0  0  0  0
    8.1177    4.7840   -0.1594 C   0  0  0  0  0  0  0  0  0  0  0  0
    6.8850   -1.0681    4.8269 C   0  0  0  0  0  0  0  0  0  0  0  0
    8.6891    6.0397   -0.1198 C   0  0  0  0  0  0  0  0  0  0  0  0
    8.3847    6.4142   -1.5195 C   0  0  0  0  0  0  0  0  0  0  0  0
    5.7153   -0.0225    2.3368 C   0  0  0  0  0  0  0  0  0  0  0  0
    6.6656    0.4894    1.0445 C   0  0  0  0  0  0  0  0  0  0  0  0
    4.4638   -0.3852    1.6761 C   0  0  0  0  0  0  0  0  0  0  0  0
    4.8994    1.0804    3.3421 C   0  0  0  0  0  0  0  0  0  0  0  0
  1 21  2  0
  2 23  2  0
  3 16  1  0
  3 23  1  0
  4 21  1  0
  4 24  1  0
  5  6  1  0
  5  7  1  0
  5 13  1  1
  6 10  1  0
  6 11  1  0
  6 18  1  6
  7  8  1  0
  7 14  1  1
  8  9  1  0
  8 12  1  6
  9 16  1  0
  9 19  1  6
  9 20  1  0
 10 15  1  0
 10 21  1  6
 11 12  1  0
 13 15  1  0
 14 17  1  0
 16 17  1  6
 20 22  2  0
 22 23  1  0
 24 25  1  0
 24 26  1  0
 24 27  1  0
M  END
>  <DRUGBANK_ID>  (1) 
DB01216

>  <SECONDARY_ACCESSION_NUMBERS>  (1) 
APRD00632; DB07774

>  <COMMON_NAME>  (1) 
Finasteride

>  <CAS_NUMBER>  (1) 
98319-26-7

>  <UNII>  (1) 
57GNO57U7G

>  <SYNONYMS>  (1) 
(5alpha,17beta)-(1,1-Dimethylethyl)-3-oxo-4-azaandrost-1-ene-17-carboxamide; Finasterida; Finasteride; Finasteridum

$$$$
