553
     RDKit          3D

 20 22  0  0  0  0  0  0  0  0999 V2000
    0.8936   -0.0486    0.1056 O   0  0  0  0  0  0  0  0  0  0  0  0
    2.1214   -0.0472    0.0326 C   0  0  0  0  0  0  0  0  0  0  0  0
    2.8222   -1.2146   -0.0583 N   0  0  0  0  0  0  0  0  0  0  0  0
    4.2578   -1.3551    0.0123 C   0  0  0  0  0  0  0  0  0  0  0  0
    5.1436   -0.0778    0.1222 C   0  0  2  0  0  0  0  0  0  0  0  0
    5.8894   -0.1353    1.4649 C   0  0  0  0  0  0  0  0  0  0  0  0
    6.7210   -1.4040    1.6020 C   0  0  0  0  0  0  0  0  0  0  0  0
    7.6092   -1.4545    0.5765 F   0  0  0  0  0  0  0  0  0  0  0  0
    4.3006    1.1544    0.0533 C   0  0  0  0  0  0  0  0  0  0  0  0
    4.7381    2.4611    0.0211 N   0  0  0  0  0  0  0  0  0  0  0  0
    2.9216    1.1544    0.0399 C   0  0  0  0  0  0  0  0  0  0  0  0
    2.5127    2.4994    0.0624 C   0  0  0  0  0  0  0  0  0  0  0  0
    3.6409    3.2993    0.0617 C   0  0  0  0  0  0  0  0  0  0  0  0
    3.6977    4.7486    0.1443 C   0  0  0  0  0  0  0  0  0  0  0  0
    3.0674    5.3959    1.1831 C   0  0  0  0  0  0  0  0  0  0  0  0
    3.0689    6.7615    1.1085 C   0  0  0  0  0  0  0  0  0  0  0  0
    4.2861    5.3783   -0.8868 N   0  0  0  0  0  0  0  0  0  0  0  0
    4.2059    6.7135   -0.8731 C   0  0  0  0  0  0  0  0  0  0  0  0
    3.6233    7.4402    0.0896 N   0  0  0  0  0  0  0  0  0  0  0  0
    4.7713    7.3967   -1.9099 N   0  0  0  0  0  0  0  0  0  0  0  0
  2  1  2  0
  2 11  1  0
  3  2  1  0
  4  3  1  0
  4  5  1  0
  5  6  1  1
  5  9  1  0
  7  6  1  0
  8  7  1  0
  9 11  2  0
  9 10  1  0
 10 13  1  0
 11 12  1  0
 12 13  2  0
 13 14  1  0
 14 15  2  0
 15 16  1  0
 17 14  1  0
 17 18  2  0
 18 19  1  0
 19 16  2  0
 20 18  1  0
M  END
>  <DRUGBANK_ID>  (1) 
DB07149

>  <COMMON_NAME>  (1) 
(7S)-2-(2-aminopyrimidin-4-yl)-7-(2-fluoroethyl)-1,5,6,7-tetrahydro-4H-pyrrolo[3,2-c]pyridin-4-one

$$$$
