NLT
     RDKit          3D

 26 26  0  0  0  0  0  0  0  0999 V2000
    0.8763   -0.1048    0.0905 N   0  0  0  0  0  0  0  0  0  0  0  0
    0.1773   -0.6649   -0.9475 C   0  0  0  0  0  0  0  0  0  0  0  0
   -1.0485   -0.6215   -1.0003 O   0  0  0  0  0  0  0  0  0  0  0  0
    0.9944   -1.3587   -2.0268 C   0  0  0  0  0  0  0  0  0  0  0  0
    1.8769   -0.3841   -2.8093 C   0  0  0  0  0  0  0  0  0  0  0  0
    2.9718    0.2433   -1.9473 C   0  0  0  0  0  0  0  0  0  0  0  0
    3.8278   -0.8465   -1.2833 C   0  0  0  0  0  0  0  0  0  0  0  0
    4.5947   -1.6161   -2.3591 C   0  0  0  0  0  0  0  0  0  0  0  0
    5.4985   -0.6528   -3.1319 C   0  0  0  0  0  0  0  0  0  0  0  0
    6.4882    0.0179   -2.1729 C   0  0  0  0  0  0  0  0  0  0  0  0
    7.3773   -1.0394   -1.5097 C   0  0  0  0  0  0  0  0  0  0  0  0
    8.1853   -1.8053   -2.5633 C   0  0  0  0  0  0  0  0  0  0  0  0
    9.0685   -0.8630   -3.3827 C   0  0  0  0  0  0  0  0  0  0  0  0
   10.0547   -0.1405   -2.4795 C   0  0  0  0  0  0  0  0  0  0  0  0
    0.2809    0.7653    1.1005 C   0  0  1  0  0  0  0  0  0  0  0  0
    0.7073    0.2553    2.4971 C   0  0  0  0  0  0  0  0  0  0  0  0
    2.1930    0.3485    2.7994 C   0  0  0  0  0  0  0  0  0  0  0  0
    3.0232   -0.7830    2.8344 C   0  0  0  0  0  0  0  0  0  0  0  0
    4.4087   -0.6434    3.0118 C   0  0  0  0  0  0  0  0  0  0  0  0
    4.9659    0.6284    3.1112 C   0  0  0  0  0  0  0  0  0  0  0  0
    4.1578    1.7513    3.0980 C   0  0  0  0  0  0  0  0  0  0  0  0
    2.7774    1.6047    3.0042 C   0  0  0  0  0  0  0  0  0  0  0  0
    6.3071    0.8334    3.2357 O   0  0  0  0  0  0  0  0  0  0  0  0
    0.6431    2.2492    0.8216 C   0  0  0  0  0  0  0  0  0  0  0  0
   -0.4013    3.1085    0.8195 O   0  0  0  0  0  0  0  0  0  0  0  0
    1.7768    2.6677    0.5968 O   0  0  0  0  0  0  0  0  0  0  0  0
  1  2  1  0
  2  3  2  0
  2  4  1  0
  4  5  1  0
  5  6  1  0
  6  7  1  0
  7  8  1  0
  8  9  1  0
  9 10  1  0
 10 11  1  0
 11 12  1  0
 12 13  1  0
 13 14  1  0
 15  1  1  0
 15 16  1  1
 15 24  1  0
 16 17  1  0
 17 18  2  0
 17 22  1  0
 18 19  1  0
 19 20  2  0
 20 21  1  0
 20 23  1  0
 21 22  2  0
 24 25  1  0
 24 26  2  0
M  END
>  <DRUGBANK_ID>  (1) 
DB08275

>  <COMMON_NAME>  (1) 
N-DODECANOYL-L-TYROSINE

>  <UNII>  (1) 
VQH3Z7D3LC

$$$$
