
     RDKit          3D

 30 32  0  0  0  0  0  0  0  0999 V2000
    1.9398    7.4407   -2.0903 N   0  0  0  0  0  0  0  0  0  0  0  0
    1.8201    6.2410   -1.3928 C   0  0  0  0  0  0  0  0  0  0  0  0
    0.7489    7.9077   -2.8509 C   0  0  1  0  0  0  0  0  0  0  0  0
    3.0855    8.3441   -1.9860 C   0  0  0  0  0  0  0  0  0  0  0  0
    1.0599    9.1039   -3.7799 C   0  0  0  0  0  0  0  0  0  0  0  0
    2.6681    5.5311    0.7904 N   0  0  0  0  0  0  0  0  0  0  0  0
    0.1774    6.8019   -3.7396 C   0  0  0  0  0  0  0  0  0  0  0  0
    3.0437    5.6934   -0.6273 C   0  0  1  0  0  0  0  0  0  0  0  0
    3.6409    3.5162    1.8219 C   0  0  0  0  0  0  0  0  0  0  0  0
    2.7150    9.8016   -2.0720 C   0  0  0  0  0  0  0  0  0  0  0  0
    1.7443   10.1945   -3.0032 C   0  0  0  0  0  0  0  0  0  0  0  0
    3.8004    5.0197    1.5791 C   0  0  2  0  0  0  0  0  0  0  0  0
    0.7671    5.5964   -1.4110 O   0  0  0  0  0  0  0  0  0  0  0  0
   -0.9928    6.4382   -3.7826 O   0  0  0  0  0  0  0  0  0  0  0  0
    4.4199    2.6427    1.4559 O   0  0  0  0  0  0  0  0  0  0  0  0
    3.9183    5.7621    2.9084 C   0  0  0  0  0  0  0  0  0  0  0  0
    1.0872    6.2700   -4.5870 O   0  0  0  0  0  0  0  0  0  0  0  0
    2.5434    3.1983    2.5374 O   0  0  0  0  0  0  0  0  0  0  0  0
    5.1749    5.3125    3.6573 C   0  0  0  0  0  0  0  0  0  0  0  0
    6.4357    5.6035    2.8793 C   0  0  0  0  0  0  0  0  0  0  0  0
    3.4940    4.3821   -1.2697 C   0  0  0  0  0  0  0  0  0  0  0  0
    1.4524   11.5480   -3.1808 C   0  0  0  0  0  0  0  0  0  0  0  0
    3.3471   10.7665   -1.2793 C   0  0  0  0  0  0  0  0  0  0  0  0
    6.7773    6.9283    2.5766 C   0  0  0  0  0  0  0  0  0  0  0  0
    7.2671    4.5657    2.4388 C   0  0  0  0  0  0  0  0  0  0  0  0
    3.0240   12.1141   -1.4304 C   0  0  0  0  0  0  0  0  0  0  0  0
    2.0910   12.5048   -2.3907 C   0  0  0  0  0  0  0  0  0  0  0  0
    8.4717    4.8592    1.8004 C   0  0  0  0  0  0  0  0  0  0  0  0
    7.9513    7.2154    1.8864 C   0  0  0  0  0  0  0  0  0  0  0  0
    8.8049    6.1815    1.5101 C   0  0  0  0  0  0  0  0  0  0  0  0
  2  1  1  0
  3  1  1  0
  3  7  1  6
  4  1  1  0
  5  3  1  0
  5 11  1  0
  6  8  1  0
  8  2  1  0
  8 21  1  6
 10  4  1  0
 11 10  2  0
 12  6  1  0
 12  9  1  0
 13  2  2  0
 14  7  2  0
 15  9  2  0
 12 16  1  1
 17  7  1  0
 18  9  1  0
 19 16  1  0
 20 19  1  0
 22 11  1  0
 23 10  1  0
 24 20  2  0
 25 20  1  0
 26 23  2  0
 27 22  2  0
 27 26  1  0
 28 25  2  0
 29 24  1  0
 29 30  2  0
 30 28  1  0
M  END
>  <DRUGBANK_ID>  (1) 
DB14217

>  <COMMON_NAME>  (1) 
Quinaprilat

>  <CAS_NUMBER>  (1) 
82768-85-2

>  <UNII>  (1) 
34SSX5LDE5

>  <SYNONYMS>  (1) 
Quinaprilat

$$$$
