
     RDKit          3D

 41 38  0  0  0  0  0  0  0  0999 V2000
    2.2980    0.3056   -1.1958 C   0  0  0  0  0  0  0  0  0  0  0  0
    1.0061    1.3103   -1.4201 C   0  0  0  0  0  0  0  0  0  0  0  0
    2.0143   -0.9623   -1.1385 O   0  0  0  0  0  0  0  0  0  0  0  0
   -0.1640    0.7787   -2.3717 C   0  0  0  0  0  0  0  0  0  0  0  0
   -1.3585   -0.1380   -2.0145 C   0  0  0  0  0  0  0  0  0  0  0  0
   -2.2955    0.6097   -1.1514 C   0  0  0  0  0  0  0  0  0  0  0  0
   -3.1858    1.7334   -1.4890 C   0  0  0  0  0  0  0  0  0  0  0  0
   -4.0717    1.1251   -2.5504 C   0  0  0  0  0  0  0  0  0  0  0  0
   -4.9783    0.0410   -2.0154 C   0  0  0  0  0  0  0  0  0  0  0  0
   -5.8717    0.7421   -1.0658 C   0  0  0  0  0  0  0  0  0  0  0  0
   -6.6994    1.9138   -1.4313 C   0  0  0  0  0  0  0  0  0  0  0  0
    3.4494    0.7583   -1.3310 O   0  0  0  0  0  0  0  0  0  0  0  0
   -7.6041    1.3420   -2.4935 C   0  0  0  0  0  0  0  0  0  0  0  0
   -8.5714    0.3557   -1.8718 C   0  0  0  0  0  0  0  0  0  0  0  0
   -9.4097    1.1488   -0.9076 C   0  0  0  0  0  0  0  0  0  0  0  0
  -10.2331    2.2562   -1.4434 C   0  0  0  0  0  0  0  0  0  0  0  0
  -11.1266    1.5965   -2.4898 C   0  0  0  0  0  0  0  0  0  0  0  0
  -12.1167    0.5874   -1.8831 C   0  0  0  0  0  0  0  0  0  0  0  0
  -13.0020    1.2923   -0.8763 C   0  0  0  0  0  0  0  0  0  0  0  0
  -13.7515    2.4629   -1.4220 C   0  0  0  0  0  0  0  0  0  0  0  0
    0.7451   -0.1045    1.2016 C   0  0  0  0  0  0  0  0  0  0  0  0
    0.2245   -1.2029    1.9882 C   0  0  0  0  0  0  0  0  0  0  0  0
    0.1590   -0.2627    0.1005 O   0  0  0  0  0  0  0  0  0  0  0  0
   -0.6608   -0.2563    2.7955 C   0  0  0  0  0  0  0  0  0  0  0  0
   -1.6550    0.5909    1.9960 C   0  0  0  0  0  0  0  0  0  0  0  0
   -2.4874   -0.3936    1.2069 C   0  0  0  0  0  0  0  0  0  0  0  0
   -3.3270   -1.4357    1.8279 C   0  0  0  0  0  0  0  0  0  0  0  0
   -4.1919   -0.6336    2.7812 C   0  0  0  0  0  0  0  0  0  0  0  0
   -5.1095    0.3096    2.0413 C   0  0  0  0  0  0  0  0  0  0  0  0
   -5.9596   -0.5833    1.1777 C   0  0  0  0  0  0  0  0  0  0  0  0
   -6.8024   -1.6307    1.8006 C   0  0  0  0  0  0  0  0  0  0  0  0
    1.6931    0.6444    1.5723 O   0  0  0  0  0  0  0  0  0  0  0  0
   -7.7046   -0.8476    2.7421 C   0  0  0  0  0  0  0  0  0  0  0  0
   -8.6726    0.0147    1.9505 C   0  0  0  0  0  0  0  0  0  0  0  0
   -9.4979   -0.9234    1.0795 C   0  0  0  0  0  0  0  0  0  0  0  0
  -10.3067   -1.9058    1.8548 C   0  0  0  0  0  0  0  0  0  0  0  0
  -11.2063   -1.0655    2.7797 C   0  0  0  0  0  0  0  0  0  0  0  0
  -12.1995   -0.1815    2.0068 C   0  0  0  0  0  0  0  0  0  0  0  0
  -13.0750   -1.0429    1.1042 C   0  0  0  0  0  0  0  0  0  0  0  0
  -13.8260   -2.0842    1.8760 C   0  0  0  0  0  0  0  0  0  0  0  0
    0.5210   -1.6013   -0.9049 Mg  0  0  0  0  0 15  0  0  0  0  0  0
  1  2  1  0
  1  3  2  0
  1 12  1  0
  2  4  1  0
  4  5  1  0
  5  6  1  0
  6  7  1  0
  7  8  1  0
  8  9  1  0
  9 10  1  0
 10 11  1  0
 13 11  1  0
 14 13  1  0
 15 14  1  0
 16 15  1  0
 17 16  1  0
 18 17  1  0
 19 18  1  0
 20 19  1  0
 21 22  1  0
 21 23  2  0
 21 32  1  0
 22 24  1  0
 24 25  1  0
 25 26  1  0
 26 27  1  0
 27 28  1  0
 28 29  1  0
 29 30  1  0
 30 31  1  0
 33 31  1  0
 34 33  1  0
 35 34  1  0
 36 35  1  0
 37 36  1  0
 38 37  1  0
 39 38  1  0
 40 39  1  0
M  CHG  3  12  -1  32  -1  41   2
M  END
>  <DRUGBANK_ID>  (1) 
DB14077

>  <COMMON_NAME>  (1) 
Magnesium stearate

>  <CAS_NUMBER>  (1) 
557-04-0

>  <UNII>  (1) 
70097M6I30

>  <SYNONYMS>  (1) 
Dibasic magnesium stearate; Magnesium distearate; Magnesium octadecanoate; Octadecanoic acid, magnesium salt; Stearic acid, magnesium salt

$$$$
