
     RDKit          3D

 23 24  0  0  0  0  0  0  0  0999 V2000
    0.9627   -0.0542    0.1550 C   0  0  0  0  0  0  0  0  0  0  0  0
    0.9612   -2.5357    0.1848 C   0  0  0  0  0  0  0  0  0  0  0  0
   -1.0757   -1.3008   -0.6175 C   0  0  0  0  0  0  0  0  0  0  0  0
    3.3024    0.8499  -13.8576 C   0  0  0  0  0  0  0  0  0  0  0  0
    1.7248   -2.5466   -4.0229 C   0  0  0  0  0  0  0  0  0  0  0  0
    1.7846   -0.1440   -4.0078 C   0  0  0  0  0  0  0  0  0  0  0  0
    3.2331    0.9939   -9.6683 C   0  0  0  0  0  0  0  0  0  0  0  0
    4.9010   -0.7581   -9.6287 C   0  0  0  0  0  0  0  0  0  0  0  0
    1.2216   -2.5370   -2.7212 C   0  0  0  0  0  0  0  0  0  0  0  0
    1.2373   -0.1382   -2.7295 C   0  0  0  0  0  0  0  0  0  0  0  0
    3.2350    0.9612  -11.0635 C   0  0  0  0  0  0  0  0  0  0  0  0
    4.8702   -0.8110  -11.0262 C   0  0  0  0  0  0  0  0  0  0  0  0
    2.5143   -0.1028   -6.9101 C   0  0  0  0  0  0  0  0  0  0  0  0
    1.9709   -1.3440   -4.6901 C   0  0  0  0  0  0  0  0  0  0  0  0
    4.0315    0.0997   -8.9537 C   0  0  0  0  0  0  0  0  0  0  0  0
    0.9750   -1.3308   -2.0446 C   0  0  0  0  0  0  0  0  0  0  0  0
    4.0368    0.0476  -11.7514 C   0  0  0  0  0  0  0  0  0  0  0  0
    2.3230   -1.3863   -6.1364 C   0  0  0  0  0  0  0  0  0  0  0  0
    3.9027   -0.0138   -7.4857 C   0  0  0  0  0  0  0  0  0  0  0  0
    0.4610   -1.3062   -0.6018 C   0  0  0  0  0  0  0  0  0  0  0  0
    2.3805   -2.4757   -6.7102 O   0  0  0  0  0  0  0  0  0  0  0  0
    4.9102   -0.0666   -6.7780 O   0  0  0  0  0  0  0  0  0  0  0  0
    4.0904   -0.0773  -13.1143 O   0  0  0  0  0  0  0  0  0  0  0  0
  9  5  2  0
 10  6  1  0
 11  7  2  0
 12  8  1  0
 14  5  1  0
 14  6  2  0
 15  7  1  0
 15  8  2  0
 16  9  1  0
 16 10  2  0
 17 11  1  0
 17 12  2  0
 18 13  1  0
 18 14  1  0
 19 13  1  0
 19 15  1  0
 20  1  1  0
 20  2  1  0
 20  3  1  0
 20 16  1  0
 21 18  2  0
 22 19  2  0
 23  4  1  0
 23 17  1  0
M  END
>  <DRUGBANK_ID>  (1) 
DB09495

>  <COMMON_NAME>  (1) 
Avobenzone

>  <CAS_NUMBER>  (1) 
70356-09-1

>  <UNII>  (1) 
G63QQF2NOX

>  <SYNONYMS>  (1) 
Avobenzone; Butyl Methoxydibenzoylmethane; Parsol 1789

$$$$
