
     RDKit          3D

 36 40  0  0  1  0  0  0  0  0999 V2000
    0.8847   -0.0236    0.1645 C   0  0  0  0  0  0  0  0  0  0  0  0
    0.3015   -0.3141    1.4499 O   0  0  0  0  0  0  0  0  0  0  0  0
    0.8065   -1.4118    2.0857 C   0  0  0  0  0  0  0  0  0  0  0  0
    1.6607   -2.1451    1.5857 O   0  0  0  0  0  0  0  0  0  0  0  0
    0.3389   -1.5575    3.3832 N   0  0  0  0  0  0  0  0  0  0  0  0
    1.1689   -2.1789    4.4003 C   0  0  0  0  0  0  0  0  0  0  0  0
    0.6069   -3.5136    4.8625 C   0  0  0  0  0  0  0  0  0  0  0  0
   -0.8646   -3.3985    5.3065 C   0  0  0  0  0  0  0  0  0  0  0  0
   -1.6900   -2.6748    4.2215 C   0  0  0  0  0  0  0  0  0  0  0  0
   -1.0479   -1.3450    3.7775 C   0  0  0  0  0  0  0  0  0  0  0  0
   -1.4477   -4.7952    5.6004 C   0  0  0  0  0  0  0  0  0  0  0  0
   -0.6412   -5.4883    6.6864 C   0  0  0  0  0  0  0  0  0  0  0  0
    0.0507   -6.0829    7.6180 C   0  0  0  0  0  0  0  0  0  0  0  0
    0.8029   -6.7832    8.7091 C   0  0  0  0  0  0  0  0  0  0  0  0
    0.6088   -8.1267    8.7444 N   0  0  0  0  0  0  0  0  0  0  0  0
    1.2014   -8.8582    9.7272 C   0  0  0  0  0  0  0  0  0  0  0  0
    2.0023   -8.2035   10.6756 C   0  0  0  0  0  0  0  0  0  0  0  0
    2.1536   -6.8266   10.5467 C   0  0  0  0  0  0  0  0  0  0  0  0
    1.5721   -6.0444    9.5824 N   0  0  0  0  0  0  0  0  0  0  0  0
    2.9941   -6.5052   11.6123 N   0  0  0  0  0  0  0  0  0  0  0  0
    3.2772   -7.6660   12.3001 C   0  0  0  0  0  0  0  0  0  0  0  0
    2.6886   -8.7081   11.7646 N   0  0  0  0  0  0  0  0  0  0  0  0
    3.4517   -5.1926   12.0410 C   0  0  1  0  0  0  0  0  0  0  0  0
    3.0236   -4.8119   13.4638 C   0  0  1  0  0  0  0  0  0  0  0  0
    4.1442   -3.8792   13.9167 C   0  0  1  0  0  0  0  0  0  0  0  0
    5.3764   -4.4160   13.1826 C   0  0  2  0  0  0  0  0  0  0  0  0
    4.8970   -5.1328   12.0180 O   0  0  0  0  0  0  0  0  0  0  0  0
    6.2049   -5.3359   14.1007 C   0  0  0  0  0  0  0  0  0  0  0  0
    5.8452   -6.4908   14.3394 O   0  0  0  0  0  0  0  0  0  0  0  0
    7.3547   -4.8544   14.6826 N   0  0  0  0  0  0  0  0  0  0  0  0
    7.8777   -3.5283   14.6108 C   0  0  0  0  0  0  0  0  0  0  0  0
    8.7268   -3.0763   13.4543 C   0  0  0  0  0  0  0  0  0  0  0  0
    9.3529   -3.2672   14.8039 C   0  0  0  0  0  0  0  0  0  0  0  0
    3.8550   -2.5258   13.5261 O   0  0  0  0  0  0  0  0  0  0  0  0
    1.7344   -4.2069   13.5063 O   0  0  0  0  0  0  0  0  0  0  0  0
    1.0061  -10.2232    9.7894 N   0  0  0  0  0  0  0  0  0  0  0  0
  1  2  1  0
  2  3  1  0
  3  4  2  0
  3  5  1  0
  5  6  1  0
  5 10  1  0
  6  7  1  0
  7  8  1  0
  8  9  1  0
  8 11  1  0
  9 10  1  0
 11 12  1  0
 12 13  3  0
 13 14  1  0
 14 15  2  0
 14 19  1  0
 15 16  1  0
 16 17  2  0
 16 36  1  0
 17 18  1  0
 17 22  1  0
 18 19  2  0
 18 20  1  0
 20 21  1  0
 21 22  2  0
 23 20  1  1
 23 24  1  0
 23 27  1  0
 24 25  1  0
 24 35  1  6
 25 26  1  0
 25 34  1  6
 26 27  1  0
 26 28  1  1
 28 29  2  0
 28 30  1  0
 30 31  1  0
 31 32  1  0
 31 33  1  0
 32 33  1  0
M  END
>  <DRUGBANK_ID>  (1) 
DB12295

>  <COMMON_NAME>  (1) 
Evodenoson

>  <CAS_NUMBER>  (1) 
844873-47-8

>  <UNII>  (1) 
HZ03U10J2Z

>  <SYNONYMS>  (1) 
Evodenoson

$$$$
