SB4
     RDKit          3D

 25 28  0  0  0  0  0  0  0  0999 V2000
   -0.6995    1.2861    0.2127 C   0  0  0  0  0  0  0  0  0  0  0  0
    0.7425    1.2309   -0.3007 C   0  0  0  0  0  0  0  0  0  0  0  0
    1.4292    0.0218    0.1403 N   0  0  0  0  0  0  0  0  0  0  0  0
    0.7909   -1.1636   -0.4158 C   0  0  0  0  0  0  0  0  0  0  0  0
   -0.6308   -1.1998    0.0720 C   0  0  0  0  0  0  0  0  0  0  0  0
   -1.4927    0.0306   -0.1856 C   0  0  0  0  0  0  0  0  0  0  0  0
   -4.9238   -1.4907    3.9292 C   0  0  0  0  0  0  0  0  0  0  0  0
   -5.6950   -2.2055    4.8374 C   0  0  0  0  0  0  0  0  0  0  0  0
   -6.9666   -2.6151    4.4633 C   0  0  0  0  0  0  0  0  0  0  0  0
   -7.4635   -2.3565    3.1870 C   0  0  0  0  0  0  0  0  0  0  0  0
   -6.6844   -1.6515    2.2670 C   0  0  0  0  0  0  0  0  0  0  0  0
   -5.4193   -1.1972    2.6456 C   0  0  0  0  0  0  0  0  0  0  0  0
   -7.7281   -3.2708    5.3479 F   0  0  0  0  0  0  0  0  0  0  0  0
   -3.2357   -3.4338    1.4412 C   0  0  0  0  0  0  0  0  0  0  0  0
   -2.6930   -2.2333    1.8320 C   0  0  0  0  0  0  0  0  0  0  0  0
   -1.6268   -2.1344    2.6436 N   0  0  0  0  0  0  0  0  0  0  0  0
   -0.9805   -3.2695    2.9276 C   0  0  0  0  0  0  0  0  0  0  0  0
   -1.4214   -4.4861    2.5914 N   0  0  0  0  0  0  0  0  0  0  0  0
   -2.5650   -4.5414    1.8873 C   0  0  0  0  0  0  0  0  0  0  0  0
    0.2378   -3.1750    3.5239 N   0  0  0  0  0  0  0  0  0  0  0  0
   -2.7926   -0.0269    0.5073 N   0  0  0  0  0  0  0  0  0  0  0  0
   -3.7876    0.9141    0.3367 C   0  0  0  0  0  0  0  0  0  0  0  0
   -4.8736    0.6244    1.0192 N   0  0  0  0  0  0  0  0  0  0  0  0
   -4.5587   -0.5161    1.7019 C   0  0  0  0  0  0  0  0  0  0  0  0
   -3.2913   -0.9752    1.3891 C   0  0  0  0  0  0  0  0  0  0  0  0
  1  2  1  0
  1  6  1  0
  2  3  1  0
  3  4  1  0
  4  5  1  0
  5  6  1  0
  6 21  1  0
  7  8  2  0
  7 12  1  0
  8  9  1  0
  9 10  2  0
  9 13  1  0
 10 11  1  0
 11 12  2  0
 12 24  1  0
 14 15  2  0
 14 19  1  0
 15 16  1  0
 15 25  1  0
 16 17  2  0
 17 18  1  0
 17 20  1  0
 18 19  2  0
 21 22  1  0
 21 25  1  0
 22 23  2  0
 23 24  1  0
 24 25  2  0
M  END
>  <DRUGBANK_ID>  (1) 
DB04338

>  <SECONDARY_ACCESSION_NUMBERS>  (1) 
EXPT02849

>  <COMMON_NAME>  (1) 
SB220025

>  <UNII>  (1) 
MX95H97VRG

$$$$
