
     RDKit          3D

  7  6  0  0  0  0  0  0  0  0999 V2000
    0.8908   -0.0160    0.1389 C   0  0  1  0  0  0  0  0  0  0  0  0
    0.1056   -1.3528    0.0999 C   0  0  0  0  0  0  0  0  0  0  0  0
   -0.4453   -1.7704   -0.9204 O   0  0  0  0  0  0  0  0  0  0  0  0
   -0.0130   -2.0667    1.2542 N   0  0  0  0  0  0  0  0  0  0  0  0
    0.5424    0.7250   -1.1089 N   0  0  0  0  0  0  0  0  0  0  0  0
    0.4709    0.8470    1.3407 C   0  0  0  0  0  0  0  0  0  0  0  0
    1.1871    0.3066    2.9352 S   0  0  0  0  0  0  0  0  0  0  0  0
  1  6  1  0
  1  5  1  6
  1  2  1  0
  3  2  2  0
  4  2  1  0
  7  6  1  0
M  END
>  <DRUGBANK_ID>  (1) 
DB03275

>  <SECONDARY_ACCESSION_NUMBERS>  (1) 
EXPT01073

>  <COMMON_NAME>  (1) 
Cysteinamide

>  <CAS_NUMBER>  (1) 
74401-72-2

>  <UNII>  (1) 
055X467671

>  <SYNONYMS>  (1) 
2-amino-3-mercapto-propionamide; L-Cysteinamide

$$$$
