3TH
     RDKit          3D

 23 26  0  0  0  0  0  0  0  0999 V2000
   10.1249   -9.8821    2.7459 Cl  0  0  0  0  0  0  0  0  0  0  0  0
   10.2663   -8.7475    1.4373 C   0  0  0  0  0  0  0  0  0  0  0  0
   10.4441   -7.3786    1.5387 C   0  0  0  0  0  0  0  0  0  0  0  0
   10.6602   -6.8628    0.1824 C   0  0  0  0  0  0  0  0  0  0  0  0
   10.5877   -5.5008   -0.2675 C   0  0  0  0  0  0  0  0  0  0  0  0
    9.7343   -5.3712   -1.5080 C   0  0  0  0  0  0  0  0  0  0  0  0
    9.6638   -6.8608   -1.8779 N   0  0  0  0  0  0  0  0  0  0  0  0
   10.2588   -7.6601   -0.8229 C   0  0  0  0  0  0  0  0  0  0  0  0
   10.0778   -9.2581   -0.2221 S   0  0  0  0  0  0  0  0  0  0  0  0
    8.5418   -4.2636   -2.0672 C   0  0  0  0  0  0  0  0  0  0  0  0
    7.8575   -4.5526   -3.0638 O   0  0  0  0  0  0  0  0  0  0  0  0
    8.1133   -2.9729   -1.5132 N   0  0  0  0  0  0  0  0  0  0  0  0
    8.1895   -2.4434   -0.1187 C   0  0  2  0  0  0  0  0  0  0  0  0
    8.9667   -3.4851    0.5746 C   0  0  0  0  0  0  0  0  0  0  0  0
    7.9838   -4.7228    0.8268 C   0  0  0  0  0  0  0  0  0  0  0  0
    7.9968   -6.0458    0.4648 C   0  0  0  0  0  0  0  0  0  0  0  0
    7.3027   -7.2383    0.6252 C   0  0  0  0  0  0  0  0  0  0  0  0
    6.2067   -7.0991    1.3706 C   0  0  0  0  0  0  0  0  0  0  0  0
    5.8958   -5.7569    1.6536 C   0  0  0  0  0  0  0  0  0  0  0  0
    6.7423   -4.5881    1.3444 C   0  0  0  0  0  0  0  0  0  0  0  0
    6.3586   -3.2776    1.4783 N   0  0  0  0  0  0  0  0  0  0  0  0
    7.0169   -2.1881    0.9086 C   0  0  0  0  0  0  0  0  0  0  0  0
    6.7414   -1.0644    1.2864 O   0  0  0  0  0  0  0  0  0  0  0  0
  1  2  1  0
  2  3  2  0
  2  9  1  0
  3  4  1  0
  4  5  1  0
  4  8  2  0
  5  6  2  0
  6  7  1  0
  6 10  1  0
  7  8  1  0
  8  9  1  0
 10 11  2  0
 10 12  1  0
 13 14  1  0
 13 22  1  0
 13 12  1  6
 14 15  1  0
 15 16  2  0
 15 20  1  0
 16 17  1  0
 17 18  2  0
 18 19  1  0
 19 20  2  0
 20 21  1  0
 21 22  1  0
 22 23  2  0
M  END
>  <DRUGBANK_ID>  (1) 
DB07066

>  <COMMON_NAME>  (1) 
2-CHLORO-N-[(3R)-2-OXO-1,2,3,4-TETRAHYDROQUINOLIN-3-YL]-6H-THIENO[2,3-B]PYRROLE-5-CARBOXAMIDE

$$$$
