
     RDKit          3D

 27 29  0  0  0  0  0  0  0  0999 V2000
   -1.5157   -0.0076   -0.1523 C   0  0  0  0  0  0  0  0  0  0  0  0
   -0.7418    1.2384    0.3359 C   0  0  0  0  0  0  0  0  0  0  0  0
    0.6818    1.1446   -0.0713 C   0  0  0  0  0  0  0  0  0  0  0  0
    1.3851   -0.0768    0.2987 N   0  0  0  0  0  0  0  0  0  0  0  0
    0.6984   -1.2666   -0.1894 C   0  0  0  0  0  0  0  0  0  0  0  0
   -0.7492   -1.2908    0.2667 C   0  0  0  0  0  0  0  0  0  0  0  0
    2.7665   -0.0654   -0.2087 C   0  0  0  0  0  0  0  0  0  0  0  0
    2.9294   -0.0056   -1.7464 C   0  0  0  0  0  0  0  0  0  0  0  0
    2.4217    1.2405   -2.4625 C   0  0  0  0  0  0  0  0  0  0  0  0
    2.9883    2.5064   -1.8374 C   0  0  0  0  0  0  0  0  0  0  0  0
    3.4983    3.4707   -2.7882 C   0  0  0  0  0  0  0  0  0  0  0  0
    3.0977    2.7768   -0.6611 O   0  0  0  0  0  0  0  0  0  0  0  0
    2.6925    3.8425   -3.8605 C   0  0  0  0  0  0  0  0  0  0  0  0
    3.2532    4.6219   -4.8531 C   0  0  0  0  0  0  0  0  0  0  0  0
    4.5826    5.0253   -4.7319 C   0  0  0  0  0  0  0  0  0  0  0  0
    5.3653    4.6779   -3.6302 C   0  0  0  0  0  0  0  0  0  0  0  0
    4.8178    3.8894   -2.6342 C   0  0  0  0  0  0  0  0  0  0  0  0
    5.1247    5.7618   -5.7071 F   0  0  0  0  0  0  0  0  0  0  0  0
   -2.8812    0.0251    0.4796 N   0  0  0  0  0  0  0  0  0  0  0  0
   -2.7661    0.0172    1.9598 C   0  0  0  0  0  0  0  0  0  0  0  0
   -4.1119   -0.0094    2.6422 C   0  0  0  0  0  0  0  0  0  0  0  0
   -4.9381    1.1884    2.2113 C   0  0  0  0  0  0  0  0  0  0  0  0
   -5.0217    1.2611    0.6956 C   0  0  0  0  0  0  0  0  0  0  0  0
   -3.6377    1.2342    0.0718 C   0  0  0  0  0  0  0  0  0  0  0  0
   -1.6564    0.0274   -1.7620 C   0  0  0  0  0  0  0  0  0  0  0  0
   -1.3048   -1.0667   -2.5081 N   0  0  0  0  0  0  0  0  0  0  0  0
   -2.0405    1.0114   -2.3993 O   0  0  0  0  0  0  0  0  0  0  0  0
  1 19  1  0
  1  2  1  0
  2  3  1  0
  3  4  1  0
  4  7  1  0
  4  5  1  0
  5  6  1  0
  6  1  1  0
  7  8  1  0
  8  9  1  0
  9 10  1  0
 10 11  1  0
 10 12  2  0
 11 13  2  0
 13 14  1  0
 14 15  2  0
 15 16  1  0
 15 18  1  0
 16 17  2  0
 17 11  1  0
 19 20  1  0
 20 21  1  0
 21 22  1  0
 22 23  1  0
 23 24  1  0
 24 19  1  0
 25 26  1  0
 25  1  1  0
 25 27  2  0
M  END
>  <DRUGBANK_ID>  (1) 
DB09286

>  <COMMON_NAME>  (1) 
Pipamperone

>  <CAS_NUMBER>  (1) 
1893-33-0

>  <UNII>  (1) 
5402501F0W

>  <SYNONYMS>  (1) 
Carpiperone; Floropipamide; Fluoropipamide; Pipamperona; Pipamperone

$$$$
