PZ2
     RDKit          3D

 27 30  0  0  0  0  0  0  0  0999 V2000
   -0.2393   -0.7694    0.0174 C   0  0  0  0  0  0  0  0  0  0  0  0
    0.9763   -1.4442    0.0112 C   0  0  0  0  0  0  0  0  0  0  0  0
    2.0933   -0.6296    0.0010 C   0  0  0  0  0  0  0  0  0  0  0  0
    2.0533    0.7275   -0.0017 N   0  0  0  0  0  0  0  0  0  0  0  0
    0.8906    1.3781    0.0019 N   0  0  0  0  0  0  0  0  0  0  0  0
   -0.2120    0.6106    0.0080 C   0  0  0  0  0  0  0  0  0  0  0  0
   -1.6109   -1.1204    0.0111 C   0  0  0  0  0  0  0  0  0  0  0  0
   -1.5123    1.0116   -0.0040 N   0  0  0  0  0  0  0  0  0  0  0  0
   -2.3894   -0.0191   -0.0542 N   0  0  0  0  0  0  0  0  0  0  0  0
   -4.5481   -2.9655    3.5601 C   0  0  0  0  0  0  0  0  0  0  0  0
   -4.9244   -2.1077    2.5166 C   0  0  0  0  0  0  0  0  0  0  0  0
   -4.1247   -2.0183    1.3843 C   0  0  0  0  0  0  0  0  0  0  0  0
   -2.9635   -2.7654    1.2157 C   0  0  0  0  0  0  0  0  0  0  0  0
   -2.6201   -3.6752    2.2142 C   0  0  0  0  0  0  0  0  0  0  0  0
   -3.3319   -3.6751    3.4248 C   0  0  0  0  0  0  0  0  0  0  0  0
   -8.0710   -1.3388    5.9942 C   0  0  0  0  0  0  0  0  0  0  0  0
   -9.0515   -1.6625    5.0442 C   0  0  0  0  0  0  0  0  0  0  0  0
   -8.7894   -2.6202    4.0542 C   0  0  0  0  0  0  0  0  0  0  0  0
   -7.5365   -3.2499    4.0080 C   0  0  0  0  0  0  0  0  0  0  0  0
   -6.5240   -2.8346    4.8810 C   0  0  0  0  0  0  0  0  0  0  0  0
   -6.8036   -1.9286    5.9031 C   0  0  0  0  0  0  0  0  0  0  0  0
   -8.3491   -0.3602    7.0949 C   0  0  0  0  0  0  0  0  0  0  0  0
   -9.7513   -2.8699    3.0212 C   0  0  0  0  0  0  0  0  0  0  0  0
  -10.5203   -3.0625    2.1670 N   0  0  0  0  0  0  0  0  0  0  0  0
   -5.2146   -3.2287    4.7446 O   0  0  0  0  0  0  0  0  0  0  0  0
   -6.3720   -0.8749    2.3915 Br  0  0  0  0  0  0  0  0  0  0  0  0
   -2.1499   -2.5336   -0.0301 C   0  0  0  0  0  0  0  0  0  0  0  0
  1  2  2  0
  1  6  1  0
  1  7  1  0
  2  3  1  0
  3  4  2  0
  4  5  1  0
  5  6  2  0
  6  8  1  0
  7  9  2  0
  7 27  1  0
  8  9  1  0
 10 11  2  0
 10 15  1  0
 10 25  1  0
 11 12  1  0
 11 26  1  0
 12 13  2  0
 13 14  1  0
 13 27  1  0
 14 15  2  0
 16 17  2  0
 16 21  1  0
 16 22  1  0
 17 18  1  0
 18 19  2  0
 18 23  1  0
 19 20  1  0
 20 21  2  0
 20 25  1  0
 23 24  3  0
M  END
>  <DRUGBANK_ID>  (1) 
DB08444

>  <COMMON_NAME>  (1) 
3-[2-bromo-4-(1H-pyrazolo[3,4-c]pyridazin-3-ylmethyl)phenoxy]-5-methylbenzonitrile

$$$$
