237
     RDKit          3D

 15 15  0  0  1  0  0  0  0  0999 V2000
   -2.3977   -1.1014   -0.1169 O   0  0  0  0  0  0  0  0  0  0  0  0
    2.4272   -1.0914   -0.0692 O   0  0  0  0  0  0  0  0  0  0  0  0
    0.0045    2.6602   -0.0107 O   0  0  0  0  0  0  0  0  0  0  0  0
   -1.1420    0.7200    0.0310 N   0  0  0  0  0  0  0  0  0  0  0  0
    1.1600    0.7258    0.0207 N   0  0  0  0  0  0  0  0  0  0  0  0
    0.0179   -1.4731   -0.1203 C   0  0  0  0  0  0  0  0  0  0  0  0
   -0.0059   -2.5393    1.0490 C   0  0  0  0  0  0  0  0  0  0  0  0
    0.0669   -2.1027   -1.5344 C   0  0  0  0  0  0  0  0  0  0  0  0
   -1.2529   -3.4733    1.0944 C   0  0  0  0  0  0  0  0  0  0  0  0
   -1.2628   -0.6330   -0.0403 C   0  0  0  0  0  0  0  0  0  0  0  0
    1.2892   -0.6273   -0.0141 C   0  0  0  0  0  0  0  0  0  0  0  0
    1.2502   -3.4314    1.1131 C   0  0  0  0  0  0  0  0  0  0  0  0
    0.1473   -1.1253   -2.6893 C   0  0  0  0  0  0  0  0  0  0  0  0
   -1.4177   -4.4228   -0.0858 C   0  0  0  0  0  0  0  0  0  0  0  0
    0.0071    1.4294    0.0122 C   0  0  0  0  0  0  0  0  0  0  0  0
  1 10  2  0
  2 11  2  0
  3 15  2  0
  4 10  1  0
  4 15  1  0
  5 11  1  0
  5 15  1  0
  6  7  1  0
  6  8  1  0
  6 10  1  0
  6 11  1  0
  7  9  1  0
  7 12  1  0
  8 13  1  0
  9 14  1  0
M  END
>  <DRUGBANK_ID>  (1) 
DB00237

>  <SECONDARY_ACCESSION_NUMBERS>  (1) 
APRD00752

>  <COMMON_NAME>  (1) 
Butabarbital

>  <CAS_NUMBER>  (1) 
125-40-6

>  <UNII>  (1) 
P0078O25A9

>  <SYNONYMS>  (1) 
5-ethyl-5-(1-methylpropyl)-2,4,6(1H,3H,5H)-pyrimidinetrione; 5-ethyl-5-(1-methylpropyl)barbituric acid; 5-sec-butyl-5-ethyl-2,4,6(1H,3H,5H)-pyrimidinetrione; 5-sec-butyl-5-ethylbarbituric acid; 5-sec-butyl-5-ethylpyrimidine-2,4,6(1H,3H,5H)-trione; Butabarbital; Secbutabarbital; Secbutabarbitale; Secbutabarbitalum

$$$$
