DT4
     RDKit          3D

 28 31  0  0  0  0  0  0  0  0999 V2000
    1.0136    0.0856   -0.0539 O   0  0  0  0  0  0  0  0  0  0  0  0
    2.4573   -0.0557   -0.0845 S   0  0  0  0  0  0  0  0  0  0  0  0
    3.1083   -1.1561   -0.7418 O   0  0  0  0  0  0  0  0  0  0  0  0
    3.0656    1.3253   -0.8319 N   0  0  0  0  0  0  0  0  0  0  0  0
    3.0405    0.0348    1.5851 C   0  0  0  0  0  0  0  0  0  0  0  0
    3.2159    1.2522    2.2462 C   0  0  0  0  0  0  0  0  0  0  0  0
    3.5914    1.2637    3.6057 C   0  0  0  0  0  0  0  0  0  0  0  0
    3.7687    0.0669    4.3190 C   0  0  0  0  0  0  0  0  0  0  0  0
    3.5432   -1.1329    3.6256 C   0  0  0  0  0  0  0  0  0  0  0  0
    3.2522   -1.1614    2.2627 C   0  0  0  0  0  0  0  0  0  0  0  0
    4.2121    0.0641    5.6604 N   0  0  0  0  0  0  0  0  0  0  0  0
    4.5515   -1.0658    6.4098 C   0  0  0  0  0  0  0  0  0  0  0  0
    3.9722   -1.2856    7.6759 N   0  0  0  0  0  0  0  0  0  0  0  0
    3.0852   -0.5148    8.3669 N   0  0  0  0  0  0  0  0  0  0  0  0
    2.8791   -1.2457    9.4621 C   0  0  0  0  0  0  0  0  0  0  0  0
    4.2463   -2.4579    8.4075 C   0  0  0  0  0  0  0  0  0  0  0  0
    3.5738   -2.4140    9.5411 N   0  0  0  0  0  0  0  0  0  0  0  0
    5.0808   -3.4416    7.9319 N   0  0  0  0  0  0  0  0  0  0  0  0
    5.6634   -3.2239    6.7826 C   0  0  0  0  0  0  0  0  0  0  0  0
    5.4108   -1.9985    5.9690 C   0  0  0  0  0  0  0  0  0  0  0  0
    6.5382   -4.1505    6.2381 N   0  0  0  0  0  0  0  0  0  0  0  0
    7.9345   -3.7785    5.9605 C   0  0  1  0  0  0  0  0  0  0  0  0
    8.6108   -3.1534    7.1922 C   0  0  0  0  0  0  0  0  0  0  0  0
   10.0548   -2.7479    6.8972 C   0  0  0  0  0  0  0  0  0  0  0  0
   10.8744   -3.9307    6.3782 C   0  0  2  0  0  0  0  0  0  0  0  0
   12.2221   -3.4726    6.0511 N   0  0  0  0  0  0  0  0  0  0  0  0
   10.2007   -4.5556    5.1506 C   0  0  0  0  0  0  0  0  0  0  0  0
    8.7527   -4.9714    5.4479 C   0  0  0  0  0  0  0  0  0  0  0  0
  1  2  2  0
  2  3  2  0
  2  4  1  0
  2  5  1  0
  5  6  2  0
  5 10  1  0
  6  7  1  0
  7  8  2  0
  8  9  1  0
  8 11  1  0
  9 10  2  0
 11 12  1  0
 12 13  1  0
 12 20  2  0
 13 14  1  0
 13 16  1  0
 14 15  2  0
 15 17  1  0
 16 17  2  0
 16 18  1  0
 18 19  2  0
 19 20  1  0
 19 21  1  0
 22 21  1  1
 22 23  1  0
 22 28  1  0
 23 24  1  0
 24 25  1  0
 25 26  1  6
 25 27  1  0
 27 28  1  0
M  END
>  <DRUGBANK_ID>  (1) 
DB07687

>  <COMMON_NAME>  (1) 
4-({5-[(4-AMINOCYCLOHEXYL)AMINO][1,2,4]TRIAZOLO[1,5-A]PYRIMIDIN-7-YL}AMINO)BENZENESULFONAMIDE

$$$$
