
     RDKit          3D

 16 15  0  0  1  0  0  0  0  0999 V2000
    2.9385    8.3466    0.6642 C   0  0  0  0  0  0  0  0  0  0  0  0
    1.6740    8.9589    0.0672 C   0  0  0  0  0  0  0  0  0  0  0  0
    0.5361    8.6626    0.4795 O   0  0  0  0  0  0  0  0  0  0  0  0
    1.9299    9.5657   -1.1663 O   0  0  0  0  0  0  0  0  0  0  0  0
    0.8743    9.4837   -2.2241 C   0  0  0  0  0  0  0  0  0  0  0  0
    0.7319    8.0421   -2.6939 C   0  0  2  0  0  0  0  0  0  0  0  0
    1.5285    7.3881   -1.7216 O   0  0  0  0  0  0  0  0  0  0  0  0
    1.3925    7.4475   -3.9692 C   0  0  0  0  0  0  0  0  0  0  0  0
    1.3950    6.0045   -4.1398 O   0  0  0  0  0  0  0  0  0  0  0  0
    0.1428    4.9786   -4.2248 P   0  0  2  0  0  0  0  0  0  0  0  0
    0.9735    3.7480   -4.8371 O   0  0  0  0  0  0  0  0  0  0  0  0
   -1.0386    5.4510   -4.9809 O   0  0  0  0  0  0  0  0  0  0  0  0
   -0.0348    4.3713   -2.7165 O   0  0  0  0  0  0  0  0  0  0  0  0
    0.4227    5.2552   -1.7186 C   0  0  0  0  0  0  0  0  0  0  0  0
    1.9549    5.0687   -1.4098 C   0  0  0  0  0  0  0  0  0  0  0  0
    2.7163    4.6012   -2.6026 N   0  0  0  0  0  0  0  0  0  0  0  0
  1  2  1  0
  2  3  2  0
  2  4  1  0
  4  5  1  0
  6  8  1  0
  6  7  1  1
  6  5  1  0
  8  9  1  0
 10 12  2  0
 10 13  1  0
 10 11  1  0
 10  9  1  0
 13 14  1  0
 14 15  1  0
 15 16  1  0
M  CHG  1  16   1
M  END
>  <DRUGBANK_ID>  (1) 
DB04731

>  <COMMON_NAME>  (1) 
1-ACETYL-2-LYSO-SN-GLYCERO-3-PHOSPHOETHANOLAMINE

$$$$
