
     RDKit          3D

 29 31  0  0  0  0  0  0  0  0999 V2000
    1.6505   -0.0002   -0.0959 Br  0  0  0  0  0  0  0  0  0  0  0  0
   -7.5425   -4.5098    0.8553 O   0  0  0  0  0  0  0  0  0  0  0  0
   -5.5230   -7.2109    2.4793 O   0  0  0  0  0  0  0  0  0  0  0  0
   -3.6177   -5.3194    0.4287 N   0  0  0  0  0  0  0  0  0  0  0  0
   -4.3536   -0.0478    0.0290 N   0  0  0  0  0  0  0  0  0  0  0  0
   -0.3806    2.4298   -0.2997 N   0  0  0  0  0  0  0  0  0  0  0  0
   -2.3491    1.1464    0.0313 N   0  0  0  0  0  0  0  0  0  0  0  0
   -2.2852   -1.1934   -0.0007 N   0  0  0  0  0  0  0  0  0  0  0  0
   -5.6937   -6.0984    1.5772 C   0  0  2  0  0  0  0  0  0  0  0  0
   -4.3950   -5.2634    1.6751 C   0  0  0  0  0  0  0  0  0  0  0  0
   -7.0763   -5.4619    1.8301 C   0  0  0  0  0  0  0  0  0  0  0  0
   -2.5227   -4.3569    0.4909 C   0  0  0  0  0  0  0  0  0  0  0  0
   -3.1314   -6.6669    0.2055 C   0  0  0  0  0  0  0  0  0  0  0  0
   -6.9277   -3.2909    0.8073 C   0  0  0  0  0  0  0  0  0  0  0  0
   -6.1154   -2.7890    1.8127 C   0  0  0  0  0  0  0  0  0  0  0  0
   -7.0560   -2.5532   -0.3653 C   0  0  0  0  0  0  0  0  0  0  0  0
   -5.2059   -1.1185    0.3087 C   0  0  0  0  0  0  0  0  0  0  0  0
   -5.1705   -1.7983    1.5212 C   0  0  0  0  0  0  0  0  0  0  0  0
   -6.2236   -1.4474   -0.5921 C   0  0  0  0  0  0  0  0  0  0  0  0
   -2.9522   -0.0425    0.0487 C   0  0  0  0  0  0  0  0  0  0  0  0
   -0.9913    1.1849   -0.0555 C   0  0  0  0  0  0  0  0  0  0  0  0
   -0.9829    3.6861   -0.1473 C   0  0  0  0  0  0  0  0  0  0  0  0
   -0.2361    0.0289   -0.0738 C   0  0  0  0  0  0  0  0  0  0  0  0
   -1.7447    4.0133    0.9810 C   0  0  0  0  0  0  0  0  0  0  0  0
   -0.7893    4.6515   -1.1384 C   0  0  0  0  0  0  0  0  0  0  0  0
   -0.9393   -1.1422   -0.0583 C   0  0  0  0  0  0  0  0  0  0  0  0
   -2.3445    5.2671    1.0921 C   0  0  0  0  0  0  0  0  0  0  0  0
   -1.3680    5.9143   -1.0184 C   0  0  0  0  0  0  0  0  0  0  0  0
   -2.1605    6.2152    0.0883 C   0  0  0  0  0  0  0  0  0  0  0  0
  1 23  1  0
  2 11  1  0
  2 14  1  0
  4 10  1  0
  4 12  1  0
  4 13  1  0
  5 17  1  0
  5 20  1  0
  6 21  1  0
  6 22  1  0
  7 20  2  0
  7 21  1  0
  8 20  1  0
  8 26  2  0
  9 11  1  0
  9 10  1  0
  9  3  1  1
 14 15  2  0
 14 16  1  0
 15 18  1  0
 16 19  2  0
 17 18  2  0
 17 19  1  0
 21 23  2  0
 22 24  2  0
 22 25  1  0
 23 26  1  0
 24 27  1  0
 25 28  2  0
 27 29  2  0
 28 29  1  0
M  END
>  <DRUGBANK_ID>  (1) 
DB07504

>  <COMMON_NAME>  (1) 
(2R)-1-{4-[(4-Anilino-5-bromo-2-pyrimidinyl)amino]phenoxy}-3-(dimethylamino)-2-propanol

$$$$
