26987
     RDKit          3D

 24 26  0  0  1  0  0  0  0  0999 V2000
    6.1570   -3.7525    5.3926 Cl  0  0  0  0  0  0  0  0  0  0  0  0
    2.3545    0.3375    0.0024 O   0  0  0  0  0  0  0  0  0  0  0  0
    4.9293   -2.0080    1.4412 N   0  0  0  0  0  0  0  0  0  0  0  0
    3.9414   -0.7156    2.7913 C   0  0  2  0  0  0  0  0  0  0  0  0
    4.5539   -1.2723    3.7363 C   0  0  0  0  0  0  0  0  0  0  0  0
    5.7750   -2.6629    2.4951 C   0  0  0  0  0  0  0  0  0  0  0  0
    6.2568   -2.4051    1.2185 C   0  0  0  0  0  0  0  0  0  0  0  0
    2.0989   -0.5069    2.7093 C   0  0  0  0  0  0  0  0  0  0  0  0
    1.7832    0.4653    1.4531 C   0  0  0  0  0  0  0  0  0  0  0  0
    4.2015   -2.1170   -0.0622 C   0  0  0  0  0  0  0  0  0  0  0  0
    3.8387    0.3874   -0.1840 C   0  0  1  0  0  0  0  0  0  0  0  0
    4.1186   -0.3342    1.0794 C   0  0  0  0  0  0  0  0  0  0  0  0
    4.7745   -0.2837   -1.6129 C   0  0  0  0  0  0  0  0  0  0  0  0
    4.4059    1.7588   -0.0152 C   0  0  0  0  0  0  0  0  0  0  0  0
    5.7861   -0.1070    1.9954 C   0  0  0  0  0  0  0  0  0  0  0  0
    3.1225   -1.9808    1.7144 C   0  0  0  0  0  0  0  0  0  0  0  0
    4.1808   -0.0655   -2.7911 C   0  0  0  0  0  0  0  0  0  0  0  0
    5.8848   -1.5083   -1.6266 C   0  0  0  0  0  0  0  0  0  0  0  0
    6.4511   -1.1193    3.4755 C   0  0  0  0  0  0  0  0  0  0  0  0
    3.8265   -3.0095    3.1947 C   0  0  0  0  0  0  0  0  0  0  0  0
    4.6591   -0.9253   -3.7922 C   0  0  0  0  0  0  0  0  0  0  0  0
    6.1234   -2.4794   -2.5326 C   0  0  0  0  0  0  0  0  0  0  0  0
    5.4729   -2.6758    4.2745 C   0  0  0  0  0  0  0  0  0  0  0  0
    5.5014   -2.1186   -3.6580 C   0  0  0  0  0  0  0  0  0  0  0  0
  1 23  1  0
  2  9  1  0
  3  4  1  0
  3  7  1  0
  3 10  1  0
  4  5  1  0
  4  8  1  1
  5  6  1  0
  6  7  1  0
  8  9  1  0
 11 13  1  0
 11 14  1  1
 11 12  1  0
 11  2  1  0
 12 15  2  0
 12 16  1  0
 13 17  2  0
 13 18  1  0
 15 19  1  0
 16 20  2  0
 17 21  1  0
 18 22  2  0
 19 23  2  0
 20 23  1  0
 21 24  2  0
 22 24  1  0
M  END
>  <DRUGBANK_ID>  (1) 
DB00283

>  <SECONDARY_ACCESSION_NUMBERS>  (1) 
APRD00875

>  <COMMON_NAME>  (1) 
Clemastine

>  <CAS_NUMBER>  (1) 
15686-51-8

>  <UNII>  (1) 
95QN29S1ID

>  <SYNONYMS>  (1) 
(+)-(2R)-2-(2-(((R)-p-chloro-α-methyl-α-phenylbenzyl)oxy)ethyl)-1-methylpyrrolidine; (+)-(2R)-2-[2-[[(R)-p-chloro-α-methyl-α-phenylbenzyl]oxy]ethyl]-1-methylpyrrolidine; Clemastina; Clemastine; Clemastinum

$$$$
