
     RDKit          3D

 19 20  0  0  0  0  0  0  0  0999 V2000
    0.9177    1.5132    0.0273 C   0  0  0  0  0  0  0  0  0  0  0  0
    2.1124    0.8568   -0.0302 C   0  0  0  0  0  0  0  0  0  0  0  0
   -0.1887   -0.7130   -0.1177 C   0  0  0  0  0  0  0  0  0  0  0  0
   -0.2041    0.7002   -0.1008 C   0  0  0  0  0  0  0  0  0  0  0  0
    2.1536   -0.5447   -0.0909 C   0  0  0  0  0  0  0  0  0  0  0  0
   -1.5424   -1.1293   -0.2967 C   0  0  0  0  0  0  0  0  0  0  0  0
   -2.1825    0.0174   -0.7816 C   0  0  0  0  0  0  0  0  0  0  0  0
   -1.4928    1.0702   -0.2540 N   0  0  0  0  0  0  0  0  0  0  0  0
   -2.9794   -2.7917    1.1823 C   0  0  0  0  0  0  0  0  0  0  0  0
   -4.2471   -2.0268    1.3241 N   0  0  0  0  0  0  0  0  0  0  0  0
   -3.9742   -0.6274    1.5939 C   0  0  0  0  0  0  0  0  0  0  0  0
   -2.1223   -2.5217   -0.1133 C   0  0  0  0  0  0  0  0  0  0  0  0
   -5.0735   -2.4497    2.4498 C   0  0  0  0  0  0  0  0  0  0  0  0
    1.0212   -1.4049   -0.0113 C   0  0  0  0  0  0  0  0  0  0  0  0
    1.0209   -2.8165    0.0485 O   0  0  0  0  0  0  0  0  0  0  0  0
    3.4250   -2.5919    0.8695 O   0  0  0  0  0  0  0  0  0  0  0  0
    2.0678   -4.7124    1.0202 O   0  0  0  0  0  0  0  0  0  0  0  0
    2.5346   -3.6536    0.0220 P   0  0  0  0  0  0  0  0  0  0  0  0
    4.0484   -4.4908   -0.0045 O   0  0  0  0  0  0  0  0  0  0  0  0
  1  2  2  0
  3  6  1  0
  3  4  2  0
  3 14  1  0
  4  1  1  0
  4  8  1  0
  5  2  1  0
  6  7  2  0
  6 12  1  0
  7  8  1  0
  9 10  1  0
 10 13  1  0
 10 11  1  0
 12  9  1  0
 14  5  2  0
 14 15  1  0
 15 18  1  0
 18 16  1  0
 18 17  2  0
 18 19  1  0
M  END
>  <DRUGBANK_ID>  (1) 
DB11664

>  <COMMON_NAME>  (1) 
Psilocybin

>  <CAS_NUMBER>  (1) 
520-52-5

>  <UNII>  (1) 
2RV7212BP0

>  <SYNONYMS>  (1) 
Psilocibina; Psilocybin; Psilocybine; Psilocybinum

$$$$
