
     RDKit          3D

 16 15  0  0  1  0  0  0  0  0999 V2000
    1.4112    2.4764    0.8629 C   0  0  0  0  0  0  0  0  0  0  0  0
    1.1299    0.0698    0.1068 C   0  0  0  0  0  0  0  0  0  0  0  0
   -3.2710    1.1243   -0.2500 C   0  0  0  0  0  0  0  0  0  0  0  0
    0.7908    1.1215    1.1963 C   0  0  2  0  0  0  0  0  0  0  0  0
   -3.2402   -0.3157    0.3601 C   0  0  1  0  0  0  0  0  0  0  0  0
   -1.8926   -1.0918    0.4831 C   0  0  0  0  0  0  0  0  0  0  0  0
   -3.8116   -0.2368    1.7208 N   0  0  0  0  0  0  0  0  0  0  0  0
    2.0910    2.4938   -0.3842 O   0  0  0  0  0  0  0  0  0  0  0  0
   -0.5814    1.3615    1.5302 O   0  0  0  0  0  0  0  0  0  0  0  0
   -1.2500   -1.2581    1.4878 O   0  0  0  0  0  0  0  0  0  0  0  0
   -1.4433   -1.4637   -0.7425 O   0  0  0  0  0  0  0  0  0  0  0  0
   -0.5773    2.4459   -1.2105 O   0  0  0  0  0  0  0  0  0  0  0  0
   -0.8866    0.5696   -2.8674 O   0  0  0  0  0  0  0  0  0  0  0  0
    0.7461    0.4407   -1.2482 O   0  0  0  0  0  0  0  0  0  0  0  0
   -2.5980    1.2929   -1.4973 O   0  0  0  0  0  0  0  0  0  0  0  0
   -0.9259    0.8668   -1.3728 P   0  0  1  0  0  0  0  0  0  0  0  0
  4  9  1  6
  4  2  1  0
  4  1  1  0
  5  3  1  0
  5  7  1  1
  6  5  1  0
  8  1  1  0
 10  6  2  0
 11  6  1  0
 14  2  1  0
 15  3  1  0
 16 12  1  6
 16 13  2  0
 16 14  1  0
 16 15  1  0
M  END
>  <DRUGBANK_ID>  (1) 
DB02497

>  <SECONDARY_ACCESSION_NUMBERS>  (1) 
EXPT01649

>  <COMMON_NAME>  (1) 
L-Alpha-Glycerophosphorylserine

$$$$
