
     RDKit          3D

  7  6  0  0  1  0  0  0  0  0999 V2000
    1.0724    1.8647    1.5384 C   0  0  0  0  0  0  0  0  0  0  0  0
    0.4177    0.5196    1.2403 C   0  0  2  0  0  0  0  0  0  0  0  0
    0.8995    0.0068   -0.1219 C   0  0  0  0  0  0  0  0  0  0  0  0
    0.2282    0.6075   -1.2703 N   0  0  0  0  0  0  0  0  0  0  0  0
   -1.1193    0.5097    1.3806 C   0  0  0  0  0  0  0  0  0  0  0  0
   -1.5654   -0.2909    2.2611 O   0  0  0  0  0  0  0  0  0  0  0  0
   -1.7701    1.2419    0.5903 O   0  0  0  0  0  0  0  0  0  0  0  0
  2  5  1  0
  2  3  1  0
  2  1  1  6
  3  4  1  0
  5  6  1  0
  5  7  2  0
M  CHG  1   6  -1
M  END
>  <DRUGBANK_ID>  (1) 
DB03432

>  <SECONDARY_ACCESSION_NUMBERS>  (1) 
EXPT00706

>  <COMMON_NAME>  (1) 
Beta-Amino Isobutyrate

$$$$
