
     RDKit          3D

 14 14  0  0  1  0  0  0  0  0999 V2000
    1.0370    0.1410   -0.0942 C   0  0  0  0  0  0  0  0  0  0  0  0
    0.3472    1.3190    0.6018 C   0  0  2  0  0  0  0  0  0  0  0  0
    0.6600    2.6717   -0.0136 C   0  0  2  0  0  0  0  0  0  0  0  0
    0.6785    3.6082    1.1702 C   0  0  1  0  0  0  0  0  0  0  0  0
    1.2980    2.6949    2.2249 C   0  0  2  0  0  0  0  0  0  0  0  0
   -0.3413    2.9990   -0.9713 O   0  0  0  0  0  0  0  0  0  0  0  0
    1.3897    4.8097    0.9129 O   0  0  0  0  0  0  0  0  0  0  0  0
    2.7129    2.6128    2.1329 O   0  0  0  0  0  0  0  0  0  0  0  0
    1.1930   -0.0115   -3.8507 O   0  0  0  0  0  0  0  0  0  0  0  0
   -0.7265    1.2618   -2.8898 O   0  0  0  0  0  0  0  0  0  0  0  0
    1.7876    2.0952   -2.5716 O   0  0  0  0  0  0  0  0  0  0  0  0
    0.7603   -0.0863   -1.4564 O   0  0  0  0  0  0  0  0  0  0  0  0
    0.7540    1.3899    1.9845 O   0  0  0  0  0  0  0  0  0  0  0  0
    0.8279    0.9751   -2.6518 P   0  0  0  0  0  0  0  0  0  0  0  0
  2  1  1  6
  3  2  1  0
  3  6  1  6
  4  3  1  0
  4  7  1  6
  5  4  1  0
  5  8  1  6
 12  1  1  0
 13  2  1  0
 13  5  1  0
 14  9  1  0
 14 10  1  0
 14 11  2  0
 14 12  1  0
M  END
>  <DRUGBANK_ID>  (1) 
DB04127

>  <SECONDARY_ACCESSION_NUMBERS>  (1) 
EXPT00395

>  <COMMON_NAME>  (1) 
beta-D-arabinofuranose 5-phosphate

>  <SYNONYMS>  (1) 
5-O-phosphono-β-D-arabinofuranose; β-D-arabinofuranose 5-phosphate

$$$$
