
     RDKit          3D

 20 22  0  0  1  0  0  0  0  0999 V2000
   -4.4849   -5.6045   15.8107 C   0  0  0  0  0  0  0  0  0  0  0  0
   -2.3606   -3.8133    7.2459 C   0  0  0  0  0  0  0  0  0  0  0  0
   -4.6129   -5.4237   12.1268 C   0  0  0  0  0  0  0  0  0  0  0  0
   -0.6211   -4.8930   13.8209 C   0  0  0  0  0  0  0  0  0  0  0  0
   -4.0393   -5.4982   14.3888 C   0  0  0  0  0  0  0  0  0  0  0  0
   -2.2832   -3.5760    8.7499 C   0  0  1  0  0  0  0  0  0  0  0  0
   -2.7150   -5.2599   14.0026 C   0  0  0  0  0  0  0  0  0  0  0  0
   -0.1478   -5.0025    9.0393 C   0  0  1  0  0  0  0  0  0  0  0  0
   -0.3728   -5.7470   10.3450 C   0  0  2  0  0  0  0  0  0  0  0  0
   -0.8297   -3.6471    9.2706 C   0  0  2  0  0  0  0  0  0  0  0  0
   -2.4774   -5.1102   12.6401 C   0  0  0  0  0  0  0  0  0  0  0  0
   -0.3534   -4.6121   11.3596 C   0  0  2  0  0  0  0  0  0  0  0  0
   -4.9922   -5.5790   13.4142 N   0  0  0  0  0  0  0  0  0  0  0  0
   -3.3725   -5.1978   11.6471 N   0  0  0  0  0  0  0  0  0  0  0  0
   -1.5517   -5.1310   14.7229 N   0  0  0  0  0  0  0  0  0  0  0  0
   -1.1368   -4.8507   12.5519 N   0  0  0  0  0  0  0  0  0  0  0  0
   -2.8513   -2.2855    9.0063 O   0  0  0  0  0  0  0  0  0  0  0  0
    1.2619   -4.8453    8.8025 O   0  0  0  0  0  0  0  0  0  0  0  0
    0.6413   -6.7182   10.6042 O   0  0  0  0  0  0  0  0  0  0  0  0
   -0.7960   -3.4118   10.7014 O   0  0  0  0  0  0  0  0  0  0  0  0
  5  1  1  0
  6 17  1  0
  6  2  1  6
  7  5  2  0
  8 18  1  1
  9  8  1  0
  9 19  1  1
 10  8  1  0
 10  6  1  0
 11  7  1  0
 12  9  1  0
 12 16  1  1
 13  3  2  0
 13  5  1  0
 14  3  1  0
 14 11  2  0
 15  4  2  0
 15  7  1  0
 16  4  1  0
 16 11  1  0
 10 20  1  1
 20 12  1  0
M  END
>  <DRUGBANK_ID>  (1) 
DB02934

>  <SECONDARY_ACCESSION_NUMBERS>  (1) 
EXPT03003

>  <COMMON_NAME>  (1) 
9-(6-deoxy-alpha-L-talofuranosyl)-6-methylpurine

$$$$
