934
     RDKit          3D

 21 24  0  0  0  0  0  0  0  0999 V2000
    1.5537    0.1321   -0.1596 N   0  0  0  0  0  0  0  0  0  0  0  0
   -1.1742   -2.8228   -0.4277 C   0  0  0  0  0  0  0  0  0  0  0  0
   -3.8333   -2.8952   -0.4164 C   0  0  0  0  0  0  0  0  0  0  0  0
   -1.8043   -2.5484   -1.8580 C   0  0  0  0  0  0  0  0  0  0  0  0
   -3.3404   -2.5564   -1.8330 C   0  0  0  0  0  0  0  0  0  0  0  0
   -1.7443   -4.2056   -0.0534 C   0  0  0  0  0  0  0  0  0  0  0  0
   -1.8827   -1.8209    0.5936 C   0  0  0  0  0  0  0  0  0  0  0  0
    0.3719   -2.9224   -0.6940 C   0  0  0  0  0  0  0  0  0  0  0  0
   -3.1630   -4.2253   -0.0403 C   0  0  0  0  0  0  0  0  0  0  0  0
   -3.2772   -1.8037    0.4933 C   0  0  0  0  0  0  0  0  0  0  0  0
    1.0340   -1.8515   -1.6077 C   0  0  0  0  0  0  0  0  0  0  0  0
   -1.0107   -5.3504    0.2664 C   0  0  0  0  0  0  0  0  0  0  0  0
   -1.3990   -1.0904    1.6937 C   0  0  0  0  0  0  0  0  0  0  0  0
   -3.8331   -5.3857    0.3123 C   0  0  0  0  0  0  0  0  0  0  0  0
   -4.0678   -0.9201    1.2669 C   0  0  0  0  0  0  0  0  0  0  0  0
    0.7568   -0.3763   -1.2904 C   0  0  0  0  0  0  0  0  0  0  0  0
   -1.6924   -6.5152    0.6002 C   0  0  0  0  0  0  0  0  0  0  0  0
   -2.1016   -0.0263    2.2704 C   0  0  0  0  0  0  0  0  0  0  0  0
   -3.0905   -6.5276    0.6308 C   0  0  0  0  0  0  0  0  0  0  0  0
   -3.4478    0.0295    2.0954 C   0  0  0  0  0  0  0  0  0  0  0  0
    1.4076   -0.6937    1.0084 C   0  0  0  0  0  0  0  0  0  0  0  0
  1 16  1  0
  1 21  1  0
  2  4  1  0
  2  6  1  0
  2  7  1  0
  2  8  1  0
  3  5  1  0
  3  9  1  0
  3 10  1  0
  4  5  1  0
  6  9  2  0
  6 12  1  0
  7 10  2  0
  7 13  1  0
  8 11  1  0
  9 14  1  0
 10 15  1  0
 11 16  1  0
 12 17  2  0
 13 18  2  0
 14 19  2  0
 15 20  2  0
 17 19  1  0
 18 20  1  0
M  END
>  <DRUGBANK_ID>  (1) 
DB00934

>  <SECONDARY_ACCESSION_NUMBERS>  (1) 
APRD00747

>  <COMMON_NAME>  (1) 
Maprotiline

>  <CAS_NUMBER>  (1) 
10262-69-8

>  <UNII>  (1) 
2U1W68TROF

>  <SYNONYMS>  (1) 
Maprotilina; Maprotiline; Maprotilinum; Maprotylina

$$$$
