
     RDKit          3D

 35 37  0  0  1  0  0  0  0  0999 V2000
   -2.6809   -5.3910    2.3089 C   0  0  0  0  0  0  0  0  0  0  0  0
   -3.3040   -3.9469    2.2321 C   0  0  0  0  0  0  0  0  0  0  0  0
   -2.7755   -3.0769    3.2560 C   0  0  0  0  0  0  0  0  0  0  0  0
   -1.3469   -3.1752    2.8333 C   0  0  1  0  0  0  0  0  0  0  0  0
   -0.9785   -2.6356    1.3391 C   0  0  0  0  0  0  0  0  0  0  0  0
   -0.2567   -1.6534    1.2691 O   0  0  0  0  0  0  0  0  0  0  0  0
   -1.3549   -3.2562    0.0992 N   0  0  0  0  0  0  0  0  0  0  0  0
   -2.3598   -4.1772   -0.3754 C   0  0  0  0  0  0  0  0  0  0  0  0
   -3.7786   -4.1366   -0.3426 C   0  0  0  0  0  0  0  0  0  0  0  0
   -4.1488   -5.4759   -0.1131 N   0  0  0  0  0  0  0  0  0  0  0  0
   -3.1188   -6.1634   -0.7322 C   0  0  0  0  0  0  0  0  0  0  0  0
   -2.0222   -5.4223   -0.8407 N   0  0  0  0  0  0  0  0  0  0  0  0
   -5.2073   -6.1091    0.7775 C   0  0  0  0  0  0  0  0  0  0  0  0
   -6.3281   -6.4746   -0.1948 C   0  0  0  0  0  0  0  0  0  0  0  0
   -4.8747   -7.4727    1.5590 C   0  0  0  0  0  0  0  0  0  0  0  0
   -5.9006   -5.2525    1.9214 C   0  0  0  0  0  0  0  0  0  0  0  0
   -5.2819   -5.0666    3.2422 N   0  0  0  0  0  0  0  0  0  0  0  0
   -5.7569   -4.0156    4.1226 C   0  0  0  0  0  0  0  0  0  0  0  0
   -7.0114   -4.5116    4.8176 C   0  0  0  0  0  0  0  0  0  0  0  0
   -6.6457   -5.8104    5.5674 C   0  0  0  0  0  0  0  0  0  0  0  0
   -7.4813   -3.4360    5.7891 C   0  0  0  0  0  0  0  0  0  0  0  0
   -8.1496   -4.7278    3.8121 C   0  0  0  0  0  0  0  0  0  0  0  0
   -0.7720   -2.4668    3.9455 N   0  0  0  0  0  0  0  0  0  0  0  0
    0.6147   -2.8441    4.0975 C   0  0  1  0  0  0  0  0  0  0  0  0
    1.2886   -1.6378    4.7006 C   0  0  0  0  0  0  0  0  0  0  0  0
    0.6365   -1.2755    6.0343 C   0  0  0  0  0  0  0  0  0  0  0  0
    0.4720   -2.4718    6.9400 C   0  0  0  0  0  0  0  0  0  0  0  0
    0.2094   -2.2533    8.2940 C   0  0  0  0  0  0  0  0  0  0  0  0
    0.0484   -3.3337    9.1535 C   0  0  0  0  0  0  0  0  0  0  0  0
    0.1206   -4.6400    8.6932 C   0  0  0  0  0  0  0  0  0  0  0  0
    0.3480   -4.8613    7.3437 C   0  0  0  0  0  0  0  0  0  0  0  0
    0.5144   -3.7946    6.4531 C   0  0  0  0  0  0  0  0  0  0  0  0
    0.7728   -4.0872    4.9981 C   0  0  0  0  0  0  0  0  0  0  0  0
    0.4131   -6.1243    6.8957 F   0  0  0  0  0  0  0  0  0  0  0  0
   -0.1725   -3.1033   10.4535 F   0  0  0  0  0  0  0  0  0  0  0  0
  1  2  1  0
  2  3  1  0
  4  3  1  1
  4  5  1  0
  4 23  1  0
  5  6  2  0
  5  7  1  0
  7  8  1  0
  8  9  2  0
  8 12  1  0
  9 10  1  0
 10 11  1  0
 10 13  1  0
 11 12  2  0
 13 14  1  0
 13 15  1  0
 13 16  1  0
 16 17  1  0
 17 18  1  0
 18 19  1  0
 19 20  1  0
 19 21  1  0
 19 22  1  0
 24 25  1  0
 24 33  1  0
 24 23  1  1
 25 26  1  0
 26 27  1  0
 27 28  2  0
 27 32  1  0
 28 29  1  0
 29 30  2  0
 29 35  1  0
 30 31  1  0
 31 32  2  0
 31 34  1  0
 32 33  1  0
M  END
>  <DRUGBANK_ID>  (1) 
DB12005

>  <COMMON_NAME>  (1) 
Nirogacestat

>  <CAS_NUMBER>  (1) 
1290543-63-3

>  <UNII>  (1) 
QZ62892OFJ

>  <SYNONYMS>  (1) 
Nirogacestat

$$$$
