
     RDKit          3D

 16 18  0  0  0  0  0  0  0  0999 V2000
    1.1135   -0.0165    0.0909 C   0  0  0  0  0  0  0  0  0  0  0  0
    0.6802   -0.8599   -1.0591 C   0  0  0  0  0  0  0  0  0  0  0  0
    0.8989   -2.2373   -1.0759 C   0  0  0  0  0  0  0  0  0  0  0  0
    0.5705   -2.9740   -2.2105 C   0  0  0  0  0  0  0  0  0  0  0  0
    0.0197   -2.3538   -3.3389 C   0  0  0  0  0  0  0  0  0  0  0  0
   -0.2180   -0.9768   -3.3068 C   0  0  0  0  0  0  0  0  0  0  0  0
    0.1133   -0.2491   -2.1652 C   0  0  0  0  0  0  0  0  0  0  0  0
   -0.8889    0.0422   -4.5671 S   0  0  0  0  0  0  0  0  0  0  0  0
   -1.1941   -1.0286   -5.9190 C   0  0  0  0  0  0  0  0  0  0  0  0
   -1.7350   -0.3623   -7.0250 C   0  0  0  0  0  0  0  0  0  0  0  0
   -2.0490   -1.0472   -8.1816 C   0  0  0  0  0  0  0  0  0  0  0  0
   -1.8225   -2.4208   -8.2513 C   0  0  0  0  0  0  0  0  0  0  0  0
   -1.2804   -3.0880   -7.1520 C   0  0  0  0  0  0  0  0  0  0  0  0
   -0.9613   -2.4061   -5.9771 C   0  0  0  0  0  0  0  0  0  0  0  0
   -0.2950   -3.4302   -4.7004 S   0  0  0  0  0  0  0  0  0  0  0  0
   -2.1600   -3.1688   -9.4943 C   0  0  0  0  0  0  0  0  0  0  0  0
  1  2  1  0
  2  3  2  0
  2  7  1  0
  3  4  1  0
  4  5  2  0
  5  6  1  0
  5 15  1  0
  6  7  2  0
  6  8  1  0
  8  9  1  0
  9 10  2  0
  9 14  1  0
 10 11  1  0
 11 12  2  0
 12 13  1  0
 12 16  1  0
 13 14  2  0
 14 15  1  0
M  END
>  <DRUGBANK_ID>  (1) 
DB13356

>  <COMMON_NAME>  (1) 
Mesulfen

>  <CAS_NUMBER>  (1) 
135-58-0

>  <UNII>  (1) 
EG6V6W7WDD

>  <SYNONYMS>  (1) 
Mesulfen

$$$$
