MXX
     RDKit          3D

 17 18  0  0  0  0  0  0  0  0999 V2000
   -3.3496    0.0216   -0.0804 O   0  0  0  0  0  0  0  0  0  0  0  0
   -2.1392    0.1482   -0.0231 C   0  0  0  0  0  0  0  0  0  0  0  0
   -1.2069   -0.8565    0.0533 N   0  0  0  0  0  0  0  0  0  0  0  0
   -1.9051   -2.0716    0.2519 C   0  0  0  0  0  0  0  0  0  0  0  0
    0.2578   -0.6814    0.0142 C   0  0  0  0  0  0  0  0  0  0  0  0
    1.2357   -1.7605    0.0005 C   0  0  0  0  0  0  0  0  0  0  0  0
    1.2054   -3.1409   -0.0022 O   0  0  0  0  0  0  0  0  0  0  0  0
    0.0312   -3.8649   -0.2002 C   0  0  0  0  0  0  0  0  0  0  0  0
    2.6102   -1.4589   -0.0138 C   0  0  0  0  0  0  0  0  0  0  0  0
    3.0713   -0.1640   -0.0187 C   0  0  0  0  0  0  0  0  0  0  0  0
    2.1889    0.9234   -0.0131 C   0  0  0  0  0  0  0  0  0  0  0  0
    3.0201    2.0313   -0.0076 O   0  0  0  0  0  0  0  0  0  0  0  0
    2.3794    3.2582    0.0477 C   0  0  0  0  0  0  0  0  0  0  0  0
    0.7495    0.7269   -0.0061 C   0  0  0  0  0  0  0  0  0  0  0  0
   -0.3505    1.8074    0.0016 C   0  0  0  0  0  0  0  0  0  0  0  0
   -0.3050    3.3068   -0.0456 C   0  0  0  0  0  0  0  0  0  0  0  0
   -1.6367    1.4805    0.0128 C   0  0  0  0  0  0  0  0  0  0  0  0
  1  2  2  0
  2 17  1  0
  3  2  1  0
  3  5  1  0
  4  3  1  0
  5 14  2  0
  6  5  1  0
  6  9  2  0
  7  6  1  0
  8  7  1  0
  9 10  1  0
 10 11  2  0
 11 12  1  0
 12 13  1  0
 14 11  1  0
 14 15  1  0
 15 16  1  0
 17 15  2  0
M  END
>  <DRUGBANK_ID>  (1) 
DB08228

>  <COMMON_NAME>  (1) 
5,8-dimethoxy-1,4-dimethylquinolin-2(1H)-one

$$$$
