
     RDKit          3D

 24 25  0  0  1  0  0  0  0  0999 V2000
    1.0439   -0.3194    0.8261 O   0  0  0  0  0  0  0  0  0  0  0  0
   -2.7848    1.5184    2.1255 O   0  0  0  0  0  0  0  0  0  0  0  0
    1.0915   -2.4618    0.3146 O   0  0  0  0  0  0  0  0  0  0  0  0
    1.9418    0.6016   -1.6204 O   0  0  0  0  0  0  0  0  0  0  0  0
    1.0275    1.5270   -3.4326 O   0  0  0  0  0  0  0  0  0  0  0  0
   -1.7161   -0.2655    1.3599 N   0  0  0  0  0  0  0  0  0  0  0  0
   -0.5304   -2.8389   -4.2018 N   0  0  0  0  0  0  0  0  0  0  0  0
   -1.0807    0.4738   -2.3826 N   0  0  0  0  0  0  0  0  0  0  0  0
   -1.9207   -1.5484   -0.8162 C   0  0  0  0  0  0  0  0  0  0  0  0
   -1.1647   -1.4424    0.5357 C   0  0  1  0  0  0  0  0  0  0  0  0
   -1.3496   -2.1708   -2.1560 C   0  0  0  0  0  0  0  0  0  0  0  0
   -1.3964   -3.5382   -2.2707 C   0  0  0  0  0  0  0  0  0  0  0  0
   -0.9668   -3.9338   -3.5329 C   0  0  0  0  0  0  0  0  0  0  0  0
   -2.7418    1.5079   -0.2667 C   0  0  0  0  0  0  0  0  0  0  0  0
   -1.5791    2.1591   -1.1255 C   0  0  0  0  0  0  0  0  0  0  0  0
   -0.9077   -1.7738   -3.4487 C   0  0  0  0  0  0  0  0  0  0  0  0
   -2.3906    0.9108    1.1208 C   0  0  0  0  0  0  0  0  0  0  0  0
   -0.4258    1.2551   -1.4161 C   0  0  2  0  0  0  0  0  0  0  0  0
   -1.9112   -4.4089   -1.3335 C   0  0  0  0  0  0  0  0  0  0  0  0
    0.4072   -1.4958    0.5436 C   0  0  0  0  0  0  0  0  0  0  0  0
   -1.0644   -5.2373   -3.9448 C   0  0  0  0  0  0  0  0  0  0  0  0
   -2.0620   -5.7010   -1.7311 C   0  0  0  0  0  0  0  0  0  0  0  0
   -1.6520   -6.0974   -3.0092 C   0  0  0  0  0  0  0  0  0  0  0  0
    0.9374    1.2943   -2.2387 C   0  0  0  0  0  0  0  0  0  0  0  0
  1 20  1  0
  2 17  2  0
  3 20  2  0
  4 24  1  0
  5 24  2  0
  6 17  1  0
  7 13  1  0
  7 16  1  0
 10  9  1  6
  9 11  1  0
 10  6  1  0
 10 20  1  0
 11 12  1  0
 11 16  2  0
 12 13  2  0
 12 19  1  0
 13 21  1  0
 14 15  1  0
 14 17  1  0
 15 18  1  0
 18  8  1  6
 18 24  1  0
 19 22  2  0
 21 23  2  0
 22 23  1  0
M  END
>  <DRUGBANK_ID>  (1) 
DB05475

>  <COMMON_NAME>  (1) 
Golotimod

>  <CAS_NUMBER>  (1) 
229305-39-9

>  <UNII>  (1) 
637C487Y09

>  <SYNONYMS>  (1) 
Golotimod

$$$$
