
     RDKit          3D

 33 35  0  0  1  0  0  0  0  0999 V2000
    1.5336   -0.1815   -0.7993 C   0  0  0  0  0  0  0  0  0  0  0  0
    0.6448   -1.1905   -1.1857 C   0  0  0  0  0  0  0  0  0  0  0  0
   -0.7388   -0.9003   -1.3281 C   0  0  0  0  0  0  0  0  0  0  0  0
   -1.2476    0.4349   -1.2039 C   0  0  0  0  0  0  0  0  0  0  0  0
   -0.2528    1.4380   -1.1386 C   0  0  0  0  0  0  0  0  0  0  0  0
    1.0799    1.1286   -0.7745 C   0  0  0  0  0  0  0  0  0  0  0  0
   -2.8232    0.6980   -0.8197 C   0  0  0  0  0  0  0  0  0  0  0  0
   -3.4721    1.4733    0.4869 C   0  0  0  0  0  0  0  0  0  0  0  0
   -2.8801    2.6263    1.0941 O   0  0  0  0  0  0  0  0  0  0  0  0
   -1.5211    2.4502    1.3881 C   0  0  0  0  0  0  0  0  0  0  0  0
   -1.1038    1.5408    2.4903 C   0  0  0  0  0  0  0  0  0  0  0  0
   -1.6554    0.0739    2.4406 C   0  0  0  0  0  0  0  0  0  0  0  0
   -1.1898   -0.9456    1.5050 C   0  0  0  0  0  0  0  0  0  0  0  0
    0.2988   -1.1382    1.6950 C   0  0  0  0  0  0  0  0  0  0  0  0
    0.6784   -1.9493    2.8823 C   0  0  0  0  0  0  0  0  0  0  0  0
   -0.0301   -3.2159    2.7386 N   0  0  0  0  0  0  0  0  0  0  0  0
    0.0481   -3.9680    3.9652 C   0  0  0  0  0  0  0  0  0  0  0  0
   -0.5491   -3.2121    5.1804 C   0  0  1  0  0  0  0  0  0  0  0  0
   -2.0187   -2.8141    5.0693 C   0  0  0  0  0  0  0  0  0  0  0  0
   -2.9884   -3.7922    4.8317 C   0  0  0  0  0  0  0  0  0  0  0  0
   -4.3382   -3.4303    4.7635 C   0  0  0  0  0  0  0  0  0  0  0  0
   -4.7577   -2.0882    4.9592 C   0  0  0  0  0  0  0  0  0  0  0  0
   -3.8384   -1.0947    5.3090 C   0  0  0  0  0  0  0  0  0  0  0  0
   -2.4681   -1.4784    5.2738 C   0  0  0  0  0  0  0  0  0  0  0  0
   -1.5819   -0.3220    5.3842 C   0  0  0  0  0  0  0  0  0  0  0  0
   -2.0890    0.7990    4.8487 C   0  0  0  0  0  0  0  0  0  0  0  0
   -3.0234    1.2194    5.8189 C   0  0  0  0  0  0  0  0  0  0  0  0
   -2.6546    2.2192    6.4496 O   0  0  0  0  0  0  0  0  0  0  0  0
   -4.1176    0.3216    5.7305 N   0  0  0  0  0  0  0  0  0  0  0  0
   -6.0807   -1.8018    4.7780 O   0  0  0  0  0  0  0  0  0  0  0  0
   -0.3494   -3.9952    6.3476 O   0  0  0  0  0  0  0  0  0  0  0  0
   -3.4407    1.2794   -1.8947 F   0  0  0  0  0  0  0  0  0  0  0  0
   -3.4491   -0.5444   -0.7101 F   0  0  0  0  0  0  0  0  0  0  0  0
  1  2  2  0
  1  6  1  0
  2  3  1  0
  3  4  2  0
  4  5  1  0
  4  7  1  0
  5  6  2  0
  7  8  1  0
  7 32  1  0
  7 33  1  0
  8  9  1  0
  9 10  1  0
 10 11  1  0
 11 12  1  0
 12 13  1  0
 13 14  1  0
 14 15  1  0
 15 16  1  0
 16 17  1  0
 17 18  1  0
 18 19  1  0
 18 31  1  1
 19 20  2  0
 19 24  1  0
 20 21  1  0
 21 22  2  0
 22 23  1  0
 22 30  1  0
 23 24  2  0
 23 29  1  0
 24 25  1  0
 25 26  2  0
 26 27  1  0
 27 28  2  0
 27 29  1  0
M  END
>  <DRUGBANK_ID>  (1) 
DB12100

>  <COMMON_NAME>  (1) 
Abediterol

>  <CAS_NUMBER>  (1) 
915133-65-2

>  <UNII>  (1) 
QXA167CM6F

>  <SYNONYMS>  (1) 
Abediterol

$$$$
