
     RDKit          3D

  6  4  0  0  0  0  0  0  0  0999 V2000
    0.6728   -0.2612    0.2761 Cl  0  0  0  0  0  0  0  0  0  0  0  0
    0.1881   -1.5952    0.5276 O   0  0  0  0  0  0  0  0  0  0  0  0
    0.2232    0.6996    1.2523 O   0  0  0  0  0  0  0  0  0  0  0  0
    0.2720    0.1909   -1.0458 O   0  0  0  0  0  0  0  0  0  0  0  0
    2.1255   -0.2418    0.2342 O   0  0  0  0  0  0  0  0  0  0  0  0
    2.2789    1.0611   -1.5952 Na  0  0  0  0  0 15  0  0  0  0  0  0
  1  2  1  0
  1  3  1  0
  1  4  1  0
  1  5  1  0
M  CHG  6   1   3   2  -1   3  -1   4  -1   5  -1   6   1
M  END
>  <DRUGBANK_ID>  (1) 
DB16608

>  <COMMON_NAME>  (1) 
Sodium perchlorate

>  <CAS_NUMBER>  (1) 
7601-89-0

>  <UNII>  (1) 
97F4MTY3VA

>  <SYNONYMS>  (1) 
Natriumperchloraat; Natriumperchlorat; Perchlorate de sodium; Perchloric acid, sodium salt

$$$$
