NAM
     RDKit          3D

 16 17  0  0  0  0  0  0  0  0999 V2000
    0.7969    0.2847    0.5848 N   0  0  0  0  0  0  0  0  0  0  0  0
    0.4090    1.5670   -0.0271 C   0  0  1  0  0  0  0  0  0  0  0  0
    1.0553    1.9958   -1.3850 C   0  0  0  0  0  0  0  0  0  0  0  0
   -1.1333    1.5857   -0.0552 C   0  0  0  0  0  0  0  0  0  0  0  0
   -1.8041    2.2072    0.7547 O   0  0  0  0  0  0  0  0  0  0  0  0
   -1.7445    0.7860   -0.9842 N   0  0  0  0  0  0  0  0  0  0  0  0
    0.7551    1.1729   -2.6361 C   0  0  0  0  0  0  0  0  0  0  0  0
    0.0578    1.7839   -3.6950 C   0  0  0  0  0  0  0  0  0  0  0  0
   -0.3534    1.0305   -4.7928 C   0  0  0  0  0  0  0  0  0  0  0  0
   -0.1263   -0.3476   -4.8221 C   0  0  0  0  0  0  0  0  0  0  0  0
    0.5661   -0.9907   -3.7837 C   0  0  0  0  0  0  0  0  0  0  0  0
    0.7790   -2.3875   -3.7743 C   0  0  0  0  0  0  0  0  0  0  0  0
    1.3964   -3.0238   -2.6933 C   0  0  0  0  0  0  0  0  0  0  0  0
    1.9173   -2.2607   -1.6696 C   0  0  0  0  0  0  0  0  0  0  0  0
    1.8745   -0.8769   -1.7838 C   0  0  0  0  0  0  0  0  0  0  0  0
    1.0757   -0.2124   -2.7270 C   0  0  0  0  0  0  0  0  0  0  0  0
  2  1  1  6
  2  3  1  0
  2  4  1  0
  3  7  1  0
  4  5  2  0
  4  6  1  0
  7  8  2  0
  7 16  1  0
  8  9  1  0
  9 10  2  0
 10 11  1  0
 11 12  1  0
 11 16  2  0
 12 13  2  0
 13 14  1  0
 14 15  2  0
 15 16  1  0
M  END
>  <DRUGBANK_ID>  (1) 
DB08253

>  <COMMON_NAME>  (1) 
NAM NAPTHYLAMINOALANINE

$$$$
