
     RDKit          3D

 34 38  0  0  1  0  0  0  0  0999 V2000
   -2.2656    0.0064   -0.0078 C   0  0  0  0  0  0  0  0  0  0  0  0
   -0.7947   -0.2486   -0.0084 C   0  0  0  0  0  0  0  0  0  0  0  0
   -0.2482   -1.4457   -0.0396 N   0  0  0  0  0  0  0  0  0  0  0  0
    1.1498   -1.3546   -0.0887 C   0  0  0  0  0  0  0  0  0  0  0  0
    2.0259   -2.5508   -0.0817 C   0  0  0  0  0  0  0  0  0  0  0  0
    3.2540   -2.4725    0.0017 O   0  0  0  0  0  0  0  0  0  0  0  0
    1.4349   -3.7955    0.0649 N   0  0  0  0  0  0  0  0  0  0  0  0
    1.5461   -4.3940    1.3828 C   0  0  0  0  0  0  0  0  0  0  0  0
    2.0060   -5.8399    1.3094 C   0  0  0  0  0  0  0  0  0  0  0  0
    1.2142   -6.6562    0.2960 C   0  0  0  0  0  0  0  0  0  0  0  0
    1.1209   -5.9599   -1.0644 C   0  0  0  0  0  0  0  0  0  0  0  0
    0.6053   -4.5023   -0.9395 C   0  0  1  0  0  0  0  0  0  0  0  0
   -0.8677   -4.4769   -0.4914 C   0  0  0  0  0  0  0  0  0  0  0  0
   -1.7737   -5.4228   -1.1178 N   0  0  0  0  0  0  0  0  0  0  0  0
   -2.3957   -6.5156   -0.5414 C   0  0  0  0  0  0  0  0  0  0  0  0
   -3.0240   -7.2981   -1.2563 O   0  0  0  0  0  0  0  0  0  0  0  0
   -2.2814   -6.7760    0.9216 C   0  0  0  0  0  0  0  0  0  0  0  0
   -2.4085   -5.7329    1.8633 C   0  0  0  0  0  0  0  0  0  0  0  0
   -2.1016   -5.9195    3.2118 C   0  0  0  0  0  0  0  0  0  0  0  0
   -1.7367   -7.1762    3.6923 C   0  0  0  0  0  0  0  0  0  0  0  0
   -1.7037   -8.2155    2.7631 C   0  0  0  0  0  0  0  0  0  0  0  0
   -1.9638   -8.0684    1.4012 C   0  0  0  0  0  0  0  0  0  0  0  0
   -1.7647   -9.3646    0.8444 C   0  0  0  0  0  0  0  0  0  0  0  0
   -1.4626  -10.2045    1.8916 C   0  0  0  0  0  0  0  0  0  0  0  0
   -1.4007   -9.5100    3.0561 O   0  0  0  0  0  0  0  0  0  0  0  0
    1.6273   -0.0425   -0.0359 C   0  0  0  0  0  0  0  0  0  0  0  0
    0.3094    1.0622    0.0161 S   0  0  0  0  0  0  0  0  0  0  0  0
    3.0077    0.4603   -0.0397 C   0  0  0  0  0  0  0  0  0  0  0  0
    3.8672    0.0968   -1.0899 C   0  0  0  0  0  0  0  0  0  0  0  0
    5.2190    0.4386   -1.0613 C   0  0  0  0  0  0  0  0  0  0  0  0
    5.7104    1.1827    0.0008 C   0  0  0  0  0  0  0  0  0  0  0  0
    7.0082    1.5127    0.0286 F   0  0  0  0  0  0  0  0  0  0  0  0
    4.8760    1.5829    1.0389 C   0  0  0  0  0  0  0  0  0  0  0  0
    3.5246    1.2173    1.0246 C   0  0  0  0  0  0  0  0  0  0  0  0
  1  2  1  0
  2  3  2  0
  2 27  1  0
  3  4  1  0
  4  5  1  0
  4 26  2  0
  5  6  2  0
  5  7  1  0
  7  8  1  0
  8  9  1  0
  9 10  1  0
 10 11  1  0
 12 11  1  0
 12  7  1  0
 12 13  1  1
 13 14  1  0
 14 15  1  0
 15 16  2  0
 15 17  1  0
 17 18  2  0
 17 22  1  0
 18 19  1  0
 19 20  2  0
 20 21  1  0
 21 22  2  0
 21 25  1  0
 22 23  1  0
 23 24  2  0
 24 25  1  0
 26 27  1  0
 26 28  1  0
 28 29  2  0
 28 34  1  0
 29 30  1  0
 30 31  2  0
 31 32  1  0
 31 33  1  0
 33 34  2  0
M  END
>  <DRUGBANK_ID>  (1) 
DB14822

>  <COMMON_NAME>  (1) 
SB-649868

>  <CAS_NUMBER>  (1) 
380899-24-1

>  <UNII>  (1) 
1L1V1K2M4V

$$$$
