
     RDKit          3D

  5  4  0  0  0  0  0  0  0  0999 V2000
    1.0403    0.0904    0.0141 O   0  0  0  0  0  0  0  0  0  0  0  0
    2.5887    0.0904    0.0141 P   0  0  0  0  0  0  0  0  0  0  0  0
    2.7233    0.9713   -1.3484 O   0  0  0  0  0  0  0  0  0  0  0  0
    2.7202    1.2975    1.0961 O   0  0  0  0  0  0  0  0  0  0  0  0
    4.3187    0.0904    0.0141 O   0  0  0  0  0  0  0  0  0  0  0  0
  2  1  2  0
  3  2  1  0
  4  2  1  0
  5  2  1  0
M  END
>  <DRUGBANK_ID>  (1) 
DB09394

>  <COMMON_NAME>  (1) 
Phosphoric acid

>  <CAS_NUMBER>  (1) 
7664-38-2

>  <UNII>  (1) 
E4GA8884NN

$$$$
