
     RDKit          3D

 12  8  0  0  0  0  0  0  0  0999 V2000
    0.9946    0.0671   -0.0739 Al  0  0  0  0  0 15  0  0  0  0  0  0
    1.0968    0.0225   -0.0111 K   0  0  0  0  0 15  0  0  0  0  0  0
    1.0560    0.0518    0.0647 O   0  0  0  0  0  0  0  0  0  0  0  0
    2.7660    0.0518    0.0647 S   0  0  0  0  0  0  0  0  0  0  0  0
    3.3360    1.4792   -0.6847 O   0  0  0  0  0  0  0  0  0  0  0  0
    3.2761   -0.0062    1.5064 O   0  0  0  0  0  0  0  0  0  0  0  0
    3.2761   -1.1678   -0.7064 O   0  0  0  0  0  0  0  0  0  0  0  0
    0.9630   -0.0317   -0.0873 O   0  0  0  0  0  0  0  0  0  0  0  0
    2.6730   -0.0317   -0.0873 S   0  0  0  0  0  0  0  0  0  0  0  0
    3.2430   -1.6110   -0.4112 O   0  0  0  0  0  0  0  0  0  0  0  0
    3.1831    0.9261   -1.1665 O   0  0  0  0  0  0  0  0  0  0  0  0
    3.1831    0.4240    1.2817 O   0  0  0  0  0  0  0  0  0  0  0  0
  3  4  1  0
  4  5  1  0
  4  6  2  0
  4  7  2  0
  8  9  1  0
  9 10  1  0
  9 11  2  0
  9 12  2  0
M  CHG  6   1   3   2   1   3  -1   5  -1   8  -1  10  -1
M  END
>  <DRUGBANK_ID>  (1) 
DB09087

>  <COMMON_NAME>  (1) 
Potassium alum

>  <CAS_NUMBER>  (1) 
10043-67-1

>  <UNII>  (1) 
09OXB01F3O

>  <SYNONYMS>  (1) 
Alum, potassium; Aluminium potassium bis(sulphate); Aluminium potassium sulfate; Aluminum potassium alum; Aluminum potassium disulfate; Aluminum potassium sulfate; Aluminum potassium sulfate anhydrous; Burnt potassium alum; Potash alum; Potassium aluminium sulfate; Potassium aluminum disulfate

$$$$
