
     RDKit          3D

 20 21  0  0  0  0  0  0  0  0999 V2000
   -4.2528   -1.2590   -0.0826 C   0  0  0  0  0  0  0  0  0  0  0  0
   -5.6491   -1.3940   -0.0538 C   0  0  0  0  0  0  0  0  0  0  0  0
   -3.5879   -2.5084   -0.1424 C   0  0  0  0  0  0  0  0  0  0  0  0
   -4.2718   -3.7459   -0.0926 C   0  0  0  0  0  0  0  0  0  0  0  0
   -6.3481   -2.5999   -0.0822 C   0  0  0  0  0  0  0  0  0  0  0  0
   -5.6493   -3.7831   -0.0686 C   0  0  0  0  0  0  0  0  0  0  0  0
   -6.3927   -4.9147   -0.0296 O   0  0  0  0  0  0  0  0  0  0  0  0
   -3.4773    0.0788   -0.0218 C   0  0  0  0  0  0  0  0  0  0  0  0
   -4.0242    1.3462   -0.0495 C   0  0  0  0  0  0  0  0  0  0  0  0
   -5.5050    1.7239   -0.1436 C   0  0  0  0  0  0  0  0  0  0  0  0
   -6.1901    2.1602    1.1534 C   0  0  0  0  0  0  0  0  0  0  0  0
   -3.1925    2.6077   -0.0485 C   0  0  0  0  0  0  0  0  0  0  0  0
   -1.9337   -0.0838    0.0657 C   0  0  0  0  0  0  0  0  0  0  0  0
   -1.3914   -0.7037    1.3486 C   0  0  0  0  0  0  0  0  0  0  0  0
   -1.7544    5.0309   -0.0593 C   0  0  0  0  0  0  0  0  0  0  0  0
   -1.4046    4.0156   -0.9411 C   0  0  0  0  0  0  0  0  0  0  0  0
   -2.8004    4.8611    0.8249 C   0  0  0  0  0  0  0  0  0  0  0  0
   -3.4650    3.6388    0.8650 C   0  0  0  0  0  0  0  0  0  0  0  0
   -2.1655    2.8388   -0.9785 C   0  0  0  0  0  0  0  0  0  0  0  0
   -1.0863    6.2153   -0.0108 O   0  0  0  0  0  0  0  0  0  0  0  0
  2  1  2  0
  3  1  1  0
  4  3  2  0
  5  2  1  0
  5  6  2  0
  6  4  1  0
  7  6  1  0
  8  1  1  0
  9  8  2  0
 10  9  1  0
 11 10  1  0
 12  9  1  0
 12 18  1  0
 13  8  1  0
 14 13  1  0
 16 15  2  0
 17 15  1  0
 18 17  2  0
 19 16  1  0
 19 12  2  0
 20 15  1  0
M  END
>  <DRUGBANK_ID>  (1) 
DB00255

>  <SECONDARY_ACCESSION_NUMBERS>  (1) 
APRD00920; EXPT01164

>  <COMMON_NAME>  (1) 
Diethylstilbestrol

>  <CAS_NUMBER>  (1) 
56-53-1

>  <UNII>  (1) 
731DCA35BT

>  <SYNONYMS>  (1) 
(E)-3,4-bis(4-hydroxyphenyl)-3-hexene; (E)-4,4'-(1,2-diethyl-1,2-ethenediyl)bisphenol; 4,4'-dihydroxy-α,β-diethylstilbene; DES; Diethylstilbestrol; Diéthylstilbestrol; Diethylstilbestrolum; Dietilestilbestrol; Stilboestrol; trans-4,4'-(1,2-diethyl-1,2-ethenediyl)bisphenol; trans-Diethylstilbesterol; trans-Diethylstilbestrol; trans-Diethylstilboesterol; α,α'-diethyl-(E)-4,4'-stilbenediol

$$$$
