
     RDKit          3D

 30 34  0  0  0  0  0  0  0  0999 V2000
    2.2166   -0.1996    0.0609 F   0  0  0  0  0  0  0  0  0  0  0  0
    0.8905   -0.0511   -0.0087 C   0  0  0  0  0  0  0  0  0  0  0  0
    0.2752    1.2034   -0.0565 C   0  0  0  0  0  0  0  0  0  0  0  0
   -1.1428    1.2372   -0.0296 C   0  0  0  0  0  0  0  0  0  0  0  0
   -1.8964    0.0367    0.0128 C   0  0  0  0  0  0  0  0  0  0  0  0
   -3.4169    0.0087    0.0048 C   0  0  0  0  0  0  0  0  0  0  0  0
   -3.9553   -0.6902   -1.2514 C   0  0  0  0  0  0  0  0  0  0  0  0
   -3.6988   -1.9601   -1.3957 N   0  0  0  0  0  0  0  0  0  0  0  0
   -3.9988   -2.5619   -2.5766 N   0  0  0  0  0  0  0  0  0  0  0  0
   -4.4726   -1.9257   -3.6947 C   0  0  0  0  0  0  0  0  0  0  0  0
   -4.5847   -2.4947   -4.7794 O   0  0  0  0  0  0  0  0  0  0  0  0
   -4.8864   -0.5256   -3.5100 C   0  0  0  0  0  0  0  0  0  0  0  0
   -5.5284    0.1608   -4.5445 C   0  0  0  0  0  0  0  0  0  0  0  0
   -6.0098    1.4503   -4.3230 C   0  0  0  0  0  0  0  0  0  0  0  0
   -5.8510    2.0499   -3.0754 C   0  0  0  0  0  0  0  0  0  0  0  0
   -5.1841    1.3757   -2.0530 C   0  0  0  0  0  0  0  0  0  0  0  0
   -4.6835    0.0890   -2.2753 C   0  0  0  0  0  0  0  0  0  0  0  0
   -1.2181   -1.1890    0.0430 C   0  0  0  0  0  0  0  0  0  0  0  0
    0.1623   -1.2301    0.0189 C   0  0  0  0  0  0  0  0  0  0  0  0
    1.1027    2.4684   -0.0145 C   0  0  0  0  0  0  0  0  0  0  0  0
    0.5372    3.5518    0.1064 O   0  0  0  0  0  0  0  0  0  0  0  0
    2.4758    2.2911    0.0582 N   0  0  0  0  0  0  0  0  0  0  0  0
    3.4352    1.9394   -0.9997 C   0  0  0  0  0  0  0  0  0  0  0  0
    4.3495    3.0511   -0.4476 C   0  0  0  0  0  0  0  0  0  0  0  0
    5.8537    2.7797   -0.3297 C   0  0  0  0  0  0  0  0  0  0  0  0
    6.4806    2.6998   -1.6617 N   0  0  0  0  0  0  0  0  0  0  0  0
    7.9418    2.5178   -1.5910 C   0  0  0  0  0  0  0  0  0  0  0  0
    8.8485    3.3408   -2.4666 C   0  0  0  0  0  0  0  0  0  0  0  0
    8.6434    1.8859   -2.7659 C   0  0  0  0  0  0  0  0  0  0  0  0
    3.4945    2.9877    0.8365 C   0  0  0  0  0  0  0  0  0  0  0  0
  1  2  1  0
  2  3  2  0
  2 19  1  0
  3  4  1  0
  3 20  1  0
  4  5  2  0
  5  6  1  0
  5 18  1  0
  6  7  1  0
  7  8  2  0
  7 17  1  0
  8  9  1  0
  9 10  1  0
 10 11  2  0
 10 12  1  0
 12 13  1  0
 12 17  2  0
 13 14  2  0
 14 15  1  0
 15 16  2  0
 16 17  1  0
 18 19  2  0
 20 21  2  0
 20 22  1  0
 22 23  1  0
 22 30  1  0
 23 24  1  0
 24 25  1  0
 24 30  1  0
 25 26  1  0
 26 27  1  0
 27 28  1  0
 27 29  1  0
 28 29  1  0
M  END
>  <DRUGBANK_ID>  (1) 
DB17105

>  <COMMON_NAME>  (1) 
Venadaparib

>  <CAS_NUMBER>  (1) 
1681017-83-3

>  <UNII>  (1) 
PUP792O0IW

>  <SYNONYMS>  (1) 
1(2h)-phthalazinone, 4-((3-((3-((cyclopropylamino)methyl)-1-azetidinyl)carbonyl)-4-fluorophenyl)methyl)-; 4-((3-((3-((cyclopropylamino)methyl)-1-azetidinyl)carbonyl)-4-fluorophenyl)methyl)-1(2h)-phthalazinone

$$$$
