
     RDKit          3D

 10 11  0  0  0  0  0  0  0  0999 V2000
    3.3524    0.6364    0.0114 C   0  0  0  0  0  0  0  0  0  0  0  0
    1.9180    0.1899   -0.0009 C   0  0  0  0  0  0  0  0  0  0  0  0
    0.8856    1.1457    0.0040 C   0  0  0  0  0  0  0  0  0  0  0  0
   -0.4261    0.6609    0.0007 C   0  0  0  0  0  0  0  0  0  0  0  0
   -0.7394   -0.6945    0.0017 C   0  0  0  0  0  0  0  0  0  0  0  0
    0.2960   -1.6369   -0.0019 C   0  0  0  0  0  0  0  0  0  0  0  0
    1.6193   -1.1805   -0.0083 C   0  0  0  0  0  0  0  0  0  0  0  0
   -2.0993   -0.8862    0.0064 N   0  0  0  0  0  0  0  0  0  0  0  0
   -2.6159    0.3210    0.0033 C   0  0  0  0  0  0  0  0  0  0  0  0
   -1.6477    1.2851   -0.0034 N   0  0  0  0  0  0  0  0  0  0  0  0
  1  2  1  0
  2  3  2  0
  2  7  1  0
  3  4  1  0
  4  5  2  0
  4 10  1  0
  5  6  1  0
  5  8  1  0
  6  7  2  0
  8  9  2  0
  9 10  1  0
M  END
>  <DRUGBANK_ID>  (1) 
DB03177

>  <SECONDARY_ACCESSION_NUMBERS>  (1) 
EXPT00250

>  <COMMON_NAME>  (1) 
5-methylbenzimidazole

>  <CAS_NUMBER>  (1) 
614-97-1

>  <UNII>  (1) 
R56855UC8Y

>  <SYNONYMS>  (1) 
5-methyl-1H-benzimidazole; 6-methyl-1H-benzimidazole

$$$$
