
     RDKit          3D

 35 37  0  0  0  0  0  0  0  0999 V2000
    1.5677   -0.7329   -0.1641 C   0  0  2  0  0  0  0  0  0  0  0  0
    2.0477    0.5743    0.1203 O   0  0  0  0  0  0  0  0  0  0  0  0
    0.4730   -1.0489    0.8084 C   0  0  0  0  0  0  0  0  0  0  0  0
   -0.1168    0.2932    0.9275 C   0  0  2  0  0  0  0  0  0  0  0  0
   -1.0246    0.6249    0.0169 O   0  0  0  0  0  0  0  0  0  0  0  0
    0.9580    1.2866    0.6421 C   0  0  1  0  0  0  0  0  0  0  0  0
    1.1094    1.9501    1.9605 C   0  0  0  0  0  0  0  0  0  0  0  0
    0.2884    3.0702    1.8051 O   0  0  0  0  0  0  0  0  0  0  0  0
   -0.7780    5.0299    1.0435 O   0  0  0  0  0  0  0  0  0  0  0  0
   -2.7308    3.4247    0.9032 O   0  0  0  0  0  0  0  0  0  0  0  0
   -2.2308    2.1471    0.5332 C   0  0  1  0  0  0  0  0  0  0  0  0
   -3.0858    0.7328    0.8685 O   0  0  0  0  0  0  0  0  0  0  0  0
   -2.4169   -0.8273    0.6356 C   0  0  2  0  0  0  0  0  0  0  0  0
   -0.7869    0.5110   -1.8872 C   0  0  1  0  0  0  0  0  0  0  0  0
   -0.7584    0.5048   -3.2852 O   0  0  0  0  0  0  0  0  0  0  0  0
   -1.5228    2.0709   -1.2425 C   0  0  1  0  0  0  0  0  0  0  0  0
   -1.6387   -1.0271   -1.1221 C   0  0  1  0  0  0  0  0  0  0  0  0
   -0.9873   -2.2785   -1.4284 O   0  0  0  0  0  0  0  0  0  0  0  0
   -2.6824    5.8986    0.0624 O   0  0  0  0  0  0  0  0  0  0  0  0
   -2.0084    4.5375   -0.0686 P   0  0  1  0  0  0  0  0  0  0  0  0
   -3.2387    4.0452   -1.1808 O   0  0  0  0  0  0  0  0  0  0  0  0
    1.6992    5.2106    2.0425 O   0  0  0  0  0  0  0  0  0  0  0  0
    0.6844    4.4845    1.2376 P   0  0  1  0  0  0  0  0  0  0  0  0
    1.0121    4.5794   -0.3203 O   0  0  0  0  0  0  0  0  0  0  0  0
   -2.6675    2.0643   -2.0824 O   0  0  0  0  0  0  0  0  0  0  0  0
   -3.2083   -1.9035    1.3159 C   0  0  0  0  0  0  0  0  0  0  0  0
    2.7979   -2.4710   -1.2142 C   0  0  0  0  0  0  0  0  0  0  0  0
    4.3036   -2.6773    1.0297 N   0  0  0  0  0  0  0  0  0  0  0  0
    2.6148   -1.6516   -0.1298 N   0  0  0  0  0  0  0  0  0  0  0  0
    4.4303   -3.6954    0.0918 C   0  0  0  0  0  0  0  0  0  0  0  0
    5.1225   -4.6288    0.2552 O   0  0  0  0  0  0  0  0  0  0  0  0
    3.3074   -1.7679    1.0549 C   0  0  0  0  0  0  0  0  0  0  0  0
    3.0486   -1.1422    2.0800 O   0  0  0  0  0  0  0  0  0  0  0  0
    3.6001   -3.5135   -1.1468 C   0  0  0  0  0  0  0  0  0  0  0  0
    3.6854   -4.5265   -2.2278 C   0  0  0  0  0  0  0  0  0  0  0  0
  1 29  1  1
  2  1  1  0
  2  6  1  0
  3  1  1  0
  4  3  1  0
  4  5  1  6
  6  4  1  0
  6  7  1  1
  7  8  1  0
  8 23  1  0
  9 20  1  0
 11 10  1  6
 12 11  1  0
 12 13  1  0
 13 17  1  0
 13 26  1  6
 14 16  1  0
 14 15  1  6
 16 11  1  0
 16 25  1  6
 17 14  1  0
 17 18  1  1
 20 10  1  0
 20 19  2  0
 20 21  1  6
 23  9  1  0
 23 22  2  0
 23 24  1  6
 27 34  2  0
 28 32  1  0
 29 27  1  0
 30 28  1  0
 30 34  1  0
 30 31  2  0
 32 29  1  0
 32 33  2  0
 34 35  1  0
M  END
>  <DRUGBANK_ID>  (1) 
DB03723

>  <SECONDARY_ACCESSION_NUMBERS>  (1) 
EXPT03108

>  <COMMON_NAME>  (1) 
2'-Deoxy-thymidine-beta-L-rhamnose

>  <CAS_NUMBER>  (1) 
2147-59-3

>  <SYNONYMS>  (1) 
dTDP-6-deoxy-L-mannose; dTDP-6-deoxy-β-L-mannose; dTDP-L-rhamnose; dTDP-β-L-rhamnose; Thymidine diphosphate-L-rhamnose

$$$$
