566
     RDKit          3D

 21 23  0  0  0  0  0  0  0  0999 V2000
   -1.4086    0.3315   -0.2208 C   0  0  0  0  0  0  0  0  0  0  0  0
   -0.9749   -1.0511    0.2600 C   0  0  0  0  0  0  0  0  0  0  0  0
    0.4606   -1.4076   -0.1840 C   0  0  0  0  0  0  0  0  0  0  0  0
    1.4363   -0.3011    0.2354 C   0  0  0  0  0  0  0  0  0  0  0  0
    0.9933    1.0781   -0.2390 C   0  0  0  0  0  0  0  0  0  0  0  0
   -0.4226    1.4032    0.2217 C   0  0  0  0  0  0  0  0  0  0  0  0
    0.1329   -3.8818    0.0240 C   0  0  0  0  0  0  0  0  0  0  0  0
    0.6078   -4.9710    0.9447 C   0  0  0  0  0  0  0  0  0  0  0  0
    2.0217   -4.5224    1.3223 C   0  0  1  0  0  0  0  0  0  0  0  0
    1.8845   -2.9949    1.3093 C   0  0  0  0  0  0  0  0  0  0  0  0
    0.8609   -2.7369    0.3072 N   0  0  0  0  0  0  0  0  0  0  0  0
    3.2820   -6.9253    4.8997 C   0  0  0  0  0  0  0  0  0  0  0  0
    3.8034   -7.3422    6.1287 C   0  0  0  0  0  0  0  0  0  0  0  0
    5.1660   -7.2259    6.3839 C   0  0  0  0  0  0  0  0  0  0  0  0
    6.0125   -6.7500    5.3836 C   0  0  0  0  0  0  0  0  0  0  0  0
    5.4973   -6.3956    4.1252 C   0  0  0  0  0  0  0  0  0  0  0  0
    4.1139   -6.4046    3.9040 C   0  0  0  0  0  0  0  0  0  0  0  0
    2.4318   -5.0627    2.6889 C   0  0  0  0  0  0  0  0  0  0  0  0
    3.5755   -5.8682    2.6996 N   0  0  0  0  0  0  0  0  0  0  0  0
    1.7830   -4.7645    3.6901 O   0  0  0  0  0  0  0  0  0  0  0  0
   -0.7788   -3.9910   -0.7853 O   0  0  0  0  0  0  0  0  0  0  0  0
  1  2  1  0
  1  6  1  0
  2  3  1  0
  3  4  1  0
  3 11  1  0
  4  5  1  0
  5  6  1  0
  7  8  1  0
  7 11  1  0
  7 21  2  0
  8  9  1  0
  9 10  1  0
  9 18  1  1
 10 11  1  0
 12 13  2  0
 12 17  1  0
 13 14  1  0
 14 15  2  0
 15 16  1  0
 16 17  2  0
 17 19  1  0
 18 19  1  0
 18 20  2  0
M  END
>  <DRUGBANK_ID>  (1) 
DB07155

>  <COMMON_NAME>  (1) 
(3S)-1-CYCLOHEXYL-5-OXO-N-PHENYLPYRROLIDINE-3-CARBOXAMIDE

$$$$
