
     RDKit          3D

 26 29  0  0  1  0  0  0  0  0999 V2000
   -3.7511    6.5603    1.2017 C   0  0  0  0  0  0  0  0  0  0  0  0
   -4.9894    5.9331    1.0246 C   0  0  0  0  0  0  0  0  0  0  0  0
   -5.0845    4.5420    0.9696 C   0  0  0  0  0  0  0  0  0  0  0  0
   -3.9051    3.8016    1.0659 C   0  0  0  0  0  0  0  0  0  0  0  0
   -2.6958    4.4414    1.2935 C   0  0  0  0  0  0  0  0  0  0  0  0
   -2.5682    5.8267    1.3611 C   0  0  0  0  0  0  0  0  0  0  0  0
   -1.7896    3.4192    1.4158 N   0  0  0  0  0  0  0  0  0  0  0  0
   -2.4745    2.2381    1.2460 C   0  0  0  0  0  0  0  0  0  0  0  0
   -3.7283    2.4589    0.9319 N   0  0  0  0  0  0  0  0  0  0  0  0
   -1.8153    0.9109    1.3472 C   0  0  0  0  0  0  0  0  0  0  0  0
   -2.2556    0.0670    2.4812 N   0  0  0  0  0  0  0  0  0  0  0  0
   -1.4285   -1.1449    2.4757 C   0  0  0  0  0  0  0  0  0  0  0  0
    0.0411   -0.9399    2.8117 C   0  0  0  0  0  0  0  0  0  0  0  0
    0.2122   -0.2381    4.1665 C   0  0  0  0  0  0  0  0  0  0  0  0
   -0.3791   -0.9977    5.3646 C   0  0  0  0  0  0  0  0  0  0  0  0
    0.2056   -2.3306    5.4964 N   0  0  0  0  0  0  0  0  0  0  0  0
   -3.7444   -0.1784    2.4539 C   0  0  1  0  0  0  0  0  0  0  0  0
   -4.1749   -1.6551    2.3006 C   0  0  0  0  0  0  0  0  0  0  0  0
   -4.0659   -2.4370    3.6066 C   0  0  0  0  0  0  0  0  0  0  0  0
   -4.9864   -1.8627    4.6576 C   0  0  0  0  0  0  0  0  0  0  0  0
   -5.0118   -0.3603    4.6841 C   0  0  0  0  0  0  0  0  0  0  0  0
   -4.4691    0.4423    3.6717 C   0  0  0  0  0  0  0  0  0  0  0  0
   -4.5977    1.7972    3.7102 N   0  0  0  0  0  0  0  0  0  0  0  0
   -5.2561    2.3652    4.7421 C   0  0  0  0  0  0  0  0  0  0  0  0
   -5.7958    1.6457    5.7866 C   0  0  0  0  0  0  0  0  0  0  0  0
   -5.6676    0.2652    5.7532 C   0  0  0  0  0  0  0  0  0  0  0  0
  1  2  2  0
  1  6  1  0
  2  3  1  0
  3  4  2  0
  4  5  1  0
  4  9  1  0
  5  6  2  0
  5  7  1  0
  7  8  1  0
  8  9  2  0
  8 10  1  0
 10 11  1  0
 11 12  1  0
 12 13  1  0
 13 14  1  0
 14 15  1  0
 15 16  1  0
 17 18  1  0
 17 22  1  0
 17 11  1  1
 18 19  1  0
 19 20  1  0
 20 21  1  0
 21 22  2  0
 21 26  1  0
 22 23  1  0
 23 24  2  0
 24 25  1  0
 25 26  2  0
M  END
>  <DRUGBANK_ID>  (1) 
DB05501

>  <COMMON_NAME>  (1) 
Mavorixafor

>  <CAS_NUMBER>  (1) 
558447-26-0

>  <UNII>  (1) 
0G9LGB5O2W

>  <SYNONYMS>  (1) 
1,4-BUTANEDIAMINE, N1-(1H-BENZIMIDAZOL-2-YLMETHYL)-N1-((8S)-5,6,7,8-TETRAHYDRO-8-QUINOLINYL)-; N1-(1H-BENZIMIDAZOL-2-YLMETHYL)-N1-((S)-5,6,7,8-TETRAHYDROQUINOLIN-8-YL)-BUTANE-1,4-DIAMINE

$$$$
