421
     RDKit          3D

 29 33  0  0  1  0  0  0  0  0999 V2000
    1.0759    0.0303   -0.1774 S   0  0  0  0  0  0  0  0  0  0  0  0
    5.3581   -1.9832    4.7307 O   0  0  0  0  0  0  0  0  0  0  0  0
    7.5375   -1.7836    5.3937 O   0  0  0  0  0  0  0  0  0  0  0  0
   -3.2869    3.3355    1.1617 O   0  0  0  0  0  0  0  0  0  0  0  0
    3.2694    1.1504   -0.9606 O   0  0  0  0  0  0  0  0  0  0  0  0
    3.0728   -1.3319    4.0012 C   0  0  1  0  0  0  0  0  0  0  0  0
    2.3444   -1.5171    2.6741 C   0  0  2  0  0  0  0  0  0  0  0  0
    0.8692   -1.2258    2.5430 C   0  0  1  0  0  0  0  0  0  0  0  0
    4.5692   -1.6274    3.5837 C   0  0  2  0  0  0  0  0  0  0  0  0
    0.5774    0.1710    3.1805 C   0  0  1  0  0  0  0  0  0  0  0  0
    2.7756    0.0805    4.5176 C   0  0  0  0  0  0  0  0  0  0  0  0
    2.9109   -2.8493    2.1576 C   0  0  0  0  0  0  0  0  0  0  0  0
   -0.9514    0.4976    3.1744 C   0  0  2  0  0  0  0  0  0  0  0  0
    1.2636    0.3525    4.5605 C   0  0  0  0  0  0  0  0  0  0  0  0
    4.3842   -2.8720    2.6574 C   0  0  0  0  0  0  0  0  0  0  0  0
    0.4338   -1.2256    1.0339 C   0  0  1  0  0  0  0  0  0  0  0  0
    2.5748   -2.3885    5.0112 C   0  0  0  0  0  0  0  0  0  0  0  0
    5.4232   -0.5022    2.9572 C   0  0  0  0  0  0  0  0  0  0  0  0
   -1.4907    0.3131    1.7491 C   0  0  0  0  0  0  0  0  0  0  0  0
   -1.1049   -0.9789    1.0367 C   0  0  0  0  0  0  0  0  0  0  0  0
   -1.1208    1.9693    3.6434 C   0  0  0  0  0  0  0  0  0  0  0  0
   -1.7222   -0.4424    4.1223 C   0  0  0  0  0  0  0  0  0  0  0  0
    6.8416   -0.8747    3.2883 C   0  0  0  0  0  0  0  0  0  0  0  0
    6.6603   -1.5747    4.5914 C   0  0  0  0  0  0  0  0  0  0  0  0
   -2.4665    2.5678    3.2811 C   0  0  0  0  0  0  0  0  0  0  0  0
   -2.2256    1.2419    1.1099 C   0  0  0  0  0  0  0  0  0  0  0  0
   -2.6808    2.4754    1.7942 C   0  0  0  0  0  0  0  0  0  0  0  0
    2.8110    0.1662   -0.3852 C   0  0  0  0  0  0  0  0  0  0  0  0
    3.7605   -0.8605    0.0794 C   0  0  0  0  0  0  0  0  0  0  0  0
 16  1  1  6
  1 28  1  0
  2 24  1  0
  3 24  2  0
  4 27  2  0
  5 28  2  0
  6  7  1  0
  6  9  1  0
  6 11  1  0
  6 17  1  1
  7  8  1  0
  7 12  1  1
  8 10  1  0
  8 16  1  6
  9  2  1  0
  9 15  1  6
  9 18  1  0
 10 13  1  0
 10 14  1  1
 11 14  1  0
 12 15  1  0
 13 19  1  0
 13 21  1  0
 13 22  1  1
 16 20  1  0
 18 23  1  0
 19 20  1  0
 19 26  2  0
 21 25  1  0
 23 24  1  0
 25 27  1  0
 26 27  1  0
 28 29  1  0
M  END
>  <DRUGBANK_ID>  (1) 
DB00421

>  <SECONDARY_ACCESSION_NUMBERS>  (1) 
APRD01234

>  <COMMON_NAME>  (1) 
Spironolactone

>  <CAS_NUMBER>  (1) 
52-01-7

>  <UNII>  (1) 
27O7W4T232

>  <SYNONYMS>  (1) 
Espironolactona; Spironolactone; Spironolactonum; Spironolattone

$$$$
