
     RDKit          3D

 10  9  0  0  0  0  0  0  0  0999 V2000
    1.0642    0.0723    0.0375 C   0  0  0  0  0  0  0  0  0  0  0  0
    0.4975    1.4460    0.4068 C   0  0  0  0  0  0  0  0  0  0  0  0
    1.0642    2.5258   -0.5192 C   0  0  0  0  0  0  0  0  0  0  0  0
   -0.9885    1.4397    0.3788 N   0  0  0  0  0  0  0  0  0  0  0  0
   -1.6509    1.7144    1.5895 O   0  0  0  0  0  0  0  0  0  0  0  0
   -1.7019    1.1756   -0.7849 C   0  0  0  0  0  0  0  0  0  0  0  0
   -1.1498    0.9322   -1.8573 O   0  0  0  0  0  0  0  0  0  0  0  0
   -3.2506    1.1796   -0.7673 C   0  0  0  0  0  0  0  0  0  0  0  0
   -3.8445    1.4451    0.4026 O   0  0  0  0  0  0  0  0  0  0  0  0
   -3.8839    0.9480   -1.7880 O   0  0  0  0  0  0  0  0  0  0  0  0
  1  2  1  0
  2  3  1  0
  2  4  1  0
  4  5  1  0
  4  6  1  0
  6  7  2  0
  6  8  1  0
  8  9  1  0
  8 10  2  0
M  END
>  <DRUGBANK_ID>  (1) 
DB03387

>  <SECONDARY_ACCESSION_NUMBERS>  (1) 
EXPT01751

>  <COMMON_NAME>  (1) 
N-Hydroxy-N-Isopropyloxamic Acid

$$$$
