243
     RDKit          3D

 14 14  0  0  1  0  0  0  0  0999 V2000
    1.7924    1.0724    0.3315 O   0  0  0  0  0  0  0  0  0  0  0  0
    0.8181   -0.4662   -2.6046 O   0  0  0  0  0  0  0  0  0  0  0  0
   -0.1146   -1.5239    0.2814 O   0  0  0  0  0  0  0  0  0  0  0  0
    2.8673    3.1206   -0.2576 O   0  0  0  0  0  0  0  0  0  0  0  0
    1.4565    3.1242   -0.4140 C   0  0  0  0  0  0  0  0  0  0  0  0
    1.0992    1.7239   -0.8318 C   0  0  0  0  0  0  0  0  0  0  0  0
    1.3707    0.9503   -2.2572 C   0  0  0  0  0  0  0  0  0  0  0  0
    1.0287   -1.7139   -1.9913 C   0  0  0  0  0  0  0  0  0  0  0  0
    0.7512   -2.1078   -0.6413 C   0  0  0  0  0  0  0  0  0  0  0  0
    1.2414   -2.8412   -2.8172 C   0  0  0  0  0  0  0  0  0  0  0  0
    1.0372   -3.3135   -0.0459 C   0  0  0  0  0  0  0  0  0  0  0  0
    1.2630   -4.1506   -2.2519 C   0  0  0  0  0  0  0  0  0  0  0  0
    1.2311   -4.3979   -0.8836 C   0  0  0  0  0  0  0  0  0  0  0  0
   -0.4226   -0.2796   -0.1661 C   0  0  0  0  0  0  0  0  0  0  0  0
  1  6  1  0
  2  7  1  0
  2  8  1  0
  3  9  1  0
  3 14  1  0
  4  5  1  0
  5  6  1  0
  6  7  1  0
  8  9  2  0
  8 10  1  0
  9 11  1  0
 10 12  2  0
 11 13  2  0
 12 13  1  0
M  END
>  <DRUGBANK_ID>  (1) 
DB00874

>  <SECONDARY_ACCESSION_NUMBERS>  (1) 
APRD01005

>  <COMMON_NAME>  (1) 
Guaifenesin

>  <CAS_NUMBER>  (1) 
93-14-1

>  <UNII>  (1) 
495W7451VQ

>  <SYNONYMS>  (1) 
Glyceryl guaiacolate; Guaifenesin; Guaifenesina; guaiphenesin

$$$$
