
     RDKit          3D

 12 13  0  0  0  0  0  0  0  0999 V2000
    1.7617    0.9475    0.2759 N   0  0  0  0  0  0  0  0  0  0  0  0
    2.2487   -0.2275   -0.5076 C   0  0  1  0  0  0  0  0  0  0  0  0
    1.0769   -1.1983   -0.6273 C   0  0  0  0  0  0  0  0  0  0  0  0
    0.2062   -0.8275    0.5661 C   0  0  1  0  0  0  0  0  0  0  0  0
    0.3514    0.6909    0.6178 C   0  0  2  0  0  0  0  0  0  0  0  0
   -0.5761    1.4285   -0.3555 C   0  0  0  0  0  0  0  0  0  0  0  0
   -2.0192    0.9689   -0.1848 C   0  0  0  0  0  0  0  0  0  0  0  0
   -2.1330   -0.5295   -0.4425 C   0  0  0  0  0  0  0  0  0  0  0  0
   -1.2363   -1.3271    0.5000 C   0  0  0  0  0  0  0  0  0  0  0  0
    2.8291    0.1930   -1.8557 C   0  0  0  0  0  0  0  0  0  0  0  0
    3.9848    0.0093   -2.2156 O   0  0  0  0  0  0  0  0  0  0  0  0
    1.9537    0.7992   -2.6835 O   0  0  0  0  0  0  0  0  0  0  0  0
  2  1  1  0
  2 10  1  6
  3  2  1  0
  4  3  1  6
  4  5  1  0
  5  1  1  0
  5  6  1  6
  7  6  1  0
  7  8  1  0
  8  9  1  0
  9  4  1  0
 11 10  2  0
 12 10  1  0
M  END
>  <DRUGBANK_ID>  (1) 
DB03409

>  <SECONDARY_ACCESSION_NUMBERS>  (1) 
EXPT02426

>  <COMMON_NAME>  (1) 
L-Octahydroindole-2-carboxylic acid

>  <CAS_NUMBER>  (1) 
80875-98-5

>  <UNII>  (1) 
9ID44U804I

>  <SYNONYMS>  (1) 
(2S,3aS,7aS)-2-Carboxyoctahydroindole; (2S,3aS,7aS)-Octahydroindole-2-carboxylic acid; Perindopril impurity A

$$$$
