
     RDKit          3D

 24 26  0  0  0  0  0  0  0  0999 V2000
    0.8120   -0.0278   -0.0463 O   0  0  0  0  0  0  0  0  0  0  0  0
    2.4965   -1.4358    0.4909 O   0  0  0  0  0  0  0  0  0  0  0  0
    0.8624    3.8223    0.2335 N   0  0  0  0  0  0  0  0  0  0  0  0
    0.1545    1.0619   -0.7661 C   0  0  0  0  0  0  0  0  0  0  0  0
    0.7393    2.2077   -1.6600 C   0  0  0  0  0  0  0  0  0  0  0  0
   -0.5436    1.7419    0.4230 C   0  0  0  0  0  0  0  0  0  0  0  0
    1.4692    3.3384   -0.9878 C   0  0  0  0  0  0  0  0  0  0  0  0
    0.4247    2.7289    1.1148 C   0  0  0  0  0  0  0  0  0  0  0  0
   -0.5704    0.2461   -1.8123 C   0  0  0  0  0  0  0  0  0  0  0  0
    1.8368    4.7302    0.8948 C   0  0  0  0  0  0  0  0  0  0  0  0
    3.1499    4.1252    1.5127 C   0  0  0  0  0  0  0  0  0  0  0  0
    0.1914   -0.3419   -2.8606 C   0  0  0  0  0  0  0  0  0  0  0  0
   -1.9442    0.1150   -1.8288 C   0  0  0  0  0  0  0  0  0  0  0  0
    2.0316   -0.5098   -0.1954 C   0  0  0  0  0  0  0  0  0  0  0  0
    4.2032    3.5343    0.5750 C   0  0  0  0  0  0  0  0  0  0  0  0
   -0.3964   -0.9861   -3.9253 C   0  0  0  0  0  0  0  0  0  0  0  0
   -2.5326   -0.6088   -2.8593 C   0  0  0  0  0  0  0  0  0  0  0  0
   -1.7703   -1.1191   -3.9184 C   0  0  0  0  0  0  0  0  0  0  0  0
    2.8837    0.3059   -1.0227 C   0  0  0  0  0  0  0  0  0  0  0  0
    4.8502    4.2951   -0.4052 C   0  0  0  0  0  0  0  0  0  0  0  0
    4.4870    2.1663    0.5765 C   0  0  0  0  0  0  0  0  0  0  0  0
    5.5553    3.6882   -1.4647 C   0  0  0  0  0  0  0  0  0  0  0  0
    5.2885    1.5881   -0.4418 C   0  0  0  0  0  0  0  0  0  0  0  0
    5.6630    2.3161   -1.5496 C   0  0  0  0  0  0  0  0  0  0  0  0
  1  4  1  0
  1 14  1  0
  2 14  2  0
  3  7  1  0
  3  8  1  0
  3 10  1  0
  4  5  1  0
  4  6  1  0
  4  9  1  0
  5  7  1  0
  6  8  1  0
  9 12  2  0
  9 13  1  0
 10 11  1  0
 11 15  1  0
 12 16  1  0
 13 17  2  0
 14 19  1  0
 15 20  2  0
 15 21  1  0
 16 18  2  0
 17 18  1  0
 20 22  1  0
 21 23  2  0
 22 24  2  0
 23 24  1  0
M  END
>  <DRUGBANK_ID>  (1) 
DB01562

>  <COMMON_NAME>  (1) 
1-(2-Phenylethyl)-4-phenyl-4-acetoxypiperidine

>  <CAS_NUMBER>  (1) 
64-52-8

>  <UNII>  (1) 
T6LN72I828

>  <SYNONYMS>  (1) 
1-(2-Phenethyl)-4-phenyl-4-acetoxypiperidine; 1-Phenethyl-4-phenyl-4-piperidinol acetate (ester); PEPAP

$$$$
