
     RDKit          3D

 10  9  0  0  0  0  0  0  0  0999 V2000
    0.9591    0.0815   -0.0527 C   0  0  0  0  0  0  0  0  0  0  0  0
    0.5328   -1.3588   -0.2884 C   0  0  0  0  0  0  0  0  0  0  0  0
    1.0194   -2.2688    0.8413 C   0  0  0  0  0  0  0  0  0  0  0  0
    0.4483   -1.8608    2.2045 C   0  0  0  0  0  0  0  0  0  0  0  0
   -1.0843   -1.8996    2.2174 C   0  0  0  0  0  0  0  0  0  0  0  0
   -1.6132   -3.3123    1.9474 C   0  0  0  0  0  0  0  0  0  0  0  0
   -1.1525   -4.3035    3.0221 C   0  0  0  0  0  0  0  0  0  0  0  0
   -1.6557   -3.9133    4.4175 C   0  0  0  0  0  0  0  0  0  0  0  0
   -3.1782   -3.8538    4.4851 C   0  0  0  0  0  0  0  0  0  0  0  0
   -3.7370   -5.1264    4.2050 O   0  0  0  0  0  0  0  0  0  0  0  0
  1  2  1  0
  2  3  1  0
  3  4  1  0
  4  5  1  0
  5  6  1  0
  6  7  1  0
  7  8  1  0
  8  9  1  0
  9 10  1  0
M  END
>  <DRUGBANK_ID>  (1) 
DB03143

>  <SECONDARY_ACCESSION_NUMBERS>  (1) 
EXPT01376

>  <COMMON_NAME>  (1) 
Nonan-1-Ol

>  <CAS_NUMBER>  (1) 
28473-21-4

>  <UNII>  (1) 
NGK73Q6XMC

$$$$
