AP6
     RDKit          3D

 18 20  0  0  0  0  0  0  0  0999 V2000
    1.2228   -1.3417   -0.0916 N   0  0  0  0  0  0  0  0  0  0  0  0
    2.3372   -0.6168   -0.0370 C   0  0  0  0  0  0  0  0  0  0  0  0
    3.5241   -1.3111   -0.0788 N   0  0  0  0  0  0  0  0  0  0  0  0
    2.3989    0.7170    0.0618 N   0  0  0  0  0  0  0  0  0  0  0  0
    1.2244    1.3806    0.1064 C   0  0  0  0  0  0  0  0  0  0  0  0
    1.2702    2.7633    0.3393 N   0  0  0  0  0  0  0  0  0  0  0  0
   -0.0096    0.7416    0.0487 C   0  0  0  0  0  0  0  0  0  0  0  0
    0.0653   -0.6589   -0.0583 C   0  0  0  0  0  0  0  0  0  0  0  0
   -1.2282    1.4693   -0.0687 N   0  0  0  0  0  0  0  0  0  0  0  0
   -2.4074    0.6407   -0.3687 C   0  0  1  0  0  0  0  0  0  0  0  0
   -2.2901   -0.7491    0.3230 C   0  0  0  0  0  0  0  0  0  0  0  0
   -1.0982   -1.4175   -0.1593 N   0  0  0  0  0  0  0  0  0  0  0  0
   -3.7442    1.3438   -0.1717 C   0  0  0  0  0  0  0  0  0  0  0  0
   -3.9759    2.6170   -0.7183 C   0  0  0  0  0  0  0  0  0  0  0  0
   -4.8529    0.6418    0.3408 C   0  0  0  0  0  0  0  0  0  0  0  0
   -5.2789    3.1205   -0.8207 C   0  0  0  0  0  0  0  0  0  0  0  0
   -6.1502    1.1300    0.2116 C   0  0  0  0  0  0  0  0  0  0  0  0
   -6.3655    2.3630   -0.3855 C   0  0  0  0  0  0  0  0  0  0  0  0
  1  2  2  0
  1  8  1  0
  2  3  1  0
  2  4  1  0
  4  5  2  0
  5  6  1  0
  5  7  1  0
  7  8  2  0
  7  9  1  0
  8 12  1  0
  9 10  1  0
 10 11  1  0
 10 13  1  1
 11 12  1  0
 13 14  2  0
 13 15  1  0
 14 16  1  0
 15 17  2  0
 16 18  2  0
 17 18  1  0
M  END
>  <DRUGBANK_ID>  (1) 
DB02911

>  <SECONDARY_ACCESSION_NUMBERS>  (1) 
EXPT00536

>  <COMMON_NAME>  (1) 
2,4-Diamino-6-Phenyl-5,6,7,8,-Tetrahydropteridine

$$$$
