AM8
     RDKit          3D

 31 34  0  0  0  0  0  0  0  0999 V2000
    0.9280   -0.2528   -0.0786 C   0  0  0  0  0  0  0  0  0  0  0  0
    0.3889   -0.1001    1.2979 C   0  0  0  0  0  0  0  0  0  0  0  0
    0.1893    1.1284    1.8999 C   0  0  0  0  0  0  0  0  0  0  0  0
    0.5268    2.3291    1.1853 C   0  0  0  0  0  0  0  0  0  0  0  0
    0.0328   -1.0271    2.2374 C   0  0  0  0  0  0  0  0  0  0  0  0
    0.0379   -2.4792    2.0037 C   0  0  0  0  0  0  0  0  0  0  0  0
   -0.3197   -0.3736    3.4101 N   0  0  0  0  0  0  0  0  0  0  0  0
   -0.1685    0.9922    3.2282 C   0  0  0  0  0  0  0  0  0  0  0  0
   -0.3533    2.0820    4.2788 C   0  0  0  0  0  0  0  0  0  0  0  0
    0.8413    2.9648    4.5349 C   0  0  0  0  0  0  0  0  0  0  0  0
    1.4774    3.9008    3.8112 C   0  0  0  0  0  0  0  0  0  0  0  0
    1.3564    4.5301    2.4959 C   0  0  0  0  0  0  0  0  0  0  0  0
    1.5315    2.9029    5.8665 C   0  0  0  0  0  0  0  0  0  0  0  0
    1.0955    2.3579    6.8492 O   0  0  0  0  0  0  0  0  0  0  0  0
    2.7014    3.6221    5.7848 N   0  0  0  0  0  0  0  0  0  0  0  0
    2.6731    4.1529    4.6207 C   0  0  0  0  0  0  0  0  0  0  0  0
    3.6608    5.0471    4.0358 C   0  0  0  0  0  0  0  0  0  0  0  0
    3.4586    5.4571    2.7817 C   0  0  0  0  0  0  0  0  0  0  0  0
    2.4621    4.9869    1.8706 C   0  0  0  0  0  0  0  0  0  0  0  0
    2.5278    5.2335    0.0888 S   0  0  0  0  0  0  0  0  0  0  0  0
    2.6862    3.9429   -0.5665 O   0  0  0  0  0  0  0  0  0  0  0  0
    1.3570    6.0205   -0.2588 O   0  0  0  0  0  0  0  0  0  0  0  0
    3.8938    6.1446   -0.4413 N   0  0  0  0  0  0  0  0  0  0  0  0
    3.9288    6.5542   -1.8642 C   0  0  0  0  0  0  0  0  0  0  0  0
    5.0425    6.4300    0.3697 C   0  0  0  0  0  0  0  0  0  0  0  0
    5.6914    5.4607    1.1468 C   0  0  0  0  0  0  0  0  0  0  0  0
    6.4667    5.8812    2.2448 C   0  0  0  0  0  0  0  0  0  0  0  0
    6.9226    4.7573    3.4755 Cl  0  0  0  0  0  0  0  0  0  0  0  0
    6.7295    7.2335    2.4551 C   0  0  0  0  0  0  0  0  0  0  0  0
    6.3075    8.1624    1.5104 C   0  0  0  0  0  0  0  0  0  0  0  0
    5.4182    7.7736    0.5080 C   0  0  0  0  0  0  0  0  0  0  0  0
  2  1  1  0
  3  2  1  0
  4  3  1  0
  5  2  2  0
  5  6  1  0
  7  5  1  0
  8  7  1  0
  8  3  2  0
  9  8  1  0
 10  9  1  0
 11 10  2  0
 12 11  1  0
 13 10  1  0
 13 14  2  0
 15 13  1  0
 16 15  2  0
 16 11  1  0
 17 16  1  0
 18 17  2  0
 18 19  1  0
 19 12  2  0
 20 19  1  0
 20 21  2  0
 22 20  2  0
 23 25  1  0
 23 20  1  0
 24 23  1  0
 25 31  1  0
 26 25  2  0
 26 27  1  0
 27 29  2  0
 28 27  1  0
 29 30  1  0
 31 30  2  0
M  END
>  <DRUGBANK_ID>  (1) 
DB07369

>  <COMMON_NAME>  (1) 
N-(3-chlorophenyl)-N-methyl-2-oxo-3-[(3,4,5-trimethyl-1H-pyrrol-2-yl)methyl]-2H-indole-5-sulfonamide

$$$$
