
     RDKit          3D

 24 26  0  0  0  0  0  0  0  0999 V2000
    1.5110   -0.2398    0.0150 C   0  0  0  0  0  0  0  0  0  0  0  0
    0.6415   -1.3181    0.0432 C   0  0  0  0  0  0  0  0  0  0  0  0
   -0.7400   -1.1134    0.0425 C   0  0  0  0  0  0  0  0  0  0  0  0
   -1.3058    0.1680   -0.0374 C   0  0  0  0  0  0  0  0  0  0  0  0
   -0.3833    1.2382   -0.0725 C   0  0  0  0  0  0  0  0  0  0  0  0
    0.9977    1.0440   -0.0408 C   0  0  0  0  0  0  0  0  0  0  0  0
   -2.8511    0.4328   -0.1647 C   0  0  0  0  0  0  0  0  0  0  0  0
   -3.3905    1.1978    1.1156 C   0  0  0  0  0  0  0  0  0  0  0  0
   -2.8883    2.4768    1.4713 C   0  0  0  0  0  0  0  0  0  0  0  0
   -3.5621    3.3280    2.3418 C   0  0  0  0  0  0  0  0  0  0  0  0
   -4.7531    2.9079    2.8937 C   0  0  0  0  0  0  0  0  0  0  0  0
   -5.2564    1.6464    2.6145 C   0  0  0  0  0  0  0  0  0  0  0  0
   -4.5417    0.7701    1.7957 C   0  0  0  0  0  0  0  0  0  0  0  0
   -5.4294    3.7306    3.7017 F   0  0  0  0  0  0  0  0  0  0  0  0
   -3.1132    1.2993   -1.4651 C   0  0  0  0  0  0  0  0  0  0  0  0
   -2.7275    0.8065   -2.7271 C   0  0  0  0  0  0  0  0  0  0  0  0
   -2.9559    1.5589   -3.8851 C   0  0  0  0  0  0  0  0  0  0  0  0
   -3.5725    2.8017   -3.7990 C   0  0  0  0  0  0  0  0  0  0  0  0
   -3.9902    3.3004   -2.5822 C   0  0  0  0  0  0  0  0  0  0  0  0
   -3.7477    2.5615   -1.4308 C   0  0  0  0  0  0  0  0  0  0  0  0
   -3.7585    3.5370   -4.9014 F   0  0  0  0  0  0  0  0  0  0  0  0
   -3.7209   -0.9285   -0.3945 C   0  0  0  0  0  0  0  0  0  0  0  0
   -3.3286   -2.0974   -0.3123 O   0  0  0  0  0  0  0  0  0  0  0  0
   -5.0546   -0.8166   -0.6866 N   0  0  0  0  0  0  0  0  0  0  0  0
  1  2  2  0
  1  6  1  0
  2  3  1  0
  3  4  2  0
  4  5  1  0
  4  7  1  0
  5  6  2  0
  7  8  1  0
  7 15  1  0
  7 22  1  0
  8  9  2  0
  8 13  1  0
  9 10  1  0
 10 11  2  0
 11 12  1  0
 11 14  1  0
 12 13  2  0
 15 16  2  0
 15 20  1  0
 16 17  1  0
 17 18  2  0
 18 19  1  0
 18 21  1  0
 19 20  2  0
 22 23  2  0
 22 24  1  0
M  END
>  <DRUGBANK_ID>  (1) 
DB06280

>  <COMMON_NAME>  (1) 
Senicapoc

>  <CAS_NUMBER>  (1) 
289656-45-7

>  <UNII>  (1) 
TS6G201A6Q

>  <SYNONYMS>  (1) 
2,2-Bis(4-fluorophenyl)-2-phenylacetamide; Bis(4-fluorophenyl)phenylacetamide; Senicapoc

$$$$
