
     RDKit          3D

 29 30  0  0  0  0  0  0  0  0999 V2000
    1.1534   -0.8636   -0.3596 C   0  0  2  0  0  0  0  0  0  0  0  0
    2.3763   -1.6360   -0.2176 N   0  0  0  0  0  0  0  0  0  0  0  0
    1.3988    0.5193   -0.1810 O   0  0  0  0  0  0  0  0  0  0  0  0
   -0.0113   -1.2721    0.5282 C   0  0  0  0  0  0  0  0  0  0  0  0
    3.0906   -1.6880    0.9785 C   0  0  0  0  0  0  0  0  0  0  0  0
    2.6835   -2.4578   -1.2738 C   0  0  0  0  0  0  0  0  0  0  0  0
    0.2005    1.0824    0.3650 C   0  0  1  0  0  0  0  0  0  0  0  0
   -0.8460   -0.0179    0.5137 C   0  0  1  0  0  0  0  0  0  0  0  0
    4.1556   -2.5704    0.9722 N   0  0  0  0  0  0  0  0  0  0  0  0
    2.8116   -1.0648    1.9960 O   0  0  0  0  0  0  0  0  0  0  0  0
   -1.7298   -0.0446   -0.6104 O   0  0  0  0  0  0  0  0  0  0  0  0
    4.3243   -3.5805    0.0733 C   0  0  0  0  0  0  0  0  0  0  0  0
   -1.2548    9.4966    2.6386 O   0  0  0  0  0  0  0  0  0  0  0  0
   -0.3631    7.5784    1.5325 O   0  0  0  0  0  0  0  0  0  0  0  0
    0.1724    5.2806    2.1377 O   0  0  0  0  0  0  0  0  0  0  0  0
   -0.6996    7.3301    3.9196 O   0  0  0  0  0  0  0  0  0  0  0  0
    0.1355    9.2399    4.5262 O   0  0  0  0  0  0  0  0  0  0  0  0
   -1.4931    5.7254    0.1350 O   0  0  0  0  0  0  0  0  0  0  0  0
   -2.3150    6.1186    2.4116 O   0  0  0  0  0  0  0  0  0  0  0  0
    2.4087    3.9969    1.5373 O   0  0  0  0  0  0  0  0  0  0  0  0
    0.7376    4.7272   -0.2222 O   0  0  0  0  0  0  0  0  0  0  0  0
   -0.1138    8.4091    3.0293 P   0  0  0  0  0  0  0  0  0  0  0  0
   -1.0109    6.1230    1.4925 P   0  0  2  0  0  0  0  0  0  0  0  0
    0.9584    4.2084    1.2721 P   0  0  2  0  0  0  0  0  0  0  0  0
   -0.0334    2.9950    1.5668 O   0  0  0  0  0  0  0  0  0  0  0  0
    0.5300    1.7099    1.6946 C   0  0  0  0  0  0  0  0  0  0  0  0
    5.0773   -4.5418    0.2797 O   0  0  0  0  0  0  0  0  0  0  0  0
    3.5484   -3.4688   -1.1718 C   0  0  0  0  0  0  0  0  0  0  0  0
    3.6804   -4.5011   -2.2322 C   0  0  0  0  0  0  0  0  0  0  0  0
  1  3  1  0
  1  4  1  0
  1  2  1  1
  2  5  1  0
  2  6  1  0
  3  7  1  0
  4  8  1  0
  5  9  1  0
  5 10  2  0
  6 28  2  0
  7  8  1  0
  7 26  1  1
  8 11  1  6
  9 12  1  0
 12 27  2  0
 13 22  1  0
 14 23  1  0
 15 24  1  0
 22 14  1  0
 22 16  2  0
 22 17  1  0
 23 15  1  0
 23 18  2  0
 23 19  1  1
 24 25  1  0
 24 20  2  0
 24 21  1  6
 26 25  1  0
 28 12  1  0
 28 29  1  0
M  END
>  <DRUGBANK_ID>  (1) 
DB02452

>  <SECONDARY_ACCESSION_NUMBERS>  (1) 
EXPT03131

>  <COMMON_NAME>  (1) 
Thymidine 5'-triphosphate

>  <CAS_NUMBER>  (1) 
365-08-2

>  <UNII>  (1) 
QOP4K539MU

>  <SYNONYMS>  (1) 
2'-deoxythymidine triphosphate; 5'-TTP; deoxy-TTP; dTTP; pppdT; Thymidine-5'-triphosphate

$$$$
