
     RDKit          3D

 15 16  0  0  0  0  0  0  0  0999 V2000
    2.5129    1.1054    0.0123 C   0  0  0  0  0  0  0  0  0  0  0  0
   -2.6382    0.8080   -0.0672 C   0  0  0  0  0  0  0  0  0  0  0  0
    0.0492   -1.7683   -0.0057 C   0  0  0  0  0  0  0  0  0  0  0  0
   -4.0389    4.1206   -0.0955 C   0  0  0  0  0  0  0  0  0  0  0  0
    1.2135   -1.0151    0.0009 C   0  0  0  0  0  0  0  0  0  0  0  0
   -1.1649   -1.1181   -0.0300 C   0  0  0  0  0  0  0  0  0  0  0  0
   -3.3780    3.7043    1.1982 C   0  0  0  0  0  0  0  0  0  0  0  0
   -3.1619    4.9945   -0.9576 C   0  0  0  0  0  0  0  0  0  0  0  0
    1.1809    0.4011   -0.0074 C   0  0  0  0  0  0  0  0  0  0  0  0
   -1.2367    0.2857   -0.0577 C   0  0  0  0  0  0  0  0  0  0  0  0
   -0.0628    1.0940   -0.0375 C   0  0  0  0  0  0  0  0  0  0  0  0
   -1.2243    3.3044    0.0894 C   0  0  0  0  0  0  0  0  0  0  0  0
   -2.0110    3.2482    1.1047 N   0  0  0  0  0  0  0  0  0  0  0  0
   -0.0880    2.5263    0.0383 N   0  0  0  0  0  0  0  0  0  0  0  0
   -1.5401    4.2777   -1.3314 S   0  0  0  0  0  0  0  0  0  0  0  0
  5  3  2  0
  6  3  1  0
  7  4  1  0
  8  4  1  0
  9  1  1  0
  9  5  1  0
 10  2  1  0
 10  6  2  0
 11  9  2  0
 11 10  1  0
 13  7  1  0
 13 12  2  0
 14 11  1  0
 14 12  1  0
 15  8  1  0
 15 12  1  0
M  END
>  <DRUGBANK_ID>  (1) 
DB11477

>  <COMMON_NAME>  (1) 
Xylazine

>  <CAS_NUMBER>  (1) 
7361-61-7

>  <UNII>  (1) 
2KFG9TP5V8

>  <SYNONYMS>  (1) 
Xilazina; Xylazine; Xylazinum

$$$$
