BAF
     RDKit          3D

 18 17  0  0  0  0  0  0  0  0999 V2000
   -2.7051    3.9778    3.3796 N   0  0  0  0  0  0  0  0  0  0  0  0
   -2.6944    5.1673    2.7015 C   0  0  0  0  0  0  0  0  0  0  0  0
   -1.8877    5.4851    1.8398 O   0  0  0  0  0  0  0  0  0  0  0  0
   -1.6661    3.0019    3.2036 C   0  0  2  0  0  0  0  0  0  0  0  0
   -0.2799    3.6027    3.4499 C   0  0  0  0  0  0  0  0  0  0  0  0
   -1.7931    2.3843    1.9068 N   0  0  0  0  0  0  0  0  0  0  0  0
   -1.9112    1.0554    1.5925 C   0  0  0  0  0  0  0  0  0  0  0  0
   -2.0203    0.7176    0.4126 O   0  0  0  0  0  0  0  0  0  0  0  0
   -1.8279    0.0258    2.7391 C   0  0  2  0  0  0  0  0  0  0  0  0
   -0.3767   -0.1225    3.1779 C   0  0  0  0  0  0  0  0  0  0  0  0
   -2.3446   -1.2731    2.3487 N   0  0  0  0  0  0  0  0  0  0  0  0
   -3.4125   -1.9334    2.8708 C   0  0  0  0  0  0  0  0  0  0  0  0
   -3.7384   -3.0218    2.4097 O   0  0  0  0  0  0  0  0  0  0  0  0
   -4.0230   -1.2953    3.9107 O   0  0  0  0  0  0  0  0  0  0  0  0
   -5.1646   -1.9305    4.5578 C   0  0  0  0  0  0  0  0  0  0  0  0
   -6.3244   -2.1213    3.5725 C   0  0  0  0  0  0  0  0  0  0  0  0
   -4.7534   -3.2541    5.2141 C   0  0  0  0  0  0  0  0  0  0  0  0
   -5.6566   -0.9899    5.6772 C   0  0  0  0  0  0  0  0  0  0  0  0
  1  2  1  0
  2  3  2  0
  4  6  1  0
  4  5  1  6
  4  1  1  0
  6  7  1  0
  7  8  2  0
  9 11  1  0
  9 10  1  6
  9  7  1  0
 11 12  1  0
 12 13  2  0
 12 14  1  0
 14 15  1  0
 15 16  1  0
 15 17  1  0
 15 18  1  0
M  END
>  <DRUGBANK_ID>  (1) 
DB07433

>  <COMMON_NAME>  (1) 
(TERT-BUTYLOXYCARBONYL)-ALANYL-AMINO ETHYL-FORMAMIDE

$$$$
