632
     RDKit          3D

 23 22  0  0  0  0  0  0  0  0999 V2000
    0.8010    0.1425    0.0347 O   0  0  0  0  0  0  0  0  0  0  0  0
    6.5546   -7.1601   -3.2151 C   0  0  0  0  0  0  0  0  0  0  0  0
    7.0628   -8.1699   -2.1820 C   0  0  0  0  0  0  0  0  0  0  0  0
    5.0231   -7.1647   -3.2173 C   0  0  0  0  0  0  0  0  0  0  0  0
    6.5480   -9.5665   -2.5424 C   0  0  0  0  0  0  0  0  0  0  0  0
    4.5125   -6.7837   -1.8245 C   0  0  0  0  0  0  0  0  0  0  0  0
    7.0550   -9.9510   -3.9354 C   0  0  0  0  0  0  0  0  0  0  0  0
    5.0253   -5.3877   -1.4589 C   0  0  0  0  0  0  0  0  0  0  0  0
    8.5865   -9.9473   -3.9393 C   0  0  0  0  0  0  0  0  0  0  0  0
    4.5209   -4.3716   -2.4881 C   0  0  0  0  0  0  0  0  0  0  0  0
    9.1053  -10.9555   -2.9092 C   0  0  0  0  0  0  0  0  0  0  0  0
    2.9892   -4.3626   -2.4973 C   0  0  0  0  0  0  0  0  0  0  0  0
    8.6057  -12.3601   -3.2601 C   0  0  0  0  0  0  0  0  0  0  0  0
    2.4612   -3.9763   -1.1125 C   0  0  0  0  0  0  0  0  0  0  0  0
    9.1045  -12.7615   -4.6513 C   0  0  0  0  0  0  0  0  0  0  0  0
    2.9634   -2.5821   -0.7238 C   0  0  0  0  0  0  0  0  0  0  0  0
   10.6365  -12.7675   -4.6890 C   0  0  0  0  0  0  0  0  0  0  0  0
    2.4719   -1.5295   -1.7227 C   0  0  0  0  0  0  0  0  0  0  0  0
   11.2093  -13.7835   -3.6951 C   0  0  0  0  0  0  0  0  0  0  0  0
    0.9406   -1.4685   -1.7602 C   0  0  0  0  0  0  0  0  0  0  0  0
   10.7168  -15.2018   -3.9866 C   0  0  0  0  0  0  0  0  0  0  0  0
    0.3547   -1.1326   -0.3933 C   0  0  0  0  0  0  0  0  0  0  0  0
   11.1380  -15.6429   -5.3790 C   0  0  0  0  0  0  0  0  0  0  0  0
  1 22  1  0
  2  3  1  0
  2  4  1  0
  3  5  1  0
  4  6  1  0
  5  7  1  0
  6  8  1  0
  7  9  1  0
  8 10  1  0
  9 11  1  0
 10 12  1  0
 11 13  1  0
 12 14  1  0
 13 15  1  0
 14 16  1  0
 15 17  1  0
 16 18  1  0
 17 19  1  0
 18 20  1  0
 19 21  1  0
 20 22  1  0
 21 23  1  0
M  END
>  <DRUGBANK_ID>  (1) 
DB00632

>  <SECONDARY_ACCESSION_NUMBERS>  (1) 
APRD00933

>  <COMMON_NAME>  (1) 
Docosanol

>  <CAS_NUMBER>  (1) 
661-19-8

>  <UNII>  (1) 
9G1OE216XY

>  <SYNONYMS>  (1) 
1-Docosanol; Behenic alcohol; Behenyl alcohol; Docosan-1-ol; Docosanol; Docosyl alcohol; N-Docosanol

$$$$
