
     RDKit          3D

 14 13  0  0  0  0  0  0  0  0999 V2000
    1.7691   -0.5368    0.2430 C   0  0  0  0  0  0  0  0  0  0  0  0
    0.9866   -1.3443   -0.6529 O   0  0  0  0  0  0  0  0  0  0  0  0
    1.3938   -1.2600   -2.0290 C   0  0  0  0  0  0  0  0  0  0  0  0
    1.2010    0.0849   -2.8288 C   0  0  0  0  0  0  0  0  0  0  0  0
    1.2420    1.3162   -2.1255 O   0  0  0  0  0  0  0  0  0  0  0  0
    0.2765    1.5009   -1.0451 C   0  0  0  0  0  0  0  0  0  0  0  0
   -1.1200    0.9505   -0.5017 C   0  0  0  0  0  0  0  0  0  0  0  0
   -1.9281    0.0423   -1.3006 O   0  0  0  0  0  0  0  0  0  0  0  0
   -1.6359   -0.1781   -2.6934 C   0  0  0  0  0  0  0  0  0  0  0  0
   -1.6524    1.0637   -3.8310 C   0  0  0  0  0  0  0  0  0  0  0  0
   -1.3624    2.4629   -3.5335 O   0  0  0  0  0  0  0  0  0  0  0  0
   -1.9320    2.8896   -2.3124 C   0  0  0  0  0  0  0  0  0  0  0  0
   -3.3803    2.6834   -1.8483 C   0  0  0  0  0  0  0  0  0  0  0  0
   -3.9751    1.4196   -2.0751 O   0  0  0  0  0  0  0  0  0  0  0  0
  1  2  1  0
  2  3  1  0
  3  4  1  0
  4  5  1  0
  5  6  1  0
  6  7  1  0
  7  8  1  0
  8  9  1  0
  9 10  1  0
 10 11  1  0
 11 12  1  0
 12 13  1  0
 13 14  1  0
M  END
>  <DRUGBANK_ID>  (1) 
DB04332

>  <SECONDARY_ACCESSION_NUMBERS>  (1) 
EXPT01367

>  <COMMON_NAME>  (1) 
2-{2-[2-2-(Methoxy-Ethoxy)-Ethoxy]-Ethoxy}-Ethanol

$$$$
