
     RDKit          3D

 11 10  0  0  0  0  0  0  0  0999 V2000
    1.0162    0.4960   -0.1550 C   0  0  0  0  0  0  0  0  0  0  0  0
   -0.0077   -1.4200    1.6819 C   0  0  0  0  0  0  0  0  0  0  0  0
    2.9804    0.6227    3.9560 C   0  0  0  0  0  0  0  0  0  0  0  0
    4.0106    0.2746    3.1526 C   0  0  0  0  0  0  0  0  0  0  0  0
    5.5188   -0.2408    3.8159 Cl  0  0  0  0  0  0  0  0  0  0  0  0
    3.9571    0.4717    1.4590 Cl  0  0  0  0  0  0  0  0  0  0  0  0
   -0.6117    1.7054    2.9359 O   0  0  0  0  0  0  0  0  0  0  0  0
    1.1234    1.2307    1.0581 O   0  0  0  0  0  0  0  0  0  0  0  0
    0.4371   -0.6732    2.7772 O   0  0  0  0  0  0  0  0  0  0  0  0
    1.8304    1.2693    3.5814 O   0  0  0  0  0  0  0  0  0  0  0  0
    0.6088    0.9183    2.5631 P   0  0  0  0  0  0  0  0  0  0  0  0
  4  3  2  3
  5  4  1  0
  6  4  1  0
  8  1  1  0
  9  2  1  0
 10  3  1  0
 11  7  2  0
 11  8  1  0
 11  9  1  0
 11 10  1  0
M  END
>  <DRUGBANK_ID>  (1) 
DB11397

>  <COMMON_NAME>  (1) 
Dichlorvos

>  <CAS_NUMBER>  (1) 
62-73-7

>  <UNII>  (1) 
7U370BPS14

>  <SYNONYMS>  (1) 
2,2-Dichloroethenyl dimethyl phosphate; DDVP; Dichlorvos; Dimethyl 2,2-dichlorovinyl phosphate; Dimethyl-2,2-dichlorovinyl phosphate; Phosphoric acid, 2,2-dichloroethenyl dimethyl ester; Phosphoric acid, 2,2-dichlorovinyl dimethyl ester

$$$$
