
     RDKit          3D

 29 31  0  0  0  0  0  0  0  0999 V2000
    1.3572   -0.2180    0.0213 C   0  0  0  0  0  0  0  0  0  0  0  0
    0.5010   -1.3159    0.0264 C   0  0  0  0  0  0  0  0  0  0  0  0
   -0.8834   -1.1290    0.0202 C   0  0  0  0  0  0  0  0  0  0  0  0
   -1.4313    0.1580    0.0468 C   0  0  0  0  0  0  0  0  0  0  0  0
   -0.5576    1.2597    0.0676 C   0  0  0  0  0  0  0  0  0  0  0  0
    0.8294    1.0710    0.0175 C   0  0  0  0  0  0  0  0  0  0  0  0
   -2.9042    0.3965   -0.1274 C   0  0  0  0  0  0  0  0  0  0  0  0
   -3.3176    1.5464   -0.2549 O   0  0  0  0  0  0  0  0  0  0  0  0
   -3.6932   -0.7096   -0.4250 N   0  0  0  0  0  0  0  0  0  0  0  0
   -4.3663   -0.7303   -1.7012 C   0  0  0  0  0  0  0  0  0  0  0  0
   -5.8655   -0.6970   -1.5447 C   0  0  0  0  0  0  0  0  0  0  0  0
   -6.3731   -1.7814   -0.5886 C   0  0  0  0  0  0  0  0  0  0  0  0
   -5.6073   -1.7711    0.7414 C   0  0  0  0  0  0  0  0  0  0  0  0
   -4.0887   -1.7500    0.5218 C   0  0  0  0  0  0  0  0  0  0  0  0
   -7.8808   -1.5620   -0.3640 C   0  0  0  0  0  0  0  0  0  0  0  0
   -8.6817   -1.6346   -1.6773 C   0  0  0  0  0  0  0  0  0  0  0  0
   -8.5005   -2.9860   -2.3422 C   0  0  0  0  0  0  0  0  0  0  0  0
   -8.9266   -4.0513   -1.3560 C   0  0  0  0  0  0  0  0  0  0  0  0
  -10.3573   -4.1495   -1.2557 N   0  0  0  0  0  0  0  0  0  0  0  0
  -11.2309   -5.1019   -1.6724 C   0  0  0  0  0  0  0  0  0  0  0  0
  -12.4220   -4.9417   -1.4652 O   0  0  0  0  0  0  0  0  0  0  0  0
  -10.7741   -6.3612   -2.3250 C   0  0  0  0  0  0  0  0  0  0  0  0
   -9.5400   -6.7269   -2.6750 C   0  0  0  0  0  0  0  0  0  0  0  0
   -9.0784   -7.9886   -3.1861 C   0  0  0  0  0  0  0  0  0  0  0  0
   -9.5830   -8.5072   -4.3599 C   0  0  0  0  0  0  0  0  0  0  0  0
   -9.0148   -9.6707   -4.8405 C   0  0  0  0  0  0  0  0  0  0  0  0
   -7.9438  -10.2269   -4.1476 C   0  0  0  0  0  0  0  0  0  0  0  0
   -7.3800   -9.6924   -3.0434 N   0  0  0  0  0  0  0  0  0  0  0  0
   -7.9602   -8.5739   -2.5857 C   0  0  0  0  0  0  0  0  0  0  0  0
  1  2  2  0
  1  6  1  0
  2  3  1  0
  3  4  2  0
  4  5  1  0
  4  7  1  0
  5  6  2  0
  7  8  2  0
  7  9  1  0
  9 10  1  0
  9 14  1  0
 10 11  1  0
 11 12  1  0
 12 13  1  0
 12 15  1  0
 13 14  1  0
 15 16  1  0
 16 17  1  0
 17 18  1  0
 18 19  1  0
 19 20  1  0
 20 21  2  0
 20 22  1  0
 22 23  2  0
 23 24  1  0
 24 25  2  0
 24 29  1  0
 25 26  1  0
 26 27  2  0
 27 28  1  0
 28 29  2  0
M  END
>  <DRUGBANK_ID>  (1) 
DB12731

>  <COMMON_NAME>  (1) 
Daporinad

>  <CAS_NUMBER>  (1) 
658084-64-1

>  <UNII>  (1) 
V71TF6V9M7

>  <SYNONYMS>  (1) 
Daporinad

$$$$
