
     RDKit          3D

 27 29  0  0  0  0  0  0  0  0999 V2000
    0.9330    0.0426   -0.0407 C   0  0  0  0  0  0  0  0  0  0  0  0
    0.4529   -1.0399    0.8147 N   0  0  0  0  0  0  0  0  0  0  0  0
   -0.2980   -0.7807    1.9714 C   0  0  0  0  0  0  0  0  0  0  0  0
   -0.8151    0.4403    2.3344 C   0  0  0  0  0  0  0  0  0  0  0  0
   -1.4599    0.6500    3.5680 C   0  0  0  0  0  0  0  0  0  0  0  0
   -1.6759   -0.4435    4.3794 C   0  0  0  0  0  0  0  0  0  0  0  0
   -1.2674   -1.6657    4.0297 N   0  0  0  0  0  0  0  0  0  0  0  0
   -0.5877   -1.7881    2.8399 C   0  0  0  0  0  0  0  0  0  0  0  0
   -0.2343   -3.1557    2.5251 C   0  0  0  0  0  0  0  0  0  0  0  0
    0.4783   -3.5211    1.4153 C   0  0  0  0  0  0  0  0  0  0  0  0
    0.8593   -2.3437    0.4652 C   0  0  0  0  0  0  0  0  0  0  0  0
    1.4792   -2.5067   -0.5600 O   0  0  0  0  0  0  0  0  0  0  0  0
    0.9822   -4.9169    0.9149 C   0  0  0  0  0  0  0  0  0  0  0  0
    1.6057   -5.0312   -0.1422 O   0  0  0  0  0  0  0  0  0  0  0  0
    0.8156   -6.1177    1.5702 N   0  0  0  0  0  0  0  0  0  0  0  0
    0.2080   -6.3135    2.8467 C   0  0  0  0  0  0  0  0  0  0  0  0
   -1.2208   -6.8261    2.8371 C   0  0  0  0  0  0  0  0  0  0  0  0
   -1.1882   -8.2278    2.6236 O   0  0  0  0  0  0  0  0  0  0  0  0
   -0.7945   -3.9342    3.5274 O   0  0  0  0  0  0  0  0  0  0  0  0
   -1.8637    2.0380    3.9860 C   0  0  0  0  0  0  0  0  0  0  0  0
   -0.6636    2.9506    4.1558 C   0  0  0  0  0  0  0  0  0  0  0  0
    0.1490    3.3069    3.0621 C   0  0  0  0  0  0  0  0  0  0  0  0
    1.3265    4.0222    3.2342 C   0  0  0  0  0  0  0  0  0  0  0  0
    1.7307    4.3414    4.5163 C   0  0  0  0  0  0  0  0  0  0  0  0
    0.9538    3.9965    5.6166 C   0  0  0  0  0  0  0  0  0  0  0  0
   -0.2863    3.3842    5.4302 C   0  0  0  0  0  0  0  0  0  0  0  0
    2.8694    5.0212    4.6928 F   0  0  0  0  0  0  0  0  0  0  0  0
  1  2  1  0
  2  3  1  0
  2 11  1  0
  3  4  2  0
  3  8  1  0
  4  5  1  0
  5  6  2  0
  5 20  1  0
  6  7  1  0
  7  8  2  0
  8  9  1  0
  9 10  2  0
  9 19  1  0
 10 11  1  0
 10 13  1  0
 11 12  2  0
 13 14  2  0
 13 15  1  0
 15 16  1  0
 16 17  1  0
 17 18  1  0
 20 21  1  0
 21 22  2  0
 21 26  1  0
 22 23  1  0
 23 24  2  0
 24 25  1  0
 24 27  1  0
 25 26  2  0
M  END
>  <DRUGBANK_ID>  (1) 
DB13119

>  <SECONDARY_ACCESSION_NUMBERS>  (1) 
DB06009

>  <COMMON_NAME>  (1) 
GSK-364735

>  <CAS_NUMBER>  (1) 
863434-13-3

>  <UNII>  (1) 
SXN0KXT60S

>  <SYNONYMS>  (1) 
Naphthyridinone

$$$$
