
     RDKit          3D

 31 33  0  0  0  0  0  0  0  0999 V2000
    1.3542   -0.0916   -0.0560 C   0  0  0  0  0  0  0  0  0  0  0  0
    0.7577   -1.4840   -0.1669 C   0  0  0  0  0  0  0  0  0  0  0  0
    1.1689   -2.2554    1.0656 C   0  0  0  0  0  0  0  0  0  0  0  0
   -0.7158   -1.4662   -0.2799 C   0  0  0  0  0  0  0  0  0  0  0  0
   -1.4731   -2.7417   -0.1855 C   0  0  0  0  0  0  0  0  0  0  0  0
   -2.8532   -2.8680   -0.0805 C   0  0  0  0  0  0  0  0  0  0  0  0
   -3.4921   -1.6812   -0.1004 C   0  0  0  0  0  0  0  0  0  0  0  0
   -2.6206   -0.5631   -0.2038 C   0  0  0  0  0  0  0  0  0  0  0  0
   -2.9796    0.8208    0.1282 C   0  0  0  0  0  0  0  0  0  0  0  0
   -2.2422    1.7338    1.5512 C   0  0  0  0  0  0  0  0  0  0  0  0
   -3.4867    1.7258   -1.5385 C   0  0  0  0  0  0  0  0  0  0  0  0
   -1.3636   -0.2623   -0.3721 C   0  0  0  0  0  0  0  0  0  0  0  0
   -1.0044    1.2165   -0.5406 N   0  0  0  0  0  0  0  0  0  0  0  0
   -1.6561    2.6204   -0.4032 C   0  0  0  0  0  0  0  0  0  0  0  0
   -0.9531    3.5832   -0.6683 O   0  0  0  0  0  0  0  0  0  0  0  0
   -3.2928    2.7892    0.1030 N   0  0  0  0  0  0  0  0  0  0  0  0
   -4.7408    1.6039    0.1961 C   0  0  0  0  0  0  0  0  0  0  0  0
   -4.9352    1.1423    1.7809 C   0  0  0  0  0  0  0  0  0  0  0  0
   -5.8306   -0.0568    1.8792 C   0  0  0  0  0  0  0  0  0  0  0  0
   -6.6823    0.4655    3.0038 C   0  0  0  0  0  0  0  0  0  0  0  0
   -6.5219    2.0160    3.0630 C   0  0  0  0  0  0  0  0  0  0  0  0
   -5.7145    2.4148    1.9024 C   0  0  0  0  0  0  0  0  0  0  0  0
   -3.8266    0.7710    3.1767 C   0  0  0  0  0  0  0  0  0  0  0  0
   -2.8687   -0.4321    3.0997 C   0  0  0  0  0  0  0  0  0  0  0  0
   -1.4861   -0.3139    3.5890 C   0  0  0  0  0  0  0  0  0  0  0  0
   -1.0431    0.8772    4.2888 C   0  0  0  0  0  0  0  0  0  0  0  0
   -1.9697    1.9989    4.3913 C   0  0  0  0  0  0  0  0  0  0  0  0
   -3.3623    1.9340    3.9688 C   0  0  0  0  0  0  0  0  0  0  0  0
    0.2752    0.9908    4.7729 N   0  0  0  0  0  0  0  0  0  0  0  0
    0.5889    2.0614    5.7207 C   0  0  0  0  0  0  0  0  0  0  0  0
    1.0498   -0.2452    4.9203 C   0  0  0  0  0  0  0  0  0  0  0  0
  1  2  1  0
  2  3  1  0
  2  4  1  0
  4  5  2  0
  4 12  1  0
  5  6  1  0
  6  7  2  0
  7  8  1  0
  8  9  1  0
  8 12  2  0
  9 10  1  0
  9 11  1  0
 12 13  1  0
 13 14  1  0
 14 15  2  0
 14 16  1  0
 16 17  1  0
 17 18  1  0
 18 19  1  0
 18 22  1  0
 18 23  1  0
 19 20  1  0
 20 21  1  0
 21 22  1  0
 23 24  2  0
 23 28  1  0
 24 25  1  0
 25 26  2  0
 26 27  1  0
 26 29  1  0
 27 28  2  0
 29 30  1  0
 29 31  1  0
M  END
>  <DRUGBANK_ID>  (1) 
DB16254

>  <COMMON_NAME>  (1) 
Nevanimibe

>  <CAS_NUMBER>  (1) 
133825-80-6

>  <UNII>  (1) 
VK9OS8R205

>  <SYNONYMS>  (1) 
Atr-101 free base; Nevanimibe

$$$$
