
     RDKit          3D

 33 36  0  0  0  0  0  0  0  0999 V2000
    1.4749    1.0931   -0.0207 S   0  0  0  0  0  0  0  0  0  0  0  0
    0.0045    0.7346   -0.9657 C   0  0  1  0  0  0  0  0  0  0  0  0
   -0.6190   -0.5152   -0.5537 N   0  0  0  0  0  0  0  0  0  0  0  0
   -0.0049   -1.7383   -0.3825 C   0  0  0  0  0  0  0  0  0  0  0  0
    1.3548   -1.7901   -0.2288 C   0  0  0  0  0  0  0  0  0  0  0  0
    2.2690   -0.5434   -0.3135 C   0  0  0  0  0  0  0  0  0  0  0  0
   -1.3410    1.4359   -0.6158 C   0  0  1  0  0  0  0  0  0  0  0  0
   -1.7361    0.0578   -0.0043 C   0  0  0  0  0  0  0  0  0  0  0  0
   -0.9256   -2.9518   -0.2325 C   0  0  0  0  0  0  0  0  0  0  0  0
   -2.1421   -2.9432   -0.2190 O   0  0  0  0  0  0  0  0  0  0  0  0
   -0.2795   -4.1298   -0.1729 O   0  0  0  0  0  0  0  0  0  0  0  0
   -1.4094    2.6693    0.2364 N   0  0  0  0  0  0  0  0  0  0  0  0
   -2.1022    3.7989   -0.2134 C   0  0  0  0  0  0  0  0  0  0  0  0
   -2.1908    5.0676    0.6803 C   0  0  0  0  0  0  0  0  0  0  0  0
   -2.5823    3.8284   -1.3423 O   0  0  0  0  0  0  0  0  0  0  0  0
   -1.6271    5.1973    1.8592 N   0  0  0  0  0  0  0  0  0  0  0  0
   -0.9796    4.0297    2.2828 O   0  0  0  0  0  0  0  0  0  0  0  0
   -0.4493    4.1812    3.5939 C   0  0  0  0  0  0  0  0  0  0  0  0
   -4.1648    6.1216   -0.4880 N   0  0  0  0  0  0  0  0  0  0  0  0
   -4.6401    7.2919   -0.8419 C   0  0  0  0  0  0  0  0  0  0  0  0
   -3.6485    8.6301   -0.4314 S   0  0  0  0  0  0  0  0  0  0  0  0
   -2.5043    7.5605    0.2720 C   0  0  0  0  0  0  0  0  0  0  0  0
   -2.9319    6.2464    0.1675 C   0  0  0  0  0  0  0  0  0  0  0  0
   -5.8104    7.4644   -1.4700 N   0  0  0  0  0  0  0  0  0  0  0  0
   -2.5963   -0.3459    0.7272 O   0  0  0  0  0  0  0  0  0  0  0  0
    2.1211   -3.0266    0.2818 C   0  0  0  0  0  0  0  0  0  0  0  0
    1.6124   -3.7854    1.8695 S   0  0  0  0  0  0  0  0  0  0  0  0
    1.4250   -1.4682    3.4490 N   0  0  0  0  0  0  0  0  0  0  0  0
    1.7173   -2.7860    3.2727 C   0  0  0  0  0  0  0  0  0  0  0  0
    1.9357   -3.2741    4.4775 N   0  0  0  0  0  0  0  0  0  0  0  0
    1.8819   -2.2135    5.3524 N   0  0  0  0  0  0  0  0  0  0  0  0
    1.6021   -1.0934    4.7161 N   0  0  0  0  0  0  0  0  0  0  0  0
    1.0876   -0.4626    2.5256 C   0  0  0  0  0  0  0  0  0  0  0  0
  2  1  1  1
  1  6  1  0
  2  3  1  0
  2  7  1  0
  3  4  1  0
  4  5  2  0
  4  9  1  0
  5  6  1  0
  5 26  1  0
  7  8  1  0
  7 12  1  1
  8  3  1  0
  8 25  2  0
  9 10  2  0
  9 11  1  0
 12 13  1  0
 13 14  1  0
 13 15  2  0
 14 23  1  0
 14 16  2  0
 16 17  1  0
 17 18  1  0
 19 20  2  0
 19 23  1  0
 20 21  1  0
 20 24  1  0
 21 22  1  0
 22 23  2  0
 26 27  1  0
 27 29  1  0
 28 29  1  0
 28 32  1  0
 28 33  1  0
 29 30  2  0
 30 31  1  0
 31 32  2  0
M  END
>  <DRUGBANK_ID>  (1) 
DB00267

>  <SECONDARY_ACCESSION_NUMBERS>  (1) 
APRD00851

>  <COMMON_NAME>  (1) 
Cefmenoxime

>  <CAS_NUMBER>  (1) 
65085-01-0

>  <UNII>  (1) 
KBZ4844CXN

>  <SYNONYMS>  (1) 
(6R,7R)-7-((Z)-2-(2-Amino-4-thiazolyl)-2-methoxyiminoacetamido)-3-((1-methyl-1H-5-tetraazolylthio)methyl)-8-oxo-5-thia-1-azabicyclo(4.2.0)oct-2-en-2-carbonsaeure; (6R,7R)-7-[[(2E)-2-(2-amino-1,3-thiazol-4-yl)-2-methoxyiminoacetyl]amino]-3-[(1-methyltetrazol-5-yl)sulfanylmethyl]-8-oxo-5-thia-1-azabicyclo[4.2.0]oct-2-ene-2-carboxylic acid; Cefmenoxima; Cefmenoxime; Cefmenoximum; CMX

$$$$
