1453
     RDKit          3D

 26 28  0  0  1  0  0  0  0  0999 V2000
    0.9083   -0.0189    0.1037 O   0  0  0  0  0  0  0  0  0  0  0  0
    6.4277   -2.2879    0.2476 O   0  0  0  0  0  0  0  0  0  0  0  0
    2.5259   -2.1770   -1.1222 N   0  0  0  0  0  0  0  0  0  0  0  0
    6.6495   -2.2423   -2.0593 N   0  0  0  0  0  0  0  0  0  0  0  0
    5.1885   -2.2023   -2.2446 C   0  0  0  0  0  0  0  0  0  0  0  0
    4.5258   -3.4761   -1.6973 C   0  0  0  0  0  0  0  0  0  0  0  0
    4.5639   -0.9346   -1.6616 C   0  0  0  0  0  0  0  0  0  0  0  0
    3.0088   -3.3973   -1.7738 C   0  0  0  0  0  0  0  0  0  0  0  0
    3.0544   -0.9854   -1.7942 C   0  0  0  0  0  0  0  0  0  0  0  0
    1.0520   -2.1558   -1.0630 C   0  0  0  0  0  0  0  0  0  0  0  0
    0.5346   -1.3977    0.1866 C   0  0  0  0  0  0  0  0  0  0  0  0
    7.4331   -2.1891   -3.2444 C   0  0  0  0  0  0  0  0  0  0  0  0
    7.1667   -2.2772   -0.7556 C   0  0  0  0  0  0  0  0  0  0  0  0
    0.9783   -2.0004    1.5117 C   0  0  0  0  0  0  0  0  0  0  0  0
    8.6587   -2.2154   -0.4806 C   0  0  0  0  0  0  0  0  0  0  0  0
    7.4188   -1.0666   -4.0742 C   0  0  0  0  0  0  0  0  0  0  0  0
    8.2514   -3.2568   -3.5927 C   0  0  0  0  0  0  0  0  0  0  0  0
    1.3125   -1.1797    2.6007 C   0  0  0  0  0  0  0  0  0  0  0  0
    0.9583   -3.3910    1.7093 C   0  0  0  0  0  0  0  0  0  0  0  0
    9.4269   -3.4667   -0.8345 C   0  0  0  0  0  0  0  0  0  0  0  0
    8.3554   -0.9509   -5.1093 C   0  0  0  0  0  0  0  0  0  0  0  0
    9.2903   -3.0784   -4.5069 C   0  0  0  0  0  0  0  0  0  0  0  0
    9.3337   -1.9285   -5.2819 C   0  0  0  0  0  0  0  0  0  0  0  0
    1.5727   -1.7294    3.8539 C   0  0  0  0  0  0  0  0  0  0  0  0
    1.1668   -3.9360    2.9733 C   0  0  0  0  0  0  0  0  0  0  0  0
    1.4796   -3.1051    4.0436 C   0  0  0  0  0  0  0  0  0  0  0  0
  1 11  1  0
  2 13  2  0
  3  8  1  0
  3  9  1  0
  3 10  1  0
  4  5  1  0
  4 12  1  0
  4 13  1  0
  5  6  1  0
  5  7  1  0
  6  8  1  0
  7  9  1  0
 10 11  1  0
 11 14  1  0
 12 16  2  0
 12 17  1  0
 13 15  1  0
 14 18  2  0
 14 19  1  0
 15 20  1  0
 16 21  1  0
 17 22  2  0
 18 24  1  0
 19 25  2  0
 21 23  2  0
 22 23  1  0
 24 26  2  0
 25 26  1  0
M  END
>  <DRUGBANK_ID>  (1) 
DB01453

>  <COMMON_NAME>  (1) 
Beta-hydroxyfentanyl

>  <CAS_NUMBER>  (1) 
78995-10-5

>  <UNII>  (1) 
6Q4XAW26T4

$$$$
