1588
     RDKit          3D

 23 26  0  0  0  0  0  0  0  0999 V2000
    1.0867    0.0415    0.0543 Cl  0  0  0  0  0  0  0  0  0  0  0  0
    9.0969    1.0835   -0.2136 O   0  0  0  0  0  0  0  0  0  0  0  0
    7.0574    0.0152    0.0575 N   0  0  0  0  0  0  0  0  0  0  0  0
    6.5605    3.0403   -0.3876 N   0  0  0  0  0  0  0  0  0  0  0  0
    8.4324   -2.0510   -0.2093 C   0  0  0  0  0  0  0  0  0  0  0  0
    9.6615   -1.6858   -1.0198 C   0  0  0  0  0  0  0  0  0  0  0  0
    8.3446   -1.9010   -1.7134 C   0  0  0  0  0  0  0  0  0  0  0  0
    7.7152   -1.1095    0.7271 C   0  0  0  0  0  0  0  0  0  0  0  0
    5.6282    0.0666    0.0220 C   0  0  0  0  0  0  0  0  0  0  0  0
    7.8770    1.0377   -0.4214 C   0  0  0  0  0  0  0  0  0  0  0  0
    4.9019    1.2699    0.1216 C   0  0  0  0  0  0  0  0  0  0  0  0
    7.2248    2.1016   -1.2792 C   0  0  0  0  0  0  0  0  0  0  0  0
    4.8987   -1.1367   -0.0773 C   0  0  0  0  0  0  0  0  0  0  0  0
    5.5421    2.6123    0.2775 C   0  0  0  0  0  0  0  0  0  0  0  0
    3.4937    1.2474    0.1353 C   0  0  0  0  0  0  0  0  0  0  0  0
    3.5007   -1.1493   -0.0750 C   0  0  0  0  0  0  0  0  0  0  0  0
    4.9604    3.5397    1.2822 C   0  0  0  0  0  0  0  0  0  0  0  0
    2.8049    0.0447    0.0385 C   0  0  0  0  0  0  0  0  0  0  0  0
    4.6186    4.8438    0.9167 C   0  0  0  0  0  0  0  0  0  0  0  0
    4.7624    3.0892    2.5905 C   0  0  0  0  0  0  0  0  0  0  0  0
    4.1395    5.7211    1.8889 C   0  0  0  0  0  0  0  0  0  0  0  0
    4.1863    3.9401    3.5287 C   0  0  0  0  0  0  0  0  0  0  0  0
    3.9217    5.2676    3.1916 C   0  0  0  0  0  0  0  0  0  0  0  0
  1 18  1  0
  2 10  2  0
  3  8  1  0
  3  9  1  0
  3 10  1  0
  4 12  1  0
  4 14  2  0
  5  6  1  0
  5  7  1  0
  5  8  1  0
  6  7  1  0
  9 11  2  0
  9 13  1  0
 10 12  1  0
 11 14  1  0
 11 15  1  0
 13 16  2  0
 14 17  1  0
 15 18  2  0
 16 18  1  0
 17 19  2  0
 17 20  1  0
 19 21  1  0
 20 22  2  0
 21 23  2  0
 22 23  1  0
M  END
>  <DRUGBANK_ID>  (1) 
DB01588

>  <COMMON_NAME>  (1) 
Prazepam

>  <CAS_NUMBER>  (1) 
2955-38-6

>  <UNII>  (1) 
Q30VCC064M

>  <SYNONYMS>  (1) 
Prazepam; Prazepamum

$$$$
