
     RDKit          3D

 27 27  0  0  0  0  0  0  0  0999 V2000
   -1.6772    6.3763   -3.4913 O   0  0  0  0  0  0  0  0  0  0  0  0
    2.7848    7.2537   -2.6010 O   0  0  0  0  0  0  0  0  0  0  0  0
   -1.8118    1.3088   -1.0788 O   0  0  0  0  0  0  0  0  0  0  0  0
    9.9484    3.8636   -2.5155 O   0  0  0  0  0  0  0  0  0  0  0  0
    8.4069    4.4586   -4.0058 O   0  0  0  0  0  0  0  0  0  0  0  0
   -0.0486    5.0891   -2.2033 C   0  0  2  0  0  0  0  0  0  0  0  0
    1.3268    5.4393   -1.5715 C   0  0  2  0  0  0  0  0  0  0  0  0
   -0.7170    6.4385   -2.4463 C   0  0  1  0  0  0  0  0  0  0  0  0
    1.5798    6.9234   -1.9468 C   0  0  2  0  0  0  0  0  0  0  0  0
    0.4493    7.2925   -2.8879 C   0  0  0  0  0  0  0  0  0  0  0  0
   -0.8549    4.1651   -1.3481 C   0  0  0  0  0  0  0  0  0  0  0  0
    2.3677    4.3551   -1.9014 C   0  0  0  0  0  0  0  0  0  0  0  0
   -2.6621    2.4593   -1.0071 C   0  0  1  0  0  0  0  0  0  0  0  0
   -1.9587    3.5358   -1.7862 C   0  0  0  0  0  0  0  0  0  0  0  0
    3.2612    4.6289   -3.0675 C   0  0  0  0  0  0  0  0  0  0  0  0
   -4.0025    2.0717   -1.6845 C   0  0  0  0  0  0  0  0  0  0  0  0
   -2.7438    2.8788    0.4692 C   0  0  0  0  0  0  0  0  0  0  0  0
    4.5518    4.7884   -2.9327 C   0  0  0  0  0  0  0  0  0  0  0  0
   -4.6941    0.8486   -1.0473 C   0  0  0  0  0  0  0  0  0  0  0  0
    5.8076    4.9827   -2.7183 C   0  0  0  0  0  0  0  0  0  0  0  0
   -5.1816    1.0666    0.3866 C   0  0  0  0  0  0  0  0  0  0  0  0
    6.5767    4.3614   -1.5887 C   0  0  0  0  0  0  0  0  0  0  0  0
    7.5794    3.3129   -2.0620 C   0  0  0  0  0  0  0  0  0  0  0  0
    8.6651    3.9168   -2.9336 C   0  0  0  0  0  0  0  0  0  0  0  0
   -5.9788    2.3631    0.5263 C   0  0  0  0  0  0  0  0  0  0  0  0
   -7.2963    2.1813   -0.1955 C   0  0  0  0  0  0  0  0  0  0  0  0
   10.3455    3.1860   -1.3226 C   0  0  0  0  0  0  0  0  0  0  0  0
  4 24  1  0
  4 27  1  0
  5 24  2  0
  6  7  1  0
  6  8  1  0
  6 11  1  1
  7  9  1  0
  7 12  1  6
  8 10  1  0
  8  1  1  6
  9 10  1  0
  9  2  1  6
 11 14  2  0
 12 15  1  0
 13 16  1  0
 13 17  1  1
 13 14  1  0
 13  3  1  0
 15 18  2  0
 16 19  1  0
 18 20  2  0
 19 21  1  0
 20 22  1  0
 21 25  1  0
 22 23  1  0
 23 24  1  0
 25 26  1  0
M  END
>  <DRUGBANK_ID>  (1) 
DB11454

>  <COMMON_NAME>  (1) 
Prostalene

>  <CAS_NUMBER>  (1) 
54120-61-5

>  <UNII>  (1) 
O02SWY8981

>  <SYNONYMS>  (1) 
Prostalene; Prostaleno

$$$$
