
     RDKit          3D

 31 34  0  0  0  0  0  0  0  0999 V2000
    2.2081    0.0643   -0.0535 C   0  0  0  0  0  0  0  0  0  0  0  0
    0.7482   -0.1515   -0.1526 C   0  0  0  0  0  0  0  0  0  0  0  0
   -0.0578   -1.2769   -0.1323 C   0  0  0  0  0  0  0  0  0  0  0  0
   -1.3884   -0.7515   -0.0922 C   0  0  0  0  0  0  0  0  0  0  0  0
   -1.3657    0.5905   -0.0745 N   0  0  0  0  0  0  0  0  0  0  0  0
   -0.0333    0.9592   -0.1030 O   0  0  0  0  0  0  0  0  0  0  0  0
   -2.6367   -1.4990    0.0019 C   0  0  0  0  0  0  0  0  0  0  0  0
   -2.8969   -2.3672    1.0753 C   0  0  0  0  0  0  0  0  0  0  0  0
   -4.0321   -3.1753    1.0880 C   0  0  0  0  0  0  0  0  0  0  0  0
   -4.9395   -3.0740    0.0472 C   0  0  0  0  0  0  0  0  0  0  0  0
   -4.7255   -2.1874   -1.0038 C   0  0  0  0  0  0  0  0  0  0  0  0
   -3.5714   -1.4011   -1.0307 C   0  0  0  0  0  0  0  0  0  0  0  0
   -6.0390   -3.8370    0.0582 F   0  0  0  0  0  0  0  0  0  0  0  0
    0.3795   -2.6972    0.0198 C   0  0  0  0  0  0  0  0  0  0  0  0
   -0.0537   -3.4007    1.2088 O   0  0  0  0  0  0  0  0  0  0  0  0
    0.2896   -2.8956    2.4366 C   0  0  0  0  0  0  0  0  0  0  0  0
    0.2564   -1.5564    2.7289 C   0  0  0  0  0  0  0  0  0  0  0  0
    0.5065   -1.1119    4.0020 C   0  0  0  0  0  0  0  0  0  0  0  0
    0.7109   -1.9752    5.0448 C   0  0  0  0  0  0  0  0  0  0  0  0
    0.6985   -3.3183    4.6974 C   0  0  0  0  0  0  0  0  0  0  0  0
    0.4855   -3.7954    3.4215 N   0  0  0  0  0  0  0  0  0  0  0  0
    1.0544   -1.4606    6.4017 C   0  0  0  0  0  0  0  0  0  0  0  0
    1.4344   -2.2603    7.2506 O   0  0  0  0  0  0  0  0  0  0  0  0
    1.1371   -0.0673    6.5742 N   0  0  0  0  0  0  0  0  0  0  0  0
   -0.0002    0.8584    6.4277 C   0  0  0  0  0  0  0  0  0  0  0  0
    0.3063    1.9840    5.4480 C   0  0  0  0  0  0  0  0  0  0  0  0
    1.7549    2.8584    5.9571 S   0  0  0  0  0  0  0  0  0  0  0  0
    2.2121    3.6238    4.8074 O   0  0  0  0  0  0  0  0  0  0  0  0
    1.4686    3.5086    7.2151 O   0  0  0  0  0  0  0  0  0  0  0  0
    2.9267    1.5381    6.2282 C   0  0  0  0  0  0  0  0  0  0  0  0
    2.3398    0.5064    7.1772 C   0  0  0  0  0  0  0  0  0  0  0  0
  1  2  1  0
  2  3  2  0
  2  6  1  0
  3  4  1  0
  3 14  1  0
  4  5  2  0
  4  7  1  0
  5  6  1  0
  7  8  2  0
  7 12  1  0
  8  9  1  0
  9 10  2  0
 10 11  1  0
 10 13  1  0
 11 12  2  0
 14 15  1  0
 15 16  1  0
 16 17  2  0
 16 21  1  0
 17 18  1  0
 18 19  2  0
 19 20  1  0
 19 22  1  0
 20 21  2  0
 22 23  2  0
 22 24  1  0
 24 25  1  0
 24 31  1  0
 25 26  1  0
 26 27  1  0
 27 28  2  0
 27 29  2  0
 27 30  1  0
 30 31  1  0
M  END
>  <DRUGBANK_ID>  (1) 
DB11877

>  <COMMON_NAME>  (1) 
Basmisanil

>  <CAS_NUMBER>  (1) 
1159600-41-5

>  <UNII>  (1) 
788PET5SUA

>  <SYNONYMS>  (1) 
Basmisanil

$$$$
