46U
     RDKit          3D

 28 30  0  0  0  0  0  0  0  0999 V2000
    1.4320   -0.8363    0.1701 O   0  0  0  0  0  0  0  0  0  0  0  0
    2.5706   -0.3584    0.1673 C   0  0  0  0  0  0  0  0  0  0  0  0
    3.2709   -0.1949   -1.1940 C   0  0  0  0  0  0  0  0  0  0  0  0
    3.9458    1.0286   -1.4462 O   0  0  0  0  0  0  0  0  0  0  0  0
    3.0591    2.1416   -1.6891 C   0  0  0  0  0  0  0  0  0  0  0  0
    3.8550    3.4407   -1.5214 C   0  0  0  0  0  0  0  0  0  0  0  0
    2.9264    4.6565   -1.5256 C   0  0  0  0  0  0  0  0  0  0  0  0
    1.8329    4.5623   -0.4619 C   0  0  0  0  0  0  0  0  0  0  0  0
    0.9812    3.3338   -0.6840 C   0  0  0  0  0  0  0  0  0  0  0  0
    1.8563    2.1260   -0.7452 C   0  0  0  0  0  0  0  0  0  0  0  0
    3.2081    0.0599    1.3243 N   0  0  0  0  0  0  0  0  0  0  0  0
    2.7763   -0.4037    2.6366 C   0  0  1  0  0  0  0  0  0  0  0  0
    3.1066    0.7594    3.5597 C   0  0  0  0  0  0  0  0  0  0  0  0
    4.4093    1.2935    2.9755 C   0  0  0  0  0  0  0  0  0  0  0  0
    4.3005    1.0263    1.4719 C   0  0  0  0  0  0  0  0  0  0  0  0
    1.3276   -0.8803    2.7809 C   0  0  0  0  0  0  0  0  0  0  0  0
    0.3725   -0.1071    2.9483 O   0  0  0  0  0  0  0  0  0  0  0  0
    1.0854   -2.2160    2.6111 N   0  0  0  0  0  0  0  0  0  0  0  0
    2.0359   -3.3030    2.4414 C   0  0  0  0  0  0  0  0  0  0  0  0
    2.0584   -4.1746    3.6694 C   0  0  0  0  0  0  0  0  0  0  0  0
    3.2738   -4.6319    4.1882 C   0  0  0  0  0  0  0  0  0  0  0  0
    3.3047   -5.3658    5.3770 C   0  0  0  0  0  0  0  0  0  0  0  0
    2.1213   -5.6593    6.0691 C   0  0  0  0  0  0  0  0  0  0  0  0
    2.1560   -6.5089    7.3039 C   0  0  0  0  0  0  0  0  0  0  0  0
    1.0979   -6.8588    7.9684 N   0  0  0  0  0  0  0  0  0  0  0  0
    3.3243   -6.9902    7.8009 N   0  0  0  0  0  0  0  0  0  0  0  0
    0.9098   -5.1870    5.5539 C   0  0  0  0  0  0  0  0  0  0  0  0
    0.8742   -4.5095    4.3356 C   0  0  0  0  0  0  0  0  0  0  0  0
  1  2  2  0
  2  3  1  0
  2 11  1  0
  3  4  1  0
  4  5  1  0
  5  6  1  0
  5 10  1  0
  6  7  1  0
  7  8  1  0
  8  9  1  0
  9 10  1  0
 11 12  1  0
 11 15  1  0
 12 13  1  0
 12 16  1  6
 13 14  1  0
 14 15  1  0
 16 17  2  0
 16 18  1  0
 18 19  1  0
 19 20  1  0
 20 21  2  0
 20 28  1  0
 21 22  1  0
 22 23  2  0
 23 24  1  0
 23 27  1  0
 24 25  2  0
 24 26  1  0
 27 28  2  0
M  END
>  <DRUGBANK_ID>  (1) 
DB07091

>  <COMMON_NAME>  (1) 
(S)-N-(4-carbamimidoylbenzyl)-1-(2-(cyclohexyloxy)ethanoyl)pyrrolidine-2-carboxamide

$$$$
