
     RDKit          3D

 33 37  0  0  0  0  0  0  0  0999 V2000
   -0.2834    9.6162   -2.2121 C   0  0  0  0  0  0  0  0  0  0  0  0
    0.0085   10.2733   -1.0310 N   0  0  0  0  0  0  0  0  0  0  0  0
   -0.9388   10.2359    0.0084 C   0  0  0  0  0  0  0  0  0  0  0  0
   -1.3664    8.9985    0.4829 C   0  0  0  0  0  0  0  0  0  0  0  0
   -2.0670    8.8951    1.6871 C   0  0  0  0  0  0  0  0  0  0  0  0
   -2.3487   10.0330    2.4508 C   0  0  0  0  0  0  0  0  0  0  0  0
   -2.0184   11.2796    1.8984 C   0  0  0  0  0  0  0  0  0  0  0  0
   -1.3448   11.3904    0.6606 C   0  0  0  0  0  0  0  0  0  0  0  0
   -3.0089    9.9184    3.8140 C   0  0  0  0  0  0  0  0  0  0  0  0
   -2.2018   10.1239    5.1357 C   0  0  1  0  0  0  0  0  0  0  0  0
   -1.0708    9.1905    5.3535 N   0  0  0  0  0  0  0  0  0  0  0  0
   -0.0394    9.8689    6.1953 C   0  0  2  0  0  0  0  0  0  0  0  0
   -0.5193   11.3339    6.3671 C   0  0  0  0  0  0  0  0  0  0  0  0
   -1.6818   11.5408    5.3946 C   0  0  0  0  0  0  0  0  0  0  0  0
    1.5017    9.7055    5.7265 C   0  0  2  0  0  0  0  0  0  0  0  0
    2.3464   10.2943    6.7175 O   0  0  0  0  0  0  0  0  0  0  0  0
    1.8766   10.2632    4.3661 C   0  0  0  0  0  0  0  0  0  0  0  0
    3.1180   10.2523    3.7214 C   0  0  0  0  0  0  0  0  0  0  0  0
    3.2665   10.7018    2.3754 C   0  0  0  0  0  0  0  0  0  0  0  0
    2.2119   11.2580    1.6944 C   0  0  0  0  0  0  0  0  0  0  0  0
    1.0572   11.3449    2.3881 C   0  0  0  0  0  0  0  0  0  0  0  0
    0.8759   10.7941    3.6186 C   0  0  0  0  0  0  0  0  0  0  0  0
   -1.3180    8.9741   -2.3898 O   0  0  0  0  0  0  0  0  0  0  0  0
    0.6960    9.7960   -3.3616 C   0  0  1  0  0  0  0  0  0  0  0  0
    0.6695   11.1779   -3.7297 N   0  0  0  0  0  0  0  0  0  0  0  0
    1.8894   11.7931   -3.6517 C   0  0  0  0  0  0  0  0  0  0  0  0
    2.9214   10.7956   -3.1787 C   0  0  0  0  0  0  0  0  0  0  0  0
    2.1412    9.4825   -3.0050 C   0  0  0  0  0  0  0  0  0  0  0  0
    2.0791   13.0387   -3.9473 N   0  0  0  0  0  0  0  0  0  0  0  0
    0.9577   13.7271   -4.3781 C   0  0  0  0  0  0  0  0  0  0  0  0
   -0.2665   13.2124   -4.5276 C   0  0  0  0  0  0  0  0  0  0  0  0
   -0.4628   11.7880   -4.2204 C   0  0  0  0  0  0  0  0  0  0  0  0
   -1.5361   11.2630   -4.3846 O   0  0  0  0  0  0  0  0  0  0  0  0
  1  2  1  0
  1 23  2  0
  2  3  1  0
  3  4  2  0
  3  8  1  0
  4  5  1  0
  5  6  2  0
  6  9  1  0
  7  6  1  0
  8  7  2  0
 10  9  1  6
 10 11  1  0
 10 14  1  0
 11 12  1  0
 12 13  1  6
 14 13  1  0
 15 17  1  0
 15 16  1  1
 15 12  1  0
 17 18  2  0
 17 22  1  0
 18 19  1  0
 19 20  2  0
 21 20  1  0
 22 21  2  0
 24 25  1  0
 24 28  1  0
 24  1  1  1
 25 26  1  0
 25 32  1  0
 26 27  1  0
 26 29  2  0
 28 27  1  0
 29 30  1  0
 31 30  2  0
 32 31  1  0
 32 33  2  0
M  END
>  <DRUGBANK_ID>  (1) 
DB14895

>  <COMMON_NAME>  (1) 
Vibegron

>  <CAS_NUMBER>  (1) 
1190389-15-1

>  <UNII>  (1) 
M5TSE03W5U

>  <SYNONYMS>  (1) 
Vibégron; Vibegrón; Vibegron; Vibegronum

$$$$
