
     RDKit          3D

 10 11  0  0  0  0  0  0  0  0999 V2000
    0.9830    0.1308   -0.0161 Br  0  0  0  0  0  0  0  0  0  0  0  0
    3.2030   -2.4436   -0.0186 N   0  0  0  0  0  0  0  0  0  0  0  0
    5.4228   -2.3991   -0.0268 N   0  0  0  0  0  0  0  0  0  0  0  0
    5.6701    0.0035   -0.0298 N   0  0  0  0  0  0  0  0  0  0  0  0
    3.5784    1.2120   -0.0234 N   0  0  0  0  0  0  0  0  0  0  0  0
    3.5519   -1.1225   -0.0209 C   0  0  0  0  0  0  0  0  0  0  0  0
    4.9332   -1.1207   -0.0259 C   0  0  0  0  0  0  0  0  0  0  0  0
    2.8652    0.0692   -0.0199 C   0  0  0  0  0  0  0  0  0  0  0  0
    4.3598   -3.1735   -0.0225 C   0  0  0  0  0  0  0  0  0  0  0  0
    4.9229    1.1152   -0.0283 C   0  0  0  0  0  0  0  0  0  0  0  0
  1  8  1  0
  2  6  1  0
  2  9  1  0
  3  7  1  0
  3  9  2  0
  4  7  1  0
  4 10  2  0
  5  8  2  0
  5 10  1  0
  6  7  2  0
  6  8  1  0
M  END
>  <DRUGBANK_ID>  (1) 
DB02168

>  <SECONDARY_ACCESSION_NUMBERS>  (1) 
EXPT00741

>  <COMMON_NAME>  (1) 
6-bromopurine

>  <CAS_NUMBER>  (1) 
767-69-1

>  <SYNONYMS>  (1) 
6-bromo-1H-purine

$$$$
