
     RDKit          3D

 19 21  0  0  0  0  0  0  0  0999 V2000
   -1.3372   -0.5096    0.2526 O   0  0  0  0  0  0  0  0  0  0  0  0
    1.6998   -0.1069    0.6183 O   0  0  0  0  0  0  0  0  0  0  0  0
   -3.3225    1.3693    1.1241 O   0  0  0  0  0  0  0  0  0  0  0  0
   -1.0365   -3.3463   -5.9538 O   0  0  0  0  0  0  0  0  0  0  0  0
   -0.6908   -1.5620   -1.7760 N   0  0  0  0  0  0  0  0  0  0  0  0
    1.3654   -2.4109   -2.8382 N   0  0  0  0  0  0  0  0  0  0  0  0
   -2.0877   -2.0248   -3.4591 N   0  0  0  0  0  0  0  0  0  0  0  0
    1.0724   -3.3089   -5.0280 N   0  0  0  0  0  0  0  0  0  0  0  0
    3.1375   -3.2360   -4.0278 N   0  0  0  0  0  0  0  0  0  0  0  0
   -0.2348   -1.1177   -0.4708 C   0  0  1  0  0  0  0  0  0  0  0  0
    0.8585   -0.0489   -0.5384 C   0  0  1  0  0  0  0  0  0  0  0  0
    0.0641    1.2344   -0.5412 C   0  0  0  0  0  0  0  0  0  0  0  0
   -1.0598    0.9005    0.4214 C   0  0  1  0  0  0  0  0  0  0  0  0
   -2.3178    1.7269    0.1808 C   0  0  0  0  0  0  0  0  0  0  0  0
    0.0518   -2.1354   -2.7651 C   0  0  0  0  0  0  0  0  0  0  0  0
   -1.9834   -1.5245   -2.2441 C   0  0  0  0  0  0  0  0  0  0  0  0
   -0.8114   -2.4203   -3.7921 C   0  0  0  0  0  0  0  0  0  0  0  0
   -0.3036   -3.0573   -5.0125 C   0  0  0  0  0  0  0  0  0  0  0  0
    1.8088   -2.9939   -4.0022 C   0  0  0  0  0  0  0  0  0  0  0  0
  1 10  1  0
  1 13  1  0
  3 14  1  0
  4 18  2  0
  5 15  1  0
  5 16  1  0
  6 15  1  0
  6 19  1  0
  7 16  2  0
  7 17  1  0
  8 18  1  0
  8 19  2  0
  9 19  1  0
 10  5  1  6
 10 11  1  0
 11  2  1  1
 11 12  1  0
 12 13  1  0
 13 14  1  6
 15 17  2  0
 17 18  1  0
M  END
>  <DRUGBANK_ID>  (1) 
DB03609

>  <SECONDARY_ACCESSION_NUMBERS>  (1) 
EXPT00167

>  <COMMON_NAME>  (1) 
3'-deoxyguanosine

>  <CAS_NUMBER>  (1) 
3608-58-0

$$$$
