
     RDKit          3D

 28 30  0  0  0  0  0  0  0  0999 V2000
    0.8663   -0.0282   -0.0324 O   0  0  0  0  0  0  0  0  0  0  0  0
    2.1104    0.0167   -0.0232 C   0  0  0  0  0  0  0  0  0  0  0  0
    2.8946    1.2153    0.0100 C   0  0  0  0  0  0  0  0  0  0  0  0
    2.5281    2.5307    0.0188 N   0  0  0  0  0  0  0  0  0  0  0  0
    4.2613    1.0676    0.0611 C   0  0  0  0  0  0  0  0  0  0  0  0
    4.9967   -0.0623    0.0401 N   0  0  0  0  0  0  0  0  0  0  0  0
    4.2685   -1.1409    0.0030 C   0  0  0  0  0  0  0  0  0  0  0  0
    2.8852   -1.1269   -0.0210 N   0  0  0  0  0  0  0  0  0  0  0  0
    4.8641   -2.3500   -0.0081 N   0  0  0  0  0  0  0  0  0  0  0  0
    4.7549    2.3262    0.1758 N   0  0  0  0  0  0  0  0  0  0  0  0
    3.6704    3.1757    0.1361 C   0  0  0  0  0  0  0  0  0  0  0  0
    6.1809    2.6204    0.2052 C   0  0  1  0  0  0  0  0  0  0  0  0
    6.6707    3.1805   -1.1107 C   0  0  2  0  0  0  0  0  0  0  0  0
    7.1736    2.3543   -2.1489 O   0  0  0  0  0  0  0  0  0  0  0  0
    7.6564    4.2377   -0.6037 C   0  0  2  0  0  0  0  0  0  0  0  0
    8.9844    3.7103   -0.5581 O   0  0  0  0  0  0  0  0  0  0  0  0
    6.4016    3.5636    1.2701 O   0  0  0  0  0  0  0  0  0  0  0  0
    7.1969    4.6803    0.8142 C   0  0  2  0  0  0  0  0  0  0  0  0
    6.3317    5.9565    1.0887 C   0  0  0  0  0  0  0  0  0  0  0  0
    5.3581    6.1649    0.0557 O   0  0  0  0  0  0  0  0  0  0  0  0
    6.0971    6.3971   -1.4912 P   0  0  1  0  0  0  0  0  0  0  0  0
    7.3806    6.8766   -0.8811 O   0  0  0  0  0  0  0  0  0  0  0  0
    5.3576    5.1101   -1.9608 O   0  0  0  0  0  0  0  0  0  0  0  0
    6.8787    6.6427   -3.1276 C   0  0  0  0  0  0  0  0  0  0  0  0
    8.7281    6.7451   -3.2555 P   0  0  0  0  0  0  0  0  0  0  0  0
    9.4213    5.4222   -3.2083 O   0  0  0  0  0  0  0  0  0  0  0  0
    8.8695    7.4036   -4.7163 O   0  0  0  0  0  0  0  0  0  0  0  0
    9.3413    7.9809   -2.4316 O   0  0  0  0  0  0  0  0  0  0  0  0
  2  1  2  0
  2  8  1  0
  3  2  1  0
  3  4  1  0
  5  3  2  0
  5  6  1  0
  5 10  1  0
  7  6  2  0
  7  8  1  0
  7  9  1  0
 11  4  2  0
 11 10  1  0
 12 10  1  6
 12 13  1  0
 12 17  1  0
 13 14  1  6
 13 15  1  0
 15 16  1  1
 15 18  1  0
 18 17  1  0
 18 19  1  6
 19 20  1  0
 21 20  1  0
 21 23  1  1
 22 21  2  0
 24 21  1  0
 24 25  1  0
 26 25  2  0
 27 25  1  0
 28 25  1  0
M  END
>  <DRUGBANK_ID>  (1) 
DB03486

>  <SECONDARY_ACCESSION_NUMBERS>  (1) 
EXPT01632

>  <COMMON_NAME>  (1) 
Phosphomethylphosphonic acid guanosyl ester

$$$$
