PF2
     RDKit          3D

 26 29  0  0  0  0  0  0  0  0999 V2000
   10.2209    4.7539   -1.3312 F   0  0  0  0  0  0  0  0  0  0  0  0
    9.7130    3.5942   -0.8708 C   0  0  0  0  0  0  0  0  0  0  0  0
   10.7209    2.6904   -0.8621 F   0  0  0  0  0  0  0  0  0  0  0  0
    8.5869    3.0929   -1.7570 C   0  0  0  0  0  0  0  0  0  0  0  0
    7.5702    2.4581   -0.8070 C   0  0  0  0  0  0  0  0  0  0  0  0
    9.0795    3.7205    0.5089 C   0  0  0  0  0  0  0  0  0  0  0  0
    8.0989    2.6171    0.5273 N   0  0  0  0  0  0  0  0  0  0  0  0
    7.4799    2.1982    1.7001 C   0  0  0  0  0  0  0  0  0  0  0  0
    7.5606    2.9124    2.6917 O   0  0  0  0  0  0  0  0  0  0  0  0
    6.6969    0.8163    1.7688 C   0  0  1  0  0  0  0  0  0  0  0  0
    7.0842   -0.2685    0.8290 N   0  0  0  0  0  0  0  0  0  0  0  0
    7.7379   -1.3635    1.5735 C   0  0  0  0  0  0  0  0  0  0  0  0
    6.7694    0.1032    3.1322 C   0  0  0  0  0  0  0  0  0  0  0  0
    7.9168   -0.9337    3.0355 C   0  0  2  0  0  0  0  0  0  0  0  0
    9.2508   -0.4948    3.5186 N   0  0  0  0  0  0  0  0  0  0  0  0
    9.8368    0.6882    2.8793 C   0  0  0  0  0  0  0  0  0  0  0  0
   10.3527    0.4863    1.4523 C   0  0  0  0  0  0  0  0  0  0  0  0
   11.2575   -0.6348    1.3868 N   0  0  0  0  0  0  0  0  0  0  0  0
   10.9696   -1.8481    2.1401 C   0  0  0  0  0  0  0  0  0  0  0  0
   10.3177   -1.5237    3.5156 C   0  0  0  0  0  0  0  0  0  0  0  0
   12.5104   -0.4045    0.9025 C   0  0  0  0  0  0  0  0  0  0  0  0
   12.9577   -1.2374   -0.0464 N   0  0  0  0  0  0  0  0  0  0  0  0
   14.1536   -0.9564   -0.5887 C   0  0  0  0  0  0  0  0  0  0  0  0
   14.9475    0.0839   -0.1787 C   0  0  0  0  0  0  0  0  0  0  0  0
   14.4159    0.8684    0.8125 C   0  0  0  0  0  0  0  0  0  0  0  0
   13.1973    0.6637    1.3435 N   0  0  0  0  0  0  0  0  0  0  0  0
  2  1  1  0
  2  3  1  0
  4  2  1  0
  5  4  1  0
  5  7  1  0
  6  2  1  0
  7  6  1  0
  8  7  1  0
  9  8  2  0
 10  8  1  1
 11 10  1  0
 12 11  1  0
 13 10  1  0
 14 12  1  0
 14 13  1  0
 14 15  1  6
 16 15  1  0
 17 16  1  0
 18 17  1  0
 18 19  1  0
 19 20  1  0
 20 15  1  0
 21 18  1  0
 22 21  2  0
 23 22  1  0
 24 23  2  0
 24 25  1  0
 25 26  2  0
 26 21  1  0
M  END
>  <DRUGBANK_ID>  (1) 
DB08382

>  <SECONDARY_ACCESSION_NUMBERS>  (1) 
DB12502

>  <COMMON_NAME>  (1) 
Gosogliptin

>  <CAS_NUMBER>  (1) 
869490-23-3

>  <UNII>  (1) 
GI718UO477

>  <SYNONYMS>  (1) 
2-(4-{(3S,5S)-5-[(3,3-difluoropyrrolidin-1-yl)carbonyl]pyrrolidin-3-yl}piperazin-1-yl)pyrimidine; Gosogliptin

$$$$
