
     RDKit          3D

 11 13  0  0  0  0  0  0  0  0999 V2000
    0.9190   -0.0087    0.1540 O   0  0  0  0  0  0  0  0  0  0  0  0
    2.1018    0.1662    0.3112 C   0  0  0  0  0  0  0  0  0  0  0  0
    2.9283    1.2621   -0.4300 C   0  0  2  0  0  0  0  0  0  0  0  0
    3.2986    0.7374   -1.8204 C   0  0  0  0  0  0  0  0  0  0  0  0
    4.4307   -0.6277   -1.3960 C   0  0  1  0  0  0  0  0  0  0  0  0
    5.6281   -0.1351   -0.4104 C   0  0  0  0  0  0  0  0  0  0  0  0
    5.0733    0.6869    0.8191 C   0  0  1  0  0  0  0  0  0  0  0  0
    4.2155    1.8667    0.2188 C   0  0  0  0  0  0  0  0  0  0  0  0
    4.1549   -0.2162    1.7131 C   0  0  0  0  0  0  0  0  0  0  0  0
    3.0572   -0.9555    0.8858 C   0  0  2  0  0  0  0  0  0  0  0  0
    3.6996   -1.6814   -0.3722 C   0  0  0  0  0  0  0  0  0  0  0  0
  1  2  2  0
  2 10  1  0
  3  2  1  0
  3  8  1  1
  3  4  1  0
  5 11  1  1
  5  4  1  0
  5  6  1  0
  7  8  1  6
  7  9  1  0
  7  6  1  0
 10  9  1  1
 10 11  1  0
M  END
>  <DRUGBANK_ID>  (1) 
DB02125

>  <SECONDARY_ACCESSION_NUMBERS>  (1) 
EXPT00435

>  <COMMON_NAME>  (1) 
Adamantanone

>  <CAS_NUMBER>  (1) 
700-58-3

>  <UNII>  (1) 
UI7W503L08

$$$$
