FSP
     RDKit          3D

 32 34  0  0  0  0  0  0  0  0999 V2000
   -4.0912    3.5728    3.6715 C   0  0  0  0  0  0  0  0  0  0  0  0
   -2.7106    4.1879    3.7868 C   0  0  0  0  0  0  0  0  0  0  0  0
   -1.6140    3.2153    4.2530 C   0  0  0  0  0  0  0  0  0  0  0  0
   -1.4537    1.9856    3.3696 C   0  0  0  0  0  0  0  0  0  0  0  0
   -0.8615    2.3077    1.9779 C   0  0  2  0  0  0  0  0  0  0  0  0
    0.5785    2.2655    2.0294 N   0  0  0  0  0  0  0  0  0  0  0  0
    1.3358    1.1364    1.8903 C   0  0  0  0  0  0  0  0  0  0  0  0
    2.4875    1.1077    2.2400 O   0  0  0  0  0  0  0  0  0  0  0  0
    0.6637    0.1294    1.2813 O   0  0  0  0  0  0  0  0  0  0  0  0
    1.4206   -1.0548    0.9942 C   0  0  0  0  0  0  0  0  0  0  0  0
    2.0221   -1.0350   -0.4089 C   0  0  0  0  0  0  0  0  0  0  0  0
    0.9954   -1.4264   -1.5037 C   0  0  0  0  0  0  0  0  0  0  0  0
    0.4570   -2.8634   -1.3823 C   0  0  0  0  0  0  0  0  0  0  0  0
   -0.2324   -3.3977   -0.2643 C   0  0  0  0  0  0  0  0  0  0  0  0
   -0.5513   -4.7388   -0.1119 C   0  0  0  0  0  0  0  0  0  0  0  0
   -0.3328   -5.5704   -1.1764 C   0  0  0  0  0  0  0  0  0  0  0  0
   -0.6919   -6.8542   -1.0779 F   0  0  0  0  0  0  0  0  0  0  0  0
    0.2170   -5.0747   -2.3556 C   0  0  0  0  0  0  0  0  0  0  0  0
    0.6289   -3.7368   -2.4551 C   0  0  0  0  0  0  0  0  0  0  0  0
    3.3959   -1.7603   -0.5406 C   0  0  0  0  0  0  0  0  0  0  0  0
    3.9429   -0.5188   -1.2836 C   0  0  0  0  0  0  0  0  0  0  0  0
    2.8287    0.2906   -0.6390 C   0  0  0  0  0  0  0  0  0  0  0  0
   -2.4193    3.5894    0.2471 C   0  0  0  0  0  0  0  0  0  0  0  0
   -2.9318    4.6401   -0.1002 O   0  0  0  0  0  0  0  0  0  0  0  0
   -2.8551    2.4467   -0.5151 N   0  0  0  0  0  0  0  0  0  0  0  0
   -2.6904    1.1249   -0.1926 C   0  0  0  0  0  0  0  0  0  0  0  0
   -2.9914    0.5207    1.0057 C   0  0  0  0  0  0  0  0  0  0  0  0
   -2.2085   -0.6407    1.0148 C   0  0  0  0  0  0  0  0  0  0  0  0
   -1.7693   -0.9096   -0.2089 N   0  0  0  0  0  0  0  0  0  0  0  0
   -2.0698    0.1690   -0.9396 N   0  0  0  0  0  0  0  0  0  0  0  0
   -1.2656    3.5864    1.2782 C   0  0  0  0  0  0  0  0  0  0  0  0
   -0.6900    4.6488    1.5246 O   0  0  0  0  0  0  0  0  0  0  0  0
  1  2  1  0
  2  3  1  0
  3  4  1  0
  5 31  1  0
  5  6  1  0
  5  4  1  1
  6  7  1  0
  7  8  2  0
  7  9  1  0
  9 10  1  0
 10 11  1  0
 11 12  1  0
 11 20  1  0
 11 22  1  0
 12 13  1  0
 13 14  2  0
 13 19  1  0
 14 15  1  0
 15 16  2  0
 16 17  1  0
 16 18  1  0
 18 19  2  0
 20 21  1  0
 21 22  1  0
 23 24  2  0
 23 25  1  0
 23 31  1  0
 25 26  1  0
 26 27  2  0
 26 30  1  0
 27 28  1  0
 28 29  2  0
 29 30  1  0
 31 32  2  0
M  END
>  <DRUGBANK_ID>  (1) 
DB01858

>  <SECONDARY_ACCESSION_NUMBERS>  (1) 
EXPT01501

>  <COMMON_NAME>  (1) 
[1-(4-Fluorobenzyl)Cyclobutyl]Methyl (1s)-1-[Oxo(1h-Pyrazol-5-Ylamino)Acetyl]Pentylcarbamate

$$$$
