GF7
     RDKit          3D

 18 19  0  0  0  0  0  0  0  0999 V2000
    1.0890    0.0759   -0.1090 O   0  0  0  0  0  0  0  0  0  0  0  0
    2.3159    0.0329   -0.0702 C   0  0  0  0  0  0  0  0  0  0  0  0
    3.0829    0.3606    1.1883 C   0  0  0  0  0  0  0  0  0  0  0  0
    3.0818   -0.2919   -1.3024 C   0  0  0  0  0  0  0  0  0  0  0  0
    2.7100    0.3037   -2.5122 C   0  0  0  0  0  0  0  0  0  0  0  0
    3.4632    0.0694   -3.6750 C   0  0  0  0  0  0  0  0  0  0  0  0
    4.1839   -1.1487   -1.2641 C   0  0  0  0  0  0  0  0  0  0  0  0
    4.9287   -1.3823   -2.4278 C   0  0  0  0  0  0  0  0  0  0  0  0
    4.5582   -0.8044   -3.6463 C   0  0  0  0  0  0  0  0  0  0  0  0
    5.2785   -1.1248   -4.8171 N   0  0  0  0  0  0  0  0  0  0  0  0
    5.7935   -0.1952   -5.7137 C   0  0  0  0  0  0  0  0  0  0  0  0
    5.8269    1.0236   -5.5929 O   0  0  0  0  0  0  0  0  0  0  0  0
    5.4697   -2.4853   -5.2800 C   0  0  0  0  0  0  0  0  0  0  0  0
    6.5559   -2.3589   -6.3362 C   0  0  2  0  0  0  0  0  0  0  0  0
    6.3681   -0.9499   -6.8884 C   0  0  0  0  0  0  0  0  0  0  0  0
    6.5158   -3.4286   -7.3920 C   0  0  0  0  0  0  0  0  0  0  0  0
    7.4256   -4.2092   -7.6311 O   0  0  0  0  0  0  0  0  0  0  0  0
    5.3811   -3.4751   -8.1085 O   0  0  0  0  0  0  0  0  0  0  0  0
  1  2  2  0
  2  4  1  0
  2  3  1  0
  4  5  2  0
  5  6  1  0
  7  4  1  0
  7  8  2  0
  8  9  1  0
  9  6  2  0
  9 10  1  0
 10 13  1  0
 11 10  1  0
 11 15  1  0
 12 11  2  0
 13 14  1  0
 14 16  1  6
 15 14  1  0
 16 17  2  0
 16 18  1  0
M  END
>  <DRUGBANK_ID>  (1) 
DB07825

>  <COMMON_NAME>  (1) 
(3S)-1-(4-acetylphenyl)-5-oxopyrrolidine-3-carboxylic acid

$$$$
