
     RDKit          3D

 28 26  0  0  0  0  0  0  0  0999 V2000
    0.9719    0.0946    0.0160 C   0  0  0  0  0  0  0  0  0  0  0  0
   -0.9881    1.3727   -0.5202 C   0  0  0  0  0  0  0  0  0  0  0  0
    0.4653   -0.0860    1.4376 C   0  0  0  0  0  0  0  0  0  0  0  0
   -1.4947    1.1920    0.9015 C   0  0  0  0  0  0  0  0  0  0  0  0
    0.9719    2.4760    0.3185 C   0  0  0  0  0  0  0  0  0  0  0  0
    0.4653    0.8427    3.6512 C   0  0  0  0  0  0  0  0  0  0  0  0
    2.4253    1.0174    2.2763 C   0  0  0  0  0  0  0  0  0  0  0  0
   -1.4947    2.1207    3.1151 C   0  0  0  0  0  0  0  0  0  0  0  0
    0.4653    2.2954    1.7402 C   0  0  0  0  0  0  0  0  0  0  0  0
    0.4653    2.2954    1.7402 C   0  0  0  0  0  0  0  0  0  0  0  0
    0.9719   -0.4788    4.2056 C   0  0  0  0  0  0  0  0  0  0  0  0
    2.9319   -0.3041    2.8307 C   0  0  0  0  0  0  0  0  0  0  0  0
   -0.9881    0.7992    3.6694 C   0  0  0  0  0  0  0  0  0  0  0  0
    0.9719    0.9739    2.2946 C   0  0  0  0  0  0  0  0  0  0  0  0
    0.4819    1.3727   -0.5202 N   0  0  0  0  0  0  0  0  0  0  0  0
    0.9553    1.0174    2.2763 N   0  0  0  0  0  0  0  0  0  0  0  0
   -1.0047    2.2954    1.7402 N   0  0  0  0  0  0  0  0  0  0  0  0
    1.2911    2.1736    2.6985 O   0  0  0  0  0  0  0  0  0  0  0  0
   -0.9308    2.2627    1.9976 O   0  0  0  0  0  0  0  0  0  0  0  0
    1.7026   -0.4934    5.2454 O   0  0  0  0  0  0  0  0  0  0  0  0
    0.6289   -1.6971    3.5618 O   0  0  0  0  0  0  0  0  0  0  0  0
    3.6626   -1.0562    2.1126 O   0  0  0  0  0  0  0  0  0  0  0  0
    2.5889   -0.6984    4.1511 O   0  0  0  0  0  0  0  0  0  0  0  0
   -0.2574    0.7846    4.7092 O   0  0  0  0  0  0  0  0  0  0  0  0
   -1.3311   -0.4191    3.0256 O   0  0  0  0  0  0  0  0  0  0  0  0
    1.7026    0.2218    1.5764 O   0  0  0  0  0  0  0  0  0  0  0  0
    0.6289    0.5796    3.6149 O   0  0  0  0  0  0  0  0  0  0  0  0
    0.9131    0.0250   -0.0427 In  0  0  0  0  0 15  0  0  0  0  0  0
  3  1  1  0
  4  2  1  0
 10  5  1  0
 11  6  1  0
 12  7  1  0
 13  8  1  0
 14  9  1  0
 15  1  1  0
 15  2  1  0
 15  5  1  0
 16  3  1  0
 16  6  1  0
 16  7  1  0
 17  4  1  0
 17  8  1  0
 17  9  1  0
 18 10  2  0
 19 10  1  0
 20 11  2  0
 21 11  1  0
 22 12  2  0
 23 12  1  0
 24 13  2  0
 25 13  1  0
 26 14  2  0
 27 14  1  0
M  CHG  4  19  -1  21  -1  23  -1  28   3
M  ISO  1  28 111
M  END
>  <DRUGBANK_ID>  (1) 
DB09425

>  <COMMON_NAME>  (1) 
Indium In-111 pentetate

>  <CAS_NUMBER>  (1) 
135998-32-2

>  <UNII>  (1) 
5K3UP561AX

>  <SYNONYMS>  (1) 
Indium (111In) pentetic acid; Indium In 111 pentetate; Indium In-111 pentetate

$$$$
