675
     RDKit          3D

 22 24  0  0  0  0  0  0  0  0999 V2000
    1.0472    0.0443    0.1324 N   0  0  0  0  0  0  0  0  0  0  0  0
    0.4211    0.7831   -0.7201 C   0  0  0  0  0  0  0  0  0  0  0  0
    1.0948    1.5306   -1.6431 N   0  0  0  0  0  0  0  0  0  0  0  0
   -1.0647    0.7880   -0.6920 C   0  0  0  0  0  0  0  0  0  0  0  0
   -1.7605    0.7585    0.5210 C   0  0  0  0  0  0  0  0  0  0  0  0
   -3.1630    0.7691    0.5405 C   0  0  0  0  0  0  0  0  0  0  0  0
   -3.8905    0.8401   -0.6536 C   0  0  0  0  0  0  0  0  0  0  0  0
   -5.3079    0.9028   -0.6882 C   0  0  0  0  0  0  0  0  0  0  0  0
   -5.9784    1.0937   -1.9019 C   0  0  0  0  0  0  0  0  0  0  0  0
   -5.1802    1.3223   -3.0206 C   0  0  0  0  0  0  0  0  0  0  0  0
   -3.8240    1.0443   -3.0553 C   0  0  0  0  0  0  0  0  0  0  0  0
   -3.1571    0.8653   -1.8664 C   0  0  0  0  0  0  0  0  0  0  0  0
   -1.7638    0.8074   -1.8908 C   0  0  0  0  0  0  0  0  0  0  0  0
   -7.4919    1.0752   -1.9657 C   0  0  0  0  0  0  0  0  0  0  0  0
   -8.1299    1.0766   -0.9194 O   0  0  0  0  0  0  0  0  0  0  0  0
   -8.1950    1.1136   -3.1745 N   0  0  0  0  0  0  0  0  0  0  0  0
   -7.7390    0.9106   -4.4896 C   0  0  0  0  0  0  0  0  0  0  0  0
   -6.8177   -0.1029   -4.7802 C   0  0  0  0  0  0  0  0  0  0  0  0
   -6.1001   -0.0780   -5.9764 C   0  0  0  0  0  0  0  0  0  0  0  0
   -6.4293    0.8481   -6.9603 C   0  0  0  0  0  0  0  0  0  0  0  0
   -7.4685    1.7547   -6.7406 C   0  0  0  0  0  0  0  0  0  0  0  0
   -8.0968    1.8197   -5.4899 C   0  0  0  0  0  0  0  0  0  0  0  0
  1  2  2  0
  2  3  1  0
  2  4  1  0
  4  5  2  0
  4 13  1  0
  5  6  1  0
  6  7  2  0
  7  8  1  0
  7 12  1  0
  8  9  2  0
  9 10  1  0
  9 14  1  0
 10 11  2  0
 11 12  1  0
 12 13  2  0
 14 15  2  0
 14 16  1  0
 16 17  1  0
 17 18  2  0
 17 22  1  0
 18 19  1  0
 19 20  2  0
 20 21  1  0
 21 22  2  0
M  END
>  <DRUGBANK_ID>  (1) 
DB01977

>  <SECONDARY_ACCESSION_NUMBERS>  (1) 
EXPT00275

>  <COMMON_NAME>  (1) 
6-(N-Phenylcarbamyl)-2-Naphthalenecarboxamidine

$$$$
