
     RDKit          3D

 12 12  0  0  1  0  0  0  0  0999 V2000
   -0.0254    0.3895    4.5816 O   0  0  0  0  0  0  0  0  0  0  0  0
    0.8357    0.9362    3.5871 C   0  0  0  0  0  0  0  0  0  0  0  0
    1.0856    0.0044    2.3739 C   0  0  1  0  0  0  0  0  0  0  0  0
    2.5127   -0.1576    2.2249 O   0  0  0  0  0  0  0  0  0  0  0  0
    2.9073   -0.9281    1.0860 C   0  0  1  0  0  0  0  0  0  0  0  0
    4.7290   -1.0067    0.9988 S   0  0  0  0  0  0  0  0  0  0  0  0
    2.3005   -2.3416    1.1467 C   0  0  2  0  0  0  0  0  0  0  0  0
    2.5855   -3.1473   -0.0110 O   0  0  0  0  0  0  0  0  0  0  0  0
    0.7756   -2.2173    1.2584 C   0  0  1  0  0  0  0  0  0  0  0  0
    0.2125   -3.5297    1.3386 O   0  0  0  0  0  0  0  0  0  0  0  0
    0.3869   -1.3660    2.4693 C   0  0  2  0  0  0  0  0  0  0  0  0
   -1.4527   -1.2035    2.5202 S   0  0  0  0  0  0  0  0  0  0  0  0
  1  2  1  0
  3  4  1  0
  3 11  1  0
  3  2  1  1
  4  5  1  0
  5  7  1  0
  5  6  1  1
  7  8  1  6
  7  9  1  0
  9 11  1  0
  9 10  1  1
 11 12  1  6
M  END
>  <DRUGBANK_ID>  (1) 
DB03857

>  <SECONDARY_ACCESSION_NUMBERS>  (1) 
EXPT02958

>  <COMMON_NAME>  (1) 
1,4-dithio-beta-D-glucopyranose

>  <SYNONYMS>  (1) 
1,4-deoxy-1,4-dithio-beta-D-glucopyranose

$$$$
