
     RDKit          3D

 31 34  0  0  1  0  0  0  0  0999 V2000
    1.4047   -0.1973   -0.0080 C   0  0  0  0  0  0  0  0  0  0  0  0
    0.5917   -1.3548    0.0329 C   0  0  0  0  0  0  0  0  0  0  0  0
   -0.8049   -1.2615    0.0124 C   0  0  0  0  0  0  0  0  0  0  0  0
   -1.3786   -0.0231   -0.1110 C   0  0  0  0  0  0  0  0  0  0  0  0
   -0.5655    1.0760   -0.2836 C   0  0  0  0  0  0  0  0  0  0  0  0
    0.8160    1.0586   -0.1564 C   0  0  0  0  0  0  0  0  0  0  0  0
    1.5863    2.2460   -0.2392 N   0  0  0  0  0  0  0  0  0  0  0  0
    1.1923    3.5906   -0.3406 C   0  0  0  0  0  0  0  0  0  0  0  0
    2.0090    4.4449   -0.6468 O   0  0  0  0  0  0  0  0  0  0  0  0
   -0.2139    4.0256   -0.0858 C   0  0  0  0  0  0  0  0  0  0  0  0
   -0.9208    3.5818    1.0289 C   0  0  0  0  0  0  0  0  0  0  0  0
   -2.3254    3.6442    1.0263 C   0  0  0  0  0  0  0  0  0  0  0  0
   -2.9985    4.3506    0.0063 C   0  0  0  0  0  0  0  0  0  0  0  0
   -2.3040    4.8518   -1.0465 N   0  0  0  0  0  0  0  0  0  0  0  0
   -0.9383    4.6853   -1.0723 C   0  0  0  0  0  0  0  0  0  0  0  0
   -4.3581    4.5421    0.1018 N   0  0  0  0  0  0  0  0  0  0  0  0
   -5.3307    4.3192   -0.9542 C   0  0  0  0  0  0  0  0  0  0  0  0
   -6.6240    4.9524   -0.4094 C   0  0  0  0  0  0  0  0  0  0  0  0
   -6.4524    4.9046    1.1023 C   0  0  2  0  0  0  0  0  0  0  0  0
   -4.9558    5.1898    1.2755 C   0  0  0  0  0  0  0  0  0  0  0  0
   -6.8266    3.6150    1.5831 O   0  0  0  0  0  0  0  0  0  0  0  0
   -3.0407    2.8323    2.0111 C   0  0  0  0  0  0  0  0  0  0  0  0
   -2.9579    2.8481    3.3835 C   0  0  0  0  0  0  0  0  0  0  0  0
   -3.9423    1.9516    3.8232 C   0  0  0  0  0  0  0  0  0  0  0  0
   -4.5865    1.3676    2.8104 N   0  0  0  0  0  0  0  0  0  0  0  0
   -4.0070    1.8980    1.7189 N   0  0  0  0  0  0  0  0  0  0  0  0
   -1.7306   -2.2551    0.0533 O   0  0  0  0  0  0  0  0  0  0  0  0
   -1.2385   -3.5754    0.1063 C   0  0  0  0  0  0  0  0  0  0  0  0
   -0.4790   -3.8132   -0.9913 F   0  0  0  0  0  0  0  0  0  0  0  0
   -0.4602   -3.7178    1.2061 F   0  0  0  0  0  0  0  0  0  0  0  0
   -2.5860   -4.7061    0.1655 Cl  0  0  0  0  0  0  0  0  0  0  0  0
  1  2  2  0
  1  6  1  0
  2  3  1  0
  3  4  2  0
  3 27  1  0
  4  5  1  0
  5  6  2  0
  6  7  1  0
  7  8  1  0
  8  9  2  0
  8 10  1  0
 10 11  2  0
 10 15  1  0
 11 12  1  0
 12 13  2  0
 12 22  1  0
 13 14  1  0
 13 16  1  0
 14 15  2  0
 16 17  1  0
 16 20  1  0
 17 18  1  0
 18 19  1  0
 19 20  1  0
 19 21  1  6
 22 23  2  0
 22 26  1  0
 23 24  1  0
 24 25  2  0
 25 26  1  0
 27 28  1  0
 28 29  1  0
 28 30  1  0
 28 31  1  0
M  END
>  <DRUGBANK_ID>  (1) 
DB12597

>  <COMMON_NAME>  (1) 
Asciminib

>  <CAS_NUMBER>  (1) 
1492952-76-7

>  <UNII>  (1) 
L1F3R18W77

>  <SYNONYMS>  (1) 
Asciminib

$$$$
