550
     RDKit          3D

 31 34  0  0  0  0  0  0  0  0999 V2000
    0.8747    0.1955    0.0456 O   0  0  0  0  0  0  0  0  0  0  0  0
    2.1386   -2.1410    0.8489 O   0  0  0  0  0  0  0  0  0  0  0  0
    5.4389    2.3795    0.7045 O   0  0  0  0  0  0  0  0  0  0  0  0
    4.7061    4.3785   -0.0658 O   0  0  0  0  0  0  0  0  0  0  0  0
    3.7317    2.3444    6.1241 O   0  0  0  0  0  0  0  0  0  0  0  0
    2.9418    1.2252   -0.5642 C   0  0  2  0  0  0  0  0  0  0  0  0
    3.0803    2.6639    0.0139 C   0  0  2  0  0  0  0  0  0  0  0  0
    2.5318    2.4112   -1.3767 C   0  0  0  0  0  0  0  0  0  0  0  0
    4.4879    3.2044    0.1451 C   0  0  0  0  0  0  0  0  0  0  0  0
    2.1220    3.3779    0.9607 C   0  0  0  0  0  0  0  0  0  0  0  0
    2.0657    0.1417    0.0181 C   0  0  0  0  0  0  0  0  0  0  0  0
    2.8063   -0.9718    0.4391 N   0  0  0  0  0  0  0  0  0  0  0  0
    5.1487    1.0932    1.2778 C   0  0  0  0  0  0  0  0  0  0  0  0
    2.4764    2.9575    2.3396 C   0  0  0  0  0  0  0  0  0  0  0  0
    3.7603    3.2577    2.8562 C   0  0  0  0  0  0  0  0  0  0  0  0
    4.2456    2.7251    3.9985 C   0  0  0  0  0  0  0  0  0  0  0  0
    3.3066    2.2372    4.8262 C   0  0  0  0  0  0  0  0  0  0  0  0
    1.9879    1.9158    4.3360 C   0  0  0  0  0  0  0  0  0  0  0  0
    1.5862    2.2150    3.0596 C   0  0  0  0  0  0  0  0  0  0  0  0
    5.0007    1.6923    6.4602 C   0  0  0  0  0  0  0  0  0  0  0  0
    5.2834    0.1878    5.9458 C   0  0  0  0  0  0  0  0  0  0  0  0
    4.3002   -0.1639    6.8464 C   0  0  0  0  0  0  0  0  0  0  0  0
    2.9467   -0.1835    6.4823 C   0  0  0  0  0  0  0  0  0  0  0  0
    2.6921   -0.8770    5.3677 N   0  0  0  0  0  0  0  0  0  0  0  0
    5.1120   -0.9150    5.0720 C   0  0  0  0  0  0  0  0  0  0  0  0
    3.7833   -1.4427    4.8104 C   0  0  0  0  0  0  0  0  0  0  0  0
    3.6149   -2.7071    4.2355 C   0  0  0  0  0  0  0  0  0  0  0  0
    4.6845   -3.5631    3.9564 C   0  0  0  0  0  0  0  0  0  0  0  0
    5.9773   -3.1370    4.2236 C   0  0  0  0  0  0  0  0  0  0  0  0
    6.1898   -1.8477    4.7843 C   0  0  0  0  0  0  0  0  0  0  0  0
    1.9627    0.8602    7.1253 C   0  0  0  0  0  0  0  0  0  0  0  0
  1 11  2  0
  2 12  1  0
  3  9  1  0
  3 13  1  0
  4  9  2  0
  5 17  1  0
  5 20  1  0
  6  7  1  0
  6  8  1  0
  6 11  1  1
  7  8  1  0
  7 10  1  1
  7  9  1  0
 10 14  1  0
 11 12  1  0
 14 15  2  0
 14 19  1  0
 15 16  1  0
 16 17  2  0
 17 18  1  0
 18 19  2  0
 20 21  1  0
 21 22  2  0
 21 25  1  0
 22 23  1  0
 23 24  2  0
 23 31  1  0
 24 26  1  0
 25 26  2  0
 25 30  1  0
 26 27  1  0
 27 28  2  0
 28 29  1  0
 29 30  2  0
M  END
>  <DRUGBANK_ID>  (1) 
DB07147

>  <COMMON_NAME>  (1) 
methyl (1R,2S)-2-(hydroxycarbamoyl)-1-{4-[(2-methylquinolin-4-yl)methoxy]benzyl}cyclopropanecarboxylate

$$$$
