
     RDKit          3D

 24 24  0  0  0  0  0  0  0  0999 V2000
    1.4218    0.1743    0.6119 C   0  0  0  0  0  0  0  0  0  0  0  0
    0.8526    1.3482    0.2047 C   0  0  0  0  0  0  0  0  0  0  0  0
   -0.5373    1.4865    0.3197 C   0  0  0  0  0  0  0  0  0  0  0  0
   -1.3312    0.3860    0.7492 C   0  0  0  0  0  0  0  0  0  0  0  0
   -0.7621   -0.8485    1.0606 C   0  0  0  0  0  0  0  0  0  0  0  0
    0.6271   -0.8723    1.1142 C   0  0  0  0  0  0  0  0  0  0  0  0
   -1.4604   -2.0418    1.0323 O   0  0  0  0  0  0  0  0  0  0  0  0
   -0.9941   -3.3913    0.5497 C   0  0  0  0  0  0  0  0  0  0  0  0
   -0.2554   -3.8386   -0.8486 C   0  0  0  0  0  0  0  0  0  0  0  0
    0.8908   -2.9644   -1.3371 N   0  0  0  0  0  0  0  0  0  0  0  0
    0.3292   -1.5681   -1.7103 C   0  0  0  0  0  0  0  0  0  0  0  0
    1.9602   -3.2084   -0.2171 C   0  0  0  0  0  0  0  0  0  0  0  0
    1.6769   -3.3156   -2.5869 C   0  0  0  0  0  0  0  0  0  0  0  0
   -0.6446   -1.3861   -2.8997 C   0  0  0  0  0  0  0  0  0  0  0  0
   -1.9528   -2.1937   -2.8895 C   0  0  0  0  0  0  0  0  0  0  0  0
   -2.7954   -1.9538   -1.6434 C   0  0  0  0  0  0  0  0  0  0  0  0
   -3.3340   -0.5429   -1.5555 C   0  0  0  0  0  0  0  0  0  0  0  0
   -4.2976   -0.3564   -2.6929 C   0  0  0  0  0  0  0  0  0  0  0  0
   -5.4106   -1.3969   -2.5355 C   0  0  0  0  0  0  0  0  0  0  0  0
   -6.1590   -1.1632   -1.2137 C   0  0  0  0  0  0  0  0  0  0  0  0
   -6.7167    0.2633   -1.1977 C   0  0  0  0  0  0  0  0  0  0  0  0
   -7.6183    0.4812   -2.4192 C   0  0  0  0  0  0  0  0  0  0  0  0
   -8.7668   -0.5290   -2.4368 C   0  0  0  0  0  0  0  0  0  0  0  0
   -9.6196   -0.3683   -1.1902 C   0  0  0  0  0  0  0  0  0  0  0  0
  1  2  2  0
  2  3  1  0
  3  4  2  0
  4  5  1  0
  5  6  2  0
  5  7  1  0
  6  1  1  0
  7  8  1  0
  8  9  1  0
  9 10  1  0
 10 12  1  0
 10 13  1  0
 10 11  1  0
 11 14  1  0
 14 15  1  0
 15 16  1  0
 16 17  1  0
 17 18  1  0
 18 19  1  0
 19 20  1  0
 20 21  1  0
 21 22  1  0
 22 23  1  0
 23 24  1  0
M  CHG  1  10   1
M  END
>  <DRUGBANK_ID>  (1) 
DB11594

>  <COMMON_NAME>  (1) 
Domiphen

>  <CAS_NUMBER>  (1) 
13900-14-6

>  <UNII>  (1) 
4AZL56CU0F

>  <SYNONYMS>  (1) 
(beta-phenoxyethyl)dimethyldodecylammonium; 1-dodecanaminium, n,n-dimethyl-n-(2-phenoxyethyl); Dodecyldimethyl(2-phenoxyethyl)ammonium; Domiphen cation; Domiphen ion; Phenododecinium

$$$$
