
     RDKit          3D

 19 20  0  0  0  0  0  0  0  0999 V2000
    0.9054    0.0033   -0.0837 C   0  0  0  0  0  0  0  0  0  0  0  0
    0.3577   -1.1735    0.7379 C   0  0  0  0  0  0  0  0  0  0  0  0
    0.9298   -1.2638    2.2454 C   0  0  0  0  0  0  0  0  0  0  0  0
    0.6625    0.0627    3.0855 C   0  0  0  0  0  0  0  0  0  0  0  0
    1.1204    1.3156    2.6151 C   0  0  0  0  0  0  0  0  0  0  0  0
    0.7410    2.5300    3.2173 C   0  0  0  0  0  0  0  0  0  0  0  0
   -0.0448    2.5365    4.3496 C   0  0  0  0  0  0  0  0  0  0  0  0
   -0.4244    1.3275    4.9125 C   0  0  0  0  0  0  0  0  0  0  0  0
   -0.0058    0.1313    4.3148 C   0  0  0  0  0  0  0  0  0  0  0  0
   -0.4519    4.0039    5.1416 Cl  0  0  0  0  0  0  0  0  0  0  0  0
    0.5634   -2.6243    2.9332 C   0  0  0  0  0  0  0  0  0  0  0  0
   -0.5361   -2.7489    3.8060 C   0  0  0  0  0  0  0  0  0  0  0  0
   -0.7621   -3.8822    4.5895 C   0  0  0  0  0  0  0  0  0  0  0  0
   -0.0994   -5.0547    4.2825 C   0  0  0  0  0  0  0  0  0  0  0  0
    0.8613   -5.0375    3.2808 C   0  0  0  0  0  0  0  0  0  0  0  0
    1.2715   -3.8256    2.6979 C   0  0  0  0  0  0  0  0  0  0  0  0
    2.7179   -3.9218    1.7509 Cl  0  0  0  0  0  0  0  0  0  0  0  0
   -1.4464   -1.0661    0.7567 Cl  0  0  0  0  0  0  0  0  0  0  0  0
    0.7243   -2.6094   -0.3153 Cl  0  0  0  0  0  0  0  0  0  0  0  0
  1  2  1  0
  2  3  1  0
  2 18  1  0
  2 19  1  0
  3  4  1  0
  3 11  1  0
  4  5  2  0
  4  9  1  0
  5  6  1  0
  6  7  2  0
  7  8  1  0
  7 10  1  0
  8  9  2  0
 11 12  2  0
 11 16  1  0
 12 13  1  0
 13 14  2  0
 14 15  1  0
 15 16  2  0
 16 17  1  0
M  END
>  <DRUGBANK_ID>  (1) 
DB12117

>  <COMMON_NAME>  (1) 
Mitometh

>  <CAS_NUMBER>  (1) 
107465-03-2

>  <UNII>  (1) 
H8MTN7XVC2

>  <SYNONYMS>  (1) 
DDP

$$$$
