
     RDKit          3D

 14 13  0  0  0  0  0  0  0  0999 V2000
    1.0368   -0.2555    0.0069 Br  0  0  0  0  0  0  0  0  0  0  0  0
    9.0453    7.4289    4.7996 O   0  0  0  0  0  0  0  0  0  0  0  0
    2.9743   -0.0696   -0.0457 C   0  0  0  0  0  0  0  0  0  0  0  0
    7.6313    7.4566    4.7060 C   0  0  0  0  0  0  0  0  0  0  0  0
    3.3745    1.2600   -0.6684 C   0  0  0  0  0  0  0  0  0  0  0  0
    7.1959    7.4622    3.2448 C   0  0  0  0  0  0  0  0  0  0  0  0
    5.5426    3.7418    0.9126 C   0  0  0  0  0  0  0  0  0  0  0  0
    5.0516    4.9687    1.6887 C   0  0  0  0  0  0  0  0  0  0  0  0
    2.9299    2.4695    0.1628 C   0  0  0  0  0  0  0  0  0  0  0  0
    3.5002    2.4263    1.5836 C   0  0  0  0  0  0  0  0  0  0  0  0
    5.0318    2.4531    1.5654 C   0  0  0  0  0  0  0  0  0  0  0  0
    7.6576    6.2001    2.5067 C   0  0  0  0  0  0  0  0  0  0  0  0
    7.0971    4.9318    3.1590 C   0  0  0  0  0  0  0  0  0  0  0  0
    5.5650    4.9314    3.1319 C   0  0  0  0  0  0  0  0  0  0  0  0
  2  4  1  0
  3  1  1  0
  4  6  1  0
  5  3  1  0
  6 12  1  0
  7 11  1  0
  8  7  1  0
  9  5  1  0
 10  9  1  0
 11 10  1  0
 12 13  1  0
 13 14  1  0
 14  8  1  0
M  END
>  <DRUGBANK_ID>  (1) 
DB02619

>  <SECONDARY_ACCESSION_NUMBERS>  (1) 
EXPT00648

>  <COMMON_NAME>  (1) 
12-Bromo-1-dodecanol

>  <CAS_NUMBER>  (1) 
3344-77-2

>  <UNII>  (1) 
L7CYF0086V

$$$$
