
     RDKit          3D

  9  8  0  0  0  0  0  0  0  0999 V2000
    1.0569   -0.1191    0.5193 O   0  0  0  0  0  0  0  0  0  0  0  0
    0.3592    0.8175    1.1866 C   0  0  0  0  0  0  0  0  0  0  0  0
    0.9247    1.6459    1.8662 O   0  0  0  0  0  0  0  0  0  0  0  0
   -1.1280    0.7226    0.9337 C   0  0  0  0  0  0  0  0  0  0  0  0
   -1.6077    1.3423   -0.3758 C   0  0  0  0  0  0  0  0  0  0  0  0
   -1.2829    0.5474   -1.6357 C   0  0  0  0  0  0  0  0  0  0  0  0
   -2.1816    0.0065   -2.2863 O   0  0  0  0  0  0  0  0  0  0  0  0
    0.1564    0.4076   -2.0625 C   0  0  0  0  0  0  0  0  0  0  0  0
    0.8565    1.5658   -1.9171 F   0  0  0  0  0  0  0  0  0  0  0  0
  1  2  1  0
  2  3  2  0
  2  4  1  0
  4  5  1  0
  5  6  1  0
  6  7  2  0
  6  8  1  0
  8  9  1  0
M  END
>  <DRUGBANK_ID>  (1) 
DB02828

>  <SECONDARY_ACCESSION_NUMBERS>  (1) 
EXPT01997

>  <COMMON_NAME>  (1) 
5-Fluorolevulinic Acid

>  <CAS_NUMBER>  (1) 
76385-49-4

>  <UNII>  (1) 
U7AG97N7XY

$$$$
