
     RDKit          3D

 25 25  0  0  0  0  0  0  0  0999 V2000
    0.8306    0.0216   -0.1737 C   0  0  0  0  0  0  0  0  0  0  0  0
    0.4024   -1.4321   -0.0603 C   0  0  0  0  0  0  0  0  0  0  0  0
    0.9421   -2.1143    1.2000 C   0  0  0  0  0  0  0  0  0  0  0  0
    0.4434   -1.4781    2.3919 O   0  0  0  0  0  0  0  0  0  0  0  0
    1.0183   -0.3184    2.8052 C   0  0  0  0  0  0  0  0  0  0  0  0
    2.0576    0.1567    2.3355 O   0  0  0  0  0  0  0  0  0  0  0  0
    0.3023    0.3393    3.9541 C   0  0  0  0  0  0  0  0  0  0  0  0
   -1.2071    0.3275    3.9307 C   0  0  0  0  0  0  0  0  0  0  0  0
   -1.8514   -0.9055    4.0137 C   0  0  0  0  0  0  0  0  0  0  0  0
   -3.2160   -0.9848    4.2046 C   0  0  0  0  0  0  0  0  0  0  0  0
   -3.9807    0.1647    4.3463 C   0  0  0  0  0  0  0  0  0  0  0  0
   -3.3595    1.4330    4.2791 C   0  0  0  0  0  0  0  0  0  0  0  0
   -1.9783    1.5019    4.0065 C   0  0  0  0  0  0  0  0  0  0  0  0
   -3.9492    2.6670    4.4791 O   0  0  0  0  0  0  0  0  0  0  0  0
   -5.3251    2.7104    4.8818 C   0  0  0  0  0  0  0  0  0  0  0  0
   -6.2062    2.4397    3.6858 C   0  0  0  0  0  0  0  0  0  0  0  0
   -5.3141    0.0655    4.6151 O   0  0  0  0  0  0  0  0  0  0  0  0
   -6.0584   -1.0372    4.1387 C   0  0  0  0  0  0  0  0  0  0  0  0
   -5.7908   -1.7606    2.7934 C   0  0  0  0  0  0  0  0  0  0  0  0
   -5.3883   -2.9312    2.8448 O   0  0  0  0  0  0  0  0  0  0  0  0
   -5.9937   -1.1292    1.5691 N   0  0  0  0  0  0  0  0  0  0  0  0
   -6.6386    0.1622    1.3551 C   0  0  0  0  0  0  0  0  0  0  0  0
   -5.6920    1.1770    0.7076 C   0  0  0  0  0  0  0  0  0  0  0  0
   -5.5986   -1.8509    0.3609 C   0  0  0  0  0  0  0  0  0  0  0  0
   -4.0943   -2.0718    0.2880 C   0  0  0  0  0  0  0  0  0  0  0  0
  1  2  1  0
  2  3  1  0
  3  4  1  0
  4  5  1  0
  5  6  2  0
  5  7  1  0
  7  8  1  0
  8  9  2  0
  8 13  1  0
  9 10  1  0
 10 11  2  0
 11 12  1  0
 11 17  1  0
 12 13  2  0
 12 14  1  0
 14 15  1  0
 15 16  1  0
 17 18  1  0
 18 19  1  0
 19 20  2  0
 19 21  1  0
 21 22  1  0
 21 24  1  0
 22 23  1  0
 24 25  1  0
M  END
>  <DRUGBANK_ID>  (1) 
DB12576

>  <COMMON_NAME>  (1) 
AZD-3043

>  <CAS_NUMBER>  (1) 
579494-66-9

>  <UNII>  (1) 
372AB76LQL

$$$$
