
     RDKit          3D

 29 32  0  0  0  0  0  0  0  0999 V2000
    0.6702    1.1658   -0.2963 C   0  0  0  0  0  0  0  0  0  0  0  0
   -0.7926    1.2562    0.1665 C   0  0  0  0  0  0  0  0  0  0  0  0
   -1.5069    0.0389   -0.1829 N   0  0  0  0  0  0  0  0  0  0  0  0
   -0.8649   -1.2082    0.2105 C   0  0  0  0  0  0  0  0  0  0  0  0
    0.6017   -1.1951   -0.2771 C   0  0  0  0  0  0  0  0  0  0  0  0
    1.3066   -0.0301    0.1936 O   0  0  0  0  0  0  0  0  0  0  0  0
   -2.6526    0.0539   -0.9399 C   0  0  0  0  0  0  0  0  0  0  0  0
   -3.7598   -0.5115   -0.4216 N   0  0  0  0  0  0  0  0  0  0  0  0
   -4.8865   -0.5404   -1.1614 C   0  0  0  0  0  0  0  0  0  0  0  0
   -4.8888   -0.0254   -2.4368 C   0  0  0  0  0  0  0  0  0  0  0  0
   -3.7426    0.5893   -2.8967 C   0  0  0  0  0  0  0  0  0  0  0  0
   -2.6131    0.6343   -2.1542 N   0  0  0  0  0  0  0  0  0  0  0  0
   -6.0383   -1.0823   -0.6352 N   0  0  0  0  0  0  0  0  0  0  0  0
   -3.7122    1.2615   -4.2131 C   0  0  0  0  0  0  0  0  0  0  0  0
   -4.5430    2.3499   -4.5526 C   0  0  0  0  0  0  0  0  0  0  0  0
   -4.4754    2.8993   -5.8501 C   0  0  0  0  0  0  0  0  0  0  0  0
   -3.5647    2.4088   -6.7687 C   0  0  0  0  0  0  0  0  0  0  0  0
   -2.7717    1.3684   -6.4760 N   0  0  0  0  0  0  0  0  0  0  0  0
   -2.8640    0.8203   -5.2290 C   0  0  0  0  0  0  0  0  0  0  0  0
   -5.4954    2.9651   -3.5604 C   0  0  0  0  0  0  0  0  0  0  0  0
   -3.5547    2.8878   -8.0687 N   0  0  0  0  0  0  0  0  0  0  0  0
   -6.8279   -2.1017   -1.3265 C   0  0  0  0  0  0  0  0  0  0  0  0
   -8.2682   -1.6125   -1.5486 C   0  0  0  0  0  0  0  0  0  0  0  0
   -8.8720   -1.1775   -0.3190 O   0  0  0  0  0  0  0  0  0  0  0  0
   -8.1081   -0.1009    0.2579 C   0  0  0  0  0  0  0  0  0  0  0  0
   -6.6564   -0.5322    0.5740 C   0  0  0  0  0  0  0  0  0  0  0  0
   -6.4825    2.1121   -3.1700 F   0  0  0  0  0  0  0  0  0  0  0  0
   -4.8782    3.3848   -2.4248 F   0  0  0  0  0  0  0  0  0  0  0  0
   -6.1517    4.0570   -4.0475 F   0  0  0  0  0  0  0  0  0  0  0  0
  1  2  1  0
  1  6  1  0
  2  3  1  0
  3  7  1  0
  3  4  1  0
  4  5  1  0
  5  6  1  0
  7  8  2  0
  8  9  1  0
  9 10  2  0
  9 13  1  0
 10 11  1  0
 11 14  1  0
 11 12  2  0
 12  7  1  0
 13 22  1  0
 13 26  1  0
 14 15  2  0
 15 16  1  0
 15 20  1  0
 16 17  2  0
 17 18  1  0
 17 21  1  0
 18 19  2  0
 19 14  1  0
 20 27  1  0
 20 28  1  0
 20 29  1  0
 22 23  1  0
 23 24  1  0
 24 25  1  0
 25 26  1  0
M  END
>  <DRUGBANK_ID>  (1) 
DB11666

>  <COMMON_NAME>  (1) 
Buparlisib

>  <CAS_NUMBER>  (1) 
944396-07-0

>  <UNII>  (1) 
0ZM2Z182GD

>  <SYNONYMS>  (1) 
Buparlisib; Buparlisibum

$$$$
