767
     RDKit          3D

 29 31  0  0  1  0  0  0  0  0999 V2000
    1.3271    0.6678    0.2931 O   0  0  0  0  0  0  0  0  0  0  0  0
    3.4735    5.2005    1.5051 O   0  0  0  0  0  0  0  0  0  0  0  0
   -3.3444   -0.8502   -1.4335 O   0  0  0  0  0  0  0  0  0  0  0  0
   -5.3932    1.1715   -1.7975 O   0  0  0  0  0  0  0  0  0  0  0  0
    2.8182   -0.8235   -0.5341 O   0  0  0  0  0  0  0  0  0  0  0  0
    0.3998    4.0151   -1.7573 N   0  0  0  0  0  0  0  0  0  0  0  0
    4.5051    3.7305    0.0948 N   0  0  0  0  0  0  0  0  0  0  0  0
   -0.0251    2.6017   -1.5722 C   0  0  0  0  0  0  0  0  0  0  0  0
    1.9324    3.6676    0.4677 C   0  0  0  0  0  0  0  0  0  0  0  0
    0.1054    2.3224   -0.1187 C   0  0  0  0  0  0  0  0  0  0  0  0
    1.1302    2.0603    0.8816 C   0  0  0  0  0  0  0  0  0  0  0  0
    1.7292    4.1977   -1.1170 C   0  0  0  0  0  0  0  0  0  0  0  0
   -0.5508    4.9596   -1.1652 C   0  0  0  0  0  0  0  0  0  0  0  0
   -1.4411    2.2204   -1.6739 C   0  0  0  0  0  0  0  0  0  0  0  0
   -1.9525    4.6875   -1.7023 C   0  0  0  0  0  0  0  0  0  0  0  0
   -2.3690    3.2396   -1.6905 C   0  0  0  0  0  0  0  0  0  0  0  0
    3.3747    4.2058    0.7730 C   0  0  0  0  0  0  0  0  0  0  0  0
   -1.7988    0.8600   -1.5107 C   0  0  0  0  0  0  0  0  0  0  0  0
   -3.6896    2.8739   -1.7355 C   0  0  0  0  0  0  0  0  0  0  0  0
   -3.1313    0.5002   -1.5396 C   0  0  0  0  0  0  0  0  0  0  0  0
   -4.0807    1.5254   -1.6908 C   0  0  0  0  0  0  0  0  0  0  0  0
    4.4854    2.6500   -0.8860 C   0  0  0  0  0  0  0  0  0  0  0  0
    5.8496    4.2114    0.4791 C   0  0  0  0  0  0  0  0  0  0  0  0
    2.5279    0.0634    0.2081 C   0  0  0  0  0  0  0  0  0  0  0  0
    5.1120    2.9396   -2.2233 C   0  0  0  0  0  0  0  0  0  0  0  0
    6.2058    5.6010   -0.0318 C   0  0  0  0  0  0  0  0  0  0  0  0
    3.4041    0.7564    1.1758 C   0  0  0  0  0  0  0  0  0  0  0  0
   -4.6871   -1.2845   -1.5974 C   0  0  0  0  0  0  0  0  0  0  0  0
   -6.3305    2.2076   -2.0028 C   0  0  0  0  0  0  0  0  0  0  0  0
  1 11  1  0
  1 24  1  0
  2 17  2  0
  3 20  1  0
  3 28  1  0
  4 21  1  0
  4 29  1  0
  5 24  2  0
  6  8  1  0
  6 12  1  0
  6 13  1  0
  7 17  1  0
  7 22  1  0
  7 23  1  0
  8 10  1  0
  8 14  1  0
  9 11  1  0
  9 12  1  0
  9 17  1  0
 10 11  1  0
 13 15  1  0
 14 16  2  0
 14 18  1  0
 15 16  1  0
 16 19  1  0
 18 20  2  0
 19 21  2  0
 20 21  1  0
 22 25  1  0
 23 26  1  0
 24 27  1  0
M  END
>  <DRUGBANK_ID>  (1) 
DB00767

>  <SECONDARY_ACCESSION_NUMBERS>  (1) 
APRD00820

>  <COMMON_NAME>  (1) 
Benzquinamide

>  <CAS_NUMBER>  (1) 
63-12-7

>  <UNII>  (1) 
0475EA27Q3

>  <SYNONYMS>  (1) 
benzquinamida; Benzquinamide; BZQ

$$$$
