IPO
     RDKit          3D

 14 14  0  0  0  0  0  0  0  0999 V2000
    3.5676    0.0434   -0.0578 C   0  0  0  0  0  0  0  0  0  0  0  0
    2.8567    1.2440    0.0045 C   0  0  0  0  0  0  0  0  0  0  0  0
    1.4602    1.2318    0.0278 C   0  0  0  0  0  0  0  0  0  0  0  0
    0.7695    0.0193    0.0207 C   0  0  0  0  0  0  0  0  0  0  0  0
   -1.3042   -0.0002    0.0374 I   0  0  0  0  0  0  0  0  0  0  0  0
    1.4618   -1.1829   -0.0409 C   0  0  0  0  0  0  0  0  0  0  0  0
    2.8488   -1.1612   -0.1391 C   0  0  0  0  0  0  0  0  0  0  0  0
    5.0799    0.0539   -0.0735 C   0  0  0  0  0  0  0  0  0  0  0  0
    5.7302   -0.6903    1.1166 C   0  0  1  0  0  0  0  0  0  0  0  0
    5.3450   -2.1239    1.2262 N   0  0  0  0  0  0  0  0  0  0  0  0
    7.2638   -0.6182    1.0446 C   0  0  0  0  0  0  0  0  0  0  0  0
    7.9175   -0.0971    1.9573 O   0  0  0  0  0  0  0  0  0  0  0  0
    7.9024   -1.1740   -0.0201 N   0  0  0  0  0  0  0  0  0  0  0  0
    7.2577   -1.8581   -1.0626 O   0  0  0  0  0  0  0  0  0  0  0  0
  1  2  2  0
  1  7  1  0
  1  8  1  0
  2  3  1  0
  3  4  2  0
  4  5  1  0
  4  6  1  0
  6  7  2  0
  8  9  1  0
  9 10  1  6
  9 11  1  0
 11 12  2  0
 11 13  1  0
 13 14  1  0
M  END
>  <DRUGBANK_ID>  (1) 
DB01980

>  <SECONDARY_ACCESSION_NUMBERS>  (1) 
EXPT01920

>  <COMMON_NAME>  (1) 
Para-Iodo-D-Phenylalanine Hydroxamic Acid

$$$$
