1110
     RDKit          3D

 25 27  0  0  1  0  0  0  0  0999 V2000
   -2.4129    1.1767    0.0182 Cl  0  0  0  0  0  0  0  0  0  0  0  0
    2.8284    0.7854    0.0062 Cl  0  0  0  0  0  0  0  0  0  0  0  0
   -5.4407   -3.4246   -2.3387 Cl  0  0  0  0  0  0  0  0  0  0  0  0
   -7.1093    1.6749   -2.2722 Cl  0  0  0  0  0  0  0  0  0  0  0  0
   -2.5250   -2.9812   -1.1488 O   0  0  0  0  0  0  0  0  0  0  0  0
   -2.5829   -2.2365    2.5513 N   0  0  0  0  0  0  0  0  0  0  0  0
   -2.4439   -1.7518    4.7182 N   0  0  0  0  0  0  0  0  0  0  0  0
   -2.4584   -2.1324    0.0192 C   0  0  0  0  0  0  0  0  0  0  0  0
   -2.5901   -2.9993    1.3104 C   0  0  0  0  0  0  0  0  0  0  0  0
   -1.1546   -1.3430   -0.0118 C   0  0  0  0  0  0  0  0  0  0  0  0
   -2.5454   -2.2593   -2.3975 C   0  0  0  0  0  0  0  0  0  0  0  0
   -1.0768    0.0703   -0.0268 C   0  0  0  0  0  0  0  0  0  0  0  0
    0.0490   -2.0775   -0.0174 C   0  0  0  0  0  0  0  0  0  0  0  0
   -3.7165   -1.3110   -2.5096 C   0  0  0  0  0  0  0  0  0  0  0  0
   -2.6679   -0.8872    2.6874 C   0  0  0  0  0  0  0  0  0  0  0  0
   -2.4978   -2.7213    3.8258 C   0  0  0  0  0  0  0  0  0  0  0  0
    0.1554    0.7097   -0.0283 C   0  0  0  0  0  0  0  0  0  0  0  0
    1.2784   -1.4246   -0.0089 C   0  0  0  0  0  0  0  0  0  0  0  0
    1.3223   -0.0352   -0.0131 C   0  0  0  0  0  0  0  0  0  0  0  0
   -2.5226   -0.5948    4.0018 C   0  0  0  0  0  0  0  0  0  0  0  0
   -5.0448   -1.7463   -2.4185 C   0  0  0  0  0  0  0  0  0  0  0  0
   -3.4736    0.0689   -2.6077 C   0  0  0  0  0  0  0  0  0  0  0  0
   -6.0938   -0.8250   -2.3645 C   0  0  0  0  0  0  0  0  0  0  0  0
   -4.5163    0.9929   -2.4968 C   0  0  0  0  0  0  0  0  0  0  0  0
   -5.8232    0.5401   -2.3830 C   0  0  0  0  0  0  0  0  0  0  0  0
  1 12  1  0
  2 19  1  0
  3 21  1  0
  4 25  1  0
  5  8  1  0
  5 11  1  0
  6  9  1  0
  6 15  1  0
  6 16  1  0
  7 16  2  0
  7 20  1  0
  8  9  1  0
  8 10  1  0
 10 12  2  0
 10 13  1  0
 11 14  1  0
 12 17  1  0
 13 18  2  0
 14 21  2  0
 14 22  1  0
 15 20  2  0
 17 19  2  0
 18 19  1  0
 21 23  1  0
 22 24  2  0
 23 25  2  0
 24 25  1  0
M  END
>  <DRUGBANK_ID>  (1) 
DB01110

>  <SECONDARY_ACCESSION_NUMBERS>  (1) 
APRD01115

>  <COMMON_NAME>  (1) 
Miconazole

>  <CAS_NUMBER>  (1) 
22916-47-8

>  <UNII>  (1) 
7NNO0D7S5M

>  <SYNONYMS>  (1) 
1-(2,4-Dichloro-beta-((2,4-dichlorobenzyl)oxy)phenethyl)imidazole; 1-[2-(2,4-Dichloro-benzyloxy)-2-(2,4-dichloro-phenyl)-ethyl]-1H-imidazole; Miconazol; Miconazole; Miconazolum

$$$$
