
     RDKit          3D

 14 15  0  0  0  0  0  0  0  0999 V2000
   -0.5921    1.5455   -0.0113 C   0  0  0  0  0  0  0  0  0  0  0  0
   -2.0021    0.9818    0.3359 C   0  0  2  0  0  0  0  0  0  0  0  0
   -2.2013   -0.3745   -0.3848 C   0  0  0  0  0  0  0  0  0  0  0  0
   -1.1411   -1.3990    0.0758 C   0  0  0  0  0  0  0  0  0  0  0  0
    0.2355   -0.8356    0.0013 C   0  0  0  0  0  0  0  0  0  0  0  0
    0.4624    0.5121   -0.0341 C   0  0  0  0  0  0  0  0  0  0  0  0
    2.1252    0.8544   -0.0788 S   0  0  0  0  0  0  0  0  0  0  0  0
    1.3769   -1.6075    0.0404 N   0  0  0  0  0  0  0  0  0  0  0  0
    2.4356   -0.8351    0.0099 C   0  0  0  0  0  0  0  0  0  0  0  0
   -3.1509    1.8524    0.0206 N   0  0  0  0  0  0  0  0  0  0  0  0
    3.6903   -1.3051    0.0495 N   0  0  0  0  0  0  0  0  0  0  0  0
   -3.1674    3.1639    0.6738 C   0  0  0  0  0  0  0  0  0  0  0  0
   -2.0694    4.1416    0.2435 C   0  0  0  0  0  0  0  0  0  0  0  0
   -1.9691    4.3011   -1.2678 C   0  0  0  0  0  0  0  0  0  0  0  0
  1  2  1  0
  1  6  1  0
  2  3  1  0
  2 10  1  6
  3  4  1  0
  4  5  1  0
  5  8  1  0
  6  5  2  0
  7  6  1  0
  7  9  1  0
  8  9  2  0
  9 11  1  0
 10 12  1  0
 12 13  1  0
 13 14  1  0
M  END
>  <DRUGBANK_ID>  (1) 
DB00413

>  <SECONDARY_ACCESSION_NUMBERS>  (1) 
APRD00156

>  <COMMON_NAME>  (1) 
Pramipexole

>  <CAS_NUMBER>  (1) 
104632-26-0

>  <UNII>  (1) 
83619PEU5T

>  <SYNONYMS>  (1) 
(-)-Pramipexole; (S)-N  6-propyl-4,5,6,7-tetrahydro-1,3-benzothiazole-2,6-diamine; Pramipexol; Pramipexole; Pramipexolum

$$$$
