
     RDKit          3D

 27 27  0  0  1  0  0  0  0  0999 V2000
   -3.2029    4.2677    0.2799 C   0  0  0  0  0  0  0  0  0  0  0  0
   -3.4215    4.9463    1.6252 C   0  0  0  0  0  0  0  0  0  0  0  0
   -2.4005    4.4672    2.5639 C   0  0  0  0  0  0  0  0  0  0  0  0
   -1.0736    4.8065    1.9724 C   0  0  0  0  0  0  0  0  0  0  0  0
   -0.5280    6.2089    2.0183 C   0  0  0  0  0  0  0  0  0  0  0  0
   -0.2371    6.7079    3.4258 C   0  0  0  0  0  0  0  0  0  0  0  0
    0.9322    6.0786    4.1804 C   0  0  0  0  0  0  0  0  0  0  0  0
    2.3616    6.1464    3.6407 C   0  0  0  0  0  0  0  0  0  0  0  0
    3.2243    6.7058    4.3263 O   0  0  0  0  0  0  0  0  0  0  0  0
    2.7724    5.4988    2.3074 C   0  0  0  0  0  0  0  0  0  0  0  0
    2.7372    3.9327    2.1804 C   0  0  0  0  0  0  0  0  0  0  0  0
    1.3567    3.3428    2.4959 C   0  0  1  0  0  0  0  0  0  0  0  0
    0.8394    2.1975    1.5803 C   0  0  2  0  0  0  0  0  0  0  0  0
   -0.4950    2.2454    1.0686 O   0  0  0  0  0  0  0  0  0  0  0  0
    0.9489    0.9467    2.4446 C   0  0  0  0  0  0  0  0  0  0  0  0
    1.5299    1.4024    3.7887 C   0  0  2  0  0  0  0  0  0  0  0  0
    1.2315    0.5720    4.8871 O   0  0  0  0  0  0  0  0  0  0  0  0
    1.0832    2.8453    3.9464 C   0  0  2  0  0  0  0  0  0  0  0  0
   -0.3524    3.0075    4.5611 C   0  0  0  0  0  0  0  0  0  0  0  0
   -1.3323    1.8926    4.3845 C   0  0  0  0  0  0  0  0  0  0  0  0
   -1.8556    1.2576    5.4265 C   0  0  0  0  0  0  0  0  0  0  0  0
   -1.7183    1.7706    6.8219 C   0  0  0  0  0  0  0  0  0  0  0  0
   -3.0996    1.8892    7.4197 C   0  0  0  0  0  0  0  0  0  0  0  0
   -3.7951    0.5390    7.5063 C   0  0  0  0  0  0  0  0  0  0  0  0
   -3.0355   -0.4331    8.3614 C   0  0  0  0  0  0  0  0  0  0  0  0
   -3.4226   -0.8723    9.4559 O   0  0  0  0  0  0  0  0  0  0  0  0
   -1.8491   -0.8130    7.8657 O   0  0  0  0  0  0  0  0  0  0  0  0
  1  2  1  0
  2  3  1  0
  3  4  1  0
  4  5  1  0
  5  6  1  0
  6  7  1  0
  7  8  1  0
  8  9  2  0
  8 10  1  0
 10 11  1  0
 12 13  1  0
 12 18  1  0
 12 11  1  1
 13 14  1  1
 13 15  1  0
 15 16  1  0
 16 17  1  1
 16 18  1  0
 18 19  1  6
 19 20  1  0
 20 21  2  0
 21 22  1  0
 22 23  1  0
 23 24  1  0
 24 25  1  0
 25 26  2  0
 25 27  1  0
M  END
>  <DRUGBANK_ID>  (1) 
DB06826

>  <COMMON_NAME>  (1) 
Unoprostone

>  <CAS_NUMBER>  (1) 
120373-36-6

>  <UNII>  (1) 
6X4F561V3W

>  <SYNONYMS>  (1) 
13,14-dihydro-15-keto-20-ethyl PGF2Î±; Unoprostone

$$$$
