
     RDKit          3D

 27 29  0  0  0  0  0  0  0  0999 V2000
    9.8028   -2.2305   -0.2896 C   0  0  0  0  0  0  0  0  0  0  0  0
   10.7185   -1.7149    0.5511 C   0  0  0  0  0  0  0  0  0  0  0  0
    9.4397   -3.6784   -0.2500 C   0  0  0  0  0  0  0  0  0  0  0  0
    8.1224   -3.8700    0.0119 F   0  0  0  0  0  0  0  0  0  0  0  0
   10.1245   -4.3646    0.7023 F   0  0  0  0  0  0  0  0  0  0  0  0
    9.7047   -4.2968   -1.4300 F   0  0  0  0  0  0  0  0  0  0  0  0
   10.5168    0.4788   -0.4407 N   0  0  0  0  0  0  0  0  0  0  0  0
   11.1324   -0.2970    0.4991 C   0  0  0  0  0  0  0  0  0  0  0  0
   11.9868    0.1348    1.2579 O   0  0  0  0  0  0  0  0  0  0  0  0
    9.1543   -1.3458   -1.2849 C   0  0  0  0  0  0  0  0  0  0  0  0
    9.5418    0.0006   -1.3238 C   0  0  0  0  0  0  0  0  0  0  0  0
    8.1659   -1.7868   -2.1915 C   0  0  0  0  0  0  0  0  0  0  0  0
    8.9612    0.8762   -2.2316 C   0  0  0  0  0  0  0  0  0  0  0  0
    7.9907    0.4058   -3.1198 C   0  0  0  0  0  0  0  0  0  0  0  0
    7.5745   -0.9298   -3.1321 C   0  0  0  0  0  0  0  0  0  0  0  0
    5.6046   -2.3774   -5.8541 C   0  0  0  0  0  0  0  0  0  0  0  0
    6.6474   -1.3241   -5.4383 C   0  0  2  0  0  0  0  0  0  0  0  0
    5.3402   -2.0101   -3.4957 C   0  0  1  0  0  0  0  0  0  0  0  0
    4.5277   -2.2343   -4.7895 C   0  0  0  0  0  0  0  0  0  0  0  0
    6.5699   -1.3501   -3.9726 N   0  0  0  0  0  0  0  0  0  0  0  0
    6.2590    0.0455   -5.9858 C   0  0  0  0  0  0  0  0  0  0  0  0
    4.6112   -1.1369   -2.4489 C   0  0  2  0  0  0  0  0  0  0  0  0
    4.8706   -1.6659   -1.0274 C   0  0  0  0  0  0  0  0  0  0  0  0
    5.5840   -0.7925   -0.2837 F   0  0  0  0  0  0  0  0  0  0  0  0
    3.6921   -1.8736   -0.3866 F   0  0  0  0  0  0  0  0  0  0  0  0
    5.5207   -2.8500   -1.0038 F   0  0  0  0  0  0  0  0  0  0  0  0
    3.2034   -0.9985   -2.7520 O   0  0  0  0  0  0  0  0  0  0  0  0
  1  2  2  0
  1 10  1  0
  1  3  1  0
  2  8  1  0
  3  4  1  0
  3  6  1  0
  3  5  1  0
  7 11  1  0
  8  7  1  0
  8  9  2  0
 10 11  2  0
 11 13  1  0
 12 10  1  0
 12 15  2  0
 13 14  2  0
 14 15  1  0
 15 20  1  0
 16 17  1  0
 16 19  1  0
 17 20  1  0
 17 21  1  6
 18 20  1  0
 18 19  1  6
 22 27  1  6
 22 23  1  0
 22 18  1  0
 23 26  1  0
 23 24  1  0
 23 25  1  0
M  END
>  <DRUGBANK_ID>  (1) 
DB05234

>  <COMMON_NAME>  (1) 
LGD2941

>  <UNII>  (1) 
27H8PR7JGK

$$$$
