
     RDKit          3D

 22 23  0  0  1  0  0  0  0  0999 V2000
    0.6430    1.6116   -0.1763 C   0  0  0  0  0  0  0  0  0  0  0  0
    3.1268    1.5495   -0.0246 C   0  0  0  0  0  0  0  0  0  0  0  0
   -1.7067   -2.8515    2.2759 C   0  0  0  0  0  0  0  0  0  0  0  0
    1.8870    0.8245   -0.5659 C   0  0  1  0  0  0  0  0  0  0  0  0
   -0.6147    0.8854   -0.6153 C   0  0  1  0  0  0  0  0  0  0  0  0
   -0.5629   -1.9146    2.6729 C   0  0  2  0  0  0  0  0  0  0  0  0
   -0.5613   -0.5417   -0.1111 C   0  0  2  0  0  0  0  0  0  0  0  0
    1.9871   -1.5095    2.6053 C   0  0  2  0  0  0  0  0  0  0  0  0
    1.8567   -1.0717    4.0698 C   0  0  2  0  0  0  0  0  0  0  0  0
    0.7959   -2.3372    2.0557 C   0  0  2  0  0  0  0  0  0  0  0  0
    0.4162   -0.6065    4.3251 C   0  0  2  0  0  0  0  0  0  0  0  0
    0.7671   -1.2984   -0.2430 C   0  0  1  0  0  0  0  0  0  0  0  0
    4.3020    0.7944   -0.2926 O   0  0  0  0  0  0  0  0  0  0  0  0
   -2.9574   -2.2051    2.5322 O   0  0  0  0  0  0  0  0  0  0  0  0
   -1.7308    1.5755   -0.0197 O   0  0  0  0  0  0  0  0  0  0  0  0
   -1.7006   -1.3060   -0.4866 O   0  0  0  0  0  0  0  0  0  0  0  0
    3.2285   -2.1961    2.3824 O   0  0  0  0  0  0  0  0  0  0  0  0
    2.8068   -0.0309    4.3469 O   0  0  0  0  0  0  0  0  0  0  0  0
    0.2075   -0.1552    5.6439 O   0  0  0  0  0  0  0  0  0  0  0  0
    1.8907   -0.4774    0.0172 O   0  0  0  0  0  0  0  0  0  0  0  0
   -0.4645   -1.7120    4.0879 O   0  0  0  0  0  0  0  0  0  0  0  0
    0.7975   -2.4714    0.6101 O   0  0  0  0  0  0  0  0  0  0  0  0
  4  1  1  0
  4  2  1  1
  5  1  1  0
  5 15  1  1
  6  3  1  1
  7  5  1  0
  7 16  1  6
  8 17  1  1
  9  8  1  0
  9 18  1  6
 10  6  1  0
 10  8  1  0
 10 22  1  6
 11  9  1  0
 11 19  1  1
 12  7  1  0
 12 22  1  1
 13  2  1  0
 14  3  1  0
 20  4  1  0
 20 12  1  0
 21  6  1  0
 21 11  1  0
M  END
>  <DRUGBANK_ID>  (1) 
DB02065

>  <SECONDARY_ACCESSION_NUMBERS>  (1) 
EXPT01157

>  <COMMON_NAME>  (1) 
4-Deoxylactose

$$$$
