LZJ
     RDKit          3D

 20 22  0  0  0  0  0  0  0  0999 V2000
   -2.9212   -0.3958    0.1942 Br  0  0  0  0  0  0  0  0  0  0  0  0
   -1.1982    0.4220    0.0883 C   0  0  0  0  0  0  0  0  0  0  0  0
   -1.2001    1.8230    0.0673 C   0  0  0  0  0  0  0  0  0  0  0  0
   -0.0027    2.5229   -0.0077 C   0  0  0  0  0  0  0  0  0  0  0  0
    1.1994    1.8258   -0.0464 C   0  0  0  0  0  0  0  0  0  0  0  0
    1.2091    0.4245   -0.0275 C   0  0  0  0  0  0  0  0  0  0  0  0
    2.9350   -0.3888   -0.1036 Br  0  0  0  0  0  0  0  0  0  0  0  0
    0.0083   -0.3209    0.0263 C   0  0  0  0  0  0  0  0  0  0  0  0
    0.0147   -1.8039    0.0041 C   0  0  0  0  0  0  0  0  0  0  0  0
    0.6002   -2.5195    1.0497 C   0  0  0  0  0  0  0  0  0  0  0  0
    0.6259   -3.9204    1.0162 C   0  0  0  0  0  0  0  0  0  0  0  0
    1.2453   -4.6727    1.9977 C   0  0  0  0  0  0  0  0  0  0  0  0
    1.2733   -6.0118    1.9929 N   0  0  0  0  0  0  0  0  0  0  0  0
   -0.5521   -2.5632   -1.0300 C   0  0  0  0  0  0  0  0  0  0  0  0
   -0.9987   -1.9281   -2.1967 N   0  0  0  0  0  0  0  0  0  0  0  0
   -0.5617   -3.9236   -1.0271 N   0  0  0  0  0  0  0  0  0  0  0  0
    0.0270   -4.6125   -0.0228 C   0  0  0  0  0  0  0  0  0  0  0  0
    0.0447   -5.9560   -0.0318 N   0  0  0  0  0  0  0  0  0  0  0  0
    0.6609   -6.6006    0.9695 C   0  0  0  0  0  0  0  0  0  0  0  0
    0.6738   -7.9686    0.9677 N   0  0  0  0  0  0  0  0  0  0  0  0
  1  2  1  0
  2  3  2  0
  2  8  1  0
  3  4  1  0
  4  5  2  0
  5  6  1  0
  6  7  1  0
  6  8  2  0
  8  9  1  0
  9 10  2  0
  9 14  1  0
 10 11  1  0
 11 12  2  0
 11 17  1  0
 12 13  1  0
 13 19  2  0
 14 15  1  0
 14 16  2  0
 16 17  1  0
 17 18  2  0
 18 19  1  0
 19 20  1  0
M  END
>  <DRUGBANK_ID>  (1) 
DB08144

>  <COMMON_NAME>  (1) 
6-(2,6-dibromophenyl)pyrido[2,3-d]pyrimidine-2,7-diamine

$$$$
