
     RDKit          3D

 17 17  0  0  1  0  0  0  0  0999 V2000
    1.1303    0.2886   -0.1649 N   0  0  0  0  0  0  0  0  0  0  0  0
    0.4827   -0.6050   -1.1595 C   0  0  1  0  0  0  0  0  0  0  0  0
    0.9626   -2.0402   -1.0419 C   0  0  0  0  0  0  0  0  0  0  0  0
    0.5643   -2.7478    0.2192 C   0  0  0  0  0  0  0  0  0  0  0  0
    0.6685   -4.1030    0.1709 C   0  0  0  0  0  0  0  0  0  0  0  0
    0.4379   -4.8016    1.3308 C   0  0  0  0  0  0  0  0  0  0  0  0
    0.1096   -4.2265    2.5817 C   0  0  0  0  0  0  0  0  0  0  0  0
   -0.1799   -4.8591    3.7838 O   0  0  0  0  0  0  0  0  0  0  0  0
   -0.1818   -6.5885    3.8293 P   0  0  0  0  0  0  0  0  0  0  0  0
    0.9354   -6.7711    2.6788 O   0  0  0  0  0  0  0  0  0  0  0  0
    0.8822   -6.4505    5.0711 O   0  0  0  0  0  0  0  0  0  0  0  0
   -0.1835   -8.1363    3.8700 O   0  0  0  0  0  0  0  0  0  0  0  0
    0.0283   -2.8644    2.6291 C   0  0  0  0  0  0  0  0  0  0  0  0
    0.1603   -2.1631    1.4391 C   0  0  0  0  0  0  0  0  0  0  0  0
   -1.0763   -0.6017   -1.1333 C   0  0  0  0  0  0  0  0  0  0  0  0
   -1.6360   -0.0848   -2.2558 O   0  0  0  0  0  0  0  0  0  0  0  0
   -1.7838   -1.0565   -0.2625 O   0  0  0  0  0  0  0  0  0  0  0  0
  2  1  1  1
  2  3  1  0
  2 15  1  0
  3  4  1  0
  4  5  2  0
  4 14  1  0
  5  6  1  0
  6  7  2  0
  7  8  1  0
  7 13  1  0
  8  9  1  0
  9 10  1  0
  9 11  1  0
  9 12  2  0
 13 14  2  0
 15 16  1  0
 15 17  2  0
M  END
>  <DRUGBANK_ID>  (1) 
DB01962

>  <SECONDARY_ACCESSION_NUMBERS>  (1) 
EXPT02687

>  <COMMON_NAME>  (1) 
Phosphonotyrosine

>  <CAS_NUMBER>  (1) 
21820-51-9

>  <UNII>  (1) 
2R86C98KDX

$$$$
