
     RDKit          3D

 25 27  0  0  0  0  0  0  0  0999 V2000
    0.7151   -0.0915    0.6818 C   0  0  0  0  0  0  0  0  0  0  0  0
    0.0678   -1.2896   -0.0028 C   0  0  0  0  0  0  0  0  0  0  0  0
    0.5296   -2.5507    0.7169 C   0  0  0  0  0  0  0  0  0  0  0  0
   -1.3407   -1.1593   -0.2867 N   0  0  0  0  0  0  0  0  0  0  0  0
   -2.0468   -2.2855   -0.5130 N   0  0  0  0  0  0  0  0  0  0  0  0
   -3.2939   -1.8393   -0.6178 C   0  0  0  0  0  0  0  0  0  0  0  0
   -3.3435   -0.4347   -0.6454 C   0  0  0  0  0  0  0  0  0  0  0  0
   -2.0225   -0.0198   -0.6602 C   0  0  0  0  0  0  0  0  0  0  0  0
   -1.4389    1.3131   -0.7868 C   0  0  0  0  0  0  0  0  0  0  0  0
   -0.5342    1.7111   -1.7903 C   0  0  0  0  0  0  0  0  0  0  0  0
   -0.0156    0.8357   -2.9370 C   0  0  0  0  0  0  0  0  0  0  0  0
    0.9163   -0.2781   -2.7650 O   0  0  0  0  0  0  0  0  0  0  0  0
    2.1204   -0.2468   -2.0825 C   0  0  0  0  0  0  0  0  0  0  0  0
    2.6572    0.9487   -1.5927 C   0  0  0  0  0  0  0  0  0  0  0  0
    3.6586    0.9464   -0.6112 C   0  0  0  0  0  0  0  0  0  0  0  0
    4.1721   -0.2524   -0.1231 C   0  0  0  0  0  0  0  0  0  0  0  0
    3.6985   -1.4631   -0.6318 C   0  0  0  0  0  0  0  0  0  0  0  0
    4.1010   -2.6130   -0.0033 O   0  0  0  0  0  0  0  0  0  0  0  0
    2.6985   -1.4908   -1.6370 C   0  0  0  0  0  0  0  0  0  0  0  0
    2.0457   -2.8280   -1.9539 C   0  0  0  0  0  0  0  0  0  0  0  0
    2.4094   -3.9114   -1.5340 O   0  0  0  0  0  0  0  0  0  0  0  0
   -0.0749    3.0448   -1.7109 C   0  0  0  0  0  0  0  0  0  0  0  0
   -0.3932    3.8554   -0.6232 C   0  0  0  0  0  0  0  0  0  0  0  0
   -1.2232    3.3364    0.3477 C   0  0  0  0  0  0  0  0  0  0  0  0
   -1.7716    2.1045    0.2729 N   0  0  0  0  0  0  0  0  0  0  0  0
  1  2  1  0
  2  3  1  0
  2  4  1  0
  4  5  1  0
  4  8  1  0
  5  6  2  0
  6  7  1  0
  7  8  2  0
  8  9  1  0
  9 10  1  0
  9 25  2  0
 10 11  1  0
 10 22  2  0
 11 12  1  0
 12 13  1  0
 13 14  2  0
 13 19  1  0
 14 15  1  0
 15 16  2  0
 16 17  1  0
 17 18  1  0
 17 19  2  0
 19 20  1  0
 20 21  2  0
 22 23  1  0
 23 24  2  0
 24 25  1  0
M  END
>  <DRUGBANK_ID>  (1) 
DB14975

>  <COMMON_NAME>  (1) 
Voxelotor

>  <CAS_NUMBER>  (1) 
1446321-46-5

>  <UNII>  (1) 
3ZO554A4Q8

>  <SYNONYMS>  (1) 
Voxelotor; Vox√©lotor; Voxelotorum

$$$$
