DKA
     RDKit          3D

 12 11  0  0  0  0  0  0  0  0999 V2000
    0.9679   -0.2220   -0.0632 C   0  0  0  0  0  0  0  0  0  0  0  0
    0.4315   -1.2836    0.2266 O   0  0  0  0  0  0  0  0  0  0  0  0
    0.2594    1.0935   -0.2496 C   0  0  0  0  0  0  0  0  0  0  0  0
    0.6477    2.1116    0.8232 C   0  0  0  0  0  0  0  0  0  0  0  0
    2.1318    2.4847    0.7536 C   0  0  0  0  0  0  0  0  0  0  0  0
    2.4909    3.0426   -0.6293 C   0  0  0  0  0  0  0  0  0  0  0  0
    1.7297    4.3455   -0.8872 C   0  0  0  0  0  0  0  0  0  0  0  0
    2.0935    5.3913    0.1727 C   0  0  0  0  0  0  0  0  0  0  0  0
    3.5932    5.7100    0.1353 C   0  0  0  0  0  0  0  0  0  0  0  0
    4.0124    6.2502   -1.2326 C   0  0  0  0  0  0  0  0  0  0  0  0
    3.2542    7.5286   -1.5505 C   0  0  0  0  0  0  0  0  0  0  0  0
    2.3011   -0.1559   -0.2309 O   0  0  0  0  0  0  0  0  0  0  0  0
  1  2  2  0
  1  3  1  0
  1 12  1  0
  3  4  1  0
  4  5  1  0
  5  6  1  0
  6  7  1  0
  7  8  1  0
  8  9  1  0
  9 10  1  0
 10 11  1  0
M  END
>  <DRUGBANK_ID>  (1) 
DB03600

>  <SECONDARY_ACCESSION_NUMBERS>  (1) 
EXPT01213; DB03838

>  <COMMON_NAME>  (1) 
Capric acid

>  <CAS_NUMBER>  (1) 
334-48-5

>  <UNII>  (1) 
4G9EDB6V73

>  <SYNONYMS>  (1) 
1-nonanecarboxylic acid; Capric acid; Decanoic acid; n-capric acid; n-decanoic acid; n-decylic acid

$$$$
