
     RDKit          3D

 30 32  0  0  0  0  0  0  0  0999 V2000
    0.7776   -0.0310    0.0336 O   0  0  0  0  0  0  0  0  0  0  0  0
    1.9832   -0.0062   -0.2361 C   0  0  0  0  0  0  0  0  0  0  0  0
    2.8282   -0.7700    0.6106 O   0  0  0  0  0  0  0  0  0  0  0  0
    4.3220   -0.9713    1.0557 C   0  0  0  0  0  0  0  0  0  0  0  0
    5.2160   -1.3489   -0.1069 C   0  0  0  0  0  0  0  0  0  0  0  0
    4.8882   -0.3366   -1.1257 C   0  0  0  0  0  0  0  0  0  0  0  0
    5.0563    1.1107   -0.7887 O   0  0  0  0  0  0  0  0  0  0  0  0
    4.5437    1.8693    0.2334 C   0  0  0  0  0  0  0  0  0  0  0  0
    3.6554    1.6087    1.0356 O   0  0  0  0  0  0  0  0  0  0  0  0
    5.1734    3.1825    0.4172 C   0  0  0  0  0  0  0  0  0  0  0  0
    5.1634    4.1511   -0.5719 C   0  0  0  0  0  0  0  0  0  0  0  0
    5.3212    5.4941   -0.2815 C   0  0  0  0  0  0  0  0  0  0  0  0
    5.6230    5.8573    1.0187 C   0  0  0  0  0  0  0  0  0  0  0  0
    5.7148    4.8834    2.0178 C   0  0  0  0  0  0  0  0  0  0  0  0
    5.5012    3.5427    1.7184 C   0  0  0  0  0  0  0  0  0  0  0  0
    6.6381   -1.3930   -0.0315 O   0  0  0  0  0  0  0  0  0  0  0  0
    7.2249   -0.2005    0.2298 C   0  0  0  0  0  0  0  0  0  0  0  0
    6.7520    0.7681    0.7561 O   0  0  0  0  0  0  0  0  0  0  0  0
    8.6303   -0.1543   -0.0813 C   0  0  0  0  0  0  0  0  0  0  0  0
    9.2161   -0.7218   -1.2026 C   0  0  0  0  0  0  0  0  0  0  0  0
   10.5890   -0.5684   -1.3350 C   0  0  0  0  0  0  0  0  0  0  0  0
   11.3106    0.1861   -0.3939 C   0  0  0  0  0  0  0  0  0  0  0  0
   10.6756    0.8368    0.6587 C   0  0  0  0  0  0  0  0  0  0  0  0
    9.3317    0.6362    0.8331 C   0  0  0  0  0  0  0  0  0  0  0  0
    2.3284    0.9387   -1.4923 C   0  0  0  0  0  0  0  0  0  0  0  0
    2.0899    2.3081   -1.3509 C   0  0  0  0  0  0  0  0  0  0  0  0
    2.7188    3.2415   -2.2089 C   0  0  0  0  0  0  0  0  0  0  0  0
    3.7188    2.8431   -3.1061 C   0  0  0  0  0  0  0  0  0  0  0  0
    3.9489    1.5005   -3.2563 C   0  0  0  0  0  0  0  0  0  0  0  0
    3.0380    0.5829   -2.6807 C   0  0  0  0  0  0  0  0  0  0  0  0
  1  2  2  0
  2  3  1  0
  2 25  1  0
  3  4  1  0
  4  5  1  0
  5  6  1  0
  5 16  1  0
  6  7  1  0
  7  8  1  0
  8  9  2  0
  8 10  1  0
 10 11  2  0
 10 15  1  0
 11 12  1  0
 12 13  2  0
 13 14  1  0
 14 15  2  0
 16 17  1  0
 17 18  2  0
 17 19  1  0
 19 20  2  0
 19 24  1  0
 20 21  1  0
 21 22  2  0
 22 23  1  0
 23 24  2  0
 25 26  2  0
 25 30  1  0
 26 27  1  0
 27 28  2  0
 28 29  1  0
 29 30  2  0
M  END
>  <DRUGBANK_ID>  (1) 
DB16930

>  <COMMON_NAME>  (1) 
Glycerol Tribenzoate

>  <CAS_NUMBER>  (1) 
614-33-5

>  <UNII>  (1) 
3LZY0X529Y

>  <SYNONYMS>  (1) 
1,2,3-propanetriol, 1,2,3-tribenzoate; 1,2,3-propanetriol, tribenzoate; Benzoflex s 404; Glycerol, tribenzoate; Glyceryl tribenzoate; Tribenzoin; Uniplex 260

$$$$
