
     RDKit          3D

  8  7  0  0  0  0  0  0  0  0999 V2000
    1.0415   -0.0308   -0.0637 C   0  0  0  0  0  0  0  0  0  0  0  0
    0.2997   -1.2887   -0.4718 C   0  0  0  0  0  0  0  0  0  0  0  0
   -0.6378   -1.7999    0.6289 C   0  0  0  0  0  0  0  0  0  0  0  0
   -1.7106   -0.7789    1.0545 C   0  0  0  0  0  0  0  0  0  0  0  0
   -2.5943   -0.3712   -0.1244 C   0  0  0  0  0  0  0  0  0  0  0  0
   -2.5660   -1.3166    2.1961 C   0  0  0  0  0  0  0  0  0  0  0  0
    0.4983    1.0267    0.2285 O   0  0  0  0  0  0  0  0  0  0  0  0
    2.3841   -0.1452   -0.0601 O   0  0  0  0  0  0  0  0  0  0  0  0
  1  2  1  0
  1  7  2  0
  1  8  1  0
  2  3  1  0
  3  4  1  0
  4  5  1  0
  4  6  1  0
M  END
>  <DRUGBANK_ID>  (1) 
DB03993

>  <SECONDARY_ACCESSION_NUMBERS>  (1) 
EXPT00220

>  <COMMON_NAME>  (1) 
Isocaproic acid

>  <CAS_NUMBER>  (1) 
646-07-1

>  <UNII>  (1) 
4G4U8JA28T

>  <SYNONYMS>  (1) 
4-Methylvaleric acid; Isobutylacetic acid

$$$$
