
     RDKit          3D

 28 30  0  0  0  0  0  0  0  0999 V2000
    0.5435    0.1991   -0.9463 N   0  0  0  0  0  0  0  0  0  0  0  0
   -0.0888   -0.9453   -1.2566 C   0  0  0  0  0  0  0  0  0  0  0  0
    0.3442   -2.2781   -1.1158 N   0  0  0  0  0  0  0  0  0  0  0  0
   -0.6033   -3.0504   -1.7753 N   0  0  0  0  0  0  0  0  0  0  0  0
   -1.5562   -2.1818   -2.1240 C   0  0  0  0  0  0  0  0  0  0  0  0
   -1.2980   -0.9095   -1.7550 N   0  0  0  0  0  0  0  0  0  0  0  0
   -2.7210   -2.5017   -2.7413 N   0  0  0  0  0  0  0  0  0  0  0  0
   -3.7345   -1.6813   -3.2992 C   0  0  0  0  0  0  0  0  0  0  0  0
   -3.4538   -0.6061   -4.1507 C   0  0  0  0  0  0  0  0  0  0  0  0
   -4.4824    0.2057   -4.6697 C   0  0  0  0  0  0  0  0  0  0  0  0
   -5.8196   -0.0564   -4.3542 C   0  0  0  0  0  0  0  0  0  0  0  0
   -6.1326   -1.1740   -3.5801 C   0  0  0  0  0  0  0  0  0  0  0  0
   -5.0919   -1.9665   -3.0476 C   0  0  0  0  0  0  0  0  0  0  0  0
   -7.0780    1.1376   -4.7650 S   0  0  0  0  0  0  0  0  0  0  0  0
   -8.1702    0.3030   -5.7412 N   0  0  0  0  0  0  0  0  0  0  0  0
   -7.7822    1.4996   -3.5663 O   0  0  0  0  0  0  0  0  0  0  0  0
   -6.4990    2.1407   -5.6435 O   0  0  0  0  0  0  0  0  0  0  0  0
    1.4663   -2.9715   -0.5158 C   0  0  0  0  0  0  0  0  0  0  0  0
    1.7843   -4.6325   -0.7003 S   0  0  0  0  0  0  0  0  0  0  0  0
    2.4646   -2.2910    0.1946 N   0  0  0  0  0  0  0  0  0  0  0  0
    2.4762   -1.0667    0.8927 C   0  0  0  0  0  0  0  0  0  0  0  0
    1.3517   -0.5965    1.5668 C   0  0  0  0  0  0  0  0  0  0  0  0
    1.2384    0.7546    1.9003 C   0  0  0  0  0  0  0  0  0  0  0  0
    2.2953    1.6297    1.6477 C   0  0  0  0  0  0  0  0  0  0  0  0
    3.4988    1.1318    1.1480 C   0  0  0  0  0  0  0  0  0  0  0  0
    3.5816   -0.2083    0.7573 C   0  0  0  0  0  0  0  0  0  0  0  0
    4.6507   -0.5905    0.0407 F   0  0  0  0  0  0  0  0  0  0  0  0
    0.2639   -1.3737    1.6615 F   0  0  0  0  0  0  0  0  0  0  0  0
  1  2  1  0
  2  3  1  0
  2  6  2  0
  3 18  1  0
  4  3  1  0
  5  4  2  0
  5  7  1  0
  6  5  1  0
  7  8  1  0
  8  9  2  0
  8 13  1  0
 10  9  1  0
 11 10  2  0
 11 14  1  0
 12 11  1  0
 13 12  2  0
 14 15  1  0
 14 16  2  0
 14 17  2  0
 18 19  2  0
 18 20  1  0
 20 21  1  0
 21 22  2  0
 21 26  1  0
 22 28  1  0
 23 22  1  0
 24 23  2  0
 25 24  1  0
 26 25  2  0
 26 27  1  0
M  END
>  <DRUGBANK_ID>  (1) 
DB07664

>  <COMMON_NAME>  (1) 
K-00546

>  <CAS_NUMBER>  (1) 
443798-47-8

>  <UNII>  (1) 
LFR1253W75

>  <SYNONYMS>  (1) 
CDK1/2 inhibitor III

$$$$
