
     RDKit          3D

 28 32  0  0  0  0  0  0  0  0999 V2000
    2.2062   -0.7439    0.2201 C   0  0  0  0  0  0  0  0  0  0  0  0
   -3.8739   -4.0528    4.1401 C   0  0  0  0  0  0  0  0  0  0  0  0
   -4.7480   -2.8577    4.3925 C   0  0  0  0  0  0  0  0  0  0  0  0
    1.0286   -1.4928    0.0481 C   0  0  0  0  0  0  0  0  0  0  0  0
    2.3664    3.2988   -1.3872 C   0  0  0  0  0  0  0  0  0  0  0  0
    3.4298    1.4470   -2.4729 C   0  0  0  0  0  0  0  0  0  0  0  0
    1.0329    2.7060   -1.8651 C   0  0  0  0  0  0  0  0  0  0  0  0
    2.0682    0.8353   -2.8099 C   0  0  0  0  0  0  0  0  0  0  0  0
    0.9394    1.2472    0.7448 C   0  0  0  0  0  0  0  0  0  0  0  0
   -5.7187   -0.4502    0.6500 C   0  0  0  0  0  0  0  0  0  0  0  0
    3.3959    1.5055    0.0514 C   0  0  0  0  0  0  0  0  0  0  0  0
    2.1746    0.6487    0.4185 C   0  0  0  0  0  0  0  0  0  0  0  0
   -3.2531   -2.7484    4.5144 C   0  0  0  0  0  0  0  0  0  0  0  0
   -0.1413   -0.7476   -0.1000 C   0  0  0  0  0  0  0  0  0  0  0  0
   -0.2196    0.5926    0.2567 C   0  0  0  0  0  0  0  0  0  0  0  0
   -4.3761   -0.6062    0.9219 C   0  0  0  0  0  0  0  0  0  0  0  0
   -3.7043    0.0110   -0.1650 C   0  0  0  0  0  0  0  0  0  0  0  0
   -2.2174    0.0689   -0.3573 C   0  0  0  0  0  0  0  0  0  0  0  0
   -2.7605   -1.4604    2.5769 C   0  0  0  0  0  0  0  0  0  0  0  0
   -5.7832    0.2548   -0.5127 N   0  0  0  0  0  0  0  0  0  0  0  0
   -2.3780   -2.1232    3.6138 N   0  0  0  0  0  0  0  0  0  0  0  0
   -1.4389   -1.0737   -0.4346 N   0  0  0  0  0  0  0  0  0  0  0  0
   -1.4733    1.1094   -0.0174 N   0  0  0  0  0  0  0  0  0  0  0  0
   -3.9774   -1.2326    2.0512 N   0  0  0  0  0  0  0  0  0  0  0  0
   -4.5797    0.5536   -1.0291 N   0  0  0  0  0  0  0  0  0  0  0  0
    3.4196    2.2680   -1.2386 N   0  0  0  0  0  0  0  0  0  0  0  0
   -1.7474   -0.8407    2.0292 O   0  0  0  0  0  0  0  0  0  0  0  0
    1.1229    1.9002   -3.0438 O   0  0  0  0  0  0  0  0  0  0  0  0
  3  2  1  0
  4  1  2  0
  7  5  1  0
  8  6  1  0
 12  1  1  0
 12  9  2  0
 12 11  1  0
 13  2  1  0
 13  3  1  0
 14  4  1  0
 15  9  1  0
 15 14  2  0
 16 10  2  0
 17 16  1  0
 18 17  1  0
 20 10  1  0
 21 13  1  0
 21 19  2  3
 22 14  1  0
 22 18  1  0
 23 15  1  0
 23 18  2  0
 24 16  1  0
 24 19  1  0
 25 17  2  0
 25 20  1  0
 26  5  1  0
 26  6  1  0
 26 11  1  0
 27 19  1  0
 28  7  1  0
 28  8  1  0
M  END
>  <DRUGBANK_ID>  (1) 
DB05169

>  <COMMON_NAME>  (1) 
AT9283

>  <CAS_NUMBER>  (1) 
896466-04-9

>  <UNII>  (1) 
XAV9KYN9WL

>  <SYNONYMS>  (1) 
1-Cyclopropyl-3-[3-(5-morpholin-4-ylmethyl-1H-benzoimidazol-2-yl)-1H-pyrazol-4-yl]-urea

$$$$
