
     RDKit          3D

 30 32  0  0  0  0  0  0  0  0999 V2000
    2.3295    0.9389    0.0239 F   0  0  0  0  0  0  0  0  0  0  0  0
   -2.4307    0.7320   -0.0819 F   0  0  0  0  0  0  0  0  0  0  0  0
   -8.9934    6.7039    2.5367 O   0  0  0  0  0  0  0  0  0  0  0  0
  -10.6790    6.4988   -1.0251 O   0  0  0  0  0  0  0  0  0  0  0  0
   -8.4900    4.0731   -0.1646 N   0  0  0  0  0  0  0  0  0  0  0  0
   -3.9153    3.9190    2.5428 N   0  0  0  0  0  0  0  0  0  0  0  0
   -0.0614    2.3723    0.1279 N   0  0  0  0  0  0  0  0  0  0  0  0
   -3.5110    4.6110    0.1946 N   0  0  0  0  0  0  0  0  0  0  0  0
   -1.4638    4.0068   -0.8957 N   0  0  0  0  0  0  0  0  0  0  0  0
   -9.5245    6.6107   -0.1634 C   0  0  2  0  0  0  0  0  0  0  0  0
   -8.4949    5.5775   -0.7039 C   0  0  0  0  0  0  0  0  0  0  0  0
   -9.9261    6.4419    1.3393 C   0  0  0  0  0  0  0  0  0  0  0  0
   -7.1824    3.5602   -0.6393 C   0  0  0  0  0  0  0  0  0  0  0  0
   -8.7116    3.6460    1.3302 C   0  0  0  0  0  0  0  0  0  0  0  0
   -7.6827    6.2829    2.7461 C   0  0  0  0  0  0  0  0  0  0  0  0
   -5.0586    4.7500    2.7237 C   0  0  0  0  0  0  0  0  0  0  0  0
   -6.9928    5.7607    1.7029 C   0  0  0  0  0  0  0  0  0  0  0  0
   -6.9292    6.0808    3.8693 C   0  0  0  0  0  0  0  0  0  0  0  0
   -5.8742    4.8891    1.7198 C   0  0  0  0  0  0  0  0  0  0  0  0
   -5.5869    5.3756    3.8585 C   0  0  0  0  0  0  0  0  0  0  0  0
   -3.2181    3.8248    1.2515 C   0  0  0  0  0  0  0  0  0  0  0  0
   -2.1026    3.0185    1.1940 C   0  0  0  0  0  0  0  0  0  0  0  0
   -1.2318    3.1614    0.1167 C   0  0  0  0  0  0  0  0  0  0  0  0
   -0.0446    0.9588   -0.0116 C   0  0  0  0  0  0  0  0  0  0  0  0
    1.1706    0.2608    0.0075 C   0  0  0  0  0  0  0  0  0  0  0  0
   -1.2127    0.1729   -0.0371 C   0  0  0  0  0  0  0  0  0  0  0  0
   -2.6341    4.6578   -0.8272 C   0  0  0  0  0  0  0  0  0  0  0  0
    1.2181   -1.1381    0.0095 C   0  0  0  0  0  0  0  0  0  0  0  0
   -1.1810   -1.2180   -0.0283 C   0  0  0  0  0  0  0  0  0  0  0  0
    0.0376   -1.8799    0.0007 C   0  0  0  0  0  0  0  0  0  0  0  0
  1 25  1  0
  2 26  1  0
  3 12  1  0
  3 15  1  0
  5 11  1  0
  5 13  1  0
  5 14  1  0
  6 16  1  0
  6 21  1  0
  7 23  1  0
  7 24  1  0
  8 21  2  0
  8 27  1  0
  9 23  1  0
  9 27  2  0
 10 12  1  0
 10 11  1  0
 10  4  1  6
 15 17  2  0
 15 18  1  0
 16 19  2  0
 16 20  1  0
 17 19  1  0
 18 20  2  0
 21 22  1  0
 22 23  2  0
 24 25  2  0
 24 26  1  0
 25 28  1  0
 26 29  2  0
 28 30  2  0
 29 30  1  0
M  END
>  <DRUGBANK_ID>  (1) 
DB07761

>  <COMMON_NAME>  (1) 
(2R)-1-[4-({6-[(2,6-Difluorophenyl)amino]-4-pyrimidinyl}amino)phenoxy]-3-(dimethylamino)-2-propanol

$$$$
