
     RDKit          3D

 40 42  0  0  0  0  0  0  0  0999 V2000
   -2.4949   -8.2790    5.2257 C   0  0  1  0  0  0  0  0  0  0  0  0
   -0.8314   -6.9255    7.9763 C   0  0  1  0  0  0  0  0  0  0  0  0
   -1.5081  -10.1455    5.4768 C   0  0  1  0  0  0  0  0  0  0  0  0
   -0.0431   -9.9208    5.8861 C   0  0  2  0  0  0  0  0  0  0  0  0
   -0.1167   -9.0245    7.2327 C   0  0  2  0  0  0  0  0  0  0  0  0
   -3.0762   -9.4894    8.2410 C   0  0  2  0  0  0  0  0  0  0  0  0
   -3.2050   -8.2723    7.5026 C   0  0  1  0  0  0  0  0  0  0  0  0
   -1.4725   -7.7759    6.3379 C   0  0  2  0  0  0  0  0  0  0  0  0
   -0.0931   -7.4073    6.6265 C   0  0  1  0  0  0  0  0  0  0  0  0
    0.0191   -8.2341    8.7226 C   0  0  2  0  0  0  0  0  0  0  0  0
   -1.7175   -8.6729    9.5035 O   0  0  0  0  0  0  0  0  0  0  0  0
    0.8746   -7.1939    5.6831 O   0  0  0  0  0  0  0  0  0  0  0  0
    1.3241   -7.7199    9.1332 C   0  0  0  0  0  0  0  0  0  0  0  0
   -2.4963   -6.4289    5.1796 N   0  0  0  0  0  0  0  0  0  0  0  0
    1.9454   -6.9607    8.0881 O   0  0  0  0  0  0  0  0  0  0  0  0
    0.3114   -5.5183    7.1139 N   0  0  0  0  0  0  0  0  0  0  0  0
    0.7310   -9.2302    4.8980 O   0  0  0  0  0  0  0  0  0  0  0  0
   -2.2295  -11.0544    7.0800 O   0  0  0  0  0  0  0  0  0  0  0  0
   -0.3122  -10.3948    8.0664 O   0  0  0  0  0  0  0  0  0  0  0  0
   -1.5366  -10.0394    8.2841 C   0  0  1  0  0  0  0  0  0  0  0  0
   -2.6526   -9.6594    6.6036 O   0  0  0  0  0  0  0  0  0  0  0  0
   -4.2552  -10.5860    6.2045 C   0  0  1  0  0  0  0  0  0  0  0  0
   -4.8508  -11.2690    7.5501 C   0  0  2  0  0  0  0  0  0  0  0  0
   -4.7622  -10.4886    9.0649 C   0  0  1  0  0  0  0  0  0  0  0  0
   -2.9086  -10.5381    9.7897 C   0  0  1  0  0  0  0  0  0  0  0  0
   -5.4296   -9.1270    5.4947 C   0  0  0  0  0  0  0  0  0  0  0  0
   -2.6456  -11.8881    9.8767 O   0  0  0  0  0  0  0  0  0  0  0  0
   -5.3443   -9.1546    8.9352 O   0  0  0  0  0  0  0  0  0  0  0  0
   -4.2839  -12.5763    7.7566 O   0  0  0  0  0  0  0  0  0  0  0  0
   -2.5544   -6.7762    6.9336 C   0  0  0  0  0  0  0  0  0  0  0  0
   -1.3099   -7.6356    4.0585 N   0  0  0  0  0  0  0  0  0  0  0  0
   -0.9199   -6.2094    1.7252 C   0  0  0  0  0  0  0  0  0  0  0  0
   -1.0838   -8.2727    2.9401 C   0  0  0  0  0  0  0  0  0  0  0  0
   -1.5875   -9.3611    2.7581 O   0  0  0  0  0  0  0  0  0  0  0  0
   -0.2310   -4.9005    2.0948 C   0  0  0  0  0  0  0  0  0  0  0  0
    1.0280   -4.7671    1.3913 N   0  0  0  0  0  0  0  0  0  0  0  0
   -0.1644   -7.4817    2.1001 C   0  0  1  0  0  0  0  0  0  0  0  0
    0.0298   -8.3549    1.0147 O   0  0  0  0  0  0  0  0  0  0  0  0
   -4.7820   -8.0750    4.5775 N   0  0  0  0  0  0  0  0  0  0  0  0
   -4.2084   -8.7026    6.8302 O   0  0  0  0  0  0  0  0  0  0  0  0
  1  3  1  0
  1 31  1  6
  2 30  1  0
  2 16  1  6
  3 18  1  1
  3  4  1  0
  4 17  1  6
  4  5  1  0
  5  2  1  0
  5 19  1  1
  6 18  1  6
  6  7  1  0
  7  8  1  0
  7 40  1  6
  8  9  1  0
  8 14  1  1
  9 10  1  0
  9 12  1  6
 10 11  1  0
 10 13  1  1
 11  6  1  0
 13 15  1  0
 20 21  1  0
 20 19  1  6
 21 22  1  0
 22 23  1  0
 22 26  1  1
 23 24  1  0
 23 29  1  1
 24 25  1  0
 24 28  1  6
 25 20  1  0
 25 27  1  6
 26 39  1  0
 30  1  1  0
 31 33  1  0
 32 35  1  0
 33 34  2  0
 35 36  1  0
 37 38  1  6
 37 32  1  0
 37 33  1  0
M  END
>  <DRUGBANK_ID>  (1) 
DB00479

>  <SECONDARY_ACCESSION_NUMBERS>  (1) 
APRD00550

>  <COMMON_NAME>  (1) 
Amikacin

>  <CAS_NUMBER>  (1) 
37517-28-5

>  <UNII>  (1) 
84319SGC3C

>  <SYNONYMS>  (1) 
1-N-(L(−)-γ-amino-α-hydroxybutyryl)kanamycin A; Amikacin; Amikacina; Amikacine; Amikacinum; D-STREPTAMINE, O-3-AMINO-3-DEOXY-.ALPHA.-D-GLUCOPYRANOSYL-(1->6)-O-(6-AMINO-6-DEOXY-.ALPHA.-D-GLUCOPYRANOSYL-(1->4))-N(SUP 1)-(4-AMINO-2-HYDROXY-1-OXOBUTYL)-2-DEOXY-, (S)-; encochleated amikacin; O-3-AMINO-3-DEOXY-.ALPHA.-D-GLUCOPYRANOSYL-(1->4)-O-(6-AMINO-6-DEOXY-.ALPHA.-D-GLUCOPYRANOSYL-(1->6))-N(SUP 3)-(4-AMINO-L-2-HYDROXYBUTYRYL)-2-DEOXY-L-STREPTAMINE

$$$$
