
     RDKit          3D

 33 34  0  0  0  0  0  0  0  0999 V2000
   -0.6946    7.3606    5.2420 C   0  0  0  0  0  0  0  0  0  0  0  0
   -1.6597    9.1107    3.8887 C   0  0  0  0  0  0  0  0  0  0  0  0
   -1.6158    8.3941    5.0909 C   0  0  0  0  0  0  0  0  0  0  0  0
   -0.6674    8.9043    2.9202 C   0  0  0  0  0  0  0  0  0  0  0  0
    0.2134    7.0803    4.2206 C   0  0  0  0  0  0  0  0  0  0  0  0
    0.2359    7.8590    3.0660 C   0  0  0  0  0  0  0  0  0  0  0  0
   -2.8812    9.9126    3.5250 C   0  0  0  0  0  0  0  0  0  0  0  0
   -4.0657    9.0797    3.5463 O   0  0  0  0  0  0  0  0  0  0  0  0
   -4.2708    7.9720    2.7766 C   0  0  0  0  0  0  0  0  0  0  0  0
   -3.2985    7.6327    1.8711 N   0  0  0  0  0  0  0  0  0  0  0  0
   -3.3899    6.4627    1.0165 C   0  0  2  0  0  0  0  0  0  0  0  0
   -2.0240    5.7117    0.8978 C   0  0  0  0  0  0  0  0  0  0  0  0
   -1.9785    4.5672    1.6581 N   0  0  0  0  0  0  0  0  0  0  0  0
   -1.0884    3.3919    1.5654 C   0  0  2  0  0  0  0  0  0  0  0  0
   -1.2421    2.5578    2.8626 C   0  0  1  0  0  0  0  0  0  0  0  0
   -0.6547    3.2534    3.9919 O   0  0  0  0  0  0  0  0  0  0  0  0
   -5.3047    7.3195    2.9029 O   0  0  0  0  0  0  0  0  0  0  0  0
   -3.8694    6.8795   -0.3792 C   0  0  0  0  0  0  0  0  0  0  0  0
   -4.1011    5.6744   -1.3070 C   0  0  0  0  0  0  0  0  0  0  0  0
   -5.1530    4.7268   -0.7307 C   0  0  0  0  0  0  0  0  0  0  0  0
   -4.5343    6.1480   -2.6916 C   0  0  0  0  0  0  0  0  0  0  0  0
   -1.0848    6.1381    0.2342 O   0  0  0  0  0  0  0  0  0  0  0  0
    0.4164    3.7399    1.3071 C   0  0  0  0  0  0  0  0  0  0  0  0
    1.3856    2.5382    1.2224 C   0  0  1  0  0  0  0  0  0  0  0  0
    1.7399    1.7601    2.5065 C   0  0  0  0  0  0  0  0  0  0  0  0
    1.9143    0.3218    2.0549 C   0  0  0  0  0  0  0  0  0  0  0  0
    1.1839    0.2427    0.8271 N   0  0  0  0  0  0  0  0  0  0  0  0
    0.8561    1.4631    0.3003 C   0  0  0  0  0  0  0  0  0  0  0  0
    0.2231    1.6317   -0.7323 O   0  0  0  0  0  0  0  0  0  0  0  0
   -2.8983    1.9063    3.1783 S   0  0  0  0  0  0  0  0  0  0  0  0
   -3.4005    1.2238    2.0075 O   0  0  0  0  0  0  0  0  0  0  0  0
   -2.9261    1.2834    4.4825 O   0  0  0  0  0  0  0  0  0  0  0  0
   -3.7106    3.3010    3.2957 O   0  0  0  0  0  0  0  0  0  0  0  0
  1  5  2  0
  2  3  2  0
  2  7  1  0
  3  1  1  0
  4  2  1  0
  5  6  1  0
  6  4  2  0
  7  8  1  0
  8  9  1  0
  9 10  1  0
  9 17  2  0
 11 18  1  6
 11 12  1  0
 11 10  1  0
 12 13  1  0
 12 22  2  0
 14 23  1  1
 14 15  1  0
 14 13  1  0
 15 16  1  1
 15 30  1  0
 18 19  1  0
 19 20  1  0
 19 21  1  0
 24 23  1  1
 24 25  1  0
 25 26  1  0
 26 27  1  0
 27 28  1  0
 28 24  1  0
 28 29  2  0
 30 31  2  0
 30 32  2  0
 30 33  1  0
M  END
>  <DRUGBANK_ID>  (1) 
DB15796

>  <COMMON_NAME>  (1) 
GC-376 free acid

>  <CAS_NUMBER>  (1) 
1417031-79-8

>  <UNII>  (1) 
O9H5KY11SV

$$$$
