4840
     RDKit          3D

 13 14  0  0  0  0  0  0  0  0999 V2000
    2.4105    0.7286    0.2772 N   0  0  0  0  0  0  0  0  0  0  0  0
    3.6588    2.6868    0.5058 N   0  0  0  0  0  0  0  0  0  0  0  0
    4.4586    0.7488    1.3906 N   0  0  0  0  0  0  0  0  0  0  0  0
    1.2340   -1.4190   -0.3616 C   0  0  0  0  0  0  0  0  0  0  0  0
    2.2966   -0.7317    0.5078 C   0  0  0  0  0  0  0  0  0  0  0  0
    1.2955    1.3803   -0.4098 C   0  0  0  0  0  0  0  0  0  0  0  0
   -0.0777   -0.7058   -0.1955 C   0  0  0  0  0  0  0  0  0  0  0  0
   -0.0300    0.6956   -0.1618 C   0  0  0  0  0  0  0  0  0  0  0  0
   -1.2966   -1.3744   -0.0607 C   0  0  0  0  0  0  0  0  0  0  0  0
   -1.2079    1.4196    0.0502 C   0  0  0  0  0  0  0  0  0  0  0  0
    3.5266    1.3697    0.7435 C   0  0  0  0  0  0  0  0  0  0  0  0
   -2.4661   -0.6434    0.1495 C   0  0  0  0  0  0  0  0  0  0  0  0
   -2.4199    0.7493    0.2179 C   0  0  0  0  0  0  0  0  0  0  0  0
  1  5  1  0
  1  6  1  0
  1 11  1  0
  2 11  1  0
  3 11  2  0
  4  5  1  0
  4  7  1  0
  6  8  1  0
  7  8  2  0
  7  9  1  0
  8 10  1  0
  9 12  2  0
 10 13  2  0
 12 13  1  0
M  END
>  <DRUGBANK_ID>  (1) 
DB04840

>  <COMMON_NAME>  (1) 
Debrisoquine

>  <CAS_NUMBER>  (1) 
1131-64-2

>  <UNII>  (1) 
X31CDK040E

>  <SYNONYMS>  (1) 
Debrisochinum; Debrisoquin; Debrisoquina; DÃ©brisoquine; Debrisoquine; Debrisoquinum

$$$$
