
     RDKit          3D

 23 26  0  0  1  0  0  0  0  0999 V2000
    0.9613   -4.9334   -1.6679 C   0  0  0  0  0  0  0  0  0  0  0  0
    0.5504   -4.0352   -0.4402 C   0  0  2  0  0  0  0  0  0  0  0  0
    0.3576   -5.0984    0.6282 C   0  0  0  0  0  0  0  0  0  0  0  0
   -0.7989   -6.0235    0.2740 C   0  0  0  0  0  0  0  0  0  0  0  0
   -2.0611   -5.2552    0.4527 C   0  0  2  0  0  0  0  0  0  0  0  0
   -3.2835   -6.1694    0.1889 C   0  0  0  0  0  0  0  0  0  0  0  0
   -3.2694   -7.5942    0.2290 C   0  0  0  0  0  0  0  0  0  0  0  0
   -4.3885   -8.4242   -0.1013 C   0  0  0  0  0  0  0  0  0  0  0  0
   -5.6067   -7.8081   -0.4509 C   0  0  0  0  0  0  0  0  0  0  0  0
   -5.6119   -6.3806   -0.4369 C   0  0  0  0  0  0  0  0  0  0  0  0
   -4.4899   -5.5627   -0.1197 C   0  0  0  0  0  0  0  0  0  0  0  0
   -4.6025   -4.0457   -0.1902 C   0  0  0  0  0  0  0  0  0  0  0  0
   -3.3245   -3.2106    0.1917 C   0  0  0  0  0  0  0  0  0  0  0  0
   -2.0676   -3.8666   -0.5047 C   0  0  1  0  0  0  0  0  0  0  0  0
   -0.5630   -3.0292   -0.8047 C   0  0  2  0  0  0  0  0  0  0  0  0
    0.5030   -1.8667   -1.6584 C   0  0  0  0  0  0  0  0  0  0  0  0
    1.8974   -2.3524   -1.2281 C   0  0  0  0  0  0  0  0  0  0  0  0
    1.6582   -3.0468   -0.1093 C   0  0  0  0  0  0  0  0  0  0  0  0
   -6.9133   -8.4946   -0.8416 C   0  0  0  0  0  0  0  0  0  0  0  0
   -7.1539   -9.7206   -0.9276 O   0  0  0  0  0  0  0  0  0  0  0  0
   -8.0216   -7.7842   -1.1540 N   0  0  0  0  0  0  0  0  0  0  0  0
   -4.0301   -9.7546   -0.0230 O   0  0  0  0  0  0  0  0  0  0  0  0
   -5.0018  -10.7399   -0.3212 C   0  0  0  0  0  0  0  0  0  0  0  0
  2  1  1  6
  2  3  1  0
  2 15  1  0
  2 18  1  0
  3  4  1  0
  5  4  1  6
  5  6  1  0
  5 14  1  0
  6  7  2  0
  6 11  1  0
  7  8  1  0
  8  9  2  0
  8 22  1  0
  9 10  1  0
  9 19  1  0
 10 11  2  0
 11 12  1  0
 12 13  1  0
 14 13  1  1
 14 15  1  0
 15 16  1  6
 16 17  1  0
 17 18  2  0
 19 20  2  0
 19 21  1  0
 22 23  1  0
M  END
>  <DRUGBANK_ID>  (1) 
DB05959

>  <COMMON_NAME>  (1) 
ENMD-1198

>  <CAS_NUMBER>  (1) 
864668-87-1

>  <UNII>  (1) 
760O4GJB9O

$$$$
