
     RDKit          3D

 29 33  0  0  0  0  0  0  0  0999 V2000
    2.4922    0.0053   -0.0006 C   0  0  0  0  0  0  0  0  0  0  0  0
    0.9886   -0.0489    0.0364 C   0  0  0  0  0  0  0  0  0  0  0  0
    0.2799    1.1675    0.0207 C   0  0  0  0  0  0  0  0  0  0  0  0
   -1.1114    1.1838    0.0095 C   0  0  0  0  0  0  0  0  0  0  0  0
   -1.8110   -0.0178    0.0120 C   0  0  0  0  0  0  0  0  0  0  0  0
   -1.1207   -1.2372    0.0375 C   0  0  0  0  0  0  0  0  0  0  0  0
    0.2874   -1.2799    0.0546 C   0  0  0  0  0  0  0  0  0  0  0  0
    1.0239   -2.6098   -0.0794 C   0  0  0  0  0  0  0  0  0  0  0  0
    0.6551   -3.6486    0.8433 N   0  0  0  0  0  0  0  0  0  0  0  0
   -0.1202   -4.6940    0.4527 C   0  0  0  0  0  0  0  0  0  0  0  0
   -0.0473   -5.3582   -0.6779 N   0  0  0  0  0  0  0  0  0  0  0  0
   -1.2130   -6.3102   -0.5725 C   0  0  0  0  0  0  0  0  0  0  0  0
   -1.8941   -6.0025    0.7656 C   0  0  0  0  0  0  0  0  0  0  0  0
   -0.7919   -5.3418    1.4514 N   0  0  0  0  0  0  0  0  0  0  0  0
    0.2407   -6.0077    2.1264 C   0  0  0  0  0  0  0  0  0  0  0  0
    1.3848   -5.3285    2.3980 C   0  0  0  0  0  0  0  0  0  0  0  0
    2.6019   -5.9003    3.0464 C   0  0  0  0  0  0  0  0  0  0  0  0
    2.4623   -7.2765    3.5589 N   0  0  0  0  0  0  0  0  0  0  0  0
    2.5328   -7.3410    5.0355 C   0  0  0  0  0  0  0  0  0  0  0  0
    1.4311   -6.6272    5.8079 C   0  0  0  0  0  0  0  0  0  0  0  0
    0.3693   -5.9854    5.1835 C   0  0  0  0  0  0  0  0  0  0  0  0
   -0.6638   -5.2584    5.7249 C   0  0  0  0  0  0  0  0  0  0  0  0
   -0.6928   -5.2039    7.0802 C   0  0  0  0  0  0  0  0  0  0  0  0
    0.3233   -5.8539    7.8014 C   0  0  0  0  0  0  0  0  0  0  0  0
    1.3839   -6.5527    7.1790 C   0  0  0  0  0  0  0  0  0  0  0  0
    1.3804   -8.1150    3.0207 C   0  0  0  0  0  0  0  0  0  0  0  0
    0.1374   -7.4773    2.3817 C   0  0  0  0  0  0  0  0  0  0  0  0
    1.4377   -3.8758    1.9792 C   0  0  0  0  0  0  0  0  0  0  0  0
    2.2145   -3.1057    2.4786 O   0  0  0  0  0  0  0  0  0  0  0  0
  1  2  1  0
  2  3  2  0
  2  7  1  0
  3  4  1  0
  4  5  2  0
  5  6  1  0
  6  7  2  0
  7  8  1  0
  8  9  1  0
  9 10  1  0
  9 28  1  0
 10 11  2  0
 10 14  1  0
 11 12  1  0
 12 13  1  0
 13 14  1  0
 14 15  1  0
 15 16  2  0
 15 27  1  0
 16 17  1  0
 16 28  1  0
 17 18  1  0
 18 19  1  0
 18 26  1  0
 19 20  1  0
 20 21  2  0
 20 25  1  0
 21 22  1  0
 22 23  2  0
 23 24  1  0
 24 25  2  0
 26 27  1  0
 28 29  2  0
M  END
>  <DRUGBANK_ID>  (1) 
DB14844

>  <COMMON_NAME>  (1) 
Dordaviprone

>  <CAS_NUMBER>  (1) 
1616632-77-9

>  <UNII>  (1) 
9U35A31JAI

>  <SYNONYMS>  (1) 
2,4,6,7,8,9-Hexahydro-4-((2-methylphenyl)methyl)-7-phenylmethyl)imidazo)(1,2-a)pyrido(3,4-e)pyrimidin-5(1H)-one; 7-benzyl-4-(2-methylbenzyl)-1,2,6,7,8,9-hexahydroimidazo(1,2-A)pyrido(3,4-E)pyrimidin-5(4H)-one

$$$$
