
     RDKit          3D

 18 18  0  0  0  0  0  0  0  0999 V2000
    1.3023   -0.1903   -0.0332 C   0  0  0  0  0  0  0  0  0  0  0  0
    1.0235   -2.3737    1.0373 C   0  0  0  0  0  0  0  0  0  0  0  0
   -2.7198    1.7830   -1.3380 C   0  0  0  0  0  0  0  0  0  0  0  0
   -4.7332    1.2128   -3.1087 C   0  0  0  0  0  0  0  0  0  0  0  0
   -1.0758    0.0153   -2.2353 C   0  0  0  0  0  0  0  0  0  0  0  0
   -1.2611   -1.4137   -1.6927 C   0  0  0  0  0  0  0  0  0  0  0  0
   -1.2331    1.0879    0.1998 C   0  0  0  0  0  0  0  0  0  0  0  0
   -6.1027   -0.3135   -1.6170 C   0  0  0  0  0  0  0  0  0  0  0  0
    0.5846   -1.5264   -0.1335 C   0  0  0  0  0  0  0  0  0  0  0  0
   -1.3432    1.2864   -1.2849 C   0  0  2  0  0  0  0  0  0  0  0  0
   -6.0807    0.9774   -2.5440 C   0  0  2  0  0  0  0  0  0  0  0  0
   -0.9722   -1.4768   -0.2040 C   0  0  1  0  0  0  0  0  0  0  0  0
   -1.6904   -0.3463    0.6036 C   0  0  2  0  0  0  0  0  0  0  0  0
   -4.0587   -0.6734   -0.4280 C   0  0  0  0  0  0  0  0  0  0  0  0
   -6.8945    0.8742   -3.6881 O   0  0  0  0  0  0  0  0  0  0  0  0
   -3.6861   -0.9538   -1.5631 O   0  0  0  0  0  0  0  0  0  0  0  0
   -5.3712   -0.2781   -0.3054 O   0  0  0  0  0  0  0  0  0  0  0  0
   -3.2304   -0.4820    0.6654 O   0  0  0  0  0  0  0  0  0  0  0  0
  6  5  1  0
  9  1  1  0
  9  2  1  0
 10  5  1  0
 10  7  1  0
 10  3  1  1
 11  4  1  6
 11  8  1  0
 12  6  1  0
 12  9  1  6
 12 13  1  0
 13  7  1  0
 13 18  1  6
 15 11  1  0
 16 14  2  0
 17  8  1  0
 17 14  1  0
 18 14  1  0
M  END
>  <DRUGBANK_ID>  (1) 
DB14136

>  <COMMON_NAME>  (1) 
(-)-menthol 1-propylene glycol carbonate

>  <CAS_NUMBER>  (1) 
260781-16-6

>  <UNII>  (1) 
2WL8FX4EEZ

>  <SYNONYMS>  (1) 
(-)-menthol (+/-)-1-propylene glycol carbonate; 2-hydroxypropyl ((1R,2S,5R)-2-isopropyl-5-methyl-cyclohexyl) carbonate; Carbonic acid, 2-hydroxypropyl (1R,2S,5R)-5-methyl-2-(1-methylethyl)cyclohexyl ester; Fema no. 3806, 1-propylene glycol carbonate

$$$$
