
     RDKit          3D

 11 11  0  0  1  0  0  0  0  0999 V2000
    0.8867   -1.0371   -1.9262 O   0  0  0  0  0  0  0  0  0  0  0  0
    0.4515   -1.0435   -0.5623 C   0  0  2  0  0  0  0  0  0  0  0  0
    1.0664    0.2036    0.0912 C   0  0  0  0  0  0  0  0  0  0  0  0
    0.2626    0.9736    0.8519 O   0  0  0  0  0  0  0  0  0  0  0  0
    2.2557    0.4877   -0.0688 O   0  0  0  0  0  0  0  0  0  0  0  0
    0.8750   -2.3460    0.0992 C   0  0  0  0  0  0  0  0  0  0  0  0
    1.4122   -2.3446    1.3972 C   0  0  0  0  0  0  0  0  0  0  0  0
    1.6613   -3.5325    2.0793 C   0  0  0  0  0  0  0  0  0  0  0  0
    1.3657   -4.7505    1.4802 C   0  0  0  0  0  0  0  0  0  0  0  0
    0.8589   -4.7802    0.1819 C   0  0  0  0  0  0  0  0  0  0  0  0
    0.6562   -3.5881   -0.5232 C   0  0  0  0  0  0  0  0  0  0  0  0
  2  6  1  0
  2  3  1  0
  2  1  1  6
  3  4  1  0
  3  5  2  0
  6  7  2  0
  6 11  1  0
  7  8  1  0
  8  9  2  0
  9 10  1  0
 10 11  2  0
M  END
>  <DRUGBANK_ID>  (1) 
DB03357

>  <SECONDARY_ACCESSION_NUMBERS>  (1) 
EXPT02923

>  <COMMON_NAME>  (1) 
(S)-Mandelic acid

>  <CAS_NUMBER>  (1) 
17199-29-0

>  <UNII>  (1) 
L0UMW58G3T

>  <SYNONYMS>  (1) 
(S)-2-Hydroxy-2-phenylacetic acid; (S)-Mandelsäure; (S)-α-hydroxybenzeneacetic acid; L-mandelic acid

$$$$
