LEG
     RDKit          3D

 16 16  0  0  0  0  0  0  0  0999 V2000
    0.9500    0.0144    0.1753 C   0  0  0  0  0  0  0  0  0  0  0  0
    0.4958    1.1882   -0.6785 C   0  0  0  0  0  0  0  0  0  0  0  0
    0.9733    1.0292   -2.1209 C   0  0  0  0  0  0  0  0  0  0  0  0
    0.4228   -0.2460   -2.7678 C   0  0  0  0  0  0  0  0  0  0  0  0
   -1.1199   -0.2978   -2.7643 C   0  0  0  0  0  0  0  0  0  0  0  0
   -1.7362    0.8240   -3.6005 C   0  0  0  0  0  0  0  0  0  0  0  0
   -1.2441    0.7464   -5.0199 C   0  0  0  0  0  0  0  0  0  0  0  0
   -1.0611   -0.4712   -5.6971 C   0  0  0  0  0  0  0  0  0  0  0  0
   -0.3932   -0.5156   -6.9226 C   0  0  0  0  0  0  0  0  0  0  0  0
   -0.7909    1.9147   -5.6030 C   0  0  0  0  0  0  0  0  0  0  0  0
   -0.1094    1.8515   -6.8053 C   0  0  0  0  0  0  0  0  0  0  0  0
    0.0250    0.6700   -7.5330 C   0  0  0  0  0  0  0  0  0  0  0  0
    0.5505    0.6014   -8.9297 C   0  0  0  0  0  0  0  0  0  0  0  0
    0.6954   -0.4936   -9.4631 O   0  0  0  0  0  0  0  0  0  0  0  0
    0.8684    1.8168   -9.7531 C   0  0  0  0  0  0  0  0  0  0  0  0
    0.7211    3.1251   -9.5174 C   0  0  0  0  0  0  0  0  0  0  0  0
  1  2  1  0
  2  3  1  0
  3  4  1  0
  4  5  1  0
  5  6  1  0
  6  7  1  0
  7 10  2  0
  7  8  1  0
  8  9  2  0
  9 12  1  0
 10 11  1  0
 11 12  2  0
 12 13  1  0
 13 14  2  0
 13 15  1  0
 15 16  2  0
M  END
>  <DRUGBANK_ID>  (1) 
DB08085

>  <COMMON_NAME>  (1) 
1-(4-HEXYLPHENYL)PROP-2-EN-1-ONE

>  <UNII>  (1) 
MA965OF9ZR

$$$$
