
     RDKit          3D

 34 36  0  0  0  0  0  0  0  0999 V2000
    1.1072    0.0453    0.1174 C   0  0  0  0  0  0  0  0  0  0  0  0
    0.6149    1.4303    0.4521 C   0  0  0  0  0  0  0  0  0  0  0  0
   -0.2348    2.0412   -0.3800 C   0  0  0  0  0  0  0  0  0  0  0  0
   -0.7468    3.4496   -0.3590 C   0  0  0  0  0  0  0  0  0  0  0  0
   -0.1678    4.2924   -1.5062 C   0  0  0  0  0  0  0  0  0  0  0  0
   -0.6071    3.8386   -2.8926 C   0  0  0  0  0  0  0  0  0  0  0  0
   -1.3155    4.6799   -3.6507 C   0  0  0  0  0  0  0  0  0  0  0  0
   -2.0020    4.3930   -4.9529 C   0  0  0  0  0  0  0  0  0  0  0  0
   -3.5312    4.4089   -4.8393 C   0  0  0  0  0  0  0  0  0  0  0  0
   -4.1028    5.7833   -4.5634 C   0  0  0  0  0  0  0  0  0  0  0  0
   -4.8410    6.3996   -5.5000 C   0  0  0  0  0  0  0  0  0  0  0  0
   -5.3561    7.7949   -5.3844 C   0  0  0  0  0  0  0  0  0  0  0  0
   -4.7434    8.6176   -6.4010 N   0  0  0  0  0  0  0  0  0  0  0  0
   -5.4949    8.9077   -7.5412 C   0  0  0  0  0  0  0  0  0  0  0  0
   -5.5294    7.9497   -8.5513 C   0  0  0  0  0  0  0  0  0  0  0  0
   -6.1565    8.2505   -9.7428 C   0  0  0  0  0  0  0  0  0  0  0  0
   -6.7556    9.4942   -9.9319 C   0  0  0  0  0  0  0  0  0  0  0  0
   -6.7502   10.4288   -8.8821 C   0  0  0  0  0  0  0  0  0  0  0  0
   -6.1381   10.1381   -7.6559 C   0  0  0  0  0  0  0  0  0  0  0  0
   -6.0413   11.0652   -6.5981 N   0  0  0  0  0  0  0  0  0  0  0  0
   -4.7998   11.5919   -6.1607 C   0  0  0  0  0  0  0  0  0  0  0  0
   -3.6341   10.8159   -6.0062 C   0  0  0  0  0  0  0  0  0  0  0  0
   -2.4299   11.4405   -5.6190 C   0  0  0  0  0  0  0  0  0  0  0  0
   -2.3583   12.8189   -5.4240 C   0  0  0  0  0  0  0  0  0  0  0  0
   -3.4937   13.6006   -5.6075 C   0  0  0  0  0  0  0  0  0  0  0  0
   -4.6978   12.9873   -5.9609 C   0  0  0  0  0  0  0  0  0  0  0  0
   -5.8235   13.7528   -6.1523 O   0  0  0  0  0  0  0  0  0  0  0  0
   -3.5905    9.3258   -6.1258 C   0  0  0  0  0  0  0  0  0  0  0  0
   -2.5159    8.7362   -5.9269 O   0  0  0  0  0  0  0  0  0  0  0  0
   -7.3223   11.6629   -9.0507 O   0  0  0  0  0  0  0  0  0  0  0  0
   -6.1264    7.2858  -10.7044 O   0  0  0  0  0  0  0  0  0  0  0  0
   -3.7868    6.4392   -3.2455 C   0  0  0  0  0  0  0  0  0  0  0  0
   -0.2285    2.4899   -3.4131 C   0  0  0  0  0  0  0  0  0  0  0  0
    1.0844    2.0551    1.7211 C   0  0  0  0  0  0  0  0  0  0  0  0
  1  2  1  0
  2  3  2  3
  2 34  1  0
  3  4  1  0
  4  5  1  0
  5  6  1  0
  6  7  2  0
  6 33  1  0
  7  8  1  0
  8  9  1  0
  9 10  1  0
 10 11  2  0
 10 32  1  0
 11 12  1  0
 12 13  1  0
 13 14  1  0
 13 28  1  0
 14 15  2  0
 14 19  1  0
 15 16  1  0
 16 17  2  0
 16 31  1  0
 17 18  1  0
 18 19  2  0
 18 30  1  0
 19 20  1  0
 20 21  1  0
 21 22  2  0
 21 26  1  0
 22 23  1  0
 22 28  1  0
 23 24  2  0
 24 25  1  0
 25 26  2  0
 26 27  1  0
 28 29  2  0
M  END
>  <DRUGBANK_ID>  (1) 
DB12420

>  <SECONDARY_ACCESSION_NUMBERS>  (1) 
DB05923

>  <COMMON_NAME>  (1) 
Diazepinomicin

>  <CAS_NUMBER>  (1) 
733035-26-2

>  <UNII>  (1) 
YPH994Y0RF

>  <SYNONYMS>  (1) 
4,6,8-trihydroxy-10-(3,7,11-trimethyldodeca-2,6,10-trienyl)-5,10-dihydrodibenzo(b,e)(1,4)diazepin-11-one; DIAZEPINOMICIN

$$$$
