NNN
     RDKit          3D

 26 28  0  0  0  0  0  0  0  0999 V2000
    2.8976   -3.0927   -2.5134 O   0  0  0  0  0  0  0  0  0  0  0  0
    2.5595   -2.1052   -1.5426 C   0  0  0  0  0  0  0  0  0  0  0  0
    1.0258   -1.9277   -1.4081 C   0  0  1  0  0  0  0  0  0  0  0  0
    0.6237   -1.4662    0.0110 C   0  0  0  0  0  0  0  0  0  0  0  0
    1.6864   -0.5847    0.6652 C   0  0  0  0  0  0  0  0  0  0  0  0
    0.5419   -1.0336   -2.4777 N   0  0  0  0  0  0  0  0  0  0  0  0
   -0.2683    0.0657   -2.2982 C   0  0  0  0  0  0  0  0  0  0  0  0
    0.1293    0.9666   -1.3349 N   0  0  0  0  0  0  0  0  0  0  0  0
   -0.6141    2.0005   -1.0345 C   0  0  0  0  0  0  0  0  0  0  0  0
   -1.7920    2.1717   -1.7608 N   0  0  0  0  0  0  0  0  0  0  0  0
   -2.6701    3.1823   -1.5876 N   0  0  0  0  0  0  0  0  0  0  0  0
   -3.5984    2.9540   -2.5059 C   0  0  0  0  0  0  0  0  0  0  0  0
   -3.3292    1.7897   -3.2541 C   0  0  0  0  0  0  0  0  0  0  0  0
   -4.1648    1.2433   -4.3523 C   0  0  0  0  0  0  0  0  0  0  0  0
   -3.3652    1.2119   -5.6506 C   0  0  0  0  0  0  0  0  0  0  0  0
   -4.6982   -0.1356   -3.9767 C   0  0  0  0  0  0  0  0  0  0  0  0
   -2.1375    1.2982   -2.7512 C   0  0  0  0  0  0  0  0  0  0  0  0
   -1.3398    0.2187   -3.0293 N   0  0  0  0  0  0  0  0  0  0  0  0
   -0.2011    2.8428   -0.0324 N   0  0  0  0  0  0  0  0  0  0  0  0
   -0.8600    4.0176    0.4881 C   0  0  0  0  0  0  0  0  0  0  0  0
   -1.2810    3.8589    1.9278 C   0  0  0  0  0  0  0  0  0  0  0  0
   -1.4604    2.6052    2.5288 C   0  0  0  0  0  0  0  0  0  0  0  0
   -1.8777    2.5091    3.8550 C   0  0  0  0  0  0  0  0  0  0  0  0
   -2.1470    3.6634    4.5869 C   0  0  0  0  0  0  0  0  0  0  0  0
   -2.0189    4.9151    3.9892 C   0  0  0  0  0  0  0  0  0  0  0  0
   -1.5955    5.0126    2.6647 C   0  0  0  0  0  0  0  0  0  0  0  0
  1  2  1  0
  3  6  1  0
  3  4  1  1
  3  2  1  0
  4  5  1  0
  7  6  1  0
  7 18  2  0
  8  7  1  0
  9  8  2  0
  9 10  1  0
 10 17  1  0
 11 10  1  0
 11 12  2  0
 12 13  1  0
 13 17  2  0
 13 14  1  0
 14 15  1  0
 16 14  1  0
 17 18  1  0
 19  9  1  0
 19 20  1  0
 21 20  1  0
 21 26  1  0
 22 21  2  0
 23 22  1  0
 23 24  2  0
 24 25  1  0
 25 26  2  0
M  END
>  <DRUGBANK_ID>  (1) 
DB08285

>  <COMMON_NAME>  (1) 
(2R)-2-{[4-(benzylamino)-8-(1-methylethyl)pyrazolo[1,5-a][1,3,5]triazin-2-yl]amino}butan-1-ol

$$$$
