
     RDKit          3D

  8  8  0  0  1  0  0  0  0  0999 V2000
   -1.6462    3.0287    0.0056 O   0  0  0  0  0  0  0  0  0  0  0  0
   -1.9520    2.7325    2.1907 O   0  0  0  0  0  0  0  0  0  0  0  0
   -1.8456    0.2490   -0.4223 N   0  0  0  0  0  0  0  0  0  0  0  0
   -1.2810    0.7832    0.8443 C   0  0  2  0  0  0  0  0  0  0  0  0
   -3.1801   -0.2792   -0.1033 C   0  0  0  0  0  0  0  0  0  0  0  0
   -1.8470   -0.1626    1.8907 C   0  0  0  0  0  0  0  0  0  0  0  0
   -3.2684   -0.3909    1.4108 C   0  0  0  0  0  0  0  0  0  0  0  0
   -1.6845    2.2422    1.1018 C   0  0  0  0  0  0  0  0  0  0  0  0
  1  8  1  0
  2  8  2  0
  3  4  1  0
  3  5  1  0
  4  6  1  0
  4  8  1  1
  5  7  1  0
  6  7  1  0
M  END
>  <DRUGBANK_ID>  (1) 
DB02853

>  <SECONDARY_ACCESSION_NUMBERS>  (1) 
EXPT01259

>  <COMMON_NAME>  (1) 
D-Proline

>  <CAS_NUMBER>  (1) 
344-25-2

>  <UNII>  (1) 
L01Q4LGZ5L

>  <SYNONYMS>  (1) 
(2R)-pyrrolidine-2-carboxylic acid; (R)-2-Carboxypyrrolidine; (R)-pyrrolidine-2-carboxylic acid; D-Prolin; DPR

$$$$
