
     RDKit          3D

 34 37  0  0  1  0  0  0  0  0999 V2000
    0.0375   -0.3108    0.4269 C   0  0  0  0  0  0  0  0  0  0  0  0
   -1.5895   -0.7597    0.9337 C   0  0  0  0  0  0  0  0  0  0  0  0
   -2.1377    0.6042    0.9339 C   0  0  0  0  0  0  0  0  0  0  0  0
   -2.0576    1.1273   -0.4351 C   0  0  0  0  0  0  0  0  0  0  0  0
   -0.7822    1.4971   -0.6530 C   0  0  0  0  0  0  0  0  0  0  0  0
    0.2607    1.3814    0.4636 C   0  0  2  0  0  0  0  0  0  0  0  0
    0.9662    2.8975    0.1784 C   0  0  2  0  0  0  0  0  0  0  0  0
   -0.1821    1.6124   -2.0592 C   0  0  0  0  0  0  0  0  0  0  0  0
    0.2978    3.0896   -2.2588 C   0  0  0  0  0  0  0  0  0  0  0  0
    1.5340    3.3882   -1.2753 C   0  0  1  0  0  0  0  0  0  0  0  0
    2.0803    4.8279    1.2010 C   0  0  0  0  0  0  0  0  0  0  0  0
    1.8969    3.3739    1.3101 C   0  0  2  0  0  0  0  0  0  0  0  0
    2.6662    4.8953   -1.5103 C   0  0  1  0  0  0  0  0  0  0  0  0
    2.6234    5.1415   -0.1035 C   0  0  1  0  0  0  0  0  0  0  0  0
    2.4307    6.8505   -0.5366 C   0  0  2  0  0  0  0  0  0  0  0  0
    4.1311    6.0119   -0.5587 C   0  0  0  0  0  0  0  0  0  0  0  0
    3.5895    7.2133    0.2128 C   0  0  0  0  0  0  0  0  0  0  0  0
   -2.2545    1.2735    1.9525 O   0  0  0  0  0  0  0  0  0  0  0  0
    0.3759    1.4512    2.0210 C   0  0  0  0  0  0  0  0  0  0  0  0
    4.0282    3.8956   -0.5760 C   0  0  0  0  0  0  0  0  0  0  0  0
    3.0893    2.6231    1.3172 O   0  0  0  0  0  0  0  0  0  0  0  0
    1.0964    7.4841   -0.2367 C   0  0  0  0  0  0  0  0  0  0  0  0
    0.2373    6.9624    0.4535 O   0  0  0  0  0  0  0  0  0  0  0  0
    0.8333    8.8122   -0.9256 C   0  0  0  0  0  0  0  0  0  0  0  0
    1.6462    9.9104   -0.5241 O   0  0  0  0  0  0  0  0  0  0  0  0
    1.5522   10.2124    0.8015 C   0  0  0  0  0  0  0  0  0  0  0  0
    0.9082    9.5625    1.6158 O   0  0  0  0  0  0  0  0  0  0  0  0
    2.3490   11.4475    1.1965 C   0  0  0  0  0  0  0  0  0  0  0  0
    3.8133   11.2895    1.0461 N   0  0  0  0  0  0  0  0  0  0  0  0
    4.5381   12.5241    1.3878 C   0  0  0  0  0  0  0  0  0  0  0  0
    4.4259   12.9920    2.8366 C   0  0  0  0  0  0  0  0  0  0  0  0
    4.3323   10.1172    1.7602 C   0  0  0  0  0  0  0  0  0  0  0  0
    4.1603   10.0075    3.2649 C   0  0  0  0  0  0  0  0  0  0  0  0
    2.7623    7.2355   -1.9633 O   0  0  0  0  0  0  0  0  0  0  0  0
  1  2  1  0
  1  6  1  0
  2  3  1  0
  3  4  1  0
  3 18  2  0
  4  5  2  0
  5  8  1  0
  6  5  1  0
  6 19  1  1
  7  6  1  0
  7 10  1  0
  8  9  1  0
 10  9  1  6
 10 13  1  0
 11 12  1  0
 11 14  1  0
  7 12  1  1
 12 21  1  6
 13 16  1  6
 14 13  1  0
 14 20  1  1
 15 14  1  0
 15 17  1  0
 15 34  1  6
 15 22  1  0
 16 17  1  0
 22 23  2  0
 22 24  1  0
 24 25  1  0
 25 26  1  0
 26 27  2  0
 26 28  1  0
 28 29  1  0
 29 30  1  0
 29 32  1  0
 30 31  1  0
 32 33  1  0
M  END
>  <DRUGBANK_ID>  (1) 
DB00769

>  <SECONDARY_ACCESSION_NUMBERS>  (1) 
APRD01018

>  <COMMON_NAME>  (1) 
Hydrocortamate

>  <CAS_NUMBER>  (1) 
76-47-1

>  <UNII>  (1) 
Y3N00BK5WK

>  <SYNONYMS>  (1) 
17-Hydroxycorticosterone, 21-(diethylamino)acetate; Hidrocortamato; Hydrocortamate; Hydrocortamatum

$$$$
