DZE
     RDKit          3D

 17 16  0  0  0  0  0  0  0  0999 V2000
    1.1019    0.0394   -0.0480 C   0  0  0  0  0  0  0  0  0  0  0  0
    0.5482    0.5912   -1.3681 C   0  0  0  0  0  0  0  0  0  0  0  0
    1.0971   -0.0685   -2.6371 C   0  0  0  0  0  0  0  0  0  0  0  0
    0.9716    2.0738   -1.4395 C   0  0  0  0  0  0  0  0  0  0  0  0
   -0.9056    0.5165   -1.3629 O   0  0  0  0  0  0  0  0  0  0  0  0
   -1.6597   -0.6236   -1.2968 C   0  0  0  0  0  0  0  0  0  0  0  0
   -2.8876   -0.5606   -1.3158 O   0  0  0  0  0  0  0  0  0  0  0  0
   -0.9863   -1.8160   -1.2276 N   0  0  0  0  0  0  0  0  0  0  0  0
   -1.6075   -3.1266   -1.1759 C   0  0  2  0  0  0  0  0  0  0  0  0
   -1.2736   -3.8367    0.1525 C   0  0  0  0  0  0  0  0  0  0  0  0
    0.1627   -4.1879    0.4793 C   0  0  0  0  0  0  0  0  0  0  0  0
   -2.1730   -4.1904    0.9193 O   0  0  0  0  0  0  0  0  0  0  0  0
   -1.2476   -3.9820   -2.3980 C   0  0  0  0  0  0  0  0  0  0  0  0
    0.2347   -4.2765   -2.4895 C   0  0  0  0  0  0  0  0  0  0  0  0
    0.6536   -5.5613   -2.5009 O   0  0  0  0  0  0  0  0  0  0  0  0
   -0.2352   -6.6686   -2.3110 C   0  0  0  0  0  0  0  0  0  0  0  0
    1.0655   -3.3709   -2.4712 O   0  0  0  0  0  0  0  0  0  0  0  0
  1  2  1  0
  2  3  1  0
  2  5  1  0
  4  2  1  0
  5  6  1  0
  6  8  1  0
  7  6  2  0
  9  8  1  0
  9 13  1  6
  9 10  1  0
 10 12  2  0
 11 10  1  0
 14 13  1  0
 14 15  1  0
 15 16  1  0
 17 14  2  0
M  END
>  <DRUGBANK_ID>  (1) 
DB07696

>  <COMMON_NAME>  (1) 
methyl (3S)-3-[(tert-butoxycarbonyl)amino]-4-oxopentanoate

$$$$
