
     RDKit          3D

 20 20  0  0  0  0  0  0  0  0999 V2000
    3.6452   -1.4184   -0.5334 O   0  0  0  0  0  0  0  0  0  0  0  0
    5.2578    0.8613    0.2500 O   0  0  0  0  0  0  0  0  0  0  0  0
   -0.5210   -1.4993   -0.2953 O   0  0  0  0  0  0  0  0  0  0  0  0
    2.1725    2.7632   -0.5849 O   0  0  0  0  0  0  0  0  0  0  0  0
   -1.1235    2.1748    0.2378 O   0  0  0  0  0  0  0  0  0  0  0  0
    2.7980   -4.9156   -1.3202 O   0  0  0  0  0  0  0  0  0  0  0  0
    4.7579   -3.8384   -1.3869 O   0  0  0  0  0  0  0  0  0  0  0  0
    0.8038    0.9769    0.2716 N   0  0  0  0  0  0  0  0  0  0  0  0
    3.7056    4.8366   -0.1864 N   0  0  0  0  0  0  0  0  0  0  0  0
    3.0742   -0.2234    0.1022 C   0  0  2  0  0  0  0  0  0  0  0  0
    1.5837   -0.1200   -0.2658 C   0  0  1  0  0  0  0  0  0  0  0  0
    3.9589    1.0013   -0.3577 C   0  0  1  0  0  0  0  0  0  0  0  0
    0.8514   -1.4258    0.0929 C   0  0  2  0  0  0  0  0  0  0  0  0
    3.4393    2.4276   -0.0234 C   0  0  1  0  0  0  0  0  0  0  0  0
    1.5363   -2.5642   -0.5273 C   0  0  0  0  0  0  0  0  0  0  0  0
    2.8559   -2.5490   -0.7492 C   0  0  0  0  0  0  0  0  0  0  0  0
    4.3101    3.5539   -0.5936 C   0  0  0  0  0  0  0  0  0  0  0  0
   -0.3723    1.4032   -0.3226 C   0  0  0  0  0  0  0  0  0  0  0  0
    3.5596   -3.8013   -1.1935 C   0  0  0  0  0  0  0  0  0  0  0  0
   -0.5596    0.9478   -1.7643 C   0  0  0  0  0  0  0  0  0  0  0  0
 10  1  1  6
  1 16  1  0
  5 18  2  0
  6 19  1  0
  7 19  2  0
  8 18  1  0
  9 17  1  0
 10 11  1  0
 11 13  1  0
 11  8  1  1
 12 10  1  0
 12  2  1  1
 13  3  1  6
 13 15  1  0
 14 17  1  0
 14 12  1  0
 14  4  1  6
 15 16  2  0
 16 19  1  0
 18 20  1  0
M  END
>  <DRUGBANK_ID>  (1) 
DB04227

>  <SECONDARY_ACCESSION_NUMBERS>  (1) 
EXPT00352

>  <COMMON_NAME>  (1) 
9-Amino-2-deoxy-2,3-dehydro-n-acetyl-neuraminic acid

>  <SYNONYMS>  (1) 
(6R)-5-Acetamido-6-[(1R,2R)-3-amino-1,2-dihydroxypropyl]-2,6-anhydro-3,5-dideoxy-L-threo-hex-2-enonic acid

$$$$
