
     RDKit          3D

  7  6  0  0  0  0  0  0  0  0999 V2000
    0.9492   -0.0810    0.0294 C   0  0  0  0  0  0  0  0  0  0  0  0
    0.4426    1.1436    0.7738 C   0  0  0  0  0  0  0  0  0  0  0  0
    0.9492    2.4005    0.0856 C   0  0  0  0  0  0  0  0  0  0  0  0
    0.4426    2.4330   -1.3471 C   0  0  0  0  0  0  0  0  0  0  0  0
   -1.1574    2.4330   -1.3471 B   0  0  0  0  0  0  0  0  0  0  0  0
   -1.9074    3.5724   -1.9710 O   0  0  0  0  0  0  0  0  0  0  0  0
   -1.9074    1.2936   -0.7232 O   0  0  0  0  0  0  0  0  0  0  0  0
  1  2  1  0
  2  3  1  0
  3  4  1  0
  4  5  1  0
  5  6  1  0
  5  7  1  0
M  END
>  <DRUGBANK_ID>  (1) 
DB02664

>  <SECONDARY_ACCESSION_NUMBERS>  (1) 
EXPT00775

>  <COMMON_NAME>  (1) 
1-Butane Boronic Acid

$$$$
