
     RDKit          3D

 21 19  0  0  0  0  0  0  0  0999 V2000
    1.1601   -0.1236   -0.2557 O   0  0  0  0  0  0  0  0  0  0  0  0
    0.2176   -1.0507   -0.8743 C   0  0  0  0  0  0  0  0  0  0  0  0
    0.4000   -1.1299   -2.3961 C   0  0  0  0  0  0  0  0  0  0  0  0
    1.8443   -1.3926   -2.7799 C   0  0  0  0  0  0  0  0  0  0  0  0
    2.2100   -2.7203   -2.1334 C   0  0  0  0  0  0  0  0  0  0  0  0
    1.5505   -3.9745   -2.5799 C   0  0  0  0  0  0  0  0  0  0  0  0
    2.0399   -4.0903   -3.9928 C   0  0  0  0  0  0  0  0  0  0  0  0
    3.5776   -4.2715   -3.9981 C   0  0  0  0  0  0  0  0  0  0  0  0
    3.9576   -5.5505   -3.2446 C   0  0  0  0  0  0  0  0  0  0  0  0
    3.2093   -6.7244   -3.8760 C   0  0  0  0  0  0  0  0  0  0  0  0
    3.5661   -6.8290   -5.3643 C   0  0  0  0  0  0  0  0  0  0  0  0
    5.0688   -7.0400   -5.5494 C   0  0  0  0  0  0  0  0  0  0  0  0
    5.4994   -8.3228   -4.8596 C   0  0  0  0  0  0  0  0  0  0  0  0
    2.4751   -0.1909    0.0835 C   0  0  0  0  0  0  0  0  0  0  0  0
    2.8801    0.8639    0.5918 O   0  0  0  0  0  0  0  0  0  0  0  0
    3.4253   -1.3192   -0.1068 C   0  0  0  0  0  0  0  0  0  0  0  0
    3.0748   -2.8172    0.8471 S   0  0  0  0  0  0  0  0  0  0  0  0
    1.6366   -3.0633    0.8214 O   0  0  0  0  0  0  0  0  0  0  0  0
    3.8758   -3.8344    0.1977 O   0  0  0  0  0  0  0  0  0  0  0  0
    3.4975   -2.4132    2.1958 O   0  0  0  0  0  0  0  0  0  0  0  0
    0.9220    0.7092    1.9470 Na  0  0  0  0  0 15  0  0  0  0  0  0
  1  2  1  0
  1 14  1  0
  2  3  1  0
  3  4  1  0
  4  5  1  0
  5  6  1  0
  6  7  1  0
  7  8  1  0
  8  9  1  0
  9 10  1  0
 10 11  1  0
 11 12  1  0
 12 13  1  0
 14 15  2  0
 14 16  1  0
 16 17  1  0
 17 18  2  0
 17 19  2  0
 17 20  1  0
M  CHG  2  20  -1  21   1
M  END
>  <DRUGBANK_ID>  (1) 
DB13157

>  <COMMON_NAME>  (1) 
Sodium lauryl sulfoacetate

>  <CAS_NUMBER>  (1) 
1847-58-1

>  <UNII>  (1) 
D0Y70F2B9J

>  <SYNONYMS>  (1) 
Lathanol; Lathanol LAL; Sulfoacetic acid dodecyl ester S-sodium salt

$$$$
