
     RDKit          3D

 26 29  0  0  0  0  0  0  0  0999 V2000
   -2.6352    1.5095   -0.3738 C   0  0  0  0  0  0  0  0  0  0  0  0
   -1.2316    1.6520   -0.2878 C   0  0  0  0  0  0  0  0  0  0  0  0
   -0.4379    0.5507    0.0797 C   0  0  0  0  0  0  0  0  0  0  0  0
   -1.0805   -0.6516    0.4338 C   0  0  0  0  0  0  0  0  0  0  0  0
   -2.4772   -0.7844    0.3555 C   0  0  0  0  0  0  0  0  0  0  0  0
   -3.2531    0.2931   -0.0677 C   0  0  0  0  0  0  0  0  0  0  0  0
   -3.2900   -2.2737    0.6954 Cl  0  0  0  0  0  0  0  0  0  0  0  0
   -0.2893   -1.7924    0.9295 C   0  0  0  0  0  0  0  0  0  0  0  0
    0.5105   -2.4226   -0.0045 N   0  0  0  0  0  0  0  0  0  0  0  0
    1.1405   -1.6738   -1.0798 C   0  0  0  0  0  0  0  0  0  0  0  0
    1.7874   -0.4914   -0.4509 C   0  0  0  0  0  0  0  0  0  0  0  0
    0.9982    0.5574    0.0251 N   0  0  0  0  0  0  0  0  0  0  0  0
    1.8777    1.5241    0.4469 C   0  0  0  0  0  0  0  0  0  0  0  0
    3.1414    1.1323    0.3351 N   0  0  0  0  0  0  0  0  0  0  0  0
    3.1205   -0.1532   -0.2073 C   0  0  0  0  0  0  0  0  0  0  0  0
    4.3777   -0.8989   -0.6505 C   0  0  0  0  0  0  0  0  0  0  0  0
    4.5385   -1.2464   -1.9394 N   0  0  0  0  0  0  0  0  0  0  0  0
    5.7496   -1.9333   -1.9717 O   0  0  0  0  0  0  0  0  0  0  0  0
    6.2427   -1.9865   -0.6920 C   0  0  0  0  0  0  0  0  0  0  0  0
    5.4244   -1.3719    0.1663 N   0  0  0  0  0  0  0  0  0  0  0  0
    7.6009   -2.7407   -0.5812 C   0  0  0  0  0  0  0  0  0  0  0  0
    8.7622   -1.9459   -0.0897 N   0  0  0  0  0  0  0  0  0  0  0  0
   10.0016   -2.7380    0.0358 C   0  0  0  0  0  0  0  0  0  0  0  0
    9.0279   -0.8253   -0.9935 C   0  0  0  0  0  0  0  0  0  0  0  0
    0.6591   -3.8626    0.0375 C   0  0  0  0  0  0  0  0  0  0  0  0
   -0.3885   -2.1234    2.1119 O   0  0  0  0  0  0  0  0  0  0  0  0
  1  6  2  0
  2  1  1  0
  3  2  2  0
  3 12  1  0
  4  3  1  0
  4  8  1  0
  5  4  2  0
  5  7  1  0
  6  5  1  0
  8  9  1  0
  8 26  2  0
  9 25  1  0
 10  9  1  0
 11 10  1  0
 11 15  2  0
 12 11  1  0
 12 13  1  0
 14 13  2  0
 15 14  1  0
 15 16  1  0
 17 16  2  0
 17 18  1  0
 18 19  1  0
 19 20  2  0
 19 21  1  0
 20 16  1  0
 21 22  1  0
 22 23  1  0
 22 24  1  0
M  END
>  <DRUGBANK_ID>  (1) 
DB05721

>  <COMMON_NAME>  (1) 
EVT 201

>  <CAS_NUMBER>  (1) 
308239-86-3

>  <UNII>  (1) 
6J8AF7CLE4

$$$$
