BAP
     RDKit          3D

 23 27  0  0  0  0  0  0  0  0999 V2000
   -4.0193   -0.6731    0.0023 C   0  0  0  0  0  0  0  0  0  0  0  0
   -4.4442    0.6554    0.0183 C   0  0  0  0  0  0  0  0  0  0  0  0
   -3.5110    1.6888    0.0259 C   0  0  0  0  0  0  0  0  0  0  0  0
   -2.1451    1.4022    0.0179 C   0  0  0  0  0  0  0  0  0  0  0  0
   -1.2085    2.4344    0.0299 C   0  0  0  0  0  0  0  0  0  0  0  0
    0.1494    2.1420    0.0248 C   0  0  0  0  0  0  0  0  0  0  0  0
    0.6252    0.8167   -0.0087 C   0  0  0  0  0  0  0  0  0  0  0  0
    2.0043    0.5052   -0.0347 C   0  0  0  0  0  0  0  0  0  0  0  0
    2.4259   -0.8453   -0.0406 C   0  0  0  0  0  0  0  0  0  0  0  0
    1.4699   -1.8727   -0.0482 C   0  0  0  0  0  0  0  0  0  0  0  0
    0.1035   -1.5850   -0.0330 C   0  0  0  0  0  0  0  0  0  0  0  0
   -0.8491   -2.6143   -0.0339 C   0  0  0  0  0  0  0  0  0  0  0  0
   -2.2120   -2.3186   -0.0233 C   0  0  0  0  0  0  0  0  0  0  0  0
   -2.6554   -0.9903   -0.0070 C   0  0  0  0  0  0  0  0  0  0  0  0
   -1.7048    0.0586   -0.0002 C   0  0  0  0  0  0  0  0  0  0  0  0
   -0.3227   -0.2374   -0.0145 C   0  0  0  0  0  0  0  0  0  0  0  0
    3.8946   -1.2319   -0.0295 C   0  0  1  0  0  0  0  0  0  0  0  0
    4.2857   -1.6332   -1.3446 O   0  0  0  0  0  0  0  0  0  0  0  0
    4.7880   -0.0794    0.4652 C   0  0  2  0  0  0  0  0  0  0  0  0
    4.5824    0.0893    1.8789 O   0  0  0  0  0  0  0  0  0  0  0  0
    4.4297    1.1827   -0.3326 C   0  0  2  0  0  0  0  0  0  0  0  0
    5.3616    2.2394   -0.1044 O   0  0  0  0  0  0  0  0  0  0  0  0
    3.0195    1.6298    0.0187 C   0  0  0  0  0  0  0  0  0  0  0  0
  1  2  2  0
  1 14  1  0
  2  3  1  0
  3  4  2  0
  4  5  1  0
  4 15  1  0
  5  6  2  0
  6  7  1  0
  7  8  2  0
  7 16  1  0
  8  9  1  0
  8 23  1  0
  9 10  2  0
  9 17  1  0
 10 11  1  0
 11 12  2  0
 11 16  1  0
 12 13  1  0
 13 14  2  0
 14 15  1  0
 15 16  2  0
 17 18  1  6
 17 19  1  0
 19 21  1  0
 19 20  1  1
 21 22  1  1
 21 23  1  0
M  END
>  <DRUGBANK_ID>  (1) 
DB07435

>  <COMMON_NAME>  (1) 
1,2,3-TRIHYDROXY-1,2,3,4-TETRAHYDROBENZO[A]PYRENE

$$$$
