
     RDKit          3D

 11 11  0  0  1  0  0  0  0  0999 V2000
    0.6164   -1.4606    0.2301 C   0  0  0  0  0  0  0  0  0  0  0  0
    0.8029    1.3053    0.1618 C   0  0  0  0  0  0  0  0  0  0  0  0
   -0.6568   -0.6885    0.3492 C   0  0  1  0  0  0  0  0  0  0  0  0
   -0.5295    0.7090   -0.2853 C   0  0  1  0  0  0  0  0  0  0  0  0
    1.8000   -0.8679   -0.0177 C   0  0  0  0  0  0  0  0  0  0  0  0
    3.0644   -1.6669   -0.1095 C   0  0  0  0  0  0  0  0  0  0  0  0
   -1.7150   -1.4417   -0.2345 O   0  0  0  0  0  0  0  0  0  0  0  0
   -1.6120    1.5730    0.0758 O   0  0  0  0  0  0  0  0  0  0  0  0
    4.1792   -1.2083   -0.3064 O   0  0  0  0  0  0  0  0  0  0  0  0
    2.8906   -2.9911    0.0634 O   0  0  0  0  0  0  0  0  0  0  0  0
    1.9309    0.5012   -0.1928 O   0  0  0  0  0  0  0  0  0  0  0  0
  3  1  1  0
  3  7  1  6
  4  2  1  0
  4  3  1  0
  4  8  1  1
  5  1  2  0
  6  5  1  0
  9  6  2  0
 10  6  1  0
 11  2  1  0
 11  5  1  0
M  END
>  <DRUGBANK_ID>  (1) 
DB03284

>  <SECONDARY_ACCESSION_NUMBERS>  (1) 
EXPT01544

>  <COMMON_NAME>  (1) 
2,6-Anhydro-3-Deoxy-D-Erythro-Hex-2-Enonic Acid

$$$$
