
     RDKit          3D

 27 29  0  0  0  0  0  0  0  0999 V2000
    0.9181   -0.0238    0.0689 C   0  0  0  0  0  0  0  0  0  0  0  0
    0.4332    0.1648   -1.3713 C   0  0  0  0  0  0  0  0  0  0  0  0
    0.9250   -0.9342   -2.3020 C   0  0  0  0  0  0  0  0  0  0  0  0
    0.2630   -1.5359    0.7819 S   0  0  0  0  0  0  0  0  0  0  0  0
    0.8115   -1.4363    2.3732 N   0  0  0  0  0  0  0  0  0  0  0  0
   -2.0968   -2.7586    4.4432 C   0  0  0  0  0  0  0  0  0  0  0  0
   -1.8365   -2.0146    5.5976 C   0  0  0  0  0  0  0  0  0  0  0  0
   -0.7331   -1.1703    5.6972 C   0  0  0  0  0  0  0  0  0  0  0  0
    0.1409   -1.0336    4.6280 C   0  0  0  0  0  0  0  0  0  0  0  0
   -0.1093   -1.7172    3.4411 C   0  0  0  0  0  0  0  0  0  0  0  0
   -1.1781   -2.6432    3.3880 C   0  0  0  0  0  0  0  0  0  0  0  0
   -6.7256   -2.5128    7.7178 N   0  0  0  0  0  0  0  0  0  0  0  0
   -6.7966   -1.1863    7.4179 C   0  0  0  0  0  0  0  0  0  0  0  0
   -5.8610   -3.1786    6.9246 C   0  0  0  0  0  0  0  0  0  0  0  0
   -5.0900   -2.6511    5.8928 C   0  0  0  0  0  0  0  0  0  0  0  0
   -6.0850   -0.5399    6.4148 C   0  0  0  0  0  0  0  0  0  0  0  0
   -5.2165   -1.2781    5.6216 C   0  0  0  0  0  0  0  0  0  0  0  0
   -5.5850   -4.5187    7.0049 N   0  0  0  0  0  0  0  0  0  0  0  0
   -4.6486   -4.8581    6.0591 C   0  0  0  0  0  0  0  0  0  0  0  0
   -4.2859   -3.7107    5.3715 C   0  0  0  0  0  0  0  0  0  0  0  0
   -3.2862   -3.6598    4.3083 C   0  0  0  0  0  0  0  0  0  0  0  0
   -3.4231   -4.3703    3.3191 O   0  0  0  0  0  0  0  0  0  0  0  0
   -6.2444    1.1498    6.1484 Cl  0  0  0  0  0  0  0  0  0  0  0  0
   -1.2955   -3.4368    2.3129 F   0  0  0  0  0  0  0  0  0  0  0  0
   -2.6090   -2.0865    6.6867 F   0  0  0  0  0  0  0  0  0  0  0  0
   -1.1799   -1.3895    0.7535 O   0  0  0  0  0  0  0  0  0  0  0  0
    0.9553   -2.6638    0.2094 O   0  0  0  0  0  0  0  0  0  0  0  0
  2  1  1  0
  3  2  1  0
  4  1  1  0
  5  4  1  0
  7  6  2  0
  8  7  1  0
  9  8  2  0
 10  5  1  0
 10  9  1  0
 11  6  1  0
 11 10  2  0
 13 12  2  0
 14 12  1  0
 15 14  2  0
 16 13  1  0
 17 15  1  0
 17 16  2  0
 18 14  1  0
 19 18  1  0
 20 15  1  0
 20 19  2  0
 21  6  1  0
 21 20  1  0
 22 21  2  0
 23 16  1  0
 24 11  1  0
 25  7  1  0
 26  4  2  0
 27  4  2  0
M  END
>  <DRUGBANK_ID>  (1) 
DB06999

>  <COMMON_NAME>  (1) 
PLX-4720

>  <CAS_NUMBER>  (1) 
918505-84-7

>  <UNII>  (1) 
EQY31RO8HA

>  <SYNONYMS>  (1) 
N-[3-(5-chloro-1H-pyrrolo[2,3-b]pyridine-3-carbonyl)-2,4-difluorophenyl]propane-1-sulfonamide

$$$$
