16A
     RDKit          3D

 20 19  0  0  0  0  0  0  0  0999 V2000
    1.0354    0.2121    0.0273 C   0  0  0  0  0  0  0  0  0  0  0  0
    0.6197    0.5184   -1.4024 C   0  0  0  0  0  0  0  0  0  0  0  0
    1.1118   -0.5711   -2.3562 C   0  0  0  0  0  0  0  0  0  0  0  0
    0.5349   -1.9442   -1.9969 C   0  0  0  0  0  0  0  0  0  0  0  0
   -0.9969   -1.9258   -2.0343 C   0  0  0  0  0  0  0  0  0  0  0  0
   -1.4914   -1.5857   -3.4429 C   0  0  0  0  0  0  0  0  0  0  0  0
   -0.9874   -2.6349   -4.4374 C   0  0  0  0  0  0  0  0  0  0  0  0
   -1.5058   -4.0187   -4.0301 C   0  0  0  0  0  0  0  0  0  0  0  0
   -3.0375   -4.0121   -4.0466 C   0  0  0  0  0  0  0  0  0  0  0  0
   -3.5159   -3.6511   -5.4550 C   0  0  0  0  0  0  0  0  0  0  0  0
   -2.9443   -4.6713   -6.4479 C   0  0  0  0  0  0  0  0  0  0  0  0
   -3.4645   -6.0659   -6.0923 C   0  0  0  0  0  0  0  0  0  0  0  0
   -4.9889   -6.0465   -6.1285 C   0  0  0  0  0  0  0  0  0  0  0  0
   -5.4354   -5.6387   -7.5341 C   0  0  0  0  0  0  0  0  0  0  0  0
   -5.1112   -6.7370   -8.5351 C   0  0  0  0  0  0  0  0  0  0  0  0
   -5.6577   -8.1138   -8.1437 C   0  0  0  0  0  0  0  0  0  0  0  0
   -7.1994   -8.1933   -8.1151 N   0  0  0  0  0  0  0  0  0  0  0  0
   -7.7263   -7.8502   -9.4962 C   0  0  0  0  0  0  0  0  0  0  0  0
   -7.5717   -9.6299   -7.7515 C   0  0  0  0  0  0  0  0  0  0  0  0
   -7.9054   -7.3354   -7.0643 C   0  0  0  0  0  0  0  0  0  0  0  0
  1  2  1  0
  2  3  1  0
  3  4  1  0
  4  5  1  0
  5  6  1  0
  6  7  1  0
  7  8  1  0
  8  9  1  0
  9 10  1  0
 10 11  1  0
 11 12  1  0
 12 13  1  0
 13 14  1  0
 14 15  1  0
 15 16  1  0
 16 17  1  0
 17 18  1  0
 17 19  1  0
 17 20  1  0
M  CHG  1  17   1
M  END
>  <DRUGBANK_ID>  (1) 
DB01718

>  <SECONDARY_ACCESSION_NUMBERS>  (1) 
EXPT00048; DB13159

>  <COMMON_NAME>  (1) 
Cetrimonium

>  <CAS_NUMBER>  (1) 
6899-10-1

>  <UNII>  (1) 
Z7FF1XKL7A

>  <SYNONYMS>  (1) 
Cetrimonium cation; Cetrimonium ion; Cetyl-Trimethyl-Ammonium; Cetyltrimethylammonium; Cetyltrimethylammonium cation; Cetyltrimethylammonium ion; Hexadecyltrimethylammonium; Hexadecyltrimethylammonium cation; Hexadecyltrimethylammonium ion; N,N,N-Trimethyl-1-hexadecanaminium; Trimethylhexadecylammonium

$$$$
