
     RDKit          3D

 12 13  0  0  0  0  0  0  0  0999 V2000
   -2.2530   -0.6199   -0.1676 C   0  0  0  0  0  0  0  0  0  0  0  0
   -2.1839    0.8669    0.1862 C   0  0  0  0  0  0  0  0  0  0  0  0
   -0.9434   -1.4188   -0.0089 C   0  0  0  0  0  0  0  0  0  0  0  0
    1.5481   -1.2534    0.0654 C   0  0  0  0  0  0  0  0  0  0  0  0
   -0.8732    1.5051   -0.2682 C   0  0  2  0  0  0  0  0  0  0  0  0
    2.4952   -0.1138   -0.3365 C   0  0  2  0  0  0  0  0  0  0  0  0
    0.2949    0.7257    0.3430 C   0  0  2  0  0  0  0  0  0  0  0  0
    1.7117    1.1970   -0.0563 C   0  0  2  0  0  0  0  0  0  0  0  0
    0.2563   -0.6330   -0.1914 N   0  0  0  0  0  0  0  0  0  0  0  0
   -0.8095    2.8783    0.0708 O   0  0  0  0  0  0  0  0  0  0  0  0
    2.8089   -0.2505   -1.7305 O   0  0  0  0  0  0  0  0  0  0  0  0
    1.7440    2.0622   -1.1885 O   0  0  0  0  0  0  0  0  0  0  0  0
  2  1  1  0
  3  1  1  0
  5  2  1  0
  5 10  1  1
  6  4  1  0
  6 11  1  6
  7  5  1  0
  8  6  1  0
  8  7  1  0
  8 12  1  6
  9  3  1  0
  9  4  1  0
  7  9  1  6
M  END
>  <DRUGBANK_ID>  (1) 
DB02034

>  <SECONDARY_ACCESSION_NUMBERS>  (1) 
EXPT02983; DB06425

>  <COMMON_NAME>  (1) 
Tridolgosir

>  <CAS_NUMBER>  (1) 
72741-87-8

>  <UNII>  (1) 
RSY4RK37KQ

>  <SYNONYMS>  (1) 
(1S,2R,8R,8AR)-octahydro-1,2,8-indolizinetriol; Swainosine; Tridolgosir

$$$$
