
     RDKit          3D

 13 13  0  0  0  0  0  0  0  0999 V2000
    1.3767    0.3406    0.9157 O   0  0  0  0  0  0  0  0  0  0  0  0
    0.7974    1.4208    0.1453 C   0  0  0  0  0  0  0  0  0  0  0  0
   -1.3605    0.1025   -0.2028 N   0  0  0  0  0  0  0  0  0  0  0  0
   -0.7308    1.3498    0.2922 C   0  0  0  0  0  0  0  0  0  0  0  0
   -0.6822   -1.0236    0.4645 C   0  0  0  0  0  0  0  0  0  0  0  0
    0.8656   -0.8690    0.3771 C   0  0  0  0  0  0  0  0  0  0  0  0
   -0.6842   -3.1065   -4.2520 O   0  0  0  0  0  0  0  0  0  0  0  0
    0.2516   -4.2020   -2.1515 O   0  0  0  0  0  0  0  0  0  0  0  0
    0.4210   -1.6445   -2.4032 C   0  0  0  0  0  0  0  0  0  0  0  0
   -0.2746   -0.2895   -2.5809 C   0  0  0  0  0  0  0  0  0  0  0  0
   -1.4949    0.0129   -1.6755 C   0  0  0  0  0  0  0  0  0  0  0  0
   -0.4024   -3.1173   -2.8291 S   0  0  0  0  0  0  0  0  0  0  0  0
   -1.7816   -2.8491   -2.0397 O   0  0  0  0  0  0  0  0  0  0  0  0
  2  1  1  0
  2  4  1  0
  4  3  1  0
  5  3  1  0
  6  1  1  0
  6  5  1  0
  7 12  2  0
  8 12  2  0
  9 12  1  0
 10  9  1  0
 11  3  1  0
 11 10  1  0
 12 13  1  0
M  END
>  <DRUGBANK_ID>  (1) 
DB03434

>  <SECONDARY_ACCESSION_NUMBERS>  (1) 
EXPT02224

>  <COMMON_NAME>  (1) 
3-(N-morpholino)propanesulfonic acid

>  <CAS_NUMBER>  (1) 
1132-61-2

>  <UNII>  (1) 
273BP63NV3

>  <SYNONYMS>  (1) 
3-morpholinopropanesulfonic acid; MOPS; Morpholinopropane sulfonic acid

$$$$
