
     RDKit          3D

 27 30  0  0  1  0  0  0  0  0999 V2000
    1.0948   -0.0597   -0.0909 C   0  0  0  0  0  0  0  0  0  0  0  0
   -1.8091   -2.1810    0.1340 C   0  0  0  0  0  0  0  0  0  0  0  0
    3.9900   -3.6979   -2.5148 C   0  0  0  0  0  0  0  0  0  0  0  0
    4.1190   -4.6158   -3.7271 C   0  0  0  0  0  0  0  0  0  0  0  0
    2.1904  -10.7194   -5.4059 C   0  0  0  0  0  0  0  0  0  0  0  0
    2.2273   -2.4699   -1.2316 C   0  0  0  0  0  0  0  0  0  0  0  0
    0.2729   -4.2938   -1.9330 C   0  0  0  0  0  0  0  0  0  0  0  0
    1.2108   -6.9540   -2.8468 C   0  0  0  0  0  0  0  0  0  0  0  0
    4.3114  -11.4989   -6.4706 C   0  0  0  0  0  0  0  0  0  0  0  0
    4.2436   -9.7714   -4.6372 C   0  0  0  0  0  0  0  0  0  0  0  0
    4.1144   -7.0055   -3.2022 C   0  0  0  0  0  0  0  0  0  0  0  0
    3.5783  -10.3268   -5.8774 C   0  0  2  0  0  0  0  0  0  0  0  0
    2.5635   -3.5408   -2.0641 C   0  0  0  0  0  0  0  0  0  0  0  0
    1.5900   -4.4887   -2.3985 C   0  0  0  0  0  0  0  0  0  0  0  0
    2.0597   -7.9103   -2.0045 C   0  0  1  0  0  0  0  0  0  0  0  0
    1.9277   -5.6727   -3.2924 C   0  0  1  0  0  0  0  0  0  0  0  0
    3.3485   -8.2755   -2.7725 C   0  0  1  0  0  0  0  0  0  0  0  0
    0.9319   -2.3227   -0.7279 C   0  0  0  0  0  0  0  0  0  0  0  0
   -0.0623   -3.2402   -1.0806 C   0  0  0  0  0  0  0  0  0  0  0  0
    1.9221   -9.7377   -4.3250 C   0  0  0  0  0  0  0  0  0  0  0  0
    3.6031  -11.9491   -7.5394 F   0  0  0  0  0  0  0  0  0  0  0  0
    2.2957   -7.3489   -0.6625 N   0  0  0  0  0  0  0  0  0  0  0  0
    3.3505   -5.8387   -3.5829 N   0  0  0  0  0  0  0  0  0  0  0  0
    3.1330   -9.1931   -3.9100 N   0  0  0  0  0  0  0  0  0  0  0  0
    0.7878   -9.5536   -3.8984 O   0  0  0  0  0  0  0  0  0  0  0  0
    0.6755   -1.3779    0.2253 O   0  0  0  0  0  0  0  0  0  0  0  0
   -1.3757   -3.2579   -0.6838 O   0  0  0  0  0  0  0  0  0  0  0  0
  4  3  1  0
 12  5  1  0
 12  9  1  1
 12 10  1  0
 13  3  1  0
 13  6  2  0
 14  7  2  0
 14 13  1  0
 15  8  1  0
 15 22  1  1
 16  8  1  1
 16 14  1  0
 17 11  1  0
 17 15  1  0
 17 24  1  6
 18  6  1  0
 19  7  1  0
 19 18  2  0
 20  5  1  0
 21  9  1  0
 23  4  1  0
 23 11  1  0
 23 16  1  0
 24 10  1  0
 24 20  1  0
 25 20  2  0
 26  1  1  0
 26 18  1  0
 27  2  1  0
 27 19  1  0
M  END
>  <DRUGBANK_ID>  (1) 
DB12268

>  <COMMON_NAME>  (1) 
Carmegliptin

>  <CAS_NUMBER>  (1) 
813452-18-5

>  <UNII>  (1) 
9Z723VGH7J

>  <SYNONYMS>  (1) 
Carmegliptin

$$$$
