855
     RDKit          3D

 24 27  0  0  0  0  0  0  0  0999 V2000
    2.4305   -0.1003   -0.0064 C   0  0  0  0  0  0  0  0  0  0  0  0
    0.9321   -0.0719   -0.0003 C   0  0  0  0  0  0  0  0  0  0  0  0
    0.1952   -1.2508    0.0062 C   0  0  0  0  0  0  0  0  0  0  0  0
   -1.1929   -1.1743    0.0059 C   0  0  0  0  0  0  0  0  0  0  0  0
   -1.8063    0.0741    0.0133 C   0  0  0  0  0  0  0  0  0  0  0  0
   -1.0117    1.2203    0.0113 C   0  0  0  0  0  0  0  0  0  0  0  0
    0.3502    1.1500   -0.0002 N   0  0  0  0  0  0  0  0  0  0  0  0
   -1.6165    2.5618    0.0195 C   0  0  0  0  0  0  0  0  0  0  0  0
   -1.3333    3.3757   -1.0103 N   0  0  0  0  0  0  0  0  0  0  0  0
   -1.9065    4.5895   -1.0356 C   0  0  0  0  0  0  0  0  0  0  0  0
   -0.7643    5.1089   -3.2168 C   0  0  0  0  0  0  0  0  0  0  0  0
   -1.0109    3.9825   -3.9988 C   0  0  0  0  0  0  0  0  0  0  0  0
   -0.1487    3.6838   -5.0376 C   0  0  0  0  0  0  0  0  0  0  0  0
    0.9520    4.4064   -5.3307 N   0  0  0  0  0  0  0  0  0  0  0  0
    1.2007    5.4682   -4.5348 C   0  0  0  0  0  0  0  0  0  0  0  0
    0.3792    5.8632   -3.4860 C   0  0  0  0  0  0  0  0  0  0  0  0
   -2.8005    5.0066   -0.0304 C   0  0  0  0  0  0  0  0  0  0  0  0
   -3.4706    6.2550    0.0273 C   0  0  0  0  0  0  0  0  0  0  0  0
   -4.3237    6.5718    1.0824 C   0  0  0  0  0  0  0  0  0  0  0  0
   -4.5170    5.6506    2.1026 C   0  0  0  0  0  0  0  0  0  0  0  0
   -3.8640    4.4190    2.0496 C   0  0  0  0  0  0  0  0  0  0  0  0
   -3.0207    4.0714    1.0023 C   0  0  0  0  0  0  0  0  0  0  0  0
   -2.4614    2.8645    1.0206 N   0  0  0  0  0  0  0  0  0  0  0  0
   -1.6232    5.4223   -2.1456 N   0  0  0  0  0  0  0  0  0  0  0  0
  1  2  1  0
  2  3  2  0
  2  7  1  0
  3  4  1  0
  4  5  2  0
  5  6  1  0
  6  7  2  0
  6  8  1  0
  8  9  2  0
  8 23  1  0
  9 10  1  0
 10 17  2  0
 11 12  2  0
 11 16  1  0
 11 24  1  0
 12 13  1  0
 13 14  2  0
 14 15  1  0
 15 16  2  0
 17 18  1  0
 17 22  1  0
 18 19  2  0
 19 20  1  0
 20 21  2  0
 21 22  1  0
 22 23  2  0
 24 10  1  0
M  END
>  <DRUGBANK_ID>  (1) 
DB07267

>  <COMMON_NAME>  (1) 
2-(6-methylpyridin-2-yl)-N-pyridin-4-ylquinazolin-4-amine

$$$$
