PIQ
     RDKit          3D

 17 19  0  0  0  0  0  0  0  0999 V2000
    1.0966    0.0676   -0.1743 N   0  0  0  0  0  0  0  0  0  0  0  0
    0.3874   -0.2140   -1.2797 C   0  0  0  0  0  0  0  0  0  0  0  0
   -0.7454    0.4899   -1.5936 N   0  0  0  0  0  0  0  0  0  0  0  0
   -1.1854    0.0747   -2.8220 C   0  0  0  0  0  0  0  0  0  0  0  0
   -2.2304    0.4747   -3.6520 C   0  0  0  0  0  0  0  0  0  0  0  0
   -2.3636   -0.2188   -4.8560 C   0  0  0  0  0  0  0  0  0  0  0  0
   -3.4257    0.1293   -5.8044 C   0  0  0  0  0  0  0  0  0  0  0  0
   -4.4316   -0.7918   -6.1316 C   0  0  0  0  0  0  0  0  0  0  0  0
   -5.4479   -0.4496   -7.0259 C   0  0  0  0  0  0  0  0  0  0  0  0
   -5.3961    0.7652   -7.7047 C   0  0  0  0  0  0  0  0  0  0  0  0
   -4.3727    1.6682   -7.4319 C   0  0  0  0  0  0  0  0  0  0  0  0
   -3.4526    1.3908   -6.4202 C   0  0  0  0  0  0  0  0  0  0  0  0
    0.6773   -1.0902   -2.2205 N   0  0  0  0  0  0  0  0  0  0  0  0
   -1.3293    1.5755   -0.8468 C   0  0  0  0  0  0  0  0  0  0  0  0
   -0.2981   -0.9341   -3.1737 C   0  0  0  0  0  0  0  0  0  0  0  0
   -0.4034   -1.6298   -4.3312 N   0  0  0  0  0  0  0  0  0  0  0  0
   -1.4401   -1.2406   -5.1212 C   0  0  0  0  0  0  0  0  0  0  0  0
  1  2  1  0
  2  3  1  0
  2 13  2  0
  3  4  1  0
  3 14  1  0
  4  5  2  0
  4 15  1  0
  5  6  1  0
  6  7  1  0
  6 17  2  0
  7  8  2  0
  7 12  1  0
  8  9  1  0
  9 10  2  0
 10 11  1  0
 11 12  2  0
 13 15  1  0
 15 16  2  0
 16 17  1  0
M  END
>  <DRUGBANK_ID>  (1) 
DB08398

>  <SECONDARY_ACCESSION_NUMBERS>  (1) 
DB12735

>  <COMMON_NAME>  (1) 
2-Amino-1-methyl-6-phenylimidazo(4,5-b)pyridine

>  <CAS_NUMBER>  (1) 
105650-23-5

>  <UNII>  (1) 
909C6UN66T

>  <SYNONYMS>  (1) 
2-amino-1-methyl-6-phenylimidazo[4,5-b]pyridine; PhIP

$$$$
