W56
     RDKit          3D

 24 26  0  0  0  0  0  0  0  0999 V2000
   -1.1699    0.3817   -0.3718 O   0  0  0  0  0  0  0  0  0  0  0  0
    0.0776    0.9270   -0.1512 N   0  0  0  0  0  0  0  0  0  0  0  0
    0.8858   -0.1291   -0.0319 C   0  0  0  0  0  0  0  0  0  0  0  0
    2.3403    0.0411    0.0165 C   0  0  0  0  0  0  0  0  0  0  0  0
    0.1760   -1.3419   -0.0311 C   0  0  0  0  0  0  0  0  0  0  0  0
   -1.1216   -0.9706   -0.2018 C   0  0  0  0  0  0  0  0  0  0  0  0
   -2.3841   -1.7432   -0.1820 C   0  0  0  0  0  0  0  0  0  0  0  0
   -3.1761   -1.3990    1.0525 C   0  0  0  0  0  0  0  0  0  0  0  0
   -3.5102    0.0759    0.9963 C   0  0  0  0  0  0  0  0  0  0  0  0
   -4.6312    0.4432    0.0233 C   0  0  0  0  0  0  0  0  0  0  0  0
   -5.9144   -0.3878    0.1354 C   0  0  0  0  0  0  0  0  0  0  0  0
   -6.8086   -0.1188    1.2432 O   0  0  0  0  0  0  0  0  0  0  0  0
   -6.3408   -0.1938    2.5243 C   0  0  0  0  0  0  0  0  0  0  0  0
   -5.3486    0.6430    3.0034 C   0  0  0  0  0  0  0  0  0  0  0  0
   -4.6367    0.3376    4.1744 C   0  0  0  0  0  0  0  0  0  0  0  0
   -5.2388   -0.4754    5.1010 C   0  0  0  0  0  0  0  0  0  0  0  0
   -6.4854   -1.0232    4.7909 C   0  0  0  0  0  0  0  0  0  0  0  0
   -6.9836   -0.9695    3.4718 C   0  0  0  0  0  0  0  0  0  0  0  0
   -4.5996   -0.7690    6.3962 C   0  0  0  0  0  0  0  0  0  0  0  0
   -4.5718   -1.9180    6.9533 N   0  0  0  0  0  0  0  0  0  0  0  0
   -3.8642   -1.6877    8.2242 C   0  0  1  0  0  0  0  0  0  0  0  0
   -2.5956   -2.5242    8.2608 C   0  0  0  0  0  0  0  0  0  0  0  0
   -3.5902   -0.1936    8.2679 C   0  0  0  0  0  0  0  0  0  0  0  0
   -4.0415    0.3068    7.0116 O   0  0  0  0  0  0  0  0  0  0  0  0
  1  2  1  0
  1  6  1  0
  2  3  2  0
  3  4  1  0
  3  5  1  0
  5  6  2  0
  6  7  1  0
  7  8  1  0
  8  9  1  0
  9 10  1  0
 10 11  1  0
 11 12  1  0
 12 13  1  0
 13 14  2  0
 13 18  1  0
 14 15  1  0
 15 16  2  0
 16 17  1  0
 16 19  1  0
 17 18  2  0
 19 20  2  0
 19 24  1  0
 20 21  1  0
 21 22  1  6
 21 23  1  0
 23 24  1  0
M  END
>  <DRUGBANK_ID>  (1) 
DB08724

>  <COMMON_NAME>  (1) 
5-(5-(4-(5-hydro-4-methyl-2-oxazolyl)phenoxy)pentyl)-3-methyl isoxazole

$$$$
