
     RDKit          3D

 28 31  0  0  0  0  0  0  0  0999 V2000
    1.0654   -0.0829   -0.0553 C   0  0  0  0  0  0  0  0  0  0  0  0
    0.5849   -1.5238    0.0823 C   0  0  0  0  0  0  0  0  0  0  0  0
    1.0198   -2.1990    1.4082 C   0  0  0  0  0  0  0  0  0  0  0  0
    0.5494   -1.3543    2.6509 C   0  0  0  0  0  0  0  0  0  0  0  0
   -0.9599   -1.1323    2.8003 C   0  0  0  0  0  0  0  0  0  0  0  0
    0.5227   -3.6517    1.4594 C   0  0  0  0  0  0  0  0  0  0  0  0
   -0.7889   -3.8998    1.5592 C   0  0  0  0  0  0  0  0  0  0  0  0
   -1.2370   -5.2787    1.8363 C   0  0  0  0  0  0  0  0  0  0  0  0
   -2.6784   -5.4150    2.2483 C   0  0  0  0  0  0  0  0  0  0  0  0
   -0.4696   -6.3281    1.7673 N   0  0  0  0  0  0  0  0  0  0  0  0
    0.8449   -6.0921    1.4545 C   0  0  0  0  0  0  0  0  0  0  0  0
    1.8885   -6.9666    1.2092 C   0  0  0  0  0  0  0  0  0  0  0  0
    3.0117   -6.1350    0.9844 C   0  0  0  0  0  0  0  0  0  0  0  0
    4.3968   -6.5617    0.6551 C   0  0  0  0  0  0  0  0  0  0  0  0
    2.7156   -4.8267    1.0840 N   0  0  0  0  0  0  0  0  0  0  0  0
    1.3815   -4.7803    1.3555 N   0  0  0  0  0  0  0  0  0  0  0  0
    1.8566   -8.4437    1.1734 C   0  0  0  0  0  0  0  0  0  0  0  0
    2.6636   -9.1746    2.0628 N   0  0  0  0  0  0  0  0  0  0  0  0
    2.5063  -10.4760    1.8807 C   0  0  0  0  0  0  0  0  0  0  0  0
    1.3917  -10.8842    0.6188 S   0  0  0  0  0  0  0  0  0  0  0  0
    1.0919   -9.2372    0.3470 C   0  0  0  0  0  0  0  0  0  0  0  0
   -0.0253   -8.8105   -0.8860 Cl  0  0  0  0  0  0  0  0  0  0  0  0
    3.0880  -11.4666    2.6091 N   0  0  0  0  0  0  0  0  0  0  0  0
    3.0144  -11.5099    4.0670 C   0  0  0  0  0  0  0  0  0  0  0  0
    4.4286  -11.4850    4.6640 C   0  0  0  0  0  0  0  0  0  0  0  0
    5.2476  -12.5395    4.1207 O   0  0  0  0  0  0  0  0  0  0  0  0
    5.3492  -12.4035    2.6911 C   0  0  0  0  0  0  0  0  0  0  0  0
    3.9636  -12.4820    2.0208 C   0  0  0  0  0  0  0  0  0  0  0  0
  1  2  1  0
  2  3  1  0
  3  4  1  0
  3  6  1  0
  4  5  1  0
  6  7  2  0
  6 16  1  0
  7  8  1  0
  8  9  1  0
  8 10  2  0
 10 11  1  0
 11 12  2  0
 11 16  1  0
 12 13  1  0
 12 17  1  0
 13 14  1  0
 13 15  2  0
 15 16  1  0
 17 18  1  0
 17 21  2  0
 18 19  2  0
 19 20  1  0
 19 23  1  0
 20 21  1  0
 21 22  1  0
 23 24  1  0
 23 28  1  0
 24 25  1  0
 25 26  1  0
 26 27  1  0
 27 28  1  0
M  END
>  <DRUGBANK_ID>  (1) 
DB18545

>  <COMMON_NAME>  (1) 
Tildacerfont

>  <CAS_NUMBER>  (1) 
1014983-00-6

>  <UNII>  (1) 
09QCEV5481

>  <SYNONYMS>  (1) 
3-(5-chloro-2-morpholin-4-yl-thiazol-4-yl)-7-(1-ethyl-propyl)-2,5-dimethyl-pyrazolo(1,5-a)pyrimidine; Pyrazolo(1,5-a)pyrimidine, 3-(4-chloro-2-(4-morpholinyl)-5-thiazolyl)-7-(1-ethylpropyl)-2,5-dimethyl-; Pyrazolo(1,5-a)pyrimidine, 3-(4-chloro-2-(4-morpholinyl)-5-thiazolyl)-7-(1-ethylpropyl)-2,5-dimethyl-pyrazolo(1,3-a)pyrimidine

$$$$
