
     RDKit          3D

 29 32  0  0  1  0  0  0  0  0999 V2000
    4.4357    3.6639   -1.1141 C   0  0  0  0  0  0  0  0  0  0  0  0
    3.8274    2.2389   -0.0207 C   0  0  2  0  0  0  0  0  0  0  0  0
    2.8945    2.8003    0.9886 C   0  0  0  0  0  0  0  0  0  0  0  0
    3.4683    4.0048    1.5717 C   0  0  1  0  0  0  0  0  0  0  0  0
    4.8319    3.5058    2.0285 C   0  0  1  0  0  0  0  0  0  0  0  0
    5.8863    3.0985    0.9971 C   0  0  2  0  0  0  0  0  0  0  0  0
    5.1289    1.9891   -0.4464 C   0  0  2  0  0  0  0  0  0  0  0  0
    3.5363    1.8324   -1.7276 C   0  0  0  0  0  0  0  0  0  0  0  0
    2.3447    0.9527   -1.1948 C   0  0  2  0  0  0  0  0  0  0  0  0
    3.4426    0.5389   -0.3625 C   0  0  2  0  0  0  0  0  0  0  0  0
    3.1840   -0.3734    0.7922 C   0  0  0  0  0  0  0  0  0  0  0  0
    4.1148   -0.9807    1.3295 O   0  0  0  0  0  0  0  0  0  0  0  0
    1.7365   -0.5637    1.1945 C   0  0  0  0  0  0  0  0  0  0  0  0
    1.1140    0.6154    1.6609 O   0  0  0  0  0  0  0  0  0  0  0  0
    4.2158   -0.3119   -1.3484 O   0  0  0  0  0  0  0  0  0  0  0  0
    1.7796    0.0036   -2.0608 O   0  0  0  0  0  0  0  0  0  0  0  0
    7.0135    2.6839    2.2623 C   0  0  0  0  0  0  0  0  0  0  0  0
    7.1527    3.8525    3.6114 C   0  0  1  0  0  0  0  0  0  0  0  0
    5.8824    4.2614    4.5527 C   0  0  0  0  0  0  0  0  0  0  0  0
    5.2672    4.2127    5.8688 C   0  0  0  0  0  0  0  0  0  0  0  0
    4.0564    3.0960    6.0407 C   0  0  0  0  0  0  0  0  0  0  0  0
    3.9575    2.2234    6.9460 O   0  0  0  0  0  0  0  0  0  0  0  0
    3.1374    3.0142    4.8793 C   0  0  0  0  0  0  0  0  0  0  0  0
    4.1308    3.1294    4.0238 C   0  0  0  0  0  0  0  0  0  0  0  0
    4.9035    4.2720    3.4417 C   0  0  2  0  0  0  0  0  0  0  0  0
    4.6706    5.8167    3.2596 C   0  0  0  0  0  0  0  0  0  0  0  0
    8.2647    3.5910    4.3439 F   0  0  0  0  0  0  0  0  0  0  0  0
    4.6647    2.0900    2.3305 F   0  0  0  0  0  0  0  0  0  0  0  0
    3.4152    5.1720    0.7910 O   0  0  0  0  0  0  0  0  0  0  0  0
  2  1  1  6
  2  3  1  0
  2  7  1  0
  2 10  1  0
  3  4  1  0
  4  5  1  0
  4 29  1  6
  5  6  1  0
  5 25  1  0
  5 28  1  1
  6  7  1  0
  6 17  1  1
  7  8  1  6
  8  9  1  0
  9 10  1  0
  9 16  1  6
 10 15  1  6
 10 11  1  0
 11 12  2  0
 11 13  1  0
 13 14  1  0
 17 18  1  0
 18 19  1  0
 18 27  1  1
 19 20  2  0
 19 25  1  0
 20 21  1  0
 21 22  2  0
 21 23  1  0
 23 24  2  0
 24 25  1  0
 25 26  1  6
M  END
>  <DRUGBANK_ID>  (1) 
DB12553

>  <COMMON_NAME>  (1) 
Fluocinolone

>  <CAS_NUMBER>  (1) 
807-38-5

>  <UNII>  (1) 
CT1IX58L9S

>  <SYNONYMS>  (1) 
Fluocinolona

$$$$
