
     RDKit          3D

 26 27  0  0  0  0  0  0  0  0999 V2000
    1.2555   -0.1960    0.1097 F   0  0  0  0  0  0  0  0  0  0  0  0
    1.1460    1.6823   -1.2421 O   0  0  0  0  0  0  0  0  0  0  0  0
    2.0876    4.5959   -0.6125 O   0  0  0  0  0  0  0  0  0  0  0  0
    2.6045    1.7451    1.8741 O   0  0  0  0  0  0  0  0  0  0  0  0
   -9.1827    7.0742    1.9416 N   0  0  0  0  0  0  0  0  0  0  0  0
    0.4553    5.8752    0.3030 N   0  0  0  0  0  0  0  0  0  0  0  0
    2.3368    2.2189   -1.8387 C   0  0  0  0  0  0  0  0  0  0  0  0
    0.8093    2.0716    0.1285 C   0  0  0  0  0  0  0  0  0  0  0  0
    2.7124    3.7424   -1.6012 C   0  0  0  0  0  0  0  0  0  0  0  0
    1.2060    1.8008    1.5878 C   0  0  0  0  0  0  0  0  0  0  0  0
   -5.1794    6.3602    1.1182 C   0  0  0  0  0  0  0  0  0  0  0  0
   -1.8107    4.9956    0.5047 C   0  0  0  0  0  0  0  0  0  0  0  0
   -7.8508    6.8378    1.6599 C   0  0  0  0  0  0  0  0  0  0  0  0
    0.7272    4.8898   -0.5580 C   0  0  0  0  0  0  0  0  0  0  0  0
   -3.7535    6.2248    0.9671 C   0  0  0  0  0  0  0  0  0  0  0  0
   -5.8931    5.4397    1.8804 C   0  0  0  0  0  0  0  0  0  0  0  0
   -5.7627    7.4918    0.6035 C   0  0  0  0  0  0  0  0  0  0  0  0
   -3.2349    5.0651    0.7310 C   0  0  0  0  0  0  0  0  0  0  0  0
   -7.2327    5.6803    2.1462 C   0  0  0  0  0  0  0  0  0  0  0  0
   -7.0665    7.7614    0.9561 C   0  0  0  0  0  0  0  0  0  0  0  0
   -1.4732    3.9130   -0.2102 C   0  0  0  0  0  0  0  0  0  0  0  0
   -0.3205    4.0348   -0.9730 C   0  0  0  0  0  0  0  0  0  0  0  0
    3.2209    1.2546    0.7046 C   0  0  0  0  0  0  0  0  0  0  0  0
   -0.8427    5.9837    0.6832 C   0  0  0  0  0  0  0  0  0  0  0  0
    2.6105   -0.1330    0.2727 C   0  0  0  0  0  0  0  0  0  0  0  0
   -9.9221    8.1737    1.3598 C   0  0  0  0  0  0  0  0  0  0  0  0
  1 25  1  0
  2  7  1  0
  2  8  1  0
  3  9  1  0
  3 14  1  0
  4 10  1  0
  4 23  1  0
  5 13  1  0
  5 26  1  0
  6 14  2  0
  6 24  1  0
  7  9  1  0
  8 10  1  0
 11 15  1  0
 11 16  2  0
 11 17  1  0
 12 18  1  0
 12 21  1  0
 12 24  2  0
 13 19  2  0
 13 20  1  0
 14 22  1  0
 15 18  2  0
 16 19  1  0
 17 20  2  0
 21 22  2  0
 23 25  1  0
M  ISO  1   1  18
M  END
>  <DRUGBANK_ID>  (1) 
DB09149

>  <COMMON_NAME>  (1) 
Florbetapir (18F)

>  <CAS_NUMBER>  (1) 
956103-76-7

>  <UNII>  (1) 
6W15Z5R0RU

>  <SYNONYMS>  (1) 
[18F]Florbetapir; 4-{(E)-2-[6-(2-{2-[2-(18F)fluoroethoxy]ethoxy}ethoxy)pyridin-3-yl]ethenyl}-N-methylaniline; Florbetapir (18F); Florbetapir F-18; Florbetapir F18; florbetapir-fluorine-18

$$$$
