
     RDKit          3D

 34 37  0  0  0  0  0  0  0  0999 V2000
    1.9140    4.7952    9.9288 N   0  0  0  0  0  0  0  0  0  0  0  0
    0.8293    4.3776   10.6638 C   0  0  0  0  0  0  0  0  0  0  0  0
    2.4386    4.2528    8.6913 C   0  0  1  0  0  0  0  0  0  0  0  0
    2.5540    5.7536   10.6678 C   0  0  0  0  0  0  0  0  0  0  0  0
    0.8480    5.1657   11.8118 C   0  0  0  0  0  0  0  0  0  0  0  0
   -0.0633    3.4212   10.3624 N   0  0  0  0  0  0  0  0  0  0  0  0
    1.5675    4.3407    7.4331 C   0  0  1  0  0  0  0  0  0  0  0  0
    3.6358    5.0259    8.3436 O   0  0  0  0  0  0  0  0  0  0  0  0
    1.9291    6.0165   11.7799 N   0  0  0  0  0  0  0  0  0  0  0  0
   -0.1709    4.9891   12.7851 C   0  0  0  0  0  0  0  0  0  0  0  0
   -0.9911    3.3166   11.3449 C   0  0  0  0  0  0  0  0  0  0  0  0
    1.8152    5.7769    6.9844 C   0  0  1  0  0  0  0  0  0  0  0  0
    2.0688    3.4403    6.4108 O   0  0  0  0  0  0  0  0  0  0  0  0
    3.3137    5.9172    7.2470 C   0  0  1  0  0  0  0  0  0  0  0  0
   -1.0973    4.0225   12.4983 N   0  0  0  0  0  0  0  0  0  0  0  0
   -0.2642    5.7184   13.9623 N   0  0  0  0  0  0  0  0  0  0  0  0
    1.4863    6.0180    5.5920 N   0  0  0  0  0  0  0  0  0  0  0  0
    3.6946    7.3726    7.5174 C   0  0  0  0  0  0  0  0  0  0  0  0
    0.6866    6.7544   14.3321 C   0  0  0  0  0  0  0  0  0  0  0  0
   -1.3627    5.4716   14.8774 C   0  0  0  0  0  0  0  0  0  0  0  0
    0.5866    6.9764    5.1935 C   0  0  0  0  0  0  0  0  0  0  0  0
    5.0783    7.4802    7.8279 O   0  0  0  0  0  0  0  0  0  0  0  0
    0.2898    7.1455    3.6743 C   0  0  2  0  0  0  0  0  0  0  0  0
    0.0362    7.7096    6.0259 O   0  0  0  0  0  0  0  0  0  0  0  0
    1.2338    6.3613    2.7515 C   0  0  0  0  0  0  0  0  0  0  0  0
    0.3671    8.5952    3.3426 N   0  0  0  0  0  0  0  0  0  0  0  0
    0.6264    5.9078    1.4538 C   0  0  0  0  0  0  0  0  0  0  0  0
    0.3254    4.5520    1.2631 C   0  0  0  0  0  0  0  0  0  0  0  0
    0.4056    6.8131    0.4169 C   0  0  0  0  0  0  0  0  0  0  0  0
   -0.1684    4.1050    0.0401 C   0  0  0  0  0  0  0  0  0  0  0  0
   -0.0928    6.3627   -0.8039 C   0  0  0  0  0  0  0  0  0  0  0  0
   -0.3775    5.0092   -1.0006 C   0  0  0  0  0  0  0  0  0  0  0  0
   -0.8500    4.6909   -2.2441 O   0  0  0  0  0  0  0  0  0  0  0  0
   -1.1481    3.3182   -2.4657 C   0  0  0  0  0  0  0  0  0  0  0  0
  1  2  1  0
  1  4  1  0
  2  5  2  0
  2  6  1  0
  3  7  1  0
  3  8  1  0
  3  1  1  1
  4  9  2  0
  5 10  1  0
  5  9  1  0
  6 11  2  0
  7 12  1  0
  7 13  1  6
  8 14  1  0
 10 15  2  0
 10 16  1  0
 11 15  1  0
 12 17  1  6
 12 14  1  0
 14 18  1  1
 16 19  1  0
 16 20  1  0
 17 21  1  0
 18 22  1  0
 21 24  2  0
 23 26  1  6
 23 25  1  0
 23 21  1  0
 25 27  1  0
 27 28  2  0
 27 29  1  0
 28 30  1  0
 29 31  2  0
 30 32  2  0
 31 32  1  0
 32 33  1  0
 33 34  1  0
M  END
>  <DRUGBANK_ID>  (1) 
DB08437

>  <COMMON_NAME>  (1) 
Puromycin

>  <CAS_NUMBER>  (1) 
53-79-2

>  <UNII>  (1) 
4A6ZS6Q2CL

>  <SYNONYMS>  (1) 
puromicina; Puromycin

$$$$
