
     RDKit          3D

 35 38  0  0  0  0  0  0  0  0999 V2000
    2.2064    0.0809    0.0268 C   0  0  0  0  0  0  0  0  0  0  0  0
    0.7342    0.1262    0.1459 C   0  0  0  0  0  0  0  0  0  0  0  0
   -0.1878    1.1565    0.1610 C   0  0  0  0  0  0  0  0  0  0  0  0
   -1.4654    0.6325    0.1293 N   0  0  0  0  0  0  0  0  0  0  0  0
   -1.2837   -0.6722    0.1059 C   0  0  0  0  0  0  0  0  0  0  0  0
    0.0387   -1.0560    0.1133 O   0  0  0  0  0  0  0  0  0  0  0  0
   -2.2727   -1.7353    0.0018 C   0  0  0  0  0  0  0  0  0  0  0  0
   -3.1748   -1.7737   -1.0729 C   0  0  0  0  0  0  0  0  0  0  0  0
   -4.1194   -2.8014   -1.1729 C   0  0  0  0  0  0  0  0  0  0  0  0
   -4.1649   -3.8018   -0.2034 C   0  0  0  0  0  0  0  0  0  0  0  0
   -3.2673   -3.7771    0.8628 C   0  0  0  0  0  0  0  0  0  0  0  0
   -2.3522   -2.7280    0.9852 C   0  0  0  0  0  0  0  0  0  0  0  0
    0.0702    2.6175    0.0146 C   0  0  0  0  0  0  0  0  0  0  0  0
   -0.4765    3.2538   -1.1615 O   0  0  0  0  0  0  0  0  0  0  0  0
   -0.0077    2.8335   -2.3771 C   0  0  0  0  0  0  0  0  0  0  0  0
    0.0626    1.4970   -2.7623 C   0  0  0  0  0  0  0  0  0  0  0  0
    0.4883    1.1165   -4.0261 C   0  0  0  0  0  0  0  0  0  0  0  0
    0.7783    2.0879   -4.9753 C   0  0  0  0  0  0  0  0  0  0  0  0
    0.6091    3.4373   -4.6365 C   0  0  0  0  0  0  0  0  0  0  0  0
    0.2633    3.8102   -3.3311 C   0  0  0  0  0  0  0  0  0  0  0  0
    1.2831    1.6706   -6.3318 C   0  0  0  0  0  0  0  0  0  0  0  0
    0.4575    2.1351   -7.4047 O   0  0  0  0  0  0  0  0  0  0  0  0
   -0.8049    1.5349   -7.2982 N   0  0  0  0  0  0  0  0  0  0  0  0
   -1.6394    1.9123   -8.2200 C   0  0  0  0  0  0  0  0  0  0  0  0
   -1.3072    2.9019   -9.3799 C   0  0  0  0  0  0  0  0  0  0  0  0
   -1.3825    2.3662  -10.8171 C   0  0  0  0  0  0  0  0  0  0  0  0
   -2.6512    2.5359  -11.6439 C   0  0  0  0  0  0  0  0  0  0  0  0
   -2.6823    3.0967  -12.7403 O   0  0  0  0  0  0  0  0  0  0  0  0
   -3.7630    1.9563  -11.2149 O   0  0  0  0  0  0  0  0  0  0  0  0
   -3.0350    1.3837   -8.0890 C   0  0  0  0  0  0  0  0  0  0  0  0
   -3.8171    1.5787   -6.9560 C   0  0  0  0  0  0  0  0  0  0  0  0
   -5.1835    1.2397   -6.9773 C   0  0  0  0  0  0  0  0  0  0  0  0
   -5.7875    0.8190   -8.1558 C   0  0  0  0  0  0  0  0  0  0  0  0
   -4.9781    0.5477   -9.2380 C   0  0  0  0  0  0  0  0  0  0  0  0
   -3.5830    0.6427   -9.1132 C   0  0  0  0  0  0  0  0  0  0  0  0
  1  2  1  0
  2  3  2  0
  2  6  1  0
  3  4  1  0
  3 13  1  0
  4  5  2  0
  5  6  1  0
  5  7  1  0
  7  8  2  0
  7 12  1  0
  8  9  1  0
  9 10  2  0
 10 11  1  0
 11 12  2  0
 13 14  1  0
 14 15  1  0
 15 16  2  0
 15 20  1  0
 16 17  1  0
 17 18  2  0
 18 19  1  0
 18 21  1  0
 19 20  2  0
 21 22  1  0
 22 23  1  0
 23 24  2  0
 24 25  1  0
 24 30  1  0
 25 26  1  0
 26 27  1  0
 27 28  2  0
 27 29  1  0
 30 31  2  0
 30 35  1  0
 31 32  1  0
 32 33  2  0
 33 34  1  0
 34 35  2  0
M  END
>  <DRUGBANK_ID>  (1) 
DB12511

>  <COMMON_NAME>  (1) 
Imiglitazar

>  <CAS_NUMBER>  (1) 
250601-04-8

>  <UNII>  (1) 
7244710F59

>  <SYNONYMS>  (1) 
Imiglitazar

$$$$
