
     RDKit          3D

 26 28  0  0  0  0  0  0  0  0999 V2000
    1.0825    0.3095   -0.0157 C   0  0  0  0  0  0  0  0  0  0  0  0
    0.5206    0.9808    1.1331 N   0  0  0  0  0  0  0  0  0  0  0  0
   -0.9530    0.9721    1.0448 C   0  0  0  0  0  0  0  0  0  0  0  0
   -1.6431   -0.3639    1.2115 C   0  0  0  0  0  0  0  0  0  0  0  0
   -2.4288   -0.6596    2.2575 C   0  0  0  0  0  0  0  0  0  0  0  0
    1.1068    0.4902    2.4032 C   0  0  0  0  0  0  0  0  0  0  0  0
    0.7960   -0.9285    2.8127 C   0  0  0  0  0  0  0  0  0  0  0  0
    1.6083   -2.0063    2.9155 C   0  0  0  0  0  0  0  0  0  0  0  0
    1.0279   -3.4080    3.0028 C   0  0  0  0  0  0  0  0  0  0  0  0
    1.5064   -4.3350    1.9859 O   0  0  0  0  0  0  0  0  0  0  0  0
    1.0973   -4.1152    0.6902 C   0  0  0  0  0  0  0  0  0  0  0  0
    0.5664   -5.1587   -0.0810 C   0  0  0  0  0  0  0  0  0  0  0  0
    0.1689   -4.8467   -1.3993 C   0  0  0  0  0  0  0  0  0  0  0  0
    0.2946   -3.5891   -1.9689 C   0  0  0  0  0  0  0  0  0  0  0  0
    0.9226   -2.6062   -1.2284 C   0  0  0  0  0  0  0  0  0  0  0  0
    1.3530   -2.9050    0.0692 C   0  0  0  0  0  0  0  0  0  0  0  0
   -0.2731   -3.6224   -3.2662 C   0  0  0  0  0  0  0  0  0  0  0  0
   -0.6548   -4.9335   -3.4445 C   0  0  0  0  0  0  0  0  0  0  0  0
   -0.3902   -5.6825   -2.3276 O   0  0  0  0  0  0  0  0  0  0  0  0
   -0.4256   -2.5398   -4.2294 C   0  0  0  0  0  0  0  0  0  0  0  0
    0.6917   -1.8149   -4.6767 C   0  0  0  0  0  0  0  0  0  0  0  0
    0.5402   -0.7373   -5.5601 C   0  0  0  0  0  0  0  0  0  0  0  0
   -0.7325   -0.3730   -5.9927 C   0  0  0  0  0  0  0  0  0  0  0  0
   -0.9419    1.0720   -7.1947 Br  0  0  0  0  0  0  0  0  0  0  0  0
   -1.8530   -1.0680   -5.5419 C   0  0  0  0  0  0  0  0  0  0  0  0
   -1.6994   -2.1462   -4.6600 C   0  0  0  0  0  0  0  0  0  0  0  0
  1  2  1  0
  2  3  1  0
  2  6  1  0
  3  4  1  0
  4  5  2  0
  6  7  1  0
  7  8  2  0
  8  9  1  0
  9 10  1  0
 10 11  1  0
 11 12  2  0
 11 16  1  0
 12 13  1  0
 13 14  2  0
 13 19  1  0
 14 15  1  0
 14 17  1  0
 15 16  2  0
 17 18  2  0
 17 20  1  0
 18 19  1  0
 20 21  2  0
 20 26  1  0
 21 22  1  0
 22 23  2  0
 23 24  1  0
 23 25  1  0
 25 26  2  0
M  END
>  <DRUGBANK_ID>  (1) 
DB03771

>  <SECONDARY_ACCESSION_NUMBERS>  (1) 
EXPT02740

>  <COMMON_NAME>  (1) 
Allyl-{4-[3-(4-Bromo-Phenyl)-Benzofuran-6-Yloxy]-but-2-Enyl}-Methyl-Amine

$$$$
