
     RDKit          3D

 36 36  0  0  0  0  0  0  0  0999 V2000
    1.6760   -1.9208    0.6116 O   0  0  0  0  0  0  0  0  0  0  0  0
    0.4117   -1.9433    1.5892 P   0  0  0  0  0  0  0  0  0  0  0  0
    0.5216   -0.5406    2.3156 O   0  0  0  0  0  0  0  0  0  0  0  0
   -0.8728   -1.7186    0.6689 O   0  0  0  0  0  0  0  0  0  0  0  0
    0.3585   -3.1424    2.4519 O   0  0  0  0  0  0  0  0  0  0  0  0
    0.8478    0.3164   -0.6053 C   0  0  0  0  0  0  0  0  0  0  0  0
    0.2609    1.3624   -1.3818 N   0  0  0  0  0  0  0  0  0  0  0  0
   -1.1946    1.2432   -1.2210 C   0  0  0  0  0  0  0  0  0  0  0  0
    0.8411    2.6393   -0.9526 C   0  0  0  0  0  0  0  0  0  0  0  0
    0.4788    3.1200    0.4288 C   0  0  0  0  0  0  0  0  0  0  0  0
    1.0040    2.2926    1.5461 C   0  0  0  0  0  0  0  0  0  0  0  0
    2.4019    2.1287    1.7607 N   0  0  0  0  0  0  0  0  0  0  0  0
    3.0217    2.6280    2.8459 C   0  0  0  0  0  0  0  0  0  0  0  0
    4.2806    2.6601    2.8156 O   0  0  0  0  0  0  0  0  0  0  0  0
    2.2248    3.0184    4.0703 C   0  0  0  0  0  0  0  0  0  0  0  0
    0.7666    2.6250    4.4240 C   0  0  0  0  0  0  0  0  0  0  0  0
    0.6177    1.6464    5.4856 O   0  0  0  0  0  0  0  0  0  0  0  0
    0.8685    0.3167    5.2306 C   0  0  0  0  0  0  0  0  0  0  0  0
    2.1719   -0.2288    4.9820 C   0  0  0  0  0  0  0  0  0  0  0  0
    3.3251    0.5240    4.9306 C   0  0  0  0  0  0  0  0  0  0  0  0
    4.5978    0.1708    4.5377 C   0  0  0  0  0  0  0  0  0  0  0  0
    4.8132   -1.1492    4.3114 C   0  0  0  0  0  0  0  0  0  0  0  0
    3.7371   -2.0300    4.4837 C   0  0  0  0  0  0  0  0  0  0  0  0
    2.4196   -1.5856    4.8224 C   0  0  0  0  0  0  0  0  0  0  0  0
    1.3399   -2.4376    5.0497 C   0  0  0  0  0  0  0  0  0  0  0  0
    0.0546   -1.9383    5.3302 C   0  0  0  0  0  0  0  0  0  0  0  0
   -0.1917   -0.5642    5.4053 C   0  0  0  0  0  0  0  0  0  0  0  0
    2.9836    3.4590    5.0999 C   0  0  0  0  0  0  0  0  0  0  0  0
    2.3990    3.5048    6.4710 C   0  0  0  0  0  0  0  0  0  0  0  0
    2.7899    2.4268    7.5368 C   0  0  0  0  0  0  0  0  0  0  0  0
    4.2153    2.5951    8.0030 C   0  0  0  0  0  0  0  0  0  0  0  0
    4.4730    4.0299    8.4600 C   0  0  0  0  0  0  0  0  0  0  0  0
    3.7641    4.4623    9.7541 C   0  0  0  0  0  0  0  0  0  0  0  0
    4.4624    4.7291   10.7386 O   0  0  0  0  0  0  0  0  0  0  0  0
    2.4219    4.5806    9.9146 N   0  0  0  0  0  0  0  0  0  0  0  0
    1.3983    4.6127    8.9770 O   0  0  0  0  0  0  0  0  0  0  0  0
  1  2  1  0
  2  3  1  0
  2  4  1  0
  2  5  2  0
  6  7  1  0
  7  8  1  0
  7  9  1  0
  9 10  1  0
 10 11  1  0
 11 12  1  0
 12 13  1  0
 13 14  2  0
 13 15  1  0
 15 16  1  0
 15 28  2  0
 16 17  1  0
 17 18  1  0
 18 19  2  0
 18 27  1  0
 19 20  1  0
 19 24  1  0
 20 21  2  0
 21 22  1  0
 22 23  2  0
 23 24  1  0
 24 25  2  0
 25 26  1  0
 26 27  2  0
 28 29  1  0
 29 30  1  0
 30 31  1  0
 31 32  1  0
 32 33  1  0
 33 34  2  0
 33 35  1  0
 35 36  1  0
M  END
>  <DRUGBANK_ID>  (1) 
DB17118

>  <COMMON_NAME>  (1) 
Ivaltinostat

>  <CAS_NUMBER>  (1) 
936221-33-9

>  <SYNONYMS>  (1) 
(E)-N-(3-(DIMETHYLAMINO)PROPYL)-N'-HYDROXY-2-((1-NAPHTHYLOXY)METHYL)-2-OCTENEDIAMIDE; 2-OCTENEDIAMIDE, N1-(3-(DIMETHYLAMINO)PROPYL)-N8-HYDROXY-2-((1-NAPHTHALENYLOXY)METHYL)-, (2E)-

$$$$
