
     RDKit          3D

 13  6  0  0  0  0  0  0  0  0999 V2000
    0.2881   -0.9335   -1.2766 C   0  0  0  0  0  0  0  0  0  0  0  0
   -0.0785   -0.3118   -2.5451 C   0  0  0  0  0  0  0  0  0  0  0  0
   -0.9036   -0.9723   -3.1478 O   0  0  0  0  0  0  0  0  0  0  0  0
    0.4493    0.8709   -2.6773 O   0  0  0  0  0  0  0  0  0  0  0  0
    3.1284    0.6672    1.7678 O   0  0  0  0  0  0  0  0  0  0  0  0
    3.9323    0.3074    0.7950 C   0  0  0  0  0  0  0  0  0  0  0  0
    4.1113    1.3884   -0.3891 C   0  0  0  0  0  0  0  0  0  0  0  0
    0.7942   -0.2759    2.2190 Mg  0  0  0  0  0 15  0  0  0  0  0  0
   -0.8452    0.4054    1.1299 O   0  0  0  0  0  0  0  0  0  0  0  0
    1.7563    0.3051    0.0251 O   0  0  0  0  0  0  0  0  0  0  0  0
    4.0504   -0.9082    0.4587 O   0  0  0  0  0  0  0  0  0  0  0  0
    1.4521   -1.7131    1.2190 O   0  0  0  0  0  0  0  0  0  0  0  0
    0.8520    2.4788   -0.3646 O   0  0  0  0  0  0  0  0  0  0  0  0
  2  1  1  0
  3  2  1  0
  4  2  2  0
  5  6  1  0
  6  7  1  0
  6 11  2  0
M  CHG  3   3  -1   5  -1   8   2
M  END
>  <DRUGBANK_ID>  (1) 
DB09409

>  <COMMON_NAME>  (1) 
Magnesium acetate tetrahydrate

>  <CAS_NUMBER>  (1) 
16674-78-5

>  <UNII>  (1) 
I01G0EJC3B

>  <SYNONYMS>  (1) 
Acetic acid, magnesium salt, tetrahydrate; Magnesium diacetate tetrahydrate

$$$$
