
     RDKit          3D

 31 33  0  0  0  0  0  0  0  0999 V2000
    0.9340    0.0288   -0.0523 C   0  0  0  0  0  0  0  0  0  0  0  0
    0.4967    1.3530    0.5562 C   0  0  0  0  0  0  0  0  0  0  0  0
    1.0338    2.5312   -0.1350 N   0  0  0  0  0  0  0  0  0  0  0  0
    0.3950    3.7707    0.3562 C   0  0  0  0  0  0  0  0  0  0  0  0
    0.4994    4.0230    1.8564 C   0  0  0  0  0  0  0  0  0  0  0  0
    2.5178    2.5787   -0.2121 C   0  0  0  0  0  0  0  0  0  0  0  0
    3.2651    2.6695    1.1093 C   0  0  0  0  0  0  0  0  0  0  0  0
    3.4835    1.5347    1.9006 C   0  0  0  0  0  0  0  0  0  0  0  0
    3.8947    1.6600    3.2263 C   0  0  0  0  0  0  0  0  0  0  0  0
    4.0842    2.9252    3.7931 C   0  0  0  0  0  0  0  0  0  0  0  0
    4.4746    3.0665    5.1261 C   0  0  0  0  0  0  0  0  0  0  0  0
    4.5855    4.3370    5.7061 C   0  0  0  0  0  0  0  0  0  0  0  0
    4.2350    5.4689    4.9668 C   0  0  0  0  0  0  0  0  0  0  0  0
    3.8488    5.3382    3.6375 C   0  0  0  0  0  0  0  0  0  0  0  0
    3.8596    4.0790    3.0157 C   0  0  0  0  0  0  0  0  0  0  0  0
    3.5636    3.9333    1.6501 C   0  0  0  0  0  0  0  0  0  0  0  0
    5.0274    4.4782    7.1332 C   0  0  0  0  0  0  0  0  0  0  0  0
    4.1794    3.7364    8.0168 O   0  0  0  0  0  0  0  0  0  0  0  0
    2.8851    4.1558    8.1372 C   0  0  0  0  0  0  0  0  0  0  0  0
    2.4079    5.1274    7.5880 O   0  0  0  0  0  0  0  0  0  0  0  0
    2.1123    3.3161    8.9154 N   0  0  0  0  0  0  0  0  0  0  0  0
    2.5509    2.3319    9.8098 C   0  0  0  0  0  0  0  0  0  0  0  0
    3.7556    2.4927   10.4739 C   0  0  0  0  0  0  0  0  0  0  0  0
    4.1264    1.6321   11.5004 C   0  0  0  0  0  0  0  0  0  0  0  0
    3.3705    0.5084   11.8289 C   0  0  0  0  0  0  0  0  0  0  0  0
    2.1328    0.3610   11.1695 C   0  0  0  0  0  0  0  0  0  0  0  0
    1.7272    1.2630   10.1642 C   0  0  0  0  0  0  0  0  0  0  0  0
    3.8008   -0.5616   12.7951 C   0  0  0  0  0  0  0  0  0  0  0  0
    3.0394   -1.5115   12.9957 O   0  0  0  0  0  0  0  0  0  0  0  0
    5.0162   -0.5826   13.4228 N   0  0  0  0  0  0  0  0  0  0  0  0
    6.0207    0.3835   13.4217 O   0  0  0  0  0  0  0  0  0  0  0  0
  1  2  1  0
  2  3  1  0
  3  4  1  0
  3  6  1  0
  4  5  1  0
  6  7  1  0
  7  8  2  0
  7 16  1  0
  8  9  1  0
  9 10  2  0
 10 11  1  0
 10 15  1  0
 11 12  2  0
 12 13  1  0
 12 17  1  0
 13 14  2  0
 14 15  1  0
 15 16  2  0
 17 18  1  0
 18 19  1  0
 19 20  2  0
 19 21  1  0
 21 22  1  0
 22 23  2  0
 22 27  1  0
 23 24  1  0
 24 25  2  0
 25 26  1  0
 25 28  1  0
 26 27  2  0
 28 29  2  0
 28 30  1  0
 30 31  1  0
M  END
>  <DRUGBANK_ID>  (1) 
DB12645

>  <COMMON_NAME>  (1) 
Givinostat

>  <CAS_NUMBER>  (1) 
497833-27-9

>  <UNII>  (1) 
5P60F84FBH

>  <SYNONYMS>  (1) 
Givinostat

$$$$
