
     RDKit          3D

  9  8  0  0  0  0  0  0  0  0999 V2000
    0.1809    0.0019    0.1849 N   0  0  0  0  0  0  0  0  0  0  0  0
   -1.1041   -0.9248   -1.3470 N   0  0  0  0  0  0  0  0  0  0  0  0
    0.1142   -0.7089   -0.9901 C   0  0  0  0  0  0  0  0  0  0  0  0
    1.1495   -1.1986   -1.7996 N   0  0  0  0  0  0  0  0  0  0  0  0
    3.0158   -1.9684   -3.0722 N   0  0  0  0  0  0  0  0  0  0  0  0
    2.5378   -1.3429   -2.0381 C   0  0  0  0  0  0  0  0  0  0  0  0
    3.1361   -0.1100   -0.0001 C   0  0  0  0  0  0  0  0  0  0  0  0
    3.4866   -0.8156   -1.1665 N   0  0  0  0  0  0  0  0  0  0  0  0
    4.9261   -0.8988   -1.3041 C   0  0  0  0  0  0  0  0  0  0  0  0
  1  3  1  0
  3  2  2  0
  3  4  1  0
  4  6  1  0
  6  5  2  0
  6  8  1  0
  8  7  1  0
  8  9  1  0
M  END
>  <DRUGBANK_ID>  (1) 
DB00331

>  <SECONDARY_ACCESSION_NUMBERS>  (1) 
APRD01099

>  <COMMON_NAME>  (1) 
Metformin

>  <CAS_NUMBER>  (1) 
657-24-9

>  <UNII>  (1) 
9100L32L2N

>  <SYNONYMS>  (1) 
1,1-Dimethylbiguanide; Dimethylbiguanid; Metformin; Metformina; Metformine; Metforminum

$$$$
