
     RDKit          3D

 35 36  0  0  1  0  0  0  0  0999 V2000
   -0.6819   -1.3591    0.6689 C   0  0  0  0  0  0  0  0  0  0  0  0
    0.1815    2.3670   -4.1158 C   0  0  0  0  0  0  0  0  0  0  0  0
   -1.5130   -0.0022    0.6401 C   0  0  1  0  0  0  0  0  0  0  0  0
    0.5614   -1.3516    0.3365 C   0  0  0  0  0  0  0  0  0  0  0  0
    0.3140    2.0166   -2.6876 C   0  0  2  0  0  0  0  0  0  0  0  0
    2.1720   -0.3030   -1.6943 C   0  0  2  0  0  0  0  0  0  0  0  0
    2.6727    0.8551   -2.4195 C   0  0  2  0  0  0  0  0  0  0  0  0
   -1.0319    1.4419    0.0647 C   0  0  2  0  0  0  0  0  0  0  0  0
    1.6916    1.9937   -2.0945 C   0  0  2  0  0  0  0  0  0  0  0  0
    1.7058   -2.6735    0.0716 C   0  0  0  0  0  0  0  0  0  0  0  0
    0.4360   -0.4121   -2.4472 C   0  0  1  0  0  0  0  0  0  0  0  0
    0.3959    1.1487   -0.0291 C   0  0  1  0  0  0  0  0  0  0  0  0
    2.7352    0.1027    0.0911 N   0  0  0  0  0  0  0  0  0  0  0  0
   -2.6446   -0.3481   -0.1426 O   0  0  0  0  0  0  0  0  0  0  0  0
    2.8037    0.5440   -3.7998 O   0  0  0  0  0  0  0  0  0  0  0  0
    1.1323   -3.8060    0.1243 O   0  0  0  0  0  0  0  0  0  0  0  0
    2.9455   -2.4442   -0.1051 O   0  0  0  0  0  0  0  0  0  0  0  0
   -0.5146   -1.5022   -2.2842 O   0  0  0  0  0  0  0  0  0  0  0  0
    2.7981    1.1854    2.6432 O   0  0  0  0  0  0  0  0  0  0  0  0
    3.9665    2.3944    0.7795 O   0  0  0  0  0  0  0  0  0  0  0  0
    1.6329    2.6477    1.2653 O   0  0  0  0  0  0  0  0  0  0  0  0
   -0.4750    5.1564   -4.4000 O   0  0  0  0  0  0  0  0  0  0  0  0
    1.0092    4.8070   -2.4791 O   0  0  0  0  0  0  0  0  0  0  0  0
    1.9390    5.6178   -4.5823 O   0  0  0  0  0  0  0  0  0  0  0  0
   -0.5005    2.9005    2.8486 O   0  0  0  0  0  0  0  0  0  0  0  0
    0.1001    4.5506    1.0759 O   0  0  0  0  0  0  0  0  0  0  0  0
   -2.0964    4.5430    2.0294 O   0  0  0  0  0  0  0  0  0  0  0  0
    1.1254    3.3441   -4.4623 O   0  0  0  0  0  0  0  0  0  0  0  0
   -0.3741    0.7739   -2.5020 O   0  0  0  0  0  0  0  0  0  0  0  0
    0.6878   -0.1825   -0.3487 O   0  0  0  0  0  0  0  0  0  0  0  0
    1.2978    2.0652   -0.7358 O   0  0  0  0  0  0  0  0  0  0  0  0
   -1.5295    2.6614    0.6323 O   0  0  0  0  0  0  0  0  0  0  0  0
    2.7314    1.7634    1.2894 S   0  0  0  0  0  0  0  0  0  0  0  0
    0.8742    4.8733   -3.9237 S   0  0  0  0  0  0  0  0  0  0  0  0
   -0.9199    3.7312    1.7143 S   0  0  0  0  0  0  0  0  0  0  0  0
  3  1  1  0
  3 14  1  6
  4  1  2  0
  5  2  1  6
  6 13  1  1
  7  6  1  0
  7 15  1  6
  8  3  1  0
  8 32  1  1
  9  5  1  0
  9  7  1  0
  9 31  1  1
 10  4  1  0
 11  6  1  0
 11 18  1  1
 12  8  1  0
 12 31  1  6
 16 10  2  0
 17 10  1  0
 28  2  1  0
 29  5  1  0
 29 11  1  0
 30  4  1  0
 30 12  1  0
 33 13  1  0
 33 19  1  0
 33 20  2  0
 33 21  2  0
 34 22  1  0
 34 23  2  0
 34 24  2  0
 34 28  1  0
 35 25  1  0
 35 26  2  0
 35 27  2  0
 35 32  1  0
M  CHG  4  17  -1  19  -1  22  -1  25  -1
M  END
>  <DRUGBANK_ID>  (1) 
DB02322

>  <SECONDARY_ACCESSION_NUMBERS>  (1) 
EXPT01674

>  <COMMON_NAME>  (1) 
Heparin Disaccharide I-S

$$$$
