
     RDKit          3D

 40 39  0  0  0  0  0  0  0  0999 V2000
    1.0829    0.5001   -0.3204 C   0  0  0  0  0  0  0  0  0  0  0  0
    1.3944    1.7020    1.7244 C   0  0  0  0  0  0  0  0  0  0  0  0
    1.4155    0.3795    2.6253 C   0  0  0  0  0  0  0  0  0  0  0  0
   -1.6234   -2.4224    2.2806 C   0  0  0  0  0  0  0  0  0  0  0  0
   -0.7932   -0.4686    0.8496 C   0  0  0  0  0  0  0  0  0  0  0  0
    0.5474   -1.5055    1.2569 C   0  0  0  0  0  0  0  0  0  0  0  0
   -0.9582   -0.3133    3.6936 C   0  0  0  0  0  0  0  0  0  0  0  0
   -1.2610    1.0162    2.8364 C   0  0  0  0  0  0  0  0  0  0  0  0
    0.7472    1.6626    0.3796 O   0  0  0  0  0  0  0  0  0  0  0  0
    1.5876   -0.9951    2.1732 O   0  0  0  0  0  0  0  0  0  0  0  0
   -1.4007    0.7548    1.3838 O   0  0  0  0  0  0  0  0  0  0  0  0
   -0.8538   -1.7996    3.3651 O   0  0  0  0  0  0  0  0  0  0  0  0
    0.3536   -0.2175   -1.4845 C   0  0  0  0  0  0  0  0  0  0  0  0
   -2.9286   -1.7312    1.8158 C   0  0  0  0  0  0  0  0  0  0  0  0
    2.9199   -0.4789   -2.7709 C   0  0  0  0  0  0  0  0  0  0  0  0
   -3.3344   -1.7947    5.0708 C   0  0  0  0  0  0  0  0  0  0  0  0
    0.9392   -1.5231   -1.7965 O   0  0  0  0  0  0  0  0  0  0  0  0
    2.3797   -1.5627   -1.8376 C   0  0  0  0  0  0  0  0  0  0  0  0
   -3.7222   -0.7915    2.5348 O   0  0  0  0  0  0  0  0  0  0  0  0
   -3.6208   -0.6739    3.9880 C   0  0  0  0  0  0  0  0  0  0  0  0
   -3.2445   -3.1817    4.5824 O   0  0  0  0  0  0  0  0  0  0  0  0
   -4.0388   -3.6591    3.3993 C   0  0  0  0  0  0  0  0  0  0  0  0
   -5.3823   -3.2035    2.4824 C   0  0  0  0  0  0  0  0  0  0  0  0
    3.2428    1.3591   -1.0163 C   0  0  0  0  0  0  0  0  0  0  0  0
    4.6987    1.2706   -0.9545 C   0  0  0  0  0  0  0  0  0  0  0  0
    4.9217    3.9394    0.0493 C   0  0  0  0  0  0  0  0  0  0  0  0
    4.4689    3.6755   -1.3921 C   0  0  0  0  0  0  0  0  0  0  0  0
   -6.2388   -2.1134    3.1171 O   0  0  0  0  0  0  0  0  0  0  0  0
   -5.9134   -2.7348    5.9358 C   0  0  0  0  0  0  0  0  0  0  0  0
   -6.0509   -1.7448    4.5653 C   0  0  0  0  0  0  0  0  0  0  0  0
    6.4770    6.3818   -0.4714 C   0  0  0  0  0  0  0  0  0  0  0  0
    6.9862    5.0007   -0.8792 C   0  0  0  0  0  0  0  0  0  0  0  0
   -5.5446   -4.1313    5.8412 O   0  0  0  0  0  0  0  0  0  0  0  0
   -7.4879   -4.5220    4.1485 C   0  0  0  0  0  0  0  0  0  0  0  0
   -6.0552   -4.6755    4.6525 C   0  0  0  0  0  0  0  0  0  0  0  0
   -8.1100   -3.2440    4.2303 O   0  0  0  0  0  0  0  0  0  0  0  0
    2.6614    0.9940   -2.3947 C   0  0  0  0  0  0  0  0  0  0  0  0
    5.0936    2.3518   -1.8872 C   0  0  0  0  0  0  0  0  0  0  0  0
    6.4502    3.9295    0.0757 C   0  0  0  0  0  0  0  0  0  0  0  0
    6.9402    6.7040    0.9385 C   0  0  0  0  0  0  0  0  0  0  0  0
  1  9  1  0
  1 13  1  0
  2  3  1  0
  2  9  1  0
  4 12  1  0
  5  6  1  0
  7  8  1  0
  8 11  1  0
 10  6  1  0
 10  3  1  0
 11  5  1  0
 12  7  1  0
 14  4  1  0
 15 37  1  0
 15 18  1  0
 16 20  1  0
 17 13  1  0
 17 18  1  0
 19 14  1  0
 20 19  1  0
 21 16  1  0
 21 22  1  0
 22 23  1  0
 23 28  1  0
 24 37  1  0
 24 25  1  0
 26 39  1  0
 26 27  1  0
 29 30  1  0
 30 28  1  0
 31 32  1  0
 32 39  1  0
 33 29  1  0
 33 35  1  0
 34 36  1  0
 34 35  1  0
 38 25  1  0
 38 27  1  0
 40 31  1  0
M  END
>  <DRUGBANK_ID>  (1) 
DB06811

>  <COMMON_NAME>  (1) 
Polidocanol

>  <CAS_NUMBER>  (1) 
9002-92-0

>  <UNII>  (1) 
0AWH8BFG9A

>  <SYNONYMS>  (1) 
Aethoxy-sklerol; Laureth 9; Laureth-9; Macrogol 9 lauryl ether; Nonaethylene glycol monododecyl ether; Nonaethylene glycol monolauryl ether; PEG-9 lauryl ether; Polidocanol; Polydocanol; Polyethylene glycol 450 lauryl ether; Polyoxyl 9 lauryl ether

$$$$
