
     RDKit          3D

 31 34  0  0  1  0  0  0  0  0999 V2000
    2.5559   -2.9640   -0.0092 C   0  0  0  0  0  0  0  0  0  0  0  0
    3.2786   -1.8148    0.5109 C   0  0  1  0  0  0  0  0  0  0  0  0
    3.2687   -0.9120   -0.8595 C   0  0  0  0  0  0  0  0  0  0  0  0
    2.1001   -0.2406   -0.1771 C   0  0  2  0  0  0  0  0  0  0  0  0
    0.7880   -1.6456   -0.1130 C   0  0  1  0  0  0  0  0  0  0  0  0
    1.2918   -2.8602    0.7928 C   0  0  0  0  0  0  0  0  0  0  0  0
    2.2619    1.3237   -0.5054 C   0  0  0  0  0  0  0  0  0  0  0  0
    1.2007    1.7325    0.4286 C   0  0  0  0  0  0  0  0  0  0  0  0
   -0.0701    0.7820    0.0678 C   0  0  0  0  0  0  0  0  0  0  0  0
   -0.3148   -0.6890    0.1248 C   0  0  0  0  0  0  0  0  0  0  0  0
   -1.0926    1.8253   -0.3761 C   0  0  2  0  0  0  0  0  0  0  0  0
   -2.4387    0.6725   -0.5118 C   0  0  1  0  0  0  0  0  0  0  0  0
   -2.6431   -0.7011    0.3359 C   0  0  0  0  0  0  0  0  0  0  0  0
   -1.6163   -1.6214    0.0143 C   0  0  0  0  0  0  0  0  0  0  0  0
   -1.7994    2.4072    0.7465 C   0  0  0  0  0  0  0  0  0  0  0  0
   -3.1725    2.3516    1.1664 C   0  0  0  0  0  0  0  0  0  0  0  0
   -3.6785    1.1754    0.4041 C   0  0  1  0  0  0  0  0  0  0  0  0
   -5.1979    1.2740    0.5170 C   0  0  1  0  0  0  0  0  0  0  0  0
   -5.7592    1.6951   -0.8878 C   0  0  0  0  0  0  0  0  0  0  0  0
   -5.7783   -0.0171    1.0747 C   0  0  0  0  0  0  0  0  0  0  0  0
   -5.4418    0.7402   -2.0809 C   0  0  0  0  0  0  0  0  0  0  0  0
   -5.9371   -0.6666   -1.9126 C   0  0  0  0  0  0  0  0  0  0  0  0
   -6.9084   -1.2423   -2.6221 C   0  0  0  0  0  0  0  0  0  0  0  0
   -7.4483   -2.5842   -2.2274 C   0  0  0  0  0  0  0  0  0  0  0  0
   -7.3963   -0.5518   -3.8431 C   0  0  0  0  0  0  0  0  0  0  0  0
   -2.2731   -0.0995   -1.9624 C   0  0  0  0  0  0  0  0  0  0  0  0
    0.1234   -3.2570   -0.9708 C   0  0  0  0  0  0  0  0  0  0  0  0
   -0.6679    3.6905   -0.1580 C   0  0  0  0  0  0  0  0  0  0  0  0
    2.5937   -1.3211    1.9095 O   0  0  0  0  0  0  0  0  0  0  0  0
    4.6057   -0.6411   -1.3566 C   0  0  0  0  0  0  0  0  0  0  0  0
    2.2745   -0.6584   -2.1646 C   0  0  0  0  0  0  0  0  0  0  0  0
  1  2  1  0
  2  3  1  0
  2 29  1  1
  3  4  1  0
  3 30  1  0
  3 31  1  0
  4  5  1  0
  4  7  1  6
  5  6  1  0
  5 27  1  6
  6  1  1  0
  7  8  1  0
  8  9  1  0
  9 10  2  0
  9 11  1  0
 10  5  1  0
 11 12  1  0
 11 15  1  0
 11 28  1  6
 12 13  1  0
 12 26  1  6
 13 14  1  0
 14 10  1  0
 15 16  1  0
 17 16  1  6
 17 12  1  0
 17 18  1  0
 18 19  1  0
 18 20  1  6
 19 21  1  0
 21 22  1  0
 22 23  2  3
 23 24  1  0
 23 25  1  0
M  END
>  <DRUGBANK_ID>  (1) 
DB03696

>  <SECONDARY_ACCESSION_NUMBERS>  (1) 
EXPT02002

>  <COMMON_NAME>  (1) 
Lanosterol

>  <CAS_NUMBER>  (1) 
79-63-0

>  <UNII>  (1) 
1J05Z83K3M

$$$$
