
     RDKit          3D

 12 13  0  0  0  0  0  0  0  0999 V2000
    0.9479   -0.0923   -0.1122 C   0  0  0  0  0  0  0  0  0  0  0  0
    0.5715   -1.3063   -0.7942 N   0  0  0  0  0  0  0  0  0  0  0  0
   -0.1815   -1.3462   -1.9382 C   0  0  0  0  0  0  0  0  0  0  0  0
   -0.3088   -2.5728   -2.3937 N   0  0  0  0  0  0  0  0  0  0  0  0
    0.3771   -3.3711   -1.5085 C   0  0  0  0  0  0  0  0  0  0  0  0
    0.9199   -2.5986   -0.4876 C   0  0  0  0  0  0  0  0  0  0  0  0
    1.6400   -3.1319    0.5453 N   0  0  0  0  0  0  0  0  0  0  0  0
    2.1908   -2.3443    1.6396 C   0  0  0  0  0  0  0  0  0  0  0  0
    1.7982   -4.4623    0.4915 C   0  0  0  0  0  0  0  0  0  0  0  0
    1.3214   -5.2844   -0.4649 N   0  0  0  0  0  0  0  0  0  0  0  0
    0.6000   -4.7619   -1.4844 C   0  0  0  0  0  0  0  0  0  0  0  0
    0.1246   -5.6158   -2.4484 N   0  0  0  0  0  0  0  0  0  0  0  0
  1  2  1  0
  2  3  1  0
  2  6  1  0
  3  4  2  0
  4  5  1  0
  5  6  2  0
  5 11  1  0
  6  7  1  0
  7  8  1  0
  7  9  2  0
  9 10  1  0
 10 11  2  0
 11 12  1  0
M  CHG  1   7   1
M  END
>  <DRUGBANK_ID>  (1) 
DB03730

>  <SECONDARY_ACCESSION_NUMBERS>  (1) 
EXPT00159

>  <COMMON_NAME>  (1) 
3,9-Dimethyladenine

$$$$
