
     RDKit          3D

 20 20  0  0  0  0  0  0  0  0999 V2000
    0.1136   -0.7815    1.4471 C   0  0  0  0  0  0  0  0  0  0  0  0
    0.0768    0.6337    1.6440 C   0  0  0  0  0  0  0  0  0  0  0  0
   -1.0686    1.3941    1.1671 N   0  0  0  0  0  0  0  0  0  0  0  0
   -2.2372    0.6741    0.8059 C   0  0  0  0  0  0  0  0  0  0  0  0
   -2.1486   -0.7215    0.6844 N   0  0  0  0  0  0  0  0  0  0  0  0
   -0.9742   -1.4749    0.7743 C   0  0  0  0  0  0  0  0  0  0  0  0
    1.4434   -1.1693    1.4385 N   0  0  0  0  0  0  0  0  0  0  0  0
    2.2210   -0.0620    1.5229 C   0  0  0  0  0  0  0  0  0  0  0  0
    1.4010    1.0371    1.7451 N   0  0  0  0  0  0  0  0  0  0  0  0
   -0.9240   -2.5638    0.1171 O   0  0  0  0  0  0  0  0  0  0  0  0
   -3.2574    1.2563    0.4245 O   0  0  0  0  0  0  0  0  0  0  0  0
   -3.3270   -1.4298    0.1567 C   0  0  0  0  0  0  0  0  0  0  0  0
   -1.1357    2.8902    0.8101 C   0  0  0  0  0  0  0  0  0  0  0  0
    1.1472    0.1025   -1.0398 C   0  0  0  0  0  0  0  0  0  0  0  0
    0.5548    1.1986   -1.8221 N   0  0  0  0  0  0  0  0  0  0  0  0
    1.0285    0.7080   -3.1382 C   0  0  0  0  0  0  0  0  0  0  0  0
    0.5175   -0.7833   -3.3855 C   0  0  0  0  0  0  0  0  0  0  0  0
   -0.9048   -0.9333   -3.3008 O   0  0  0  0  0  0  0  0  0  0  0  0
   -0.9699    1.2774   -1.8649 C   0  0  0  0  0  0  0  0  0  0  0  0
    1.2293    2.4906   -1.2403 C   0  0  0  0  0  0  0  0  0  0  0  0
  1  2  2  0
  1  6  1  0
  1  7  1  0
  2  3  1  0
  2  9  1  0
  3  4  1  0
  3 13  1  0
  4  5  1  0
  4 11  2  0
  5  6  1  0
  5 12  1  0
  6 10  2  0
  7  8  1  0
  8  9  2  0
 14 15  1  0
 15 16  1  0
 15 19  1  0
 15 20  1  0
 16 17  1  0
 17 18  1  0
M  CHG  2   7  -1  15   1
M  END
>  <DRUGBANK_ID>  (1) 
DB01303

>  <COMMON_NAME>  (1) 
Oxtriphylline

>  <CAS_NUMBER>  (1) 
4499-40-5

>  <UNII>  (1) 
3K045XR58X

>  <SYNONYMS>  (1) 
Choline theophyllinate; Choline theophylline; Cholini theophyllinas; Oxtriphylline; Teofilinato de colina; Theocolin; Theophyllinate de choline

$$$$
