
     RDKit          3D

 27 29  0  0  0  0  0  0  0  0999 V2000
    1.0171   -0.0793    0.0751 C   0  0  0  0  0  0  0  0  0  0  0  0
    0.6153    0.3844   -1.3197 C   0  0  0  0  0  0  0  0  0  0  0  0
    1.1088   -0.4818   -2.3722 O   0  0  0  0  0  0  0  0  0  0  0  0
    2.4664   -0.5520   -2.5142 C   0  0  0  0  0  0  0  0  0  0  0  0
    3.2407    0.0762   -1.8168 O   0  0  0  0  0  0  0  0  0  0  0  0
    2.9626   -1.5170   -3.6511 C   0  0  0  0  0  0  0  0  0  0  0  0
    1.9268   -2.2028   -4.5688 C   0  0  0  0  0  0  0  0  0  0  0  0
    1.1847   -3.2513   -3.8122 C   0  0  0  0  0  0  0  0  0  0  0  0
    1.9919   -4.2046   -3.0639 N   0  0  0  0  0  0  0  0  0  0  0  0
    2.9370   -3.5605   -2.1616 C   0  0  0  0  0  0  0  0  0  0  0  0
    3.8066   -2.6073   -2.9422 C   0  0  0  0  0  0  0  0  0  0  0  0
    1.1461   -5.1088   -2.2878 C   0  0  0  0  0  0  0  0  0  0  0  0
    0.2842   -4.4611   -1.1511 C   0  0  0  0  0  0  0  0  0  0  0  0
   -0.8258   -3.4655   -1.5710 C   0  0  0  0  0  0  0  0  0  0  0  0
   -1.7917   -4.0737   -2.5705 C   0  0  0  0  0  0  0  0  0  0  0  0
   -1.8240   -5.4645   -2.7899 C   0  0  0  0  0  0  0  0  0  0  0  0
   -2.6329   -6.0532   -3.7439 C   0  0  0  0  0  0  0  0  0  0  0  0
   -3.5549   -5.2668   -4.4040 C   0  0  0  0  0  0  0  0  0  0  0  0
   -3.5875   -3.8887   -4.1738 C   0  0  0  0  0  0  0  0  0  0  0  0
   -2.6550   -3.2788   -3.3273 C   0  0  0  0  0  0  0  0  0  0  0  0
   -1.4808   -2.9426   -0.4182 O   0  0  0  0  0  0  0  0  0  0  0  0
    3.7604   -0.6598   -4.6160 C   0  0  0  0  0  0  0  0  0  0  0  0
    3.0801    0.3829   -5.2724 C   0  0  0  0  0  0  0  0  0  0  0  0
    3.7392    1.1830   -6.1836 C   0  0  0  0  0  0  0  0  0  0  0  0
    5.0935    0.9732   -6.4169 C   0  0  0  0  0  0  0  0  0  0  0  0
    5.7837   -0.0384   -5.7507 C   0  0  0  0  0  0  0  0  0  0  0  0
    5.1106   -0.8848   -4.8858 C   0  0  0  0  0  0  0  0  0  0  0  0
  1  2  1  0
  2  3  1  0
  3  4  1  0
  4  5  2  0
  4  6  1  0
  6  7  1  0
  6 11  1  0
  6 22  1  0
  7  8  1  0
  8  9  1  0
  9 10  1  0
  9 12  1  0
 10 11  1  0
 12 13  1  0
 13 14  1  0
 14 15  1  0
 14 21  1  0
 15 16  2  0
 15 20  1  0
 16 17  1  0
 17 18  2  0
 18 19  1  0
 19 20  2  0
 22 23  2  0
 22 27  1  0
 23 24  1  0
 24 25  2  0
 25 26  1  0
 26 27  2  0
M  END
>  <DRUGBANK_ID>  (1) 
DB13605

>  <COMMON_NAME>  (1) 
Phenoperidine

>  <CAS_NUMBER>  (1) 
562-26-5

>  <UNII>  (1) 
G9BH09J4JW

>  <SYNONYMS>  (1) 
Phenoperidine

$$$$
