
     RDKit          3D

 12 11  0  0  1  0  0  0  0  0999 V2000
    3.3257   -2.9136   -1.4031 O   0  0  0  0  0  0  0  0  0  0  0  0
    2.5987   -1.7272   -1.1301 C   0  0  0  0  0  0  0  0  0  0  0  0
    1.0949   -1.7676   -1.4617 C   0  0  2  0  0  0  0  0  0  0  0  0
    0.4462   -1.5030   -0.2074 O   0  0  0  0  0  0  0  0  0  0  0  0
    0.6061   -3.0957   -2.0707 C   0  0  1  0  0  0  0  0  0  0  0  0
   -0.8329   -3.0341   -2.1372 O   0  0  0  0  0  0  0  0  0  0  0  0
    1.0971   -3.4078   -3.5034 C   0  0  0  0  0  0  0  0  0  0  0  0
    2.5920   -3.4886   -3.7939 C   0  0  0  0  0  0  0  0  0  0  0  0
    3.1526   -4.5755   -3.8885 O   0  0  0  0  0  0  0  0  0  0  0  0
    3.4447   -2.1712   -3.9131 C   0  0  0  0  0  0  0  0  0  0  0  0
    2.7412   -1.0554   -4.1839 O   0  0  0  0  0  0  0  0  0  0  0  0
    4.6431   -2.1484   -3.7762 O   0  0  0  0  0  0  0  0  0  0  0  0
  1  2  1  0
  3  5  1  0
  3  4  1  1
  3  2  1  0
  5  6  1  6
  5  7  1  0
  7  8  1  0
  8  9  2  0
  8 10  1  0
 10 11  1  0
 10 12  2  0
M  END
>  <DRUGBANK_ID>  (1) 
DB03489

>  <SECONDARY_ACCESSION_NUMBERS>  (1) 
EXPT01966

>  <COMMON_NAME>  (1) 
2-Keto-3-Deoxygluconate

>  <UNII>  (1) 
KZ7RZH5BR4

$$$$
