
     RDKit          3D

 26 29  0  0  0  0  0  0  0  0999 V2000
    2.1561   -0.6681   -0.0000 C   0  0  0  0  0  0  0  0  0  0  0  0
   -7.1103    4.8473    0.6534 C   0  0  0  0  0  0  0  0  0  0  0  0
    0.9733   -1.4200    0.0089 C   0  0  0  0  0  0  0  0  0  0  0  0
   -6.7860    3.6147    1.2440 C   0  0  0  0  0  0  0  0  0  0  0  0
    0.9168    1.4206   -0.0106 C   0  0  0  0  0  0  0  0  0  0  0  0
   -5.5737    4.4384   -1.1866 C   0  0  0  0  0  0  0  0  0  0  0  0
    2.1492    0.7377   -0.0156 C   0  0  0  0  0  0  0  0  0  0  0  0
   -6.5171    5.2693   -0.5488 C   0  0  0  0  0  0  0  0  0  0  0  0
   -0.2218   -0.7040   -0.0065 C   0  0  0  0  0  0  0  0  0  0  0  0
   -5.8498    2.7880    0.6113 C   0  0  0  0  0  0  0  0  0  0  0  0
   -0.2809    0.6826   -0.0168 C   0  0  0  0  0  0  0  0  0  0  0  0
   -5.2658    3.2150   -0.5726 C   0  0  0  0  0  0  0  0  0  0  0  0
   -3.7878   -0.0561    0.0270 C   0  0  0  0  0  0  0  0  0  0  0  0
    3.4546    1.4851   -0.0556 C   0  0  0  0  0  0  0  0  0  0  0  0
   -6.8951    6.6052   -1.1340 C   0  0  0  0  0  0  0  0  0  0  0  0
   -2.3355    0.0230   -0.0145 C   0  0  0  0  0  0  0  0  0  0  0  0
   -4.4871    1.2155    0.0509 C   0  0  0  0  0  0  0  0  0  0  0  0
    3.5466    2.7788   -0.0795 N   0  0  0  0  0  0  0  0  0  0  0  0
    4.6483    0.8378   -0.0784 N   0  0  0  0  0  0  0  0  0  0  0  0
   -6.3950    7.0808   -2.2331 N   0  0  0  0  0  0  0  0  0  0  0  0
   -7.8047    7.4154   -0.5345 N   0  0  0  0  0  0  0  0  0  0  0  0
   -1.5331   -1.0981   -0.0150 N   0  0  0  0  0  0  0  0  0  0  0  0
   -5.3827    1.5480    0.9688 N   0  0  0  0  0  0  0  0  0  0  0  0
   -1.5909    1.1183   -0.0437 N   0  0  0  0  0  0  0  0  0  0  0  0
   -4.4045    2.1990   -0.9100 N   0  0  0  0  0  0  0  0  0  0  0  0
   -4.3629   -1.1487    0.0312 O   0  0  0  0  0  0  0  0  0  0  0  0
  3  1  2  0
  4  2  2  0
  7  1  1  0
  7  5  2  0
  8  2  1  0
  8  6  2  0
  9  3  1  0
 10  4  1  0
 11  5  1  0
 11  9  2  0
 12  6  1  0
 12 10  2  0
 14  7  1  0
 15  8  1  0
 16 13  1  0
 17 13  1  0
 18 14  2  0
 19 14  1  0
 20 15  2  0
 21 15  1  0
 22  9  1  0
 22 16  1  0
 23 10  1  0
 23 17  2  0
 24 11  1  0
 24 16  2  0
 25 12  1  0
 25 17  1  0
 26 13  2  0
M  END
>  <DRUGBANK_ID>  (1) 
DB01876

>  <SECONDARY_ACCESSION_NUMBERS>  (1) 
EXPT00626

>  <COMMON_NAME>  (1) 
Bis(5-Amidino-2-Benzimidazolyl)Methanone

$$$$
