
     RDKit          3D

 21 21  0  0  0  0  0  0  0  0999 V2000
    0.3271    1.2325   -0.1739 O   0  0  0  0  0  0  0  0  0  0  0  0
    1.1984    0.0900    0.2457 C   0  0  2  0  0  0  0  0  0  0  0  0
    0.6591   -1.2425   -0.3336 C   0  0  1  0  0  0  0  0  0  0  0  0
   -0.8440   -1.3693   -0.0192 C   0  0  2  0  0  0  0  0  0  0  0  0
   -1.6619   -0.1788   -0.5278 C   0  0  0  0  0  0  0  0  0  0  0  0
   -1.8034    2.4223   -0.7446 C   0  0  0  0  0  0  0  0  0  0  0  0
   -1.0618   -1.5152    1.3898 O   0  0  0  0  0  0  0  0  0  0  0  0
   -1.4412    3.6536   -0.2579 O   0  0  0  0  0  0  0  0  0  0  0  0
   -2.7498    2.3340   -1.5509 O   0  0  0  0  0  0  0  0  0  0  0  0
    1.6803    0.0131    1.8037 C   0  0  1  0  0  0  0  0  0  0  0  0
    1.3598    1.2437    2.7018 C   0  0  1  0  0  0  0  0  0  0  0  0
    1.2798   -1.1961    2.4710 O   0  0  0  0  0  0  0  0  0  0  0  0
   -0.0741    1.5760    2.6157 C   0  0  0  0  0  0  0  0  0  0  0  0
    1.5098    0.9985    4.0879 O   0  0  0  0  0  0  0  0  0  0  0  0
   -0.9555    0.5268    3.0260 O   0  0  0  0  0  0  0  0  0  0  0  0
   -1.1474    1.1673   -0.0910 C   0  0  2  0  0  0  0  0  0  0  0  0
   -1.9546    1.6255    1.0698 O   0  0  0  0  0  0  0  0  0  0  0  0
    0.8486   -1.3235   -1.7936 N   0  0  0  0  0  0  0  0  0  0  0  0
    1.3375   -2.4328   -3.9080 C   0  0  0  0  0  0  0  0  0  0  0  0
    1.3692   -2.4464   -2.4012 C   0  0  0  0  0  0  0  0  0  0  0  0
    1.8264   -3.3970   -1.7788 O   0  0  0  0  0  0  0  0  0  0  0  0
  2  1  1  1
  2  3  1  0
  2 10  1  0
  3 18  1  6
  3  4  1  0
  4  5  1  0
  4  7  1  1
  6  8  1  0
  6  9  2  0
 10 11  1  0
 10 12  1  1
 11 13  1  0
 11 14  1  1
 13 15  1  0
 16  1  1  0
 16  5  1  0
 16 17  1  1
 16  6  1  0
 18 20  1  0
 20 19  1  0
 20 21  2  0
M  END
>  <DRUGBANK_ID>  (1) 
DB03721

>  <SECONDARY_ACCESSION_NUMBERS>  (1) 
EXPT02292; EXPT02908; EXPT02909; DB01894; DB02344

>  <COMMON_NAME>  (1) 
N-acetyl-alpha-neuraminic acid

>  <CAS_NUMBER>  (1) 
21646-00-4

>  <UNII>  (1) 
04A90EXP8V

>  <SYNONYMS>  (1) 
N-Acetyl-alpha-D-neuraminic acid; O-sialic acid; Î±-Neu5Ac

$$$$
