
     RDKit          3D

 26 28  0  0  1  0  0  0  0  0999 V2000
   -1.1629   -1.0564    0.8470 C   0  0  0  0  0  0  0  0  0  0  0  0
    0.3134   -1.3465    0.5429 C   0  0  1  0  0  0  0  0  0  0  0  0
    0.8171   -1.9113    1.8900 C   0  0  0  0  0  0  0  0  0  0  0  0
    1.0885   -1.2613    2.8901 O   0  0  0  0  0  0  0  0  0  0  0  0
    0.9208   -3.2670    1.7824 N   0  0  0  0  0  0  0  0  0  0  0  0
    0.5321   -3.6680    0.5522 C   0  0  0  0  0  0  0  0  0  0  0  0
    0.3232   -4.8194    0.1979 O   0  0  0  0  0  0  0  0  0  0  0  0
    0.4244   -2.5528   -0.2406 N   0  0  0  0  0  0  0  0  0  0  0  0
    0.9561   -0.0856   -0.0297 C   0  0  0  0  0  0  0  0  0  0  0  0
    2.3824   -0.2432   -1.1080 S   0  0  0  0  0  0  0  0  0  0  0  0
    2.0412   -1.1908   -2.1491 O   0  0  0  0  0  0  0  0  0  0  0  0
    2.7760    1.1083   -1.4505 O   0  0  0  0  0  0  0  0  0  0  0  0
    3.6519   -0.9000   -0.1699 N   0  0  0  0  0  0  0  0  0  0  0  0
    3.4389   -0.7913    1.2689 C   0  0  0  0  0  0  0  0  0  0  0  0
    4.5654   -1.2214    2.1246 C   0  0  0  0  0  0  0  0  0  0  0  0
    5.0861   -2.6077    1.7613 C   0  0  0  0  0  0  0  0  0  0  0  0
    5.2745   -2.7450    0.2472 C   0  0  0  0  0  0  0  0  0  0  0  0
    4.0501   -2.2887   -0.5476 C   0  0  0  0  0  0  0  0  0  0  0  0
    6.2497   -2.9780    2.5326 O   0  0  0  0  0  0  0  0  0  0  0  0
    7.3481   -2.1743    2.3520 C   0  0  0  0  0  0  0  0  0  0  0  0
    7.3639   -0.8524    2.7834 C   0  0  0  0  0  0  0  0  0  0  0  0
    8.4135   -0.0222    2.4211 C   0  0  0  0  0  0  0  0  0  0  0  0
    9.5110   -0.5889    1.8040 C   0  0  0  0  0  0  0  0  0  0  0  0
    9.4798   -1.9508    1.5333 C   0  0  0  0  0  0  0  0  0  0  0  0
    8.4066   -2.7540    1.7610 N   0  0  0  0  0  0  0  0  0  0  0  0
   10.8806    0.3730    1.4395 Cl  0  0  0  0  0  0  0  0  0  0  0  0
  2  3  1  0
  2  8  1  0
  2  9  1  0
  2  1  1  1
  3  4  2  0
  3  5  1  0
  5  6  1  0
  6  7  2  0
  6  8  1  0
  9 10  1  0
 10 11  2  0
 10 12  2  0
 10 13  1  0
 13 14  1  0
 13 18  1  0
 14 15  1  0
 15 16  1  0
 16 17  1  0
 16 19  1  0
 17 18  1  0
 19 20  1  0
 20 21  2  0
 20 25  1  0
 21 22  1  0
 22 23  2  0
 23 24  1  0
 23 26  1  0
 24 25  2  0
M  END
>  <DRUGBANK_ID>  (1) 
DB11961

>  <COMMON_NAME>  (1) 
AZD-1236

>  <CAS_NUMBER>  (1) 
459814-89-2

>  <UNII>  (1) 
B4OQY51WZS

$$$$
