
     RDKit          3D

 17 18  0  0  0  0  0  0  0  0999 V2000
   -2.2603    0.4533   -0.2393 O   0  0  0  0  0  0  0  0  0  0  0  0
   -1.1030    0.1049   -0.1081 C   0  0  0  0  0  0  0  0  0  0  0  0
   -0.6629   -1.2914   -0.0218 C   0  0  0  0  0  0  0  0  0  0  0  0
    0.6707   -1.2940   -0.0178 C   0  0  0  0  0  0  0  0  0  0  0  0
    1.1243    0.1013   -0.0463 C   0  0  0  0  0  0  0  0  0  0  0  0
    0.0125    0.8727   -0.0625 N   0  0  0  0  0  0  0  0  0  0  0  0
    2.2939    0.4297   -0.0325 O   0  0  0  0  0  0  0  0  0  0  0  0
    0.0083    2.3066   -0.0714 C   0  0  0  0  0  0  0  0  0  0  0  0
    0.6123    2.8199    1.1135 O   0  0  0  0  0  0  0  0  0  0  0  0
   -0.0469    2.4381    2.3187 C   0  0  0  0  0  0  0  0  0  0  0  0
   -1.3970    2.9201    2.3278 N   0  0  0  0  0  0  0  0  0  0  0  0
   -1.7533    4.2263    2.3282 C   0  0  0  0  0  0  0  0  0  0  0  0
   -1.0545    5.2182    2.3405 O   0  0  0  0  0  0  0  0  0  0  0  0
   -3.2204    4.2624    2.2868 C   0  0  0  0  0  0  0  0  0  0  0  0
   -3.6617    3.0039    2.2841 C   0  0  0  0  0  0  0  0  0  0  0  0
   -2.4920    2.1252    2.3793 C   0  0  0  0  0  0  0  0  0  0  0  0
   -2.5484    0.9183    2.5221 O   0  0  0  0  0  0  0  0  0  0  0  0
  1  2  2  0
  2  3  1  0
  3  4  2  0
  4  5  1  0
  5  6  1  0
  5  7  2  0
  6  2  1  0
  8  9  1  0
  8  6  1  0
  9 10  1  0
 10 11  1  0
 11 12  1  0
 12 13  2  0
 12 14  1  0
 14 15  2  0
 15 16  1  0
 16 11  1  0
 16 17  2  0
M  END
>  <DRUGBANK_ID>  (1) 
DB04085

>  <SECONDARY_ACCESSION_NUMBERS>  (1) 
EXPT02445

>  <COMMON_NAME>  (1) 
Bis(N-maleimidomethyl)ether

>  <CAS_NUMBER>  (1) 
15209-14-0

>  <UNII>  (1) 
5AO12W9Y4D

>  <SYNONYMS>  (1) 
N,N'-(Oxydimethylene)dimaleimide

$$$$
