
     RDKit          3D

 19 20  0  0  0  0  0  0  0  0999 V2000
   -0.0656   -0.5854    0.0306 C   0  0  0  0  0  0  0  0  0  0  0  0
   -0.0671    0.8207    0.1068 C   0  0  0  0  0  0  0  0  0  0  0  0
    1.1249   -1.2404   -0.2379 N   0  0  0  0  0  0  0  0  0  0  0  0
   -1.2638   -1.3220    0.0991 C   0  0  0  0  0  0  0  0  0  0  0  0
    1.1594    1.5015    0.0826 C   0  0  0  0  0  0  0  0  0  0  0  0
   -1.3120    1.4501    0.0886 C   0  0  0  0  0  0  0  0  0  0  0  0
    2.3497   -0.5632   -0.1474 C   0  0  0  0  0  0  0  0  0  0  0  0
    1.0336   -2.4339   -0.6732 O   0  0  0  0  0  0  0  0  0  0  0  0
   -2.4740   -0.6760   -0.0277 C   0  0  0  0  0  0  0  0  0  0  0  0
    2.3615    0.8254   -0.0105 C   0  0  0  0  0  0  0  0  0  0  0  0
    1.1615    2.8696    0.1080 O   0  0  0  0  0  0  0  0  0  0  0  0
   -2.4851    0.7139   -0.1072 C   0  0  0  0  0  0  0  0  0  0  0  0
    3.6537   -1.3156   -0.1832 C   0  0  0  0  0  0  0  0  0  0  0  0
    3.8672   -2.1842    1.0669 C   0  0  0  0  0  0  0  0  0  0  0  0
    2.8634   -3.3304    1.1737 C   0  0  0  0  0  0  0  0  0  0  0  0
    2.8803   -4.1981   -0.1045 C   0  0  0  0  0  0  0  0  0  0  0  0
    4.1840   -4.9565   -0.2583 C   0  0  0  0  0  0  0  0  0  0  0  0
    4.4058   -5.8731    0.9319 C   0  0  0  0  0  0  0  0  0  0  0  0
    3.2658   -6.8739    1.0509 C   0  0  0  0  0  0  0  0  0  0  0  0
  1  2  1  0
  1  3  2  0
  1  4  1  0
  2  5  2  0
  2  6  1  0
  3  7  1  0
  3  8  1  0
  4  9  2  0
  5 10  1  0
  5 11  1  0
  6 12  2  0
  7 13  1  0
  7 10  2  0
  9 12  1  0
 13 14  1  0
 14 15  1  0
 15 16  1  0
 16 17  1  0
 17 18  1  0
 18 19  1  0
M  CHG  2   3   1   8  -1
M  END
>  <DRUGBANK_ID>  (1) 
DB07918

>  <COMMON_NAME>  (1) 
2-heptyl-4-hydroxyquinoline N-oxide

>  <CAS_NUMBER>  (1) 
341-88-8

>  <UNII>  (1) 
1FU5S5CG6A

>  <SYNONYMS>  (1) 
2-(n-heptyl)-4-hydroxyquinoline N-oxide; 2-heptyl-4-hydroxyquinoline N-oxide; 2-heptyl-4-hydroxyquinoline-N-oxide; 2-heptyl-4-quinolinol 1-oxide; HOQNO; HQNO

$$$$
