
     RDKit          3D

 26 30  0  0  1  0  0  0  0  0999 V2000
   -0.6659    1.8977    1.1090 C   0  0  0  0  0  0  0  0  0  0  0  0
   -0.8531    3.2575    1.8858 C   0  0  1  0  0  0  0  0  0  0  0  0
    0.3212    4.2312    2.2300 C   0  0  0  0  0  0  0  0  0  0  0  0
    1.3675    3.6449    1.3432 C   0  0  0  0  0  0  0  0  0  0  0  0
    1.4861    2.0252    1.7006 C   0  0  1  0  0  0  0  0  0  0  0  0
    0.0683    1.0694    2.0912 C   0  0  0  0  0  0  0  0  0  0  0  0
    1.6724    4.3760    0.3209 C   0  0  0  0  0  0  0  0  0  0  0  0
    2.0965    3.8594   -1.0370 C   0  0  0  0  0  0  0  0  0  0  0  0
    1.6235    2.4309   -1.0897 C   0  0  2  0  0  0  0  0  0  0  0  0
    2.1231    1.4413    0.2319 C   0  0  2  0  0  0  0  0  0  0  0  0
    1.6924   -0.1893   -1.6216 C   0  0  0  0  0  0  0  0  0  0  0  0
    1.6334   -0.0224   -0.1255 C   0  0  0  0  0  0  0  0  0  0  0  0
   -1.8975    3.9906    1.2954 O   0  0  0  0  0  0  0  0  0  0  0  0
    1.7659    2.0271    3.2497 C   0  0  0  0  0  0  0  0  0  0  0  0
   -0.5286   -0.2328   -2.3783 C   0  0  0  0  0  0  0  0  0  0  0  0
   -0.6336    2.3127   -2.6166 C   0  0  0  0  0  0  0  0  0  0  0  0
    0.5474    0.8189   -2.5239 C   0  0  2  0  0  0  0  0  0  0  0  0
    1.6296    1.8057   -2.5404 C   0  0  1  0  0  0  0  0  0  0  0  0
    1.1099    2.2767   -3.9331 C   0  0  0  0  0  0  0  0  0  0  0  0
   -0.4533    2.2182   -3.9352 C   0  0  0  0  0  0  0  0  0  0  0  0
   -0.6101    4.0697   -2.8778 C   0  0  0  0  0  0  0  0  0  0  0  0
   -1.1561    5.0653   -2.0535 C   0  0  0  0  0  0  0  0  0  0  0  0
   -0.0838    4.7551   -4.0641 C   0  0  0  0  0  0  0  0  0  0  0  0
   -0.9406    6.4550   -2.1650 N   0  0  0  0  0  0  0  0  0  0  0  0
    0.2553    6.1161   -4.1695 C   0  0  0  0  0  0  0  0  0  0  0  0
   -0.1614    6.9309   -3.1622 C   0  0  0  0  0  0  0  0  0  0  0  0
  1  2  1  0
  1  6  1  0
  2  3  1  0
  2 13  1  6
  3  4  1  0
  4  5  1  0
  4  7  2  0
  5  6  1  0
  5 10  1  0
  5 14  1  1
  7  8  1  0
  9  8  1  6
  9 10  1  0
  9 18  1  0
 10 12  1  6
 11 12  1  0
 16 17  1  0
 16 20  2  0
 16 21  1  0
 17 11  1  0
 17 15  1  6
 17 18  1  0
 18 19  1  6
 19 20  1  0
 22 21  2  0
 23 21  1  0
 24 22  1  0
 25 23  2  0
 26 24  2  0
 26 25  1  0
M  END
>  <DRUGBANK_ID>  (1) 
DB05812

>  <COMMON_NAME>  (1) 
Abiraterone

>  <CAS_NUMBER>  (1) 
154229-19-3

>  <UNII>  (1) 
G819A456D0

>  <SYNONYMS>  (1) 
(3Î²)-17-(pyridin-3-yl)androsta-5,16-dien-3-ol; 17-(3-Pyridyl)androsta-5,16-dien-3beta-ol; Abiraterona; Abiraterone

$$$$
