
     RDKit          3D

 10  9  0  0  1  0  0  0  0  0999 V2000
    0.9782    0.1105   -0.0083 O   0  0  0  0  0  0  0  0  0  0  0  0
    1.1299   -1.8679   -1.0476 O   0  0  0  0  0  0  0  0  0  0  0  0
   -4.9924   -2.1537    0.5347 O   0  0  0  0  0  0  0  0  0  0  0  0
   -1.5201    0.2298   -1.4303 N   0  0  0  0  0  0  0  0  0  0  0  0
   -3.8522   -1.5802   -1.3108 N   0  0  0  0  0  0  0  0  0  0  0  0
   -1.0938   -0.9295   -0.6022 C   0  0  2  0  0  0  0  0  0  0  0  0
   -1.7095   -0.9351    0.8054 C   0  0  0  0  0  0  0  0  0  0  0  0
   -3.2002   -0.5762    0.8496 C   0  0  0  0  0  0  0  0  0  0  0  0
    0.4284   -0.9866   -0.5700 C   0  0  0  0  0  0  0  0  0  0  0  0
   -4.0818   -1.5053    0.0303 C   0  0  0  0  0  0  0  0  0  0  0  0
  1  9  1  0
  2  9  2  0
  3 10  2  0
  5 10  1  0
  6  9  1  0
  6  7  1  0
  6  4  1  1
  7  8  1  0
  8 10  1  0
M  END
>  <DRUGBANK_ID>  (1) 
DB02174

>  <SECONDARY_ACCESSION_NUMBERS>  (1) 
EXPT01181

>  <COMMON_NAME>  (1) 
D-Glutamine

>  <CAS_NUMBER>  (1) 
5959-95-5

>  <UNII>  (1) 
63HB36CA2Y

>  <SYNONYMS>  (1) 
(2R)-2-amino-4-carbamoylbutanoic acid; (2R)-2,5-diamino-5-oxopentanoic acid; (R)-2,5-diamino-5-oxopentanoic acid; D-2-Aminoglutaramic acid; D-Glutamin; D-Glutamins√§ure-5-amid

$$$$
