DT5
     RDKit          3D

 27 30  0  0  0  0  0  0  0  0999 V2000
    1.0035   -0.2070   -0.0245 N   0  0  0  0  0  0  0  0  0  0  0  0
    0.3792   -1.7676    0.0735 S   0  0  0  0  0  0  0  0  0  0  0  0
    1.0355   -2.3686    1.2050 O   0  0  0  0  0  0  0  0  0  0  0  0
   -1.0625   -1.6451   -0.0078 O   0  0  0  0  0  0  0  0  0  0  0  0
    0.9335   -2.6028   -1.3873 C   0  0  0  0  0  0  0  0  0  0  0  0
    1.7109   -2.0003   -2.3799 C   0  0  0  0  0  0  0  0  0  0  0  0
    0.6270   -3.9548   -1.4804 C   0  0  0  0  0  0  0  0  0  0  0  0
    1.1402   -4.7033   -2.5369 C   0  0  0  0  0  0  0  0  0  0  0  0
    2.1474   -2.7573   -3.4920 C   0  0  0  0  0  0  0  0  0  0  0  0
    1.8446   -4.1217   -3.6033 C   0  0  0  0  0  0  0  0  0  0  0  0
    2.2599   -4.9013   -4.7086 N   0  0  0  0  0  0  0  0  0  0  0  0
    1.8313   -6.2052   -4.9814 C   0  0  0  0  0  0  0  0  0  0  0  0
    2.7431   -7.2443   -5.2146 N   0  0  0  0  0  0  0  0  0  0  0  0
    2.3092   -8.5829   -5.3321 C   0  0  0  0  0  0  0  0  0  0  0  0
    0.9894   -8.9379   -5.2604 N   0  0  0  0  0  0  0  0  0  0  0  0
    3.3619   -9.3546   -5.4886 N   0  0  0  0  0  0  0  0  0  0  0  0
    4.4016   -8.4799   -5.4707 C   0  0  0  0  0  0  0  0  0  0  0  0
    4.0921   -7.1942   -5.3191 N   0  0  0  0  0  0  0  0  0  0  0  0
    0.5391   -6.5459   -4.9548 C   0  0  0  0  0  0  0  0  0  0  0  0
    0.1567   -7.9624   -5.0838 C   0  0  0  0  0  0  0  0  0  0  0  0
   -1.1636   -8.2507   -4.9911 O   0  0  0  0  0  0  0  0  0  0  0  0
   -2.2120   -7.2831   -4.7107 C   0  0  0  0  0  0  0  0  0  0  0  0
   -2.3587   -6.2694   -5.8603 C   0  0  0  0  0  0  0  0  0  0  0  0
   -3.3033   -5.1361   -5.5062 C   0  0  0  0  0  0  0  0  0  0  0  0
   -2.9578   -4.5026   -4.1600 C   0  0  0  0  0  0  0  0  0  0  0  0
   -2.9808   -5.5290   -3.0303 C   0  0  0  0  0  0  0  0  0  0  0  0
   -2.0469   -6.6930   -3.2997 C   0  0  0  0  0  0  0  0  0  0  0  0
  1  2  1  0
  2  3  2  0
  2  4  2  0
  2  5  1  0
  5  6  2  0
  5  7  1  0
  6  9  1  0
  7  8  2  0
  8 10  1  0
  9 10  2  0
 10 11  1  0
 11 12  1  0
 12 13  1  0
 12 19  2  0
 13 14  1  0
 13 18  1  0
 14 15  1  0
 14 16  2  0
 15 20  2  0
 16 17  1  0
 17 18  2  0
 19 20  1  0
 20 21  1  0
 21 22  1  0
 22 23  1  0
 22 27  1  0
 23 24  1  0
 24 25  1  0
 25 26  1  0
 26 27  1  0
M  END
>  <DRUGBANK_ID>  (1) 
DB07688

>  <COMMON_NAME>  (1) 
4-{[5-(CYCLOHEXYLOXY)[1,2,4]TRIAZOLO[1,5-A]PYRIMIDIN-7-YL]AMINO}BENZENESULFONAMIDE

$$$$
