
     RDKit          3D

 24 25  0  0  0  0  0  0  0  0999 V2000
    1.1247    0.0477    0.1040 C   0  0  0  0  0  0  0  0  0  0  0  0
   -0.9190   -2.3933   -4.7349 C   0  0  0  0  0  0  0  0  0  0  0  0
    0.6768    1.1362   -0.8624 C   0  0  0  0  0  0  0  0  0  0  0  0
    2.1027   -7.7317   -6.5197 C   0  0  0  0  0  0  0  0  0  0  0  0
    0.7139   -7.1411   -6.3082 C   0  0  0  0  0  0  0  0  0  0  0  0
    1.0920    0.8194   -2.3091 C   0  0  0  0  0  0  0  0  0  0  0  0
    3.1467   -7.0117   -5.6717 C   0  0  0  0  0  0  0  0  0  0  0  0
    0.7094   -5.6533   -6.6406 C   0  0  0  0  0  0  0  0  0  0  0  0
    3.7068   -4.8906   -7.0571 C   0  0  0  0  0  0  0  0  0  0  0  0
    0.5832   -2.1926   -4.6404 C   0  0  1  0  0  0  0  0  0  0  0  0
    3.1067   -5.4855   -5.7725 C   0  0  1  0  0  0  0  0  0  0  0  0
    0.4732   -0.4989   -2.8103 C   0  0  1  0  0  0  0  0  0  0  0  0
    1.7003   -4.8765   -5.7545 C   0  0  1  0  0  0  0  0  0  0  0  0
    3.1335   -3.4569   -7.1087 C   0  0  1  0  0  0  0  0  0  0  0  0
    1.1862   -2.3893   -6.0495 C   0  0  0  0  0  0  0  0  0  0  0  0
   -1.0525   -0.2854   -2.7760 C   0  0  0  0  0  0  0  0  0  0  0  0
    2.8787   -3.0346   -8.5652 C   0  0  0  0  0  0  0  0  0  0  0  0
    0.9831   -0.8353   -4.1610 N   0  0  0  0  0  0  0  0  0  0  0  0
    1.9223   -3.5299   -6.2835 N   0  0  0  0  0  0  0  0  0  0  0  0
    1.0963   -1.5044   -6.9045 O   0  0  0  0  0  0  0  0  0  0  0  0
   -1.7538    0.1550   -3.6641 O   0  0  0  0  0  0  0  0  0  0  0  0
   -1.6083   -0.6072   -1.5855 O   0  0  0  0  0  0  0  0  0  0  0  0
    3.5890   -1.9520   -8.9704 O   0  0  0  0  0  0  0  0  0  0  0  0
    2.1320   -3.6337   -9.3330 O   0  0  0  0  0  0  0  0  0  0  0  0
  3  1  1  0
  5  4  1  0
  6  3  1  0
  7  4  1  0
  8  5  1  0
 10  2  1  6
 11  7  1  6
 11  9  1  0
 12  6  1  6
 12 18  1  0
 13  8  1  6
 13 11  1  0
 13 19  1  0
 14  9  1  0
 14 17  1  6
 15 10  1  0
 16 12  1  0
 18 10  1  0
 19 14  1  0
 19 15  1  0
 20 15  2  0
 21 16  2  0
 22 16  1  0
 23 17  1  0
 24 17  2  0
M  END
>  <DRUGBANK_ID>  (1) 
DB14213

>  <COMMON_NAME>  (1) 
Perindoprilat

>  <CAS_NUMBER>  (1) 
95153-31-4

>  <UNII>  (1) 
2UV6ZNQ92K

>  <SYNONYMS>  (1) 
Perindoprilat; Perindoprilate; Perindoprilato; Perindoprilatum

$$$$
