
     RDKit          3D

 30 32  0  0  0  0  0  0  0  0999 V2000
   -1.4764    0.0198   -0.2083 C   0  0  0  0  0  0  0  0  0  0  0  0
   -0.6214    1.1778    0.3638 C   0  0  0  0  0  0  0  0  0  0  0  0
    0.7867    1.1042   -0.0757 C   0  0  0  0  0  0  0  0  0  0  0  0
    1.4758   -0.0909    0.3399 N   0  0  0  0  0  0  0  0  0  0  0  0
    0.7313   -1.2724   -0.1104 C   0  0  0  0  0  0  0  0  0  0  0  0
   -0.7416   -1.2511    0.3335 C   0  0  0  0  0  0  0  0  0  0  0  0
   -2.8853    0.0755    0.4738 C   0  0  0  0  0  0  0  0  0  0  0  0
   -1.6035    0.0107   -1.7664 N   0  0  0  0  0  0  0  0  0  0  0  0
   -1.3114   -1.1321   -2.5502 C   0  0  0  0  0  0  0  0  0  0  0  0
   -2.3557    1.0838   -2.3683 C   0  0  0  0  0  0  0  0  0  0  0  0
   -1.8973    2.4051   -2.3653 C   0  0  0  0  0  0  0  0  0  0  0  0
   -2.6045    3.4309   -2.9939 C   0  0  0  0  0  0  0  0  0  0  0  0
   -3.7453    3.1289   -3.7209 C   0  0  0  0  0  0  0  0  0  0  0  0
   -4.1930    1.8114   -3.7820 C   0  0  0  0  0  0  0  0  0  0  0  0
   -3.5469    0.8097   -3.0513 C   0  0  0  0  0  0  0  0  0  0  0  0
   -1.3483   -1.0461   -4.0667 C   0  0  0  0  0  0  0  0  0  0  0  0
    0.0366   -1.1544   -4.6766 C   0  0  0  0  0  0  0  0  0  0  0  0
   -0.9474   -2.2275   -2.1095 O   0  0  0  0  0  0  0  0  0  0  0  0
   -3.7040    1.2222    0.1914 O   0  0  0  0  0  0  0  0  0  0  0  0
   -3.2136    2.4722    0.6461 C   0  0  0  0  0  0  0  0  0  0  0  0
    2.8096   -0.0477   -0.2994 C   0  0  0  0  0  0  0  0  0  0  0  0
    2.8687    0.0646   -1.8727 C   0  0  0  0  0  0  0  0  0  0  0  0
    2.4322    1.3338   -2.4390 N   0  0  0  0  0  0  0  0  0  0  0  0
    2.8806    2.5510   -1.9855 C   0  0  0  0  0  0  0  0  0  0  0  0
    2.0271    3.4526   -2.5812 N   0  0  0  0  0  0  0  0  0  0  0  0
    1.1301    2.7982   -3.3720 N   0  0  0  0  0  0  0  0  0  0  0  0
    1.3406    1.5422   -3.2593 N   0  0  0  0  0  0  0  0  0  0  0  0
    3.7771    2.7714   -1.2107 O   0  0  0  0  0  0  0  0  0  0  0  0
    2.2096    4.8707   -2.4974 C   0  0  0  0  0  0  0  0  0  0  0  0
    2.6047    5.4784   -3.8256 C   0  0  0  0  0  0  0  0  0  0  0  0
  1  2  1  0
  1  6  1  0
  1  7  1  0
  1  8  1  0
  2  3  1  0
  3  4  1  0
  4  5  1  0
  4 21  1  0
  5  6  1  0
  7 19  1  0
  8  9  1  0
  8 10  1  0
  9 16  1  0
  9 18  2  0
 10 11  2  0
 10 15  1  0
 11 12  1  0
 12 13  2  0
 13 14  1  0
 14 15  2  0
 16 17  1  0
 19 20  1  0
 21 22  1  0
 22 23  1  0
 23 24  1  0
 23 27  1  0
 24 25  1  0
 24 28  2  0
 25 26  1  0
 25 29  1  0
 26 27  2  0
 29 30  1  0
M  END
>  <DRUGBANK_ID>  (1) 
DB00802

>  <SECONDARY_ACCESSION_NUMBERS>  (1) 
APRD00726

>  <COMMON_NAME>  (1) 
Alfentanil

>  <CAS_NUMBER>  (1) 
71195-58-9

>  <UNII>  (1) 
1N74HM2BS7

>  <SYNONYMS>  (1) 
Alfentanil; Alfentanilo; Alfentanilum; Alfentanyl; N-(1-(2-(4-Ethyl-5-oxo-2-tetrazolin-1-yl)ethyl)-4-(methoxymethyl)-4-piperidyl)propionanilide

$$$$
