
     RDKit          3D

 34 38  0  0  0  0  0  0  0  0999 V2000
   -1.7741   -0.0372    0.7144 O   0  0  0  0  0  0  0  0  0  0  0  0
   -1.0662    0.0184   -0.5257 C   0  0  0  0  0  0  0  0  0  0  0  0
   -0.2221    1.2961   -0.5985 C   0  0  0  0  0  0  0  0  0  0  0  0
    0.9650    1.2405    0.3703 C   0  0  0  0  0  0  0  0  0  0  0  0
    1.7134    0.0241    0.0934 N   0  0  0  0  0  0  0  0  0  0  0  0
    0.9766   -1.2224    0.2904 C   0  0  0  0  0  0  0  0  0  0  0  0
   -0.2142   -1.2459   -0.6635 C   0  0  0  0  0  0  0  0  0  0  0  0
    3.0315    0.0234   -0.3000 C   0  0  0  0  0  0  0  0  0  0  0  0
    4.0392    0.6191    0.4673 C   0  0  0  0  0  0  0  0  0  0  0  0
    5.3999    0.5559    0.0873 C   0  0  0  0  0  0  0  0  0  0  0  0
    5.7846   -0.0983   -1.0915 C   0  0  0  0  0  0  0  0  0  0  0  0
    7.0936    0.0114   -1.6272 N   0  0  0  0  0  0  0  0  0  0  0  0
    7.5662   -0.6915   -2.7742 C   0  0  0  0  0  0  0  0  0  0  0  0
    8.3939   -1.7809   -2.6271 C   0  0  0  0  0  0  0  0  0  0  0  0
    8.9932   -2.2186   -1.3586 C   0  0  0  0  0  0  0  0  0  0  0  0
    8.8387   -1.5951   -0.3137 O   0  0  0  0  0  0  0  0  0  0  0  0
    9.7661   -3.3556   -1.4114 N   0  0  0  0  0  0  0  0  0  0  0  0
   10.0323   -4.0799   -2.5357 N   0  0  0  0  0  0  0  0  0  0  0  0
    9.4886   -3.6770   -3.6492 C   0  0  0  0  0  0  0  0  0  0  0  0
    8.6125   -2.4986   -3.7732 C   0  0  0  0  0  0  0  0  0  0  0  0
    8.0793   -2.2283   -5.0038 N   0  0  0  0  0  0  0  0  0  0  0  0
    7.3166   -1.1231   -5.0962 C   0  0  0  0  0  0  0  0  0  0  0  0
    7.0639   -0.3588   -4.0084 N   0  0  0  0  0  0  0  0  0  0  0  0
    6.7582   -0.7537   -6.3057 N   0  0  0  0  0  0  0  0  0  0  0  0
    7.0690    0.5265   -6.9272 C   0  0  0  0  0  0  0  0  0  0  0  0
    5.7799    1.3147   -7.1672 C   0  0  0  0  0  0  0  0  0  0  0  0
    4.7347    0.5203   -7.9780 C   0  0  0  0  0  0  0  0  0  0  0  0
    3.3922    1.2852   -8.0230 C   0  0  0  0  0  0  0  0  0  0  0  0
    3.5296    2.6116   -8.6422 C   0  0  0  0  0  0  0  0  0  0  0  0
    3.6660    3.6678   -9.1199 N   0  0  0  0  0  0  0  0  0  0  0  0
    4.5523   -0.8840   -7.3555 C   0  0  0  0  0  0  0  0  0  0  0  0
    5.8961   -1.6121   -7.1066 C   0  0  0  0  0  0  0  0  0  0  0  0
    4.7799   -0.7355   -1.8190 C   0  0  0  0  0  0  0  0  0  0  0  0
    3.4320   -0.6251   -1.4678 C   0  0  0  0  0  0  0  0  0  0  0  0
  1  2  1  0
  2  3  1  0
  2  7  1  0
  3  4  1  0
  4  5  1  0
  5  6  1  0
  5  8  1  0
  6  7  1  0
  8  9  2  0
  8 34  1  0
  9 10  1  0
 10 11  2  0
 11 12  1  0
 11 33  1  0
 12 13  1  0
 13 14  2  0
 13 23  1  0
 14 15  1  0
 14 20  1  0
 15 16  2  0
 15 17  1  0
 17 18  1  0
 18 19  2  0
 19 20  1  0
 20 21  2  0
 21 22  1  0
 22 23  2  0
 22 24  1  0
 24 25  1  0
 24 32  1  0
 25 26  1  0
 26 27  1  0
 27 28  1  0
 27 31  1  0
 28 29  1  0
 29 30  3  0
 31 32  1  0
 33 34  2  0
M  END
>  <DRUGBANK_ID>  (1) 
DB15670

>  <COMMON_NAME>  (1) 
Gusacitinib

>  <CAS_NUMBER>  (1) 
1425381-60-7

>  <UNII>  (1) 
4801QYW816

>  <SYNONYMS>  (1) 
1-(4-(4-(4-HYDROXY-PIPERIDIN-1-YL)-PHENYLAMINO)-5-OXO-5,6-DIHYDRO-PYRIMIDO(4,5-D)PYRIDAZIN-2-YL)-PIPERIDIN-4-YL-ACETONITRILE; Gusacitinib

$$$$
