
     RDKit          3D

 35 38  0  0  1  0  0  0  0  0999 V2000
    0.0736   -0.2311    0.1836 C   0  0  0  0  0  0  0  0  0  0  0  0
    0.1351   -1.6691   -0.2920 C   0  0  0  0  0  0  0  0  0  0  0  0
   -0.3779   -2.5241    0.4350 O   0  0  0  0  0  0  0  0  0  0  0  0
    0.7604   -2.0818   -1.4560 N   0  0  0  0  0  0  0  0  0  0  0  0
    1.7165   -1.4394   -2.4217 C   0  0  2  0  0  0  0  0  0  0  0  0
    3.1528   -2.0667   -2.6139 C   0  0  0  0  0  0  0  0  0  0  0  0
    4.0322   -1.2140   -3.5518 C   0  0  1  0  0  0  0  0  0  0  0  0
    3.9112    0.2844   -3.2906 C   0  0  0  0  0  0  0  0  0  0  0  0
    2.5200    0.7973   -3.2305 C   0  0  0  0  0  0  0  0  0  0  0  0
    1.8578    0.0525   -2.1193 C   0  0  2  0  0  0  0  0  0  0  0  0
    2.6081    0.3003   -0.8437 N   0  0  0  0  0  0  0  0  0  0  0  0
    2.5899    1.6134   -0.2157 C   0  0  0  0  0  0  0  0  0  0  0  0
    3.4067    1.4153    1.0455 C   0  0  0  0  0  0  0  0  0  0  0  0
    3.2139   -0.0410    1.4224 C   0  0  2  0  0  0  0  0  0  0  0  0
    4.3516   -0.6455    2.0387 N   0  0  0  0  0  0  0  0  0  0  0  0
    4.7520   -0.2626    3.2692 C   0  0  0  0  0  0  0  0  0  0  0  0
    3.9466   -0.2398    4.2930 N   0  0  0  0  0  0  0  0  0  0  0  0
    4.4470    0.2271    5.4868 C   0  0  0  0  0  0  0  0  0  0  0  0
    5.6337    0.7297    5.6723 N   0  0  0  0  0  0  0  0  0  0  0  0
    6.4466    0.7669    4.5854 C   0  0  0  0  0  0  0  0  0  0  0  0
    7.7047    1.2467    4.3426 C   0  0  0  0  0  0  0  0  0  0  0  0
    7.9663    1.0066    2.9626 C   0  0  0  0  0  0  0  0  0  0  0  0
    6.9236    0.3991    2.3718 N   0  0  0  0  0  0  0  0  0  0  0  0
    6.0439    0.2429    3.3971 N   0  0  0  0  0  0  0  0  0  0  0  0
    9.2516    1.3635    2.2318 C   0  0  0  0  0  0  0  0  0  0  0  0
    9.5118    2.8808    2.3418 C   0  0  0  0  0  0  0  0  0  0  0  0
   10.4324    0.6233    2.8942 C   0  0  0  0  0  0  0  0  0  0  0  0
    9.2300    0.9904    0.7376 C   0  0  0  0  0  0  0  0  0  0  0  0
    2.9949   -0.6830    0.1025 C   0  0  0  0  0  0  0  0  0  0  0  0
    3.0177   -1.9247    0.0505 O   0  0  0  0  0  0  0  0  0  0  0  0
    5.4535   -1.5977   -3.4308 N   0  0  0  0  0  0  0  0  0  0  0  0
    6.3932   -0.9029   -4.3376 C   0  0  0  0  0  0  0  0  0  0  0  0
    6.6265    0.6028   -4.0619 C   0  0  0  0  0  0  0  0  0  0  0  0
    7.7874   -1.5180   -4.1395 C   0  0  0  0  0  0  0  0  0  0  0  0
    5.9232   -1.1538   -5.7760 C   0  0  0  0  0  0  0  0  0  0  0  0
  1  2  1  0
  2  3  2  0
  2  4  1  0
  5  4  1  1
  5  6  1  0
  5 10  1  0
  7  6  1  0
  7  8  1  0
  7 31  1  1
  8  9  1  0
 10  9  1  0
 10 11  1  1
 11 12  1  0
 11 29  1  0
 12 13  1  0
 14 13  1  0
 14 29  1  0
 14 15  1  6
 15 16  1  0
 16 17  2  0
 16 24  1  0
 17 18  1  0
 18 19  2  0
 19 20  1  0
 20 21  2  0
 20 24  1  0
 21 22  1  0
 22 23  2  0
 22 25  1  0
 23 24  1  0
 25 26  1  0
 25 27  1  0
 25 28  1  0
 29 30  2  0
 31 32  1  0
 32 33  1  0
 32 34  1  0
 32 35  1  0
M  END
>  <DRUGBANK_ID>  (1) 
DB16240

>  <COMMON_NAME>  (1) 
BMS-813160

>  <CAS_NUMBER>  (1) 
1286279-29-5

>  <UNII>  (1) 
83U7957287

$$$$
