
     RDKit          3D

 14 14  0  0  0  0  0  0  0  0999 V2000
    0.9988    0.1054   -0.0436 O   0  0  0  0  0  0  0  0  0  0  0  0
    0.4615   -0.6477    0.9342 C   0  0  0  0  0  0  0  0  0  0  0  0
    1.1677   -1.3581    1.6368 O   0  0  0  0  0  0  0  0  0  0  0  0
   -1.0453   -0.6675    0.9091 C   0  0  0  0  0  0  0  0  0  0  0  0
   -1.6960    0.6398    0.9417 N   0  0  0  0  0  0  0  0  0  0  0  0
   -2.5556    1.1925    0.0221 C   0  0  0  0  0  0  0  0  0  0  0  0
   -2.9366    2.3526    0.1449 O   0  0  0  0  0  0  0  0  0  0  0  0
   -2.9700    0.3943   -1.1562 C   0  0  0  0  0  0  0  0  0  0  0  0
   -2.7084    0.9487   -2.4220 C   0  0  0  0  0  0  0  0  0  0  0  0
   -2.9107    0.1882   -3.5766 C   0  0  0  0  0  0  0  0  0  0  0  0
   -3.3478   -1.1305   -3.4717 C   0  0  0  0  0  0  0  0  0  0  0  0
   -3.6580   -1.6674   -2.2234 C   0  0  0  0  0  0  0  0  0  0  0  0
   -3.5346   -0.8882   -1.0697 C   0  0  0  0  0  0  0  0  0  0  0  0
   -4.3300   -1.7447    0.6932 I   0  0  0  0  0  0  0  0  0  0  0  0
  1  2  1  0
  2  3  2  0
  2  4  1  0
  4  5  1  0
  5  6  1  0
  6  7  2  0
  6  8  1  0
  8  9  2  0
  8 13  1  0
  9 10  1  0
 10 11  2  0
 11 12  1  0
 12 13  2  0
 13 14  1  0
M  END
>  <DRUGBANK_ID>  (1) 
DB15445

>  <COMMON_NAME>  (1) 
Iodohippuric acid

>  <CAS_NUMBER>  (1) 
147-58-0

>  <UNII>  (1) 
3Y68K91A3M

>  <SYNONYMS>  (1) 
IODOHIPPURATE

$$$$
