127
     RDKit          3D

 14 13  0  0  0  0  0  0  0  0999 V2000
    0.9334    0.0324   -0.0474 N   0  0  0  0  0  0  0  0  0  0  0  0
   -1.8868   -3.9340   -0.8702 N   0  0  0  0  0  0  0  0  0  0  0  0
    3.4022   -0.9907    2.8243 N   0  0  0  0  0  0  0  0  0  0  0  0
   -3.6175   -2.4610   -3.4936 N   0  0  0  0  0  0  0  0  0  0  0  0
    0.8543   -2.4731   -1.0573 C   0  0  0  0  0  0  0  0  0  0  0  0
    0.2374   -3.5194   -0.0384 C   0  0  0  0  0  0  0  0  0  0  0  0
    0.4455   -0.9386   -1.0536 C   0  0  0  0  0  0  0  0  0  0  0  0
   -1.2237   -3.2520    0.2150 C   0  0  0  0  0  0  0  0  0  0  0  0
    0.5690   -0.2209    1.3522 C   0  0  0  0  0  0  0  0  0  0  0  0
   -3.3185   -3.7397   -0.7978 C   0  0  0  0  0  0  0  0  0  0  0  0
    1.2694   -1.4503    1.8778 C   0  0  0  0  0  0  0  0  0  0  0  0
   -3.7372   -2.2847   -1.0308 C   0  0  0  0  0  0  0  0  0  0  0  0
    2.7516   -1.7310    1.7809 C   0  0  0  0  0  0  0  0  0  0  0  0
   -3.2032   -1.6830   -2.3340 C   0  0  0  0  0  0  0  0  0  0  0  0
  1  7  1  0
  1  9  1  0
  2  8  1  0
  2 10  1  0
  3 13  1  0
  4 14  1  0
  5  6  1  0
  5  7  1  0
  6  8  1  0
  9 11  1  0
 10 12  1  0
 11 13  1  0
 12 14  1  0
M  END
>  <DRUGBANK_ID>  (1) 
DB00127

>  <SECONDARY_ACCESSION_NUMBERS>  (1) 
NUTR00055; EXPT02947; DB02564

>  <COMMON_NAME>  (1) 
Spermine

>  <CAS_NUMBER>  (1) 
71-44-3

>  <UNII>  (1) 
2FZ7Y3VOQX

>  <SYNONYMS>  (1) 
4,9-diaza-1,12-dodecanediamine; 4,9-diazadodecane-1,12-diamine; Musculamine; N,N'-Bis(3-aminopropyl)-1,4-butanediamine; Spermina; Spermine

$$$$
