
     RDKit          3D

 18 18  0  0  0  0  0  0  0  0999 V2000
    1.0168    0.0911   -0.0378 Ag  0  0  0  0  0 15  0  0  0  0  0  0
    1.0667    0.0682    0.0299 S   0  0  0  0  0  0  0  0  0  0  0  0
    0.5565   -0.6470   -1.2232 O   0  0  0  0  0  0  0  0  0  0  0  0
    0.5565   -0.6594    1.2759 O   0  0  0  0  0  0  0  0  0  0  0  0
    0.4800    1.7276    0.0382 N   0  0  0  0  0  0  0  0  0  0  0  0
    7.0177    0.0711    0.0478 N   0  0  0  0  0  0  0  0  0  0  0  0
   -1.3967    2.9429   -0.8035 N   0  0  0  0  0  0  0  0  0  0  0  0
   -1.7112    1.2630    0.8888 N   0  0  0  0  0  0  0  0  0  0  0  0
    2.8767    0.0682    0.0299 C   0  0  0  0  0  0  0  0  0  0  0  0
    3.5731    1.2795    0.0359 C   0  0  0  0  0  0  0  0  0  0  0  0
    3.5713   -1.1395    0.0239 C   0  0  0  0  0  0  0  0  0  0  0  0
    5.6697    0.0685    0.0400 C   0  0  0  0  0  0  0  0  0  0  0  0
    4.9512    1.2732    0.0229 C   0  0  0  0  0  0  0  0  0  0  0  0
    4.9542   -1.1378    0.0349 C   0  0  0  0  0  0  0  0  0  0  0  0
   -0.9652    1.9962    0.0395 C   0  0  0  0  0  0  0  0  0  0  0  0
   -2.7249    3.1276   -0.7828 C   0  0  0  0  0  0  0  0  0  0  0  0
   -3.0115    1.5241    0.8775 C   0  0  0  0  0  0  0  0  0  0  0  0
   -3.5758    2.4496    0.0312 C   0  0  0  0  0  0  0  0  0  0  0  0
  2  3  2  0
  2  4  2  0
  2  5  1  0
  2  9  1  0
  5 15  1  0
  6 12  1  0
  7 15  2  0
  7 16  1  0
  8 15  1  0
  8 17  2  0
  9 10  2  0
  9 11  1  0
 10 13  1  0
 11 14  2  0
 12 13  2  0
 12 14  1  0
 16 18  2  0
 17 18  1  0
M  CHG  2   1   1   5  -1
M  END
>  <DRUGBANK_ID>  (1) 
DB05245

>  <COMMON_NAME>  (1) 
Silver sulfadiazine

>  <CAS_NUMBER>  (1) 
22199-08-2

>  <UNII>  (1) 
W46JY43EJR

>  <SYNONYMS>  (1) 
Silver sulfadiazinate; Silver sulfadiazine; Silver sulphadiazine; Sulfadiazine silver; Sulfadiazine silver salt

$$$$
