502
     RDKit          3D

 26 28  0  0  0  0  0  0  0  0999 V2000
   -2.2027    0.0363   -0.0279 Cl  0  0  0  0  0  0  0  0  0  0  0  0
    5.5908   -5.3811   -3.1499 F   0  0  0  0  0  0  0  0  0  0  0  0
    4.2314    0.6992    1.2277 O   0  0  0  0  0  0  0  0  0  0  0  0
    9.3289   -3.2929    1.6478 O   0  0  0  0  0  0  0  0  0  0  0  0
    6.1724   -0.5833   -1.3475 N   0  0  0  0  0  0  0  0  0  0  0  0
    3.7810    0.0501    0.0258 C   0  0  0  0  0  0  0  0  0  0  0  0
    4.2707    0.8405   -1.2027 C   0  0  0  0  0  0  0  0  0  0  0  0
    4.2745   -1.3882   -0.0044 C   0  0  0  0  0  0  0  0  0  0  0  0
    5.7661    0.7943   -1.3299 C   0  0  0  0  0  0  0  0  0  0  0  0
    5.7335   -1.3760   -0.2095 C   0  0  0  0  0  0  0  0  0  0  0  0
    7.5980   -0.6117   -1.5342 C   0  0  0  0  0  0  0  0  0  0  0  0
    2.2787    0.0302    0.0603 C   0  0  0  0  0  0  0  0  0  0  0  0
    8.5693   -0.2869   -0.4122 C   0  0  0  0  0  0  0  0  0  0  0  0
    1.5922    1.2439    0.0459 C   0  0  0  0  0  0  0  0  0  0  0  0
    1.5542   -1.1776    0.0521 C   0  0  0  0  0  0  0  0  0  0  0  0
    8.4945   -1.1851    0.8275 C   0  0  0  0  0  0  0  0  0  0  0  0
    0.2083    1.2439    0.0041 C   0  0  0  0  0  0  0  0  0  0  0  0
    0.1777   -1.1786    0.0036 C   0  0  0  0  0  0  0  0  0  0  0  0
    8.7404   -2.7292    0.7035 C   0  0  0  0  0  0  0  0  0  0  0  0
   -0.4891    0.0355   -0.0102 C   0  0  0  0  0  0  0  0  0  0  0  0
    8.1538   -3.6578   -0.3650 C   0  0  0  0  0  0  0  0  0  0  0  0
    8.3387   -3.4714   -1.7429 C   0  0  0  0  0  0  0  0  0  0  0  0
    7.2806   -4.6918    0.0113 C   0  0  0  0  0  0  0  0  0  0  0  0
    7.3499   -3.9027   -2.6510 C   0  0  0  0  0  0  0  0  0  0  0  0
    6.4853   -5.3463   -0.9536 C   0  0  0  0  0  0  0  0  0  0  0  0
    6.4574   -4.8782   -2.2606 C   0  0  0  0  0  0  0  0  0  0  0  0
  1 20  1  0
  2 26  1  0
  3  6  1  0
  4 19  2  0
  5  9  1  0
  5 10  1  0
  5 11  1  0
  6  7  1  0
  6  8  1  0
  6 12  1  0
  7  9  1  0
  8 10  1  0
 11 13  1  0
 12 14  2  0
 12 15  1  0
 13 16  1  0
 14 17  1  0
 15 18  2  0
 16 19  1  0
 17 20  2  0
 18 20  1  0
 19 21  1  0
 21 22  2  0
 21 23  1  0
 22 24  1  0
 23 25  2  0
 24 26  2  0
 25 26  1  0
M  END
>  <DRUGBANK_ID>  (1) 
DB00502

>  <SECONDARY_ACCESSION_NUMBERS>  (1) 
APRD00538

>  <COMMON_NAME>  (1) 
Haloperidol

>  <CAS_NUMBER>  (1) 
52-86-8

>  <UNII>  (1) 
J6292F8L3D

>  <SYNONYMS>  (1) 
1-(3-p-fluorobenzoylpropyl)-4-p-chlorophenyl-4-hydroxypiperidine; 4-(4-(para-chlorophenyl)-4-hydroxypiperidino)-4'-fluorobutyrophenone; 4-[4-(4-chlorophenyl)-4-hydroxy-1-piperidyl]-1-(4-fluorophenyl)-butan-1-one; 4'-fluoro-4-(4-(p-chlorophenyl)-4-hydroxypiperidinyl)butyrophenone; 4'-fluoro-4-(4-hydroxy-4-(4'-chlorophenyl)piperidino)butyrophenone; Haloperidol; Haloperidolum; Î³-(4-(p-chlorophenyl)-4-hydroxpiperidino)-p-fluorbutyrophenone

$$$$
