
     RDKit          3D

 10  9  0  0  0  0  0  0  0  0999 V2000
    1.0305   -0.1124   -0.1271 C   0  0  0  0  0  0  0  0  0  0  0  0
    0.2195    0.3009    1.1048 C   0  0  0  0  0  0  0  0  0  0  0  0
   -0.6687    1.5354    0.8545 C   0  0  0  0  0  0  0  0  0  0  0  0
   -1.7362    1.3199   -0.2132 C   0  0  0  0  0  0  0  0  0  0  0  0
    0.5497   -0.6042   -1.1394 O   0  0  0  0  0  0  0  0  0  0  0  0
    2.3705    0.0528   -0.0198 O   0  0  0  0  0  0  0  0  0  0  0  0
   -2.9390    1.1743   -0.0504 O   0  0  0  0  0  0  0  0  0  0  0  0
   -1.2121    1.2529   -1.4498 O   0  0  0  0  0  0  0  0  0  0  0  0
   -1.4666    2.1088    2.4286 S   0  0  0  0  0  0  0  0  0  0  0  0
   -0.7029   -1.1842    1.7020 S   0  0  0  0  0  0  0  0  0  0  0  0
  1  2  1  0
  1  5  2  0
  1  6  1  0
  2  3  1  0
  2 10  1  0
  3  4  1  0
  3  9  1  0
  4  7  2  0
  4  8  1  0
M  END
>  <DRUGBANK_ID>  (1) 
DB14089

>  <COMMON_NAME>  (1) 
Dimercaptosuccinic acid

>  <CAS_NUMBER>  (1) 
2418-14-6

>  <UNII>  (1) 
4S9JU7XF01

>  <SYNONYMS>  (1) 
2,3-Dimercaptobutanedioic acid; 2,3-Dimercaptosuccinic acid

$$$$
