
     RDKit          3D

 24 27  0  0  0  0  0  0  0  0999 V2000
    1.5207    0.3251   -0.3619 O   0  0  0  0  0  0  0  0  0  0  0  0
   -3.9426    6.1931    6.3687 O   0  0  0  0  0  0  0  0  0  0  0  0
   -1.1588    5.6242    3.0794 C   0  0  2  0  0  0  0  0  0  0  0  0
   -0.6294    1.7714    0.4600 C   0  0  1  0  0  0  0  0  0  0  0  0
   -1.3762    2.9055    1.2615 C   0  0  1  0  0  0  0  0  0  0  0  0
   -1.4361    4.1333    3.4869 C   0  0  2  0  0  0  0  0  0  0  0  0
   -0.8824    2.9324    2.7012 C   0  0  1  0  0  0  0  0  0  0  0  0
   -0.7057    0.1502    0.9414 C   0  0  2  0  0  0  0  0  0  0  0  0
   -2.1592    6.3005    4.4514 C   0  0  1  0  0  0  0  0  0  0  0  0
   -1.6416    5.5861    1.4548 C   0  0  0  0  0  0  0  0  0  0  0  0
   -1.1186    4.3280    0.6579 C   0  0  0  0  0  0  0  0  0  0  0  0
   -1.1319    1.5349    3.3185 C   0  0  0  0  0  0  0  0  0  0  0  0
   -3.0111    4.2294    3.4904 C   0  0  0  0  0  0  0  0  0  0  0  0
   -1.1835    1.8141   -1.0122 C   0  0  0  0  0  0  0  0  0  0  0  0
   -0.5202    0.2406    2.5267 C   0  0  0  0  0  0  0  0  0  0  0  0
   -3.4099    5.6959    3.7982 C   0  0  0  0  0  0  0  0  0  0  0  0
    0.1260   -0.9582   -0.3229 C   0  0  0  0  0  0  0  0  0  0  0  0
    0.5231    0.0431   -1.3945 C   0  0  1  0  0  0  0  0  0  0  0  0
    0.2004    6.3401    2.7831 C   0  0  0  0  0  0  0  0  0  0  0  0
    0.8687    2.2039    0.6770 C   0  0  0  0  0  0  0  0  0  0  0  0
   -2.7875    6.4287    6.0997 C   0  0  0  0  0  0  0  0  0  0  0  0
   -0.9447    0.4682   -1.6312 C   0  0  0  0  0  0  0  0  0  0  0  0
    1.3656    0.8936   -2.3754 C   0  0  0  0  0  0  0  0  0  0  0  0
   -1.9006    6.7439    7.3424 C   0  0  0  0  0  0  0  0  0  0  0  0
  2 21  2  0
  3  6  1  0
  3  9  1  0
  3 10  1  0
  3 19  1  6
  4  5  1  0
  4  8  1  0
  4 14  1  0
  4 20  1  6
  5  7  1  0
  5 11  1  6
  6  7  1  0
  6 13  1  6
  7 12  1  1
  8 15  1  1
  8 17  1  0
  9 16  1  0
  9 21  1  1
 10 11  1  0
 12 15  1  0
 13 16  1  0
 14 22  1  0
 17 18  1  0
 18 22  1  0
 18  1  1  0
 18 23  1  6
 21 24  1  0
M  END
>  <DRUGBANK_ID>  (1) 
DB05087

>  <COMMON_NAME>  (1) 
Ganaxolone

>  <CAS_NUMBER>  (1) 
38398-32-2

>  <UNII>  (1) 
98WI44OHIQ

>  <SYNONYMS>  (1) 
Ganaxolone

$$$$
