
     RDKit          3D

 24 25  0  0  1  0  0  0  0  0999 V2000
    0.9796   -1.6394    2.0781 C   0  0  0  0  0  0  0  0  0  0  0  0
    0.4656   -1.3965    0.6760 C   0  0  2  0  0  0  0  0  0  0  0  0
    1.0602   -0.2407    0.0225 N   0  0  0  0  0  0  0  0  0  0  0  0
    1.5985   -0.1986   -1.2369 C   0  0  0  0  0  0  0  0  0  0  0  0
    2.3611    0.7250   -1.5337 O   0  0  0  0  0  0  0  0  0  0  0  0
    1.2997   -1.2801   -2.2100 C   0  0  0  0  0  0  0  0  0  0  0  0
    0.2930   -2.1810   -2.1545 C   0  0  0  0  0  0  0  0  0  0  0  0
   -0.0005   -3.3039   -3.0209 C   0  0  0  0  0  0  0  0  0  0  0  0
   -0.9217   -4.2322   -2.7053 C   0  0  0  0  0  0  0  0  0  0  0  0
   -1.2170   -5.3492   -3.5981 C   0  0  0  0  0  0  0  0  0  0  0  0
   -0.1901   -6.0470   -4.2236 C   0  0  0  0  0  0  0  0  0  0  0  0
   -0.5172   -7.0527   -5.1188 C   0  0  0  0  0  0  0  0  0  0  0  0
   -1.8565   -7.3454   -5.3419 C   0  0  0  0  0  0  0  0  0  0  0  0
   -2.8162   -6.6244   -4.6437 C   0  0  0  0  0  0  0  0  0  0  0  0
   -4.6451   -7.0382   -4.9317 Br  0  0  0  0  0  0  0  0  0  0  0  0
   -2.5239   -5.6390   -3.7665 N   0  0  0  0  0  0  0  0  0  0  0  0
    2.0289   -1.3510   -3.5418 C   0  0  0  0  0  0  0  0  0  0  0  0
    2.6338   -1.4097   -4.6466 N   0  0  0  0  0  0  0  0  0  0  0  0
   -1.0560   -1.3857    0.6609 C   0  0  0  0  0  0  0  0  0  0  0  0
   -1.7480   -2.6131    0.6844 C   0  0  0  0  0  0  0  0  0  0  0  0
   -3.1395   -2.6508    0.7141 C   0  0  0  0  0  0  0  0  0  0  0  0
   -3.8585   -1.4613    0.7690 C   0  0  0  0  0  0  0  0  0  0  0  0
   -3.1898   -0.2386    0.7344 C   0  0  0  0  0  0  0  0  0  0  0  0
   -1.7998   -0.1991    0.6213 C   0  0  0  0  0  0  0  0  0  0  0  0
  2 19  1  0
  2  3  1  0
  2  1  1  1
  3  4  1  0
  4  5  2  0
  4  6  1  0
  6  7  2  0
  6 17  1  0
  7  8  1  0
  8  9  2  0
  9 10  1  0
 10 11  2  0
 10 16  1  0
 11 12  1  0
 12 13  2  0
 13 14  1  0
 14 15  1  0
 14 16  2  0
 17 18  3  0
 19 20  2  0
 19 24  1  0
 20 21  1  0
 21 22  2  0
 22 23  1  0
 23 24  2  0
M  END
>  <DRUGBANK_ID>  (1) 
DB16051

>  <COMMON_NAME>  (1) 
MOL-4239

>  <CAS_NUMBER>  (1) 
1204306-34-2

>  <UNII>  (1) 
PTN9LJL6PY

$$$$
