
     RDKit          3D

 24 28  0  0  0  0  0  0  0  0999 V2000
    0.3936   -1.1262   -0.5018 C   0  0  2  0  0  0  0  0  0  0  0  0
    1.4597   -0.1283   -0.8511 N   0  0  0  0  0  0  0  0  0  0  0  0
    0.4119    1.2131   -0.4766 C   0  0  1  0  0  0  0  0  0  0  0  0
   -1.0431    1.3304    0.2774 C   0  0  0  0  0  0  0  0  0  0  0  0
   -1.3635    0.0257    0.9774 C   0  0  2  0  0  0  0  0  0  0  0  0
   -1.1234   -0.8807   -0.2129 C   0  0  0  0  0  0  0  0  0  0  0  0
    1.2310    1.8244    0.5388 C   0  0  0  0  0  0  0  0  0  0  0  0
    1.6572    0.5887    1.3289 C   0  0  2  0  0  0  0  0  0  0  0  0
    3.0439    0.8316    0.7303 C   0  0  0  0  0  0  0  0  0  0  0  0
    3.0419   -0.4404    0.1427 C   0  0  0  0  0  0  0  0  0  0  0  0
    3.6940    1.7097    0.1915 O   0  0  0  0  0  0  0  0  0  0  0  0
   -2.6531   -0.0225    1.6749 O   0  0  0  0  0  0  0  0  0  0  0  0
   -3.2175   -1.1212    2.3373 C   0  0  0  0  0  0  0  0  0  0  0  0
   -3.2669   -2.4008    1.6196 C   0  0  0  0  0  0  0  0  0  0  0  0
   -3.8616   -0.9690    3.3725 O   0  0  0  0  0  0  0  0  0  0  0  0
   -4.4133   -2.9226    1.0409 C   0  0  0  0  0  0  0  0  0  0  0  0
   -4.0432   -3.9365    0.1917 N   0  0  0  0  0  0  0  0  0  0  0  0
   -2.6840   -4.1383    0.2547 C   0  0  0  0  0  0  0  0  0  0  0  0
   -2.2154   -3.3276    1.2922 C   0  0  0  0  0  0  0  0  0  0  0  0
   -1.8300   -4.9138   -0.5498 C   0  0  0  0  0  0  0  0  0  0  0  0
   -0.4559   -4.8319   -0.3206 C   0  0  0  0  0  0  0  0  0  0  0  0
    0.0359   -4.0665    0.7228 C   0  0  0  0  0  0  0  0  0  0  0  0
   -0.8280   -3.3338    1.5567 C   0  0  0  0  0  0  0  0  0  0  0  0
    1.1208   -1.2003    0.7811 C   0  0  0  0  0  0  0  0  0  0  0  0
  1  2  1  0
  1 24  1  0
  2  3  1  0
  3  4  1  1
  3  7  1  0
  4  5  1  0
  5  6  1  0
  5 12  1  6
  1  6  1  1
  8  7  1  6
  8  9  1  0
  8 24  1  0
  9 10  1  0
  9 11  2  0
 10  2  1  0
 12 13  1  0
 13 14  1  0
 13 15  2  0
 14 16  2  0
 14 19  1  0
 16 17  1  0
 17 18  1  0
 18 20  1  0
 19 18  2  0
 20 21  2  0
 21 22  1  0
 22 23  2  0
 23 19  1  0
M  END
>  <DRUGBANK_ID>  (1) 
DB00757

>  <SECONDARY_ACCESSION_NUMBERS>  (1) 
APRD00518

>  <COMMON_NAME>  (1) 
Dolasetron

>  <CAS_NUMBER>  (1) 
115956-12-2

>  <UNII>  (1) 
82WI2L7Q6E

>  <SYNONYMS>  (1) 
Dolasetron; Dolas√©tron; Dolasetronum

$$$$
