
     RDKit          3D

 16 17  0  0  0  0  0  0  0  0999 V2000
   -0.0006    0.6740   -0.0135 C   0  0  0  0  0  0  0  0  0  0  0  0
   -0.0365   -0.7373   -0.0039 C   0  0  0  0  0  0  0  0  0  0  0  0
   -1.1918    1.3932   -0.0650 C   0  0  0  0  0  0  0  0  0  0  0  0
    1.1816    1.3785    0.1003 N   0  0  0  0  0  0  0  0  0  0  0  0
   -1.2745   -1.3894   -0.0136 C   0  0  0  0  0  0  0  0  0  0  0  0
    1.2393   -1.4813    0.0244 C   0  0  0  0  0  0  0  0  0  0  0  0
   -2.4055    0.7298   -0.1440 C   0  0  0  0  0  0  0  0  0  0  0  0
    2.4694    0.7222   -0.0081 C   0  0  0  0  0  0  0  0  0  0  0  0
   -2.4613   -0.6588   -0.0581 C   0  0  0  0  0  0  0  0  0  0  0  0
    2.3716   -0.7764    0.0292 C   0  0  0  0  0  0  0  0  0  0  0  0
    1.2759   -2.9765    0.0107 C   0  0  0  0  0  0  0  0  0  0  0  0
    3.0867    1.0880   -1.3597 C   0  0  0  0  0  0  0  0  0  0  0  0
    3.2745    1.1648    1.2128 C   0  0  0  0  0  0  0  0  0  0  0  0
   -3.6087   -1.3976    0.0300 O   0  0  0  0  0  0  0  0  0  0  0  0
   -4.8452   -0.6825    0.0547 C   0  0  0  0  0  0  0  0  0  0  0  0
   -5.0518    0.1160    1.3397 C   0  0  0  0  0  0  0  0  0  0  0  0
  1  2  1  0
  1  3  2  0
  1  4  1  0
  2  5  2  0
  2  6  1  0
  3  7  1  0
  4  8  1  0
  5  9  1  0
  6 10  2  0
  6 11  1  0
  7  9  2  0
  8 12  1  0
  8 13  1  0
  8 10  1  0
  9 14  1  0
 14 15  1  0
 15 16  1  0
M  END
>  <DRUGBANK_ID>  (1) 
DB16866

>  <COMMON_NAME>  (1) 
Ethoxyquin

>  <CAS_NUMBER>  (1) 
91-53-2

>  <UNII>  (1) 
9T1410R4OR

>  <SYNONYMS>  (1) 
6-Ethoxy-2,2,4-trimethyl-1,2-dihydroquinoline

$$$$
