XP1
     RDKit          3D

 12 12  0  0  0  0  0  0  0  0999 V2000
    0.9624   -0.1094    0.0122 C   0  0  0  0  0  0  0  0  0  0  0  0
    0.3934    0.0432    1.3417 N   0  0  0  0  0  0  0  0  0  0  0  0
   -0.3713    1.2526    1.6377 C   0  0  0  0  0  0  0  0  0  0  0  0
    0.8295   -0.7221    2.4167 C   0  0  0  0  0  0  0  0  0  0  0  0
    2.1414   -1.2058    2.5277 C   0  0  0  0  0  0  0  0  0  0  0  0
    2.5894   -1.8751    3.6797 C   0  0  0  0  0  0  0  0  0  0  0  0
    1.7172   -2.1026    4.7458 C   0  0  0  0  0  0  0  0  0  0  0  0
    2.1167   -2.8653    5.9545 C   0  0  0  0  0  0  0  0  0  0  0  0
    1.3918   -3.1280    6.9015 O   0  0  0  0  0  0  0  0  0  0  0  0
    0.4032   -1.6430    4.6503 C   0  0  0  0  0  0  0  0  0  0  0  0
   -0.0382   -1.0077    3.4827 C   0  0  0  0  0  0  0  0  0  0  0  0
    3.3868   -3.3055    5.9065 O   0  0  0  0  0  0  0  0  0  0  0  0
  1  2  1  0
  2  3  1  0
  2  4  1  0
  4  5  2  0
  4 11  1  0
  5  6  1  0
  6  7  2  0
  7  8  1  0
  7 10  1  0
  8  9  2  0
  8 12  1  0
 10 11  2  0
M  END
>  <DRUGBANK_ID>  (1) 
DB08748

>  <COMMON_NAME>  (1) 
4-(Dimethylamino)benzoic acid

>  <CAS_NUMBER>  (1) 
619-84-1

>  <UNII>  (1) 
D1MA908EV0

>  <SYNONYMS>  (1) 
N,N-Dimethyl-4-aminobenzoic acid; N,N-Dimethyl-p-aminobenzoic acid; p-Dimethylamino benzoic acid; p-N,N-(Dimethylamino)benzoic acid

$$$$
