
     RDKit          3D

 35 39  0  0  0  0  0  0  0  0999 V2000
    0.9694   -0.0053   -0.0126 C   0  0  0  0  0  0  0  0  0  0  0  0
    0.4952   -1.2549    0.6590 C   0  0  0  0  0  0  0  0  0  0  0  0
    1.0379   -2.4574    0.1587 C   0  0  0  0  0  0  0  0  0  0  0  0
    0.7473   -3.7047    0.7288 C   0  0  0  0  0  0  0  0  0  0  0  0
   -0.1314   -3.7821    1.8026 C   0  0  0  0  0  0  0  0  0  0  0  0
   -0.6781   -2.6002    2.2857 C   0  0  0  0  0  0  0  0  0  0  0  0
   -0.3913   -1.3479    1.7366 C   0  0  0  0  0  0  0  0  0  0  0  0
   -1.1802   -0.3666    2.5494 C   0  0  0  0  0  0  0  0  0  0  0  0
   -1.2145    0.8392    2.3158 O   0  0  0  0  0  0  0  0  0  0  0  0
   -1.8427   -1.0754    3.5614 N   0  0  0  0  0  0  0  0  0  0  0  0
   -2.7586   -0.6233    4.6343 C   0  0  0  0  0  0  0  0  0  0  0  0
   -2.0803    0.2423    5.6653 C   0  0  0  0  0  0  0  0  0  0  0  0
   -1.6804    1.5218    5.2903 C   0  0  0  0  0  0  0  0  0  0  0  0
   -0.8922    2.3005    6.1255 C   0  0  0  0  0  0  0  0  0  0  0  0
   -0.4069    1.7797    7.3209 C   0  0  0  0  0  0  0  0  0  0  0  0
    0.4298    2.4402    8.1777 O   0  0  0  0  0  0  0  0  0  0  0  0
    0.6956    3.8019    7.8603 C   0  0  0  0  0  0  0  0  0  0  0  0
    1.3820    3.9052    6.7007 F   0  0  0  0  0  0  0  0  0  0  0  0
   -0.4465    4.5213    7.7735 F   0  0  0  0  0  0  0  0  0  0  0  0
    1.4510    4.3460    8.8395 F   0  0  0  0  0  0  0  0  0  0  0  0
   -0.8043    0.4956    7.7059 C   0  0  0  0  0  0  0  0  0  0  0  0
   -1.7475   -0.2106    6.9482 C   0  0  0  0  0  0  0  0  0  0  0  0
   -1.5976   -2.4861    3.4413 C   0  0  0  0  0  0  0  0  0  0  0  0
    1.4484   -4.8496    0.2043 C   0  0  0  0  0  0  0  0  0  0  0  0
    2.7417   -5.0940    0.1887 N   0  0  0  0  0  0  0  0  0  0  0  0
    2.8012   -6.2614   -0.5354 C   0  0  0  0  0  0  0  0  0  0  0  0
    4.0146   -7.1662   -0.5174 C   0  0  0  0  0  0  0  0  0  0  0  0
    4.0453   -8.3596    0.3947 N   0  0  0  0  0  0  0  0  0  0  0  0
    3.0436   -9.3928    0.0786 C   0  0  0  0  0  0  0  0  0  0  0  0
    1.6162   -9.0058    0.5060 C   0  0  0  0  0  0  0  0  0  0  0  0
    1.4709   -8.4719    1.8773 N   0  0  0  0  0  0  0  0  0  0  0  0
    2.5665   -7.5594    2.2612 C   0  0  0  0  0  0  0  0  0  0  0  0
    3.9576   -8.0474    1.8317 C   0  0  0  0  0  0  0  0  0  0  0  0
    1.6654   -6.5258   -1.2054 N   0  0  0  0  0  0  0  0  0  0  0  0
    0.7183   -5.7243   -0.5402 O   0  0  0  0  0  0  0  0  0  0  0  0
  1  2  1  0
  2  3  2  0
  2  7  1  0
  3  4  1  0
  4  5  2  0
  4 24  1  0
  5  6  1  0
  6  7  2  0
  6 23  1  0
  7  8  1  0
  8  9  2  0
  8 10  1  0
 10 11  1  0
 10 23  1  0
 11 12  1  0
 12 13  2  0
 12 22  1  0
 13 14  1  0
 14 15  2  0
 15 16  1  0
 15 21  1  0
 16 17  1  0
 17 18  1  0
 17 19  1  0
 17 20  1  0
 21 22  2  0
 24 25  2  0
 24 35  1  0
 25 26  1  0
 26 27  1  0
 26 34  2  0
 27 28  1  0
 28 29  1  0
 28 33  1  0
 29 30  1  0
 30 31  1  0
 31 32  1  0
 32 33  1  0
 34 35  1  0
M  END
>  <DRUGBANK_ID>  (1) 
DB16073

>  <COMMON_NAME>  (1) 
AZD8529

>  <CAS_NUMBER>  (1) 
1092453-15-0

>  <UNII>  (1) 
6H81G454I7

$$$$
