
     RDKit          3D

 19 21  0  0  0  0  0  0  0  0999 V2000
   -3.6767   -0.7329   -0.0007 C   0  0  0  0  0  0  0  0  0  0  0  0
    3.6861   -0.7133    0.0004 C   0  0  0  0  0  0  0  0  0  0  0  0
   -3.6839    0.6550    0.0019 C   0  0  0  0  0  0  0  0  0  0  0  0
    3.6833    0.6737   -0.0213 C   0  0  0  0  0  0  0  0  0  0  0  0
   -2.4650   -1.4094   -0.0012 C   0  0  0  0  0  0  0  0  0  0  0  0
    2.4786   -1.4006    0.0006 C   0  0  0  0  0  0  0  0  0  0  0  0
   -2.4828    1.3697    0.0058 C   0  0  0  0  0  0  0  0  0  0  0  0
    2.4769    1.3730   -0.0499 C   0  0  0  0  0  0  0  0  0  0  0  0
    0.0331    2.8904    0.0551 C   0  0  0  0  0  0  0  0  0  0  0  0
   -1.2639   -0.6858    0.0054 C   0  0  0  0  0  0  0  0  0  0  0  0
    1.2704   -0.6878   -0.0001 C   0  0  0  0  0  0  0  0  0  0  0  0
   -1.2372    0.7251    0.0131 C   0  0  0  0  0  0  0  0  0  0  0  0
    1.2364    0.7186   -0.0109 C   0  0  0  0  0  0  0  0  0  0  0  0
    0.6991    3.4445    1.3067 C   0  0  0  0  0  0  0  0  0  0  0  0
    0.0041   -1.4409    0.0053 C   0  0  0  0  0  0  0  0  0  0  0  0
   -0.0019    1.4064    0.0226 N   0  0  0  0  0  0  0  0  0  0  0  0
    1.6444    4.2234    1.3220 O   0  0  0  0  0  0  0  0  0  0  0  0
    0.1480    3.0242    2.4618 O   0  0  0  0  0  0  0  0  0  0  0  0
    0.0058   -2.6712    0.0035 O   0  0  0  0  0  0  0  0  0  0  0  0
  3  1  2  0
  4  2  2  0
  5  1  1  0
  6  2  1  0
  7  3  1  0
  8  4  1  0
 10  5  2  0
 11  6  2  0
 12  7  2  0
 12 10  1  0
 13  8  2  0
 13 11  1  0
 14  9  1  0
 15 10  1  0
 15 11  1  0
 16  9  1  0
 16 12  1  0
 16 13  1  0
 17 14  2  0
 18 14  1  0
 19 15  2  0
M  END
>  <DRUGBANK_ID>  (1) 
DB13674

>  <COMMON_NAME>  (1) 
Cridanimod

>  <CAS_NUMBER>  (1) 
38609-97-1

>  <UNII>  (1) 
X91E9EME19

>  <SYNONYMS>  (1) 
Cridanimod

$$$$
