
     RDKit          3D

 40 44  0  0  1  0  0  0  0  0999 V2000
    2.5402   -1.1221    0.2298 C   0  0  0  0  0  0  0  0  0  0  0  0
    1.2803   -0.4352   -0.2705 C   0  0  1  0  0  0  0  0  0  0  0  0
   -0.0079   -1.2057    0.0653 C   0  0  0  0  0  0  0  0  0  0  0  0
   -1.2977   -0.4297   -0.2942 C   0  0  1  0  0  0  0  0  0  0  0  0
   -2.5411   -1.1400    0.2053 C   0  0  0  0  0  0  0  0  0  0  0  0
   -1.2396    1.0186    0.2086 C   0  0  0  0  0  0  0  0  0  0  0  0
   -0.0065    1.6635   -0.3253 N   0  0  0  0  0  0  0  0  0  0  0  0
    1.1721    0.9876    0.2762 C   0  0  0  0  0  0  0  0  0  0  0  0
   -0.0730    1.8759   -2.0389 S   0  0  0  0  0  0  0  0  0  0  0  0
    0.0181    0.6270   -2.7462 O   0  0  0  0  0  0  0  0  0  0  0  0
   -1.1901    2.7748   -2.2957 O   0  0  0  0  0  0  0  0  0  0  0  0
    1.4102    2.7086   -2.4271 C   0  0  0  0  0  0  0  0  0  0  0  0
    2.6461    2.1245   -2.1915 C   0  0  0  0  0  0  0  0  0  0  0  0
    3.8034    2.7853   -2.5229 C   0  0  0  0  0  0  0  0  0  0  0  0
    3.7374    3.9903   -3.2021 C   0  0  0  0  0  0  0  0  0  0  0  0
    2.4736    4.5337   -3.5121 C   0  0  0  0  0  0  0  0  0  0  0  0
    1.3174    3.8947   -3.1047 C   0  0  0  0  0  0  0  0  0  0  0  0
    2.2370    5.7845   -4.2741 C   0  0  0  0  0  0  0  0  0  0  0  0
    0.9914    6.1344   -4.4694 N   0  0  0  0  0  0  0  0  0  0  0  0
    0.7765    7.3207   -5.1483 O   0  0  0  0  0  0  0  0  0  0  0  0
    3.4375    6.4882   -4.7007 C   0  0  0  0  0  0  0  0  0  0  0  0
    3.3125    7.7045   -5.4103 C   0  0  0  0  0  0  0  0  0  0  0  0
    4.4050    8.4342   -5.7036 C   0  0  0  0  0  0  0  0  0  0  0  0
    5.5579    7.8569   -5.2572 C   0  0  0  0  0  0  0  0  0  0  0  0
    5.7954    6.6457   -4.6776 C   0  0  0  0  0  0  0  0  0  0  0  0
    4.6958    5.9405   -4.3563 C   0  0  0  0  0  0  0  0  0  0  0  0
    4.9620    4.6818   -3.6203 C   0  0  0  0  0  0  0  0  0  0  0  0
    6.2194    4.3488   -3.4254 N   0  0  0  0  0  0  0  0  0  0  0  0
    6.4608    3.1753   -2.7176 O   0  0  0  0  0  0  0  0  0  0  0  0
    4.2417    9.9456   -6.6437 S   0  0  0  0  0  0  0  0  0  0  0  0
    3.5949    9.5661   -7.8836 O   0  0  0  0  0  0  0  0  0  0  0  0
    3.6244   10.9036   -5.7491 O   0  0  0  0  0  0  0  0  0  0  0  0
    5.7908   10.5369   -7.0556 N   0  0  0  0  0  0  0  0  0  0  0  0
    6.5961    9.8131   -8.0746 C   0  0  0  0  0  0  0  0  0  0  0  0
    7.2850    8.6423   -7.4077 C   0  0  1  0  0  0  0  0  0  0  0  0
    8.0594    7.6884   -8.2888 C   0  0  0  0  0  0  0  0  0  0  0  0
    8.1036    9.1476   -6.1351 C   0  0  0  0  0  0  0  0  0  0  0  0
    7.3377   10.1966   -5.1912 C   0  0  1  0  0  0  0  0  0  0  0  0
    8.2025   10.6968   -4.0567 C   0  0  0  0  0  0  0  0  0  0  0  0
    6.6213   11.2285   -6.0359 C   0  0  0  0  0  0  0  0  0  0  0  0
  2  1  1  1
  2  3  1  0
  2  8  1  0
  4  3  1  0
  4  5  1  1
  4  6  1  0
  6  7  1  0
  7  8  1  0
  7  9  1  0
  9 10  2  0
  9 11  2  0
  9 12  1  0
 12 13  2  0
 12 17  1  0
 13 14  1  0
 14 15  2  0
 15 16  1  0
 15 27  1  0
 16 17  2  0
 16 18  1  0
 18 19  2  3
 18 21  1  0
 19 20  1  0
 21 22  2  0
 21 26  1  0
 22 23  1  0
 23 24  2  0
 23 30  1  0
 24 25  1  0
 25 26  2  0
 26 27  1  0
 27 28  2  3
 28 29  1  0
 30 31  2  0
 30 32  2  0
 30 33  1  0
 33 34  1  0
 33 40  1  0
 35 34  1  0
 35 36  1  6
 35 37  1  0
 38 37  1  0
 38 39  1  1
 38 40  1  0
M  END
>  <DRUGBANK_ID>  (1) 
DB17109

>  <COMMON_NAME>  (1) 
Tegavivint

>  <CAS_NUMBER>  (1) 
1227637-23-1

>  <UNII>  (1) 
18AP231HUP

>  <SYNONYMS>  (1) 
9,10-anthracenedione, 2,7-bis(((3r,5s)-3,5-dimethyl-1-piperidinyl)sulfonyl)-, 9,10-dioxime, rel-; Tegavivint

$$$$
