
     RDKit          3D

 31 37  0  0  0  0  0  0  0  0999 V2000
   -2.3187    2.5286   -3.0429 C   0  0  0  0  0  0  0  0  0  0  0  0
   -0.3360    1.7576   -3.8432 C   0  0  0  0  0  0  0  0  0  0  0  0
    0.9393   -1.3011   -1.4433 C   0  0  0  0  0  0  0  0  0  0  0  0
   -6.0146   -0.4037   -2.4673 C   0  0  0  0  0  0  0  0  0  0  0  0
   -5.2654    0.6103   -3.2199 C   0  0  0  0  0  0  0  0  0  0  0  0
   -6.7762    0.1953    2.1586 C   0  0  0  0  0  0  0  0  0  0  0  0
   -6.8523   -1.2036    1.8871 C   0  0  0  0  0  0  0  0  0  0  0  0
   -1.8009    1.0137    1.0251 C   0  0  0  0  0  0  0  0  0  0  0  0
   -1.7421    0.3456   -0.1147 C   0  0  0  0  0  0  0  0  0  0  0  0
   -4.0559    1.9316   -1.0769 C   0  0  0  0  0  0  0  0  0  0  0  0
   -4.8530    3.3693   -1.1292 C   0  0  0  0  0  0  0  0  0  0  0  0
   -5.5531    2.4332    1.9065 C   0  0  0  0  0  0  0  0  0  0  0  0
   -1.4151    2.4621   -0.3368 C   0  0  0  0  0  0  0  0  0  0  0  0
   -6.2084    1.3650   -0.6039 C   0  0  0  0  0  0  0  0  0  0  0  0
   -6.3481    1.0149   -2.0865 C   0  0  0  0  0  0  0  0  0  0  0  0
   -5.5772    0.9060    2.0447 C   0  0  0  0  0  0  0  0  0  0  0  0
   -5.7498   -1.9483    1.4746 C   0  0  0  0  0  0  0  0  0  0  0  0
   -0.8229    1.0573   -1.4480 C   0  0  2  0  0  0  0  0  0  0  0  0
   -4.3092    2.8254    1.0454 C   0  0  1  0  0  0  0  0  0  0  0  0
   -4.5718    0.1544    1.4018 C   0  0  0  0  0  0  0  0  0  0  0  0
   -4.6066   -1.2650    1.1706 C   0  0  0  0  0  0  0  0  0  0  0  0
   -2.6776   -0.8889    0.2751 C   0  0  2  0  0  0  0  0  0  0  0  0
   -1.3884    1.3071   -2.8952 C   0  0  0  0  0  0  0  0  0  0  0  0
   -2.8127    1.9845    0.7377 C   0  0  2  0  0  0  0  0  0  0  0  0
   -3.7086    0.7741    0.3194 C   0  0  1  0  0  0  0  0  0  0  0  0
   -1.2029   -0.7028   -0.8761 C   0  0  2  0  0  0  0  0  0  0  0  0
   -5.4086    2.6750   -0.0868 N   0  0  0  0  0  0  0  0  0  0  0  0
   -5.8534   -3.2822    1.2245 O   0  0  0  0  0  0  0  0  0  0  0  0
   -1.9532    0.1010   -3.4233 O   0  0  0  0  0  0  0  0  0  0  0  0
    0.0223   -1.1741   -0.3398 O   0  0  0  0  0  0  0  0  0  0  0  0
   -3.6671   -1.8918    0.3165 O   0  0  0  0  0  0  0  0  0  0  0  0
  5  4  1  0
  7  6  2  0
  9  8  2  0
 11 10  1  0
 15  4  1  0
 15  5  1  0
 15 14  1  0
 16  6  1  0
 16 12  1  0
 17  7  1  0
 18 13  1  0
 18 23  1  6
 19 12  1  1
 20 16  2  0
 21 17  2  0
 21 20  1  0
 23  1  1  0
 23  2  1  0
 24  8  1  1
 24 13  1  0
 24 19  1  0
 25 10  1  6
 25 20  1  0
 25 22  1  0
 25 24  1  0
 26  9  1  0
 26 18  1  0
 26 22  1  0
 26 30  1  1
 27 11  1  0
 27 14  1  0
 27 19  1  0
 28 17  1  0
 29 23  1  0
 30  3  1  0
 31 21  1  0
 22 31  1  6
M  END
>  <DRUGBANK_ID>  (1) 
DB01480

>  <COMMON_NAME>  (1) 
Cyprenorphine

>  <CAS_NUMBER>  (1) 
4406-22-8

>  <UNII>  (1) 
1P6HEG5ZHS

>  <SYNONYMS>  (1) 
Cyprenorphine

$$$$
