
     RDKit          3D

 26 28  0  0  0  0  0  0  0  0999 V2000
    1.1364   -0.1983   -0.2406 C   0  0  0  0  0  0  0  0  0  0  0  0
    0.4143    0.4359   -1.2765 N   0  0  0  0  0  0  0  0  0  0  0  0
   -0.9341    0.8533   -1.3980 C   0  0  0  0  0  0  0  0  0  0  0  0
    0.4752   -1.0846    0.7960 C   0  0  0  0  0  0  0  0  0  0  0  0
    2.3196   -0.0033   -0.1526 O   0  0  0  0  0  0  0  0  0  0  0  0
   -1.6135    1.5429   -0.4081 C   0  0  0  0  0  0  0  0  0  0  0  0
   -0.9724    1.5211    1.0453 C   0  0  0  0  0  0  0  0  0  0  0  0
    0.9359   -0.9894    2.1330 C   0  0  0  0  0  0  0  0  0  0  0  0
   -0.6818   -1.8165    0.5455 C   0  0  0  0  0  0  0  0  0  0  0  0
   -0.9574   -2.2684    2.9447 C   0  0  0  0  0  0  0  0  0  0  0  0
   -1.3867   -2.3995    1.6144 C   0  0  0  0  0  0  0  0  0  0  0  0
    0.2010   -1.5406    3.2020 C   0  0  0  0  0  0  0  0  0  0  0  0
   -1.8358   -2.7363    3.8910 O   0  0  0  0  0  0  0  0  0  0  0  0
   -1.5824    0.6696   -2.6560 C   0  0  0  0  0  0  0  0  0  0  0  0
   -2.9698    1.9014   -0.8281 C   0  0  0  0  0  0  0  0  0  0  0  0
   -1.4299   -2.6624    5.2560 C   0  0  0  0  0  0  0  0  0  0  0  0
   -2.9563    0.8855   -2.8903 C   0  0  0  0  0  0  0  0  0  0  0  0
   -3.6952    1.3896   -1.8917 C   0  0  0  0  0  0  0  0  0  0  0  0
   -1.2790    2.4141    2.2379 C   0  0  0  0  0  0  0  0  0  0  0  0
   -3.1792    1.3199    3.8116 N   0  0  0  0  0  0  0  0  0  0  0  0
   -2.7236    2.2940    2.8249 C   0  0  0  0  0  0  0  0  0  0  0  0
   -2.3757    1.4386    4.9993 C   0  0  0  0  0  0  0  0  0  0  0  0
   -3.2117   -0.0796    3.3790 C   0  0  0  0  0  0  0  0  0  0  0  0
   -3.6797    2.0595    1.7100 C   0  0  0  0  0  0  0  0  0  0  0  0
   -4.1231   -0.4116    2.2189 C   0  0  0  0  0  0  0  0  0  0  0  0
   -3.7155    0.5220    1.1618 C   0  0  0  0  0  0  0  0  0  0  0  0
  2  1  1  0
  3  2  1  0
  4  1  1  0
  5  1  2  0
  6  3  1  0
  7  6  1  0
  7 19  1  0
  8  4  2  0
  9  4  1  0
 10 11  1  0
 11  9  2  0
 12  8  1  0
 12 10  2  0
 13 10  1  0
 14  3  2  0
 15  6  2  0
 16 13  1  0
 17 14  1  0
 18 17  2  0
 18 15  1  0
 20 21  1  0
 21 19  1  0
 22 20  1  0
 23 20  1  0
 24 21  1  0
 25 26  1  0
 25 23  1  0
 26 24  1  0
M  END
>  <DRUGBANK_ID>  (1) 
DB01228

>  <SECONDARY_ACCESSION_NUMBERS>  (1) 
APRD00613

>  <COMMON_NAME>  (1) 
Encainide

>  <CAS_NUMBER>  (1) 
66778-36-7

>  <UNII>  (1) 
SY3J0147NB

>  <SYNONYMS>  (1) 
(±)-2'-[2-(1-methyl-2-piperidyl)ethyl]-p-anisanilide; (±)-4-methoxy-N-(2-(2-(1-methyl-2-piperidinyl)ethyl)phenyl)benzamide; 4-methoxy-2'-[2-(1-methyl-2-piperidyl)ethyl]benzanilide; 4-Methoxy-N-{2-[2-(1-methyl-piperidin-2-yl)-ethyl]-phenyl}-benzamide; Encainida; Encainide; Encainidum

$$$$
