PMA
     RDKit          3D

 18 18  0  0  0  0  0  0  0  0999 V2000
    1.4149   -0.2671    0.0553 C   0  0  0  0  0  0  0  0  0  0  0  0
    0.5339   -1.3584   -0.0158 C   0  0  0  0  0  0  0  0  0  0  0  0
    0.8530    1.0402    0.0386 C   0  0  0  0  0  0  0  0  0  0  0  0
   -1.4320    0.2060   -0.0297 C   0  0  0  0  0  0  0  0  0  0  0  0
   -0.5484    1.2875    0.0865 C   0  0  0  0  0  0  0  0  0  0  0  0
   -0.8721   -1.0987   -0.0413 C   0  0  0  0  0  0  0  0  0  0  0  0
   -2.9094    0.3816   -0.2761 C   0  0  0  0  0  0  0  0  0  0  0  0
   -0.9592    2.6969    0.3813 C   0  0  0  0  0  0  0  0  0  0  0  0
    2.9091   -0.3222    0.2284 C   0  0  0  0  0  0  0  0  0  0  0  0
    0.9072   -2.8094   -0.1108 C   0  0  0  0  0  0  0  0  0  0  0  0
    3.6617    0.6165    0.0376 O   0  0  0  0  0  0  0  0  0  0  0  0
    3.3883   -1.4820    0.7023 O   0  0  0  0  0  0  0  0  0  0  0  0
    0.1279   -3.7266    0.0797 O   0  0  0  0  0  0  0  0  0  0  0  0
    2.1685   -3.0664   -0.4828 O   0  0  0  0  0  0  0  0  0  0  0  0
   -3.5158    1.3862   -0.6273 O   0  0  0  0  0  0  0  0  0  0  0  0
   -3.6026   -0.7663   -0.1977 O   0  0  0  0  0  0  0  0  0  0  0  0
   -0.2237    3.6662    0.3216 O   0  0  0  0  0  0  0  0  0  0  0  0
   -2.2087    2.8053    0.8507 O   0  0  0  0  0  0  0  0  0  0  0  0
  1  2  2  0
  1  3  1  0
  1  9  1  0
  2  6  1  0
  2 10  1  0
  3  5  2  0
  4  5  1  0
  4  6  2  0
  4  7  1  0
  5  8  1  0
  7 15  2  0
  7 16  1  0
  8 17  2  0
  8 18  1  0
  9 11  2  0
  9 12  1  0
 10 13  2  0
 10 14  1  0
M  END
>  <DRUGBANK_ID>  (1) 
DB02749

>  <SECONDARY_ACCESSION_NUMBERS>  (1) 
EXPT02613

>  <COMMON_NAME>  (1) 
Pyromellitic Acid

>  <CAS_NUMBER>  (1) 
89-05-4

>  <UNII>  (1) 
D9UXG2U6ZU

$$$$
