782
     RDKit          3D

 27 29  0  0  0  0  0  0  0  0999 V2000
    0.9808   -0.4571   -0.3077 O   0  0  0  0  0  0  0  0  0  0  0  0
    5.4242    3.0472    0.1452 O   0  0  0  0  0  0  0  0  0  0  0  0
    2.8853   -1.2556    0.5007 O   0  0  0  0  0  0  0  0  0  0  0  0
    1.6710    2.1035   -0.5312 N   0  0  0  0  0  0  0  0  0  0  0  0
    2.1649    1.8090   -2.5894 C   0  0  0  0  0  0  0  0  0  0  0  0
    2.3630    3.9868   -0.0869 C   0  0  0  0  0  0  0  0  0  0  0  0
    0.2078    1.9149   -0.2093 C   0  0  0  0  0  0  0  0  0  0  0  0
    2.4712    1.5968    0.9533 C   0  0  0  0  0  0  0  0  0  0  0  0
    1.6103    3.0554   -3.8001 C   0  0  0  0  0  0  0  0  0  0  0  0
    3.9289    2.1384   -3.1570 C   0  0  0  0  0  0  0  0  0  0  0  0
    1.7698    4.1625    1.4792 C   0  0  0  0  0  0  0  0  0  0  0  0
    4.0406    4.8020   -1.1566 C   0  0  0  0  0  0  0  0  0  0  0  0
    0.0515    0.5459   -0.7974 C   0  0  0  0  0  0  0  0  0  0  0  0
    3.4412    0.7902   -1.0856 C   0  0  0  0  0  0  0  0  0  0  0  0
    2.3816   -0.4810   -0.3367 C   0  0  0  0  0  0  0  0  0  0  0  0
    4.8684    0.6234   -0.6219 C   0  0  0  0  0  0  0  0  0  0  0  0
    3.3209    2.7469   -1.1208 C   0  0  0  0  0  0  0  0  0  0  0  0
    5.6688    1.7284   -0.2080 C   0  0  0  0  0  0  0  0  0  0  0  0
    4.1338    3.5198    0.3262 C   0  0  0  0  0  0  0  0  0  0  0  0
    5.4005   -0.6579   -0.7030 C   0  0  0  0  0  0  0  0  0  0  0  0
    1.5967    3.5975   -1.7620 C   0  0  0  0  0  0  0  0  0  0  0  0
    7.0055    1.5616    0.0021 C   0  0  0  0  0  0  0  0  0  0  0  0
    3.5138    5.2917    0.7084 C   0  0  0  0  0  0  0  0  0  0  0  0
    6.7305   -0.8055   -0.3807 C   0  0  0  0  0  0  0  0  0  0  0  0
    0.8739    5.0336   -1.1506 C   0  0  0  0  0  0  0  0  0  0  0  0
    7.5285    0.2968   -0.0522 C   0  0  0  0  0  0  0  0  0  0  0  0
    1.9275    5.9682   -0.0741 C   0  0  0  0  0  0  0  0  0  0  0  0
  1 13  1  0
  1 15  1  0
  2 18  1  0
  2 19  1  0
  3 15  2  0
  4  5  1  0
  4  6  1  0
  4  7  1  0
  4  8  1  0
  5  9  1  0
  5 10  1  0
  6 11  1  0
  6 12  1  0
  7 13  1  0
 14 15  1  0
 14 16  1  0
 14 17  1  0
 16 18  2  0
 16 20  1  0
 17 19  2  0
 17 21  1  0
 18 22  1  0
 19 23  1  0
 20 24  2  0
 21 25  2  0
 22 26  2  0
 23 27  2  0
 24 26  1  0
 25 27  1  0
M  CHG  1   4   1
M  END
>  <DRUGBANK_ID>  (1) 
DB00782

>  <SECONDARY_ACCESSION_NUMBERS>  (1) 
APRD00177

>  <COMMON_NAME>  (1) 
Propantheline

>  <CAS_NUMBER>  (1) 
298-50-0

>  <UNII>  (1) 
1306V2B0Q8

>  <SYNONYMS>  (1) 
Propantheline

$$$$
