948
     RDKit          3D

 36 39  0  0  1  0  0  0  0  0999 V2000
   -2.2245   -6.1131    4.3728 S   0  0  0  0  0  0  0  0  0  0  0  0
    1.2328   -7.9602   -0.1679 S   0  0  0  0  0  0  0  0  0  0  0  0
   -2.3175   -1.7823    4.7621 O   0  0  0  0  0  0  0  0  0  0  0  0
   -3.9564   -2.6881    7.8441 O   0  0  0  0  0  0  0  0  0  0  0  0
   -5.1249   -4.5594    7.5660 O   0  0  0  0  0  0  0  0  0  0  0  0
   -0.0297   -3.9810    0.7307 O   0  0  0  0  0  0  0  0  0  0  0  0
   -0.7755   -2.9786   -3.0547 O   0  0  0  0  0  0  0  0  0  0  0  0
   -1.2645   -6.5515   -1.3949 O   0  0  0  0  0  0  0  0  0  0  0  0
    2.2966   -8.5036   -0.9891 O   0  0  0  0  0  0  0  0  0  0  0  0
    1.3937   -7.8998    1.2708 O   0  0  0  0  0  0  0  0  0  0  0  0
   -3.4733   -3.8347    4.9343 N   0  0  0  0  0  0  0  0  0  0  0  0
   -1.3524   -3.8521    2.3904 N   0  0  0  0  0  0  0  0  0  0  0  0
   -2.0206   -3.5366   -1.3035 N   0  0  0  0  0  0  0  0  0  0  0  0
    0.0214   -4.6375   -1.7099 N   0  0  0  0  0  0  0  0  0  0  0  0
    0.9559   -6.4306   -0.7198 N   0  0  0  0  0  0  0  0  0  0  0  0
   -3.2662   -4.7827    3.8095 C   0  0  1  0  0  0  0  0  0  0  0  0
   -2.8973   -5.8525    6.0634 C   0  0  0  0  0  0  0  0  0  0  0  0
   -3.0803   -4.3182    6.2381 C   0  0  2  0  0  0  0  0  0  0  0  0
   -2.5815   -3.6793    3.1091 C   0  0  1  0  0  0  0  0  0  0  0  0
   -2.7248   -2.8567    4.3489 C   0  0  0  0  0  0  0  0  0  0  0  0
   -1.8319   -6.4141    6.9745 C   0  0  0  0  0  0  0  0  0  0  0  0
   -4.2005   -6.6577    6.0946 C   0  0  0  0  0  0  0  0  0  0  0  0
   -4.1337   -3.9038    7.2790 C   0  0  0  0  0  0  0  0  0  0  0  0
   -1.2198   -3.9684    1.0493 C   0  0  0  0  0  0  0  0  0  0  0  0
   -2.4079   -4.1226   -0.0160 C   0  0  1  0  0  0  0  0  0  0  0  0
   -3.7308   -3.4544    0.3746 C   0  0  0  0  0  0  0  0  0  0  0  0
   -0.9155   -3.7159   -2.0783 C   0  0  0  0  0  0  0  0  0  0  0  0
    1.4506   -4.3492   -1.6179 C   0  0  0  0  0  0  0  0  0  0  0  0
    1.9766   -5.3646   -0.5759 C   0  0  0  0  0  0  0  0  0  0  0  0
   -0.2238   -5.9329   -1.2939 C   0  0  0  0  0  0  0  0  0  0  0  0
   -3.7066   -2.1460    0.9255 C   0  0  0  0  0  0  0  0  0  0  0  0
   -4.9404   -4.1724    0.3811 C   0  0  0  0  0  0  0  0  0  0  0  0
   -4.7825   -1.7074    1.7073 C   0  0  0  0  0  0  0  0  0  0  0  0
   -6.0776   -3.6044    0.9646 C   0  0  0  0  0  0  0  0  0  0  0  0
   -0.2530   -8.9071   -0.5136 C   0  0  0  0  0  0  0  0  0  0  0  0
   -5.9742   -2.4248    1.7050 C   0  0  0  0  0  0  0  0  0  0  0  0
 16  1  1  1
  1 17  1  0
  2  9  2  0
  2 10  2  0
  2 15  1  0
  2 35  1  0
  3 20  2  0
  4 23  1  0
  5 23  2  0
  6 24  2  0
  7 27  2  0
  8 30  2  0
 11 16  1  0
 11 18  1  0
 11 20  1  0
 12 24  1  0
 13 27  1  0
 14 27  1  0
 14 28  1  0
 14 30  1  0
 15 29  1  0
 15 30  1  0
 16 19  1  0
 17 18  1  0
 17 21  1  0
 17 22  1  0
 18 23  1  1
 19 20  1  0
 19 12  1  1
 25 26  1  0
 25 24  1  0
 25 13  1  6
 26 31  2  0
 26 32  1  0
 28 29  1  0
 31 33  1  0
 32 34  2  0
 33 36  2  0
 34 36  1  0
M  END
>  <DRUGBANK_ID>  (1) 
DB00948

>  <SECONDARY_ACCESSION_NUMBERS>  (1) 
APRD01113

>  <COMMON_NAME>  (1) 
Mezlocillin

>  <CAS_NUMBER>  (1) 
51481-65-3

>  <UNII>  (1) 
OH2O403D1G

>  <SYNONYMS>  (1) 
(2S,5R,6R)-3,3-dimethyl-6-{[(2R)-2-({[3-(methylsulfonyl)-2-oxoimidazolidin-1-yl]carbonyl}amino)-2-phenylacetyl]amino}-7-oxo-4-thia-1-azabicyclo[3.2.0]heptane-2-carboxylic acid; 6Î²-{(2R)-2-[3-(methanesulfonyl)-2-oxoimidazolidine-1-carboxamido]-2-phenylacetamido}penicillanic acid; Mezlocilina; Mezlocillin; Mezlocilline; Mezlocillinum

$$$$
