
     RDKit          3D

 14 14  0  0  0  0  0  0  0  0999 V2000
    0.9330   -0.0550    0.0039 C   0  0  0  0  0  0  0  0  0  0  0  0
    1.9937    0.2094    4.0324 C   0  0  0  0  0  0  0  0  0  0  0  0
    4.4334   -2.6292    6.1372 C   0  0  0  0  0  0  0  0  0  0  0  0
    4.8081   -2.2351    4.8500 C   0  0  0  0  0  0  0  0  0  0  0  0
    1.6362    0.1323    2.7401 C   0  0  0  0  0  0  0  0  0  0  0  0
    2.4871   -1.1965    5.9954 C   0  0  0  0  0  0  0  0  0  0  0  0
    2.8451   -0.7921    4.7004 C   0  0  0  0  0  0  0  0  0  0  0  0
    3.2695   -2.1131    6.6956 C   0  0  0  0  0  0  0  0  0  0  0  0
    4.0171   -1.3270    4.1377 C   0  0  0  0  0  0  0  0  0  0  0  0
    0.7887    1.1765    2.1284 C   0  0  0  0  0  0  0  0  0  0  0  0
    2.8460   -2.4794    7.9399 O   0  0  0  0  0  0  0  0  0  0  0  0
    4.3971   -0.9538    2.8745 O   0  0  0  0  0  0  0  0  0  0  0  0
    0.3723    2.1337    2.7736 O   0  0  0  0  0  0  0  0  0  0  0  0
    0.4784    1.0386    0.8140 O   0  0  0  0  0  0  0  0  0  0  0  0
  4  3  2  0
  5  2  2  0
  7  2  1  0
  7  6  1  0
  8  3  1  0
  8  6  2  0
  9  4  1  0
  9  7  2  0
 10  5  1  0
 11  8  1  0
 12  9  1  0
 13 10  2  0
 14  1  1  0
 14 10  1  0
M  END
>  <DRUGBANK_ID>  (1) 
DB16769

>  <COMMON_NAME>  (1) 
Methyl 2,5-dihydroxycinnamate

>  <CAS_NUMBER>  (1) 
63177-57-1

>  <UNII>  (1) 
6LF2DGK4XM

>  <SYNONYMS>  (1) 
2,4-Dihydroxymethylcinnamate; Methyl-2,5-dihydroxycinnamate

$$$$
