
     RDKit          3D

 26 27  0  0  0  0  0  0  0  0999 V2000
    1.1221    0.0088    0.1021 O   0  0  0  0  0  0  0  0  0  0  0  0
   -1.3869   -0.9582   -1.7202 O   0  0  0  0  0  0  0  0  0  0  0  0
   -2.2080    1.5237   -0.5455 O   0  0  0  0  0  0  0  0  0  0  0  0
    1.3490    3.4164    0.0059 O   0  0  0  0  0  0  0  0  0  0  0  0
   -1.0796   -3.4312    1.0675 O   0  0  0  0  0  0  0  0  0  0  0  0
    0.7128   -0.3928   -2.4848 O   0  0  0  0  0  0  0  0  0  0  0  0
    0.3519   -2.9842    5.3196 O   0  0  0  0  0  0  0  0  0  0  0  0
   -1.1197    1.7707   -2.5561 O   0  0  0  0  0  0  0  0  0  0  0  0
    2.8923    2.0509   -1.0282 O   0  0  0  0  0  0  0  0  0  0  0  0
    0.3964   -1.7129    1.5324 N   0  0  0  0  0  0  0  0  0  0  0  0
   -0.1405   -3.3434    3.1203 N   0  0  0  0  0  0  0  0  0  0  0  0
    0.3053   -1.1712    0.1589 C   0  0  1  0  0  0  0  0  0  0  0  0
   -1.1050   -0.7284   -0.3000 C   0  0  1  0  0  0  0  0  0  0  0  0
   -1.1398    0.7578    0.0905 C   0  0  1  0  0  0  0  0  0  0  0  0
    0.3123    1.1854   -0.1134 C   0  0  1  0  0  0  0  0  0  0  0  0
   -0.3125   -2.8672    1.8435 C   0  0  0  0  0  0  0  0  0  0  0  0
    1.2503   -1.1387    2.4619 C   0  0  0  0  0  0  0  0  0  0  0  0
    0.8680    2.2936    0.7893 C   0  0  0  0  0  0  0  0  0  0  0  0
   -0.4578   -0.6785   -2.6795 C   0  0  0  0  0  0  0  0  0  0  0  0
    0.4569   -2.6644    4.1426 C   0  0  0  0  0  0  0  0  0  0  0  0
    1.2648   -1.5084    3.7419 C   0  0  0  0  0  0  0  0  0  0  0  0
   -2.1127    1.8940   -1.8461 C   0  0  0  0  0  0  0  0  0  0  0  0
    2.3460    3.1349   -0.8872 C   0  0  0  0  0  0  0  0  0  0  0  0
   -1.0413   -0.7177   -4.0567 C   0  0  0  0  0  0  0  0  0  0  0  0
   -3.3140    2.5546   -2.4186 C   0  0  0  0  0  0  0  0  0  0  0  0
    2.7189    4.3419   -1.6869 C   0  0  0  0  0  0  0  0  0  0  0  0
  1 12  1  0
  1 15  1  0
  2 19  1  0
  3 22  1  0
  4 18  1  0
  4 23  1  0
  5 16  2  0
  6 19  2  0
  7 20  2  0
  8 22  2  0
  9 23  2  0
 10 16  1  0
 10 17  1  0
 11 16  1  0
 11 20  1  0
 12 10  1  1
 12 13  1  0
 13  2  1  6
 13 14  1  0
 14  3  1  6
 14 15  1  0
 15 18  1  1
 17 21  2  0
 19 24  1  0
 20 21  1  0
 22 25  1  0
 23 26  1  0
M  END
>  <DRUGBANK_ID>  (1) 
DB09144

>  <SECONDARY_ACCESSION_NUMBERS>  (1) 
DB05425

>  <COMMON_NAME>  (1) 
Uridine triacetate

>  <CAS_NUMBER>  (1) 
4105-38-8

>  <UNII>  (1) 
2WP61F175M

>  <SYNONYMS>  (1) 
2',3',5'-tri-O-acetyluridine; 2',3',5'-Triacetyluridine; Tri-O-acetyluridine; Triacetyl uridine; Triacetyluridine; Uridine 2',3',5'-triacetate; Uridine triacetate; Vistonuridine

$$$$
