
     RDKit          3D

 16 17  0  0  0  0  0  0  0  0999 V2000
    1.7150    1.2455    0.0213 C   0  0  0  0  0  0  0  0  0  0  0  0
    0.3149    1.2973    0.0056 C   0  0  0  0  0  0  0  0  0  0  0  0
    0.1695   -1.0900   -0.0505 N   0  0  0  0  0  0  0  0  0  0  0  0
   -0.3992    0.1124   -0.0015 C   0  0  0  0  0  0  0  0  0  0  0  0
    1.5170   -1.0986   -0.0815 C   0  0  0  0  0  0  0  0  0  0  0  0
    2.3610    0.0097    0.0124 C   0  0  0  0  0  0  0  0  0  0  0  0
   -2.1086    0.0705    0.0041 Cl  0  0  0  0  0  0  0  0  0  0  0  0
    4.3738   -2.6638    3.0729 S   0  0  0  0  0  0  0  0  0  0  0  0
    4.0828   -2.1932    1.4148 C   0  0  0  0  0  0  0  0  0  0  0  0
    4.3517   -0.8581    1.2211 N   0  0  0  0  0  0  0  0  0  0  0  0
    5.2185   -1.1177    3.4743 C   0  0  0  0  0  0  0  0  0  0  0  0
    3.6591   -2.9790    0.4861 N   0  0  0  0  0  0  0  0  0  0  0  0
    3.1736   -4.1935    0.7616 C   0  0  0  0  0  0  0  0  0  0  0  0
    2.6710   -5.2212    0.9174 N   0  0  0  0  0  0  0  0  0  0  0  0
    5.0351   -0.1570    2.2976 C   0  0  0  0  0  0  0  0  0  0  0  0
    3.8746   -0.1191    0.0501 C   0  0  0  0  0  0  0  0  0  0  0  0
  1  2  2  0
  2  4  1  0
  3  4  2  0
  3  5  1  0
  5  6  2  0
  6  1  1  0
  6 16  1  0
  7  4  1  0
  9  8  1  0
 10  9  1  0
 11  8  1  0
 11 15  1  0
 12  9  2  0
 13 12  1  0
 14 13  3  0
 15 10  1  0
 16 10  1  0
M  END
>  <DRUGBANK_ID>  (1) 
DB08620

>  <COMMON_NAME>  (1) 
Thiacloprid

>  <CAS_NUMBER>  (1) 
111988-49-9

>  <UNII>  (1) 
DSV3A944A4

>  <SYNONYMS>  (1) 
(Z)-thiacloprid

$$$$
