
     RDKit          3D

 23 25  0  0  1  0  0  0  0  0999 V2000
    0.9854    0.0612    0.0646 I   0  0  0  0  0  0  0  0  0  0  0  0
    9.1859    5.2905    0.2990 F   0  0  0  0  0  0  0  0  0  0  0  0
    8.2684   -0.7283   -2.3806 O   0  0  0  0  0  0  0  0  0  0  0  0
    6.6226    0.3614   -1.4072 O   0  0  0  0  0  0  0  0  0  0  0  0
    5.8142   -2.2369    0.7625 N   0  0  0  0  0  0  0  0  0  0  0  0
    7.2308   -2.4351    0.3745 C   0  0  1  0  0  0  0  0  0  0  0  0
    5.9316   -1.6212    2.0980 C   0  0  2  0  0  0  0  0  0  0  0  0
    7.9947   -1.1045    0.0801 C   0  0  2  0  0  0  0  0  0  0  0  0
    7.9553   -0.1528    1.3338 C   0  0  2  0  0  0  0  0  0  0  0  0
    6.5856   -0.2143    2.0809 C   0  0  0  0  0  0  0  0  0  0  0  0
    7.7387   -3.1543    1.6495 C   0  0  0  0  0  0  0  0  0  0  0  0
    6.8552   -2.6257    2.7859 C   0  0  0  0  0  0  0  0  0  0  0  0
    5.0893   -1.4059   -0.1867 C   0  0  0  0  0  0  0  0  0  0  0  0
    8.4113    1.2912    1.1091 C   0  0  0  0  0  0  0  0  0  0  0  0
    7.5512   -0.4572   -1.2733 C   0  0  0  0  0  0  0  0  0  0  0  0
    3.6131   -1.3321   -0.1232 C   0  0  0  0  0  0  0  0  0  0  0  0
    8.4068    2.2292    2.1418 C   0  0  0  0  0  0  0  0  0  0  0  0
    8.7998    1.7735   -0.1465 C   0  0  0  0  0  0  0  0  0  0  0  0
    8.6796    3.5788    1.8661 C   0  0  0  0  0  0  0  0  0  0  0  0
    9.0210    3.0990   -0.4522 C   0  0  0  0  0  0  0  0  0  0  0  0
    2.9998   -0.1603    0.1089 C   0  0  0  0  0  0  0  0  0  0  0  0
    8.9591    4.0022    0.5690 C   0  0  0  0  0  0  0  0  0  0  0  0
    9.6974   -0.7520   -2.3415 C   0  0  0  0  0  0  0  0  0  0  0  0
  1 21  1  0
  2 22  1  0
  3 15  1  0
  3 23  1  0
  4 15  2  0
  5  6  1  0
  5  7  1  0
  5 13  1  0
  6  8  1  0
  6 11  1  1
  7 10  1  6
  7 12  1  0
  8  9  1  0
  8 15  1  6
  9 10  1  0
  9 14  1  6
 11 12  1  0
 13 16  1  0
 14 17  2  0
 14 18  1  0
 16 21  2  0
 17 19  1  0
 18 20  2  0
 19 22  2  0
 20 22  1  0
M  END
>  <DRUGBANK_ID>  (1) 
DB04947

>  <COMMON_NAME>  (1) 
Altropane

>  <CAS_NUMBER>  (1) 
180468-34-2

>  <UNII>  (1) 
1Q4092099O

$$$$
