
     RDKit          3D

 22 25  0  0  0  0  0  0  0  0999 V2000
    1.0393    0.0811    0.0102 O   0  0  0  0  0  0  0  0  0  0  0  0
    0.3919   -0.3427    1.1408 C   0  0  0  0  0  0  0  0  0  0  0  0
    0.7211    0.1977    2.3654 C   0  0  0  0  0  0  0  0  0  0  0  0
   -0.0359   -0.2008    3.4582 C   0  0  0  0  0  0  0  0  0  0  0  0
   -1.0826   -1.0844    3.4598 N   0  0  0  0  0  0  0  0  0  0  0  0
   -1.3527   -1.5994    2.2289 C   0  0  0  0  0  0  0  0  0  0  0  0
   -2.3539   -2.5121    1.8717 N   0  0  0  0  0  0  0  0  0  0  0  0
   -3.3556   -3.1688    2.6476 C   0  0  0  0  0  0  0  0  0  0  0  0
   -3.4824   -2.9766    3.9872 N   0  0  0  0  0  0  0  0  0  0  0  0
   -4.2047   -3.9970    2.0782 N   0  0  0  0  0  0  0  0  0  0  0  0
   -4.0998   -4.2067    0.7293 C   0  0  0  0  0  0  0  0  0  0  0  0
   -3.1913   -3.6267   -0.0738 C   0  0  0  0  0  0  0  0  0  0  0  0
   -2.2617   -2.7395    0.5003 C   0  0  0  0  0  0  0  0  0  0  0  0
   -1.2091   -2.0183   -0.0150 C   0  0  0  0  0  0  0  0  0  0  0  0
   -0.6520   -1.2779    1.0575 C   0  0  0  0  0  0  0  0  0  0  0  0
   -0.8254   -1.9740   -1.4131 C   0  0  0  0  0  0  0  0  0  0  0  0
   -1.6675   -1.3810   -2.3244 C   0  0  0  0  0  0  0  0  0  0  0  0
   -1.0803   -1.0619   -3.5180 C   0  0  0  0  0  0  0  0  0  0  0  0
    0.1619   -1.4485   -3.8626 N   0  0  0  0  0  0  0  0  0  0  0  0
    0.8564   -2.1280   -2.9436 C   0  0  0  0  0  0  0  0  0  0  0  0
    0.4286   -2.3829   -1.7059 N   0  0  0  0  0  0  0  0  0  0  0  0
    2.1006   -2.5850   -3.3042 N   0  0  0  0  0  0  0  0  0  0  0  0
  2  1  1  0
  2  3  2  0
  2 15  1  0
  3  4  1  0
  4  5  2  0
  6  5  1  0
  6  7  1  0
  8  7  1  0
  8  9  1  0
  8 10  2  0
 11 10  1  0
 11 12  2  0
 12 13  1  0
 13  7  1  0
 13 14  2  0
 15  6  2  0
 15 14  1  0
 16 14  1  0
 16 17  2  0
 16 21  1  0
 18 17  1  0
 18 19  2  0
 20 19  1  0
 20 21  2  0
 20 22  1  0
M  END
>  <DRUGBANK_ID>  (1) 
DB08694

>  <COMMON_NAME>  (1) 
Variolin B

$$$$
