
     RDKit          3D

 36 39  0  0  0  0  0  0  0  0999 V2000
   -1.8986    1.1286   -1.2761 C   0  0  0  0  0  0  0  0  0  0  0  0
   -1.1709    0.6957   -0.0001 C   0  0  0  0  0  0  0  0  0  0  0  0
   -1.9490    1.1320    1.2420 C   0  0  0  0  0  0  0  0  0  0  0  0
    0.2454    1.0763    0.0070 N   0  0  0  0  0  0  0  0  0  0  0  0
    1.1050   -0.0403   -0.0170 C   0  0  0  0  0  0  0  0  0  0  0  0
    2.7837   -0.0054   -0.0024 S   0  0  0  0  0  0  0  0  0  0  0  0
    0.3058   -1.1695   -0.0501 N   0  0  0  0  0  0  0  0  0  0  0  0
   -1.0342   -0.8370   -0.0262 C   0  0  0  0  0  0  0  0  0  0  0  0
   -1.9817   -1.6145    0.0138 O   0  0  0  0  0  0  0  0  0  0  0  0
    0.7522   -2.5081   -0.0829 C   0  0  0  0  0  0  0  0  0  0  0  0
    0.4066   -3.3406   -1.1547 C   0  0  0  0  0  0  0  0  0  0  0  0
   -0.2810   -2.8234   -2.1850 F   0  0  0  0  0  0  0  0  0  0  0  0
    0.8609   -4.6632   -1.2328 C   0  0  0  0  0  0  0  0  0  0  0  0
    1.6376   -5.1711   -0.1794 C   0  0  0  0  0  0  0  0  0  0  0  0
    1.9301   -4.3638    0.9286 C   0  0  0  0  0  0  0  0  0  0  0  0
    1.5485   -3.0212    0.9447 C   0  0  0  0  0  0  0  0  0  0  0  0
    2.2403   -6.4762   -0.2500 C   0  0  0  0  0  0  0  0  0  0  0  0
    2.7637   -7.5002   -0.3569 N   0  0  0  0  0  0  0  0  0  0  0  0
    0.5188   -5.4598   -2.4579 C   0  0  0  0  0  0  0  0  0  0  0  0
   -0.8229   -5.5612   -2.6528 F   0  0  0  0  0  0  0  0  0  0  0  0
    1.0366   -4.9156   -3.5918 F   0  0  0  0  0  0  0  0  0  0  0  0
    0.9680   -6.7423   -2.4406 F   0  0  0  0  0  0  0  0  0  0  0  0
    0.6743    2.4190   -0.0109 C   0  0  0  0  0  0  0  0  0  0  0  0
    0.3751    3.2762    1.0277 C   0  0  0  0  0  0  0  0  0  0  0  0
    0.8043    4.5458    1.0779 N   0  0  0  0  0  0  0  0  0  0  0  0
    1.5425    5.0334    0.0599 C   0  0  0  0  0  0  0  0  0  0  0  0
    1.9084    6.4930    0.1165 C   0  0  0  0  0  0  0  0  0  0  0  0
    0.6655    7.3963    0.1581 C   0  0  0  0  0  0  0  0  0  0  0  0
   -0.2056    7.1895    1.4052 C   0  0  0  0  0  0  0  0  0  0  0  0
    0.5751    7.3409    2.6643 C   0  0  0  0  0  0  0  0  0  0  0  0
    1.1502    6.4016    3.3904 N   0  0  0  0  0  0  0  0  0  0  0  0
    1.7720    7.0844    4.3942 C   0  0  0  0  0  0  0  0  0  0  0  0
    1.5433    8.4272    4.2466 C   0  0  0  0  0  0  0  0  0  0  0  0
    0.7884    8.6127    3.1258 O   0  0  0  0  0  0  0  0  0  0  0  0
    1.9212    4.2390   -1.0039 C   0  0  0  0  0  0  0  0  0  0  0  0
    1.4861    2.9154   -1.0327 C   0  0  0  0  0  0  0  0  0  0  0  0
  1  2  1  0
  2  3  1  0
  2  4  1  0
  2  8  1  0
  4  5  1  0
  4 23  1  0
  5  6  2  0
  5  7  1  0
  7  8  1  0
  7 10  1  0
  8  9  2  0
 10 11  2  0
 10 16  1  0
 11 12  1  0
 11 13  1  0
 13 14  2  0
 13 19  1  0
 14 15  1  0
 14 17  1  0
 15 16  2  0
 17 18  3  0
 19 20  1  0
 19 21  1  0
 19 22  1  0
 23 24  2  0
 23 36  1  0
 24 25  1  0
 25 26  2  0
 26 27  1  0
 26 35  1  0
 27 28  1  0
 28 29  1  0
 29 30  1  0
 30 31  2  0
 30 34  1  0
 31 32  1  0
 32 33  2  0
 33 34  1  0
 35 36  2  0
M  END
>  <DRUGBANK_ID>  (1) 
DB16065

>  <COMMON_NAME>  (1) 
Proxalutamide

>  <CAS_NUMBER>  (1) 
1398046-21-3

>  <UNII>  (1) 
QX6O64GP40

>  <SYNONYMS>  (1) 
Proxalutamide

$$$$
