
     RDKit          3D

 24 26  0  0  0  0  0  0  0  0999 V2000
    1.0579   -0.0465   -0.2591 C   0  0  0  0  0  0  0  0  0  0  0  0
    0.6673   -0.1582    1.1823 C   0  0  0  0  0  0  0  0  0  0  0  0
    5.0001    0.6025    7.1112 C   0  0  0  0  0  0  0  0  0  0  0  0
   -0.3936   -3.1803    3.4239 C   0  0  0  0  0  0  0  0  0  0  0  0
    4.4449   -0.5737    6.6696 C   0  0  0  0  0  0  0  0  0  0  0  0
    4.3820    1.7999    6.7754 C   0  0  0  0  0  0  0  0  0  0  0  0
   -1.1259   -2.0129    3.2036 C   0  0  0  0  0  0  0  0  0  0  0  0
    0.7301   -3.1250    4.2101 C   0  0  0  0  0  0  0  0  0  0  0  0
    3.1067    2.2093    3.0113 C   0  0  0  0  0  0  0  0  0  0  0  0
    3.3122   -0.5138    5.8716 C   0  0  0  0  0  0  0  0  0  0  0  0
    3.0817    1.8008    6.2377 C   0  0  0  0  0  0  0  0  0  0  0  0
   -0.7127   -0.7785    3.7516 C   0  0  0  0  0  0  0  0  0  0  0  0
    0.9818   -1.9446    4.8904 C   0  0  0  0  0  0  0  0  0  0  0  0
    2.3159    3.4901    2.8995 C   0  0  0  0  0  0  0  0  0  0  0  0
    2.6399    1.0510    2.1048 C   0  0  0  0  0  0  0  0  0  0  0  0
    0.4727    2.2039    1.7690 C   0  0  0  0  0  0  0  0  0  0  0  0
    2.4650    0.6086    5.7974 C   0  0  0  0  0  0  0  0  0  0  0  0
    0.3967   -0.7114    4.6035 C   0  0  0  0  0  0  0  0  0  0  0  0
    0.8120    3.1910    2.8853 C   0  0  0  0  0  0  0  0  0  0  0  0
    1.1160    0.6191    4.9684 C   0  0  0  0  0  0  0  0  0  0  0  0
    0.2205    1.8373    5.1255 C   0  0  0  0  0  0  0  0  0  0  0  0
    1.1778    0.9544    1.9664 N   0  0  0  0  0  0  0  0  0  0  0  0
   -0.5282    1.9377    6.1262 O   0  0  0  0  0  0  0  0  0  0  0  0
    0.2141    2.8568    4.2168 O   0  0  0  0  0  0  0  0  0  0  0  0
  2  1  1  0
  5  3  2  0
  6  3  1  0
  7  4  2  0
  8  4  1  0
 10  5  1  0
 11  6  2  0
 12  7  1  0
 13  8  2  0
 14  9  1  0
 15  9  1  0
 17 10  2  0
 17 11  1  0
 18 12  2  0
 18 13  1  0
 19 14  1  0
 19 16  1  0
 20 17  1  0
 20 18  1  0
 21 20  1  0
 22  2  1  0
 22 15  1  0
 22 16  1  0
 23 21  2  0
 24 19  1  0
 24 21  1  0
M  END
>  <DRUGBANK_ID>  (1) 
DB13351

>  <COMMON_NAME>  (1) 
Piperidolate

>  <CAS_NUMBER>  (1) 
82-98-4

>  <UNII>  (1) 
RJO31255V9

>  <SYNONYMS>  (1) 
Piperidolate

$$$$
