
     RDKit          3D

 11 12  0  0  0  0  0  0  0  0999 V2000
    0.8968   -0.0580   -0.1634 N   0  0  0  0  0  0  0  0  0  0  0  0
    0.1615   -1.0645   -0.6717 C   0  0  0  0  0  0  0  0  0  0  0  0
    0.4156   -2.3466   -0.7055 N   0  0  0  0  0  0  0  0  0  0  0  0
   -0.6379   -2.9128   -1.4015 C   0  0  0  0  0  0  0  0  0  0  0  0
   -0.9105   -4.2531   -1.7363 C   0  0  0  0  0  0  0  0  0  0  0  0
   -2.0602   -4.5503   -2.4928 C   0  0  0  0  0  0  0  0  0  0  0  0
   -2.9096   -3.5266   -2.9085 C   0  0  0  0  0  0  0  0  0  0  0  0
   -4.0269   -3.7818   -3.6533 O   0  0  0  0  0  0  0  0  0  0  0  0
   -2.6675   -2.1923   -2.5836 C   0  0  0  0  0  0  0  0  0  0  0  0
   -1.5293   -1.9311   -1.8182 C   0  0  0  0  0  0  0  0  0  0  0  0
   -1.0077   -0.7679   -1.3168 N   0  0  0  0  0  0  0  0  0  0  0  0
  1  2  1  0
  2  3  2  0
  2 11  1  0
  3  4  1  0
  4  5  2  0
  4 10  1  0
  5  6  1  0
  6  7  2  0
  7  8  1  0
  7  9  1  0
  9 10  2  0
 10 11  1  0
M  END
>  <DRUGBANK_ID>  (1) 
DB03729

>  <SECONDARY_ACCESSION_NUMBERS>  (1) 
EXPT00052

>  <COMMON_NAME>  (1) 
2-Amino-1H-benzimidazol-5-ol

>  <CAS_NUMBER>  (1) 
51276-85-8

>  <SYNONYMS>  (1) 
5-Hydroxy-2-aminobenzimidazole

$$$$
