ROL
     RDKit          3D

 20 22  0  0  0  0  0  0  0  0999 V2000
    3.6095    0.7739    0.4282 C   0  0  0  0  0  0  0  0  0  0  0  0
    3.5472    1.6591   -0.6370 C   0  0  0  0  0  0  0  0  0  0  0  0
    4.0775    2.9471   -0.6032 C   0  0  0  0  0  0  0  0  0  0  0  0
    4.7077    3.3769    0.5686 C   0  0  0  0  0  0  0  0  0  0  0  0
    4.7602    2.5019    1.6628 C   0  0  0  0  0  0  0  0  0  0  0  0
    4.2592    1.1986    1.5789 C   0  0  0  0  0  0  0  0  0  0  0  0
    2.8785   -0.5283    0.2569 C   0  0  1  0  0  0  0  0  0  0  0  0
    3.3068   -1.3545   -0.9691 C   0  0  0  0  0  0  0  0  0  0  0  0
    2.9048   -2.7431   -0.5605 C   0  0  0  0  0  0  0  0  0  0  0  0
    2.7458   -3.7006   -1.3054 O   0  0  0  0  0  0  0  0  0  0  0  0
    2.7761   -2.7755    0.8084 N   0  0  0  0  0  0  0  0  0  0  0  0
    3.0025   -1.5027    1.4120 C   0  0  0  0  0  0  0  0  0  0  0  0
    3.9892    3.7939   -1.6651 O   0  0  0  0  0  0  0  0  0  0  0  0
    3.1600    3.5239   -2.7801 C   0  0  0  0  0  0  0  0  0  0  0  0
    1.6891    3.2519   -2.4640 C   0  0  0  0  0  0  0  0  0  0  0  0
    1.1675    2.5271   -3.6942 C   0  0  0  0  0  0  0  0  0  0  0  0
    2.3845    2.1081   -4.5296 C   0  0  0  0  0  0  0  0  0  0  0  0
    3.6212    2.3893   -3.6919 C   0  0  0  0  0  0  0  0  0  0  0  0
    5.3104    4.5876    0.8010 O   0  0  0  0  0  0  0  0  0  0  0  0
    5.4021    5.4908   -0.2956 C   0  0  0  0  0  0  0  0  0  0  0  0
  1  2  2  0
  1  6  1  0
  2  3  1  0
  3  4  2  0
  3 13  1  0
  4  5  1  0
  4 19  1  0
  5  6  2  0
  7  8  1  0
  7 12  1  0
  7  1  1  1
  8  9  1  0
  9 10  2  0
  9 11  1  0
 11 12  1  0
 13 14  1  0
 14 15  1  0
 14 18  1  0
 15 16  1  0
 16 17  1  0
 17 18  1  0
 19 20  1  0
M  END
>  <DRUGBANK_ID>  (1) 
DB04149

>  <SECONDARY_ACCESSION_NUMBERS>  (1) 
EXPT00228

>  <COMMON_NAME>  (1) 
(R)-Rolipram

>  <CAS_NUMBER>  (1) 
85416-75-7

>  <UNII>  (1) 
DPX51KUP08

>  <SYNONYMS>  (1) 
(−)-rolipram; (R)-(-)-rolipram; (R)-(−)-rolipram; (R)-4-(3-Cyclopentyloxy-4-methoxy-phenyl)-pyrrolidin-2-one; R-rolipram

$$$$
