
     RDKit          3D

 30 32  0  0  0  0  0  0  0  0999 V2000
    0.9966   -0.0735    0.0774 C   0  0  0  0  0  0  0  0  0  0  0  0
    1.0011   -2.3577    1.0695 C   0  0  0  0  0  0  0  0  0  0  0  0
   -1.0284   -1.5203   -0.1364 C   0  0  0  0  0  0  0  0  0  0  0  0
    3.1775    1.7860  -13.9865 C   0  0  0  0  0  0  0  0  0  0  0  0
    3.2991    0.7691  -13.0452 C   0  0  0  0  0  0  0  0  0  0  0  0
    3.9760   -3.2075   -7.7520 C   0  0  0  0  0  0  0  0  0  0  0  0
    2.7246   -4.5789   -9.2952 C   0  0  0  0  0  0  0  0  0  0  0  0
    3.8016   -2.1086   -8.5938 C   0  0  0  0  0  0  0  0  0  0  0  0
    2.5617   -3.4802  -10.1432 C   0  0  0  0  0  0  0  0  0  0  0  0
    1.2341   -1.3012   -2.5776 C   0  0  0  0  0  0  0  0  0  0  0  0
    1.0252   -3.5202   -1.6594 C   0  0  0  0  0  0  0  0  0  0  0  0
    1.3773   -1.8501   -3.8465 C   0  0  0  0  0  0  0  0  0  0  0  0
    1.1338   -4.0783   -2.9315 C   0  0  0  0  0  0  0  0  0  0  0  0
    1.9676    1.9304  -14.6441 C   0  0  0  0  0  0  0  0  0  0  0  0
    3.0915   -5.4552   -6.9712 C   0  0  0  0  0  0  0  0  0  0  0  0
    1.0535    0.1404  -13.5218 C   0  0  0  0  0  0  0  0  0  0  0  0
    3.3396   -4.4226   -8.0495 C   0  0  0  0  0  0  0  0  0  0  0  0
    3.0879   -2.2311   -9.7955 C   0  0  0  0  0  0  0  0  0  0  0  0
    0.9870   -2.1226   -1.4673 C   0  0  0  0  0  0  0  0  0  0  0  0
    2.2209   -0.0766  -12.7964 C   0  0  0  0  0  0  0  0  0  0  0  0
    1.2994   -3.2349   -4.0185 C   0  0  0  0  0  0  0  0  0  0  0  0
    2.9858   -1.0188  -10.6631 C   0  0  0  0  0  0  0  0  0  0  0  0
    0.5174   -1.5249   -0.1316 C   0  0  0  0  0  0  0  0  0  0  0  0
    0.8986    1.1298  -14.4359 N   0  0  0  0  0  0  0  0  0  0  0  0
    2.7726   -4.8377   -5.6566 N   0  0  0  0  0  0  0  0  0  0  0  0
    2.3107   -1.1380  -11.8715 N   0  0  0  0  0  0  0  0  0  0  0  0
    3.4922    0.0277  -10.2631 O   0  0  0  0  0  0  0  0  0  0  0  0
    0.2214   -4.7895   -5.8269 O   0  0  0  0  0  0  0  0  0  0  0  0
    1.5294   -2.7538   -6.5136 O   0  0  0  0  0  0  0  0  0  0  0  0
    1.3479   -3.8929   -5.6530 S   0  0  0  0  0  0  0  0  0  0  0  0
  5  4  2  0
  8  6  2  0
  9  7  1  0
 12 10  2  0
 13 11  1  0
 14  4  1  0
 17  6  1  0
 17  7  2  0
 17 15  1  0
 18  8  1  0
 18  9  2  0
 19 10  1  0
 19 11  2  0
 20  5  1  0
 20 16  2  0
 21 12  1  0
 21 13  2  0
 22 18  1  0
 23  1  1  0
 23  2  1  0
 23  3  1  0
 23 19  1  0
 24 14  2  0
 24 16  1  0
 25 15  1  0
 26 20  1  0
 26 22  1  0
 27 22  2  0
 30 21  1  0
 30 25  1  0
 30 28  2  0
 30 29  2  0
M  END
>  <DRUGBANK_ID>  (1) 
DB16761

>  <COMMON_NAME>  (1) 
STF-31

>  <CAS_NUMBER>  (1) 
724741-75-7

>  <SYNONYMS>  (1) 
STF 31; STF31

$$$$
