
     RDKit          3D

 20 20  0  0  0  0  0  0  0  0999 V2000
    1.8963    1.1944    0.0361 C   0  0  0  0  0  0  0  0  0  0  0  0
    2.3707   -0.1531    0.1109 C   0  0  0  0  0  0  0  0  0  0  0  0
    0.4961    1.3717   -0.0453 C   0  0  0  0  0  0  0  0  0  0  0  0
    2.6782    2.5042    0.0880 C   0  0  0  0  0  0  0  0  0  0  0  0
    1.5067   -1.2246   -0.0348 C   0  0  0  0  0  0  0  0  0  0  0  0
   -0.3665    0.2684   -0.0519 C   0  0  0  0  0  0  0  0  0  0  0  0
    0.1375   -1.0392   -0.0694 C   0  0  0  0  0  0  0  0  0  0  0  0
    2.0665    3.5882   -0.0026 O   0  0  0  0  0  0  0  0  0  0  0  0
    4.0383    2.6182    0.2253 N   0  0  0  0  0  0  0  0  0  0  0  0
   -0.6384   -2.1828    0.0063 N   0  0  0  0  0  0  0  0  0  0  0  0
   -2.0737    0.5376   -0.0116 Cl  0  0  0  0  0  0  0  0  0  0  0  0
    3.5893   -0.5009    0.6359 O   0  0  0  0  0  0  0  0  0  0  0  0
    6.8725    2.2850   -1.3938 N   0  0  0  0  0  0  0  0  0  0  0  0
    5.0279    1.5802    0.0822 C   0  0  0  0  0  0  0  0  0  0  0  0
    5.8536    1.2939   -1.1640 C   0  0  0  0  0  0  0  0  0  0  0  0
    7.7020    1.9390   -2.5434 C   0  0  0  0  0  0  0  0  0  0  0  0
    6.3058    3.6330   -1.4251 C   0  0  0  0  0  0  0  0  0  0  0  0
    4.3399   -1.6318    0.1807 C   0  0  0  0  0  0  0  0  0  0  0  0
    6.9919    1.8857   -3.8901 C   0  0  0  0  0  0  0  0  0  0  0  0
    5.1337    3.8613   -2.3905 C   0  0  0  0  0  0  0  0  0  0  0  0
  2  1  2  0
  3  1  1  0
  4  1  1  0
  5  2  1  0
  6  3  2  0
  7  5  2  0
  7  6  1  0
  8  4  2  0
  9  4  1  0
 10  7  1  0
 11  6  1  0
 12  2  1  0
 14  9  1  0
 15 13  1  0
 15 14  1  0
 16 13  1  0
 17 13  1  0
 18 12  1  0
 19 16  1  0
 20 17  1  0
M  END
>  <DRUGBANK_ID>  (1) 
DB01233

>  <SECONDARY_ACCESSION_NUMBERS>  (1) 
APRD00665

>  <COMMON_NAME>  (1) 
Metoclopramide

>  <CAS_NUMBER>  (1) 
364-62-5

>  <UNII>  (1) 
L4YEB44I46

>  <SYNONYMS>  (1) 
2-methoxy-4-amino-5-chloro-N,N-(dimethylaminoethyl)benzamide; 2-methoxy-5-chloroprocainamide; 4-amino-5-chloro-2-methoxy-N-(Î²-diethylaminoethyl)benzamide; 4-amino-5-chloro-N-(2-(diethylamino)ethyl)-o-anisamide; Metoclopramida; Metoclopramide; Metoclopramidum

$$$$
