
     RDKit          3D

 40 45  0  0  1  0  0  0  0  0999 V2000
    2.7719    0.7803   -0.0551 C   0  0  1  0  0  0  0  0  0  0  0  0
    2.1654   -0.5846   -0.5255 C   0  0  2  0  0  0  0  0  0  0  0  0
    4.1665    0.5191   -0.6452 C   0  0  2  0  0  0  0  0  0  0  0  0
    1.9847    1.9309   -0.6985 C   0  0  0  0  0  0  0  0  0  0  0  0
    2.7700    1.0763    1.4634 C   0  0  0  0  0  0  0  0  0  0  0  0
    0.8109   -0.7874    0.0327 C   0  0  1  0  0  0  0  0  0  0  0  0
    3.1356   -1.6605   -0.0788 C   0  0  0  0  0  0  0  0  0  0  0  0
    4.5004   -1.0016   -0.2724 C   0  0  2  0  0  0  0  0  0  0  0  0
    5.1631    1.4957   -0.3773 O   0  0  0  0  0  0  0  0  0  0  0  0
    0.5225    1.8476   -0.2710 C   0  0  0  0  0  0  0  0  0  0  0  0
   -0.0634    0.4009   -0.4634 C   0  0  2  0  0  0  0  0  0  0  0  0
    0.1446   -2.1840   -0.1496 C   0  0  0  0  0  0  0  0  0  0  0  0
    5.4731   -1.3133    0.9431 N   0  0  0  0  0  0  0  0  0  0  0  0
    6.3162    1.5016   -1.0930 C   0  0  0  0  0  0  0  0  0  0  0  0
   -1.4358    0.2195    0.2250 C   0  0  2  0  0  0  0  0  0  0  0  0
   -1.3096   -2.3400    0.3821 C   0  0  0  0  0  0  0  0  0  0  0  0
    4.9732   -0.7485    2.2660 C   0  0  0  0  0  0  0  0  0  0  0  0
    5.7025   -2.8414    1.0516 C   0  0  0  0  0  0  0  0  0  0  0  0
    6.8227   -0.6896    0.6746 C   0  0  0  0  0  0  0  0  0  0  0  0
    6.4888    0.5815   -2.2675 C   0  0  0  0  0  0  0  0  0  0  0  0
    7.3101    2.1214   -0.6342 O   0  0  0  0  0  0  0  0  0  0  0  0
   -2.1135   -1.1858   -0.1749 C   0  0  1  0  0  0  0  0  0  0  0  0
   -2.5027    1.4956   -0.3225 C   0  0  0  0  0  0  0  0  0  0  0  0
   -0.7441    0.0978    1.8141 C   0  0  0  0  0  0  0  0  0  0  0  0
    5.8322   -1.0968    3.4544 C   0  0  0  0  0  0  0  0  0  0  0  0
    6.5588   -3.1580    2.2797 C   0  0  0  0  0  0  0  0  0  0  0  0
   -3.6509   -1.2745   -0.0650 C   0  0  0  0  0  0  0  0  0  0  0  0
   -4.0596    1.3724   -0.1235 C   0  0  1  0  0  0  0  0  0  0  0  0
    5.9071   -2.6073    3.5411 C   0  0  0  0  0  0  0  0  0  0  0  0
   -4.4160   -0.0700   -0.6867 C   0  0  1  0  0  0  0  0  0  0  0  0
   -4.6453    1.8594    1.1962 N   0  0  0  0  0  0  0  0  0  0  0  0
   -4.3746   -0.1340   -2.2185 O   0  0  0  0  0  0  0  0  0  0  0  0
   -4.1661    3.2122    1.6196 C   0  0  0  0  0  0  0  0  0  0  0  0
   -4.4677    0.9595    2.3277 C   0  0  0  0  0  0  0  0  0  0  0  0
   -3.4603   -0.0544   -3.2124 C   0  0  0  0  0  0  0  0  0  0  0  0
   -2.6796    3.4218    1.8774 C   0  0  0  0  0  0  0  0  0  0  0  0
   -3.0161    0.9343    2.5294 C   0  0  0  0  0  0  0  0  0  0  0  0
   -2.0434    0.2179   -2.9442 C   0  0  0  0  0  0  0  0  0  0  0  0
   -3.7919   -0.2130   -4.4213 O   0  0  0  0  0  0  0  0  0  0  0  0
   -2.1968    2.2675    2.7395 C   0  0  0  0  0  0  0  0  0  0  0  0
  1  2  1  0
  1  3  1  0
  1  4  1  0
  1  5  1  1
  2  6  1  0
  2  7  1  1
  3  8  1  0
  3  9  1  1
  4 10  1  0
  6 11  1  0
  6 12  1  6
  7  8  1  0
  8 13  1  1
  9 14  1  0
 11 10  1  1
 11 15  1  0
 12 16  1  0
 13 17  1  0
 13 18  1  0
 13 19  1  0
 14 20  1  0
 14 21  2  0
 15 22  1  0
 15 23  1  0
 15 24  1  1
 22 16  1  1
 17 25  1  0
 18 26  1  0
 22 27  1  0
 23 28  1  0
 25 29  1  0
 26 29  1  0
 27 30  1  0
 28 31  1  1
 28 30  1  0
 30 32  1  6
 31 33  1  0
 31 34  1  0
 32 35  1  0
 33 36  1  0
 34 37  1  0
 35 38  1  0
 35 39  2  0
 36 40  1  0
 37 40  1  0
M  CHG  1  13   1
M  END
>  <DRUGBANK_ID>  (1) 
DB01339

>  <COMMON_NAME>  (1) 
Vecuronium

>  <CAS_NUMBER>  (1) 
86029-43-8

>  <UNII>  (1) 
5438723848

>  <SYNONYMS>  (1) 
Vecuronio; Vecuronium cation

$$$$
