
     RDKit          3D

 24 27  0  0  1  0  0  0  0  0999 V2000
    0.0670    3.7731   -3.6909 C   0  0  0  0  0  0  0  0  0  0  0  0
    0.0645    2.3491   -3.2102 C   0  0  0  0  0  0  0  0  0  0  0  0
    0.5033    1.3981   -4.1421 C   0  0  0  0  0  0  0  0  0  0  0  0
    0.6537   -0.1646   -4.0002 C   0  0  2  0  0  0  0  0  0  0  0  0
    1.1960   -0.1857   -2.5069 C   0  0  2  0  0  0  0  0  0  0  0  0
    1.2647   -1.6359   -1.9981 C   0  0  0  0  0  0  0  0  0  0  0  0
    2.1875   -2.3688   -2.9332 C   0  0  0  0  0  0  0  0  0  0  0  0
    1.6917   -2.2549   -4.3279 C   0  0  1  0  0  0  0  0  0  0  0  0
    1.0311   -1.5168   -5.3281 C   0  0  1  0  0  0  0  0  0  0  0  0
    1.2809   -3.5059   -5.6858 C   0  0  0  0  0  0  0  0  0  0  0  0
    2.7358   -3.9894   -5.4823 C   0  0  0  0  0  0  0  0  0  0  0  0
    2.9408   -2.5707   -5.4899 C   0  0  2  0  0  0  0  0  0  0  0  0
    4.3403   -2.1108   -5.2951 C   0  0  0  0  0  0  0  0  0  0  0  0
    5.2262   -2.8910   -4.9523 O   0  0  0  0  0  0  0  0  0  0  0  0
    4.6179   -0.6819   -5.6566 C   0  0  0  0  0  0  0  0  0  0  0  0
    2.7225   -2.1845   -6.9347 O   0  0  0  0  0  0  0  0  0  0  0  0
   -0.1626   -2.6345   -4.2695 C   0  0  0  0  0  0  0  0  0  0  0  0
    0.3307    0.8061   -1.4943 C   0  0  2  0  0  0  0  0  0  0  0  0
   -0.3840    2.1502   -1.6299 C   0  0  0  0  0  0  0  0  0  0  0  0
   -0.4792    3.0644   -0.3764 C   0  0  0  0  0  0  0  0  0  0  0  0
    0.7498    3.9992   -0.1686 C   0  0  0  0  0  0  0  0  0  0  0  0
    0.9861    5.0293    0.5614 O   0  0  0  0  0  0  0  0  0  0  0  0
    1.6562    3.3582   -1.0286 C   0  0  0  0  0  0  0  0  0  0  0  0
    1.3788    1.5426   -0.6440 C   0  0  0  0  0  0  0  0  0  0  0  0
  1  2  1  0
  2  3  2  0
  2 19  1  0
  4  3  1  6
  4  5  1  0
  4  9  1  0
  5  6  1  1
  5 18  1  0
  6  7  1  0
  7  8  1  0
  8  9  1  0
  8 12  1  0
  8 17  1  1
  9 10  1  1
 10 11  1  0
 11 12  1  0
 12 16  1  6
 12 13  1  0
 13 14  2  0
 13 15  1  0
 18 19  1  0
 18 24  1  1
 19 20  2  0
 20 21  1  0
 21 22  2  0
 21 23  1  0
 23 24  1  0
M  END
>  <DRUGBANK_ID>  (1) 
DB11636

>  <COMMON_NAME>  (1) 
Nomegestrol

>  <CAS_NUMBER>  (1) 
58691-88-6

>  <UNII>  (1) 
10F89177CO

>  <SYNONYMS>  (1) 
Nomegestrol

$$$$
