
     RDKit          3D

 32 33  0  0  1  0  0  0  0  0999 V2000
    1.1590    0.0588   -0.0122 C   0  0  0  0  0  0  0  0  0  0  0  0
    0.6005   -0.2488    1.3617 C   0  0  0  0  0  0  0  0  0  0  0  0
    1.2114    0.5887    2.5523 C   0  0  0  0  0  0  0  0  0  0  0  0
   -0.9733   -0.2485    1.3053 C   0  0  1  0  0  0  0  0  0  0  0  0
   -1.5392   -1.3666    0.3547 C   0  0  0  0  0  0  0  0  0  0  0  0
   -1.1033   -2.8224    0.6636 C   0  0  0  0  0  0  0  0  0  0  0  0
   -1.6185   -3.4186    1.9883 C   0  0  0  0  0  0  0  0  0  0  0  0
   -3.0630   -3.2376    2.1478 N   0  0  0  0  0  0  0  0  0  0  0  0
   -3.5305   -3.5464    3.5092 C   0  0  0  0  0  0  0  0  0  0  0  0
   -3.1819   -2.5178    4.6336 C   0  0  0  0  0  0  0  0  0  0  0  0
   -3.6959   -1.0872    4.4228 C   0  0  0  0  0  0  0  0  0  0  0  0
   -4.9381   -0.8933    3.8330 C   0  0  0  0  0  0  0  0  0  0  0  0
   -5.4021    0.3866    3.5367 C   0  0  0  0  0  0  0  0  0  0  0  0
   -4.6125    1.5168    3.7557 C   0  0  0  0  0  0  0  0  0  0  0  0
   -3.3828    1.3698    4.3946 C   0  0  0  0  0  0  0  0  0  0  0  0
   -2.9782    0.0834    4.7803 C   0  0  0  0  0  0  0  0  0  0  0  0
   -2.4663    2.3588    4.6704 O   0  0  0  0  0  0  0  0  0  0  0  0
   -2.9751    3.6875    4.6850 C   0  0  0  0  0  0  0  0  0  0  0  0
   -4.9683    2.7666    3.3489 O   0  0  0  0  0  0  0  0  0  0  0  0
   -6.2684    2.9614    2.8433 C   0  0  0  0  0  0  0  0  0  0  0  0
   -1.1903   -0.6398    2.6970 C   0  0  0  0  0  0  0  0  0  0  0  0
   -0.8729   -1.0666    3.7066 N   0  0  0  0  0  0  0  0  0  0  0  0
   -1.5775    1.1235    0.9944 C   0  0  0  0  0  0  0  0  0  0  0  0
   -2.9190    1.2882    0.6612 C   0  0  0  0  0  0  0  0  0  0  0  0
   -3.4315    2.5652    0.4380 C   0  0  0  0  0  0  0  0  0  0  0  0
   -2.6464    3.7056    0.6319 C   0  0  0  0  0  0  0  0  0  0  0  0
   -1.3452    3.5714    1.0736 C   0  0  0  0  0  0  0  0  0  0  0  0
   -0.8154    2.3002    1.0926 C   0  0  0  0  0  0  0  0  0  0  0  0
   -0.4652    4.5365    1.4885 O   0  0  0  0  0  0  0  0  0  0  0  0
   -1.0000    5.8448    1.6154 C   0  0  0  0  0  0  0  0  0  0  0  0
   -3.0470    4.9706    0.3504 O   0  0  0  0  0  0  0  0  0  0  0  0
   -4.3221    5.1453   -0.2069 C   0  0  0  0  0  0  0  0  0  0  0  0
  1  2  1  0
  2  3  1  0
  2  4  1  0
  4  5  1  6
  4 21  1  0
  4 23  1  0
  5  6  1  0
  6  7  1  0
  7  8  1  0
  8  9  1  0
  9 10  1  0
 10 11  1  0
 11 12  2  0
 11 16  1  0
 12 13  1  0
 13 14  2  0
 14 15  1  0
 14 19  1  0
 15 16  2  0
 15 17  1  0
 17 18  1  0
 19 20  1  0
 21 22  3  0
 23 24  2  0
 23 28  1  0
 24 25  1  0
 25 26  2  0
 26 27  1  0
 26 31  1  0
 27 28  2  0
 27 29  1  0
 29 30  1  0
 31 32  1  0
M  END
>  <DRUGBANK_ID>  (1) 
DB06669

>  <COMMON_NAME>  (1) 
Arverapamil

>  <CAS_NUMBER>  (1) 
123932-43-4

>  <UNII>  (1) 
3J8P56R04P

>  <SYNONYMS>  (1) 
(R)-norverapamil

$$$$
