402
     RDKit          3D

 27 30  0  0  1  0  0  0  0  0999 V2000
    2.0417    0.0563   -0.0104 Cl  0  0  0  0  0  0  0  0  0  0  0  0
   -4.9241   -0.0559   -2.0897 O   0  0  0  0  0  0  0  0  0  0  0  0
   -4.3789   -1.5488   -3.6790 O   0  0  0  0  0  0  0  0  0  0  0  0
   -4.0625   -0.5475    2.4119 O   0  0  0  0  0  0  0  0  0  0  0  0
   -4.1346   -2.2154   -1.5096 N   0  0  0  0  0  0  0  0  0  0  0  0
   -3.8166   -4.3693    0.4806 N   0  0  0  0  0  0  0  0  0  0  0  0
   -3.9354    0.2135    0.1734 N   0  0  0  0  0  0  0  0  0  0  0  0
   -7.5911    0.5057   -0.5348 N   0  0  0  0  0  0  0  0  0  0  0  0
   -6.9484   -0.6469    1.9962 N   0  0  0  0  0  0  0  0  0  0  0  0
   -1.8079    1.3357   -0.0975 N   0  0  0  0  0  0  0  0  0  0  0  0
   -5.0973   -2.4925   -0.4831 C   0  0  0  0  0  0  0  0  0  0  0  0
   -3.4535   -3.4458   -1.9070 C   0  0  0  0  0  0  0  0  0  0  0  0
   -4.4624   -3.0877    0.7791 C   0  0  0  0  0  0  0  0  0  0  0  0
   -2.9044   -4.2487   -0.6885 C   0  0  0  0  0  0  0  0  0  0  0  0
   -4.9375    0.6584   -0.8047 C   0  0  2  0  0  0  0  0  0  0  0  0
   -4.4735   -1.2828   -2.4822 C   0  0  0  0  0  0  0  0  0  0  0  0
   -4.8840   -5.3241    0.2260 C   0  0  0  0  0  0  0  0  0  0  0  0
   -6.3090    0.4907   -0.0562 C   0  0  0  0  0  0  0  0  0  0  0  0
   -6.0386   -0.0097    1.2054 C   0  0  0  0  0  0  0  0  0  0  0  0
   -4.5699   -0.1257    1.3764 C   0  0  0  0  0  0  0  0  0  0  0  0
   -2.5066    0.1932    0.0072 C   0  0  0  0  0  0  0  0  0  0  0  0
   -1.7814   -1.0095    0.0720 C   0  0  0  0  0  0  0  0  0  0  0  0
   -8.5425   -0.0151    0.3175 C   0  0  0  0  0  0  0  0  0  0  0  0
   -8.2216   -0.6180    1.5316 C   0  0  0  0  0  0  0  0  0  0  0  0
   -0.3809   -1.1028    0.0114 C   0  0  0  0  0  0  0  0  0  0  0  0
   -0.4233    1.2397   -0.0681 C   0  0  0  0  0  0  0  0  0  0  0  0
    0.3251    0.0679   -0.0273 C   0  0  0  0  0  0  0  0  0  0  0  0
  1 27  1  0
  2 16  1  0
  3 16  2  0
  4 20  2  0
  5 11  1  0
  5 12  1  0
  5 16  1  0
  6 13  1  0
  6 14  1  0
  6 17  1  0
  7 15  1  0
  7 20  1  0
  7 21  1  0
  8 18  2  0
  8 23  1  0
  9 19  2  0
  9 24  1  0
 10 21  2  0
 10 26  1  0
 11 13  1  0
 12 14  1  0
 15 18  1  0
 15  2  1  6
 18 19  1  0
 19 20  1  0
 21 22  1  0
 22 25  2  0
 23 24  2  0
 25 27  1  0
 26 27  2  0
M  END
>  <DRUGBANK_ID>  (1) 
DB00402

>  <SECONDARY_ACCESSION_NUMBERS>  (1) 
APRD00431

>  <COMMON_NAME>  (1) 
Eszopiclone

>  <CAS_NUMBER>  (1) 
138729-47-2

>  <UNII>  (1) 
UZX80K71OE

>  <SYNONYMS>  (1) 
(+)-(5S)-6-(5-Chloropyridin-2-yl)-7-oxo-6,7-dihydro-5H-pyrrolo(3,4-b)pyrazin-5-yl 4-methylpiperazine-1-carboxylate; (+)-(5S)-6-(5-chloropyridin-2-yl)-7-oxo-6,7-dihydro-5H-pyrrolo[3,4-b]pyrazin-5-yl-4-methylpiperazine-1-carboxylate; (+)-Zopiclone; (S)-6-(5-Chloro-2-pyridinyl)- 7-oxo- 6,7-dihydro- 5H-pyrrolo[3,4-b]pyrazin-5-yl- 4-methyl- 1-piperazinecarboxylate; (S)-Zopiclone; 1-Piperazinecarobxylic acid,4-methyl-,(5S)-6-(5-chloro-2-pyridinyl)-6,7-dihydro-7-oxo-5H-pyrrolo[3,4-b]pyrazin-5-yl ester; Esopiclone; Eszopiclone

$$$$
