LLG
     RDKit          3D

 17 18  0  0  0  0  0  0  0  0999 V2000
    0.6485   -0.4819    0.4609 N   0  0  0  0  0  0  0  0  0  0  0  0
    0.9812    1.8032    1.4203 C   0  0  0  0  0  0  0  0  0  0  0  0
    0.3515    0.4192    1.5462 C   0  0  0  0  0  0  0  0  0  0  0  0
    1.8204    1.4367   -1.5169 C   0  0  0  0  0  0  0  0  0  0  0  0
    1.0630    2.6231   -0.9048 C   0  0  0  0  0  0  0  0  0  0  0  0
   -1.3915    2.3112   -4.4959 C   0  0  0  0  0  0  0  0  0  0  0  0
   -0.5613   -0.3365   -4.0998 C   0  0  0  0  0  0  0  0  0  0  0  0
    1.0808    0.3817   -2.3933 C   0  0  0  0  0  0  0  0  0  0  0  0
    0.8098   -2.0032   -3.0083 C   0  0  0  0  0  0  0  0  0  0  0  0
    0.4351    2.5041    0.2849 O   0  0  0  0  0  0  0  0  0  0  0  0
    1.4569   -0.9900   -2.2896 C   0  0  0  0  0  0  0  0  0  0  0  0
   -0.1762   -1.6723   -3.9268 C   0  0  0  0  0  0  0  0  0  0  0  0
    0.0512    0.6930   -3.3269 C   0  0  0  0  0  0  0  0  0  0  0  0
   -0.4143    1.9944   -3.5624 C   0  0  0  0  0  0  0  0  0  0  0  0
   -1.9462    1.3102   -5.2617 C   0  0  0  0  0  0  0  0  0  0  0  0
   -1.5475   -0.0094   -5.0525 C   0  0  0  0  0  0  0  0  0  0  0  0
    0.9847    3.7162   -1.4871 O   0  0  0  0  0  0  0  0  0  0  0  0
  1  3  1  0
  2  3  1  0
  2 10  1  0
  4  5  1  0
  4  8  1  0
  5 10  1  0
  5 17  2  0
  6 14  2  0
  6 15  1  0
  7 12  1  0
  7 13  2  0
  7 16  1  0
  8 11  2  0
  8 13  1  0
  9 11  1  0
  9 12  2  0
 13 14  1  0
 15 16  2  0
M  END
>  <DRUGBANK_ID>  (1) 
DB08115

>  <COMMON_NAME>  (1) 
2-aminoethyl naphthalen-1-ylacetate

$$$$
