713
     RDKit          3D

 28 31  0  0  1  0  0  0  0  0999 V2000
    1.0045   -1.1131   -0.5485 S   0  0  0  0  0  0  0  0  0  0  0  0
   -2.6633    1.0750   -0.5011 O   0  0  0  0  0  0  0  0  0  0  0  0
   -0.4790    3.6116    0.9212 O   0  0  0  0  0  0  0  0  0  0  0  0
    1.1200    2.6385    2.1185 O   0  0  0  0  0  0  0  0  0  0  0  0
   -2.1995   -3.9247   -2.4271 O   0  0  0  0  0  0  0  0  0  0  0  0
   -3.2425   -4.9025    1.8599 O   0  0  0  0  0  0  0  0  0  0  0  0
   -0.7473    0.4151    0.6749 N   0  0  0  0  0  0  0  0  0  0  0  0
   -1.9730   -2.0485   -1.2176 N   0  0  0  0  0  0  0  0  0  0  0  0
   -2.4185   -5.8947    1.3827 N   0  0  0  0  0  0  0  0  0  0  0  0
   -0.4008   -1.0245    0.5745 C   0  0  1  0  0  0  0  0  0  0  0  0
    1.5602    0.5676    0.0120 C   0  0  0  0  0  0  0  0  0  0  0  0
    0.2444    1.3779    0.1972 C   0  0  2  0  0  0  0  0  0  0  0  0
   -1.7871   -1.2686    0.0196 C   0  0  1  0  0  0  0  0  0  0  0  0
   -1.9238    0.2601   -0.0142 C   0  0  0  0  0  0  0  0  0  0  0  0
    2.4417    1.1084   -1.1027 C   0  0  0  0  0  0  0  0  0  0  0  0
    2.3668    0.3585    1.3019 C   0  0  0  0  0  0  0  0  0  0  0  0
    0.3667    2.5827    1.1570 C   0  0  0  0  0  0  0  0  0  0  0  0
   -2.2273   -3.4008   -1.3165 C   0  0  0  0  0  0  0  0  0  0  0  0
   -2.4822   -4.1706   -0.1135 C   0  0  0  0  0  0  0  0  0  0  0  0
   -1.9706   -5.4690    0.1921 C   0  0  0  0  0  0  0  0  0  0  0  0
   -3.3141   -3.8912    0.9570 C   0  0  0  0  0  0  0  0  0  0  0  0
   -1.0171   -6.2628   -0.5679 C   0  0  0  0  0  0  0  0  0  0  0  0
   -4.2196   -2.7836    1.3412 C   0  0  0  0  0  0  0  0  0  0  0  0
    0.2505   -5.7367   -0.8471 C   0  0  0  0  0  0  0  0  0  0  0  0
   -1.3360   -7.5589   -0.9897 C   0  0  0  0  0  0  0  0  0  0  0  0
    1.1910   -6.4984   -1.5387 C   0  0  0  0  0  0  0  0  0  0  0  0
   -0.3735   -8.3375   -1.6360 C   0  0  0  0  0  0  0  0  0  0  0  0
    0.8779   -7.7974   -1.9342 C   0  0  0  0  0  0  0  0  0  0  0  0
 10  1  1  6
  1 11  1  0
  2 14  2  0
  3 17  1  0
  4 17  2  0
  5 18  2  0
  6  9  1  0
  6 21  1  0
  7 10  1  0
  7 12  1  0
  7 14  1  0
  8 18  1  0
  9 20  2  0
 10 13  1  0
 11 12  1  0
 11 15  1  0
 11 16  1  0
 12 17  1  1
 13 14  1  0
 13  8  1  6
 18 19  1  0
 19 20  1  0
 19 21  2  0
 20 22  1  0
 21 23  1  0
 22 24  2  0
 22 25  1  0
 24 26  1  0
 25 27  2  0
 26 28  2  0
 27 28  1  0
M  END
>  <DRUGBANK_ID>  (1) 
DB00713

>  <SECONDARY_ACCESSION_NUMBERS>  (1) 
APRD01149

>  <COMMON_NAME>  (1) 
Oxacillin

>  <CAS_NUMBER>  (1) 
66-79-5

>  <UNII>  (1) 
UH95VD7V76

>  <SYNONYMS>  (1) 
(2S,5R,6R)-3,3-dimethyl-6-{[(5-methyl-3-phenylisoxazol-4-yl)carbonyl]amino}-7-oxo-4-thia-1-azabicyclo[3.2.0]heptane-2-carboxylic acid; (5-methyl-3-phenyl-4-isoxazolyl)penicillin; 5-methyl-3-phenyl-4-isoxazolyl-penicillin; 6Î²-(5-methyl-3-phenylisoxazol-4-yl)penicillanic acid; Ossacillina; Oxacilina; Oxacillin; Oxacilline; Oxacillinum; Oxazocillin; Oxazocilline

$$$$
