
     RDKit          3D

 12 11  0  0  0  0  0  0  0  0999 V2000
    1.0615   -0.0278    0.0666 C   0  0  0  0  0  0  0  0  0  0  0  0
    0.5293    0.5712   -1.2429 C   0  0  0  0  0  0  0  0  0  0  0  0
    1.0615   -0.0440   -2.5448 C   0  0  0  0  0  0  0  0  0  0  0  0
    0.5330   -1.3875    0.4508 C   0  0  0  0  0  0  0  0  0  0  0  0
   -0.4780   -1.6200    1.0793 O   0  0  0  0  0  0  0  0  0  0  0  0
    1.2808   -2.3955   -0.0201 O   0  0  0  0  0  0  0  0  0  0  0  0
   -0.9755    0.6965   -1.2436 C   0  0  0  0  0  0  0  0  0  0  0  0
   -1.6015    1.7426   -1.2501 O   0  0  0  0  0  0  0  0  0  0  0  0
   -1.5974   -0.4911   -1.2362 O   0  0  0  0  0  0  0  0  0  0  0  0
    0.5330   -1.4084   -2.9120 C   0  0  0  0  0  0  0  0  0  0  0  0
   -0.4780   -1.6487   -3.5376 O   0  0  0  0  0  0  0  0  0  0  0  0
    1.2807   -2.4105   -2.4286 O   0  0  0  0  0  0  0  0  0  0  0  0
  2  1  1  0
  3  2  1  0
  4  1  1  0
  5  4  2  0
  6  4  1  0
  7  2  1  0
  8  7  2  0
  9  7  1  0
 10  3  1  0
 11 10  2  0
 12 10  1  0
M  END
>  <DRUGBANK_ID>  (1) 
DB04562

>  <SECONDARY_ACCESSION_NUMBERS>  (1) 
EXPT03105

>  <COMMON_NAME>  (1) 
Tricarballylic acid

>  <CAS_NUMBER>  (1) 
99-14-9

>  <UNII>  (1) 
RA5QH2J020

>  <SYNONYMS>  (1) 
1,2,3-propanetricarboxylic acid; 3-carboxyglutaric acid; 3-carboxypentanedioic acid; Carballylic acid; Carboxymethylsuccinic acid; Î²-carboxyglutaric acid

$$$$
