
     RDKit          3D

  4  3  0  0  0  0  0  0  0  0999 V2000
    0.9973   -0.0635   -0.0525 C   0  0  0  0  0  0  0  0  0  0  0  0
    0.5023    1.3731    0.0384 C   0  0  0  0  0  0  0  0  0  0  0  0
    0.9991    2.2360   -1.1154 C   0  0  0  0  0  0  0  0  0  0  0  0
    0.5062    1.7608   -2.3595 O   0  0  0  0  0  0  0  0  0  0  0  0
  1  2  1  0
  2  3  1  0
  3  4  1  0
M  END
>  <DRUGBANK_ID>  (1) 
DB03175

>  <SECONDARY_ACCESSION_NUMBERS>  (1) 
EXPT02630

>  <COMMON_NAME>  (1) 
Propyl alcohol

>  <CAS_NUMBER>  (1) 
71-23-8

>  <UNII>  (1) 
96F264O9SV

>  <SYNONYMS>  (1) 
1-propanol; 1-proponol; N-propanol; N-propyl alcohol; Propanol

$$$$
