458
     RDKit          3D

 19 21  0  0  0  0  0  0  0  0999 V2000
   -1.2449    0.7385    1.2205 C   0  0  0  0  0  0  0  0  0  0  0  0
   -1.4631    1.5249    2.8980 C   0  0  0  0  0  0  0  0  0  0  0  0
   -1.2437    0.5850    4.2286 C   0  0  0  0  0  0  0  0  0  0  0  0
   -0.3670    0.8854    5.4605 C   0  0  0  0  0  0  0  0  0  0  0  0
   -1.3382   -0.6892    3.9718 C   0  0  0  0  0  0  0  0  0  0  0  0
   -1.5608   -0.8169    2.5449 C   0  0  0  0  0  0  0  0  0  0  0  0
   -0.2546   -0.0686    1.8386 C   0  0  1  0  0  0  0  0  0  0  0  0
    0.6787   -1.1982    1.5031 C   0  0  0  0  0  0  0  0  0  0  0  0
    1.6628   -1.2760    2.5430 O   0  0  0  0  0  0  0  0  0  0  0  0
    0.6229    1.4887    1.8687 C   0  0  0  0  0  0  0  0  0  0  0  0
   -0.3150    2.9385    1.6998 O   0  0  0  0  0  0  0  0  0  0  0  0
   -1.7602    2.7591    2.1915 C   0  0  2  0  0  0  0  0  0  0  0  0
   -2.8662    3.5245    2.9023 C   0  0  0  0  0  0  0  0  0  0  0  0
   -2.7518    4.7088    3.6128 C   0  0  0  0  0  0  0  0  0  0  0  0
   -3.9176    5.3854    4.0420 C   0  0  0  0  0  0  0  0  0  0  0  0
   -5.1904    4.8683    3.7809 C   0  0  0  0  0  0  0  0  0  0  0  0
   -6.3399    5.5342    4.0898 O   0  0  0  0  0  0  0  0  0  0  0  0
   -5.3276    3.6359    3.1779 C   0  0  0  0  0  0  0  0  0  0  0  0
   -4.1774    2.9627    2.7711 C   0  0  0  0  0  0  0  0  0  0  0  0
  1  2  1  0
  1  7  1  0
  2  3  1  0
  2 12  1  0
  3  5  2  0
  3  4  1  0
  5  6  1  0
  6  7  1  0
  7 10  1  0
  7  8  1  6
  8  9  1  0
 10 11  1  0
 11 12  1  0
 12 13  1  1
 13 14  2  0
 13 19  1  0
 14 15  1  0
 15 16  2  0
 16 17  1  0
 16 18  1  0
 18 19  2  0
M  END
>  <DRUGBANK_ID>  (1) 
DB07086

>  <COMMON_NAME>  (1) 
4-[(1S,2S,5S)-5-(HYDROXYMETHYL)-8-METHYL-3-OXABICYCLO[3.3.1]NON-7-EN-2-YL]PHENOL

$$$$
