DFA
     RDKit          3D

 16 17  0  0  0  0  0  0  0  0999 V2000
    1.1418   -0.0619    0.0023 C   0  0  0  0  0  0  0  0  0  0  0  0
    0.5854    0.0057   -1.0779 O   0  0  0  0  0  0  0  0  0  0  0  0
    0.4253   -3.9287    2.0261 C   0  0  0  0  0  0  0  0  0  0  0  0
    0.3020   -2.7009    1.3728 C   0  0  0  0  0  0  0  0  0  0  0  0
    0.7463   -1.5294    1.9971 C   0  0  0  0  0  0  0  0  0  0  0  0
    1.4090   -1.6684    3.2226 C   0  0  0  0  0  0  0  0  0  0  0  0
    1.3184   -2.8312    3.9675 C   0  0  0  0  0  0  0  0  0  0  0  0
    0.8936   -3.9855    3.3391 C   0  0  0  0  0  0  0  0  0  0  0  0
    0.5939    1.0920    2.2406 C   0  0  0  0  0  0  0  0  0  0  0  0
    0.6613    2.3585    1.6469 C   0  0  0  0  0  0  0  0  0  0  0  0
    0.7301    3.5125    2.4349 C   0  0  0  0  0  0  0  0  0  0  0  0
    0.7721    3.4282    3.8261 C   0  0  0  0  0  0  0  0  0  0  0  0
    0.6650    2.1960    4.4383 C   0  0  0  0  0  0  0  0  0  0  0  0
    0.5162    1.0635    3.6497 C   0  0  0  0  0  0  0  0  0  0  0  0
    0.4480   -0.1673    1.3624 C   0  0  0  0  0  0  0  0  0  0  0  0
    2.4921   -0.0609    0.0739 O   0  0  0  0  0  0  0  0  0  0  0  0
  1  2  2  0
  1 15  1  0
  1 16  1  0
  3  4  2  0
  3  8  1  0
  4  5  1  0
  5  6  2  0
  5 15  1  0
  6  7  1  0
  7  8  2  0
  9 10  2  0
  9 14  1  0
  9 15  1  0
 10 11  1  0
 11 12  2  0
 12 13  1  0
 13 14  2  0
M  END
>  <DRUGBANK_ID>  (1) 
DB03588

>  <SECONDARY_ACCESSION_NUMBERS>  (1) 
EXPT01167

>  <COMMON_NAME>  (1) 
Diphenylacetic acid

>  <CAS_NUMBER>  (1) 
117-34-0

>  <UNII>  (1) 
658NCZ0NKO

>  <SYNONYMS>  (1) 
2,2-diphenylacetic acid; Î±-phenylbenzeneacetic acid

$$$$
