
     RDKit          3D

 36 38  0  0  0  0  0  0  0  0999 V2000
    1.0337   -0.2184    0.1246 O   0  0  0  0  0  0  0  0  0  0  0  0
    3.2983    2.3783   -5.4597 O   0  0  0  0  0  0  0  0  0  0  0  0
    5.8790   -5.2931   -0.9788 O   0  0  0  0  0  0  0  0  0  0  0  0
    4.2879   -4.2593   -2.1304 O   0  0  0  0  0  0  0  0  0  0  0  0
    3.0040   -1.1686   -0.2005 N   0  0  0  0  0  0  0  0  0  0  0  0
    4.4532   -1.2565   -0.2697 C   0  0  1  0  0  0  0  0  0  0  0  0
    4.9305   -2.3823    0.6421 C   0  0  0  0  0  0  0  0  0  0  0  0
    4.9424   -1.4460   -1.6904 C   0  0  0  0  0  0  0  0  0  0  0  0
    1.0657    2.6089   -0.4793 C   0  0  0  0  0  0  0  0  0  0  0  0
    2.5370    2.2921   -0.6343 C   0  0  0  0  0  0  0  0  0  0  0  0
    0.8085    3.0273    0.9757 C   0  0  0  0  0  0  0  0  0  0  0  0
    2.9687    1.2275    0.3560 C   0  0  0  0  0  0  0  0  0  0  0  0
    1.4368    4.3966    1.2519 C   0  0  0  0  0  0  0  0  0  0  0  0
    2.2556   -0.0800    0.0808 C   0  0  0  0  0  0  0  0  0  0  0  0
    4.4360   -3.7929    0.2762 C   0  0  0  0  0  0  0  0  0  0  0  0
    4.5293   -0.4301   -2.6855 C   0  0  0  0  0  0  0  0  0  0  0  0
    1.0461    5.4850    0.2242 C   0  0  0  0  0  0  0  0  0  0  0  0
    3.5759   -0.8028   -3.6295 C   0  0  0  0  0  0  0  0  0  0  0  0
    5.0169    0.8665   -2.6431 C   0  0  0  0  0  0  0  0  0  0  0  0
   -0.4392    5.7766    0.2246 C   0  0  0  0  0  0  0  0  0  0  0  0
    4.8563   -4.4317   -1.0465 C   0  0  0  0  0  0  0  0  0  0  0  0
    3.0715    0.1522   -4.4788 C   0  0  0  0  0  0  0  0  0  0  0  0
    4.5239    1.8059   -3.5431 C   0  0  0  0  0  0  0  0  0  0  0  0
    3.5956    1.4353   -4.5167 C   0  0  0  0  0  0  0  0  0  0  0  0
   -1.4051    4.7612    0.1594 C   0  0  0  0  0  0  0  0  0  0  0  0
   -0.9020    7.0805    0.3405 C   0  0  0  0  0  0  0  0  0  0  0  0
   -2.7292    4.9635    0.5056 C   0  0  0  0  0  0  0  0  0  0  0  0
   -2.2577    7.3140    0.5911 C   0  0  0  0  0  0  0  0  0  0  0  0
   -3.1636    6.2561    0.7032 C   0  0  0  0  0  0  0  0  0  0  0  0
    2.4892    1.9968   -6.5899 C   0  0  0  0  0  0  0  0  0  0  0  0
    3.0487    0.8827   -7.4625 C   0  0  0  0  0  0  0  0  0  0  0  0
    4.1946    1.0598   -8.2419 C   0  0  0  0  0  0  0  0  0  0  0  0
    2.4695   -0.3984   -7.4113 C   0  0  0  0  0  0  0  0  0  0  0  0
    4.7654   -0.0344   -8.9019 C   0  0  0  0  0  0  0  0  0  0  0  0
    3.1267   -1.5069   -7.9303 C   0  0  0  0  0  0  0  0  0  0  0  0
    4.2485   -1.3189   -8.7225 C   0  0  0  0  0  0  0  0  0  0  0  0
  1 14  2  0
  2 24  1  0
  2 30  1  0
  3 21  1  0
  4 21  2  0
  5 14  1  0
  6  5  1  0
  6  7  1  1
  6  8  1  0
  7 15  1  0
  8 16  1  0
  9 10  1  0
  9 11  1  0
 10 12  1  0
 11 13  1  0
 12 14  1  0
 13 17  1  0
 15 21  1  0
 16 18  2  0
 16 19  1  0
 17 20  1  0
 18 22  1  0
 19 23  2  0
 20 25  2  0
 20 26  1  0
 22 24  2  0
 23 24  1  0
 25 27  1  0
 26 28  2  0
 27 29  2  0
 28 29  1  0
 30 31  1  0
 31 32  2  0
 31 33  1  0
 32 34  1  0
 33 35  2  0
 34 36  2  0
 35 36  1  0
M  END
>  <DRUGBANK_ID>  (1) 
DB04287

>  <SECONDARY_ACCESSION_NUMBERS>  (1) 
EXPT00701

>  <COMMON_NAME>  (1) 
KH064

>  <CAS_NUMBER>  (1) 
393569-31-8

>  <SYNONYMS>  (1) 
(S)-5-(4-Benzyloxy-phenyl)-4-(7-phenyl-heptanoylamino)-pentanoic acid; 5-(4-Benzyloxyphenyl)-4S-(7-phenylheptanoylamino)pentanoic acid

$$$$
