
     RDKit          3D

 22 23  0  0  0  0  0  0  0  0999 V2000
    1.0572    0.0703   -0.0422 P   0  0  0  0  0  0  0  0  0  0  0  0
   -0.1943   -2.0631    1.5844 O   0  0  0  0  0  0  0  0  0  0  0  0
   -2.1041   -1.2300    4.0427 O   0  0  0  0  0  0  0  0  0  0  0  0
    0.9665    0.8064    1.4203 O   0  0  0  0  0  0  0  0  0  0  0  0
   -1.8949   -5.5807    1.2260 O   0  0  0  0  0  0  0  0  0  0  0  0
    1.9011   -7.9657    1.2669 O   0  0  0  0  0  0  0  0  0  0  0  0
    0.9734    1.2801   -1.1211 O   0  0  0  0  0  0  0  0  0  0  0  0
   -0.6728    0.0703   -0.0422 O   0  0  0  0  0  0  0  0  0  0  0  0
    3.6329   -6.7375    3.4358 O   0  0  0  0  0  0  0  0  0  0  0  0
    2.6056    0.0703   -0.0422 O   0  0  0  0  0  0  0  0  0  0  0  0
    0.0482   -4.4431    1.7885 N   0  0  0  0  0  0  0  0  0  0  0  0
    0.0842   -6.6415    0.9888 N   0  0  0  0  0  0  0  0  0  0  0  0
   -0.7110   -1.4988    3.8593 C   0  0  2  0  0  0  0  0  0  0  0  0
   -0.2731   -0.9447    2.5227 C   0  0  1  0  0  0  0  0  0  0  0  0
   -0.6825   -3.2564    2.2550 C   0  0  1  0  0  0  0  0  0  0  0  0
   -0.5180   -2.9881    3.7507 C   0  0  0  0  0  0  0  0  0  0  0  0
    1.0251   -0.1272    2.5136 C   0  0  0  0  0  0  0  0  0  0  0  0
    1.4130   -4.5272    1.9939 C   0  0  0  0  0  0  0  0  0  0  0  0
   -0.6727   -5.5443    1.3241 C   0  0  0  0  0  0  0  0  0  0  0  0
    2.0869   -5.6839    1.9164 C   0  0  0  0  0  0  0  0  0  0  0  0
    1.3738   -6.8584    1.3739 C   0  0  0  0  0  0  0  0  0  0  0  0
    3.5118   -5.8427    2.3357 C   0  0  0  0  0  0  0  0  0  0  0  0
  1  4  1  0
  1  7  1  0
  1  8  1  0
  1 10  2  0
  2 14  1  0
  2 15  1  0
  4 17  1  0
  5 19  2  0
  6 21  2  0
  9 22  1  0
 11 18  1  0
 11 19  1  0
 12 19  1  0
 12 21  1  0
 13  3  1  6
 13 14  1  0
 13 16  1  0
 14 17  1  1
 15 16  1  0
 15 11  1  6
 18 20  2  0
 20 21  1  0
 20 22  1  0
M  END
>  <DRUGBANK_ID>  (1) 
DB03846

>  <SECONDARY_ACCESSION_NUMBERS>  (1) 
EXPT00248

>  <COMMON_NAME>  (1) 
2'-deoxy-5-(hydroxymethyl)uridine 5'-(dihydrogen phosphate)

>  <SYNONYMS>  (1) 
5-hydroxymethyluridine-2'-deoxy-5'-monophosphate

$$$$
