
     RDKit          3D

  9  8  0  0  1  0  0  0  0  0999 V2000
    1.0415    0.0939   -0.0754 C   0  0  0  0  0  0  0  0  0  0  0  0
    0.5199    1.1538    0.8973 C   0  0  0  0  0  0  0  0  0  0  0  0
    1.0250    2.5368    0.4803 C   0  0  0  0  0  0  0  0  0  0  0  0
   -1.0231    1.1394    0.9950 C   0  0  1  0  0  0  0  0  0  0  0  0
   -1.5313   -0.1881    1.4230 N   0  0  0  0  0  0  0  0  0  0  0  0
   -1.5554    2.2070    1.9767 C   0  0  0  0  0  0  0  0  0  0  0  0
   -2.2937    3.1182    1.5827 O   0  0  0  0  0  0  0  0  0  0  0  0
   -1.1919    2.1411    3.2860 N   0  0  0  0  0  0  0  0  0  0  0  0
   -0.4096    1.1151    3.8385 O   0  0  0  0  0  0  0  0  0  0  0  0
  1  2  1  0
  2  3  1  0
  2  4  1  0
  4  5  1  1
  4  6  1  0
  6  7  2  0
  6  8  1  0
  8  9  1  0
M  END
>  <DRUGBANK_ID>  (1) 
DB02697

>  <SECONDARY_ACCESSION_NUMBERS>  (1) 
EXPT01693

>  <COMMON_NAME>  (1) 
Hydroxyaminovaline

$$$$
