
     RDKit          3D

 21 23  0  0  0  0  0  0  0  0999 V2000
    1.3541    0.2440   -0.4980 C   0  0  0  0  0  0  0  0  0  0  0  0
    0.6651   -0.8012   -1.3469 C   0  0  0  0  0  0  0  0  0  0  0  0
    1.1009   -2.2287   -0.9583 C   0  0  0  0  0  0  0  0  0  0  0  0
    0.4316   -2.7372    0.2708 N   0  0  0  0  0  0  0  0  0  0  0  0
   -0.2833   -3.9486    0.1711 C   0  0  0  0  0  0  0  0  0  0  0  0
   -1.4122   -4.1117    0.9786 C   0  0  0  0  0  0  0  0  0  0  0  0
   -2.1422   -5.2856    0.9063 C   0  0  0  0  0  0  0  0  0  0  0  0
   -1.8252   -6.3209    0.1005 N   0  0  0  0  0  0  0  0  0  0  0  0
   -0.7178   -6.1677   -0.6593 C   0  0  0  0  0  0  0  0  0  0  0  0
    0.0691   -5.0259   -0.6574 C   0  0  0  0  0  0  0  0  0  0  0  0
    1.1821   -5.0077   -1.4073 F   0  0  0  0  0  0  0  0  0  0  0  0
    0.8454   -2.2396    1.5527 N   0  0  0  0  0  0  0  0  0  0  0  0
    0.4327   -1.0501    2.1296 C   0  0  0  0  0  0  0  0  0  0  0  0
    1.3298   -0.7152    3.1126 C   0  0  0  0  0  0  0  0  0  0  0  0
    1.8765   -1.9586    3.5357 C   0  0  0  0  0  0  0  0  0  0  0  0
    1.5419   -2.9117    2.5557 C   0  0  0  0  0  0  0  0  0  0  0  0
    1.8803   -4.2642    2.7188 C   0  0  0  0  0  0  0  0  0  0  0  0
    2.4933   -4.6473    3.9151 C   0  0  0  0  0  0  0  0  0  0  0  0
    2.8401   -3.7105    4.8870 C   0  0  0  0  0  0  0  0  0  0  0  0
    2.5774   -2.3560    4.6830 C   0  0  0  0  0  0  0  0  0  0  0  0
    1.5744    0.6358    3.6956 C   0  0  0  0  0  0  0  0  0  0  0  0
  1  2  1  0
  2  3  1  0
  3  4  1  0
  4  5  1  0
  4 12  1  0
  5  6  2  0
  5 10  1  0
  6  7  1  0
  7  8  2  0
  8  9  1  0
  9 10  2  0
 10 11  1  0
 12 13  1  0
 12 16  1  0
 13 14  2  0
 14 15  1  0
 14 21  1  0
 15 16  2  0
 15 20  1  0
 16 17  1  0
 17 18  2  0
 18 19  1  0
 19 20  2  0
M  END
>  <DRUGBANK_ID>  (1) 
DB12714

>  <COMMON_NAME>  (1) 
Nerispirdine

>  <CAS_NUMBER>  (1) 
119229-65-1

>  <UNII>  (1) 
G7M7YWO6CG

>  <SYNONYMS>  (1) 
Nerispirdine

$$$$
