4827
     RDKit          3D

  6  5  0  0  0  0  0  0  0  0999 V2000
    1.0567   -0.0621   -0.1119 O   0  0  0  0  0  0  0  0  0  0  0  0
    3.0245    0.5382    0.8214 O   0  0  0  0  0  0  0  0  0  0  0  0
    3.0808   -0.7744   -0.9970 N   0  0  0  0  0  0  0  0  0  0  0  0
    0.2957   -0.7047   -1.1509 C   0  0  0  0  0  0  0  0  0  0  0  0
    0.5192   -0.0447   -2.5015 C   0  0  0  0  0  0  0  0  0  0  0  0
    2.4111   -0.0701   -0.0484 C   0  0  0  0  0  0  0  0  0  0  0  0
  1  4  1  0
  1  6  1  0
  2  6  2  0
  3  6  1  0
  4  5  1  0
M  END
>  <DRUGBANK_ID>  (1) 
DB04827

>  <COMMON_NAME>  (1) 
Urethane

>  <CAS_NUMBER>  (1) 
51-79-6

>  <UNII>  (1) 
3IN71E75Z5

>  <SYNONYMS>  (1) 
Aethylcarbamat; Aethylurethan; Carbamic acid ethyl ester; Carbamidsaeure-aethylester; Ethyl carbamate; Ethylester kyseliny karbaminove; Uretan etylowy; Uretano; Urethan; Urethane; Urethanum

$$$$
