
     RDKit          3D

 27 30  0  0  0  0  0  0  0  0999 V2000
    2.7076   -0.0448    0.6197 C   0  0  0  0  0  0  0  0  0  0  0  0
    2.1980    1.2538    0.7276 C   0  0  0  0  0  0  0  0  0  0  0  0
    0.8282    1.4838    1.0106 C   0  0  0  0  0  0  0  0  0  0  0  0
   -0.0316    0.3989    1.0897 C   0  0  0  0  0  0  0  0  0  0  0  0
    0.4896   -0.8746    0.9966 C   0  0  0  0  0  0  0  0  0  0  0  0
    1.8525   -1.1253    0.7978 C   0  0  0  0  0  0  0  0  0  0  0  0
   -0.5849   -1.8270    0.6288 C   0  0  0  0  0  0  0  0  0  0  0  0
   -1.7796   -1.0052    0.3735 N   0  0  0  0  0  0  0  0  0  0  0  0
   -1.5046    0.2943    0.8462 C   0  0  0  0  0  0  0  0  0  0  0  0
   -2.3149    1.2175    0.9403 O   0  0  0  0  0  0  0  0  0  0  0  0
   -3.1695   -1.4782   -0.0065 C   0  0  0  0  0  0  0  0  0  0  0  0
   -3.5358   -2.3116   -1.3449 C   0  0  0  0  0  0  0  0  0  0  0  0
   -2.8129   -3.6743   -1.4691 C   0  0  0  0  0  0  0  0  0  0  0  0
   -1.3684   -3.4468   -1.9100 C   0  0  0  0  0  0  0  0  0  0  0  0
   -1.0914   -2.6821   -3.1403 N   0  0  0  0  0  0  0  0  0  0  0  0
   -1.9481   -1.5278   -3.1338 C   0  0  0  0  0  0  0  0  0  0  0  0
   -3.3913   -1.5796   -2.6982 C   0  0  0  0  0  0  0  0  0  0  0  0
    0.3127   -2.0986   -3.2125 C   0  0  0  0  0  0  0  0  0  0  0  0
    0.8247   -0.8741   -2.3647 C   0  0  0  0  0  0  0  0  0  0  0  0
    1.9913   -0.9997   -1.9558 O   0  0  0  0  0  0  0  0  0  0  0  0
    0.1622    0.5682   -2.2377 C   0  0  0  0  0  0  0  0  0  0  0  0
   -1.2007    0.9075   -2.0301 C   0  0  0  0  0  0  0  0  0  0  0  0
   -1.7740    2.1472   -1.7847 C   0  0  0  0  0  0  0  0  0  0  0  0
   -0.9138    3.1474   -1.4941 C   0  0  0  0  0  0  0  0  0  0  0  0
    0.4571    2.9282   -1.6409 C   0  0  0  0  0  0  0  0  0  0  0  0
    0.9934    1.6710   -2.0605 C   0  0  0  0  0  0  0  0  0  0  0  0
   -1.3875    4.2160   -0.8449 F   0  0  0  0  0  0  0  0  0  0  0  0
  1  2  2  0
  1  6  1  0
  2  3  1  0
  3  4  2  0
  4  5  1  0
  4  9  1  0
  5  6  2  0
  5  7  1  0
  7  8  1  0
  8  9  1  0
  8 11  1  0
  9 10  2  0
 11 12  1  0
 12 13  1  0
 12 17  1  0
 13 14  1  0
 14 15  1  0
 15 16  1  0
 15 18  1  0
 16 17  1  0
 18 19  1  0
 19 20  2  0
 19 21  1  0
 21 22  2  0
 21 26  1  0
 22 23  1  0
 23 24  2  0
 24 25  1  0
 24 27  1  0
 25 26  2  0
M  END
>  <DRUGBANK_ID>  (1) 
DB13080

>  <COMMON_NAME>  (1) 
Roluperidone

>  <CAS_NUMBER>  (1) 
359625-79-9

>  <UNII>  (1) 
4P31I0M3BF

>  <SYNONYMS>  (1) 
Roluperidone

$$$$
