
     RDKit          3D

 36 38  0  0  0  0  0  0  0  0999 V2000
    4.7070    6.3659   -0.1270 O   0  0  0  0  0  0  0  0  0  0  0  0
    4.7335    4.0476   -0.1127 C   0  0  1  0  0  0  0  0  0  0  0  0
    3.9968    3.9695    1.4198 C   0  0  2  0  0  0  0  0  0  0  0  0
    4.7706    2.9619   -1.3145 O   0  0  0  0  0  0  0  0  0  0  0  0
    4.2367    5.2220   -0.8386 C   0  0  1  0  0  0  0  0  0  0  0  0
    2.5646    4.4578    1.6029 C   0  0  1  0  0  0  0  0  0  0  0  0
    2.6952    5.0726   -0.7632 C   0  0  2  0  0  0  0  0  0  0  0  0
    2.4360    5.5186    0.7062 O   0  0  0  0  0  0  0  0  0  0  0  0
    1.3468    3.8863    1.4301 O   0  0  0  0  0  0  0  0  0  0  0  0
    2.0149    3.4825   -0.9132 C   0  0  0  0  0  0  0  0  0  0  0  0
    4.6939    4.8426    2.3861 N   0  0  0  0  0  0  0  0  0  0  0  0
   -0.0016    3.7363   -0.9801 C   0  0  2  0  0  0  0  0  0  0  0  0
    0.4181    2.0845    0.0461 C   0  0  1  0  0  0  0  0  0  0  0  0
    3.4580    2.1876   -1.6325 C   0  0  2  0  0  0  0  0  0  0  0  0
    2.9154    3.6927   -2.7353 O   0  0  0  0  0  0  0  0  0  0  0  0
    2.3346    1.4902   -0.0909 C   0  0  2  0  0  0  0  0  0  0  0  0
    1.0647    4.1034   -2.6263 C   0  0  2  0  0  0  0  0  0  0  0  0
    2.6546    0.3595    0.9478 O   0  0  0  0  0  0  0  0  0  0  0  0
   -0.1237    2.1288    1.3764 O   0  0  0  0  0  0  0  0  0  0  0  0
   -0.0226    4.9607   -0.1918 O   0  0  0  0  0  0  0  0  0  0  0  0
    0.8302    5.4851   -3.1298 C   0  0  0  0  0  0  0  0  0  0  0  0
    4.5695    1.4032    2.3921 O   0  0  0  0  0  0  0  0  0  0  0  0
    6.0244    1.7633    2.3175 C   0  0  2  0  0  0  0  0  0  0  0  0
    4.0969    0.3134    1.5055 C   0  0  2  0  0  0  0  0  0  0  0  0
    4.8620    0.4190    0.2548 C   0  0  2  0  0  0  0  0  0  0  0  0
    6.3418    0.5471    0.1659 C   0  0  1  0  0  0  0  0  0  0  0  0
    6.8269    1.7598    0.9896 C   0  0  2  0  0  0  0  0  0  0  0  0
    4.5714    1.7545    0.2153 O   0  0  0  0  0  0  0  0  0  0  0  0
    6.8073   -0.6855    0.5985 O   0  0  0  0  0  0  0  0  0  0  0  0
    8.2389    1.8853    1.1469 O   0  0  0  0  0  0  0  0  0  0  0  0
    6.5625    0.7884    3.2915 C   0  0  0  0  0  0  0  0  0  0  0  0
    2.0121    6.1161   -3.5741 O   0  0  0  0  0  0  0  0  0  0  0  0
    1.2723    2.0978   -1.7159 O   0  0  0  0  0  0  0  0  0  0  0  0
    5.0631    4.4810    3.6668 C   0  0  0  0  0  0  0  0  0  0  0  0
    5.6311    5.6335    4.3969 C   0  0  0  0  0  0  0  0  0  0  0  0
    5.0226    3.3888    4.2083 O   0  0  0  0  0  0  0  0  0  0  0  0
  2  3  1  0
  2  5  1  0
  2  4  1  6
  3  6  1  0
  3 11  1  1
  5  7  1  0
  5  1  1  1
  6  8  1  0
  6  9  1  6
  7 10  1  1
  7  8  1  0
 10 33  1  0
 11 34  1  0
 12 20  1  1
 13 12  1  0
 13 19  1  1
 14 15  1  0
 14 16  1  0
 14  4  1  1
 15 17  1  0
 16 13  1  0
 16 18  1  6
 17 12  1  0
 17 21  1  1
 21 32  1  0
 23 22  1  0
 23 31  1  1
 24 22  1  0
 24 25  1  0
 24 18  1  6
 25 28  1  1
 25 26  1  0
 26 27  1  0
 26 29  1  1
 27 23  1  0
 27 30  1  1
 34 35  1  0
 34 36  2  0
M  END
>  <DRUGBANK_ID>  (1) 
DB04679

>  <COMMON_NAME>  (1) 
Human blood group H type 1 trisaccharide

>  <SYNONYMS>  (1) 
alpha-L-Fucp-(1->2)-beta-D-Galp-(1->3)-beta-D-GlcpNAc; globo-H; H type I; H type I epitope; H type I trisaccharide; α-L-Fuc-(1→2)-β-D-Gal-(1→3)-β-D-GlcNAc; αLFuc(1-2)βDGal(1-3)βDGlcNAc

$$$$
