[NO NAME]
     RDKit          3D

 29 31  0  0  0  0  0  0  0  0999 V2000
    1.2327    0.4438    0.0730 O   0  0  0  0  0  0  0  0  0  0  0  0
    2.5106   -1.8888    1.6158 N   0  0  0  0  0  0  0  0  0  0  0  0
   -2.0194    1.2962   -4.4957 C   0  0  0  0  0  0  0  0  0  0  0  0
   -3.1477    2.0860   -4.4187 C   0  0  0  0  0  0  0  0  0  0  0  0
   -1.2025    0.8318   -3.2922 C   0  0  0  0  0  0  0  0  0  0  0  0
   -3.9941    2.4833   -5.6462 C   0  0  0  0  0  0  0  0  0  0  0  0
   -1.5263    0.9371   -5.8837 C   0  0  0  0  0  0  0  0  0  0  0  0
   -3.6769    2.7334   -3.1583 C   0  0  0  0  0  0  0  0  0  0  0  0
    0.0727    0.2764   -3.4415 C   0  0  0  0  0  0  0  0  0  0  0  0
   -1.6382    0.9631   -1.9687 C   0  0  0  0  0  0  0  0  0  0  0  0
   -5.3852    1.8681   -5.7315 C   0  0  0  0  0  0  0  0  0  0  0  0
    0.5298    0.4872   -1.0829 C   0  0  0  0  0  0  0  0  0  0  0  0
    0.9136    0.0374   -2.3442 C   0  0  0  0  0  0  0  0  0  0  0  0
   -0.7403    0.9745   -0.9115 C   0  0  0  0  0  0  0  0  0  0  0  0
   -1.4048   -0.4102   -6.2536 C   0  0  0  0  0  0  0  0  0  0  0  0
   -1.1449    1.9199   -6.8206 C   0  0  0  0  0  0  0  0  0  0  0  0
   -2.8407    3.4985   -2.3243 C   0  0  0  0  0  0  0  0  0  0  0  0
   -4.9926    2.5307   -2.7118 C   0  0  0  0  0  0  0  0  0  0  0  0
    2.9969   -0.5063    1.3817 C   0  0  0  0  0  0  0  0  0  0  0  0
    2.6029    0.0888    0.0220 C   0  0  0  0  0  0  0  0  0  0  0  0
   -0.9376   -0.7714   -7.5224 C   0  0  0  0  0  0  0  0  0  0  0  0
   -0.7721    1.5613   -8.1208 C   0  0  0  0  0  0  0  0  0  0  0  0
   -3.2692    3.8991   -1.0496 C   0  0  0  0  0  0  0  0  0  0  0  0
   -5.4832    3.1321   -1.5506 C   0  0  0  0  0  0  0  0  0  0  0  0
   -0.6414    0.2202   -8.4513 C   0  0  0  0  0  0  0  0  0  0  0  0
   -4.6025    3.7580   -0.6829 C   0  0  0  0  0  0  0  0  0  0  0  0
    3.0288   -2.3794    2.8945 C   0  0  0  0  0  0  0  0  0  0  0  0
    1.0446   -1.9657    1.6415 C   0  0  0  0  0  0  0  0  0  0  0  0
   -0.1990   -0.0850   -9.7044 O   0  0  0  0  0  0  0  0  0  0  0  0
  1 12  1  0
  1 20  1  0
  2 19  1  0
  2 27  1  0
  2 28  1  0
  3  4  2  0
  3  5  1  0
  3  7  1  0
  4  6  1  0
  4  8  1  0
  5  9  2  0
  5 10  1  0
  6 11  1  0
  7 15  2  0
  7 16  1  0
  8 17  2  0
  8 18  1  0
  9 13  1  0
 10 14  2  0
 12 13  2  0
 12 14  1  0
 15 21  1  0
 16 22  2  0
 17 23  1  0
 18 24  2  0
 19 20  1  0
 21 25  2  0
 22 25  1  0
 23 26  2  0
 24 26  1  0
 25 29  1  0
M  END
>  <DRUGBANK_ID>  (1) 
DB04468

>  <SECONDARY_ACCESSION_NUMBERS>  (1) 
EXPT02425

>  <COMMON_NAME>  (1) 
Afimoxifene

>  <CAS_NUMBER>  (1) 
68392-35-8

>  <UNII>  (1) 
95K54647BZ

>  <SYNONYMS>  (1) 
4-hydroxytamoxifen; 4-monohydroxytamoxifen; 4-OHT; Afimoxifene

$$$$
