8226
     RDKit          3D

 25 28  0  0  1  0  0  0  0  0999 V2000
    2.1319    2.9740   -1.8256 O   0  0  0  0  0  0  0  0  0  0  0  0
    3.1528   -0.3072   -4.5197 O   0  0  0  0  0  0  0  0  0  0  0  0
    5.0810   -0.5635   -0.7525 N   0  0  0  0  0  0  0  0  0  0  0  0
    9.2271    2.3039    2.4197 N   0  0  0  0  0  0  0  0  0  0  0  0
    1.4282    1.0665   -2.7172 N   0  0  0  0  0  0  0  0  0  0  0  0
    6.0020    0.4921   -0.2752 C   0  0  1  0  0  0  0  0  0  0  0  0
    5.2067    1.7222    0.2744 C   0  0  0  0  0  0  0  0  0  0  0  0
    7.0217   -0.1135    0.7399 C   0  0  0  0  0  0  0  0  0  0  0  0
    3.1224    0.9491   -0.8664 C   0  0  1  0  0  0  0  0  0  0  0  0
    4.1189    0.0766   -1.6519 C   0  0  0  0  0  0  0  0  0  0  0  0
    7.7980    0.9704    1.3823 C   0  0  0  0  0  0  0  0  0  0  0  0
    5.9832    2.7190    1.0373 C   0  0  0  0  0  0  0  0  0  0  0  0
    7.2249    2.2542    1.4914 C   0  0  0  0  0  0  0  0  0  0  0  0
    3.8879    1.8862    0.0430 C   0  0  0  0  0  0  0  0  0  0  0  0
    8.1135    3.0753    2.1602 C   0  0  0  0  0  0  0  0  0  0  0  0
    5.7544   -1.6530   -1.4566 C   0  0  0  0  0  0  0  0  0  0  0  0
    2.2181    1.7407   -1.8273 C   0  0  0  0  0  0  0  0  0  0  0  0
    9.0492    1.0234    1.9435 C   0  0  0  0  0  0  0  0  0  0  0  0
    5.6527    4.0494    1.3061 C   0  0  0  0  0  0  0  0  0  0  0  0
    7.7967    4.4059    2.4423 C   0  0  0  0  0  0  0  0  0  0  0  0
    6.5441    4.8712    2.0058 C   0  0  0  0  0  0  0  0  0  0  0  0
    1.2931   -0.3791   -2.9076 C   0  0  1  0  0  0  0  0  0  0  0  0
   -0.1237   -0.8713   -2.6458 C   0  0  0  0  0  0  0  0  0  0  0  0
    1.8328   -0.7949   -4.2919 C   0  0  0  0  0  0  0  0  0  0  0  0
   -1.1216   -0.3399   -3.6497 C   0  0  0  0  0  0  0  0  0  0  0  0
  1 17  2  0
  2 24  1  0
  3  6  1  0
  3 10  1  0
  3 16  1  0
  4 15  1  0
  4 18  1  0
  5 17  1  0
  6  7  1  0
  6  8  1  1
  7 12  1  0
  7 14  2  0
  8 11  1  0
  9 10  1  0
  9 14  1  0
  9 17  1  6
 11 13  1  0
 11 18  2  0
 12 13  2  0
 12 19  1  0
 13 15  1  0
 15 20  2  0
 19 21  2  0
 20 21  1  0
 22  5  1  0
 22 23  1  6
 22 24  1  0
 23 25  1  0
M  END
>  <DRUGBANK_ID>  (1) 
DB00353

>  <SECONDARY_ACCESSION_NUMBERS>  (1) 
APRD00739

>  <COMMON_NAME>  (1) 
Methylergometrine

>  <CAS_NUMBER>  (1) 
113-42-8

>  <UNII>  (1) 
W53L6FE61V

>  <SYNONYMS>  (1) 
9,10-Didehydro-N-[1-(hydroxymethyl)-propyl]-D-lysergamide; D-lysergic acid 1-butanolamide; Ergotyl; Methylergobasin; Methylergometrin; Méthylergométrine; Methylergometrine; Methylergometrinum; Methylergonovine; Metilergometrina; Metilergometrinio

$$$$
