
     RDKit          3D

 31 34  0  0  1  0  0  0  0  0999 V2000
    3.4678    1.4937    1.0486 C   0  0  0  0  0  0  0  0  0  0  0  0
    3.1008    2.7855    0.4365 C   0  0  0  0  0  0  0  0  0  0  0  0
    3.4072    2.7328   -0.9292 O   0  0  0  0  0  0  0  0  0  0  0  0
    2.6328    1.6739   -1.6152 C   0  0  2  0  0  0  0  0  0  0  0  0
    0.8693    1.8298   -1.7022 C   0  0  0  0  0  0  0  0  0  0  0  0
   -0.3614    1.9069   -0.6007 C   0  0  0  0  0  0  0  0  0  0  0  0
    0.0092    2.5387    0.6683 C   0  0  0  0  0  0  0  0  0  0  0  0
   -0.7923    2.6122    1.9005 C   0  0  0  0  0  0  0  0  0  0  0  0
   -2.0669    1.8057    2.1347 C   0  0  0  0  0  0  0  0  0  0  0  0
   -2.6052    0.9445    0.8474 C   0  0  0  0  0  0  0  0  0  0  0  0
   -1.7638    1.0951   -0.5925 C   0  0  0  0  0  0  0  0  0  0  0  0
   -2.1994    1.2445    3.7581 O   0  0  0  0  0  0  0  0  0  0  0  0
   -0.9391    1.4043    5.1385 C   0  0  0  0  0  0  0  0  0  0  0  0
    1.0474    0.3042    5.0986 C   0  0  0  0  0  0  0  0  0  0  0  0
    1.9790    0.5326    3.7674 N   0  0  0  0  0  0  0  0  0  0  0  0
    0.8289    1.3675    4.3906 C   0  0  0  0  0  0  0  0  0  0  0  0
    1.0973    2.0786    6.0116 C   0  0  0  0  0  0  0  0  0  0  0  0
    0.5083    1.0633    7.1437 C   0  0  0  0  0  0  0  0  0  0  0  0
   -0.3980   -0.3321    6.7565 C   0  0  0  0  0  0  0  0  0  0  0  0
   -0.9602   -0.8084    5.2317 C   0  0  0  0  0  0  0  0  0  0  0  0
   -0.3839   -0.0625    4.0067 C   0  0  0  0  0  0  0  0  0  0  0  0
   -0.6016    0.3714    2.8516 O   0  0  0  0  0  0  0  0  0  0  0  0
    0.3067   -0.1838    2.1518 C   0  0  0  0  0  0  0  0  0  0  0  0
    1.5534   -0.2463    2.5867 C   0  0  0  0  0  0  0  0  0  0  0  0
    2.1384   -0.8194    1.5192 C   0  0  0  0  0  0  0  0  0  0  0  0
    1.4624   -0.9426    0.1630 C   0  0  0  0  0  0  0  0  0  0  0  0
    0.1815   -0.9528   -0.1374 C   0  0  0  0  0  0  0  0  0  0  0  0
   -0.3039   -0.4357    0.9581 C   0  0  0  0  0  0  0  0  0  0  0  0
    3.4777    0.1812   -1.7339 C   0  0  0  0  0  0  0  0  0  0  0  0
    3.8310   -0.3010   -2.7997 O   0  0  0  0  0  0  0  0  0  0  0  0
    3.8100   -0.5376   -0.6093 O   0  0  0  0  0  0  0  0  0  0  0  0
  1  2  1  0
  2  3  1  0
  4 29  1  0
  4  5  1  1
  4  3  1  0
  5  6  1  0
  6  7  2  0
  6 11  1  0
  7  8  1  0
  8  9  2  0
  9 10  1  0
  9 12  1  0
 10 11  2  0
 12 13  1  0
 13 14  1  0
 14 15  1  0
 15 16  1  0
 15 24  1  0
 16 17  2  0
 16 21  1  0
 17 18  1  0
 18 19  2  0
 19 20  1  0
 20 21  2  0
 21 22  1  0
 22 23  1  0
 23 24  2  0
 23 28  1  0
 24 25  1  0
 25 26  2  0
 26 27  1  0
 27 28  2  0
 29 30  2  0
 29 31  1  0
M  END
>  <DRUGBANK_ID>  (1) 
DB06533

>  <COMMON_NAME>  (1) 
Ragaglitazar

>  <CAS_NUMBER>  (1) 
222834-30-2

>  <UNII>  (1) 
Q5ELR5A7Y5

>  <SYNONYMS>  (1) 
Ragaglitazar

$$$$
