
     RDKit          3D

 37 41  0  0  1  0  0  0  0  0999 V2000
    1.7493   -0.1210    0.1999 C   0  0  0  0  0  0  0  0  0  0  0  0
    3.1770   -0.6259   -0.2612 C   0  0  0  0  0  0  0  0  0  0  0  0
    3.1235   -1.8967   -0.8467 N   0  0  0  0  0  0  0  0  0  0  0  0
    0.6705   -0.9989    0.2521 C   0  0  0  0  0  0  0  0  0  0  0  0
    1.0673   -2.4795    0.1745 C   0  0  2  0  0  0  0  0  0  0  0  0
    1.7981   -2.2171   -1.1562 C   0  0  2  0  0  0  0  0  0  0  0  0
    1.3992   -2.9488   -2.4138 C   0  0  0  0  0  0  0  0  0  0  0  0
    1.4709   -4.4681   -2.2691 C   0  0  0  0  0  0  0  0  0  0  0  0
    0.9936   -4.0897    0.2220 C   0  0  2  0  0  0  0  0  0  0  0  0
    0.4847   -4.9351   -1.1057 C   0  0  2  0  0  0  0  0  0  0  0  0
    0.8152   -6.0247    1.6284 C   0  0  0  0  0  0  0  0  0  0  0  0
    4.1427    0.0714   -0.3153 O   0  0  0  0  0  0  0  0  0  0  0  0
    0.4318   -4.6213    1.5521 C   0  0  0  0  0  0  0  0  0  0  0  0
    0.2317   -6.6396    0.4389 C   0  0  1  0  0  0  0  0  0  0  0  0
   -0.0860   -6.7100   -0.9473 C   0  0  1  0  0  0  0  0  0  0  0  0
   -1.0570   -8.0370    0.1882 C   0  0  0  0  0  0  0  0  0  0  0  0
   -0.0989   -8.8026    1.1512 C   0  0  0  0  0  0  0  0  0  0  0  0
    0.8880   -8.1379    0.3466 C   0  0  2  0  0  0  0  0  0  0  0  0
   -1.4908   -5.8486    0.2485 C   0  0  0  0  0  0  0  0  0  0  0  0
    1.4074   -2.3117    1.7304 C   0  0  0  0  0  0  0  0  0  0  0  0
    2.3438   -8.4894    0.3779 C   0  0  0  0  0  0  0  0  0  0  0  0
    3.2295   -7.6488    0.4387 O   0  0  0  0  0  0  0  0  0  0  0  0
    2.6575   -9.8281    0.2185 N   0  0  0  0  0  0  0  0  0  0  0  0
    1.8449  -10.9644   -0.0451 C   0  0  0  0  0  0  0  0  0  0  0  0
    0.8350  -10.9702   -1.0266 C   0  0  0  0  0  0  0  0  0  0  0  0
    0.0676  -12.1086   -1.3234 C   0  0  0  0  0  0  0  0  0  0  0  0
    0.3819  -13.3059   -0.6858 C   0  0  0  0  0  0  0  0  0  0  0  0
    1.4099  -13.3358    0.2581 C   0  0  0  0  0  0  0  0  0  0  0  0
    2.0929  -12.1584    0.6407 C   0  0  0  0  0  0  0  0  0  0  0  0
    2.9571  -12.2102    1.8773 C   0  0  0  0  0  0  0  0  0  0  0  0
    2.2661  -12.6736    2.9572 F   0  0  0  0  0  0  0  0  0  0  0  0
    4.0280  -13.0321    1.7290 F   0  0  0  0  0  0  0  0  0  0  0  0
    3.4656  -11.0075    2.2670 F   0  0  0  0  0  0  0  0  0  0  0  0
   -1.0017  -12.0396   -2.3881 C   0  0  0  0  0  0  0  0  0  0  0  0
   -0.7040  -12.8280   -3.4549 F   0  0  0  0  0  0  0  0  0  0  0  0
   -2.2251  -12.4374   -1.9461 F   0  0  0  0  0  0  0  0  0  0  0  0
   -1.1801  -10.7843   -2.8902 F   0  0  0  0  0  0  0  0  0  0  0  0
  1  2  1  0
  1  4  2  0
  2  3  1  0
  2 12  2  0
  3  6  1  0
  5  4  1  0
  5  6  1  0
  5 20  1  1
  5  9  1  0
  6  7  1  6
  7  8  1  0
 10  8  1  6
  9 13  1  1
  9 10  1  0
 10 15  1  0
 11 13  1  0
 14 19  1  1
 14 11  1  0
 14 15  1  0
 15 16  1  1
 16 17  1  0
 17 18  1  0
 18 14  1  0
 18 21  1  1
 21 22  2  0
 21 23  1  0
 23 24  1  0
 24 25  2  0
 25 26  1  0
 26 27  2  0
 26 34  1  0
 27 28  1  0
 28 29  2  0
 29 24  1  0
 29 30  1  0
 30 31  1  0
 30 32  1  0
 30 33  1  0
 34 35  1  0
 34 36  1  0
 34 37  1  0
M  END
>  <DRUGBANK_ID>  (1) 
DB01126

>  <SECONDARY_ACCESSION_NUMBERS>  (1) 
APRD00385

>  <COMMON_NAME>  (1) 
Dutasteride

>  <CAS_NUMBER>  (1) 
164656-23-9

>  <UNII>  (1) 
O0J6XJN02I

>  <SYNONYMS>  (1) 
(5α,17β)-N-(2,5-bis(trifluoromethyl)phenyl)-3-oxo-4-azaandrost-1-ene-17-carboxamide; Dutasterida; Dutasteride; α,α,α,α',α',α'-hexafluoro-3-oxo-4-aza-5α-androst-1-ene-17β-carboxy-2',5'-xylidide

$$$$
