WR2
     RDKit          3D

 31 31  0  0  0  0  0  0  0  0999 V2000
    8.7671    1.5005    2.4511 O   0  0  0  0  0  0  0  0  0  0  0  0
    8.2649    2.2343    3.3130 C   0  0  0  0  0  0  0  0  0  0  0  0
    9.1303    2.7612    4.2523 N   0  0  0  0  0  0  0  0  0  0  0  0
    8.8459    3.4524    5.4884 C   0  0  0  0  0  0  0  0  0  0  0  0
    6.7038    2.5609    3.2597 C   0  0  2  0  0  0  0  0  0  0  0  0
    5.9596    2.7184    4.6128 C   0  0  0  0  0  0  0  0  0  0  0  0
    5.9970    4.2242    5.1590 C   0  0  0  0  0  0  0  0  0  0  0  0
    4.4378    2.4794    4.5875 C   0  0  0  0  0  0  0  0  0  0  0  0
    6.5213    1.5179    5.4608 C   0  0  0  0  0  0  0  0  0  0  0  0
    6.0451    1.4446    2.5069 N   0  0  0  0  0  0  0  0  0  0  0  0
    5.2261    1.5255    1.4491 C   0  0  0  0  0  0  0  0  0  0  0  0
    4.6073    0.4847    1.0595 O   0  0  0  0  0  0  0  0  0  0  0  0
    5.0941    2.8362    0.7491 C   0  0  2  0  0  0  0  0  0  0  0  0
    3.5888    3.0470    0.7795 C   0  0  0  0  0  0  0  0  0  0  0  0
    3.2708    4.0063   -0.2982 C   0  0  0  0  0  0  0  0  0  0  0  0
    3.5596    3.1594   -1.9749 C   0  0  0  0  0  0  0  0  0  0  0  0
    1.9080    4.7817    0.0409 C   0  0  0  0  0  0  0  0  0  0  0  0
    5.7024    2.8986   -0.6535 C   0  0  1  0  0  0  0  0  0  0  0  0
    5.6101    4.5353   -1.5127 C   0  0  0  0  0  0  0  0  0  0  0  0
    6.7199    4.9534   -1.8859 O   0  0  0  0  0  0  0  0  0  0  0  0
    4.5118    5.4390   -1.9060 N   0  0  0  0  0  0  0  0  0  0  0  0
    3.0831    5.5027   -2.1468 O   0  0  0  0  0  0  0  0  0  0  0  0
    7.1331    2.2742   -0.7638 C   0  0  0  0  0  0  0  0  0  0  0  0
    7.2675    0.8776   -0.2640 N   0  0  0  0  0  0  0  0  0  0  0  0
    7.6483   -0.2694   -0.9178 C   0  0  0  0  0  0  0  0  0  0  0  0
    7.6054   -1.3525   -0.2745 O   0  0  0  0  0  0  0  0  0  0  0  0
    8.0856   -0.1838   -2.2913 C   0  0  0  0  0  0  0  0  0  0  0  0
    8.8521    0.7984   -2.7369 N   0  0  0  0  0  0  0  0  0  0  0  0
    9.0722    0.6389   -4.0829 C   0  0  0  0  0  0  0  0  0  0  0  0
    8.4884   -0.4700   -4.6538 C   0  0  0  0  0  0  0  0  0  0  0  0
    7.6315   -1.3553   -3.4577 S   0  0  0  0  0  0  0  0  0  0  0  0
  1  2  2  0
  2  3  1  0
  3  4  1  0
  5 10  1  1
  5  6  1  0
  5  2  1  0
  6  7  1  0
  6  8  1  0
  6  9  1  0
 10 11  1  0
 11 12  2  0
 13 18  1  0
 13 14  1  6
 13 11  1  0
 14 15  1  0
 15 16  1  0
 15 17  1  0
 18 19  1  0
 18 23  1  1
 19 20  2  0
 19 21  1  0
 21 22  1  0
 23 24  1  0
 24 25  1  0
 25 26  2  0
 25 27  1  0
 27 28  2  0
 27 31  1  0
 28 29  1  0
 29 30  2  0
 30 31  1  0
M  END
>  <DRUGBANK_ID>  (1) 
DB08733

>  <COMMON_NAME>  (1) 
(2R,3R)-N^1^-[(1S)-2,2-DIMETHYL-1-(METHYLCARBAMOYL)PROPYL]-N^4^-HYDROXY-2-(2-METHYLPROPYL)-3-{[(1,3-THIAZOL-2-YLCARBONYL)AMINO]METHYL}BUTANEDIAMIDE

$$$$
