
     RDKit          3D

 15 14  0  0  0  0  0  0  0  0999 V2000
    1.2427   -0.1100    0.1393 C   0  0  0  0  0  0  0  0  0  0  0  0
    1.2669   -0.7780    1.5363 C   0  0  0  0  0  0  0  0  0  0  0  0
    0.5934    1.2750   -0.0853 C   0  0  1  0  0  0  0  0  0  0  0  0
   -1.7330    0.7851    1.1299 N   0  0  0  0  0  0  0  0  0  0  0  0
    2.3752    2.0304   -1.5158 C   0  0  0  0  0  0  0  0  0  0  0  0
    1.0359    1.8078   -1.3853 O   0  0  0  0  0  0  0  0  0  0  0  0
    1.0264   -0.0289    2.5196 O   0  0  0  0  0  0  0  0  0  0  0  0
    1.2562   -2.0418    1.4975 O   0  0  0  0  0  0  0  0  0  0  0  0
    3.2100    1.8571   -0.6234 O   0  0  0  0  0  0  0  0  0  0  0  0
   -1.0001    1.3054   -0.1207 C   0  0  0  0  0  0  0  0  0  0  0  0
   -1.2272    1.5996    2.3365 C   0  0  0  0  0  0  0  0  0  0  0  0
   -3.2358    0.9105    1.1044 C   0  0  0  0  0  0  0  0  0  0  0  0
   -1.5623   -0.7272    1.2313 C   0  0  0  0  0  0  0  0  0  0  0  0
    2.7647    2.5946   -2.8510 C   0  0  0  0  0  0  0  0  0  0  0  0
    2.2905    1.7608   -4.0215 C   0  0  0  0  0  0  0  0  0  0  0  0
  2  1  1  0
  3  1  1  6
  3  6  1  0
  4 10  1  0
  5  6  1  0
  7  2  2  0
  8  2  1  0
  9  5  2  0
 10  3  1  0
 11  4  1  0
 12  4  1  0
 13  4  1  0
 14  5  1  0
 15 14  1  0
M  CHG  2   4   1   8  -1
M  END
>  <DRUGBANK_ID>  (1) 
DB15980

>  <COMMON_NAME>  (1) 
Levocarnitine propionate

>  <CAS_NUMBER>  (1) 
20064-19-1

>  <UNII>  (1) 
0HU2UI27HF

>  <SYNONYMS>  (1) 
L-Carnitine propionate; Propionyl-L-carnitine

$$$$
