
     RDKit          3D

 26 28  0  0  0  0  0  0  0  0999 V2000
    2.4635    0.2187    0.1445 C   0  0  0  0  0  0  0  0  0  0  0  0
    1.6929    1.3591    0.0644 C   0  0  0  0  0  0  0  0  0  0  0  0
    0.3059    1.2623    0.0227 C   0  0  0  0  0  0  0  0  0  0  0  0
   -0.3069    0.0116    0.0460 C   0  0  0  0  0  0  0  0  0  0  0  0
    0.4739   -1.1502    0.0812 C   0  0  0  0  0  0  0  0  0  0  0  0
    1.8898   -1.0393    0.1213 C   0  0  0  0  0  0  0  0  0  0  0  0
   -2.0301   -0.0708   -0.0197 Cl  0  0  0  0  0  0  0  0  0  0  0  0
    2.8464   -2.0184   -0.1642 N   0  0  0  0  0  0  0  0  0  0  0  0
    3.6217   -2.6735    0.9256 C   0  0  0  0  0  0  0  0  0  0  0  0
    4.6723   -3.6004    0.2318 C   0  0  0  0  0  0  0  0  0  0  0  0
    4.1543   -4.6049   -0.7365 N   0  0  0  0  0  0  0  0  0  0  0  0
    3.3437   -3.9016   -1.7470 C   0  0  0  0  0  0  0  0  0  0  0  0
    2.3219   -2.9684   -1.0962 C   0  0  0  0  0  0  0  0  0  0  0  0
    3.4822   -5.7799   -0.1361 C   0  0  0  0  0  0  0  0  0  0  0  0
    2.1259   -5.6732    0.6126 C   0  0  0  0  0  0  0  0  0  0  0  0
    0.8712   -5.3745   -0.2291 C   0  0  0  0  0  0  0  0  0  0  0  0
    0.4821   -6.2641   -1.2565 N   0  0  0  0  0  0  0  0  0  0  0  0
    0.0566   -5.7242   -2.4637 N   0  0  0  0  0  0  0  0  0  0  0  0
    0.1063   -6.7210   -3.2831 C   0  0  0  0  0  0  0  0  0  0  0  0
    0.5643   -7.8583   -2.7331 N   0  0  0  0  0  0  0  0  0  0  0  0
    0.8832   -7.5623   -1.4382 C   0  0  0  0  0  0  0  0  0  0  0  0
    1.4467   -8.2850   -0.6090 O   0  0  0  0  0  0  0  0  0  0  0  0
    0.5805   -9.1840   -3.2778 C   0  0  0  0  0  0  0  0  0  0  0  0
    1.9890   -9.7106   -3.4544 C   0  0  0  0  0  0  0  0  0  0  0  0
   -0.3870   -6.5984   -4.6903 C   0  0  0  0  0  0  0  0  0  0  0  0
    0.6345   -7.0019   -5.7344 C   0  0  0  0  0  0  0  0  0  0  0  0
  1  2  2  0
  1  6  1  0
  2  3  1  0
  3  4  2  0
  4  5  1  0
  4  7  1  0
  5  6  2  0
  6  8  1  0
  8  9  1  0
  9 10  1  0
 10 11  1  0
 11 12  1  0
 11 14  1  0
 12 13  1  0
 13  8  1  0
 14 15  1  0
 15 16  1  0
 16 17  1  0
 17 18  1  0
 17 21  1  0
 18 19  2  0
 19 20  1  0
 19 25  1  0
 20 21  1  0
 20 23  1  0
 21 22  2  0
 23 24  1  0
 25 26  1  0
M  END
>  <DRUGBANK_ID>  (1) 
DB09194

>  <COMMON_NAME>  (1) 
Etoperidone

>  <CAS_NUMBER>  (1) 
52942-31-1

>  <UNII>  (1) 
KAI6MVO39Z

>  <SYNONYMS>  (1) 
Etoperidone

$$$$
