262
     RDKit          3D

 13 13  0  0  0  0  0  0  0  0999 V2000
    1.3859   -0.1963   -0.0081 C   0  0  0  0  0  0  0  0  0  0  0  0
    0.5308   -1.3019    0.0067 C   0  0  0  0  0  0  0  0  0  0  0  0
   -0.8501   -1.1231   -0.0278 C   0  0  0  0  0  0  0  0  0  0  0  0
   -1.3846    0.1590   -0.0028 C   0  0  0  0  0  0  0  0  0  0  0  0
   -0.5348    1.2624    0.0828 C   0  0  0  0  0  0  0  0  0  0  0  0
    0.8509    1.0955   -0.0245 C   0  0  0  0  0  0  0  0  0  0  0  0
    1.7733    2.2388   -0.2413 C   0  0  0  0  0  0  0  0  0  0  0  0
   -1.0216    2.5070    0.3654 O   0  0  0  0  0  0  0  0  0  0  0  0
   -2.7255    2.7391    0.5548 P   0  0  0  0  0  0  0  0  0  0  0  0
   -2.3144    4.0404    1.4561 O   0  0  0  0  0  0  0  0  0  0  0  0
   -2.6658    3.4433   -0.9240 O   0  0  0  0  0  0  0  0  0  0  0  0
   -4.2505    2.9468    0.7242 O   0  0  0  0  0  0  0  0  0  0  0  0
    1.3941    3.3959   -0.4015 O   0  0  0  0  0  0  0  0  0  0  0  0
  1  2  2  0
  1  6  1  0
  2  3  1  0
  3  4  2  0
  4  5  1  0
  5  6  2  0
  5  8  1  0
  6  7  1  0
  7 13  2  0
  8  9  1  0
  9 10  1  0
  9 11  1  0
  9 12  2  0
M  END
>  <DRUGBANK_ID>  (1) 
DB01947

>  <SECONDARY_ACCESSION_NUMBERS>  (1) 
EXPT00096

>  <COMMON_NAME>  (1) 
RU78262

>  <UNII>  (1) 
UP67646C7V

$$$$
