
     RDKit          3D

 14 14  0  0  1  0  0  0  0  0999 V2000
    0.2311    0.0406   -0.0842 C   0  0  0  0  0  0  0  0  0  0  0  0
    0.0028    1.1201    0.9721 C   0  0  0  0  0  0  0  0  0  0  0  0
   -0.6990    2.0763    0.6607 O   0  0  0  0  0  0  0  0  0  0  0  0
    0.6716    1.0765    2.4163 C   0  0  1  0  0  0  0  0  0  0  0  0
    0.2347   -0.1627    3.0927 N   0  0  0  0  0  0  0  0  0  0  0  0
    2.1870    1.3385    2.7073 C   0  0  0  0  0  0  0  0  0  0  0  0
    2.7739    2.4406    2.0285 O   0  0  0  0  0  0  0  0  0  0  0  0
    2.7511    2.3369    0.6106 C   0  0  0  0  0  0  0  0  0  0  0  0
    3.4251    1.0866    0.0627 C   0  0  0  0  0  0  0  0  0  0  0  0
    4.4040    1.2020   -0.9096 C   0  0  0  0  0  0  0  0  0  0  0  0
    4.9090    0.0485   -1.5235 C   0  0  0  0  0  0  0  0  0  0  0  0
    4.3747   -1.2189   -1.2655 C   0  0  0  0  0  0  0  0  0  0  0  0
    3.4245   -1.3634   -0.2890 C   0  0  0  0  0  0  0  0  0  0  0  0
    3.0381   -0.2324    0.4053 C   0  0  0  0  0  0  0  0  0  0  0  0
  1  2  1  0
  2  3  2  0
  2  4  1  0
  4  5  1  6
  4  6  1  0
  6  7  1  0
  7  8  1  0
  8  9  1  0
  9 10  2  0
  9 14  1  0
 10 11  1  0
 11 12  2  0
 12 13  1  0
 13 14  2  0
M  END
>  <DRUGBANK_ID>  (1) 
DB02148

>  <SECONDARY_ACCESSION_NUMBERS>  (1) 
EXPT02881

>  <COMMON_NAME>  (1) 
3-Amino-4-Oxybenzyl-2-Butanone

$$$$
