
     RDKit          3D

 19 20  0  0  1  0  0  0  0  0999 V2000
    0.3699    0.7717   -0.0628 C   0  0  0  0  0  0  0  0  0  0  0  0
    0.3704   -0.5815   -0.2799 C   0  0  0  0  0  0  0  0  0  0  0  0
   -0.9379    1.8814    0.0526 S   0  0  0  0  0  0  0  0  0  0  0  0
    1.8895    1.4830    0.0818 S   0  0  0  0  0  0  0  0  0  0  0  0
   -0.8428   -1.4656   -0.0386 C   0  0  2  0  0  0  0  0  0  0  0  0
    1.7201   -0.9417   -0.7019 C   0  0  0  0  0  0  0  0  0  0  0  0
   -2.3402    0.8038   -0.1289 C   0  0  2  0  0  0  0  0  0  0  0  0
   -0.7636    2.6766   -1.1641 O   0  0  0  0  0  0  0  0  0  0  0  0
   -0.8932    2.4486    1.3667 O   0  0  0  0  0  0  0  0  0  0  0  0
    2.6343    0.0027   -0.2435 C   0  0  0  0  0  0  0  0  0  0  0  0
   -2.1980   -0.7227   -0.0053 C   0  0  0  0  0  0  0  0  0  0  0  0
   -0.8464   -2.1159    1.2951 N   0  0  0  0  0  0  0  0  0  0  0  0
   -2.9481    1.0735   -1.4892 C   0  0  0  0  0  0  0  0  0  0  0  0
    4.3767    0.0197   -0.0192 S   0  0  0  0  0  0  0  0  0  0  0  0
    4.8833    0.8363   -1.3880 N   0  0  0  0  0  0  0  0  0  0  0  0
    4.6801    0.8120    1.1435 O   0  0  0  0  0  0  0  0  0  0  0  0
    4.7904   -1.3596   -0.1565 O   0  0  0  0  0  0  0  0  0  0  0  0
    0.1631   -3.1223    1.6031 C   0  0  0  0  0  0  0  0  0  0  0  0
    1.4758   -2.4484    1.9040 C   0  0  0  0  0  0  0  0  0  0  0  0
  2  1  2  0
  3  1  1  0
  4  1  1  0
  5  2  1  0
  5 12  1  1
  6  2  1  0
  7  3  1  0
  7 13  1  6
  8  3  2  0
  9  3  2  0
 10  4  1  0
 10  6  2  0
 11  5  1  0
 11  7  1  0
 12 18  1  0
 14 10  1  0
 15 14  1  0
 16 14  2  0
 17 14  2  0
 18 19  1  0
M  END
>  <DRUGBANK_ID>  (1) 
DB00869

>  <SECONDARY_ACCESSION_NUMBERS>  (1) 
APRD00577; DB04507

>  <COMMON_NAME>  (1) 
Dorzolamide

>  <CAS_NUMBER>  (1) 
120279-96-1

>  <UNII>  (1) 
9JDX055TW1

>  <SYNONYMS>  (1) 
(4S,6S)-4-ethylamino-6-methyl-7,7-dioxo-4,5,6,7-tetrahydro-7lambda*6*-thieno[2,3-b]thiopyran-2-sulfonic acid amide; (4S,trans)-4-(ethylamino)-6-methyl-5,6-dihydro-4H-thieno[2,3-b]thiopyran-2-sulfonamide 7,7-dioxide; 4-Ethylamino-6-methyl-7,7-dioxo-4,5,6,7-tetrahydro-7lambda*6*-thieno[2,3-b]thiopyran-2-sulfonic acid amide; 4-ethylamino-6-methyl-7,7-dioxo-4,5,6,7-tetrahydro-7lambda6-thieno[2,3-b]thiopyran-2-sulfonic acid amide; 4S,6S-dorzolamide; Dorzolamid; Dorzolamida; Dorzolamide; Dorzolamidum

$$$$
