
     RDKit          3D

 15 15  0  0  0  0  0  0  0  0999 V2000
    1.2681   -0.2676   -0.0178 C   0  0  0  0  0  0  0  0  0  0  0  0
    0.6481    0.9482   -0.2796 C   0  0  0  0  0  0  0  0  0  0  0  0
   -0.6898    1.1819   -0.0349 C   0  0  0  0  0  0  0  0  0  0  0  0
   -1.5174    0.0886    0.0414 C   0  0  0  0  0  0  0  0  0  0  0  0
   -0.9601   -1.1933    0.0244 C   0  0  0  0  0  0  0  0  0  0  0  0
    0.4317   -1.3751    0.0554 C   0  0  0  0  0  0  0  0  0  0  0  0
    2.7302   -0.3668    0.1274 C   0  0  0  0  0  0  0  0  0  0  0  0
    3.6217    0.6314    0.3211 C   0  0  0  0  0  0  0  0  0  0  0  0
    5.1117    0.3077    0.3807 C   0  0  0  0  0  0  0  0  0  0  0  0
    5.9175    0.8367   -0.8248 C   0  0  0  0  0  0  0  0  0  0  0  0
    5.8857    2.3624   -0.9796 C   0  0  0  0  0  0  0  0  0  0  0  0
    6.3379    3.0843    0.3093 C   0  0  0  0  0  0  0  0  0  0  0  0
    7.7999    2.8320    0.5747 C   0  0  0  0  0  0  0  0  0  0  0  0
    3.2748    2.1011    0.5393 C   0  0  0  0  0  0  0  0  0  0  0  0
    2.2337    2.6585    0.7872 O   0  0  0  0  0  0  0  0  0  0  0  0
  1  2  2  0
  2  3  1  0
  3  4  2  0
  4  5  1  0
  5  6  2  0
  6  1  1  0
  7  8  2  0
  7  1  1  0
  8  9  1  0
  8 14  1  0
  9 10  1  0
 10 11  1  0
 11 12  1  0
 12 13  1  0
 14 15  2  0
M  END
>  <DRUGBANK_ID>  (1) 
DB14175

>  <COMMON_NAME>  (1) 
alpha-Amyl cinnamaldehyde

>  <CAS_NUMBER>  (1) 
122-40-7

>  <UNII>  (1) 
06T2G22P2C

>  <SYNONYMS>  (1) 
2-(Phenylmethylene)heptanal; 2-Pentylcinnamaldehyde; alpha-Amyl cinnamaldehyde; alpha-Amylcinnamaldehyde; alpha-Pentyl-beta-phenylacrolein; Amyl cinnamal; Flomine; Jasminal; Jasminaldehyde; Jasmine aldehyde

$$$$
