
     RDKit          3D

 21 23  0  0  0  0  0  0  0  0999 V2000
    0.9799   -0.0041    0.1777 C   0  0  0  0  0  0  0  0  0  0  0  0
    1.1588   -1.3927    0.0053 C   0  0  0  0  0  0  0  0  0  0  0  0
   -0.0299   -2.1465   -0.0682 C   0  0  0  0  0  0  0  0  0  0  0  0
   -1.2892   -1.5165   -0.0681 C   0  0  0  0  0  0  0  0  0  0  0  0
   -1.3801   -0.1290   -0.1147 C   0  0  0  0  0  0  0  0  0  0  0  0
   -0.2352    0.6328   -0.0621 C   0  0  0  0  0  0  0  0  0  0  0  0
    4.4196   -2.1728   -3.0577 C   0  0  0  0  0  0  0  0  0  0  0  0
    3.7032   -2.8034   -2.0905 N   0  0  0  0  0  0  0  0  0  0  0  0
    3.3524   -1.8089   -1.2214 N   0  0  0  0  0  0  0  0  0  0  0  0
    4.4920   -0.7716   -2.8185 C   0  0  0  0  0  0  0  0  0  0  0  0
    3.9013   -0.5986   -1.5793 C   0  0  0  0  0  0  0  0  0  0  0  0
    5.0737   -2.8319   -4.1930 C   0  0  0  0  0  0  0  0  0  0  0  0
    2.5149   -2.1026   -0.0321 C   0  0  0  0  0  0  0  0  0  0  0  0
    5.7526   -2.2527   -5.0458 O   0  0  0  0  0  0  0  0  0  0  0  0
    4.9242   -4.1712   -4.2903 O   0  0  0  0  0  0  0  0  0  0  0  0
    5.0822    0.3509   -3.4493 C   0  0  0  0  0  0  0  0  0  0  0  0
   -2.8979    0.6737   -0.0547 Cl  0  0  0  0  0  0  0  0  0  0  0  0
    4.0082    0.6325   -0.9433 C   0  0  0  0  0  0  0  0  0  0  0  0
    4.9343    1.6283   -2.8926 C   0  0  0  0  0  0  0  0  0  0  0  0
    4.3498    1.7727   -1.6539 C   0  0  0  0  0  0  0  0  0  0  0  0
    1.9501    0.9564    1.2484 Cl  0  0  0  0  0  0  0  0  0  0  0  0
  1 21  1  0
  1  2  2  0
  2 13  1  0
  3  2  1  0
  4  3  2  0
  5  4  1  0
  6  1  1  0
  6  5  2  0
  8  7  2  0
  9  8  1  0
 10  7  1  0
 11  9  1  0
 11 10  2  0
 12  7  1  0
 13  9  1  0
 14 12  2  0
 15 12  1  0
 16 10  1  0
 17  5  1  0
 18 11  1  0
 19 16  2  0
 20 18  2  0
 20 19  1  0
M  END
>  <DRUGBANK_ID>  (1) 
DB06266

>  <SECONDARY_ACCESSION_NUMBERS>  (1) 
DB03762

>  <COMMON_NAME>  (1) 
Lonidamine

>  <CAS_NUMBER>  (1) 
50264-69-2

>  <UNII>  (1) 
U78804BIDR

>  <SYNONYMS>  (1) 
1-(2,4-dichlorbenzyl)-indazole-3-carboxylic acid; DICA; diclondazolic acid; Doridamina; Lonidamin; lonidamina; Lonidamine; lonidaminum

$$$$
