719
     RDKit          3D

 22 25  0  0  0  0  0  0  0  0999 V2000
    0.7290    1.2273   -0.2676 N   0  0  0  0  0  0  0  0  0  0  0  0
   -3.0455   -0.6618    2.0517 N   0  0  0  0  0  0  0  0  0  0  0  0
   -0.7805   -1.2675    0.2925 C   0  0  0  0  0  0  0  0  0  0  0  0
    0.6710   -1.3209   -0.1790 C   0  0  0  0  0  0  0  0  0  0  0  0
   -1.4442   -0.0128   -0.2711 C   0  0  0  0  0  0  0  0  0  0  0  0
    1.3996   -0.0084    0.1996 C   0  0  0  0  0  0  0  0  0  0  0  0
   -0.6739    1.2254    0.2003 C   0  0  0  0  0  0  0  0  0  0  0  0
   -1.4113   -2.1540    1.1042 C   0  0  0  0  0  0  0  0  0  0  0  0
   -0.7582   -3.4303    1.4996 C   0  0  0  0  0  0  0  0  0  0  0  0
   -2.8311   -1.8952    1.5088 C   0  0  0  0  0  0  0  0  0  0  0  0
   -1.2839   -4.6326    0.9922 C   0  0  0  0  0  0  0  0  0  0  0  0
   -2.4534   -4.5933    0.0437 C   0  0  0  0  0  0  0  0  0  0  0  0
   -3.7342   -4.2232    0.7864 C   0  0  0  0  0  0  0  0  0  0  0  0
   -3.8668   -2.8183    1.3275 C   0  0  0  0  0  0  0  0  0  0  0  0
    0.7873    1.3486   -1.7268 C   0  0  0  0  0  0  0  0  0  0  0  0
    0.2881   -3.4779    2.4274 C   0  0  0  0  0  0  0  0  0  0  0  0
   -0.7733   -5.8629    1.4266 C   0  0  0  0  0  0  0  0  0  0  0  0
   -5.1587   -2.4189    1.7107 C   0  0  0  0  0  0  0  0  0  0  0  0
    0.8059   -4.7103    2.8396 C   0  0  0  0  0  0  0  0  0  0  0  0
    0.2728   -5.8994    2.3437 C   0  0  0  0  0  0  0  0  0  0  0  0
   -5.3901   -1.1434    2.2064 C   0  0  0  0  0  0  0  0  0  0  0  0
   -4.3093   -0.3038    2.3514 C   0  0  0  0  0  0  0  0  0  0  0  0
  1  6  1  0
  1  7  1  0
  1 15  1  0
  2 10  2  0
  2 22  1  0
  3  4  1  0
  3  5  1  0
  3  8  2  3
  4  6  1  0
  5  7  1  0
  8  9  1  0
  8 10  1  0
  9 11  2  0
  9 16  1  0
 10 14  1  0
 11 12  1  0
 11 17  1  0
 12 13  1  0
 13 14  1  0
 14 18  2  0
 16 19  2  0
 17 20  2  0
 18 21  1  0
 19 20  1  0
 21 22  2  0
M  END
>  <DRUGBANK_ID>  (1) 
DB00719

>  <SECONDARY_ACCESSION_NUMBERS>  (1) 
APRD00810

>  <COMMON_NAME>  (1) 
Azatadine

>  <CAS_NUMBER>  (1) 
3964-81-6

>  <UNII>  (1) 
94Z39NID6C

>  <SYNONYMS>  (1) 
11-(1-Methyl-4-piperidinylidene)-6,11-dihydro-5H-benzo[5,6]cyclohepta[1,2-b]pyridine; 6,11-Dihydro-11-(1-methyl-4-piperidylidene)-5H-benzo(5,6)cyclohepta(1,2-b)pyridine; Azatadin; Azatadina; Azatadine; Azatadinum

$$$$
