DF1
     RDKit          3D

 26 29  0  0  0  0  0  0  0  0999 V2000
    1.3722   -0.1392    0.5646 C   0  0  0  0  0  0  0  0  0  0  0  0
    0.4824   -1.2223    0.5904 C   0  0  0  0  0  0  0  0  0  0  0  0
   -0.8881   -1.0099    0.4209 C   0  0  0  0  0  0  0  0  0  0  0  0
   -1.3727    0.2837    0.2327 C   0  0  0  0  0  0  0  0  0  0  0  0
   -0.4841    1.3634    0.1636 C   0  0  0  0  0  0  0  0  0  0  0  0
    0.9044    1.1512    0.2431 C   0  0  0  0  0  0  0  0  0  0  0  0
    1.8517    2.2143   -0.1888 C   0  0  0  0  0  0  0  0  0  0  0  0
    2.6942    2.4195   -1.3807 C   0  0  0  0  0  0  0  0  0  0  0  0
    3.0693    1.7618   -2.5997 C   0  0  0  0  0  0  0  0  0  0  0  0
    2.7008    0.5211   -3.0786 N   0  0  0  0  0  0  0  0  0  0  0  0
    1.8351   -0.3584   -2.3597 C   0  0  0  0  0  0  0  0  0  0  0  0
    0.5261   -0.7167   -3.0460 C   0  0  1  0  0  0  0  0  0  0  0  0
    0.8090   -1.6329   -4.1898 C   0  0  0  0  0  0  0  0  0  0  0  0
   -0.3827   -1.4512   -2.2268 O   0  0  0  0  0  0  0  0  0  0  0  0
    3.9031    2.4164   -3.4513 N   0  0  0  0  0  0  0  0  0  0  0  0
    4.3443    3.6428   -3.1401 C   0  0  0  0  0  0  0  0  0  0  0  0
    4.0837    4.3450   -2.0343 N   0  0  0  0  0  0  0  0  0  0  0  0
    3.2608    3.6792   -1.2074 C   0  0  0  0  0  0  0  0  0  0  0  0
    2.8513    4.2050   -0.0106 N   0  0  0  0  0  0  0  0  0  0  0  0
    1.9940    3.3354    0.6147 C   0  0  0  0  0  0  0  0  0  0  0  0
    1.3377    3.6116    1.8824 C   0  0  0  0  0  0  0  0  0  0  0  0
    0.4701    4.6956    2.0075 C   0  0  0  0  0  0  0  0  0  0  0  0
   -0.3452    4.7950    3.1330 C   0  0  0  0  0  0  0  0  0  0  0  0
   -0.3149    3.7993    4.1128 C   0  0  0  0  0  0  0  0  0  0  0  0
    0.5406    2.7098    3.9825 C   0  0  0  0  0  0  0  0  0  0  0  0
    1.3978    2.6407    2.8931 C   0  0  0  0  0  0  0  0  0  0  0  0
  1  2  2  0
  1  6  1  0
  2  3  1  0
  3  4  2  0
  4  5  1  0
  5  6  2  0
  6  7  1  0
  7  8  1  0
  7 20  2  0
  8  9  2  0
  8 18  1  0
  9 10  1  0
  9 15  1  0
 10 11  1  0
 11 12  1  0
 12 13  1  6
 12 14  1  0
 15 16  2  0
 16 17  1  0
 17 18  2  0
 18 19  1  0
 19 20  1  0
 20 21  1  0
 21 22  2  0
 21 26  1  0
 22 23  1  0
 23 24  2  0
 24 25  1  0
 25 26  2  0
M  END
>  <DRUGBANK_ID>  (1) 
DB07647

>  <COMMON_NAME>  (1) 
(2R)-1-[(5,6-DIPHENYL-7H-PYRROLO[2,3-D]PYRIMIDIN-4-YL)AMINO]PROPAN-2-OL

$$$$
