MLN
     RDKit          3D

 30 30  0  0  0  0  0  0  0  0999 V2000
    4.2835    2.5411    0.2252 O   0  0  0  0  0  0  0  0  0  0  0  0
    4.2733    1.0990    1.1807 P   0  0  0  0  0  0  0  0  0  0  0  0
    3.5454    1.8319    2.2928 O   0  0  0  0  0  0  0  0  0  0  0  0
    3.2355    0.3978    0.1010 O   0  0  0  0  0  0  0  0  0  0  0  0
    4.2631   -0.3431    2.1363 O   0  0  0  0  0  0  0  0  0  0  0  0
    2.6363    1.2105   -0.9117 C   0  0  2  0  0  0  0  0  0  0  0  0
    1.6957    2.2402   -0.2742 C   0  0  0  0  0  0  0  0  0  0  0  0
    1.8633    0.4755   -1.9972 C   0  0  0  0  0  0  0  0  0  0  0  0
    1.4502    1.4639   -3.1061 C   0  0  0  0  0  0  0  0  0  0  0  0
    2.6457    2.1505   -3.7761 C   0  0  0  0  0  0  0  0  0  0  0  0
    3.5853    1.1207   -4.3798 C   0  0  0  0  0  0  0  0  0  0  0  0
    1.7962    3.4459   -0.5012 O   0  0  0  0  0  0  0  0  0  0  0  0
    0.7849    1.7771    0.6132 N   0  0  0  0  0  0  0  0  0  0  0  0
    0.6129    0.3829    1.0266 C   0  0  1  0  0  0  0  0  0  0  0  0
    0.7419    0.2850    2.5462 C   0  0  0  0  0  0  0  0  0  0  0  0
   -0.2969    1.0698    3.3556 C   0  0  0  0  0  0  0  0  0  0  0  0
   -1.6985    0.5452    3.1207 C   0  0  0  0  0  0  0  0  0  0  0  0
   -0.0196    0.9745    4.8472 C   0  0  0  0  0  0  0  0  0  0  0  0
   -0.6552   -0.0881    0.3277 C   0  0  0  0  0  0  0  0  0  0  0  0
   -0.6698   -1.3568   -0.2203 N   0  0  0  0  0  0  0  0  0  0  0  0
   -1.6056    0.7050    0.2361 O   0  0  0  0  0  0  0  0  0  0  0  0
   -1.8402   -1.9194   -0.7806 C   0  0  0  0  0  0  0  0  0  0  0  0
   -2.9211   -1.1200   -1.1853 C   0  0  0  0  0  0  0  0  0  0  0  0
   -4.1106   -1.6633   -1.6443 C   0  0  0  0  0  0  0  0  0  0  0  0
   -4.2146   -3.0430   -1.7448 C   0  0  0  0  0  0  0  0  0  0  0  0
   -3.1253   -3.8668   -1.4143 C   0  0  0  0  0  0  0  0  0  0  0  0
   -1.9465   -3.3040   -0.9017 C   0  0  0  0  0  0  0  0  0  0  0  0
   -5.4922   -3.6280   -2.1540 N   0  0  0  0  0  0  0  0  0  0  0  0
   -5.5610   -4.8621   -2.2197 O   0  0  0  0  0  0  0  0  0  0  0  0
   -6.4321   -2.8551   -2.3933 O   0  0  0  0  0  0  0  0  0  0  0  0
  1  2  1  0
  2  3  2  0
  2  4  1  0
  2  5  1  0
  6  8  1  6
  6  7  1  0
  6  4  1  0
  7 12  2  0
  7 13  1  0
  8  9  1  0
  9 10  1  0
 10 11  1  0
 14 13  1  0
 14 15  1  1
 14 19  1  0
 15 16  1  0
 16 17  1  0
 16 18  1  0
 19 20  1  0
 19 21  2  0
 20 22  1  0
 22 23  2  0
 22 27  1  0
 23 24  1  0
 24 25  2  0
 25 26  1  0
 25 28  1  0
 26 27  2  0
 28 29  1  0
 28 30  2  0
M  CHG  2  28   1  29  -1
M  END
>  <DRUGBANK_ID>  (1) 
DB02276

>  <SECONDARY_ACCESSION_NUMBERS>  (1) 
EXPT02185

>  <COMMON_NAME>  (1) 
(S)-2-(Phosphonoxy)Caproyl-L-Leucyl-P-Nitroanilide

$$$$
