
     RDKit          3D

 12 12  0  0  0  0  0  0  0  0999 V2000
    1.0833   -0.0593    0.0623 C   0  0  1  0  0  0  0  0  0  0  0  0
    0.6055   -0.3866   -1.3535 C   0  0  0  0  0  0  0  0  0  0  0  0
    0.4272    1.2831    0.5541 C   0  0  2  0  0  0  0  0  0  0  0  0
    0.4803    2.4123   -0.4037 N   0  0  0  0  0  0  0  0  0  0  0  0
    0.7357   -1.1247    0.9540 O   0  0  0  0  0  0  0  0  0  0  0  0
   -0.6452   -0.9699   -1.5949 C   0  0  0  0  0  0  0  0  0  0  0  0
    1.3432    0.0949   -2.4549 C   0  0  0  0  0  0  0  0  0  0  0  0
   -0.8684    2.9275   -0.6225 C   0  0  0  0  0  0  0  0  0  0  0  0
    0.9901    1.7948    1.8845 C   0  0  0  0  0  0  0  0  0  0  0  0
   -1.1671   -1.0397   -2.8882 C   0  0  0  0  0  0  0  0  0  0  0  0
    0.7900    0.0817   -3.7376 C   0  0  0  0  0  0  0  0  0  0  0  0
   -0.4534   -0.4968   -3.9563 C   0  0  0  0  0  0  0  0  0  0  0  0
  1  5  1  1
  1  3  1  0
  1  2  1  0
  3  9  1  1
  3  4  1  0
  6  2  2  0
  7  2  1  0
  8  4  1  0
 10  6  1  0
 10 12  2  0
 11  7  2  0
 12 11  1  0
M  END
>  <DRUGBANK_ID>  (1) 
DB14752

>  <COMMON_NAME>  (1) 
Racephedrine

>  <CAS_NUMBER>  (1) 
90-81-3

>  <UNII>  (1) 
03VRY66076

>  <SYNONYMS>  (1) 
(+-)-Ephedrine; Ephedrine DL-form; Racephedrine

$$$$
