899
     RDKit          3D

 27 28  0  0  0  0  0  0  0  0999 V2000
    1.1090   -0.1532   -0.0332 O   0  0  0  0  0  0  0  0  0  0  0  0
    1.0543   -0.7435   -2.1341 O   0  0  0  0  0  0  0  0  0  0  0  0
   -3.9667   -0.5351   -0.2528 O   0  0  0  0  0  0  0  0  0  0  0  0
    1.0228   -2.9788   -5.9601 O   0  0  0  0  0  0  0  0  0  0  0  0
    1.0937   -2.3013   -3.9348 O   0  0  0  0  0  0  0  0  0  0  0  0
   -2.0486   -0.5513   -3.8440 N   0  0  0  0  0  0  0  0  0  0  0  0
   -1.7507   -0.5179    0.4649 N   0  0  0  0  0  0  0  0  0  0  0  0
   -1.1996   -0.5459   -0.9536 C   0  0  0  0  0  0  0  0  0  0  0  0
   -1.7996   -1.8138   -1.6392 C   0  0  0  0  0  0  0  0  0  0  0  0
   -1.7045    0.7144   -1.7242 C   0  0  0  0  0  0  0  0  0  0  0  0
   -1.6342   -1.7534   -3.1305 C   0  0  0  0  0  0  0  0  0  0  0  0
   -1.4518    0.6456   -3.2277 C   0  0  0  0  0  0  0  0  0  0  0  0
    0.4312   -0.5560   -1.1257 C   0  0  0  0  0  0  0  0  0  0  0  0
   -1.6015   -0.6876   -5.2521 C   0  0  0  0  0  0  0  0  0  0  0  0
   -0.8456   -0.4401    1.5559 C   0  0  0  0  0  0  0  0  0  0  0  0
   -3.1436   -0.5363    0.6694 C   0  0  0  0  0  0  0  0  0  0  0  0
   -0.0718   -0.7700   -5.5270 C   0  0  0  0  0  0  0  0  0  0  0  0
   -3.7110   -0.4879    2.0761 C   0  0  0  0  0  0  0  0  0  0  0  0
   -0.1454    0.7427    1.8239 C   0  0  0  0  0  0  0  0  0  0  0  0
   -0.5785   -1.5635    2.3334 C   0  0  0  0  0  0  0  0  0  0  0  0
    0.7223   -2.0319   -5.0641 C   0  0  0  0  0  0  0  0  0  0  0  0
   -3.5005   -1.7420    2.8917 C   0  0  0  0  0  0  0  0  0  0  0  0
    2.5351   -0.1118   -0.0468 C   0  0  0  0  0  0  0  0  0  0  0  0
    0.8081    0.7723    2.8442 C   0  0  0  0  0  0  0  0  0  0  0  0
    0.1107   -1.4141    3.5360 C   0  0  0  0  0  0  0  0  0  0  0  0
    0.8740   -0.2757    3.7531 C   0  0  0  0  0  0  0  0  0  0  0  0
    1.2770   -2.6044   -7.2881 C   0  0  0  0  0  0  0  0  0  0  0  0
  1 13  1  0
  1 23  1  0
  2 13  2  0
  3 16  2  0
  4 21  1  0
  4 27  1  0
  5 21  2  0
  6 11  1  0
  6 12  1  0
  6 14  1  0
  7  8  1  0
  7 15  1  0
  7 16  1  0
  8  9  1  0
  8 10  1  0
  8 13  1  0
  9 11  1  0
 10 12  1  0
 14 17  1  0
 15 19  2  0
 15 20  1  0
 16 18  1  0
 17 21  1  0
 18 22  1  0
 19 24  1  0
 20 25  2  0
 24 26  2  0
 25 26  1  0
M  END
>  <DRUGBANK_ID>  (1) 
DB00899

>  <SECONDARY_ACCESSION_NUMBERS>  (1) 
APRD01216

>  <COMMON_NAME>  (1) 
Remifentanil

>  <CAS_NUMBER>  (1) 
132875-61-7

>  <UNII>  (1) 
P10582JYYK

>  <SYNONYMS>  (1) 
Remifentanil; Remifentanilo; Remifentanyl

$$$$
