
     RDKit          3D

 21 22  0  0  1  0  0  0  0  0999 V2000
   -4.2154    2.8010    3.4702 C   0  0  0  0  0  0  0  0  0  0  0  0
   -3.2922    1.8091    3.2108 C   0  0  0  0  0  0  0  0  0  0  0  0
   -5.2426    3.0362    2.5543 C   0  0  0  0  0  0  0  0  0  0  0  0
   -3.3542    1.1321    1.9977 C   0  0  0  0  0  0  0  0  0  0  0  0
   -3.5136   -2.6510   -3.4014 C   0  0  0  0  0  0  0  0  0  0  0  0
   -5.4283    2.1764    1.4489 C   0  0  0  0  0  0  0  0  0  0  0  0
   -4.4618    1.2126    1.1463 C   0  0  0  0  0  0  0  0  0  0  0  0
   -3.1565   -2.2285   -1.9740 C   0  0  2  0  0  0  0  0  0  0  0  0
   -3.3380   -3.4179   -1.0296 C   0  0  1  0  0  0  0  0  0  0  0  0
   -2.9388   -2.9757    0.3611 C   0  0  1  0  0  0  0  0  0  0  0  0
   -3.7771   -1.7873    0.8160 C   0  0  2  0  0  0  0  0  0  0  0  0
   -3.6854   -0.6333   -0.2330 C   0  0  2  0  0  0  0  0  0  0  0  0
   -6.6740    2.3139    0.6718 N   0  0  0  0  0  0  0  0  0  0  0  0
   -3.3349   -1.5577   -4.2951 O   0  0  0  0  0  0  0  0  0  0  0  0
   -4.7029   -3.8638   -1.0014 O   0  0  0  0  0  0  0  0  0  0  0  0
   -3.0739   -4.0489    1.2944 O   0  0  0  0  0  0  0  0  0  0  0  0
   -3.3237   -1.4891    2.1411 O   0  0  0  0  0  0  0  0  0  0  0  0
   -7.4310    3.2422    0.9736 O   0  0  0  0  0  0  0  0  0  0  0  0
   -6.9308    1.4838   -0.2189 O   0  0  0  0  0  0  0  0  0  0  0  0
   -4.6300    0.4062    0.0568 O   0  0  0  0  0  0  0  0  0  0  0  0
   -4.0127   -1.1468   -1.5513 O   0  0  0  0  0  0  0  0  0  0  0  0
  2  1  2  0
  3  1  1  0
  4  2  1  0
  6  3  2  0
  7  4  2  0
  7  6  1  0
  8  5  1  6
  9  8  1  0
  9 15  1  1
 10  9  1  0
 10 16  1  1
 11 10  1  0
 11 17  1  1
 12 11  1  0
 12 20  1  1
 13  6  1  0
 14  5  1  0
 18 13  1  0
 19 13  2  0
 20  7  1  0
 21  8  1  0
 21 12  1  0
M  CHG  2  13   1  18  -1
M  END
>  <DRUGBANK_ID>  (1) 
DB01920

>  <SECONDARY_ACCESSION_NUMBERS>  (1) 
EXPT00031

>  <COMMON_NAME>  (1) 
1-O-[O-Nitrophenyl]-Beta-D-Galactopyranose

>  <UNII>  (1) 
8RFX6AT9WP

$$$$
