76V
     RDKit          3D

 27 27  0  0  0  0  0  0  0  0999 V2000
    1.9071    6.7245    7.6969 C   0  0  0  0  0  0  0  0  0  0  0  0
    2.5537    7.9622    8.3134 C   0  0  0  0  0  0  0  0  0  0  0  0
    3.7431    4.9066    7.6453 C   0  0  0  0  0  0  0  0  0  0  0  0
    3.9193    4.9178    8.8304 O   0  0  0  0  0  0  0  0  0  0  0  0
    2.8860    5.8190    7.0368 O   0  0  0  0  0  0  0  0  0  0  0  0
    4.2589    3.4582    5.3191 C   0  0  2  0  0  0  0  0  0  0  0  0
    4.7227    4.1986    6.6227 C   0  0  2  0  0  0  0  0  0  0  0  0
    4.7871    2.7830    6.4735 O   0  0  0  0  0  0  0  0  0  0  0  0
    5.0093    3.5536    4.0035 C   0  0  0  0  0  0  0  0  0  0  0  0
    6.1576    3.1440    3.8629 O   0  0  0  0  0  0  0  0  0  0  0  0
    4.3598    4.1175    2.9004 N   0  0  0  0  0  0  0  0  0  0  0  0
    2.9676    4.5766    2.7321 C   0  0  2  0  0  0  0  0  0  0  0  0
    2.2781    4.8449    4.0376 C   0  0  0  0  0  0  0  0  0  0  0  0
    1.4690    4.1143    4.6066 O   0  0  0  0  0  0  0  0  0  0  0  0
    2.0465    3.7579    1.8388 C   0  0  2  0  0  0  0  0  0  0  0  0
    1.7815    2.3456    2.3671 C   0  0  0  0  0  0  0  0  0  0  0  0
    2.5921    3.7556    0.4138 C   0  0  0  0  0  0  0  0  0  0  0  0
    0.7384    1.6649    1.5121 C   0  0  0  0  0  0  0  0  0  0  0  0
    2.7574    5.8717    4.7541 N   0  0  0  0  0  0  0  0  0  0  0  0
    3.4431    7.1163    4.3646 C   0  0  2  0  0  0  0  0  0  0  0  0
    4.9225    7.3447    4.7907 C   0  0  0  0  0  0  0  0  0  0  0  0
    5.2802    6.6243    5.8482 O   0  0  0  0  0  0  0  0  0  0  0  0
    2.5662    8.2606    4.8863 C   0  0  2  0  0  0  0  0  0  0  0  0
    1.1166    8.1949    4.3905 C   0  0  0  0  0  0  0  0  0  0  0  0
    3.2183    9.6094    4.6905 C   0  0  0  0  0  0  0  0  0  0  0  0
    1.1011    8.0426    2.8903 C   0  0  0  0  0  0  0  0  0  0  0  0
    5.6730    8.1814    4.3182 O   0  0  0  0  0  0  0  0  0  0  0  0
  1  2  1  0
  1  5  1  0
  3  4  2  0
  3  5  1  0
  6  7  1  0
  6  8  1  0
  6  9  1  6
  7  3  1  1
  7  8  1  0
  9 10  2  0
  9 11  1  0
 12 13  1  0
 12 11  1  1
 13 14  2  0
 13 19  1  0
 15 17  1  6
 15 16  1  0
 15 12  1  0
 16 18  1  0
 20 21  1  0
 20 19  1  1
 21 22  1  0
 21 27  2  0
 23 25  1  6
 23 24  1  0
 23 20  1  0
 24 26  1  0
M  END
>  <DRUGBANK_ID>  (1) 
DB07225

>  <COMMON_NAME>  (1) 
N-{[(2S,3S)-3-(ETHOXYCARBONYL)OXIRAN-2-YL]CARBONYL}-L-ISOLEUCYL-L-ISOLEUCINE

$$$$
