
     RDKit          3D

 25 26  0  0  0  0  0  0  0  0999 V2000
    5.1497    2.0024   -8.3358 O   0  0  0  0  0  0  0  0  0  0  0  0
    4.2824    1.1758   -9.1109 C   0  0  0  0  0  0  0  0  0  0  0  0
    2.8199    1.5639   -8.8933 C   0  0  0  0  0  0  0  0  0  0  0  0
    2.5189    3.0216   -9.2878 C   0  0  0  0  0  0  0  0  0  0  0  0
    2.7780    3.2465  -10.6689 O   0  0  0  0  0  0  0  0  0  0  0  0
    1.8785    0.6406   -9.5306 N   0  0  0  0  0  0  0  0  0  0  0  0
    0.9259   -0.1452   -8.9371 C   0  0  0  0  0  0  0  0  0  0  0  0
    0.2148   -0.8540   -9.6610 O   0  0  0  0  0  0  0  0  0  0  0  0
    0.7446   -0.1404   -7.4063 C   0  0  1  0  0  0  0  0  0  0  0  0
    1.9920   -0.5052   -6.7996 O   0  0  0  0  0  0  0  0  0  0  0  0
    0.2585    1.2432   -6.9213 C   0  0  1  0  0  0  0  0  0  0  0  0
   -0.9846    1.6414   -7.4972 O   0  0  0  0  0  0  0  0  0  0  0  0
    0.3051    1.3873   -5.3860 C   0  0  1  0  0  0  0  0  0  0  0  0
    1.0070    2.6925   -5.0261 C   0  0  2  0  0  0  0  0  0  0  0  0
    2.5307    2.5665   -5.0616 C   0  0  0  0  0  0  0  0  0  0  0  0
    0.4477    3.0183   -3.7552 O   0  0  0  0  0  0  0  0  0  0  0  0
   -0.7675    2.3862   -3.7792 C   0  0  0  0  0  0  0  0  0  0  0  0
   -1.0077    1.5100   -4.7114 N   0  0  0  0  0  0  0  0  0  0  0  0
   -1.7131    2.7905   -2.7129 C   0  0  0  0  0  0  0  0  0  0  0  0
   -2.2255    4.0960   -2.6814 C   0  0  0  0  0  0  0  0  0  0  0  0
   -3.1797    4.4637   -1.7179 C   0  0  0  0  0  0  0  0  0  0  0  0
   -3.6228    3.5367   -0.7745 C   0  0  0  0  0  0  0  0  0  0  0  0
   -3.1239    2.2338   -0.8005 C   0  0  0  0  0  0  0  0  0  0  0  0
   -2.1794    1.8627   -1.7703 C   0  0  0  0  0  0  0  0  0  0  0  0
   -1.6980    0.5823   -1.7771 O   0  0  0  0  0  0  0  0  0  0  0  0
  1  2  1  0
  2  3  1  0
  3  4  1  0
  3  6  1  0
  4  5  1  0
  6  7  1  0
  7  8  2  0
  9  7  1  0
  9 10  1  1
 11  9  1  0
 11 12  1  1
 13 14  1  0
 13 18  1  6
 13 11  1  0
 14 15  1  1
 14 16  1  0
 16 17  1  0
 17 18  2  0
 17 19  1  0
 19 20  2  0
 19 24  1  0
 20 21  1  0
 21 22  2  0
 22 23  1  0
 23 24  2  0
 24 25  1  0
M  END
>  <DRUGBANK_ID>  (1) 
DB15554

>  <COMMON_NAME>  (1) 
Leptazoline D

$$$$
