
     RDKit          3D

 17 18  0  0  0  0  0  0  0  0999 V2000
    1.0438   -0.2391    0.1840 O   0  0  0  0  0  0  0  0  0  0  0  0
    1.4494    5.1019   -0.5681 O   0  0  0  0  0  0  0  0  0  0  0  0
   -0.2301    8.4100   -0.7808 O   0  0  0  0  0  0  0  0  0  0  0  0
    1.9316    1.3285   -2.6341 N   0  0  0  0  0  0  0  0  0  0  0  0
   -1.2471    4.8892    0.0745 N   0  0  0  0  0  0  0  0  0  0  0  0
   -0.9633    6.3220   -0.1683 N   0  0  0  0  0  0  0  0  0  0  0  0
    0.4929    6.7672   -2.0750 N   0  0  0  0  0  0  0  0  0  0  0  0
    0.2744    1.6865   -0.9981 C   0  0  0  0  0  0  0  0  0  0  0  0
    1.1459    2.2645   -2.0239 C   0  0  0  0  0  0  0  0  0  0  0  0
    0.5293    0.2027   -1.0654 C   0  0  0  0  0  0  0  0  0  0  0  0
   -0.5183    3.9093   -0.3749 C   0  0  0  0  0  0  0  0  0  0  0  0
   -0.5753    2.3947   -0.2050 C   0  0  0  0  0  0  0  0  0  0  0  0
    0.7155    4.2494   -1.0723 C   0  0  0  0  0  0  0  0  0  0  0  0
    1.1914    3.5681   -2.2388 C   0  0  0  0  0  0  0  0  0  0  0  0
    1.5775   -0.0142   -2.2103 C   0  0  0  0  0  0  0  0  0  0  0  0
    2.9239    1.5380   -3.6792 C   0  0  0  0  0  0  0  0  0  0  0  0
   -0.2152    7.1914   -0.9888 C   0  0  0  0  0  0  0  0  0  0  0  0
  1 10  1  0
  2 13  2  0
  3 17  2  0
  4  9  1  0
  4 15  1  0
  4 16  1  0
  5  6  1  0
  5 11  2  0
  6 17  1  0
  7 17  1  0
  8  9  1  0
  8 10  1  0
  8 12  2  0
  9 14  2  0
 10 15  1  0
 11 12  1  0
 11 13  1  0
 13 14  1  0
M  END
>  <DRUGBANK_ID>  (1) 
DB09012

>  <COMMON_NAME>  (1) 
Carbazochrome

>  <CAS_NUMBER>  (1) 
69-81-8

>  <UNII>  (1) 
81F061RQS4

>  <SYNONYMS>  (1) 
3-Hydroxy-1-methyl-5,6-inodlindionsemicarbazon; Adchnon; Adedolon; Adrenostan; Carbazochrom; Carbazochrome; Carbazochromum; Carbazocromo

$$$$
