CMG
     RDKit          3D

 18 20  0  0  0  0  0  0  0  0999 V2000
   -1.5253    1.1205   -0.1872 N   0  0  0  0  0  0  0  0  0  0  0  0
   -1.7390   -0.1941   -0.0265 C   0  0  0  0  0  0  0  0  0  0  0  0
   -0.8178   -1.1661   -0.0269 N   0  0  0  0  0  0  0  0  0  0  0  0
    0.4033   -0.6972   -0.3404 C   0  0  0  0  0  0  0  0  0  0  0  0
    0.7474    0.5985   -0.6747 C   0  0  0  0  0  0  0  0  0  0  0  0
   -0.2630    1.5621   -0.4659 C   0  0  0  0  0  0  0  0  0  0  0  0
   -0.0844    2.9217   -0.2231 O   0  0  0  0  0  0  0  0  0  0  0  0
    1.2603    3.3831   -0.0158 C   0  0  0  0  0  0  0  0  0  0  0  0
    2.1237    0.6703   -0.8954 N   0  0  0  0  0  0  0  0  0  0  0  0
    2.5964   -0.4935   -0.4964 C   0  0  0  0  0  0  0  0  0  0  0  0
    1.5857   -1.3842   -0.2432 N   0  0  0  0  0  0  0  0  0  0  0  0
   -3.0457   -0.5845    0.1887 N   0  0  0  0  0  0  0  0  0  0  0  0
    1.9185    3.0232    1.3598 C   0  0  0  0  0  0  0  0  0  0  0  0
    1.5384    1.6414    1.8745 C   0  0  0  0  0  0  0  0  0  0  0  0
    2.0997    1.1696    3.1767 C   0  0  0  0  0  0  0  0  0  0  0  0
    1.6342    2.1340    4.2245 C   0  0  0  0  0  0  0  0  0  0  0  0
    2.0809    3.5471    3.8439 C   0  0  0  0  0  0  0  0  0  0  0  0
    1.5597    4.0152    2.4696 C   0  0  0  0  0  0  0  0  0  0  0  0
  1  2  2  0
  1  6  1  0
  2  3  1  0
  2 12  1  0
  3  4  2  0
  4  5  1  0
  4 11  1  0
  5  6  2  0
  5  9  1  0
  6  7  1  0
  7  8  1  0
  8 13  1  0
  9 10  2  0
 10 11  1  0
 13 14  1  0
 13 18  1  0
 14 15  1  0
 15 16  1  0
 16 17  1  0
 17 18  1  0
M  END
>  <DRUGBANK_ID>  (1) 
DB02407

>  <SECONDARY_ACCESSION_NUMBERS>  (1) 
EXPT00955

>  <COMMON_NAME>  (1) 
6-O-Cyclohexylmethyl Guanine

>  <UNII>  (1) 
884MN6AR44

$$$$
