
     RDKit          3D

  6  5  0  0  0  0  0  0  0  0999 V2000
    0.9889    0.0159   -0.1076 C   0  0  0  0  0  0  0  0  0  0  0  0
    0.4886   -1.4207   -0.2603 C   0  0  0  0  0  0  0  0  0  0  0  0
    0.9889   -2.2858    0.8966 C   0  0  0  0  0  0  0  0  0  0  0  0
   -0.9422   -1.4143   -0.2456 O   0  0  0  0  0  0  0  0  0  0  0  0
    0.9953   -1.9937   -1.5738 C   0  0  0  0  0  0  0  0  0  0  0  0
    1.4156   -2.4691   -2.6635 N   0  0  0  0  0  0  0  0  0  0  0  0
  1  2  1  0
  2  3  1  0
  2  4  1  0
  2  5  1  0
  5  6  3  0
M  END
>  <DRUGBANK_ID>  (1) 
DB02203

>  <SECONDARY_ACCESSION_NUMBERS>  (1) 
EXPT00968

>  <COMMON_NAME>  (1) 
Acetone Cyanohydrin

>  <CAS_NUMBER>  (1) 
75-86-5

>  <UNII>  (1) 
CO1YOV1KFI

$$$$
