TFG
     RDKit          3D

 29 32  0  0  0  0  0  0  0  0999 V2000
    1.3797   -0.2179   -0.0014 C   0  0  0  0  0  0  0  0  0  0  0  0
    0.5028   -1.3041    0.0209 C   0  0  0  0  0  0  0  0  0  0  0  0
   -0.8744   -1.0894    0.0034 C   0  0  0  0  0  0  0  0  0  0  0  0
   -1.3759    0.2106    0.0147 C   0  0  0  0  0  0  0  0  0  0  0  0
   -0.4996    1.2971    0.0259 C   0  0  0  0  0  0  0  0  0  0  0  0
    0.8835    1.0896   -0.0444 C   0  0  0  0  0  0  0  0  0  0  0  0
    1.7894    2.2052   -0.2824 C   0  0  0  0  0  0  0  0  0  0  0  0
    2.6386    2.4465   -1.3479 C   0  0  0  0  0  0  0  0  0  0  0  0
    3.2905    3.6467   -1.2157 N   0  0  0  0  0  0  0  0  0  0  0  0
    2.8411    4.1696   -0.0931 C   0  0  0  0  0  0  0  0  0  0  0  0
    3.2542    5.4704    0.5329 C   0  0  0  0  0  0  0  0  0  0  0  0
    1.9398    3.3159    0.5048 N   0  0  0  0  0  0  0  0  0  0  0  0
    1.3000    3.5861    1.7758 C   0  0  0  0  0  0  0  0  0  0  0  0
    2.0643    4.6600    2.5375 C   0  0  0  0  0  0  0  0  0  0  0  0
    2.3768    5.7910    1.6614 N   0  0  0  0  0  0  0  0  0  0  0  0
    1.7920    7.0519    1.7078 C   0  0  0  0  0  0  0  0  0  0  0  0
    2.0494    7.9066    0.8558 O   0  0  0  0  0  0  0  0  0  0  0  0
    0.8294    7.3135    2.7556 C   0  0  0  0  0  0  0  0  0  0  0  0
   -0.7329    7.7475    2.2498 S   0  0  0  0  0  0  0  0  0  0  0  0
    0.9410    7.2978    4.1316 C   0  0  0  0  0  0  0  0  0  0  0  0
   -0.2916    7.6379    4.7676 C   0  0  0  0  0  0  0  0  0  0  0  0
   -1.2996    7.9205    3.8556 C   0  0  0  0  0  0  0  0  0  0  0  0
   -2.7476    8.2795    4.1215 C   0  0  0  0  0  0  0  0  0  0  0  0
   -3.4446    7.1176    4.8993 C   0  0  0  0  0  0  0  0  0  0  0  0
   -2.8699    6.9280    6.1149 F   0  0  0  0  0  0  0  0  0  0  0  0
   -4.7520    7.4004    5.1156 F   0  0  0  0  0  0  0  0  0  0  0  0
   -3.3892    5.9410    4.2333 F   0  0  0  0  0  0  0  0  0  0  0  0
   -2.7384    9.5138    4.8411 O   0  0  0  0  0  0  0  0  0  0  0  0
   -3.3817    8.5578    2.8710 O   0  0  0  0  0  0  0  0  0  0  0  0
  1  2  2  0
  1  6  1  0
  2  3  1  0
  3  4  2  0
  4  5  1  0
  5  6  2  0
  6  7  1  0
  7  8  2  0
  7 12  1  0
  8  9  1  0
  9 10  2  0
 10 11  1  0
 10 12  1  0
 11 15  1  0
 12 13  1  0
 13 14  1  0
 14 15  1  0
 15 16  1  0
 16 17  2  0
 16 18  1  0
 18 19  1  0
 18 20  2  0
 19 22  1  0
 20 21  1  0
 21 22  2  0
 22 23  1  0
 23 24  1  0
 23 28  1  0
 23 29  1  0
 24 25  1  0
 24 26  1  0
 24 27  1  0
M  END
>  <DRUGBANK_ID>  (1) 
DB08613

>  <COMMON_NAME>  (1) 
2,2,2-TRIFLUORO-1-{5-[(3-PHENYL-5,6-DIHYDROIMIDAZO[1,2-A]PYRAZIN-7(8H)-YL)CARBONYL]THIOPHEN-2-YL}ETHANE-1,1-DIOL

$$$$
