
     RDKit          3D

 23 25  0  0  0  0  0  0  0  0999 V2000
   -1.1104   -0.4753   -0.0000 C   0  0  0  0  0  0  0  0  0  0  0  0
   -0.3814    0.7114   -0.0620 C   0  0  0  0  0  0  0  0  0  0  0  0
   -0.4296   -1.7919   -0.0963 C   0  0  0  0  0  0  0  0  0  0  0  0
   -2.5066   -0.3631    0.1240 C   0  0  0  0  0  0  0  0  0  0  0  0
    1.3486    0.5621   -0.3515 S   0  0  0  0  0  0  0  0  0  0  0  0
   -0.9778    1.9693    0.0946 C   0  0  0  0  0  0  0  0  0  0  0  0
    0.9000   -1.9917    0.1155 C   0  0  0  0  0  0  0  0  0  0  0  0
   -1.3126   -2.8165   -0.4119 O   0  0  0  0  0  0  0  0  0  0  0  0
   -3.1269    0.8881    0.2406 C   0  0  0  0  0  0  0  0  0  0  0  0
    1.7279   -0.8742    0.5310 N   0  0  0  0  0  0  0  0  0  0  0  0
    2.0045    1.6733    0.3011 O   0  0  0  0  0  0  0  0  0  0  0  0
    1.5300    0.2960   -1.7643 O   0  0  0  0  0  0  0  0  0  0  0  0
   -2.3607    2.0523    0.2479 C   0  0  0  0  0  0  0  0  0  0  0  0
    1.4979   -3.3817   -0.0275 C   0  0  0  0  0  0  0  0  0  0  0  0
    1.8146   -0.6393    1.9963 C   0  0  0  0  0  0  0  0  0  0  0  0
    2.8358   -3.5375    0.2758 N   0  0  0  0  0  0  0  0  0  0  0  0
    0.7337   -4.3059   -0.3188 O   0  0  0  0  0  0  0  0  0  0  0  0
    3.4265   -4.7709    0.0771 C   0  0  0  0  0  0  0  0  0  0  0  0
    3.1562   -5.6198   -0.8829 N   0  0  0  0  0  0  0  0  0  0  0  0
    4.6308   -5.2792    1.1892 S   0  0  0  0  0  0  0  0  0  0  0  0
    3.9330   -6.7527   -0.7484 C   0  0  0  0  0  0  0  0  0  0  0  0
    4.7476   -6.7972    0.3654 C   0  0  0  0  0  0  0  0  0  0  0  0
    5.6216   -7.9179    0.8264 C   0  0  0  0  0  0  0  0  0  0  0  0
  1  2  2  0
  1  3  1  0
  1  4  1  0
  2  5  1  0
  2  6  1  0
  3  7  2  0
  3  8  1  0
  4  9  2  0
  5 10  1  0
  5 11  2  0
  5 12  2  0
  6 13  2  0
  7 14  1  0
  7 10  1  0
  9 13  1  0
 10 15  1  0
 14 16  1  0
 14 17  2  0
 16 18  1  0
 18 19  2  0
 18 20  1  0
 19 21  1  0
 20 22  1  0
 21 22  2  0
 22 23  1  0
M  END
>  <DRUGBANK_ID>  (1) 
DB00814

>  <SECONDARY_ACCESSION_NUMBERS>  (1) 
APRD00529

>  <COMMON_NAME>  (1) 
Meloxicam

>  <CAS_NUMBER>  (1) 
71125-38-7

>  <UNII>  (1) 
VG2QF83CGL

>  <SYNONYMS>  (1) 
MÃ©loxicam; Meloxicam; Meloxicamum

$$$$
