
     RDKit          3D

 25 26  0  0  0  0  0  0  0  0999 V2000
    1.4895   -0.2859   -0.6141 C   0  0  0  0  0  0  0  0  0  0  0  0
    1.5132    4.5123    1.3649 C   0  0  0  0  0  0  0  0  0  0  0  0
    0.8382    2.4178   -2.1225 C   0  0  0  0  0  0  0  0  0  0  0  0
    1.0712    1.1152   -0.2399 C   0  0  0  0  0  0  0  0  0  0  0  0
    1.0955    4.0912   -0.1582 C   0  0  0  0  0  0  0  0  0  0  0  0
   -2.2266   -0.1826   -1.5819 C   0  0  0  0  0  0  0  0  0  0  0  0
   -2.7383    4.1927    4.6972 C   0  0  0  0  0  0  0  0  0  0  0  0
   -2.4825    1.1745   -1.4685 C   0  0  0  0  0  0  0  0  0  0  0  0
   -1.7047   -0.8682   -0.4806 C   0  0  0  0  0  0  0  0  0  0  0  0
   -1.8410    4.9228    3.9515 C   0  0  0  0  0  0  0  0  0  0  0  0
   -2.8860    2.8014    4.5465 C   0  0  0  0  0  0  0  0  0  0  0  0
   -2.1888    1.8354   -0.2483 C   0  0  0  0  0  0  0  0  0  0  0  0
   -1.4889   -0.2494    0.7776 C   0  0  0  0  0  0  0  0  0  0  0  0
   -1.1566    4.2193    3.0101 C   0  0  0  0  0  0  0  0  0  0  0  0
   -2.0307    2.0752    3.7711 C   0  0  0  0  0  0  0  0  0  0  0  0
    2.9285    2.4032   -0.4434 C   0  0  0  0  0  0  0  0  0  0  0  0
    3.1809    2.3034    1.1616 C   0  0  0  0  0  0  0  0  0  0  0  0
   -1.6156    1.1368    0.9183 C   0  0  0  0  0  0  0  0  0  0  0  0
   -1.2001    2.7838    2.9576 C   0  0  0  0  0  0  0  0  0  0  0  0
    0.8600    1.1517    2.5817 C   0  0  0  0  0  0  0  0  0  0  0  0
   -0.5485    1.9103    1.9406 C   0  0  0  0  0  0  0  0  0  0  0  0
    1.4999    2.4748   -0.7534 N   0  0  0  0  0  0  0  0  0  0  0  0
    0.7679    0.1534    3.2353 O   0  0  0  0  0  0  0  0  0  0  0  0
   -0.2268    2.8591    1.0196 O   0  0  0  0  0  0  0  0  0  0  0  0
    2.1990    1.6220    2.2712 O   0  0  0  0  0  0  0  0  0  0  0  0
  4  1  1  0
  5  2  1  0
  8  6  2  0
  9  6  1  0
 10  7  2  0
 11  7  1  0
 12  8  1  0
 13  9  2  0
 14 10  1  0
 15 11  2  0
 17 16  1  0
 18 12  2  0
 18 13  1  0
 19 14  2  0
 19 15  1  0
 21 18  1  0
 21 19  1  0
 21 20  1  0
 22  3  1  0
 22  4  1  0
 22  5  1  0
 22 16  1  0
 23 20  2  0
 24 21  1  0
 25 17  1  0
 25 20  1  0
M  CHG  1  22   1
M  END
>  <DRUGBANK_ID>  (1) 
DB13181

>  <COMMON_NAME>  (1) 
Methylbenactyzium

>  <CAS_NUMBER>  (1) 
13473-61-5

>  <UNII>  (1) 
38C3R34UK2

$$$$
