
     RDKit          3D

 18 20  0  0  0  0  0  0  0  0999 V2000
    3.4258    1.1837    5.7802 C   0  0  0  0  0  0  0  0  0  0  0  0
    2.1151    0.0486    4.3869 C   0  0  0  0  0  0  0  0  0  0  0  0
    1.5454    1.1913    3.8558 C   0  0  0  0  0  0  0  0  0  0  0  0
    2.1066    3.1048    1.1393 C   0  0  2  0  0  0  0  0  0  0  0  0
    4.2328    2.1913    1.8225 C   0  0  0  0  0  0  0  0  0  0  0  0
    3.5985    3.4022    1.1417 C   0  0  0  0  0  0  0  0  0  0  0  0
    1.6059   -0.9824    3.6459 N   0  0  0  0  0  0  0  0  0  0  0  0
    3.0436   -0.0278    5.3479 N   0  0  0  0  0  0  0  0  0  0  0  0
    4.3036    1.2097    6.8288 N   0  0  0  0  0  0  0  0  0  0  0  0
    3.0411    2.3708    5.2791 N   0  0  0  0  0  0  0  0  0  0  0  0
    2.1179    2.3983    4.2797 C   0  0  0  0  0  0  0  0  0  0  0  0
    2.0181    3.6215    3.6407 O   0  0  0  0  0  0  0  0  0  0  0  0
    1.3335    3.6429    2.3838 C   0  0  0  0  0  0  0  0  0  0  0  0
    3.3082    1.0945    1.3862 C   0  0  0  0  0  0  0  0  0  0  0  0
    0.6217    0.8538    2.8788 N   0  0  0  0  0  0  0  0  0  0  0  0
    0.7679   -0.4443    2.7099 C   0  0  0  0  0  0  0  0  0  0  0  0
    3.5097   -0.1112    1.4950 O   0  0  0  0  0  0  0  0  0  0  0  0
    2.1348    1.6796    0.9376 N   0  0  0  0  0  0  0  0  0  0  0  0
  1  8  2  0
  1  9  1  0
  1 10  1  0
  2  3  2  0
  2  7  1  0
  2  8  1  0
  3 11  1  0
  3 15  1  0
  4 18  1  0
  4 13  1  1
  6  4  1  0
  6  5  1  0
 11 10  2  0
 11 12  1  0
 13 12  1  0
 14  5  1  0
 14 17  2  0
 14 18  1  0
 16  7  1  0
 16 15  2  0
M  END
>  <DRUGBANK_ID>  (1) 
DB02898

>  <SECONDARY_ACCESSION_NUMBERS>  (1) 
EXPT03189

>  <COMMON_NAME>  (1) 
(5R)-5-{[(2-Amino-3H-purin-6-yl)oxy]methyl}-2-pyrrolidinone

$$$$
