
     RDKit          3D

 39 43  0  0  0  0  0  0  0  0999 V2000
    1.4128   -0.1583    0.0569 C   0  0  0  0  0  0  0  0  0  0  0  0
    0.5387   -1.2644    0.0359 C   0  0  0  0  0  0  0  0  0  0  0  0
   -0.8505   -1.1039   -0.0348 C   0  0  0  0  0  0  0  0  0  0  0  0
   -1.3871    0.1765   -0.0179 C   0  0  0  0  0  0  0  0  0  0  0  0
   -0.5166    1.2691    0.0644 C   0  0  0  0  0  0  0  0  0  0  0  0
    0.8756    1.1364    0.0008 C   0  0  0  0  0  0  0  0  0  0  0  0
    1.0395   -2.5746   -0.0565 N   0  0  0  0  0  0  0  0  0  0  0  0
    1.7168    2.2723   -0.2028 N   0  0  0  0  0  0  0  0  0  0  0  0
    1.2591    3.5804   -0.3397 C   0  0  0  0  0  0  0  0  0  0  0  0
    2.2280    4.6618   -0.6217 C   0  0  0  0  0  0  0  0  0  0  0  0
    3.9343    5.6948   -1.9622 C   0  0  0  0  0  0  0  0  0  0  0  0
    3.1734    4.5661   -1.6345 C   0  0  0  0  0  0  0  0  0  0  0  0
    2.0183    5.8954    0.0176 C   0  0  0  0  0  0  0  0  0  0  0  0
    2.7039    7.0618   -0.3650 C   0  0  0  0  0  0  0  0  0  0  0  0
    3.7350    6.9312   -1.3123 C   0  0  0  0  0  0  0  0  0  0  0  0
    4.6564    8.0843   -1.6060 C   0  0  0  0  0  0  0  0  0  0  0  0
    2.4231    8.3240    0.2243 N   0  0  0  0  0  0  0  0  0  0  0  0
    1.3308    8.5558    1.0656 C   0  0  0  0  0  0  0  0  0  0  0  0
    0.2887    9.2857    0.6338 N   0  0  0  0  0  0  0  0  0  0  0  0
   -0.7735    9.3660    1.4656 C   0  0  0  0  0  0  0  0  0  0  0  0
   -0.8074    8.7942    2.7143 C   0  0  0  0  0  0  0  0  0  0  0  0
    0.3285    8.1150    3.0860 C   0  0  0  0  0  0  0  0  0  0  0  0
    1.3880    7.9913    2.2751 N   0  0  0  0  0  0  0  0  0  0  0  0
    0.4835    7.4648    4.3785 C   0  0  0  0  0  0  0  0  0  0  0  0
    1.5719    7.7545    5.2015 C   0  0  0  0  0  0  0  0  0  0  0  0
   -0.4237    6.5078    4.8418 C   0  0  0  0  0  0  0  0  0  0  0  0
   -0.2185    5.8974    6.0751 C   0  0  0  0  0  0  0  0  0  0  0  0
    0.8938    6.2649    6.8142 C   0  0  0  0  0  0  0  0  0  0  0  0
    1.7922    7.1870    6.4117 N   0  0  0  0  0  0  0  0  0  0  0  0
    1.3993   -4.6229   -0.7482 C   0  0  0  0  0  0  0  0  0  0  0  0
    2.1082   -4.4682    0.4211 N   0  0  0  0  0  0  0  0  0  0  0  0
    1.8779   -3.2284    0.8090 C   0  0  0  0  0  0  0  0  0  0  0  0
    0.7160   -3.4675   -1.0444 C   0  0  0  0  0  0  0  0  0  0  0  0
    1.4257   -5.8720   -1.5388 C   0  0  0  0  0  0  0  0  0  0  0  0
    0.0841    3.9568   -0.2589 O   0  0  0  0  0  0  0  0  0  0  0  0
   -2.8608    0.4414   -0.1744 C   0  0  0  0  0  0  0  0  0  0  0  0
   -3.3853    1.1431    0.8657 F   0  0  0  0  0  0  0  0  0  0  0  0
   -3.1333    1.1648   -1.2964 F   0  0  0  0  0  0  0  0  0  0  0  0
   -3.6042   -0.6942   -0.2789 F   0  0  0  0  0  0  0  0  0  0  0  0
  1  2  2  0
  1  6  1  0
  2  3  1  0
  2  7  1  0
  3  4  2  0
  4  5  1  0
  4 36  1  0
  5  6  2  0
  6  8  1  0
  7 33  1  0
  8  9  1  0
  9 10  1  0
  9 35  2  0
 10 13  2  0
 11 12  2  0
 11 15  1  0
 12 10  1  0
 13 14  1  0
 14 15  2  0
 14 17  1  0
 15 16  1  0
 17 18  1  0
 18 19  2  0
 18 23  1  0
 19 20  1  0
 20 21  2  0
 21 22  1  0
 22 23  2  0
 22 24  1  0
 24 26  1  0
 25 24  2  0
 25 29  1  0
 26 27  2  0
 27 28  1  0
 28 29  2  0
 30 31  1  0
 30 33  2  0
 30 34  1  0
 31 32  2  0
 32  7  1  0
 36 37  1  0
 36 38  1  0
 36 39  1  0
M  END
>  <DRUGBANK_ID>  (1) 
DB04868

>  <COMMON_NAME>  (1) 
Nilotinib

>  <CAS_NUMBER>  (1) 
641571-10-0

>  <UNII>  (1) 
F41401512X

>  <SYNONYMS>  (1) 
Nilotinib; Nilotinibum

$$$$
