
     RDKit          3D

 11 10  0  0  1  0  0  0  0  0999 V2000
    1.5365    1.1054    1.2773 C   0  0  0  0  0  0  0  0  0  0  0  0
    0.2682    0.4220    1.1762 N   0  0  0  0  0  0  0  0  0  0  0  0
   -0.1879   -0.4905    0.2628 C   0  0  0  0  0  0  0  0  0  0  0  0
   -1.2429   -1.0764    0.5160 O   0  0  0  0  0  0  0  0  0  0  0  0
    0.5861   -0.8087   -1.0184 C   0  0  0  0  0  0  0  0  0  0  0  0
    0.5414    0.2587   -2.1319 C   0  0  0  0  0  0  0  0  0  0  0  0
    1.2194    1.5723   -1.7637 C   0  0  2  0  0  0  0  0  0  0  0  0
    0.2726    2.6973   -1.6497 N   0  0  0  0  0  0  0  0  0  0  0  0
    2.5763    1.8583   -2.4302 C   0  0  0  0  0  0  0  0  0  0  0  0
    3.6689    1.6529   -1.6312 O   0  0  0  0  0  0  0  0  0  0  0  0
    2.7140    2.2350   -3.5719 O   0  0  0  0  0  0  0  0  0  0  0  0
  1  2  1  0
  2  3  1  0
  3  4  2  0
  3  5  1  0
  5  6  1  0
  7  9  1  0
  7  8  1  6
  7  6  1  0
  9 10  1  0
  9 11  2  0
M  END
>  <DRUGBANK_ID>  (1) 
DB03473

>  <SECONDARY_ACCESSION_NUMBERS>  (1) 
EXPT02152

>  <COMMON_NAME>  (1) 
N5-Methylglutamine

>  <UNII>  (1) 
2N7NDF57QD

$$$$
