
     RDKit          3D

 23 26  0  0  0  0  0  0  0  0999 V2000
    2.1983   -1.3609   -0.7158 C   0  0  0  0  0  0  0  0  0  0  0  0
    3.6883   -1.2771   -0.3851 C   0  0  0  0  0  0  0  0  0  0  0  0
    4.1851    0.1652   -0.4502 C   0  0  1  0  0  0  0  0  0  0  0  0
    3.3586    1.0810    0.4545 C   0  0  0  0  0  0  0  0  0  0  0  0
    1.8743    0.9487    0.1996 C   0  0  0  0  0  0  0  0  0  0  0  0
    1.1240    2.0436   -0.0184 C   0  0  0  0  0  0  0  0  0  0  0  0
   -0.3578    2.0300   -0.2174 C   0  0  0  0  0  0  0  0  0  0  0  0
   -0.8826   -1.8655   -0.2305 C   0  0  0  0  0  0  0  0  0  0  0  0
   -2.3652   -1.8521   -0.6288 C   0  0  0  0  0  0  0  0  0  0  0  0
   -0.1654   -0.4937   -0.3819 C   0  0  2  0  0  0  0  0  0  0  0  0
   -3.1035   -0.8547    1.6275 C   0  0  0  0  0  0  0  0  0  0  0  0
    1.3015   -0.4758    0.1971 C   0  0  1  0  0  0  0  0  0  0  0  0
    1.3354   -1.0145    1.6476 C   0  0  0  0  0  0  0  0  0  0  0  0
   -1.0006    0.6942    0.1711 C   0  0  2  0  0  0  0  0  0  0  0  0
   -4.5556   -0.4842   -0.4624 C   0  0  2  0  0  0  0  0  0  0  0  0
   -3.1299   -0.7217    0.0834 C   0  0  2  0  0  0  0  0  0  0  0  0
   -3.4208    1.6820    0.0214 C   0  0  0  0  0  0  0  0  0  0  0  0
   -4.7914    1.0328   -0.2174 C   0  0  0  0  0  0  0  0  0  0  0  0
   -2.4334    0.5914   -0.3617 C   0  0  1  0  0  0  0  0  0  0  0  0
   -5.7744   -1.2896    0.0091 C   0  0  0  0  0  0  0  0  0  0  0  0
   -5.6820   -2.4718    0.9381 C   0  0  0  0  0  0  0  0  0  0  0  0
   -6.9030   -0.9507   -0.3841 O   0  0  0  0  0  0  0  0  0  0  0  0
    5.5578    0.2101   -0.0663 O   0  0  0  0  0  0  0  0  0  0  0  0
  2  1  1  0
  3  4  1  0
  3  2  1  0
  3 23  1  1
  4  5  1  0
  6  7  1  0
  6  5  2  0
  8  9  1  0
 10  8  1  1
 10 12  1  0
 12  5  1  0
 12  1  1  0
 12 13  1  1
 14 10  1  0
 14  7  1  6
 15 18  1  0
 15 20  1  1
 16  9  1  0
 16 11  1  1
 16 15  1  0
 18 17  1  0
 19 14  1  0
 19 16  1  0
 19 17  1  1
 21 20  1  0
 22 20  2  0
M  END
>  <DRUGBANK_ID>  (1) 
DB02789

>  <SECONDARY_ACCESSION_NUMBERS>  (1) 
EXPT02608

>  <COMMON_NAME>  (1) 
Pregnenolone

>  <CAS_NUMBER>  (1) 
145-13-1

>  <UNII>  (1) 
73R90F7MQ8

>  <SYNONYMS>  (1) 
Pregnenolone

$$$$
