
     RDKit          3D

 32 35  0  0  0  0  0  0  0  0999 V2000
    0.7818    0.0272    0.0584 C   0  0  0  0  0  0  0  0  0  0  0  0
    0.4375   -0.2909   -1.3835 C   0  0  0  0  0  0  0  0  0  0  0  0
    6.2397   -2.4501   -1.3075 C   0  0  0  0  0  0  0  0  0  0  0  0
    6.8235   -3.6245   -1.7860 C   0  0  0  0  0  0  0  0  0  0  0  0
    6.7853   -6.0667   -1.9910 C   0  0  0  0  0  0  0  0  0  0  0  0
    6.1710   -7.2908   -1.7088 C   0  0  0  0  0  0  0  0  0  0  0  0
    4.1400    0.6553   -3.2807 C   0  0  0  0  0  0  0  0  0  0  0  0
    4.6280   -1.6503   -3.6871 C   0  0  0  0  0  0  0  0  0  0  0  0
    4.4450    0.8479   -4.5986 C   0  0  0  0  0  0  0  0  0  0  0  0
    5.2203   -1.3578   -4.9091 C   0  0  0  0  0  0  0  0  0  0  0  0
    7.1620    2.1871   -5.7762 C   0  0  0  0  0  0  0  0  0  0  0  0
    6.3045    3.0380   -4.8626 C   0  0  0  0  0  0  0  0  0  0  0  0
    4.4438   -3.7374   -0.3307 C   0  0  0  0  0  0  0  0  0  0  0  0
    4.1945   -1.2619   -0.3968 C   0  0  0  0  0  0  0  0  0  0  0  0
    4.3979   -6.1365   -0.5572 C   0  0  0  0  0  0  0  0  0  0  0  0
    5.0599    2.6378   -6.8885 C   0  0  0  0  0  0  0  0  0  0  0  0
    5.0220   -2.5002   -0.6150 C   0  0  0  0  0  0  0  0  0  0  0  0
    6.2272   -4.8673   -1.5310 C   0  0  0  0  0  0  0  0  0  0  0  0
    4.0995   -0.6433   -2.8603 C   0  0  0  0  0  0  0  0  0  0  0  0
    4.9690   -7.3420   -0.9904 C   0  0  0  0  0  0  0  0  0  0  0  0
    5.0247   -4.9141   -0.7963 C   0  0  0  0  0  0  0  0  0  0  0  0
    5.1530   -0.0611   -5.3688 C   0  0  0  0  0  0  0  0  0  0  0  0
    6.1847    1.6044   -6.8020 C   0  0  0  0  0  0  0  0  0  0  0  0
    3.3131   -0.9214   -1.6117 C   0  0  0  0  0  0  0  0  0  0  0  0
    4.3191   -8.6640   -0.6625 C   0  0  0  0  0  0  0  0  0  0  0  0
    2.2059   -1.9484   -1.9171 C   0  0  0  0  0  0  0  0  0  0  0  0
    4.1245   -8.8052    0.7579 N   0  0  0  0  0  0  0  0  0  0  0  0
    3.0051   -8.7734   -1.2286 N   0  0  0  0  0  0  0  0  0  0  0  0
    5.2094    3.5488   -5.7136 N   0  0  0  0  0  0  0  0  0  0  0  0
    2.4347   -3.0716   -2.3272 O   0  0  0  0  0  0  0  0  0  0  0  0
    0.9103   -1.5932   -1.7418 O   0  0  0  0  0  0  0  0  0  0  0  0
    5.7583    0.2458   -6.5493 O   0  0  0  0  0  0  0  0  0  0  0  0
  2  1  1  0
  4  3  2  0
  6  5  1  0
  9  7  2  0
 10  8  1  0
 12 11  1  0
 17  3  1  0
 17 13  2  0
 17 14  1  0
 18  4  1  0
 18  5  2  0
 19  7  1  0
 19  8  2  0
 20  6  2  0
 20 15  1  0
 21 13  1  0
 21 15  2  0
 21 18  1  0
 22  9  1  0
 22 10  2  0
 23 11  1  0
 23 16  1  0
 24 14  1  0
 24 19  1  0
 25 20  1  0
 26 24  1  0
 27 25  1  0
 28 25  1  0
 29 12  1  0
 29 16  1  0
 30 26  2  0
 31  2  1  0
 31 26  1  0
 32 22  1  0
 32 23  1  0
M  END
>  <DRUGBANK_ID>  (1) 
DB07639

>  <COMMON_NAME>  (1) 
3-(7-DIAMINOMETHYL-NAPHTHALEN-2-YL)-PROPIONIC ACID ETHYL ESTER

$$$$
