
     RDKit          3D

 17 17  0  0  0  0  0  0  0  0999 V2000
   -4.3064    5.1493    2.5271 N   0  0  0  0  0  0  0  0  0  0  0  0
   -3.7780    7.2426    1.4946 N   0  0  0  0  0  0  0  0  0  0  0  0
   -3.6330    5.2673    0.3065 N   0  0  0  0  0  0  0  0  0  0  0  0
   -3.5439    6.5853    0.3832 C   0  0  0  0  0  0  0  0  0  0  0  0
   -4.0517    4.5840    1.3676 C   0  0  0  0  0  0  0  0  0  0  0  0
   -4.2748    3.2315    1.2559 N   0  0  0  0  0  0  0  0  0  0  0  0
   -2.2937    2.3731    0.0365 C   0  0  0  0  0  0  0  0  0  0  0  0
   -1.7516    1.2003   -0.7788 C   0  0  0  0  0  0  0  0  0  0  0  0
   -4.4092    3.0342   -1.2111 C   0  0  0  0  0  0  0  0  0  0  0  0
   -4.1327    6.4666    2.5083 C   0  0  0  0  0  0  0  0  0  0  0  0
   -4.3628    7.2840    3.9918 Cl  0  0  0  0  0  0  0  0  0  0  0  0
   -3.1932    7.2483   -0.7653 N   0  0  0  0  0  0  0  0  0  0  0  0
   -3.0687    8.6861   -0.8189 C   0  0  0  0  0  0  0  0  0  0  0  0
   -1.6589    9.0737   -1.2317 C   0  0  0  0  0  0  0  0  0  0  0  0
   -3.8456    2.4361    0.0945 C   0  0  2  0  0  0  0  0  0  0  0  0
   -4.3984    1.0500    0.1988 C   0  0  0  0  0  0  0  0  0  0  0  0
   -4.7814   -0.0530    0.2203 N   0  0  0  0  0  0  0  0  0  0  0  0
  1  5  2  0
  1 10  1  0
  2 10  2  0
  3  4  2  0
  4  2  1  0
  4 12  1  0
  5  3  1  0
  5  6  1  0
  7  8  1  0
 10 11  1  0
 12 13  1  0
 13 14  1  0
 15  9  1  6
 15 16  1  0
 15  7  1  0
 15  6  1  0
 16 17  3  0
M  END
>  <DRUGBANK_ID>  (1) 
DB07551

>  <COMMON_NAME>  (1) 
(2S)-2-{[4-chloro-6-(ethylamino)-1,3,5-triazin-2-yl]amino}-2-methylbutanenitrile

$$$$
