
     RDKit          3D

 38 41  0  0  1  0  0  0  0  0999 V2000
    3.0326    0.0444   -0.3309 C   0  0  0  0  0  0  0  0  0  0  0  0
    1.5569    0.2358   -0.6250 C   0  0  2  0  0  0  0  0  0  0  0  0
    1.0610    1.2750    0.2211 O   0  0  0  0  0  0  0  0  0  0  0  0
   -0.3073    1.6063   -0.0784 C   0  0  2  0  0  0  0  0  0  0  0  0
   -0.6257    2.7039    0.7351 O   0  0  0  0  0  0  0  0  0  0  0  0
   -2.0441    2.8740    1.5259 P   0  0  2  0  0  0  0  0  0  0  0  0
   -2.2013    3.6590    0.1381 O   0  0  0  0  0  0  0  0  0  0  0  0
   -1.4190    1.8776    2.4663 O   0  0  0  0  0  0  0  0  0  0  0  0
   -3.2508    1.8663    1.1569 O   0  0  0  0  0  0  0  0  0  0  0  0
   -4.2921    1.4118    2.2745 P   0  0  1  0  0  0  0  0  0  0  0  0
   -3.5509    2.2007    3.4680 O   0  0  0  0  0  0  0  0  0  0  0  0
   -5.6939    1.6169    1.8291 O   0  0  0  0  0  0  0  0  0  0  0  0
   -4.5863    0.1795    3.2612 O   0  0  0  0  0  0  0  0  0  0  0  0
   -5.9947    0.4684    3.8370 C   0  0  0  0  0  0  0  0  0  0  0  0
   -6.3706    2.0318    4.2963 C   0  0  1  0  0  0  0  0  0  0  0  0
   -5.5267    3.1313    3.7816 O   0  0  0  0  0  0  0  0  0  0  0  0
   -6.1753    3.9413    2.7317 C   0  0  2  0  0  0  0  0  0  0  0  0
   -7.5881    3.3970    2.6437 C   0  0  2  0  0  0  0  0  0  0  0  0
   -8.5000    4.4825    2.4943 O   0  0  0  0  0  0  0  0  0  0  0  0
   -7.7737    2.5732    3.9361 C   0  0  2  0  0  0  0  0  0  0  0  0
   -8.2127    3.4852    4.9685 O   0  0  0  0  0  0  0  0  0  0  0  0
   -5.5098    4.0848    1.3736 N   0  0  0  0  0  0  0  0  0  0  0  0
   -5.6693    3.3069    0.2130 C   0  0  0  0  0  0  0  0  0  0  0  0
   -4.9792    3.7020   -0.8239 N   0  0  0  0  0  0  0  0  0  0  0  0
   -4.5116    4.8863   -0.4178 C   0  0  0  0  0  0  0  0  0  0  0  0
   -4.8007    5.1737    0.9017 C   0  0  0  0  0  0  0  0  0  0  0  0
   -4.4463    6.2983    1.5714 N   0  0  0  0  0  0  0  0  0  0  0  0
   -3.7608    7.1387    0.8363 C   0  0  0  0  0  0  0  0  0  0  0  0
   -3.3797    8.3385    1.3319 N   0  0  0  0  0  0  0  0  0  0  0  0
   -3.3599    6.8988   -0.4608 N   0  0  0  0  0  0  0  0  0  0  0  0
   -3.6427    5.7481   -1.1875 C   0  0  0  0  0  0  0  0  0  0  0  0
   -3.1128    5.4899   -2.2236 O   0  0  0  0  0  0  0  0  0  0  0  0
   -1.2096    0.3507    0.0779 C   0  0  1  0  0  0  0  0  0  0  0  0
   -2.5530    0.4613   -0.3913 O   0  0  0  0  0  0  0  0  0  0  0  0
   -0.6811   -0.8274   -0.7051 C   0  0  2  0  0  0  0  0  0  0  0  0
   -1.4523   -1.9995   -0.3918 O   0  0  0  0  0  0  0  0  0  0  0  0
    0.7792   -1.0645   -0.3820 C   0  0  2  0  0  0  0  0  0  0  0  0
    0.9097   -1.5143    0.9791 O   0  0  0  0  0  0  0  0  0  0  0  0
  2  1  1  1
  2  3  1  0
  4  3  1  0
  4  5  1  1
  5  6  1  0
  6  7  1  6
  6  8  2  0
  6  9  1  0
  9 10  1  0
 10 11  1  1
 10 12  2  0
 10 13  1  0
 13 14  1  0
 15 14  1  6
 15 16  1  0
 17 16  1  0
 17 22  1  6
 18 17  1  0
 18 19  1  1
 18 20  1  0
 20 15  1  0
 20 21  1  1
 22 23  1  0
 22 26  1  0
 23 24  2  0
 24 25  1  0
 25 26  2  0
 25 31  1  0
 26 27  1  0
 27 28  2  0
 28 29  1  0
 28 30  1  0
 30 31  1  0
 31 32  2  0
 33  4  1  0
 33 34  1  6
 33 35  1  0
 35 36  1  1
 35 37  1  0
 37  2  1  0
 37 38  1  1
M  END
>  <DRUGBANK_ID>  (1) 
DB18689

>  <COMMON_NAME>  (1) 
GDP-L-fucose

>  <CAS_NUMBER>  (1) 
15839-70-0

>  <UNII>  (1) 
SM108QK2IH

>  <SYNONYMS>  (1) 
Gdp-.beta.-l-fucose; Gdp-fucose; Guanosine 5'-(trihydrogen pyrophosphate), mono(6-deoxy-l-galactopyranosyl) ester; Guanosine 5'-diphospho-.beta.-l-fucose; Guanosine 5'-pyrophosphate, .beta.-l-fucopyranosyl ester; Guanosine pyrophosphate, l-fucosyl ester

$$$$
