
     RDKit          3D

 13 13  0  0  0  0  0  0  0  0999 V2000
    1.0366    0.0263   -0.0893 Au  0  0  0  0  0  1  0  0  0  0  0  0
    3.4466    0.0263   -0.0893 S   0  0  0  0  0  0  0  0  0  0  0  0
    5.4286   -0.9076   -1.2980 O   0  0  0  0  0  0  0  0  0  0  0  0
    2.4486   -2.9064   -0.5950 O   0  0  0  0  0  0  0  0  0  0  0  0
    4.3996   -4.1128    1.0857 O   0  0  0  0  0  0  0  0  0  0  0  0
    6.5176   -2.2970    1.9160 O   0  0  0  0  0  0  0  0  0  0  0  0
    7.5875    0.7914   -0.7089 O   0  0  0  0  0  0  0  0  0  0  0  0
    3.8430   -2.6264   -0.6916 C   0  0  2  0  0  0  0  0  0  0  0  0
    4.4868   -2.7573    0.6662 C   0  0  2  0  0  0  0  0  0  0  0  0
    4.0499   -1.2375   -1.2360 C   0  0  1  0  0  0  0  0  0  0  0  0
    5.9135   -2.2651    0.6272 C   0  0  1  0  0  0  0  0  0  0  0  0
    6.0219   -0.8863   -0.0018 C   0  0  1  0  0  0  0  0  0  0  0  0
    7.4864   -0.4972   -0.1210 C   0  0  0  0  0  0  0  0  0  0  0  0
  1  2  1  0
  3 10  1  0
  3 12  1  0
  7 13  1  0
  8  4  1  1
  8  9  1  0
  8 10  1  0
  9  5  1  6
  9 11  1  0
 10  2  1  1
 11  6  1  1
 11 12  1  0
 12 13  1  6
M  END
>  <DRUGBANK_ID>  (1) 
DB09121

>  <COMMON_NAME>  (1) 
Aurothioglucose

>  <CAS_NUMBER>  (1) 
12192-57-3

>  <UNII>  (1) 
2P2V9Q0E78

>  <SYNONYMS>  (1) 
Auromyose; Aurothioglucose; Gold thioglucose

$$$$
