1392
     RDKit          3D

 26 30  0  0  1  0  0  0  0  0999 V2000
   -0.1004   -0.3742   -0.2901 O   0  0  0  0  0  0  0  0  0  0  0  0
    0.8335    0.3481   -3.7399 O   0  0  0  0  0  0  0  0  0  0  0  0
   -0.6918    0.7483   -2.2987 O   0  0  0  0  0  0  0  0  0  0  0  0
   -2.2354   -1.9308   -1.2771 N   0  0  0  0  0  0  0  0  0  0  0  0
   -3.0989   -5.2663   -2.9229 N   0  0  0  0  0  0  0  0  0  0  0  0
   -0.4470   -3.0350   -0.5598 C   0  0  1  0  0  0  0  0  0  0  0  0
   -0.7467   -2.4594    0.8287 C   0  0  2  0  0  0  0  0  0  0  0  0
   -0.8319   -4.2858   -1.2270 C   0  0  0  0  0  0  0  0  0  0  0  0
   -1.7292   -3.3654   -2.0719 C   0  0  1  0  0  0  0  0  0  0  0  0
    0.2978   -1.7525   -1.8880 C   0  0  2  0  0  0  0  0  0  0  0  0
   -2.0140   -1.5676    0.2912 C   0  0  0  0  0  0  0  0  0  0  0  0
    0.7595   -2.3922    1.1712 C   0  0  0  0  0  0  0  0  0  0  0  0
    1.0430   -1.0393   -0.8209 C   0  0  2  0  0  0  0  0  0  0  0  0
    1.6391   -2.1903   -0.0589 C   0  0  0  0  0  0  0  0  0  0  0  0
   -2.9257   -3.9639   -2.5846 C   0  0  0  0  0  0  0  0  0  0  0  0
   -2.8637   -1.0751   -2.2298 C   0  0  0  0  0  0  0  0  0  0  0  0
   -4.0294   -3.2111   -2.8732 C   0  0  0  0  0  0  0  0  0  0  0  0
   -4.1785   -1.7373   -2.5780 C   0  0  0  0  0  0  0  0  0  0  0  0
    0.0934   -0.1675   -2.7488 C   0  0  0  0  0  0  0  0  0  0  0  0
   -4.9330   -4.1039   -3.4387 C   0  0  0  0  0  0  0  0  0  0  0  0
   -4.3474   -5.3750   -3.4729 C   0  0  0  0  0  0  0  0  0  0  0  0
   -6.2162   -3.9007   -3.9241 C   0  0  0  0  0  0  0  0  0  0  0  0
   -4.9985   -6.4841   -3.9911 C   0  0  0  0  0  0  0  0  0  0  0  0
   -6.8810   -4.9919   -4.4542 C   0  0  0  0  0  0  0  0  0  0  0  0
   -6.2829   -6.2557   -4.4873 C   0  0  0  0  0  0  0  0  0  0  0  0
    1.9231    0.2286   -4.7046 C   0  0  0  0  0  0  0  0  0  0  0  0
  2 19  1  0
  2 26  1  0
  3 19  2  0
  4  9  1  0
  4 11  1  0
  4 16  1  0
  5 15  1  0
  5 21  1  0
  6  7  1  0
  6  8  1  6
  6 10  1  0
  7 11  1  6
  7 12  1  0
  9  8  1  1
  9 15  1  0
 10 13  1  0
 10 19  1  1
 12 14  1  0
 13 14  1  0
 13  1  1  1
 15 17  2  0
 16 18  1  0
 17 18  1  0
 17 20  1  0
 20 21  2  0
 20 22  1  0
 21 23  1  0
 22 24  2  0
 23 25  2  0
 24 25  1  0
M  END
>  <DRUGBANK_ID>  (1) 
DB01392

>  <COMMON_NAME>  (1) 
Yohimbine

>  <CAS_NUMBER>  (1) 
146-48-5

>  <UNII>  (1) 
2Y49VWD90Q

>  <SYNONYMS>  (1) 
(+)-yohimbine; (16α,17α)-17-hydroxyyohimban-16-carboxylic acid methyl ester; 17α-hydroxyyohimban-16α-carboxylic acid methyl ester; Johimbin; Quebrachin; Yohimbic acid methyl ester; Yohimbin; Yohimbine; Yohimbinum

$$$$
