
     RDKit          3D

 31 34  0  0  0  0  0  0  0  0999 V2000
    0.9854    0.1101   -0.0297 C   0  0  0  0  0  0  0  0  0  0  0  0
    0.6305   11.6653    4.9944 C   0  0  0  0  0  0  0  0  0  0  0  0
    1.7571   10.6726    5.0327 C   0  0  0  0  0  0  0  0  0  0  0  0
    2.2755    2.6526    1.9956 C   0  0  0  0  0  0  0  0  0  0  0  0
    2.7204    3.9677    2.1333 C   0  0  0  0  0  0  0  0  0  0  0  0
    0.6861   12.1973   -2.6726 C   0  0  0  0  0  0  0  0  0  0  0  0
    1.2462   11.1421   -1.7374 C   0  0  0  0  0  0  0  0  0  0  0  0
   -0.2861    9.5131    3.7134 C   0  0  0  0  0  0  0  0  0  0  0  0
    0.0925    3.4715    1.3224 C   0  0  0  0  0  0  0  0  0  0  0  0
    0.5235   13.0239   -0.4538 C   0  0  0  0  0  0  0  0  0  0  0  0
    0.3257   10.1809    4.9298 C   0  0  0  0  0  0  0  0  0  0  0  0
    0.7800   13.4833   -1.8714 C   0  0  1  0  0  0  0  0  0  0  0  0
    0.9626    2.4121    1.5832 C   0  0  0  0  0  0  0  0  0  0  0  0
    1.8578    5.0492    1.8829 C   0  0  0  0  0  0  0  0  0  0  0  0
    0.5651    9.4909    2.4137 C   0  0  1  0  0  0  0  0  0  0  0  0
    0.5497    4.7775    1.4650 C   0  0  0  0  0  0  0  0  0  0  0  0
    0.8235   10.9436    1.9354 C   0  0  1  0  0  0  0  0  0  0  0  0
    2.3583    6.4482    2.0946 C   0  0  2  0  0  0  0  0  0  0  0  0
    1.8279    8.6094    2.5974 C   0  0  1  0  0  0  0  0  0  0  0  0
    1.6457   11.1368    0.6564 C   0  0  0  0  0  0  0  0  0  0  0  0
    2.0330   13.9948   -1.9628 F   0  0  0  0  0  0  0  0  0  0  0  0
   -0.3016    5.7798    1.1986 F   0  0  0  0  0  0  0  0  0  0  0  0
   -0.5085   11.6153    1.8557 N   0  0  0  0  0  0  0  0  0  0  0  0
    1.5039    7.2307    2.9646 N   0  0  0  0  0  0  0  0  0  0  0  0
    2.4764    7.2087    0.8722 N   0  0  0  0  0  0  0  0  0  0  0  0
    0.9294   11.6197   -0.4160 N   0  0  0  0  0  0  0  0  0  0  0  0
    2.8531   10.8995    0.6008 O   0  0  0  0  0  0  0  0  0  0  0  0
   -1.0834    0.8059    1.4009 O   0  0  0  0  0  0  0  0  0  0  0  0
    0.9966    0.0127    2.5857 O   0  0  0  0  0  0  0  0  0  0  0  0
    2.5952    8.5638    1.3967 O   0  0  0  0  0  0  0  0  0  0  0  0
    0.3614    0.7426    1.5042 S   0  0  0  0  0  0  0  0  0  0  0  0
  3  2  1  0
  5  4  2  0
  7  6  1  0
 11  2  1  0
 11  3  1  0
 11  8  1  0
 12  6  1  0
 12 10  1  0
 12 21  1  1
 13  4  1  0
 13  9  2  0
 14  5  1  0
 15  8  1  1
 15 17  1  0
 15 19  1  0
 16  9  1  0
 16 14  2  0
 17 20  1  0
 17 23  1  6
 18 14  1  6
 18 24  1  0
 18 25  1  0
 22 16  1  0
 19 24  1  6
 26  7  1  0
 26 10  1  0
 26 20  1  0
 27 20  2  0
 30 19  1  0
 30 25  1  0
 31  1  1  0
 31 13  1  0
 31 28  2  0
 31 29  2  0
M  END
>  <DRUGBANK_ID>  (1) 
DB06993

>  <COMMON_NAME>  (1) 
(2S,3S)-4-cyclopropyl-3-{(3R,5R)-3-[2-fluoro-4-(methylsulfonyl)phenyl]-1,2,4-oxadiazolidin-5-yl}-1-[(3S)-3-fluoropyrrolidin-1-yl]-1-oxobutan-2-amine

$$$$
