L35
     RDKit          3D

 25 26  0  0  0  0  0  0  0  0999 V2000
    0.0670   -2.1944    0.0027 C   0  0  0  0  0  0  0  0  0  0  0  0
    1.2203   -1.3939    0.0077 C   0  0  0  0  0  0  0  0  0  0  0  0
    1.1734   -0.0030    0.0028 C   0  0  0  0  0  0  0  0  0  0  0  0
   -0.0410    0.6508   -0.0026 C   0  0  0  0  0  0  0  0  0  0  0  0
   -1.2054   -0.1151   -0.0028 C   0  0  0  0  0  0  0  0  0  0  0  0
   -1.1655   -1.5268   -0.0009 C   0  0  0  0  0  0  0  0  0  0  0  0
    1.3301   -4.3407   -0.0119 C   0  0  0  0  0  0  0  0  0  0  0  0
    4.8273   -8.0371    0.1912 C   0  0  0  0  0  0  0  0  0  0  0  0
    4.6127   -6.8905    0.9473 C   0  0  0  0  0  0  0  0  0  0  0  0
    3.4502   -6.1418    0.8580 C   0  0  0  0  0  0  0  0  0  0  0  0
    2.4213   -6.5131    0.0049 C   0  0  0  0  0  0  0  0  0  0  0  0
    2.6004   -7.6650   -0.7670 C   0  0  0  0  0  0  0  0  0  0  0  0
    3.7890   -8.4360   -0.6578 C   0  0  0  0  0  0  0  0  0  0  0  0
    7.1057   -8.3279    1.0157 C   0  0  0  0  0  0  0  0  0  0  0  0
    7.6370   -6.9433    0.5735 C   0  0  0  0  0  0  0  0  0  0  0  0
    6.7731   -8.4352    2.5199 C   0  0  0  0  0  0  0  0  0  0  0  0
    8.3329   -9.2641    0.8379 C   0  0  0  0  0  0  0  0  0  0  0  0
    0.1359   -3.6324   -0.0019 N   0  0  0  0  0  0  0  0  0  0  0  0
    1.2330   -5.7242   -0.0360 N   0  0  0  0  0  0  0  0  0  0  0  0
    2.4377   -3.7997   -0.0223 O   0  0  0  0  0  0  0  0  0  0  0  0
    5.9898   -8.7798    0.2020 O   0  0  0  0  0  0  0  0  0  0  0  0
    8.1714  -10.2846   -0.0312 O   0  0  0  0  0  0  0  0  0  0  0  0
    9.3963   -9.1062    1.4389 O   0  0  0  0  0  0  0  0  0  0  0  0
   -2.7209    0.7075   -0.0034 Cl  0  0  0  0  0  0  0  0  0  0  0  0
    2.6500    0.8824    0.0041 Cl  0  0  0  0  0  0  0  0  0  0  0  0
  1  2  2  0
  1  6  1  0
  1 18  1  0
  2  3  1  0
  3  4  2  0
  3 25  1  0
  4  5  1  0
  5  6  2  0
  5 24  1  0
  7 18  1  0
  7 19  1  0
  7 20  2  0
  8  9  2  0
  8 13  1  0
  8 21  1  0
  9 10  1  0
 10 11  2  0
 11 12  1  0
 11 19  1  0
 12 13  2  0
 14 15  1  0
 14 16  1  0
 14 17  1  0
 14 21  1  0
 17 22  1  0
 17 23  2  0
M  END
>  <DRUGBANK_ID>  (1) 
DB08077

>  <COMMON_NAME>  (1) 
2-[4-({[(3,5-DICHLOROPHENYL)AMINO]CARBONYL}AMINO)PHENOXY]-2-METHYLPROPANOIC ACID

>  <UNII>  (1) 
PS3UC84IQA

$$$$
