
     RDKit          3D

 36 39  0  0  0  0  0  0  0  0999 V2000
    1.2448    1.8376    0.9215 C   0  0  0  0  0  0  0  0  0  0  0  0
   -0.7605    1.5860    0.5646 C   0  0  0  0  0  0  0  0  0  0  0  0
   -1.5253    0.0399   -0.2187 N   0  0  0  0  0  0  0  0  0  0  0  0
   -0.7437   -1.2791    0.2077 C   0  0  0  0  0  0  0  0  0  0  0  0
    1.2756   -1.2339   -0.0172 C   0  0  0  0  0  0  0  0  0  0  0  0
    2.0255    0.1051    1.0676 O   0  0  0  0  0  0  0  0  0  0  0  0
   -1.7971   -0.2301   -1.8083 C   0  0  0  0  0  0  0  0  0  0  0  0
   -0.6217   -0.5543   -2.9350 C   0  0  0  0  0  0  0  0  0  0  0  0
    0.3570   -1.7884   -2.5978 C   0  0  0  0  0  0  0  0  0  0  0  0
   -0.3634   -3.0365   -2.4829 N   0  0  0  0  0  0  0  0  0  0  0  0
    0.6151   -4.2743   -1.7101 S   0  0  0  0  0  0  0  0  0  0  0  0
    0.6586   -4.1788    0.1898 C   0  0  0  0  0  0  0  0  0  0  0  0
    1.0715    1.4752    7.6086 C   0  0  0  0  0  0  0  0  0  0  0  0
    1.0619    0.2260    7.3549 C   0  0  0  0  0  0  0  0  0  0  0  0
    0.9930   -0.1650    5.8733 C   0  0  0  0  0  0  0  0  0  0  0  0
    1.0937    0.2339    7.9669 C   0  0  0  0  0  0  0  0  0  0  0  0
    1.0574   -1.5629    7.0901 C   0  0  0  0  0  0  0  0  0  0  0  0
    0.9940   -1.4398    5.7885 C   0  0  0  0  0  0  0  0  0  0  0  0
    1.0017   -4.1745    5.7455 N   0  0  0  0  0  0  0  0  0  0  0  0
    1.0625   -3.4003    7.0820 C   0  0  0  0  0  0  0  0  0  0  0  0
    0.9509   -3.5533    4.5654 C   0  0  0  0  0  0  0  0  0  0  0  0
    0.9429   -2.2225    4.6106 C   0  0  0  0  0  0  0  0  0  0  0  0
    0.8736   -1.6630    3.2664 C   0  0  0  0  0  0  0  0  0  0  0  0
    0.8908   -4.1071    3.1966 C   0  0  0  0  0  0  0  0  0  0  0  0
    0.8374   -2.9900    2.4992 C   0  0  0  0  0  0  0  0  0  0  0  0
    0.6804   -3.1643    1.1425 C   0  0  0  0  0  0  0  0  0  0  0  0
    0.7528   -5.3191    0.9033 C   0  0  0  0  0  0  0  0  0  0  0  0
    0.8462   -5.2732    2.3791 C   0  0  0  0  0  0  0  0  0  0  0  0
    1.1081   -4.1993    8.0147 O   0  0  0  0  0  0  0  0  0  0  0  0
   -0.1481   -5.4519   -2.0531 O   0  0  0  0  0  0  0  0  0  0  0  0
    1.9764   -4.0719   -2.1699 O   0  0  0  0  0  0  0  0  0  0  0  0
    0.8170    0.5989   -0.5501 C   0  0  0  0  0  0  0  0  0  0  0  0
    0.5355    1.5189   -1.8932 S   0  0  0  0  0  0  0  0  0  0  0  0
    1.4153    0.8129   -2.8051 O   0  0  0  0  0  0  0  0  0  0  0  0
   -0.8373    1.9172   -2.0237 O   0  0  0  0  0  0  0  0  0  0  0  0
    1.1588    2.9297   -1.8308 O   0  0  0  0  0  0  0  0  0  0  0  0
  1  2  1  0
  1  6  1  0
  2  3  1  0
  3  4  1  0
  3  7  1  0
  4  5  1  0
  5  6  1  0
  7  8  1  0
  8  9  1  0
  9 10  1  0
 10 11  1  0
 11 12  1  0
 11 30  2  0
 11 31  2  0
 12 27  1  0
 13 14  2  0
 14 15  1  0
 15 18  2  0
 16 13  1  0
 17 16  2  0
 17 18  1  0
 17 20  1  0
 18 22  1  0
 19 20  1  0
 20 29  2  0
 21 19  1  0
 21 22  2  0
 22 23  1  0
 23 25  1  0
 24 21  1  0
 24 25  2  0
 25 26  1  0
 26 12  2  0
 27 28  2  0
 28 24  1  0
 32 33  1  0
 33 34  2  0
 33 35  2  0
 33 36  1  0
M  END
>  <DRUGBANK_ID>  (1) 
DB05549

>  <COMMON_NAME>  (1) 
INO-1001

>  <CAS_NUMBER>  (1) 
501364-91-6

>  <UNII>  (1) 
55E08EN074

>  <SYNONYMS>  (1) 
(9-(N-(3-Morpholinopropyl)-sulfonyl)-5,6-dihydro-5-oxo-11-H-indeno (1,2-C) isoquinoline methanesulfonic acid

$$$$
