IPL
     RDKit          3D

 17 18  0  0  0  0  0  0  0  0999 V2000
   -1.3565    1.1153    0.1170 N   0  0  0  0  0  0  0  0  0  0  0  0
   -2.1471    0.0263    0.2740 C   0  0  0  0  0  0  0  0  0  0  0  0
   -1.4001   -1.1546    0.2457 C   0  0  0  0  0  0  0  0  0  0  0  0
    1.1447   -1.3872    0.0381 C   0  0  0  0  0  0  0  0  0  0  0  0
    2.3152   -0.6455   -0.0306 C   0  0  0  0  0  0  0  0  0  0  0  0
    2.2824    0.7510   -0.0423 C   0  0  0  0  0  0  0  0  0  0  0  0
    1.0860    1.4608   -0.0021 C   0  0  0  0  0  0  0  0  0  0  0  0
   -0.0653    0.6988    0.0817 C   0  0  0  0  0  0  0  0  0  0  0  0
   -0.0658   -0.6984    0.1272 C   0  0  0  0  0  0  0  0  0  0  0  0
   -4.2352   -2.1802    0.9160 C   0  0  0  0  0  0  0  0  0  0  0  0
   -2.9380   -2.9457    1.2118 C   0  0  0  0  0  0  0  0  0  0  0  0
   -1.8250   -2.6366    0.2155 C   0  0  0  0  0  0  0  0  0  0  0  0
   -4.6533   -1.7155   -1.7916 P   0  0  0  0  0  0  0  0  0  0  0  0
   -3.4009   -1.0832   -1.4644 O   0  0  0  0  0  0  0  0  0  0  0  0
   -5.3923   -3.0434   -2.3639 O   0  0  0  0  0  0  0  0  0  0  0  0
   -3.6514   -2.2827   -2.9770 O   0  0  0  0  0  0  0  0  0  0  0  0
   -4.7798   -2.5751   -0.3697 O   0  0  0  0  0  0  0  0  0  0  0  0
  1  2  1  0
  1  8  1  0
  2  3  2  0
  3  9  1  0
  3 12  1  0
  4  5  1  0
  4  9  2  0
  5  6  2  0
  6  7  1  0
  7  8  2  0
  8  9  1  0
 10 11  1  0
 10 17  1  0
 11 12  1  0
 13 14  2  0
 13 15  1  0
 13 16  1  0
 13 17  1  0
M  END
>  <DRUGBANK_ID>  (1) 
DB03171

>  <SECONDARY_ACCESSION_NUMBERS>  (1) 
EXPT01918

>  <COMMON_NAME>  (1) 
Indole-3-Propanol Phosphate

>  <UNII>  (1) 
KO9J17S3FI

$$$$
