L5G
     RDKit          3D

 29 33  0  0  0  0  0  0  0  0999 V2000
   -1.0154    1.4376    0.0763 N   0  0  0  0  0  0  0  0  0  0  0  0
    1.5735   -0.9301    0.0071 N   0  0  0  0  0  0  0  0  0  0  0  0
   -3.4097    1.3247   -0.0371 C   0  0  0  0  0  0  0  0  0  0  0  0
   -4.2912    1.1101    1.0296 C   0  0  0  0  0  0  0  0  0  0  0  0
   -5.4797    1.8382    1.1031 C   0  0  0  0  0  0  0  0  0  0  0  0
   -2.0734    0.6813   -0.0168 C   0  0  0  0  0  0  0  0  0  0  0  0
   -2.0839   -0.8130   -0.0208 C   0  0  0  0  0  0  0  0  0  0  0  0
    0.2924   -0.6389    0.0425 C   0  0  0  0  0  0  0  0  0  0  0  0
    2.3301    2.9353    3.7204 C   0  0  0  0  0  0  0  0  0  0  0  0
    4.5329    2.9955    3.2738 C   0  0  0  0  0  0  0  0  0  0  0  0
    4.2934    3.7225    5.3831 C   0  0  0  0  0  0  0  0  0  0  0  0
    3.2265    3.5298    7.8924 C   0  0  0  0  0  0  0  0  0  0  0  0
    2.4158    3.3840    6.6335 C   0  0  0  0  0  0  0  0  0  0  0  0
    6.6564    4.4751    8.9647 C   0  0  0  0  0  0  0  0  0  0  0  0
    5.2879    4.0091    9.0341 O   0  0  0  0  0  0  0  0  0  0  0  0
    4.5749    3.8391    7.8686 C   0  0  0  0  0  0  0  0  0  0  0  0
    5.0782    3.9086    6.5792 C   0  0  0  0  0  0  0  0  0  0  0  0
    2.8860    3.4830    5.1932 C   0  0  0  0  0  0  0  0  0  0  0  0
    5.0776    3.6366    4.3190 N   0  0  0  0  0  0  0  0  0  0  0  0
    3.3746    2.1936    3.3039 C   0  0  0  0  0  0  0  0  0  0  0  0
    2.1959    3.5213    2.2586 O   0  0  0  0  0  0  0  0  0  0  0  0
    1.7289    2.7335    0.8366 C   0  0  0  0  0  0  0  0  0  0  0  0
    1.4240    1.2253    0.5826 C   0  0  0  0  0  0  0  0  0  0  0  0
    0.1567    0.7361    0.2015 N   0  0  0  0  0  0  0  0  0  0  0  0
    2.2815    0.2466    0.2697 N   0  0  0  0  0  0  0  0  0  0  0  0
   -0.8906   -1.4259   -0.0166 C   0  0  0  0  0  0  0  0  0  0  0  0
   -3.7212    2.2512   -1.0350 C   0  0  0  0  0  0  0  0  0  0  0  0
   -4.8944    3.0027   -0.9348 C   0  0  0  0  0  0  0  0  0  0  0  0
   -5.7780    2.7867    0.1245 C   0  0  0  0  0  0  0  0  0  0  0  0
  1  6  2  0
  1 24  1  0
  2  8  2  0
  2 25  1  0
  3  4  2  0
  3  6  1  0
  3 27  1  0
  4  5  1  0
  5 29  2  0
  6  7  1  0
  7 26  2  0
  8 24  1  0
  8 26  1  0
  9 18  1  0
  9 20  2  0
  9 21  1  0
 10 19  2  0
 10 20  1  0
 11 17  2  0
 11 18  1  0
 11 19  1  0
 12 13  1  0
 12 16  2  0
 13 18  2  0
 14 15  1  0
 15 16  1  0
 16 17  1  0
 21 22  1  0
 22 23  1  0
 23 24  1  0
 23 25  2  0
 27 28  2  0
 28 29  1  0
M  END
>  <DRUGBANK_ID>  (1) 
DB08079

>  <SECONDARY_ACCESSION_NUMBERS>  (1) 
DB12603

>  <COMMON_NAME>  (1) 
AMG-208

>  <CAS_NUMBER>  (1) 
1002304-34-8

>  <UNII>  (1) 
Y2SR66P7VM

>  <SYNONYMS>  (1) 
7-methoxy-4-[(6-phenyl[1,2,4]triazolo[4,3-b]pyridazin-3-yl)methoxy]quinoline

$$$$
