
     RDKit          3D

 22 22  0  0  0  0  0  0  0  0999 V2000
    1.2947   -0.2101   -0.4977 C   0  0  0  0  0  0  0  0  0  0  0  0
    0.4497   -1.2876   -0.2787 C   0  0  0  0  0  0  0  0  0  0  0  0
    0.7612    1.0687   -0.6358 C   0  0  0  0  0  0  0  0  0  0  0  0
   -0.9266   -1.0287   -0.3142 C   0  0  0  0  0  0  0  0  0  0  0  0
   -0.5579    1.3247   -0.2523 C   0  0  0  0  0  0  0  0  0  0  0  0
   -1.4333    0.2537   -0.2024 C   0  0  0  0  0  0  0  0  0  0  0  0
    1.0529   -2.6533   -0.0553 C   0  0  0  0  0  0  0  0  0  0  0  0
    0.5713   -3.3747    1.2159 C   0  0  0  0  0  0  0  0  0  0  0  0
   -0.9402   -3.5970    1.2608 C   0  0  0  0  0  0  0  0  0  0  0  0
   -1.4429   -4.2564   -0.0369 C   0  0  0  0  0  0  0  0  0  0  0  0
   -1.0169    2.6634    0.2613 C   0  0  0  0  0  0  0  0  0  0  0  0
   -0.4223    3.0505    1.6526 C   0  0  0  0  0  0  0  0  0  0  0  0
    1.1246    3.2832    1.7424 C   0  0  0  0  0  0  0  0  0  0  0  0
    1.5536    4.2326    0.5798 C   0  0  0  0  0  0  0  0  0  0  0  0
    1.0120    5.5434    0.7341 O   0  0  0  0  0  0  0  0  0  0  0  0
    1.5684    3.9200    3.0941 C   0  0  0  0  0  0  0  0  0  0  0  0
    1.2357    3.1389    4.2477 O   0  0  0  0  0  0  0  0  0  0  0  0
    1.8586    2.0092    1.7920 N   0  0  0  0  0  0  0  0  0  0  0  0
   -2.9596   -6.5716    1.0619 C   0  0  0  0  0  0  0  0  0  0  0  0
   -1.4305   -6.5446    0.9976 C   0  0  0  0  0  0  0  0  0  0  0  0
   -0.9224   -5.6833   -0.1573 C   0  0  0  0  0  0  0  0  0  0  0  0
   -3.5412   -7.1735   -0.2068 C   0  0  0  0  0  0  0  0  0  0  0  0
  2  1  2  0
  3  1  1  0
  4  2  1  0
  5  3  2  0
  6  4  2  0
  6  5  1  0
  7  2  1  0
  8  7  1  0
  9  8  1  0
 10 21  1  0
 10  9  1  0
 11  5  1  0
 12 11  1  0
 13 12  1  0
 13 16  1  0
 13 18  1  0
 14 13  1  0
 15 14  1  0
 16 17  1  0
 19 22  1  0
 20 19  1  0
 21 20  1  0
M  END
>  <DRUGBANK_ID>  (1) 
DB08868

>  <COMMON_NAME>  (1) 
Fingolimod

>  <CAS_NUMBER>  (1) 
162359-55-9

>  <UNII>  (1) 
3QN8BYN5QF

>  <SYNONYMS>  (1) 
Fingolimod; Fingolimodum

$$$$
