C8C
     RDKit          3D

 19 21  0  0  0  0  0  0  0  0999 V2000
   -2.2465    1.2368   -0.1518 N   0  0  0  0  0  0  0  0  0  0  0  0
   -1.2010    0.3952   -0.0147 C   0  0  0  0  0  0  0  0  0  0  0  0
    1.1448    0.2509    0.2832 C   0  0  0  0  0  0  0  0  0  0  0  0
    0.9253   -1.1768    0.5457 C   0  0  0  0  0  0  0  0  0  0  0  0
   -0.2659   -1.6842    0.1831 C   0  0  0  0  0  0  0  0  0  0  0  0
   -0.4378   -3.1852   -0.0427 C   0  0  0  0  0  0  0  0  0  0  0  0
    0.1801   -3.7650   -1.3540 C   0  0  0  0  0  0  0  0  0  0  0  0
    1.6747   -3.5504   -1.5078 C   0  0  0  0  0  0  0  0  0  0  0  0
    2.1347   -2.2523   -1.7605 C   0  0  0  0  0  0  0  0  0  0  0  0
    3.4628   -1.8915   -1.5475 C   0  0  0  0  0  0  0  0  0  0  0  0
    4.4021   -2.9102   -1.4059 C   0  0  0  0  0  0  0  0  0  0  0  0
    5.8159   -2.9068   -1.3562 C   0  0  0  0  0  0  0  0  0  0  0  0
    6.2219   -4.2180   -1.3933 C   0  0  0  0  0  0  0  0  0  0  0  0
    5.1036   -5.0104   -1.3219 N   0  0  0  0  0  0  0  0  0  0  0  0
    3.9662   -4.2340   -1.3477 C   0  0  0  0  0  0  0  0  0  0  0  0
    2.6044   -4.5856   -1.3292 C   0  0  0  0  0  0  0  0  0  0  0  0
   -1.3732   -0.8907   -0.0210 N   0  0  0  0  0  0  0  0  0  0  0  0
    0.0179    0.9818    0.1230 N   0  0  0  0  0  0  0  0  0  0  0  0
    2.2727    0.7284    0.1455 O   0  0  0  0  0  0  0  0  0  0  0  0
  1  2  1  0
  2 17  2  0
  2 18  1  0
  3  4  1  0
  3 18  1  0
  3 19  2  0
  4  5  2  0
  5  6  1  0
  5 17  1  0
  6  7  1  0
  7  8  1  0
  8  9  2  0
  8 16  1  0
  9 10  1  0
 10 11  2  0
 11 12  1  0
 11 15  1  0
 12 13  2  0
 13 14  1  0
 14 15  1  0
 15 16  2  0
M  END
>  <DRUGBANK_ID>  (1) 
DB07535

>  <COMMON_NAME>  (1) 
2-amino-6-[2-(1H-indol-6-yl)ethyl]pyrimidin-4(3H)-one

>  <UNII>  (1) 
O6FBI5EK8D

$$$$
