1560
     RDKit          3D

 11 11  0  0  1  0  0  0  0  0999 V2000
    1.0665    0.0719   -0.1253 O   0  0  0  0  0  0  0  0  0  0  0  0
    3.8980   -0.1761    1.8397 N   0  0  0  0  0  0  0  0  0  0  0  0
    3.0788    0.7527    1.0463 C   0  0  2  0  0  0  0  0  0  0  0  0
    2.2984    0.0190   -0.0592 C   0  0  0  0  0  0  0  0  0  0  0  0
    3.0453   -0.6982   -1.1290 C   0  0  0  0  0  0  0  0  0  0  0  0
    3.9455    1.8582    0.4533 C   0  0  0  0  0  0  0  0  0  0  0  0
    2.6856   -0.5060   -2.4670 C   0  0  0  0  0  0  0  0  0  0  0  0
    4.1232   -1.5319   -0.8179 C   0  0  0  0  0  0  0  0  0  0  0  0
    3.4214   -1.1326   -3.4774 C   0  0  0  0  0  0  0  0  0  0  0  0
    4.8867   -2.1097   -1.8263 C   0  0  0  0  0  0  0  0  0  0  0  0
    4.5205   -1.9316   -3.1553 C   0  0  0  0  0  0  0  0  0  0  0  0
  1  4  2  0
  3  2  1  0
  3  4  1  0
  3  6  1  6
  4  5  1  0
  5  7  2  0
  5  8  1  0
  7  9  1  0
  8 10  2  0
  9 11  2  0
 10 11  1  0
M  END
>  <DRUGBANK_ID>  (1) 
DB01560

>  <COMMON_NAME>  (1) 
Cathinone

>  <CAS_NUMBER>  (1) 
71031-15-7

>  <UNII>  (1) 
540EI4406J

>  <SYNONYMS>  (1) 
alpha-Aminopropiophenone; Cathinone; Cathinonum; Catinona; D-Cathinone; Norephedrone

$$$$
