
     RDKit          3D

 13 13  0  0  0  0  0  0  0  0999 V2000
    0.9049   -0.0255    0.0250 N   0  0  0  0  0  0  0  0  0  0  0  0
    0.2531   -0.9355    0.8728 C   0  0  0  0  0  0  0  0  0  0  0  0
    0.7378   -1.1575    2.1586 C   0  0  0  0  0  0  0  0  0  0  0  0
   -0.0305   -1.9084    3.0643 C   0  0  0  0  0  0  0  0  0  0  0  0
   -1.2719   -2.4584    2.6866 C   0  0  0  0  0  0  0  0  0  0  0  0
   -1.7244   -2.2460    1.3872 C   0  0  0  0  0  0  0  0  0  0  0  0
   -0.9182   -1.5737    0.4745 C   0  0  0  0  0  0  0  0  0  0  0  0
   -2.0126   -3.3055    3.6654 C   0  0  0  0  0  0  0  0  0  0  0  0
   -3.1690   -3.8581    3.2475 O   0  0  0  0  0  0  0  0  0  0  0  0
   -1.5732   -3.5219    4.7893 O   0  0  0  0  0  0  0  0  0  0  0  0
    0.3010    0.9532   -0.7369 C   0  0  0  0  0  0  0  0  0  0  0  0
    0.9972    1.7671   -1.3457 O   0  0  0  0  0  0  0  0  0  0  0  0
   -1.2075    1.0769   -0.7391 C   0  0  0  0  0  0  0  0  0  0  0  0
  1  2  1  0
  2  3  2  0
  2  7  1  0
  3  4  1  0
  4  5  2  0
  5  6  1  0
  5  8  1  0
  6  7  2  0
  8  9  1  0
  8 10  2  0
 11 12  2  0
 11  1  1  0
 13 11  1  0
M  END
>  <DRUGBANK_ID>  (1) 
DB04500

>  <SECONDARY_ACCESSION_NUMBERS>  (1) 
EXPT03145

>  <COMMON_NAME>  (1) 
Acedoben

>  <CAS_NUMBER>  (1) 
556-08-1

>  <UNII>  (1) 
04Z20NMK31

>  <SYNONYMS>  (1) 
4-(Acetylamino)benzoic acid; 4-acetamidobenzoic acid; 4-Acetylaminobenzoic acid; 4-Carboxyacetanilide; Acedoben; Acedobene; Acedobenum; N-Acetyl-p-aminobenzoic acid; N-Acetyl-PABA; p-Acetamidobenzoic acid; p-Acetoaminobenzoic acid; p-Acetylaminobenzoic acid; PAAB; Para acetamido benzoic acid

$$$$
