
     RDKit          3D

 37 39  0  0  1  0  0  0  0  0999 V2000
    5.4533   -0.3408    1.1995 O   0  0  0  0  0  0  0  0  0  0  0  0
    3.9980   -3.3682    1.4523 O   0  0  0  0  0  0  0  0  0  0  0  0
    2.7923   -5.0172   -0.6122 O   0  0  0  0  0  0  0  0  0  0  0  0
    0.8238   -3.8282    6.0082 O   0  0  0  0  0  0  0  0  0  0  0  0
    6.1658   -4.4627   -0.7913 O   0  0  0  0  0  0  0  0  0  0  0  0
    2.5113   -1.6252    1.9362 N   0  0  0  0  0  0  0  0  0  0  0  0
    4.5552   -1.7431   -0.3314 N   0  0  0  0  0  0  0  0  0  0  0  0
    1.9149   -4.1118    4.0960 N   0  0  0  0  0  0  0  0  0  0  0  0
   -0.6368   -4.0883    4.0258 N   0  0  0  0  0  0  0  0  0  0  0  0
    4.9788   -6.3097   -1.1482 N   0  0  0  0  0  0  0  0  0  0  0  0
    2.9847    0.5332    2.3266 C   0  0  1  0  0  0  0  0  0  0  0  0
    1.7568    1.4347    2.6298 C   0  0  0  0  0  0  0  0  0  0  0  0
    1.9541    0.1385    3.3270 C   0  0  1  0  0  0  0  0  0  0  0  0
    3.0712   -0.5274    1.2218 C   0  0  1  0  0  0  0  0  0  0  0  0
    1.5217   -1.0626    2.8090 C   0  0  0  0  0  0  0  0  0  0  0  0
    0.7206    1.8185    1.6147 C   0  0  0  0  0  0  0  0  0  0  0  0
    1.9170    2.6273    3.4788 C   0  0  0  0  0  0  0  0  0  0  0  0
    4.4495   -0.8520    0.7061 C   0  0  0  0  0  0  0  0  0  0  0  0
    3.0259   -2.9016    2.0540 C   0  0  0  0  0  0  0  0  0  0  0  0
    2.1329   -3.9373    2.7296 C   0  0  2  0  0  0  0  0  0  0  0  0
    0.5003   -3.8081    2.0590 C   0  0  0  0  0  0  0  0  0  0  0  0
    3.5434   -2.5971   -0.9770 C   0  0  1  0  0  0  0  0  0  0  0  0
    3.4380   -2.1965   -2.4668 C   0  0  0  0  0  0  0  0  0  0  0  0
    4.7071   -2.4949   -3.2962 C   0  0  0  0  0  0  0  0  0  0  0  0
    0.1060   -4.2107    0.0018 C   0  0  0  0  0  0  0  0  0  0  0  0
    0.0485   -5.7544    2.9360 C   0  0  0  0  0  0  0  0  0  0  0  0
    0.0188   -2.5171    2.2895 C   0  0  0  0  0  0  0  0  0  0  0  0
    3.7118   -4.2180   -0.6993 C   0  0  0  0  0  0  0  0  0  0  0  0
    5.3057   -3.8613   -3.1695 C   0  0  0  0  0  0  0  0  0  0  0  0
    6.0818   -1.9315   -2.7901 C   0  0  0  0  0  0  0  0  0  0  0  0
    6.7264   -3.3120   -3.0193 C   0  0  0  0  0  0  0  0  0  0  0  0
    0.7176   -3.9947    4.7968 C   0  0  0  0  0  0  0  0  0  0  0  0
    5.0729   -4.9926   -0.7677 C   0  0  0  0  0  0  0  0  0  0  0  0
   -1.0626   -4.5250    2.1448 C   0  0  0  0  0  0  0  0  0  0  0  0
   -2.0358   -5.6079    1.8141 C   0  0  0  0  0  0  0  0  0  0  0  0
   -1.8925   -2.9634    1.4768 C   0  0  0  0  0  0  0  0  0  0  0  0
    0.8740   -5.3119    1.3345 C   0  0  0  0  0  0  0  0  0  0  0  0
  1 18  2  0
  2 19  2  0
  3 28  2  0
  4 32  2  0
  5 33  2  0
  6 14  1  0
  6 15  1  0
  6 19  1  0
  7 18  1  0
  7 22  1  0
  8 32  1  0
  9 32  1  0
  9 34  1  0
 10 33  1  0
 11 12  1  6
 11 13  1  0
 11 14  1  0
 12 13  1  0
 12 16  1  0
 12 17  1  0
 13 15  1  6
 14 18  1  1
 19 20  1  0
 20  8  1  1
 20 21  1  0
 21 25  1  0
 21 26  1  0
 21 27  1  0
 22 23  1  6
 22 28  1  0
 23 24  1  0
 24 29  1  0
 24 30  1  0
 28 33  1  0
 29 31  1  0
 30 31  1  0
 34 35  1  0
 34 36  1  0
 34 37  1  0
M  END
>  <DRUGBANK_ID>  (1) 
DB08873

>  <SECONDARY_ACCESSION_NUMBERS>  (1) 
DB05665

>  <COMMON_NAME>  (1) 
Boceprevir

>  <CAS_NUMBER>  (1) 
394730-60-0

>  <UNII>  (1) 
89BT58KELH

>  <SYNONYMS>  (1) 
Boceprevir

$$$$
