
     RDKit          3D

 34 37  0  0  1  0  0  0  0  0999 V2000
  -17.7171  -13.7487    4.6171 C   0  0  0  0  0  0  0  0  0  0  0  0
  -16.6491  -13.5621    5.5328 O   0  0  0  0  0  0  0  0  0  0  0  0
  -16.6174  -12.3883    6.2400 C   0  0  0  0  0  0  0  0  0  0  0  0
  -17.7227  -11.8496    6.9076 C   0  0  0  0  0  0  0  0  0  0  0  0
  -17.5976  -10.7243    7.7578 C   0  0  0  0  0  0  0  0  0  0  0  0
  -18.7893  -10.3715    8.3470 O   0  0  0  0  0  0  0  0  0  0  0  0
  -18.8095   -9.2843    9.2657 C   0  0  0  0  0  0  0  0  0  0  0  0
  -16.3307  -10.1333    7.9194 C   0  0  0  0  0  0  0  0  0  0  0  0
  -16.0540   -8.6763    8.8618 Cl  0  0  0  0  0  0  0  0  0  0  0  0
  -15.1948  -10.6905    7.2770 C   0  0  0  0  0  0  0  0  0  0  0  0
  -13.8664  -10.1203    7.5316 C   0  0  0  0  0  0  0  0  0  0  0  0
  -13.1501   -9.5254    6.5091 C   0  0  0  0  0  0  0  0  0  0  0  0
  -11.9291   -8.9479    6.8291 C   0  0  0  0  0  0  0  0  0  0  0  0
  -11.2286   -8.2894    5.8917 C   0  0  0  0  0  0  0  0  0  0  0  0
  -10.1192   -7.6392    6.2278 N   0  0  0  0  0  0  0  0  0  0  0  0
   -9.5374   -7.7969    7.4101 C   0  0  0  0  0  0  0  0  0  0  0  0
   -8.2423   -7.3752    7.5792 N   0  0  0  0  0  0  0  0  0  0  0  0
   -7.3573   -6.9670    6.4786 C   0  0  2  0  0  0  0  0  0  0  0  0
   -7.8881   -5.7503    5.6834 C   0  0  0  0  0  0  0  0  0  0  0  0
   -8.9567   -6.0270    4.7807 O   0  0  0  0  0  0  0  0  0  0  0  0
   -8.7762   -7.1708    3.9501 C   0  0  0  0  0  0  0  0  0  0  0  0
   -8.2353   -8.4366    4.6242 C   0  0  0  0  0  0  0  0  0  0  0  0
   -7.0089   -8.0851    5.4632 C   0  0  2  0  0  0  0  0  0  0  0  0
   -6.3757   -9.2727    6.0170 N   0  0  0  0  0  0  0  0  0  0  0  0
   -5.8685  -10.3378    5.3363 C   0  0  0  0  0  0  0  0  0  0  0  0
   -5.4374  -11.3121    5.9720 O   0  0  0  0  0  0  0  0  0  0  0  0
   -5.8891  -10.4210    3.8374 C   0  0  0  0  0  0  0  0  0  0  0  0
   -6.1189   -9.4874    2.8989 C   0  0  0  0  0  0  0  0  0  0  0  0
  -10.1516   -8.4197    8.3991 N   0  0  0  0  0  0  0  0  0  0  0  0
  -11.3561   -8.9373    8.1091 C   0  0  0  0  0  0  0  0  0  0  0  0
  -12.1020   -9.4903    9.1135 C   0  0  0  0  0  0  0  0  0  0  0  0
  -13.3309  -10.0860    8.8355 C   0  0  0  0  0  0  0  0  0  0  0  0
  -15.3587  -11.8053    6.4253 C   0  0  0  0  0  0  0  0  0  0  0  0
  -13.9924  -12.5003    5.5867 Cl  0  0  0  0  0  0  0  0  0  0  0  0
  1  2  1  0
  2  3  1  0
  3  4  2  0
  3 33  1  0
  4  5  1  0
  5  6  1  0
  5  8  2  0
  6  7  1  0
  8  9  1  0
  8 10  1  0
 10 11  1  0
 10 33  2  0
 11 12  2  0
 11 32  1  0
 12 13  1  0
 13 14  2  0
 13 30  1  0
 14 15  1  0
 15 16  2  0
 16 17  1  0
 16 29  1  0
 18 19  1  0
 18 23  1  0
 18 17  1  1
 19 20  1  0
 20 21  1  0
 21 22  1  0
 23 22  1  0
 23 24  1  1
 24 25  1  0
 25 26  2  0
 25 27  1  0
 27 28  2  0
 29 30  2  0
 30 31  1  0
 31 32  2  0
 33 34  1  0
M  END
>  <DRUGBANK_ID>  (1) 
DB16167

>  <COMMON_NAME>  (1) 
Fisogatinib

>  <CAS_NUMBER>  (1) 
1707289-21-1

>  <UNII>  (1) 
5Q7R99CKV2

>  <SYNONYMS>  (1) 
Fisogatinib

$$$$
