
     RDKit          3D

  8  7  0  0  0  0  0  0  0  0999 V2000
    0.8718   -0.0085    0.1145 C   0  0  0  0  0  0  0  0  0  0  0  0
    0.0660   -0.7169    0.9922 N   0  0  0  0  0  0  0  0  0  0  0  0
    0.1905    0.7345   -0.8061 N   0  0  0  0  0  0  0  0  0  0  0  0
    2.1021    0.0167    0.0833 O   0  0  0  0  0  0  0  0  0  0  0  0
    0.7612   -1.3738    1.8061 N   0  0  0  0  0  0  0  0  0  0  0  0
    0.0954   -2.1326    2.7463 C   0  0  0  0  0  0  0  0  0  0  0  0
   -1.2713   -2.1444    2.7610 N   0  0  0  0  0  0  0  0  0  0  0  0
    0.6715   -2.8149    3.5917 O   0  0  0  0  0  0  0  0  0  0  0  0
  1  2  1  0
  1  3  1  0
  1  4  2  0
  2  5  2  0
  5  6  1  0
  6  7  1  0
  6  8  2  0
M  END
>  <DRUGBANK_ID>  (1) 
DB16861

>  <COMMON_NAME>  (1) 
Azodicarbonamide

>  <CAS_NUMBER>  (1) 
123-77-3

>  <UNII>  (1) 
56Z28B9C8O

>  <SYNONYMS>  (1) 
1,1'-Azobis(formamide); 1,1'-Azobisformamide; Azobiscarboxamide; Azodicarboxylic acid diamide

$$$$
