
     RDKit          3D

 16 17  0  0  0  0  0  0  0  0999 V2000
    0.8670   -0.3436    0.0169 C   0  0  0  0  0  0  0  0  0  0  0  0
    0.1730   -0.3790    1.4692 C   0  0  0  0  0  0  0  0  0  0  0  0
   -0.0963    0.5661    2.8246 C   0  0  0  0  0  0  0  0  0  0  0  0
   -1.2434   -0.3320    1.0542 C   0  0  0  0  0  0  0  0  0  0  0  0
   -1.9048   -1.5455    1.2609 C   0  0  0  0  0  0  0  0  0  0  0  0
   -3.2666   -1.4904    1.5325 C   0  0  0  0  0  0  0  0  0  0  0  0
   -3.8403   -0.2321    1.6172 C   0  0  0  0  0  0  0  0  0  0  0  0
   -3.1227    0.9869    1.3732 C   0  0  0  0  0  0  0  0  0  0  0  0
   -1.7689    0.9525    0.9568 C   0  0  0  0  0  0  0  0  0  0  0  0
   -0.9684    2.1198    0.8448 O   0  0  0  0  0  0  0  0  0  0  0  0
    0.5760    2.2501    0.7921 C   0  0  0  0  0  0  0  0  0  0  0  0
    1.9671    1.7402    1.8760 C   0  0  0  0  0  0  0  0  0  0  0  0
    2.3170    2.5837    2.8377 N   0  0  0  0  0  0  0  0  0  0  0  0
    2.9390    1.7097    3.9391 C   0  0  0  0  0  0  0  0  0  0  0  0
    2.6865    0.2494    3.5823 C   0  0  0  0  0  0  0  0  0  0  0  0
    2.5572    0.4482    2.1341 N   0  0  0  0  0  0  0  0  0  0  0  0
  1  2  1  0
  2  3  1  0
  2  4  1  0
  4  5  2  0
  4  9  1  0
  5  6  1  0
  6  7  2  0
  7  8  1  0
  8  9  2  0
  9 10  1  0
 10 11  1  0
 11 12  1  0
 12 13  2  0
 12 16  1  0
 13 14  1  0
 14 15  1  0
 15 16  1  0
M  END
>  <DRUGBANK_ID>  (1) 
DB13736

>  <COMMON_NAME>  (1) 
Fenoxazoline

>  <CAS_NUMBER>  (1) 
4846-91-7

>  <UNII>  (1) 
97JJW1W1R3

>  <SYNONYMS>  (1) 
Fenoxazoline

$$$$
