
     RDKit          3D

 18 18  0  0  0  0  0  0  0  0999 V2000
    1.2150   -0.0060    0.0080 C   0  0  0  0  0  0  0  0  0  0  0  0
    1.2428   -1.4037   -0.0249 C   0  0  0  0  0  0  0  0  0  0  0  0
    0.0180   -2.0893   -0.0081 C   0  0  0  0  0  0  0  0  0  0  0  0
   -1.1914   -1.3858    0.0098 C   0  0  0  0  0  0  0  0  0  0  0  0
   -1.1966    0.0094    0.0060 C   0  0  0  0  0  0  0  0  0  0  0  0
    0.0100    0.7054    0.0074 C   0  0  0  0  0  0  0  0  0  0  0  0
   -2.4285    0.5962    0.0087 O   0  0  0  0  0  0  0  0  0  0  0  0
    0.1246    2.0705    0.0137 O   0  0  0  0  0  0  0  0  0  0  0  0
    2.3967    0.6886    0.0544 O   0  0  0  0  0  0  0  0  0  0  0  0
    2.5468   -2.1608   -0.0573 C   0  0  0  0  0  0  0  0  0  0  0  0
    3.3417   -1.8494   -1.2518 N   0  0  0  0  0  0  0  0  0  0  0  0
    4.5241   -2.6195   -1.2886 N   0  0  0  0  0  0  0  0  0  0  0  0
    4.7638   -3.4138   -2.4027 C   0  0  0  0  0  0  0  0  0  0  0  0
    6.1258   -4.1305   -2.3971 C   0  0  0  0  0  0  0  0  0  0  0  0
    3.9397   -3.5263   -3.3151 O   0  0  0  0  0  0  0  0  0  0  0  0
    5.9105   -5.5893   -2.3796 N   0  0  0  0  0  0  0  0  0  0  0  0
    6.8993   -3.7107   -3.6541 C   0  0  0  0  0  0  0  0  0  0  0  0
    7.2009   -2.3164   -3.6238 O   0  0  0  0  0  0  0  0  0  0  0  0
  1  9  1  0
  1  2  2  0
  2 10  1  0
  2  3  1  0
  3  4  2  0
  4  5  1  0
  5  6  2  0
  5  7  1  0
  6  1  1  0
  6  8  1  0
 10 11  1  0
 11 12  1  0
 12 13  1  0
 13 14  1  0
 13 15  2  0
 14 16  1  0
 14 17  1  0
 17 18  1  0
M  END
>  <DRUGBANK_ID>  (1) 
DB12783

>  <COMMON_NAME>  (1) 
Benserazide

>  <CAS_NUMBER>  (1) 
322-35-0

>  <UNII>  (1) 
762OS3ZEJU

>  <SYNONYMS>  (1) 
benserazida; Benserazide; benserazidum

$$$$
