
     RDKit          3D

 16 17  0  0  1  0  0  0  0  0999 V2000
   -4.8172   -1.9845    1.9686 C   0  0  0  0  0  0  0  0  0  0  0  0
   -5.5032   -1.6680    3.1377 C   0  0  0  0  0  0  0  0  0  0  0  0
   -5.5864   -0.3459    3.5386 C   0  0  0  0  0  0  0  0  0  0  0  0
   -4.9829    0.6670    2.7930 C   0  0  0  0  0  0  0  0  0  0  0  0
   -4.3044    0.3630    1.6204 C   0  0  0  0  0  0  0  0  0  0  0  0
   -4.2120   -0.9740    1.1969 C   0  0  0  0  0  0  0  0  0  0  0  0
   -3.3995   -1.3766   -0.0175 C   0  0  2  0  0  0  0  0  0  0  0  0
   -1.9542   -0.7935   -0.0040 C   0  0  2  0  0  0  0  0  0  0  0  0
   -1.1674   -1.4180   -1.1676 C   0  0  0  0  0  0  0  0  0  0  0  0
    0.3061   -1.0377   -1.1361 C   0  0  0  0  0  0  0  0  0  0  0  0
    0.8965   -1.2801    0.2482 C   0  0  0  0  0  0  0  0  0  0  0  0
    0.0816   -0.5730    1.3218 C   0  0  0  0  0  0  0  0  0  0  0  0
   -1.2914   -1.0501    1.2893 N   0  0  0  0  0  0  0  0  0  0  0  0
   -4.0919   -0.9893   -1.2044 O   0  0  0  0  0  0  0  0  0  0  0  0
   -5.0675    1.9473    3.2629 O   0  0  0  0  0  0  0  0  0  0  0  0
   -6.2671   -0.0452    4.6819 O   0  0  0  0  0  0  0  0  0  0  0  0
  1  2  2  0
  1  6  1  0
  2  3  1  0
  3  4  2  0
  3 16  1  0
  4  5  1  0
  4 15  1  0
  5  6  2  0
  7 14  1  6
  7  8  1  0
  7  6  1  0
  8  9  1  6
  8 13  1  0
  9 10  1  0
 10 11  1  0
 11 12  1  0
 12 13  1  0
M  END
>  <DRUGBANK_ID>  (1) 
DB13559

>  <COMMON_NAME>  (1) 
Rimiterol

>  <CAS_NUMBER>  (1) 
32953-89-2

>  <UNII>  (1) 
26GIW6ZLPH

>  <SYNONYMS>  (1) 
Rimiterol

$$$$
