1325
     RDKit          3D

 18 19  0  0  1  0  0  0  0  0999 V2000
    0.9858    0.2707   -0.1053 Cl  0  0  0  0  0  0  0  0  0  0  0  0
    2.5855   -2.7723    0.0122 S   0  0  0  0  0  0  0  0  0  0  0  0
    7.6724   -0.9348   -0.0533 O   0  0  0  0  0  0  0  0  0  0  0  0
    2.9063   -3.4311   -1.2288 O   0  0  0  0  0  0  0  0  0  0  0  0
    2.8750   -3.3763    1.2965 O   0  0  0  0  0  0  0  0  0  0  0  0
    5.5210    2.4407   -0.1483 N   0  0  0  0  0  0  0  0  0  0  0  0
    7.4532    1.2903   -0.5372 N   0  0  0  0  0  0  0  0  0  0  0  0
    0.9308   -2.5477   -0.0276 N   0  0  0  0  0  0  0  0  0  0  0  0
    6.9175    2.3920    0.2081 C   0  0  0  0  0  0  0  0  0  0  0  0
    4.8136    1.2462   -0.1625 C   0  0  0  0  0  0  0  0  0  0  0  0
    7.0598    2.2082    1.7389 C   0  0  0  0  0  0  0  0  0  0  0  0
    5.4784    0.0101   -0.0944 C   0  0  0  0  0  0  0  0  0  0  0  0
    6.9597    0.0470   -0.2112 C   0  0  0  0  0  0  0  0  0  0  0  0
    4.7773   -1.1961   -0.0154 C   0  0  0  0  0  0  0  0  0  0  0  0
    3.3680   -1.1816   -0.0179 C   0  0  0  0  0  0  0  0  0  0  0  0
    3.4252    1.2445   -0.1490 C   0  0  0  0  0  0  0  0  0  0  0  0
    2.6958    0.0447   -0.0850 C   0  0  0  0  0  0  0  0  0  0  0  0
    8.5088    2.0736    2.1771 C   0  0  0  0  0  0  0  0  0  0  0  0
  1 17  1  0
  2  4  2  0
  2  5  2  0
  2  8  1  0
  2 15  1  0
  3 13  2  0
  6  9  1  0
  6 10  1  0
  7  9  1  0
  7 13  1  0
  9 11  1  0
 10 12  2  0
 10 16  1  0
 11 18  1  0
 12 13  1  0
 12 14  1  0
 14 15  2  0
 15 17  1  0
 16 17  2  0
M  END
>  <DRUGBANK_ID>  (1) 
DB01325

>  <COMMON_NAME>  (1) 
Quinethazone

>  <CAS_NUMBER>  (1) 
73-49-4

>  <UNII>  (1) 
455E0S048W

>  <SYNONYMS>  (1) 
Chinetazone; Quinetazona; Quinethazon; Quinethazone; Quinethazonum

$$$$
