
     RDKit          3D

 19 19  0  0  0  0  0  0  0  0999 V2000
    0.4303    0.0117   -0.1814 C   0  0  0  0  0  0  0  0  0  0  0  0
   -0.4749    1.4044    1.6057 C   0  0  0  0  0  0  0  0  0  0  0  0
    2.3812   -5.0445   -1.3352 C   0  0  0  0  0  0  0  0  0  0  0  0
    3.3244   -5.9813   -0.5584 C   0  0  0  0  0  0  0  0  0  0  0  0
    3.4115   -1.3598   -1.0379 C   0  0  0  0  0  0  0  0  0  0  0  0
    0.7815   -0.6233    2.2309 C   0  0  0  0  0  0  0  0  0  0  0  0
    2.4267   -3.5959   -0.8730 C   0  0  0  0  0  0  0  0  0  0  0  0
    3.1407   -2.6156   -1.5957 C   0  0  0  0  0  0  0  0  0  0  0  0
    3.1172   -1.1079    0.3048 C   0  0  0  0  0  0  0  0  0  0  0  0
    3.0018   -6.1411    0.8943 C   0  0  0  0  0  0  0  0  0  0  0  0
    1.8552   -3.1748    0.3644 C   0  0  0  0  0  0  0  0  0  0  0  0
    2.2343   -1.9592    0.9964 C   0  0  0  0  0  0  0  0  0  0  0  0
    3.9312   -2.8877   -3.5406 I   0  0  0  0  0  0  0  0  0  0  0  0
    3.7767    0.8183    1.0942 I   0  0  0  0  0  0  0  0  0  0  0  0
    0.2122   -4.3140    1.3303 I   0  0  0  0  0  0  0  0  0  0  0  0
    1.6552   -1.5805    2.2208 N   0  0  0  0  0  0  0  0  0  0  0  0
    0.2230    0.1835    1.2465 N   0  0  0  0  0  0  0  0  0  0  0  0
    2.3317   -7.0519    1.3832 O   0  0  0  0  0  0  0  0  0  0  0  0
    3.4145   -5.0939    1.6300 O   0  0  0  0  0  0  0  0  0  0  0  0
  4  3  1  0
  7  3  1  0
  8  5  2  0
  8  7  1  0
  9  5  1  0
 10  4  1  0
 11  7  2  0
 12  9  2  0
 12 11  1  0
 13  8  1  0
 14  9  1  0
 15 11  1  0
 16  6  2  3
 16 12  1  0
 17  1  1  0
 17  2  1  0
 17  6  1  0
 18 10  2  0
 19 10  1  0
M  END
>  <DRUGBANK_ID>  (1) 
DB09333

>  <COMMON_NAME>  (1) 
Iopodic acid

>  <CAS_NUMBER>  (1) 
5587-89-3

>  <UNII>  (1) 
F604ZKI910

>  <SYNONYMS>  (1) 
Ipodate

$$$$
