LZ7
     RDKit          3D

 19 20  0  0  0  0  0  0  0  0999 V2000
    1.4797   -0.0622   -0.2702 C   0  0  0  0  0  0  0  0  0  0  0  0
    1.6214    0.4912    1.1297 C   0  0  0  0  0  0  0  0  0  0  0  0
    1.5497    1.7079    1.2953 O   0  0  0  0  0  0  0  0  0  0  0  0
    1.6951   -0.4012    2.1904 N   0  0  0  0  0  0  0  0  0  0  0  0
    2.0288   -1.7276    2.0530 C   0  0  0  0  0  0  0  0  0  0  0  0
    3.1390   -2.0009    1.3000 C   0  0  0  0  0  0  0  0  0  0  0  0
    3.3333   -3.3249    1.3836 N   0  0  0  0  0  0  0  0  0  0  0  0
    2.4060   -3.9576    2.1091 N   0  0  0  0  0  0  0  0  0  0  0  0
    1.5616   -2.9955    2.5704 C   0  0  0  0  0  0  0  0  0  0  0  0
    0.3891   -3.4481    3.4012 C   0  0  0  0  0  0  0  0  0  0  0  0
    0.2392   -4.6481    3.7134 O   0  0  0  0  0  0  0  0  0  0  0  0
   -0.5647   -2.5956    3.9307 N   0  0  0  0  0  0  0  0  0  0  0  0
   -0.8434   -1.2720    3.6097 C   0  0  0  0  0  0  0  0  0  0  0  0
   -1.0223   -0.8922    2.2821 C   0  0  0  0  0  0  0  0  0  0  0  0
   -1.0788    0.4677    1.9658 C   0  0  0  0  0  0  0  0  0  0  0  0
   -0.8025    1.4111    2.9604 C   0  0  0  0  0  0  0  0  0  0  0  0
   -0.4356    2.6552    2.6225 F   0  0  0  0  0  0  0  0  0  0  0  0
   -0.6867    1.0339    4.2897 C   0  0  0  0  0  0  0  0  0  0  0  0
   -0.8066   -0.3135    4.6303 C   0  0  0  0  0  0  0  0  0  0  0  0
  1  2  1  0
  2  3  2  0
  2  4  1  0
  4  5  1  0
  5  6  2  0
  5  9  1  0
  6  7  1  0
  7  8  1  0
  8  9  2  0
  9 10  1  0
 10 11  2  0
 10 12  1  0
 12 13  1  0
 13 14  2  0
 13 19  1  0
 14 15  1  0
 15 16  2  0
 16 17  1  0
 16 18  1  0
 18 19  2  0
M  END
>  <DRUGBANK_ID>  (1) 
DB08136

>  <COMMON_NAME>  (1) 
4-(acetylamino)-N-(4-fluorophenyl)-1H-pyrazole-3-carboxamide

>  <UNII>  (1) 
U5RM7N7H82

$$$$
