G12
     RDKit          3D

 15 16  0  0  0  0  0  0  0  0999 V2000
    0.9687    0.2321    0.0589 Br  0  0  0  0  0  0  0  0  0  0  0  0
    2.8490    0.0841    0.0950 C   0  0  0  0  0  0  0  0  0  0  0  0
    3.5827    1.3792    0.0327 C   0  0  0  0  0  0  0  0  0  0  0  0
    3.0085    2.4654   -0.0535 O   0  0  0  0  0  0  0  0  0  0  0  0
    4.9647    1.3193    0.0924 O   0  0  0  0  0  0  0  0  0  0  0  0
    3.4955   -1.0988    0.1581 C   0  0  0  0  0  0  0  0  0  0  0  0
    2.8037   -2.4382    0.1976 C   0  0  0  0  0  0  0  0  0  0  0  0
    4.9719   -1.1065    0.1270 C   0  0  0  0  0  0  0  0  0  0  0  0
    5.6694    0.1012    0.1037 C   0  0  0  0  0  0  0  0  0  0  0  0
    7.0694    0.1434    0.0612 C   0  0  0  0  0  0  0  0  0  0  0  0
    7.9970    1.7861    0.2860 Br  0  0  0  0  0  0  0  0  0  0  0  0
    5.7196   -2.2898    0.0579 C   0  0  0  0  0  0  0  0  0  0  0  0
    7.0905   -2.2550   -0.2032 C   0  0  0  0  0  0  0  0  0  0  0  0
    7.7732   -1.0457   -0.1300 C   0  0  0  0  0  0  0  0  0  0  0  0
    9.1357   -1.0351   -0.2279 O   0  0  0  0  0  0  0  0  0  0  0  0
  1  2  1  0
  2  6  2  0
  2  3  1  0
  3  5  1  0
  3  4  2  0
  5  9  1  0
  6  8  1  0
  6  7  1  0
  8 12  2  0
  8  9  1  0
  9 10  2  0
 10 14  1  0
 10 11  1  0
 12 13  1  0
 13 14  2  0
 14 15  1  0
M  END
>  <DRUGBANK_ID>  (1) 
DB07802

>  <COMMON_NAME>  (1) 
3,8-DIBROMO-7-HYDROXY-4-METHYL-2H-CHROMEN-2-ONE

$$$$
