
     RDKit          3D

 30 35  0  0  1  0  0  0  0  0999 V2000
   -1.0931    0.4035   -0.1582 C   0  0  0  0  0  0  0  0  0  0  0  0
   -1.0120    1.5223    0.6894 O   0  0  0  0  0  0  0  0  0  0  0  0
   -1.2669    2.6407   -0.1969 C   0  0  1  0  0  0  0  0  0  0  0  0
   -0.6527    2.1650   -1.4258 C   0  0  1  0  0  0  0  0  0  0  0  0
   -0.1115    0.7491   -1.2470 C   0  0  2  0  0  0  0  0  0  0  0  0
   -3.2692    2.7646   -2.4937 C   0  0  1  0  0  0  0  0  0  0  0  0
   -1.8161    2.2692   -2.4883 C   0  0  2  0  0  0  0  0  0  0  0  0
   -4.0631    1.7713   -3.9745 C   0  0  1  0  0  0  0  0  0  0  0  0
   -3.4917    0.6083   -3.1253 C   0  0  2  0  0  0  0  0  0  0  0  0
   -2.1036    0.9015   -2.8063 O   0  0  0  0  0  0  0  0  0  0  0  0
   -3.7712   -0.6970   -3.6317 O   0  0  0  0  0  0  0  0  0  0  0  0
   -4.7141   -0.4684   -4.6109 C   0  0  0  0  0  0  0  0  0  0  0  0
   -4.0445    0.5913   -5.3634 C   0  0  2  0  0  0  0  0  0  0  0  0
   -1.8626   -0.4948   -0.0079 O   0  0  0  0  0  0  0  0  0  0  0  0
   -2.8841    2.7843   -0.6056 C   0  0  1  0  0  0  0  0  0  0  0  0
   -3.4218    4.3085   -3.1683 C   0  0  2  0  0  0  0  0  0  0  0  0
   -3.7502    2.8865   -5.3558 C   0  0  1  0  0  0  0  0  0  0  0  0
   -4.2677    4.1268   -4.5858 C   0  0  1  0  0  0  0  0  0  0  0  0
   -5.8401   -0.8194   -4.6804 O   0  0  0  0  0  0  0  0  0  0  0  0
   -3.3754    1.9288    0.4545 O   0  0  0  0  0  0  0  0  0  0  0  0
    0.7374    0.5483   -2.4697 C   0  0  0  0  0  0  0  0  0  0  0  0
   -1.2934    3.7646   -2.8885 C   0  0  0  0  0  0  0  0  0  0  0  0
   -2.2030    4.7321   -2.5744 O   0  0  0  0  0  0  0  0  0  0  0  0
   -0.2437    4.0135   -3.4762 O   0  0  0  0  0  0  0  0  0  0  0  0
   -2.9511   -0.2562   -5.8886 O   0  0  0  0  0  0  0  0  0  0  0  0
   -2.2658    2.7610   -6.0996 C   0  0  0  0  0  0  0  0  0  0  0  0
   -1.9202    1.8293   -7.2776 C   0  0  0  0  0  0  0  0  0  0  0  0
   -1.4779    4.0406   -6.2793 C   0  0  0  0  0  0  0  0  0  0  0  0
   -1.5914    2.0529   -5.0327 C   0  0  0  0  0  0  0  0  0  0  0  0
   -5.6236    3.8602   -4.1768 O   0  0  0  0  0  0  0  0  0  0  0  0
  1  2  1  0
  1 14  2  0
  3  2  1  1
  3  4  1  0
  3 15  1  0
  4  5  1  1
  5  1  1  0
  5 21  1  6
  6  7  1  0
  6  8  1  0
  6 16  1  0
  7  4  1  0
  7 22  1  0
  8  9  1  0
  8 17  1  0
  9 10  1  6
  9 11  1  0
  7 10  1  6
 11 12  1  0
 12 13  1  0
 12 19  2  0
  8 13  1  1
 13 25  1  1
  6 15  1  1
 15 20  1  1
 16 23  1  1
 17 18  1  0
 17 26  1  1
 18 16  1  0
 18 30  1  1
 22 23  1  0
 22 24  2  0
 26 27  1  0
 26 28  1  0
 26 29  1  0
M  END
>  <DRUGBANK_ID>  (1) 
DB06747

>  <COMMON_NAME>  (1) 
ginkgolide-M

>  <CAS_NUMBER>  (1) 
15291-78-8

>  <UNII>  (1) 
Z9XSZ8ZK7U

$$$$
