
     RDKit          3D

 10 10  0  0  0  0  0  0  0  0999 V2000
    1.3802   -0.2193   -0.0002 C   0  0  0  0  0  0  0  0  0  0  0  0
    0.4829   -1.2926    0.0089 C   0  0  0  0  0  0  0  0  0  0  0  0
    0.9057    1.0906   -0.0078 C   0  0  0  0  0  0  0  0  0  0  0  0
   -0.4629    1.3296    0.0170 C   0  0  0  0  0  0  0  0  0  0  0  0
   -1.3559    0.2598   -0.0034 C   0  0  0  0  0  0  0  0  0  0  0  0
   -0.9017   -1.0666    0.0055 C   0  0  0  0  0  0  0  0  0  0  0  0
   -1.8220   -2.2159    0.0436 C   0  0  0  0  0  0  0  0  0  0  0  0
   -3.1645   -2.1194    0.0730 C   0  0  0  0  0  0  0  0  0  0  0  0
   -4.0935   -3.2787    0.1289 C   0  0  0  0  0  0  0  0  0  0  0  0
   -4.8927   -3.1485    1.2934 O   0  0  0  0  0  0  0  0  0  0  0  0
  1  2  2  0
  2  6  1  0
  3  1  1  0
  3  4  2  0
  4  5  1  0
  5  6  2  0
  6  7  1  0
  7  8  2  0
  8  9  1  0
  9 10  1  0
M  END
>  <DRUGBANK_ID>  (1) 
DB14186

>  <COMMON_NAME>  (1) 
Cinnamyl alcohol

>  <CAS_NUMBER>  (1) 
4407-36-7

>  <UNII>  (1) 
SS8YOP444F

>  <SYNONYMS>  (1) 
(2E)-3-phenylprop-2-en-1-ol; (E)-cinnamyl alcohol; Cinnamyl alcohol; Styrylcarbinol

$$$$
