
     RDKit          3D

 14 14  0  0  0  0  0  0  0  0999 V2000
    1.0234   -0.0317    0.0209 C   0  0  0  0  0  0  0  0  0  0  0  0
    0.5350   -1.3331    0.6389 C   0  0  0  0  0  0  0  0  0  0  0  0
    0.9947   -1.4846    2.0912 C   0  0  0  0  0  0  0  0  0  0  0  0
    0.5511   -0.3364    2.9959 C   0  0  0  0  0  0  0  0  0  0  0  0
   -0.9203   -0.2731    3.0614 N   0  0  0  0  0  0  0  0  0  0  0  0
   -1.5582    1.0296    3.9335 S   0  0  0  0  0  0  0  0  0  0  0  0
   -0.9439    2.2177    3.3910 O   0  0  0  0  0  0  0  0  0  0  0  0
   -2.9972    0.8588    3.9375 O   0  0  0  0  0  0  0  0  0  0  0  0
   -0.9884    0.8017    5.5938 C   0  0  0  0  0  0  0  0  0  0  0  0
   -0.6994    1.9417    6.3486 C   0  0  0  0  0  0  0  0  0  0  0  0
   -0.3534    1.8088    7.6915 C   0  0  0  0  0  0  0  0  0  0  0  0
   -0.2952    0.5425    8.2737 C   0  0  0  0  0  0  0  0  0  0  0  0
   -0.5660   -0.5956    7.5107 C   0  0  0  0  0  0  0  0  0  0  0  0
   -0.8770   -0.4738    6.1551 C   0  0  0  0  0  0  0  0  0  0  0  0
  1  2  1  0
  2  3  1  0
  3  4  1  0
  4  5  1  0
  5  6  1  0
  6  7  2  0
  6  8  2  0
  6  9  1  0
  9 10  2  0
  9 14  1  0
 10 11  1  0
 11 12  2  0
 12 13  1  0
 13 14  2  0
M  END
>  <DRUGBANK_ID>  (1) 
DB02055

>  <SECONDARY_ACCESSION_NUMBERS>  (1) 
EXPT02297

>  <COMMON_NAME>  (1) 
N-Butyl-Benzenesulfonamide

>  <CAS_NUMBER>  (1) 
3622-84-2

>  <UNII>  (1) 
YO7UAW6717

$$$$
