
     RDKit          3D

 27 29  0  0  1  0  0  0  0  0999 V2000
   -2.3157    1.1775   -3.0588 C   0  0  0  0  0  0  0  0  0  0  0  0
   -0.9175    1.4880   -2.7120 N   0  0  0  0  0  0  0  0  0  0  0  0
   -0.7754    2.9572   -2.5248 C   0  0  0  0  0  0  0  0  0  0  0  0
   -1.7981    3.8164   -1.6311 C   0  0  0  0  0  0  0  0  0  0  0  0
   -1.8458    3.5497   -0.1362 C   0  0  2  0  0  0  0  0  0  0  0  0
   -2.8381    2.4941    0.3581 N   0  0  0  0  0  0  0  0  0  0  0  0
   -1.9970    4.6678    0.9549 C   0  0  0  0  0  0  0  0  0  0  0  0
   -0.8179    5.0656    1.5370 O   0  0  0  0  0  0  0  0  0  0  0  0
   -3.0469    4.9065    1.4907 O   0  0  0  0  0  0  0  0  0  0  0  0
   -0.2736    0.5938   -1.6490 C   0  0  0  0  0  0  0  0  0  0  0  0
   -0.7173    0.8624   -0.1943 C   0  0  1  0  0  0  0  0  0  0  0  0
   -1.5332   -0.1138    0.4529 O   0  0  0  0  0  0  0  0  0  0  0  0
   -1.3332    0.0289    1.8758 C   0  0  2  0  0  0  0  0  0  0  0  0
    0.0308    0.6795    2.1131 C   0  0  2  0  0  0  0  0  0  0  0  0
    0.0804    1.3164    3.4062 O   0  0  0  0  0  0  0  0  0  0  0  0
    0.0685    1.6303    0.9625 C   0  0  2  0  0  0  0  0  0  0  0  0
   -0.5327    2.7257    1.7246 O   0  0  0  0  0  0  0  0  0  0  0  0
   -1.3107   -1.2770    2.4105 N   0  0  0  0  0  0  0  0  0  0  0  0
   -0.4364   -2.2172    1.9605 C   0  0  0  0  0  0  0  0  0  0  0  0
   -0.5013   -3.2927    2.6934 N   0  0  0  0  0  0  0  0  0  0  0  0
   -1.4781   -2.9974    3.6311 C   0  0  0  0  0  0  0  0  0  0  0  0
   -2.0142   -3.7557    4.6622 C   0  0  0  0  0  0  0  0  0  0  0  0
   -1.5704   -5.0369    4.8619 N   0  0  0  0  0  0  0  0  0  0  0  0
   -2.9761   -3.2162    5.4446 N   0  0  0  0  0  0  0  0  0  0  0  0
   -3.3708   -1.9454    5.1919 C   0  0  0  0  0  0  0  0  0  0  0  0
   -2.9271   -1.1124    4.2254 N   0  0  0  0  0  0  0  0  0  0  0  0
   -1.9895   -1.7272    3.4846 C   0  0  0  0  0  0  0  0  0  0  0  0
  1  2  1  0
  2  3  1  0
  2 10  1  0
  3  4  1  0
  5  7  1  0
  5  6  1  6
  5  4  1  0
  7  8  1  0
  7  9  2  0
 11 10  1  6
 11 12  1  0
 11 16  1  0
 12 13  1  0
 13 14  1  0
 13 18  1  1
 14 15  1  1
 14 16  1  0
 16 17  1  1
 18 19  1  0
 18 27  1  0
 19 20  2  0
 20 21  1  0
 21 22  1  0
 21 27  2  0
 22 23  1  0
 22 24  2  0
 24 25  1  0
 25 26  2  0
 26 27  1  0
M  END
>  <DRUGBANK_ID>  (1) 
DB03458

>  <SECONDARY_ACCESSION_NUMBERS>  (1) 
EXPT02836

>  <COMMON_NAME>  (1) 
N(4)-Adenosyl-N(4)-methyl-2,4-diaminobutanoic acid

>  <CAS_NUMBER>  (1) 
111770-79-7

>  <UNII>  (1) 
AC4E80KX81

>  <SYNONYMS>  (1) 
5'-{[(3S)-3-Amino-3-carboxypropyl](methyl)amino}-5'-deoxyadenosine

$$$$
