
     RDKit          3D

 23 25  0  0  0  0  0  0  0  0999 V2000
   -0.1654    1.1034    0.0406 C   0  0  0  0  0  0  0  0  0  0  0  0
   -0.6471    2.4791   -0.0428 C   0  0  0  0  0  0  0  0  0  0  0  0
   -1.0776    0.0729    0.0441 O   0  0  0  0  0  0  0  0  0  0  0  0
    1.1149    0.5961    0.0267 C   0  0  0  0  0  0  0  0  0  0  0  0
   -0.2152    3.2848   -1.1128 C   0  0  0  0  0  0  0  0  0  0  0  0
   -1.4581    3.0550    0.9428 C   0  0  0  0  0  0  0  0  0  0  0  0
   -0.3592   -1.1080    0.0276 C   0  0  0  0  0  0  0  0  0  0  0  0
    0.9939   -0.8092    0.0238 C   0  0  0  0  0  0  0  0  0  0  0  0
   -0.6090    4.6233   -1.2242 C   0  0  0  0  0  0  0  0  0  0  0  0
   -1.8956    4.3852    0.8202 C   0  0  0  0  0  0  0  0  0  0  0  0
   -0.9918   -2.4159    0.0060 C   0  0  0  0  0  0  0  0  0  0  0  0
   -1.4451    5.1733   -0.2486 C   0  0  0  0  0  0  0  0  0  0  0  0
   -2.2675   -2.6279   -0.1364 N   0  0  0  0  0  0  0  0  0  0  0  0
   -1.7945    6.6007   -0.3101 N   0  0  0  0  0  0  0  0  0  0  0  0
   -2.6810   -3.9493   -0.1154 N   0  0  0  0  0  0  0  0  0  0  0  0
   -2.5130    7.0583    0.5899 O   0  0  0  0  0  0  0  0  0  0  0  0
   -1.3297    7.2691   -1.2452 O   0  0  0  0  0  0  0  0  0  0  0  0
   -3.8024   -4.3902   -0.9131 C   0  0  0  0  0  0  0  0  0  0  0  0
   -2.2184   -4.9756    0.7258 C   0  0  0  0  0  0  0  0  0  0  0  0
   -3.9019   -5.8406   -0.4765 C   0  0  0  0  0  0  0  0  0  0  0  0
   -2.9416   -6.0962    0.4499 N   0  0  0  0  0  0  0  0  0  0  0  0
   -1.3298   -4.9200    1.5673 O   0  0  0  0  0  0  0  0  0  0  0  0
   -4.7089   -6.6595   -0.8887 O   0  0  0  0  0  0  0  0  0  0  0  0
  1  2  1  0
  1  3  1  0
  1  4  2  0
  2  5  2  0
  2  6  1  0
  3  7  1  0
  4  8  1  0
  5  9  1  0
  6 10  2  0
  7 11  1  0
  7  8  2  0
  9 12  2  0
 10 12  1  0
 11 13  2  0
 12 14  1  0
 13 15  1  0
 14 16  2  0
 14 17  1  0
 15 18  1  0
 15 19  1  0
 18 20  1  0
 19 21  1  0
 19 22  2  0
 20 23  2  0
 20 21  1  0
M  CHG  2  14   1  17  -1
M  END
>  <DRUGBANK_ID>  (1) 
DB01219

>  <SECONDARY_ACCESSION_NUMBERS>  (1) 
APRD00901

>  <COMMON_NAME>  (1) 
Dantrolene

>  <CAS_NUMBER>  (1) 
7261-97-4

>  <UNII>  (1) 
F64QU97QCR

>  <SYNONYMS>  (1) 
1-((5-(p-nitrophenyl)furfurylidene)amino)hydantoin; Dantrolene; Dantroleno; Dantrolenum

$$$$
