
     RDKit          3D

 18 16  0  0  0  0  0  0  0  0999 V2000
   -1.3134    0.4872   -0.5113 Na  0  0  0  0  0 15  0  0  0  0  0  0
    1.3775   -0.0145   -0.1161 C   0  0  0  0  0  0  0  0  0  0  0  0
    0.7919   -1.1581    0.7053 C   0  0  0  0  0  0  0  0  0  0  0  0
    1.1775   -0.9941    2.1700 C   0  0  0  0  0  0  0  0  0  0  0  0
    0.5779    0.2911    2.7595 C   0  0  0  0  0  0  0  0  0  0  0  0
   -0.9550    0.2545    2.7562 C   0  0  0  0  0  0  0  0  0  0  0  0
   -1.4467   -0.9343    3.5778 C   0  0  0  0  0  0  0  0  0  0  0  0
   -0.8760   -0.8276    4.9959 C   0  0  0  0  0  0  0  0  0  0  0  0
   -1.3604    0.4660    5.6411 C   0  0  0  0  0  0  0  0  0  0  0  0
   -2.8724    0.4086    5.7040 C   0  0  0  0  0  0  0  0  0  0  0  0
   -3.2456   -0.8218    6.5448 C   0  0  0  0  0  0  0  0  0  0  0  0
   -2.9317   -0.5998    8.0002 C   0  0  0  0  0  0  0  0  0  0  0  0
   -3.7032    0.6542    8.4412 C   0  0  0  0  0  0  0  0  0  0  0  0
   -5.1195    0.4905    8.2498 O   0  0  0  0  0  0  0  0  0  0  0  0
   -6.0049    0.8260    6.8804 S   0  0  0  0  0  0  0  0  0  0  0  0
   -5.3298    1.9669    6.2425 O   0  0  0  0  0  0  0  0  0  0  0  0
   -6.0054   -0.3792    6.0462 O   0  0  0  0  0  0  0  0  0  0  0  0
   -7.3205    1.1217    7.3880 O   0  0  0  0  0  0  0  0  0  0  0  0
  2  3  1  0
  3  4  1  0
  4  5  1  0
  5  6  1  0
  6  7  1  0
  7  8  1  0
  8  9  1  0
  9 10  1  0
 10 11  1  0
 11 12  1  0
 12 13  1  0
 13 14  1  0
 14 15  1  0
 15 16  1  0
 15 17  2  0
 15 18  2  0
M  CHG  2   1   1  16  -1
M  END
>  <DRUGBANK_ID>  (1) 
DB00815

>  <SECONDARY_ACCESSION_NUMBERS>  (1) 
APRD01606

>  <COMMON_NAME>  (1) 
Sodium lauryl sulfate

>  <CAS_NUMBER>  (1) 
151-21-3

>  <UNII>  (1) 
368GB5141J

>  <SYNONYMS>  (1) 
Laurylsiran sodny; NaDS; Natrium laurylsulfuricum; SDS; SLS; Sodium dodecyl sulfate; Sodium dodecyl sulphate; Sodium dodecylsulfate; Sodium laurilsulfate; Sodium lauryl sulfate; Sodium lauryl sulphate

$$$$
