
     RDKit          3D

 10 10  0  0  0  0  0  0  0  0999 V2000
    1.0261   -0.0524    0.2732 N   0  0  0  0  0  0  0  0  0  0  0  0
    0.4027    1.0259    0.8702 C   0  0  0  0  0  0  0  0  0  0  0  0
    0.8701    2.2924    0.7778 C   0  0  0  0  0  0  0  0  0  0  0  0
    1.9561    2.6943    0.0104 N   0  0  0  0  0  0  0  0  0  0  0  0
    0.1876    3.3448    1.6270 C   0  0  0  0  0  0  0  0  0  0  0  0
    0.5410    4.5218    1.5900 O   0  0  0  0  0  0  0  0  0  0  0  0
   -0.8168    2.9180    2.4461 N   0  0  0  0  0  0  0  0  0  0  0  0
   -1.2721    1.6408    2.5032 C   0  0  0  0  0  0  0  0  0  0  0  0
   -2.1678    1.3018    3.2778 O   0  0  0  0  0  0  0  0  0  0  0  0
   -0.6720    0.7532    1.6648 N   0  0  0  0  0  0  0  0  0  0  0  0
  1  2  1  0
  2  3  2  0
  2 10  1  0
  3  4  1  0
  3  5  1  0
  5  6  2  0
  5  7  1  0
  7  8  1  0
  8  9  2  0
  8 10  1  0
M  END
>  <DRUGBANK_ID>  (1) 
DB03826

>  <SECONDARY_ACCESSION_NUMBERS>  (1) 
EXPT03206

>  <COMMON_NAME>  (1) 
5,6-Diaminouracil

>  <UNII>  (1) 
VEU0FRO9FL

$$$$
