
     RDKit          3D

 21 21  0  0  1  0  0  0  0  0999 V2000
    8.1559    3.9818    4.0247 C   0  0  0  0  0  0  0  0  0  0  0  0
    8.7841    3.2105    5.1934 C   0  0  2  0  0  0  0  0  0  0  0  0
   10.0276    2.3952    4.7912 C   0  0  1  0  0  0  0  0  0  0  0  0
   10.6249    1.7342    6.0403 C   0  0  1  0  0  0  0  0  0  0  0  0
    9.5294    0.9661    6.7487 C   0  0  2  0  0  0  0  0  0  0  0  0
    8.1704    1.6952    6.9214 C   0  0  1  0  0  0  0  0  0  0  0  0
    7.7712    2.3234    5.7100 O   0  0  0  0  0  0  0  0  0  0  0  0
    7.1386    0.8239    7.4294 O   0  0  0  0  0  0  0  0  0  0  0  0
    6.4803   -0.1362    6.5525 C   0  0  2  0  0  0  0  0  0  0  0  0
    7.4594   -0.8741    5.6761 C   0  0  0  0  0  0  0  0  0  0  0  0
    8.3818   -1.4972    6.5640 O   0  0  0  0  0  0  0  0  0  0  0  0
    5.2841    0.4599    5.8096 C   0  0  1  0  0  0  0  0  0  0  0  0
    4.6452   -0.5124    4.7796 C   0  0  2  0  0  0  0  0  0  0  0  0
    3.1349   -0.4788    4.7256 C   0  0  0  0  0  0  0  0  0  0  0  0
    2.4193    0.4119    5.1951 O   0  0  0  0  0  0  0  0  0  0  0  0
    4.9577   -1.8948    5.0061 O   0  0  0  0  0  0  0  0  0  0  0  0
    4.3837    0.8528    6.8555 O   0  0  0  0  0  0  0  0  0  0  0  0
    9.9362    0.2972    7.9380 O   0  0  0  0  0  0  0  0  0  0  0  0
   11.6602    0.8136    5.6461 O   0  0  0  0  0  0  0  0  0  0  0  0
    9.6859    1.3917    3.8015 O   0  0  0  0  0  0  0  0  0  0  0  0
    8.6204    3.5768    2.7433 O   0  0  0  0  0  0  0  0  0  0  0  0
  1 21  1  0
  2  3  1  0
  2  7  1  0
  2  1  1  6
  3  4  1  0
  3 20  1  6
  4  5  1  0
  4 19  1  6
  5  6  1  0
  5 18  1  1
  6  7  1  0
  6  8  1  6
  9 12  1  0
  9 10  1  6
  9  8  1  0
 10 11  1  0
 12 17  1  1
 13 16  1  1
 13 14  1  0
 13 12  1  0
 14 15  2  0
M  END
>  <DRUGBANK_ID>  (1) 
DB12767

>  <COMMON_NAME>  (1) 
Gaxilose

>  <CAS_NUMBER>  (1) 
14087-31-1

>  <UNII>  (1) 
A571S2B3JE

>  <SYNONYMS>  (1) 
Gaxilosa; Gaxilose

$$$$
