
     RDKit          3D

 42 44  0  0  1  0  0  0  0  0999 V2000
    3.3596   -9.5840    4.5376 C   0  0  0  0  0  0  0  0  0  0  0  0
    2.8245  -14.8797    9.3111 C   0  0  0  0  0  0  0  0  0  0  0  0
    8.2073  -12.7497    5.1950 C   0  0  0  0  0  0  0  0  0  0  0  0
    0.4581   -8.1901    8.6708 C   0  0  0  0  0  0  0  0  0  0  0  0
   -0.5143  -10.3278   14.3283 C   0  0  0  0  0  0  0  0  0  0  0  0
    6.7575   -8.6500    9.2106 C   0  0  0  0  0  0  0  0  0  0  0  0
    3.7671   -7.5706    9.6923 C   0  0  0  0  0  0  0  0  0  0  0  0
    5.3968  -15.1664    5.6982 C   0  0  0  0  0  0  0  0  0  0  0  0
    4.1816  -10.3741    5.5485 C   0  0  0  0  0  0  0  0  0  0  0  0
    4.0024  -15.1220    8.3896 C   0  0  0  0  0  0  0  0  0  0  0  0
    8.6955  -12.2640    6.5526 C   0  0  0  0  0  0  0  0  0  0  0  0
    0.6686  -10.8527    7.8207 C   0  0  0  0  0  0  0  0  0  0  0  0
    0.6687  -11.7268   12.6346 C   0  0  0  0  0  0  0  0  0  0  0  0
    0.7004  -11.9417    8.8773 C   0  0  0  0  0  0  0  0  0  0  0  0
    0.8932  -12.1035   11.3180 C   0  0  0  0  0  0  0  0  0  0  0  0
    5.9658  -12.9013    9.3251 C   0  0  0  0  0  0  0  0  0  0  0  0
    4.6376  -12.7515    8.5926 C   0  0  0  0  0  0  0  0  0  0  0  0
    8.0133  -10.6774    8.4260 C   0  0  0  0  0  0  0  0  0  0  0  0
    1.2478   -9.4440    8.2331 C   0  0  2  0  0  0  0  0  0  0  0  0
   -0.2515  -10.7208   12.9056 C   0  0  0  0  0  0  0  0  0  0  0  0
    7.1146   -9.5113    8.0294 C   0  0  1  0  0  0  0  0  0  0  0  0
    3.6749   -8.8773    8.9128 C   0  0  1  0  0  0  0  0  0  0  0  0
    5.5871  -14.0484    6.7130 C   0  0  1  0  0  0  0  0  0  0  0  0
    0.1764  -11.5144   10.2288 C   0  0  0  0  0  0  0  0  0  0  0  0
    4.9093   -9.4652    6.5862 C   0  0  1  0  0  0  0  0  0  0  0  0
    7.1165  -13.1250    8.3419 C   0  0  2  0  0  0  0  0  0  0  0  0
   -0.8290  -10.5246   10.4903 C   0  0  0  0  0  0  0  0  0  0  0  0
    2.4102   -9.6314    9.2292 C   0  0  1  0  0  0  0  0  0  0  0  0
   -0.9516  -10.1159   11.8398 C   0  0  0  0  0  0  0  0  0  0  0  0
    3.9220   -8.6329    7.4175 C   0  0  0  0  0  0  0  0  0  0  0  0
    5.9238  -10.2110    7.4485 C   0  0  1  0  0  0  0  0  0  0  0  0
   -1.7269   -9.7314    9.5023 C   0  0  0  0  0  0  0  0  0  0  0  0
    4.3546  -13.8690    7.6115 C   0  0  1  0  0  0  0  0  0  0  0  0
    7.5758  -11.8539    7.5279 C   0  0  2  0  0  0  0  0  0  0  0  0
    2.0545   -9.3797   10.5964 O   0  0  0  0  0  0  0  0  0  0  0  0
   -1.7764   -9.0566   12.1225 O   0  0  0  0  0  0  0  0  0  0  0  0
    3.3011   -7.7192    6.8590 O   0  0  0  0  0  0  0  0  0  0  0  0
   -2.3070   -8.6534    9.7322 O   0  0  0  0  0  0  0  0  0  0  0  0
   -1.7848  -10.1386    8.2347 O   0  0  0  0  0  0  0  0  0  0  0  0
    3.2680  -13.4833    6.7578 O   0  0  0  0  0  0  0  0  0  0  0  0
    6.7779  -14.2492    7.4914 O   0  0  0  0  0  0  0  0  0  0  0  0
    6.4934  -11.3060    6.7572 O   0  0  0  0  0  0  0  0  0  0  0  0
  9  1  1  0
 10  2  1  0
 11  3  1  0
 14 12  1  0
 15 13  2  0
 17 16  1  0
 19 12  1  0
 19  4  1  1
 20  5  1  0
 20 13  1  0
 21  6  1  1
 21 18  1  0
 22  7  1  1
 23  8  1  6
 24 14  1  0
 24 15  1  0
 25  9  1  1
 25 30  1  0
 26 16  1  6
 27 24  2  0
 28 35  1  1
 28 22  1  0
 28 19  1  0
 29 20  2  0
 29 27  1  0
 30 22  1  0
 31 21  1  0
 31 25  1  0
 32 27  1  0
 33 10  1  0
 33 17  1  0
 33 23  1  0
 33 40  1  6
 34 18  1  0
 34 26  1  0
 34 11  1  6
 36 29  1  0
 37 30  2  0
 38 32  2  0
 39 32  1  0
 41 23  1  0
 41 26  1  0
 31 42  1  6
 42 34  1  0
M  END
>  <DRUGBANK_ID>  (1) 
DB11423

>  <COMMON_NAME>  (1) 
Lasalocid

>  <CAS_NUMBER>  (1) 
25999-31-9

>  <UNII>  (1) 
W7V2ZZ2FWB

>  <SYNONYMS>  (1) 
Lasalocid

$$$$
