
     RDKit          3D

 31 35  0  0  0  0  0  0  0  0999 V2000
    0.3165   -0.4512   -0.7746 C   0  0  0  0  0  0  0  0  0  0  0  0
    0.1558    0.7315   -0.1008 C   0  0  0  0  0  0  0  0  0  0  0  0
    1.4313   -1.0995   -0.3392 C   0  0  0  0  0  0  0  0  0  0  0  0
    1.1870    1.6600    0.0636 C   0  0  0  0  0  0  0  0  0  0  0  0
   -2.5255   -0.5996   -0.9015 C   0  0  0  0  0  0  0  0  0  0  0  0
    2.5728   -0.3191   -0.0018 C   0  0  0  0  0  0  0  0  0  0  0  0
   -1.6958   -1.2601    1.1088 C   0  0  0  0  0  0  0  0  0  0  0  0
    2.4403    1.1016    0.0220 C   0  0  0  0  0  0  0  0  0  0  0  0
   -2.9474   -0.2508    2.5257 C   0  0  0  0  0  0  0  0  0  0  0  0
   -2.5491    0.7168    0.4547 C   0  0  2  0  0  0  0  0  0  0  0  0
   -1.1729    0.5446    0.2249 C   0  0  1  0  0  0  0  0  0  0  0  0
   -0.8461   -1.2995   -1.1417 C   0  0  0  0  0  0  0  0  0  0  0  0
   -0.3321   -2.5481   -0.7673 C   0  0  0  0  0  0  0  0  0  0  0  0
   -2.0989    0.7665    1.9722 N   0  0  0  0  0  0  0  0  0  0  0  0
   -0.6578    0.5954    2.5530 C   0  0  0  0  0  0  0  0  0  0  0  0
   -3.1894   -1.4068    1.7107 C   0  0  2  0  0  0  0  0  0  0  0  0
   -4.1930   -2.1705    2.6271 C   0  0  0  0  0  0  0  0  0  0  0  0
   -0.7664    2.4374   -1.8726 C   0  0  0  0  0  0  0  0  0  0  0  0
   -1.5831    1.4105   -1.2004 O   0  0  0  0  0  0  0  0  0  0  0  0
   -5.5334   -1.3264    2.6319 O   0  0  0  0  0  0  0  0  0  0  0  0
   -5.9037   -0.0219    2.9978 C   0  0  0  0  0  0  0  0  0  0  0  0
   -6.9960    0.4160    2.6473 O   0  0  0  0  0  0  0  0  0  0  0  0
   -5.0344    0.9206    3.8354 C   0  0  0  0  0  0  0  0  0  0  0  0
   -5.2447    1.1921    5.1518 C   0  0  0  0  0  0  0  0  0  0  0  0
   -4.0813    1.8041    3.3446 C   0  0  0  0  0  0  0  0  0  0  0  0
   -2.9498    2.1747    4.0325 N   0  0  0  0  0  0  0  0  0  0  0  0
   -2.9787    2.0384    5.3420 C   0  0  0  0  0  0  0  0  0  0  0  0
   -4.2137    1.8048    5.9016 C   0  0  0  0  0  0  0  0  0  0  0  0
   -4.6168    2.6983    7.5013 Br  0  0  0  0  0  0  0  0  0  0  0  0
    0.9895   -2.3945   -0.3049 N   0  0  0  0  0  0  0  0  0  0  0  0
    1.7824   -3.5219    0.0878 C   0  0  0  0  0  0  0  0  0  0  0  0
  1  2  1  0
  1 12  1  0
  1  3  2  0
  2 11  1  0
  2  4  2  0
  3 30  1  0
  3  6  1  0
  4  8  1  0
 10  5  1  1
  6  8  2  0
  7 16  1  0
 10 14  1  0
 11 10  1  0
 11  7  1  0
 11 19  1  6
 12  5  1  0
 12 13  2  0
 13 30  1  0
 14  9  1  0
 14 15  1  0
 16  9  1  0
 16 17  1  1
 17 20  1  0
 19 18  1  0
 20 21  1  0
 21 23  1  0
 21 22  2  0
 23 24  2  0
 24 28  1  0
 25 23  1  0
 26 25  2  0
 26 27  1  0
 28 27  2  0
 28 29  1  0
 30 31  1  0
M  END
>  <DRUGBANK_ID>  (1) 
DB00699

>  <SECONDARY_ACCESSION_NUMBERS>  (1) 
APRD00617

>  <COMMON_NAME>  (1) 
Nicergoline

>  <CAS_NUMBER>  (1) 
27848-84-6

>  <UNII>  (1) 
JCV8365FWN

>  <SYNONYMS>  (1) 
(8β)-10-methoxy-1,6-dimethylergoline-8-methanol 5-bromo-3-pyridinecarboxylate (ester); 10-methoxy-1,6-dimethylergoline-8β-methanol 5-bromonicotinate; Nicergolin; Nicergolina; Nicergoline; Nicergolinum

$$$$
