
     RDKit          3D

 12 10  0  0  0  0  0  0  0  0999 V2000
    1.0032   -0.0348    0.0937 C   0  0  0  0  0  0  0  0  0  0  0  0
    0.3932    1.0114    1.4657 P   0  0  0  0  0  0  0  0  0  0  0  0
    0.3932    0.6303   -1.4983 P   0  0  0  0  0  0  0  0  0  0  0  0
    1.6218    1.5694   -1.5767 O   0  0  0  0  0  0  0  0  0  0  0  0
    0.0141   -0.2589    2.2657 O   0  0  0  0  0  0  0  0  0  0  0  0
    0.5299   -1.3626    0.2644 O   0  0  0  0  0  0  0  0  0  0  0  0
    0.4698   -0.9538   -2.1894 O   0  0  0  0  0  0  0  0  0  0  0  0
   -0.1834    1.2591   -3.0033 O   0  0  0  0  0  0  0  0  0  0  0  0
    1.9691    1.7040    1.6382 O   0  0  0  0  0  0  0  0  0  0  0  0
   -0.1834    2.0004    2.7627 O   0  0  0  0  0  0  0  0  0  0  0  0
    2.5232   -0.0348    0.0937 C   0  0  0  0  0  0  0  0  0  0  0  0
    0.9899    0.0592    0.0799 Tc  0  0  0  0  0 15  0  0  0  0  0  0
  2  1  1  0
  3  1  1  0
  4  3  2  0
  5  2  2  0
  6  1  1  0
  7  3  1  0
  8  3  1  0
  9  2  1  0
 10  2  1  0
 11  1  1  0
M  ISO  1  12  99
M  END
>  <DRUGBANK_ID>  (1) 
DB09411

>  <COMMON_NAME>  (1) 
Technetium Tc-99m etidronate

>  <CAS_NUMBER>  (1) 
63347-65-9

>  <UNII>  (1) 
13W7DMI45X

>  <SYNONYMS>  (1) 
Technetium (99mTc) etidronate; Technetium Tc 99m etidronate

$$$$
