
     RDKit          3D

 30 34  0  0  0  0  0  0  0  0999 V2000
    2.5248   -0.1152   -0.0048 C   0  0  0  0  0  0  0  0  0  0  0  0
   -6.5875   -2.4045   -4.5762 C   0  0  0  0  0  0  0  0  0  0  0  0
   -7.0238   -1.0640   -4.6357 C   0  0  0  0  0  0  0  0  0  0  0  0
   -6.4543    1.4522   -4.8161 C   0  0  0  0  0  0  0  0  0  0  0  0
   -6.0530    2.4195   -3.6364 C   0  0  0  0  0  0  0  0  0  0  0  0
   -0.6965    2.1648   -3.8273 C   0  0  0  0  0  0  0  0  0  0  0  0
   -1.6720    0.6590   -3.6253 C   0  0  0  0  0  0  0  0  0  0  0  0
   -4.5237    1.3016   -2.0076 C   0  0  0  0  0  0  0  0  0  0  0  0
   -2.6235    2.4152   -4.2829 C   0  0  0  0  0  0  0  0  0  0  0  0
   -5.2413   -2.7343   -4.6330 C   0  0  0  0  0  0  0  0  0  0  0  0
   -3.6085    1.4533   -0.8885 C   0  0  0  0  0  0  0  0  0  0  0  0
   -2.0326    2.4446   -2.2446 C   0  0  0  0  0  0  0  0  0  0  0  0
    0.3978    1.2200    0.0786 C   0  0  0  0  0  0  0  0  0  0  0  0
   -3.3555    4.0603   -3.2873 C   0  0  0  0  0  0  0  0  0  0  0  0
    0.2830   -1.1801    0.0018 C   0  0  0  0  0  0  0  0  0  0  0  0
   -1.6111   -0.0134    0.2883 C   0  0  0  0  0  0  0  0  0  0  0  0
   -1.7753    2.5371    0.1723 C   0  0  0  0  0  0  0  0  0  0  0  0
    1.0435   -0.0138    0.0073 C   0  0  0  0  0  0  0  0  0  0  0  0
   -0.9796    1.2375    0.2374 C   0  0  0  0  0  0  0  0  0  0  0  0
   -3.6590    1.1875   -3.8845 C   0  0  0  0  0  0  0  0  0  0  0  0
   -6.1122   -0.0604   -4.7967 C   0  0  0  0  0  0  0  0  0  0  0  0
   -4.4669    2.7460   -3.4977 C   0  0  0  0  0  0  0  0  0  0  0  0
   -1.5289    3.8569   -3.6625 C   0  0  0  0  0  0  0  0  0  0  0  0
   -3.5052    0.9354   -3.5800 C   0  0  0  0  0  0  0  0  0  0  0  0
   -3.8218    0.3473   -4.8849 C   0  0  0  0  0  0  0  0  0  0  0  0
   -4.8301   -0.5761   -4.9321 C   0  0  0  0  0  0  0  0  0  0  0  0
   -0.6323    5.2134   -4.1322 Cl  0  0  0  0  0  0  0  0  0  0  0  0
   -1.0437   -1.2084    0.0922 N   0  0  0  0  0  0  0  0  0  0  0  0
   -4.3245   -1.8182   -4.8186 N   0  0  0  0  0  0  0  0  0  0  0  0
   -2.7582    2.6084   -0.9661 N   0  0  0  0  0  0  0  0  0  0  0  0
  3  2  2  0
  5  4  1  0
  7  6  1  0
 10  2  1  0
 11  8  1  0
 12  9  1  0
 18  1  1  0
 18 13  2  0
 18 15  1  0
 19 13  1  0
 19 16  2  0
 19 17  1  0
 20  8  1  0
 20  9  1  0
 21  3  1  0
 21  4  1  0
 22  5  1  0
 22 14  2  0
 23  6  2  0
 23 14  1  0
 24  7  2  0
 24 22  1  0
 25 24  1  0
 25 20  2  3
 26 21  2  0
 26 25  1  0
 27 23  1  0
 28 15  2  0
 28 16  1  0
 29 10  2  0
 29 26  1  0
 30 11  1  0
 30 12  1  0
 30 17  1  0
M  END
>  <DRUGBANK_ID>  (1) 
DB11614

>  <COMMON_NAME>  (1) 
Rupatadine

>  <CAS_NUMBER>  (1) 
158876-82-5

>  <UNII>  (1) 
2AE8M83G3E

>  <SYNONYMS>  (1) 
Rupatadina; Rupatadine

$$$$
