500
     RDKit          3D

 19 20  0  0  0  0  0  0  0  0999 V2000
    1.0132   -0.0372    0.0028 O   0  0  0  0  0  0  0  0  0  0  0  0
    5.3165    6.1899   -1.5407 O   0  0  0  0  0  0  0  0  0  0  0  0
    3.6998    5.1126   -2.6772 O   0  0  0  0  0  0  0  0  0  0  0  0
    3.9045    1.6821   -1.0392 N   0  0  0  0  0  0  0  0  0  0  0  0
    4.3659    2.9443   -0.6917 C   0  0  0  0  0  0  0  0  0  0  0  0
    2.9924    1.2384   -0.0826 C   0  0  0  0  0  0  0  0  0  0  0  0
    3.7508    3.2940    0.4964 C   0  0  0  0  0  0  0  0  0  0  0  0
    2.8775    2.2512    0.8571 C   0  0  0  0  0  0  0  0  0  0  0  0
    5.3365    3.7709   -1.4873 C   0  0  0  0  0  0  0  0  0  0  0  0
    2.2424   -0.0163   -0.0526 C   0  0  0  0  0  0  0  0  0  0  0  0
    4.2924    0.9364   -2.2215 C   0  0  0  0  0  0  0  0  0  0  0  0
    2.9681   -1.3276   -0.0007 C   0  0  0  0  0  0  0  0  0  0  0  0
    2.2443   -2.5294   -0.0184 C   0  0  0  0  0  0  0  0  0  0  0  0
    4.3623   -1.3898    0.0877 C   0  0  0  0  0  0  0  0  0  0  0  0
    4.3116   -3.8074   -0.0030 C   0  0  0  0  0  0  0  0  0  0  0  0
    2.9132   -3.7603   -0.0096 C   0  0  0  0  0  0  0  0  0  0  0  0
    5.0305   -2.6121    0.0438 C   0  0  0  0  0  0  0  0  0  0  0  0
    4.6879    5.0636   -1.9515 C   0  0  0  0  0  0  0  0  0  0  0  0
    5.0505   -5.1113   -0.0323 C   0  0  0  0  0  0  0  0  0  0  0  0
  1 10  2  0
  2 18  1  0
  3 18  2  0
  4  5  1  0
  4  6  1  0
  4 11  1  0
  5  7  2  0
  5  9  1  0
  6  8  2  0
  6 10  1  0
  7  8  1  0
  9 18  1  0
 10 12  1  0
 12 13  2  0
 12 14  1  0
 13 16  1  0
 14 17  2  0
 15 16  2  0
 15 17  1  0
 15 19  1  0
M  END
>  <DRUGBANK_ID>  (1) 
DB00500

>  <SECONDARY_ACCESSION_NUMBERS>  (1) 
APRD01268

>  <COMMON_NAME>  (1) 
Tolmetin

>  <CAS_NUMBER>  (1) 
26171-23-3

>  <UNII>  (1) 
D8K2JPN18B

>  <SYNONYMS>  (1) 
1-Methyl-5-(4-methylbenzoyl)-pyrrole-2-acetic acid; 1-Methyl-5-p-toluoylpyrrole-2-acetic acid; 5-(p-Toluoyl)-1-methylpyrrole-2-acetic acid; Tolmetin; Tolmetina; Tolm√©tine; Tolmetino; Tolmetinum

$$$$
