
     RDKit          3D

 25 27  0  0  0  0  0  0  0  0999 V2000
    1.2424   -0.2602    0.1186 C   0  0  0  0  0  0  0  0  0  0  0  0
    0.7805    1.1574   -0.0493 C   0  0  0  0  0  0  0  0  0  0  0  0
    1.6120    1.6119   -1.4149 C   0  0  0  0  0  0  0  0  0  0  0  0
   -0.8861    1.0083    0.2010 C   0  0  0  0  0  0  0  0  0  0  0  0
    1.1021    2.2362    0.9369 C   0  0  0  0  0  0  0  0  0  0  0  0
    0.8237    3.6121    0.9325 C   0  0  0  0  0  0  0  0  0  0  0  0
    1.2328    4.1330    2.1482 N   0  0  0  0  0  0  0  0  0  0  0  0
    1.6929    3.1193    2.8588 C   0  0  0  0  0  0  0  0  0  0  0  0
    1.6518    1.9531    2.1564 N   0  0  0  0  0  0  0  0  0  0  0  0
    0.2402    4.5065   -0.1107 C   0  0  0  0  0  0  0  0  0  0  0  0
   -0.3900    4.2077   -1.2922 C   0  0  0  0  0  0  0  0  0  0  0  0
   -0.7281    5.0959   -2.4478 C   0  0  0  0  0  0  0  0  0  0  0  0
   -0.5721    6.2927   -2.4145 O   0  0  0  0  0  0  0  0  0  0  0  0
   -1.1938    4.4058   -3.5843 N   0  0  0  0  0  0  0  0  0  0  0  0
   -1.4308    3.0415   -3.6974 C   0  0  0  0  0  0  0  0  0  0  0  0
   -2.0170    2.3239   -4.6599 C   0  0  0  0  0  0  0  0  0  0  0  0
   -2.5762    3.0256   -5.7647 C   0  0  0  0  0  0  0  0  0  0  0  0
   -1.7207    3.8165   -6.5263 C   0  0  0  0  0  0  0  0  0  0  0  0
   -2.2758    4.7899   -7.3223 C   0  0  0  0  0  0  0  0  0  0  0  0
   -3.6616    4.8294   -7.4796 C   0  0  0  0  0  0  0  0  0  0  0  0
   -4.4964    3.9201   -6.8205 C   0  0  0  0  0  0  0  0  0  0  0  0
   -3.9581    3.0518   -5.8944 C   0  0  0  0  0  0  0  0  0  0  0  0
   -1.0535    2.1829   -2.6149 C   0  0  0  0  0  0  0  0  0  0  0  0
   -1.0152    0.9713   -2.6616 O   0  0  0  0  0  0  0  0  0  0  0  0
   -0.6730    2.9279   -1.5612 N   0  0  0  0  0  0  0  0  0  0  0  0
  1  2  1  0
  2  3  1  0
  2  4  1  0
  2  5  1  0
  5  6  2  0
  5  9  1  0
  6  7  1  0
  6 10  1  0
  7  8  2  0
  8  9  1  0
 10 11  2  0
 11 12  1  0
 11 25  1  0
 12 13  2  0
 12 14  1  0
 14 15  1  0
 15 16  2  0
 15 23  1  0
 16 17  1  0
 17 18  2  0
 17 22  1  0
 18 19  1  0
 19 20  2  0
 20 21  1  0
 21 22  2  0
 23 24  2  0
 23 25  1  0
M  END
>  <DRUGBANK_ID>  (1) 
DB05992

>  <COMMON_NAME>  (1) 
Plinabulin

>  <CAS_NUMBER>  (1) 
714272-27-2

>  <UNII>  (1) 
986FY7F8XR

>  <SYNONYMS>  (1) 
Plinabulin

$$$$
