
     RDKit          3D

 20 21  0  0  0  0  0  0  0  0999 V2000
    1.0666   -0.0545   -0.0509 O   0  0  0  0  0  0  0  0  0  0  0  0
    1.0666   -2.4387    0.5109 O   0  0  0  0  0  0  0  0  0  0  0  0
    1.0666   -0.7600    2.2947 O   0  0  0  0  0  0  0  0  0  0  0  0
   -2.7921    2.1682    0.7452 O   0  0  0  0  0  0  0  0  0  0  0  0
   -1.5234    0.2428    1.3174 N   0  0  0  0  0  0  0  0  0  0  0  0
   -1.0334   -1.0844    0.9182 C   0  0  1  0  0  0  0  0  0  0  0  0
   -1.5401   -1.4131   -0.4766 C   0  0  0  0  0  0  0  0  0  0  0  0
   -1.0334   -2.7854   -0.8894 C   0  0  0  0  0  0  0  0  0  0  0  0
    0.1125   -2.9588   -1.7030 C   0  0  0  0  0  0  0  0  0  0  0  0
    0.4966   -4.2913   -2.0641 C   0  0  0  0  0  0  0  0  0  0  0  0
   -1.7820   -3.8579   -0.4741 C   0  0  0  0  0  0  0  0  0  0  0  0
    0.9040   -1.8821   -2.2012 C   0  0  0  0  0  0  0  0  0  0  0  0
   -0.2675   -5.3754   -1.5612 C   0  0  0  0  0  0  0  0  0  0  0  0
   -1.3962   -5.1733   -0.8170 C   0  0  0  0  0  0  0  0  0  0  0  0
    1.6044   -4.4798   -2.8983 C   0  0  0  0  0  0  0  0  0  0  0  0
   -2.3685    1.0208    0.4001 C   0  0  0  0  0  0  0  0  0  0  0  0
    1.9705   -2.1166   -3.0077 C   0  0  0  0  0  0  0  0  0  0  0  0
    2.3587   -3.4172   -3.3673 C   0  0  0  0  0  0  0  0  0  0  0  0
   -2.7357    0.4529   -0.9611 C   0  0  0  0  0  0  0  0  0  0  0  0
    0.5666   -1.0844    0.9182 B   0  0  0  0  0  0  0  0  0  0  0  0
  1 20  1  0
  2 20  1  0
  3 20  1  0
  4 16  2  0
  5 16  1  0
  6  5  1  0
  6  7  1  6
  6 20  1  0
  7  8  1  0
  8  9  2  0
  8 11  1  0
  9 10  1  0
  9 12  1  0
 10 13  2  0
 10 15  1  0
 11 14  2  0
 12 17  2  0
 13 14  1  0
 15 18  2  0
 16 19  1  0
 17 18  1  0
M  CHG  1  20  -1
M  END
>  <DRUGBANK_ID>  (1) 
DB08565

>  <COMMON_NAME>  (1) 
L-1-naphthyl-2-acetamido-ethane boronic acid

$$$$
