
     RDKit          3D

 21 22  0  0  0  0  0  0  0  0999 V2000
    0.9051    0.1318    0.1978 O   0  0  0  0  0  0  0  0  0  0  0  0
    2.1229    0.0404    0.1270 C   0  0  0  0  0  0  0  0  0  0  0  0
    2.8840    1.1169   -0.2007 O   0  0  0  0  0  0  0  0  0  0  0  0
    2.9123   -1.2516    0.4341 C   0  0  1  0  0  0  0  0  0  0  0  0
    2.5919   -1.7411    1.8133 N   0  0  0  0  0  0  0  0  0  0  0  0
    2.6125   -2.2844   -0.6483 C   0  0  0  0  0  0  0  0  0  0  0  0
    3.0255   -1.9081   -2.0253 C   0  0  0  0  0  0  0  0  0  0  0  0
    3.8165   -2.5268   -2.7244 O   0  0  0  0  0  0  0  0  0  0  0  0
    2.4048   -0.8162   -2.4873 O   0  0  0  0  0  0  0  0  0  0  0  0
   -2.0795   -0.4798    3.6859 C   0  0  0  0  0  0  0  0  0  0  0  0
   -3.2892   -1.1679    3.7323 C   0  0  0  0  0  0  0  0  0  0  0  0
   -0.8712   -1.1749    3.6703 C   0  0  0  0  0  0  0  0  0  0  0  0
   -3.3288   -2.5675    3.7659 C   0  0  0  0  0  0  0  0  0  0  0  0
    1.6167   -3.2652    3.5263 C   0  0  0  0  0  0  0  0  0  0  0  0
   -0.4706   -4.7948    3.6165 C   0  0  0  0  0  0  0  0  0  0  0  0
    0.1521   -3.5600    3.6318 C   0  0  0  0  0  0  0  0  0  0  0  0
   -0.8822   -2.5808    3.6851 C   0  0  0  0  0  0  0  0  0  0  0  0
   -2.1053   -3.2486    3.7292 C   0  0  0  0  0  0  0  0  0  0  0  0
    1.9836   -2.9620    2.0846 C   0  0  0  0  0  0  0  0  0  0  0  0
   -1.8250   -4.5962    3.7079 N   0  0  0  0  0  0  0  0  0  0  0  0
    1.7687   -3.8216    1.2312 O   0  0  0  0  0  0  0  0  0  0  0  0
  2  1  2  0
  3  2  1  0
  4  2  1  0
  4  5  1  0
  4  6  1  6
  7  6  1  0
  8  7  2  0
  9  7  1  0
 10 11  2  0
 10 12  1  0
 11 13  1  0
 12 17  2  0
 13 18  2  0
 14 16  1  0
 14 19  1  0
 15 16  2  0
 15 20  1  0
 16 17  1  0
 17 18  1  0
 18 20  1  0
 19  5  1  0
 19 21  2  0
M  END
>  <DRUGBANK_ID>  (1) 
DB07951

>  <COMMON_NAME>  (1) 
N-(indole-3-acetyl)-L-aspartic acid

>  <CAS_NUMBER>  (1) 
2456-73-7

>  <UNII>  (1) 
5V1L30W0M7

>  <SYNONYMS>  (1) 
IAASP; N-(indol-3-ylacetyl)-L-aspartic acid; N-(indol-3-ylacetyl)aspartic acid; N-(indole-3-acetyl)aspartic acid

$$$$
