1A2
     RDKit          3D

 30 33  0  0  0  0  0  0  0  0999 V2000
    1.2218   -0.2565    0.0379 C   0  0  0  0  0  0  0  0  0  0  0  0
   -1.0578   -3.5054   -0.6440 C   0  0  0  0  0  0  0  0  0  0  0  0
   -1.6542   -2.3581   -0.7729 N   0  0  0  0  0  0  0  0  0  0  0  0
    3.0903   -3.9150   -1.5733 C   0  0  0  0  0  0  0  0  0  0  0  0
    0.9626   -4.9382   -1.1592 C   0  0  0  0  0  0  0  0  0  0  0  0
    2.5221   -2.6629   -1.3259 C   0  0  0  0  0  0  0  0  0  0  0  0
    2.3103   -5.0615   -1.4762 C   0  0  0  0  0  0  0  0  0  0  0  0
    0.3886   -3.6768   -0.9446 C   0  0  0  0  0  0  0  0  0  0  0  0
   -0.8426   -1.2050   -1.2567 C   0  0  0  0  0  0  0  0  0  0  0  0
    0.5606   -1.2609   -0.7972 N   0  0  0  0  0  0  0  0  0  0  0  0
    1.1653   -2.5080   -0.9956 C   0  0  0  0  0  0  0  0  0  0  0  0
    0.2335   -6.0626   -1.0714 F   0  0  0  0  0  0  0  0  0  0  0  0
    3.3050   -1.5857   -1.4917 F   0  0  0  0  0  0  0  0  0  0  0  0
   -1.5882    0.0847   -0.8432 C   0  0  0  0  0  0  0  0  0  0  0  0
   -1.0232    1.3601   -1.4469 C   0  0  0  0  0  0  0  0  0  0  0  0
   -0.9555    1.2780   -2.8880 N   0  0  0  0  0  0  0  0  0  0  0  0
   -0.2325    0.0831   -3.3796 C   0  0  0  0  0  0  0  0  0  0  0  0
   -0.8822   -1.1915   -2.8199 C   0  0  0  0  0  0  0  0  0  0  0  0
   -1.4247    2.2771   -3.7342 C   0  0  0  0  0  0  0  0  0  0  0  0
   -1.3477    2.2212   -4.9570 O   0  0  0  0  0  0  0  0  0  0  0  0
   -1.7709   -4.5924   -0.2073 N   0  0  0  0  0  0  0  0  0  0  0  0
   -1.9884    3.5137   -3.0749 C   0  0  0  0  0  0  0  0  0  0  0  0
   -3.2739    3.8977   -3.1773 C   0  0  0  0  0  0  0  0  0  0  0  0
   -3.8296    5.0090   -2.5591 N   0  0  0  0  0  0  0  0  0  0  0  0
   -3.0415    5.7263   -1.8204 C   0  0  0  0  0  0  0  0  0  0  0  0
   -1.5945    5.4965   -1.5561 C   0  0  0  0  0  0  0  0  0  0  0  0
   -0.9994    4.3555   -2.3437 C   0  0  0  0  0  0  0  0  0  0  0  0
   -3.6262    6.8645   -1.1264 C   0  0  0  0  0  0  0  0  0  0  0  0
   -3.9376    7.7863   -0.5024 N   0  0  0  0  0  0  0  0  0  0  0  0
    0.6751   -0.1589    1.4516 C   0  0  0  0  0  0  0  0  0  0  0  0
  1 10  1  0
  1 30  1  0
  2  3  2  0
  2  8  1  0
  2 21  1  0
  3  9  1  0
  4  6  1  0
  4  7  2  0
  5  7  1  0
  5  8  2  0
  5 12  1  0
  6 11  2  0
  6 13  1  0
  8 11  1  0
  9 10  1  0
  9 14  1  0
  9 18  1  0
 10 11  1  0
 14 15  1  0
 15 16  1  0
 16 17  1  0
 16 19  1  0
 17 18  1  0
 19 20  2  0
 19 22  1  0
 22 23  2  0
 22 27  1  0
 23 24  1  0
 24 25  2  0
 25 26  1  0
 25 28  1  0
 26 27  1  0
 28 29  3  0
M  END
>  <DRUGBANK_ID>  (1) 
DB06879

>  <COMMON_NAME>  (1) 
5-(4'-AMINO-1'-ETHYL-5',8'-DIFLUORO-1'H-SPIRO[PIPERIDINE-4,2'-QUINAZOLINE]-1-YLCARBONYL)PICOLINONITRILE

$$$$
