
     RDKit          3D

 13 13  0  0  1  0  0  0  0  0999 V2000
   -1.5684   -2.0187    0.2100 C   0  0  0  0  0  0  0  0  0  0  0  0
   -0.7138   -0.9038   -0.3684 C   0  0  2  0  0  0  0  0  0  0  0  0
    0.6340   -1.0687    0.1397 N   0  0  0  0  0  0  0  0  0  0  0  0
    1.5813   -0.1127   -0.0732 C   0  0  0  0  0  0  0  0  0  0  0  0
    2.7388   -0.4740   -0.2419 O   0  0  0  0  0  0  0  0  0  0  0  0
    1.1123    1.3606   -0.0557 C   0  0  2  0  0  0  0  0  0  0  0  0
    1.7684    2.1513    1.0848 C   0  0  0  0  0  0  0  0  0  0  0  0
    3.2814    2.1701    1.0851 C   0  0  0  0  0  0  0  0  0  0  0  0
    3.8331    3.3863    0.8855 O   0  0  0  0  0  0  0  0  0  0  0  0
    3.9863    1.2032    1.3303 O   0  0  0  0  0  0  0  0  0  0  0  0
   -0.3555    1.5002    0.0785 N   0  0  0  0  0  0  0  0  0  0  0  0
   -1.2700    0.4793   -0.0083 C   0  0  0  0  0  0  0  0  0  0  0  0
   -2.4696    0.7341    0.0638 O   0  0  0  0  0  0  0  0  0  0  0  0
  2  1  1  1
  2  3  1  0
  2 12  1  0
  3  4  1  0
  4  5  2  0
  6  4  1  0
  6  7  1  1
  6 11  1  0
  7  8  1  0
  8  9  1  0
  8 10  2  0
 11 12  1  0
 12 13  2  0
M  END
>  <DRUGBANK_ID>  (1) 
DB14940

>  <COMMON_NAME>  (1) 
Aspartyl-alanyl-diketopiperazine

>  <CAS_NUMBER>  (1) 
110954-19-3

>  <UNII>  (1) 
R9CHM391D5

$$$$
