
     RDKit          3D

 32 33  0  0  1  0  0  0  0  0999 V2000
    0.9279   -0.0207    0.1330 C   0  0  0  0  0  0  0  0  0  0  0  0
    0.4780    1.4252    0.2707 C   0  0  0  0  0  0  0  0  0  0  0  0
    0.9661    2.2511   -0.9198 C   0  0  0  0  0  0  0  0  0  0  0  0
    0.4130    1.6993   -2.2371 C   0  0  0  0  0  0  0  0  0  0  0  0
   -1.1221    1.7004   -2.2215 C   0  0  0  0  0  0  0  0  0  0  0  0
   -1.6643    3.1298   -2.1484 C   0  0  0  0  0  0  0  0  0  0  0  0
   -1.1338    3.9871   -3.2932 C   0  0  0  0  0  0  0  0  0  0  0  0
   -6.9512    6.5298   -9.3857 C   0  0  0  0  0  0  0  0  0  0  0  0
   -1.7167    1.5382   -6.0937 C   0  0  0  0  0  0  0  0  0  0  0  0
   -6.2017    2.8568   -7.1941 C   0  0  0  0  0  0  0  0  0  0  0  0
   -5.8765    5.5391   -8.9300 C   0  0  2  0  0  0  0  0  0  0  0  0
   -3.2642    1.4164   -6.1419 C   0  0  2  0  0  0  0  0  0  0  0  0
   -1.6378    3.4638   -4.6020 C   0  0  0  0  0  0  0  0  0  0  0  0
   -4.7973    6.2510   -8.0344 C   0  0  2  0  0  0  0  0  0  0  0  0
   -3.7717    0.2076   -6.9178 C   0  0  2  0  0  0  0  0  0  0  0  0
   -3.5798    5.3742   -7.6380 C   0  0  1  0  0  0  0  0  0  0  0  0
   -3.1179    4.5162   -8.8261 C   0  0  2  0  0  0  0  0  0  0  0  0
   -5.1541    0.6556   -7.3862 C   0  0  1  0  0  0  0  0  0  0  0  0
   -4.2947    3.7788   -9.5243 C   0  0  2  0  0  0  0  0  0  0  0  0
   -4.9385    2.1559   -7.6702 C   0  0  2  0  0  0  0  0  0  0  0  0
   -7.9712    5.8328  -10.1124 O   0  0  0  0  0  0  0  0  0  0  0  0
   -5.8951    4.1946   -6.8963 O   0  0  0  0  0  0  0  0  0  0  0  0
   -2.4925    4.0876   -5.2383 O   0  0  0  0  0  0  0  0  0  0  0  0
   -5.3810    6.8887   -6.8790 O   0  0  0  0  0  0  0  0  0  0  0  0
   -3.8124   -0.9538   -6.1002 O   0  0  0  0  0  0  0  0  0  0  0  0
   -2.5237    6.1749   -7.0684 O   0  0  0  0  0  0  0  0  0  0  0  0
   -2.1112    3.5700   -8.4833 O   0  0  0  0  0  0  0  0  0  0  0  0
   -5.6568   -0.0819   -8.4885 O   0  0  0  0  0  0  0  0  0  0  0  0
   -1.1801    2.2408   -4.9404 O   0  0  0  0  0  0  0  0  0  0  0  0
   -5.3416    4.6872   -9.9534 O   0  0  0  0  0  0  0  0  0  0  0  0
   -3.8231    2.5272   -6.8514 O   0  0  0  0  0  0  0  0  0  0  0  0
   -4.6551    2.4349   -9.0530 O   0  0  0  0  0  0  0  0  0  0  0  0
  2  1  1  0
  3  2  1  0
  4  3  1  0
  5  4  1  0
  6  5  1  0
  7  6  1  0
 11  8  1  6
 12  9  1  6
 13  7  1  0
 14 11  1  0
 14 24  1  1
 15 12  1  0
 15 25  1  1
 16 14  1  0
 16 26  1  6
 17 16  1  0
 17 27  1  1
 18 15  1  0
 18 28  1  6
 19 17  1  0
 19 32  1  1
 20 10  1  1
 20 18  1  0
 20 32  1  0
 21  8  1  0
 22 10  1  0
 23 13  2  0
 29  9  1  0
 29 13  1  0
 30 11  1  0
 30 19  1  0
 31 12  1  0
 31 20  1  0
M  END
>  <DRUGBANK_ID>  (1) 
DB03190

>  <SECONDARY_ACCESSION_NUMBERS>  (1) 
EXPT02451

>  <COMMON_NAME>  (1) 
6-o-Capryloylsucrose

>  <CAS_NUMBER>  (1) 
136152-82-4

>  <UNII>  (1) 
NA2JF794IZ

>  <SYNONYMS>  (1) 
alpha-D-Glucopyranoside, 6-O-(1-oxooctyl)-beta-D-fructofuranosyl

$$$$
