
     RDKit          3D

 14 14  0  0  0  0  0  0  0  0999 V2000
   -1.8062   -0.0191   -0.1006 C   0  0  0  0  0  0  0  0  0  0  0  0
   -1.1391   -1.2393   -0.0134 C   0  0  0  0  0  0  0  0  0  0  0  0
   -1.0322    1.1499   -0.2208 C   0  0  0  0  0  0  0  0  0  0  0  0
   -3.3168    0.0278   -0.0272 C   0  0  0  0  0  0  0  0  0  0  0  0
    0.2595   -1.2804    0.0123 C   0  0  0  0  0  0  0  0  0  0  0  0
    0.3502    1.1240   -0.1009 C   0  0  0  0  0  0  0  0  0  0  0  0
   -3.8362    0.7663    1.2199 C   0  0  0  0  0  0  0  0  0  0  0  0
    0.9877   -0.0909   -0.0049 C   0  0  0  0  0  0  0  0  0  0  0  0
   -3.4424    2.2462    1.2761 C   0  0  0  0  0  0  0  0  0  0  0  0
    2.3485   -0.0740    0.0475 O   0  0  0  0  0  0  0  0  0  0  0  0
   -3.8719    2.9994    0.0049 C   0  0  0  0  0  0  0  0  0  0  0  0
   -5.3915    3.1146   -0.0873 C   0  0  0  0  0  0  0  0  0  0  0  0
   -5.9731    3.8512    1.1172 C   0  0  0  0  0  0  0  0  0  0  0  0
   -5.4065    5.2592    1.2196 C   0  0  0  0  0  0  0  0  0  0  0  0
  1  2  2  0
  1  3  1  0
  1  4  1  0
  2  5  1  0
  3  6  2  0
  4  7  1  0
  5  8  2  0
  6  8  1  0
  7  9  1  0
  8 10  1  0
  9 11  1  0
 11 12  1  0
 12 13  1  0
 13 14  1  0
M  END
>  <DRUGBANK_ID>  (1) 
DB03941

>  <SECONDARY_ACCESSION_NUMBERS>  (1) 
EXPT01353

>  <COMMON_NAME>  (1) 
p-Heptylphenol

>  <CAS_NUMBER>  (1) 
1987-50-4

>  <UNII>  (1) 
I743Z35DVB

>  <SYNONYMS>  (1) 
4-Heptylphenol; 4-n-Heptylphenol; p-Hydroxyheptylbenzene

$$$$
