U55
     RDKit          3D

 18 19  0  0  0  0  0  0  0  0999 V2000
    2.3137    0.1183    0.1390 N   0  0  0  0  0  0  0  0  0  0  0  0
    0.9352    0.0870    0.0198 C   0  0  0  0  0  0  0  0  0  0  0  0
    0.3804   -1.1289    0.0119 N   0  0  0  0  0  0  0  0  0  0  0  0
   -0.9549   -1.1646    0.0173 C   0  0  0  0  0  0  0  0  0  0  0  0
   -1.7655   -0.1077   -0.0035 N   0  0  0  0  0  0  0  0  0  0  0  0
    0.1822    1.2467    0.0406 C   0  0  0  0  0  0  0  0  0  0  0  0
   -1.1941    1.1070   -0.0074 C   0  0  0  0  0  0  0  0  0  0  0  0
   -2.0265    2.2232   -0.1902 N   0  0  0  0  0  0  0  0  0  0  0  0
   -3.4345    2.2109   -0.1527 C   0  0  0  0  0  0  0  0  0  0  0  0
   -4.1417    1.5784    0.8809 C   0  0  0  0  0  0  0  0  0  0  0  0
   -5.5414    1.5359    0.8861 C   0  0  0  0  0  0  0  0  0  0  0  0
   -4.1603    2.8356   -1.1716 C   0  0  0  0  0  0  0  0  0  0  0  0
   -5.5608    2.8318   -1.1575 C   0  0  0  0  0  0  0  0  0  0  0  0
   -6.2482    2.1479   -0.1481 C   0  0  0  0  0  0  0  0  0  0  0  0
   -8.0140    2.0445   -0.2675 S   0  0  0  0  0  0  0  0  0  0  0  0
   -8.5601    3.3564   -0.0463 O   0  0  0  0  0  0  0  0  0  0  0  0
   -8.3366    1.2589   -1.4431 O   0  0  0  0  0  0  0  0  0  0  0  0
   -8.5058    1.1238    1.0584 N   0  0  0  0  0  0  0  0  0  0  0  0
  1  2  1  0
  2  3  2  0
  2  6  1  0
  3  4  1  0
  4  5  2  0
  5  7  1  0
  6  7  2  0
  7  8  1  0
  8  9  1  0
  9 10  2  0
  9 12  1  0
 10 11  1  0
 11 14  2  0
 12 13  2  0
 13 14  1  0
 14 15  1  0
 15 16  2  0
 15 17  2  0
 15 18  1  0
M  END
>  <DRUGBANK_ID>  (1) 
DB03307

>  <SECONDARY_ACCESSION_NUMBERS>  (1) 
EXPT03161

>  <COMMON_NAME>  (1) 
4-[(6-Amino-4-Pyrimidinyl)Amino]Benzenesulfonamide

$$$$
