
     RDKit          3D

 35 38  0  0  0  0  0  0  0  0999 V2000
    0.4993    0.3778    0.2633 C   0  0  0  0  0  0  0  0  0  0  0  0
    0.2449    0.5538   -1.1292 O   0  0  0  0  0  0  0  0  0  0  0  0
    0.8061    1.7088   -1.5892 C   0  0  0  0  0  0  0  0  0  0  0  0
    2.1581    2.0171   -1.5057 C   0  0  0  0  0  0  0  0  0  0  0  0
    3.1784    1.2084   -1.0527 O   0  0  0  0  0  0  0  0  0  0  0  0
    3.0480   -0.2238   -0.9873 C   0  0  0  0  0  0  0  0  0  0  0  0
    2.5225    3.3385   -1.8467 C   0  0  0  0  0  0  0  0  0  0  0  0
    1.5870    4.3212   -2.3185 C   0  0  0  0  0  0  0  0  0  0  0  0
    0.2658    3.9260   -2.4834 C   0  0  0  0  0  0  0  0  0  0  0  0
   -0.7907    4.8470   -3.0115 C   0  0  0  0  0  0  0  0  0  0  0  0
   -0.3641    6.2541   -3.3871 C   0  0  0  0  0  0  0  0  0  0  0  0
    1.0169    6.6203   -3.1852 N   0  0  0  0  0  0  0  0  0  0  0  0
    1.3286    7.9448   -3.5357 C   0  0  0  0  0  0  0  0  0  0  0  0
    0.4605    8.7114   -3.9635 O   0  0  0  0  0  0  0  0  0  0  0  0
    2.6573    8.3347   -3.3831 N   0  0  0  0  0  0  0  0  0  0  0  0
    3.0013    9.7287   -3.7942 C   0  0  0  0  0  0  0  0  0  0  0  0
    3.5646   10.6135   -2.6588 C   0  0  0  0  0  0  0  0  0  0  0  0
    4.8965   10.1909   -2.2942 N   0  0  0  0  0  0  0  0  0  0  0  0
    6.0578   10.8850   -2.3611 C   0  0  0  0  0  0  0  0  0  0  0  0
    7.1790   10.1300   -2.1805 N   0  0  0  0  0  0  0  0  0  0  0  0
    6.1317   12.0769   -2.4949 O   0  0  0  0  0  0  0  0  0  0  0  0
    3.6163    7.4631   -2.8958 C   0  0  0  0  0  0  0  0  0  0  0  0
    3.1655    6.1479   -2.4490 C   0  0  0  0  0  0  0  0  0  0  0  0
    1.9297    5.7287   -2.6618 C   0  0  0  0  0  0  0  0  0  0  0  0
    4.8627    7.8096   -2.8204 N   0  0  0  0  0  0  0  0  0  0  0  0
    5.8450    6.9712   -2.2639 C   0  0  0  0  0  0  0  0  0  0  0  0
    6.2657    5.8282   -2.9892 C   0  0  0  0  0  0  0  0  0  0  0  0
    5.5685    5.3365   -4.2405 C   0  0  0  0  0  0  0  0  0  0  0  0
    7.3141    5.0605   -2.4767 C   0  0  0  0  0  0  0  0  0  0  0  0
    8.0014    5.4703   -1.3322 C   0  0  0  0  0  0  0  0  0  0  0  0
    9.1550    4.7002   -0.7822 C   0  0  0  0  0  0  0  0  0  0  0  0
    7.6022    6.6125   -0.6461 C   0  0  0  0  0  0  0  0  0  0  0  0
    6.4754    7.3285   -1.0345 C   0  0  0  0  0  0  0  0  0  0  0  0
    6.1254    8.4605   -0.0829 C   0  0  0  0  0  0  0  0  0  0  0  0
   -0.1096    2.6253   -2.1259 C   0  0  0  0  0  0  0  0  0  0  0  0
  1  2  1  0
  2  3  1  0
  3  4  2  0
  3 35  1  0
  4  5  1  0
  4  7  1  0
  5  6  1  0
  7  8  2  0
  8  9  1  0
  8 24  1  0
  9 10  1  0
  9 35  2  0
 10 11  1  0
 11 12  1  0
 12 13  1  0
 12 24  1  0
 13 14  2  0
 13 15  1  0
 15 16  1  0
 15 22  1  0
 16 17  1  0
 17 18  1  0
 18 19  1  0
 19 20  1  0
 19 21  2  0
 22 23  1  0
 22 25  2  0
 23 24  2  0
 25 26  1  0
 26 27  2  0
 26 33  1  0
 27 28  1  0
 27 29  1  0
 29 30  2  0
 30 31  1  0
 30 32  1  0
 32 33  2  0
 33 34  1  0
M  END
>  <DRUGBANK_ID>  (1) 
DB16157

>  <COMMON_NAME>  (1) 
Ensifentrine

>  <CAS_NUMBER>  (1) 
1884461-72-6

>  <UNII>  (1) 
3E3D8T1GIX

>  <SYNONYMS>  (1) 
Ensifentrine

$$$$
