
     RDKit          3D

 14 13  0  0  1  0  0  0  0  0999 V2000
   -1.3918    5.1169   -0.8291 N   0  0  0  0  0  0  0  0  0  0  0  0
   -1.6252    3.7787   -0.2794 C   0  0  1  0  0  0  0  0  0  0  0  0
   -0.9821    2.7030   -1.2078 C   0  0  0  0  0  0  0  0  0  0  0  0
    0.5710    2.5989   -1.2781 C   0  0  2  0  0  0  0  0  0  0  0  0
    1.1883    2.2296    0.0804 C   0  0  0  0  0  0  0  0  0  0  0  0
    0.3791    1.1696    0.8546 C   0  0  0  0  0  0  0  0  0  0  0  0
    0.4574   -0.1555    0.1271 C   0  0  0  0  0  0  0  0  0  0  0  0
    1.7596   -0.5291    0.0587 F   0  0  0  0  0  0  0  0  0  0  0  0
    1.2282    3.8736   -1.8157 C   0  0  0  0  0  0  0  0  0  0  0  0
    1.8527    3.7494   -3.0059 O   0  0  0  0  0  0  0  0  0  0  0  0
    1.1916    4.9496   -1.2493 O   0  0  0  0  0  0  0  0  0  0  0  0
   -1.2495    3.7949    1.2447 C   0  0  0  0  0  0  0  0  0  0  0  0
   -2.2256    3.3891    2.0858 O   0  0  0  0  0  0  0  0  0  0  0  0
   -0.1658    4.1353    1.7127 O   0  0  0  0  0  0  0  0  0  0  0  0
  2  1  1  6
  2  3  1  0
  2 12  1  0
  4  9  1  0
  4  5  1  1
  4  3  1  0
  5  6  1  0
  6  7  1  0
  7  8  1  0
  9 10  1  0
  9 11  2  0
 12 13  1  0
 12 14  2  0
M  ISO  1   8  18
M  END
>  <DRUGBANK_ID>  (1) 
DB15041

>  <COMMON_NAME>  (1) 
Florilglutamic acid F-18

>  <CAS_NUMBER>  (1) 
1196963-74-2

>  <UNII>  (1) 
92T1Y5X038

>  <SYNONYMS>  (1) 
[F18] Florilglutamic Acid; 18F-FSPG

$$$$
