794
     RDKit          3D

 16 17  0  0  0  0  0  0  0  0999 V2000
    1.1803   -0.2808   -0.2740 O   0  0  0  0  0  0  0  0  0  0  0  0
    4.4989    1.9710    1.8835 O   0  0  0  0  0  0  0  0  0  0  0  0
    3.2265   -1.2455   -0.0381 N   0  0  0  0  0  0  0  0  0  0  0  0
    4.9397   -0.0825    1.0244 N   0  0  0  0  0  0  0  0  0  0  0  0
    3.1658    1.1893   -0.0628 C   0  0  0  0  0  0  0  0  0  0  0  0
    3.9855    1.1835   -1.4033 C   0  0  0  0  0  0  0  0  0  0  0  0
    2.3151    2.4596    0.0689 C   0  0  0  0  0  0  0  0  0  0  0  0
    2.3846   -0.1409   -0.0821 C   0  0  0  0  0  0  0  0  0  0  0  0
    4.2188    1.0971    1.0639 C   0  0  0  0  0  0  0  0  0  0  0  0
    4.1501   -1.2700    1.0484 C   0  0  0  0  0  0  0  0  0  0  0  0
    3.1175    1.0999   -2.6624 C   0  0  0  0  0  0  0  0  0  0  0  0
    1.4449    2.6124    1.1537 C   0  0  0  0  0  0  0  0  0  0  0  0
    2.4361    3.5470   -0.8260 C   0  0  0  0  0  0  0  0  0  0  0  0
    0.7200    3.7945    1.3190 C   0  0  0  0  0  0  0  0  0  0  0  0
    1.6986    4.7143   -0.6771 C   0  0  0  0  0  0  0  0  0  0  0  0
    0.8325    4.8341    0.3959 C   0  0  0  0  0  0  0  0  0  0  0  0
  1  8  2  0
  2  9  2  0
  3  8  1  0
  3 10  1  0
  4  9  1  0
  4 10  1  0
  5  6  1  0
  5  7  1  0
  5  8  1  0
  5  9  1  0
  6 11  1  0
  7 12  2  0
  7 13  1  0
 12 14  1  0
 13 15  2  0
 14 16  2  0
 15 16  1  0
M  END
>  <DRUGBANK_ID>  (1) 
DB00794

>  <SECONDARY_ACCESSION_NUMBERS>  (1) 
APRD00549

>  <COMMON_NAME>  (1) 
Primidone

>  <CAS_NUMBER>  (1) 
125-33-7

>  <UNII>  (1) 
13AFD7670Q

>  <SYNONYMS>  (1) 
2-deoxyphenobarbital; 5-Phenyl-5-ethyl-Hexahydropyrimidine-4,6-dione; Primidon; Primidona; Primidone; Primidonum

$$$$
