
     RDKit          3D

 30 33  0  0  1  0  0  0  0  0999 V2000
   -4.0257   -0.5504   -0.7811 C   0  0  0  0  0  0  0  0  0  0  0  0
   -4.2606   -1.7145    0.3046 C   0  0  1  0  0  0  0  0  0  0  0  0
   -3.4451   -3.0926    0.3598 C   0  0  0  0  0  0  0  0  0  0  0  0
   -2.3656   -2.8254   -0.6044 C   0  0  2  0  0  0  0  0  0  0  0  0
   -2.0370   -3.7896   -1.8647 C   0  0  0  0  0  0  0  0  0  0  0  0
   -1.2374   -2.6880   -3.1260 S   0  0  0  0  0  0  0  0  0  0  0  0
   -0.4376   -1.8704   -1.7885 C   0  0  0  0  0  0  0  0  0  0  0  0
    0.4322   -2.7376   -1.1524 N   0  0  0  0  0  0  0  0  0  0  0  0
   -1.1390   -0.9050   -1.2567 N   0  0  0  0  0  0  0  0  0  0  0  0
   -1.4511   -1.3856    0.1493 C   0  0  1  0  0  0  0  0  0  0  0  0
   -2.5022   -0.5562    1.2542 C   0  0  0  0  0  0  0  0  0  0  0  0
   -3.8138   -1.0982    1.4908 O   0  0  0  0  0  0  0  0  0  0  0  0
   -0.0748   -0.7761    0.8689 C   0  0  0  0  0  0  0  0  0  0  0  0
    0.5455    0.4017    0.5387 N   0  0  0  0  0  0  0  0  0  0  0  0
    1.4859    0.8597    1.5168 C   0  0  0  0  0  0  0  0  0  0  0  0
    2.3585    1.9787    1.3762 N   0  0  0  0  0  0  0  0  0  0  0  0
    3.5187    2.3899    2.1258 C   0  0  0  0  0  0  0  0  0  0  0  0
    4.0906    3.4163    1.8659 O   0  0  0  0  0  0  0  0  0  0  0  0
    4.1214    1.4993    3.1980 C   0  0  0  0  0  0  0  0  0  0  0  0
    4.4319    2.0549    4.4032 N   0  0  0  0  0  0  0  0  0  0  0  0
    4.8111    1.1960    5.3977 C   0  0  0  0  0  0  0  0  0  0  0  0
    4.8212   -0.1916    5.2773 C   0  0  0  0  0  0  0  0  0  0  0  0
    5.1217   -0.9289    6.3864 O   0  0  0  0  0  0  0  0  0  0  0  0
    5.0829   -2.3512    6.2621 C   0  0  0  0  0  0  0  0  0  0  0  0
    3.8208   -2.7458    5.9588 F   0  0  0  0  0  0  0  0  0  0  0  0
    5.9000   -2.7562    5.2583 F   0  0  0  0  0  0  0  0  0  0  0  0
    4.5188   -0.7066    4.0236 C   0  0  0  0  0  0  0  0  0  0  0  0
    4.2694    0.1491    2.9522 C   0  0  0  0  0  0  0  0  0  0  0  0
    1.3992    0.0669    2.6362 C   0  0  0  0  0  0  0  0  0  0  0  0
    0.4542   -1.3517    2.3973 S   0  0  0  0  0  0  0  0  0  0  0  0
  2  3  1  0
  2 12  1  0
  2  1  1  6
  4  3  1  1
  4  5  1  0
  4 10  1  0
  5  6  1  0
  6  7  1  0
  7  9  2  0
  7  8  1  0
 10  9  1  0
 10 11  1  0
 10 13  1  1
 11 12  1  0
 13 14  2  0
 13 30  1  0
 14 15  1  0
 15 16  1  0
 15 29  2  0
 16 17  1  0
 17 18  2  0
 17 19  1  0
 19 20  2  0
 19 28  1  0
 20 21  1  0
 21 22  2  0
 22 23  1  0
 22 27  1  0
 23 24  1  0
 24 25  1  0
 24 26  1  0
 27 28  2  0
 29 30  1  0
M  END
>  <DRUGBANK_ID>  (1) 
DB15105

>  <COMMON_NAME>  (1) 
PF-06751979

>  <CAS_NUMBER>  (1) 
1818339-66-0

>  <UNII>  (1) 
1Y0Y126GUG

$$$$
