
     RDKit          3D

 32 35  0  0  0  0  0  0  0  0999 V2000
    2.5967   -0.1613   -0.1480 C   0  0  0  0  0  0  0  0  0  0  0  0
   -0.8399    0.4690    2.1568 C   0  0  0  0  0  0  0  0  0  0  0  0
   -0.1869    1.8344    2.2126 C   0  0  0  0  0  0  0  0  0  0  0  0
   -1.6343   -4.0185    1.7508 C   0  0  0  0  0  0  0  0  0  0  0  0
   -3.7013   -2.9478    2.3365 C   0  0  0  0  0  0  0  0  0  0  0  0
   -2.2811   -4.7796    0.7707 C   0  0  0  0  0  0  0  0  0  0  0  0
   -4.3589   -3.7073    1.3441 C   0  0  0  0  0  0  0  0  0  0  0  0
   -0.0509   -1.1117    4.6999 C   0  0  0  0  0  0  0  0  0  0  0  0
   -0.2389   -1.9997    3.6153 C   0  0  0  0  0  0  0  0  0  0  0  0
   -2.0931    0.1815    1.3667 C   0  0  0  0  0  0  0  0  0  0  0  0
   -1.1011    2.9026    2.6511 C   0  0  0  0  0  0  0  0  0  0  0  0
    0.4847   -1.3570   -0.1595 C   0  0  0  0  0  0  0  0  0  0  0  0
    0.5701    1.0069   -0.3878 C   0  0  0  0  0  0  0  0  0  0  0  0
   -1.0636   -1.2440   -0.3775 C   0  0  0  0  0  0  0  0  0  0  0  0
   -0.9904    1.1399   -0.5617 C   0  0  0  0  0  0  0  0  0  0  0  0
   -1.5312   -0.4666    6.6808 C   0  0  0  0  0  0  0  0  0  0  0  0
   -1.3132    3.2145    6.2885 C   0  0  0  0  0  0  0  0  0  0  0  0
   -2.3362   -3.1499    2.6135 C   0  0  0  0  0  0  0  0  0  0  0  0
   -3.6519   -4.6496    0.5986 C   0  0  0  0  0  0  0  0  0  0  0  0
   -1.1943   -1.1807    5.4647 C   0  0  0  0  0  0  0  0  0  0  0  0
   -1.5538   -2.4276    3.6423 C   0  0  0  0  0  0  0  0  0  0  0  0
   -1.1993    3.7892    4.8881 C   0  0  0  0  0  0  0  0  0  0  0  0
   -1.7721    1.6971    4.7062 C   0  0  0  0  0  0  0  0  0  0  0  0
   -4.4643   -5.6682   -0.5254 Cl  0  0  0  0  0  0  0  0  0  0  0  0
   -1.5220    0.8195    6.9711 N   0  0  0  0  0  0  0  0  0  0  0  0
    1.2455   -0.2349   -0.7650 N   0  0  0  0  0  0  0  0  0  0  0  0
   -1.7778    0.0145   -0.0523 N   0  0  0  0  0  0  0  0  0  0  0  0
   -1.2467    2.7502    4.0408 N   0  0  0  0  0  0  0  0  0  0  0  0
   -1.3103    1.7845    6.0093 N   0  0  0  0  0  0  0  0  0  0  0  0
   -1.1766    4.9625    4.5527 O   0  0  0  0  0  0  0  0  0  0  0  0
   -2.5960    0.8817    4.2741 O   0  0  0  0  0  0  0  0  0  0  0  0
   -2.1175   -2.0154    4.8338 O   0  0  0  0  0  0  0  0  0  0  0  0
  3  2  1  0
  6  4  2  0
  7  5  1  0
  9  8  1  0
 10  2  1  0
 11  3  1  0
 14 12  1  0
 15 13  1  0
 18  4  1  0
 18  5  2  0
 19  6  1  0
 19  7  2  0
 20  8  2  0
 20 16  1  0
 21  9  2  0
 21 18  1  0
 22 17  1  0
 24 19  1  0
 25 16  2  3
 25 29  1  0
 26  1  1  0
 26 12  1  0
 26 13  1  0
 27 10  1  0
 27 14  1  0
 27 15  1  0
 28 11  1  0
 28 22  1  0
 28 23  1  0
 29 17  1  0
 29 23  1  0
 30 22  2  0
 31 23  2  0
 32 20  1  0
 32 21  1  0
M  END
>  <DRUGBANK_ID>  (1) 
DB04957

>  <COMMON_NAME>  (1) 
Azimilide

>  <CAS_NUMBER>  (1) 
149908-53-2

>  <UNII>  (1) 
74QU6P2934

>  <SYNONYMS>  (1) 
Azimilide

$$$$
