
     RDKit          3D

 31 33  0  0  0  0  0  0  0  0999 V2000
   -3.1315    6.1125    0.5844 S   0  0  0  0  0  0  0  0  0  0  0  0
   -7.1877    0.7020   -0.2853 O   0  0  0  0  0  0  0  0  0  0  0  0
   -2.1656    2.3669    0.1023 O   0  0  0  0  0  0  0  0  0  0  0  0
   -5.2588    4.3852    1.7109 O   0  0  0  0  0  0  0  0  0  0  0  0
   -2.9263    7.0580   -3.2074 O   0  0  0  0  0  0  0  0  0  0  0  0
   -5.7619    3.3499   -0.2280 N   0  0  0  0  0  0  0  0  0  0  0  0
   -2.6500    3.8616   -1.4141 N   0  0  0  0  0  0  0  0  0  0  0  0
   -3.5128    8.2691   -0.7160 N   0  0  0  0  0  0  0  0  0  0  0  0
   -5.6073    2.9821   -4.6954 N   0  0  0  0  0  0  0  0  0  0  0  0
   -3.4563    2.3188   -3.9903 N   0  0  0  0  0  0  0  0  0  0  0  0
   -4.9338    0.7768   -4.4520 N   0  0  0  0  0  0  0  0  0  0  0  0
   -4.6034    2.4282   -0.1747 C   0  0  1  0  0  0  0  0  0  0  0  0
   -5.0218    1.2928   -1.1280 C   0  0  0  0  0  0  0  0  0  0  0  0
   -6.5345    1.4208   -1.3145 C   0  0  2  0  0  0  0  0  0  0  0  0
   -6.8266    2.8928   -1.1275 C   0  0  0  0  0  0  0  0  0  0  0  0
   -3.0989    2.9580   -0.4690 C   0  0  0  0  0  0  0  0  0  0  0  0
   -5.8842    4.3879    0.6787 C   0  0  0  0  0  0  0  0  0  0  0  0
   -3.2465    4.8912   -2.3254 C   0  0  1  0  0  0  0  0  0  0  0  0
   -4.7230    4.6568   -2.3549 C   0  0  0  0  0  0  0  0  0  0  0  0
   -6.7402    5.5862    0.2393 C   0  0  0  0  0  0  0  0  0  0  0  0
   -5.6809    5.1410   -3.4054 C   0  0  0  0  0  0  0  0  0  0  0  0
   -3.0380    6.3987   -2.1643 C   0  0  0  0  0  0  0  0  0  0  0  0
   -5.3837    4.4494   -4.7242 C   0  0  0  0  0  0  0  0  0  0  0  0
   -3.2349    6.9953   -0.8647 C   0  0  0  0  0  0  0  0  0  0  0  0
   -3.9249    7.3750    1.4135 C   0  0  0  0  0  0  0  0  0  0  0  0
   -3.8033    8.5058    0.6114 C   0  0  0  0  0  0  0  0  0  0  0  0
   -4.4920    7.4075    2.6937 C   0  0  0  0  0  0  0  0  0  0  0  0
   -3.9643    9.7571    1.2075 C   0  0  0  0  0  0  0  0  0  0  0  0
   -4.7213    2.1033   -4.4015 C   0  0  0  0  0  0  0  0  0  0  0  0
   -4.6781    8.6677    3.2583 C   0  0  0  0  0  0  0  0  0  0  0  0
   -4.3512    9.8224    2.5477 C   0  0  0  0  0  0  0  0  0  0  0  0
  1 24  1  0
  1 25  1  0
  3 16  2  0
  4 17  2  0
  5 22  2  0
  6 12  1  0
  6 15  1  0
  6 17  1  0
  7 16  1  0
  8 24  2  0
  8 26  1  0
  9 23  1  0
  9 29  2  3
 10 29  1  0
 11 29  1  0
 12 13  1  0
 12 16  1  6
 13 14  1  0
 14  2  1  1
 14 15  1  0
 17 20  1  0
 18  7  1  0
 18 19  1  1
 18 22  1  0
 19 21  1  0
 21 23  1  0
 22 24  1  0
 25 26  2  0
 25 27  1  0
 26 28  1  0
 27 30  2  0
 28 31  2  0
 30 31  1  0
M  END
>  <DRUGBANK_ID>  (1) 
DB02812

>  <SECONDARY_ACCESSION_NUMBERS>  (1) 
EXPT00391

>  <COMMON_NAME>  (1) 
RWJ-56423

>  <SYNONYMS>  (1) 
(2S,4R)-1-acetyl-N-[(2S)-1-(1,3-benzothiazol-2-yl)-5-(diaminomethylideneamino)-1-oxopentan-2-yl]-4-hydroxypyrrolidine-2-carboxamide

$$$$
