1213
     RDKit          3D

  6  6  0  0  0  0  0  0  0  0999 V2000
   -1.2487    0.6867   -0.0014 N   0  0  0  0  0  0  0  0  0  0  0  0
   -1.3499   -0.6516    0.0006 N   0  0  0  0  0  0  0  0  0  0  0  0
    0.8399    0.0097   -0.0004 C   0  0  0  0  0  0  0  0  0  0  0  0
    0.0402    1.1323    0.0012 C   0  0  0  0  0  0  0  0  0  0  0  0
    2.3168   -0.0621   -0.0054 C   0  0  0  0  0  0  0  0  0  0  0  0
   -0.0800   -1.0633    0.0014 C   0  0  0  0  0  0  0  0  0  0  0  0
  1  2  1  0
  1  4  1  0
  2  6  2  0
  3  4  2  0
  3  5  1  0
  3  6  1  0
M  END
>  <DRUGBANK_ID>  (1) 
DB01213

>  <SECONDARY_ACCESSION_NUMBERS>  (1) 
APRD00985

>  <COMMON_NAME>  (1) 
Fomepizole

>  <CAS_NUMBER>  (1) 
7554-65-6

>  <UNII>  (1) 
83LCM6L2BY

>  <SYNONYMS>  (1) 
4-methylpyrazol; 4-methylpyrazole; Fomepizol; Fomepizole; Fomepizolum

$$$$
