
     RDKit          3D

 11 11  0  0  0  0  0  0  0  0999 V2000
    0.2248   -1.2401    0.0154 C   0  0  0  0  0  0  0  0  0  0  0  0
    0.9582   -0.0551    0.0073 C   0  0  0  0  0  0  0  0  0  0  0  0
    0.3239    1.1699   -0.0638 C   0  0  0  0  0  0  0  0  0  0  0  0
   -1.0619    1.2157   -0.1588 C   0  0  0  0  0  0  0  0  0  0  0  0
   -1.8383    0.0447   -0.0820 C   0  0  0  0  0  0  0  0  0  0  0  0
   -1.1746   -1.1873   -0.0130 C   0  0  0  0  0  0  0  0  0  0  0  0
    2.3203   -0.0477    0.0498 O   0  0  0  0  0  0  0  0  0  0  0  0
   -3.5236    2.2630    1.3178 N   0  0  0  0  0  0  0  0  0  0  0  0
   -3.9228    0.8470    1.1964 C   0  0  0  0  0  0  0  0  0  0  0  0
   -3.3535    0.1171   -0.0562 C   0  0  0  0  0  0  0  0  0  0  0  0
   -3.8063    0.7584   -1.2484 O   0  0  0  0  0  0  0  0  0  0  0  0
  1  2  2  0
  1  6  1  0
  2  3  1  0
  2  7  1  0
  3  4  2  0
  4  5  1  0
  5  6  2  0
  5 10  1  0
  8  9  1  0
  9 10  1  0
 10 11  1  0
M  END
>  <DRUGBANK_ID>  (1) 
DB13251

>  <COMMON_NAME>  (1) 
Octopamine

>  <CAS_NUMBER>  (1) 
104-14-3

>  <UNII>  (1) 
14O50WS8JD

>  <SYNONYMS>  (1) 
Octopamine

$$$$
