FOS
     RDKit          3D

 16 16  0  0  0  0  0  0  0  0999 V2000
    1.3700   -0.2187    0.0346 C   0  0  0  0  0  0  0  0  0  0  0  0
    0.4777   -1.2998    0.0256 C   0  0  0  0  0  0  0  0  0  0  0  0
   -0.8976   -1.0816   -0.0044 C   0  0  0  0  0  0  0  0  0  0  0  0
   -1.3930    0.2201    0.0016 C   0  0  0  0  0  0  0  0  0  0  0  0
   -0.5142    1.3027    0.0347 C   0  0  0  0  0  0  0  0  0  0  0  0
    0.8635    1.0864    0.0051 C   0  0  0  0  0  0  0  0  0  0  0  0
    2.8564   -0.4753    0.0785 C   0  0  0  0  0  0  0  0  0  0  0  0
    3.5529    0.1006   -1.0364 O   0  0  0  0  0  0  0  0  0  0  0  0
    3.2729   -0.4426   -2.2432 C   0  0  0  0  0  0  0  0  0  0  0  0
    2.4985   -1.3731   -2.4542 O   0  0  0  0  0  0  0  0  0  0  0  0
    3.8939    0.1747   -3.2873 N   0  0  0  0  0  0  0  0  0  0  0  0
    4.9923    1.1393   -3.1871 C   0  0  0  0  0  0  0  0  0  0  0  0
    6.6035    0.5264   -3.8013 P   0  0  0  0  0  0  0  0  0  0  0  0
    6.5513   -0.6324   -2.8077 O   0  0  0  0  0  0  0  0  0  0  0  0
    5.9458    0.0676   -5.2311 O   0  0  0  0  0  0  0  0  0  0  0  0
    8.1267   -0.0529   -4.3820 O   0  0  0  0  0  0  0  0  0  0  0  0
  1  2  2  0
  1  6  1  0
  1  7  1  0
  2  3  1  0
  3  4  2  0
  4  5  1  0
  5  6  2  0
  7  8  1  0
  8  9  1  0
  9 10  2  0
  9 11  1  0
 11 12  1  0
 12 13  1  0
 13 14  2  0
 13 15  1  0
 13 16  1  0
M  END
>  <DRUGBANK_ID>  (1) 
DB02642

>  <SECONDARY_ACCESSION_NUMBERS>  (1) 
EXPT01473

>  <COMMON_NAME>  (1) 
[[N-(Benzyloxycarbonyl)Amino]Methyl]Phosphate

$$$$
