5HE
     RDKit          3D

 23 22  0  0  0  0  0  0  0  0999 V2000
    1.0045   -0.1044    0.0367 C   0  0  0  0  0  0  0  0  0  0  0  0
    0.5470    0.8847    1.0849 C   0  0  0  0  0  0  0  0  0  0  0  0
    0.9467    2.2832    0.7159 C   0  0  0  0  0  0  0  0  0  0  0  0
    0.0730    3.2660    0.4705 C   0  0  0  0  0  0  0  0  0  0  0  0
   -1.4002    3.0683    0.5113 C   0  0  0  0  0  0  0  0  0  0  0  0
   -2.0523    3.9931    1.4805 C   0  0  0  0  0  0  0  0  0  0  0  0
   -3.0411    4.8168    1.1260 C   0  0  0  0  0  0  0  0  0  0  0  0
   -3.5223    4.9110   -0.2774 C   0  0  0  0  0  0  0  0  0  0  0  0
   -4.9808    4.6418   -0.3787 C   0  0  0  0  0  0  0  0  0  0  0  0
   -5.8262    5.5189   -0.9237 C   0  0  0  0  0  0  0  0  0  0  0  0
   -5.3801    6.8522   -1.4131 C   0  0  0  0  0  0  0  0  0  0  0  0
   -5.7513    7.0683   -2.8393 C   0  0  0  0  0  0  0  0  0  0  0  0
   -6.5057    8.0892   -3.2564 C   0  0  0  0  0  0  0  0  0  0  0  0
   -7.0350    9.0526   -2.3353 C   0  0  0  0  0  0  0  0  0  0  0  0
   -7.8318   10.0606   -2.6726 C   0  0  0  0  0  0  0  0  0  0  0  0
   -8.2667   11.0463   -1.6328 C   0  0  1  0  0  0  0  0  0  0  0  0
   -7.8008   12.4505   -2.0211 C   0  0  0  0  0  0  0  0  0  0  0  0
   -8.3230   12.9541   -3.3769 C   0  0  0  0  0  0  0  0  0  0  0  0
   -9.8428   13.0741   -3.4985 C   0  0  0  0  0  0  0  0  0  0  0  0
  -10.4419   13.9530   -2.4121 C   0  0  0  0  0  0  0  0  0  0  0  0
  -11.2211   14.9450   -2.8938 O   0  0  0  0  0  0  0  0  0  0  0  0
  -10.2740   13.8145   -1.2175 O   0  0  0  0  0  0  0  0  0  0  0  0
   -9.6675   10.9440   -1.4640 O   0  0  0  0  0  0  0  0  0  0  0  0
  1  2  1  0
  2  3  1  0
  3  4  2  0
  4  5  1  0
  5  6  1  0
  6  7  2  0
  7  8  1  0
  8  9  1  0
  9 10  2  0
 10 11  1  0
 11 12  1  0
 12 13  2  0
 13 14  1  0
 14 15  2  0
 15 16  1  0
 16 17  1  0
 16 23  1  6
 17 18  1  0
 18 19  1  0
 19 20  1  0
 20 21  1  0
 20 22  2  0
M  END
>  <DRUGBANK_ID>  (1) 
DB07172

>  <COMMON_NAME>  (1) 
(5R,6E,8Z,11Z,14Z,17Z)-5-hydroxyicosa-6,8,11,14,17-pentaenoic acid

$$$$
