
     RDKit          3D

 22 24  0  0  0  0  0  0  0  0999 V2000
    0.9787    1.4424   -0.0822 C   0  0  0  0  0  0  0  0  0  0  0  0
    2.1280    0.6866   -0.0701 C   0  0  0  0  0  0  0  0  0  0  0  0
    1.9095   -0.6258    0.4877 N   0  0  0  0  0  0  0  0  0  0  0  0
    0.6599   -1.6051    0.0087 S   0  0  0  0  0  0  0  0  0  0  0  0
   -0.3419    0.8092   -0.0223 C   0  0  0  0  0  0  0  0  0  0  0  0
   -0.6129   -0.5434   -0.0109 C   0  0  0  0  0  0  0  0  0  0  0  0
   -1.9303   -0.9932   -0.0013 C   0  0  0  0  0  0  0  0  0  0  0  0
   -2.7512    0.0952    0.0066 C   0  0  0  0  0  0  0  0  0  0  0  0
   -1.8779    1.5906    0.0013 S   0  0  0  0  0  0  0  0  0  0  0  0
    3.5895    1.3058   -0.1589 C   0  0  0  0  0  0  0  0  0  0  0  0
    3.6510    2.5423   -0.0176 O   0  0  0  0  0  0  0  0  0  0  0  0
    4.8263    0.6160   -0.2775 N   0  0  0  0  0  0  0  0  0  0  0  0
    5.2017   -0.7682   -0.5077 C   0  0  0  0  0  0  0  0  0  0  0  0
    4.5363   -1.5210   -1.4717 C   0  0  0  0  0  0  0  0  0  0  0  0
    4.4077   -2.9343   -1.3126 C   0  0  0  0  0  0  0  0  0  0  0  0
    4.9594   -3.5739   -0.2013 C   0  0  0  0  0  0  0  0  0  0  0  0
    5.7139   -2.7814    0.6506 C   0  0  0  0  0  0  0  0  0  0  0  0
    5.8811   -1.4115    0.5021 N   0  0  0  0  0  0  0  0  0  0  0  0
    2.9608   -1.4643    0.8589 C   0  0  0  0  0  0  0  0  0  0  0  0
    0.9460    2.8262   -0.1246 O   0  0  0  0  0  0  0  0  0  0  0  0
    0.8264   -2.0664   -1.3356 O   0  0  0  0  0  0  0  0  0  0  0  0
    0.3941   -2.5169    1.1229 O   0  0  0  0  0  0  0  0  0  0  0  0
  1  2  2  0
  1 20  1  0
  2 10  1  0
  2  3  1  0
  3  4  1  0
  3 19  1  0
  4  6  1  0
  4 21  2  0
  5  1  1  0
  5  6  2  0
  6  7  1  0
  7  8  2  0
  8  9  1  0
  9  5  1  0
 10 11  2  0
 10 12  1  0
 12 13  1  0
 13 14  2  0
 14 15  1  0
 15 16  2  0
 16 17  1  0
 17 18  2  0
 18 13  1  0
 22  4  2  0
M  END
>  <DRUGBANK_ID>  (1) 
DB00469

>  <SECONDARY_ACCESSION_NUMBERS>  (1) 
APRD00011

>  <COMMON_NAME>  (1) 
Tenoxicam

>  <CAS_NUMBER>  (1) 
59804-37-4

>  <UNII>  (1) 
Z1R9N0A399

>  <SYNONYMS>  (1) 
Tenoxicam; TÃ©noxicam; Tenoxicamum

$$$$
