
     RDKit          3D

 25 24  0  0  1  0  0  0  0  0999 V2000
    3.3626    6.3686   -7.6216 C   0  0  0  0  0  0  0  0  0  0  0  0
    3.8847    4.9601   -7.3865 C   0  0  0  0  0  0  0  0  0  0  0  0
    2.7351    3.9700   -7.1760 C   0  0  2  0  0  0  0  0  0  0  0  0
    2.3647    3.9414   -5.7286 C   0  0  0  0  0  0  0  0  0  0  0  0
    1.2574    4.4496   -5.1776 C   0  0  0  0  0  0  0  0  0  0  0  0
    1.0823    4.4044   -3.7505 C   0  0  0  0  0  0  0  0  0  0  0  0
    0.0515    4.9225   -3.0755 C   0  0  0  0  0  0  0  0  0  0  0  0
   -1.1138    5.6951   -3.6509 C   0  0  0  0  0  0  0  0  0  0  0  0
   -2.5420    5.3538   -3.1710 C   0  0  2  0  0  0  0  0  0  0  0  0
   -2.9039    5.9726   -1.8520 C   0  0  0  0  0  0  0  0  0  0  0  0
   -2.1121    5.9402   -0.7767 C   0  0  0  0  0  0  0  0  0  0  0  0
   -2.3728    6.5779    0.4768 C   0  0  0  0  0  0  0  0  0  0  0  0
   -1.4756    6.4685    1.4605 C   0  0  0  0  0  0  0  0  0  0  0  0
   -1.6324    7.0620    2.7595 C   0  0  0  0  0  0  0  0  0  0  0  0
   -0.7097    6.9555    3.7297 C   0  0  0  0  0  0  0  0  0  0  0  0
    0.5728    6.1762    3.5996 C   0  0  2  0  0  0  0  0  0  0  0  0
    0.3796    4.6775    3.9122 C   0  0  0  0  0  0  0  0  0  0  0  0
    0.7242    4.2834    5.3474 C   0  0  0  0  0  0  0  0  0  0  0  0
   -0.0973    5.0160    6.4122 C   0  0  0  0  0  0  0  0  0  0  0  0
   -1.5634    4.6744    6.3943 C   0  0  0  0  0  0  0  0  0  0  0  0
   -2.1984    4.2070    7.3299 O   0  0  0  0  0  0  0  0  0  0  0  0
   -2.1737    4.9999    5.2450 O   0  0  0  0  0  0  0  0  0  0  0  0
    1.6055    6.7952    4.3544 O   0  0  0  0  0  0  0  0  0  0  0  0
   -2.7952    3.9574   -3.1270 O   0  0  0  0  0  0  0  0  0  0  0  0
    3.1763    2.6601   -7.5167 O   0  0  0  0  0  0  0  0  0  0  0  0
  1  2  1  0
  3 25  1  1
  3  4  1  0
  3  2  1  0
  4  5  2  0
  5  6  1  0
  6  7  2  0
  7  8  1  0
  9 24  1  1
  9 10  1  0
  9  8  1  0
 10 11  2  0
 11 12  1  0
 12 13  2  0
 13 14  1  0
 14 15  2  0
 16 23  1  1
 16 17  1  0
 16 15  1  0
 17 18  1  0
 18 19  1  0
 19 20  1  0
 20 21  2  0
 20 22  1  0
M  END
>  <DRUGBANK_ID>  (1) 
DB13105

>  <COMMON_NAME>  (1) 
Resolvin E1

>  <CAS_NUMBER>  (1) 
552830-51-0

>  <UNII>  (1) 
GND3JH08JA

>  <SYNONYMS>  (1) 
(5S,6Z,8E,10E,12R,14Z,16E,18R)-5,12,18-TRIHYDROXY-6,8,10,14,16-EICOSAPENTAENOIC ACID; 5S,12R,18R-TRIHYDROXY-6Z,8E,10E,14Z,16E-EICOSAPENTAENOIC ACID; 6,8,10,14,16-EICOSAPENTAENOIC ACID, 5,12,18-TRIHYDROXY-, (5S,6Z,8E,10E,12R,14Z,16E,18R)-; RVE1

$$$$
