
     RDKit          3D

  9  8  0  0  0  0  0  0  0  0999 V2000
    0.9270   -0.0832   -0.0706 C   0  0  0  0  0  0  0  0  0  0  0  0
    0.3327   -1.3984   -0.4626 C   0  0  0  0  0  0  0  0  0  0  0  0
   -0.4876   -1.9963    0.2219 O   0  0  0  0  0  0  0  0  0  0  0  0
    0.7874   -1.8222   -1.6714 O   0  0  0  0  0  0  0  0  0  0  0  0
    0.2929   -3.1187   -2.0899 C   0  0  0  0  0  0  0  0  0  0  0  0
    0.8149   -4.2854   -1.2508 C   0  0  0  0  0  0  0  0  0  0  0  0
    0.4283   -4.2592    0.0369 F   0  0  0  0  0  0  0  0  0  0  0  0
    0.3874   -5.4631   -1.7660 F   0  0  0  0  0  0  0  0  0  0  0  0
    2.1688   -4.3094   -1.2670 F   0  0  0  0  0  0  0  0  0  0  0  0
  1  2  1  0
  2  3  2  0
  2  4  1  0
  4  5  1  0
  5  6  1  0
  6  7  1  0
  6  8  1  0
  6  9  1  0
M  END
>  <DRUGBANK_ID>  (1) 
DB14629

>  <SECONDARY_ACCESSION_NUMBERS>  (1) 
DBSALT002296

>  <COMMON_NAME>  (1) 
Trifluoroethyl acetate

>  <CAS_NUMBER>  (1) 
406-95-1

>  <UNII>  (1) 
EN07RVL78U

>  <SYNONYMS>  (1) 
2,2,2-trifluoroethanol acetate; 2,2,2-trifluoroethyl acetate

$$$$
