
     RDKit          3D

 39 43  0  0  0  0  0  0  0  0999 V2000
    0.7754    0.1331    0.3231 C   0  0  0  0  0  0  0  0  0  0  0  0
    0.4379    1.3329   -0.5423 C   0  0  0  0  0  0  0  0  0  0  0  0
    1.1205    1.3759   -1.9224 C   0  0  0  0  0  0  0  0  0  0  0  0
    0.8214    0.1850   -2.7902 C   0  0  0  0  0  0  0  0  0  0  0  0
    0.0143    0.3878   -3.8586 C   0  0  0  0  0  0  0  0  0  0  0  0
   -0.0810    1.6478   -4.4028 O   0  0  0  0  0  0  0  0  0  0  0  0
   -0.9434    1.8773   -5.5137 C   0  0  0  0  0  0  0  0  0  0  0  0
   -0.5685    1.4145   -6.9248 C   0  0  0  0  0  0  0  0  0  0  0  0
   -0.6470   -0.1055   -7.0698 C   0  0  0  0  0  0  0  0  0  0  0  0
   -2.0411   -0.7523   -6.9865 O   0  0  0  0  0  0  0  0  0  0  0  0
   -3.0366   -0.5886   -5.9766 C   0  0  0  0  0  0  0  0  0  0  0  0
   -3.3484   -1.6508   -5.0774 C   0  0  0  0  0  0  0  0  0  0  0  0
   -4.1327   -1.4193   -3.8914 C   0  0  0  0  0  0  0  0  0  0  0  0
   -4.4803   -0.1084   -3.5448 C   0  0  0  0  0  0  0  0  0  0  0  0
   -4.1144    0.9518   -4.3722 C   0  0  0  0  0  0  0  0  0  0  0  0
   -3.6025    0.6499   -5.6667 C   0  0  0  0  0  0  0  0  0  0  0  0
   -5.2587   -0.1501   -2.3967 N   0  0  0  0  0  0  0  0  0  0  0  0
   -5.9453    0.9699   -1.7551 C   0  0  0  0  0  0  0  0  0  0  0  0
   -7.4492    0.9297   -1.9814 C   0  0  0  0  0  0  0  0  0  0  0  0
   -8.1961    0.8991   -0.8412 O   0  0  0  0  0  0  0  0  0  0  0  0
   -7.9728    0.9581   -3.0681 O   0  0  0  0  0  0  0  0  0  0  0  0
   -5.4567   -1.4622   -2.0386 C   0  0  0  0  0  0  0  0  0  0  0  0
   -4.7094   -2.2537   -2.8873 C   0  0  0  0  0  0  0  0  0  0  0  0
   -0.5089   -0.7765   -4.3599 C   0  0  0  0  0  0  0  0  0  0  0  0
   -0.1213   -2.0940   -4.1897 C   0  0  0  0  0  0  0  0  0  0  0  0
    0.7936   -2.2972   -3.2265 C   0  0  0  0  0  0  0  0  0  0  0  0
    1.2752   -1.1498   -2.5439 C   0  0  0  0  0  0  0  0  0  0  0  0
    2.2466   -1.3920   -1.6110 C   0  0  0  0  0  0  0  0  0  0  0  0
    2.4919   -2.6729   -1.1576 C   0  0  0  0  0  0  0  0  0  0  0  0
    1.9930   -3.7896   -1.8269 C   0  0  0  0  0  0  0  0  0  0  0  0
    1.1860   -3.6031   -2.9343 C   0  0  0  0  0  0  0  0  0  0  0  0
    2.4078   -5.1585   -1.4314 C   0  0  0  0  0  0  0  0  0  0  0  0
    2.1715   -6.1189   -2.1439 O   0  0  0  0  0  0  0  0  0  0  0  0
    3.2193   -5.3257   -0.2041 C   0  0  0  0  0  0  0  0  0  0  0  0
    2.7454   -4.8789    1.0360 C   0  0  0  0  0  0  0  0  0  0  0  0
    3.6168   -4.8219    2.1217 C   0  0  0  0  0  0  0  0  0  0  0  0
    4.9085   -5.3335    1.9995 C   0  0  0  0  0  0  0  0  0  0  0  0
    5.3345   -5.8892    0.7910 C   0  0  0  0  0  0  0  0  0  0  0  0
    4.5124   -5.8305   -0.3326 C   0  0  0  0  0  0  0  0  0  0  0  0
  1  2  1  0
  2  3  1  0
  3  4  1  0
  4  5  2  0
  4 27  1  0
  5  6  1  0
  5 24  1  0
  6  7  1  0
  7  8  1  0
  8  9  1  0
  9 10  1  0
 10 11  1  0
 11 12  2  0
 11 16  1  0
 12 13  1  0
 13 14  2  0
 13 23  1  0
 14 15  1  0
 14 17  1  0
 15 16  2  0
 17 18  1  0
 17 22  1  0
 18 19  1  0
 19 20  1  0
 19 21  2  0
 22 23  2  0
 24 25  2  0
 25 26  1  0
 26 27  2  0
 26 31  1  0
 27 28  1  0
 28 29  2  0
 29 30  1  0
 30 31  2  0
 30 32  1  0
 32 33  2  0
 32 34  1  0
 34 35  2  0
 34 39  1  0
 35 36  1  0
 36 37  2  0
 37 38  1  0
 38 39  2  0
M  END
>  <DRUGBANK_ID>  (1) 
DB04689

>  <COMMON_NAME>  (1) 
2-{5-[3-(6-BENZOYL-1-PROPYLNAPHTHALEN-2-YLOXY)PROPOXY]INDOL-1-YL}ETHANOIC ACID

>  <UNII>  (1) 
ZYD7UQ32SY

$$$$
