
     RDKit          3D

 20 21  0  0  0  0  0  0  0  0999 V2000
   -0.3414    1.3778    0.3381 C   0  0  1  0  0  0  0  0  0  0  0  0
    1.0727    0.9166   -0.2169 C   0  0  2  0  0  0  0  0  0  0  0  0
    1.3602    1.2725   -1.6411 N   0  0  0  0  0  0  0  0  0  0  0  0
    2.7520    1.0440   -2.0165 C   0  0  0  0  0  0  0  0  0  0  0  0
    0.4876    0.6357   -2.6224 C   0  0  0  0  0  0  0  0  0  0  0  0
    1.2872   -0.5704   -0.0203 C   0  0  0  0  0  0  0  0  0  0  0  0
    0.2813   -1.4436    0.1224 C   0  0  0  0  0  0  0  0  0  0  0  0
   -1.1676   -1.0496    0.1665 C   0  0  0  0  0  0  0  0  0  0  0  0
   -1.4728    0.4291   -0.1520 C   0  0  0  0  0  0  0  0  0  0  0  0
   -0.3096    1.1652    1.8904 C   0  0  0  0  0  0  0  0  0  0  0  0
    0.6753    0.8766    2.5484 O   0  0  0  0  0  0  0  0  0  0  0  0
   -1.5351    1.4613    2.4521 O   0  0  0  0  0  0  0  0  0  0  0  0
   -1.5679    1.4961    3.8882 C   0  0  0  0  0  0  0  0  0  0  0  0
   -1.4996    0.0819    4.4217 C   0  0  0  0  0  0  0  0  0  0  0  0
   -0.5528    2.8903    0.0413 C   0  0  0  0  0  0  0  0  0  0  0  0
   -0.7009    3.4511   -1.2407 C   0  0  0  0  0  0  0  0  0  0  0  0
   -0.7390    4.8366   -1.4341 C   0  0  0  0  0  0  0  0  0  0  0  0
   -0.7293    5.6921   -0.3420 C   0  0  0  0  0  0  0  0  0  0  0  0
   -0.6573    5.1676    0.9346 C   0  0  0  0  0  0  0  0  0  0  0  0
   -0.4929    3.8030    1.1076 C   0  0  0  0  0  0  0  0  0  0  0  0
  1 15  1  0
  1 10  1  1
  2  1  1  0
  2  3  1  6
  4  3  1  0
  5  3  1  0
  6  2  1  0
  7  6  2  0
  7  8  1  0
  8  9  1  0
  9  1  1  0
 11 10  2  0
 12 10  1  0
 13 12  1  0
 14 13  1  0
 16 15  2  0
 17 16  1  0
 18 17  2  0
 18 19  1  0
 19 20  2  0
 20 15  1  0
M  END
>  <DRUGBANK_ID>  (1) 
DB16731

>  <COMMON_NAME>  (1) 
Dextilidine

>  <CAS_NUMBER>  (1) 
32447-90-8

>  <UNII>  (1) 
2728MV084C

>  <SYNONYMS>  (1) 
Dextilidina; Dextilidine; Dextilidinum

$$$$
