
     RDKit          3D

 33 36  0  0  0  0  0  0  0  0999 V2000
    0.1025   -0.9944    0.4639 C   0  0  0  0  0  0  0  0  0  0  0  0
   -1.1598   -1.6192   -0.0442 C   0  0  0  0  0  0  0  0  0  0  0  0
   -0.7936   -0.4121    0.7334 N   0  0  0  0  0  0  0  0  0  0  0  0
    0.0356    1.0604   -0.3782 C   0  0  0  0  0  0  0  0  0  0  0  0
    1.3514    1.7025   -0.3509 C   0  0  0  0  0  0  0  0  0  0  0  0
    1.0175    0.1914   -0.7823 N   0  0  0  0  0  0  0  0  0  0  0  0
    1.3541   -0.0612   -2.1572 C   0  0  0  0  0  0  0  0  0  0  0  0
    0.0589    0.1123   -2.9575 C   0  0  0  0  0  0  0  0  0  0  0  0
   -0.7949    1.4857   -2.9516 C   0  0  0  0  0  0  0  0  0  0  0  0
    0.0771    2.6861   -2.9242 C   0  0  0  0  0  0  0  0  0  0  0  0
   -0.4396    3.8768   -2.4360 C   0  0  0  0  0  0  0  0  0  0  0  0
    0.3238    5.0018   -2.4814 C   0  0  0  0  0  0  0  0  0  0  0  0
    1.6381    4.8995   -2.9083 C   0  0  0  0  0  0  0  0  0  0  0  0
    2.2573    3.6820   -3.0673 C   0  0  0  0  0  0  0  0  0  0  0  0
    1.4381    2.6019   -3.1972 C   0  0  0  0  0  0  0  0  0  0  0  0
   -1.5590   -0.2041    2.1792 C   0  0  0  0  0  0  0  0  0  0  0  0
   -0.3377   -0.0929    3.0712 C   0  0  0  0  0  0  0  0  0  0  0  0
    0.5923    0.9226    2.8119 O   0  0  0  0  0  0  0  0  0  0  0  0
    0.7949    0.8178    1.4479 C   0  0  0  0  0  0  0  0  0  0  0  0
    2.0929   -0.5699    0.6920 C   0  0  0  0  0  0  0  0  0  0  0  0
    3.2788   -0.3488   -0.0424 C   0  0  0  0  0  0  0  0  0  0  0  0
    3.6875   -1.5409   -0.7948 C   0  0  0  0  0  0  0  0  0  0  0  0
    2.9797   -2.9120   -0.9343 C   0  0  0  0  0  0  0  0  0  0  0  0
    1.7321   -3.2357   -0.7324 C   0  0  0  0  0  0  0  0  0  0  0  0
    1.4891   -2.0784   -0.2417 C   0  0  0  0  0  0  0  0  0  0  0  0
    3.5897   -3.9586   -1.4344 F   0  0  0  0  0  0  0  0  0  0  0  0
   -1.2455    1.5758    0.9294 C   0  0  0  0  0  0  0  0  0  0  0  0
   -2.1750    0.5449   -0.2404 C   0  0  0  0  0  0  0  0  0  0  0  0
   -3.3142    0.2243   -0.8704 C   0  0  0  0  0  0  0  0  0  0  0  0
   -3.7734    1.4462   -0.9807 C   0  0  0  0  0  0  0  0  0  0  0  0
   -3.0428    2.6644   -0.5095 C   0  0  0  0  0  0  0  0  0  0  0  0
   -1.7774    2.7452    0.3393 C   0  0  0  0  0  0  0  0  0  0  0  0
   -4.9403    1.5262   -1.5907 F   0  0  0  0  0  0  0  0  0  0  0  0
  1  2  1  0
  1  6  1  0
  2  3  1  0
  3  4  1  0
  3 16  1  0
  4  5  1  0
  5  6  1  0
  6  7  1  0
  7  8  1  0
  8  9  1  0
  9 10  1  0
 10 11  2  0
 10 15  1  0
 11 12  1  0
 12 13  2  0
 13 14  1  0
 14 15  2  0
 16 17  1  0
 17 18  1  0
 18 19  1  0
 19 20  1  0
 19 27  1  0
 20 21  2  0
 20 25  1  0
 21 22  1  0
 22 23  2  0
 23 24  1  0
 23 26  1  0
 24 25  2  0
 27 28  2  0
 27 32  1  0
 28 29  1  0
 29 30  2  0
 30 31  1  0
 30 33  1  0
 31 32  2  0
M  END
>  <DRUGBANK_ID>  (1) 
DB03701

>  <SECONDARY_ACCESSION_NUMBERS>  (1) 
EXPT03312

>  <COMMON_NAME>  (1) 
Vanoxerine

>  <CAS_NUMBER>  (1) 
67469-69-6

>  <UNII>  (1) 
90X28IKH43

>  <SYNONYMS>  (1) 
1-(2-(bis(p-fluorophenyl)methoxy)ethyl)-4-(3-phenylpropyl)piperazine; vanoxerina; Vanoxerine

$$$$
