617
     RDKit          3D

 21 22  0  0  0  0  0  0  0  0999 V2000
    0.9154   -0.0270    0.0430 C   0  0  0  0  0  0  0  0  0  0  0  0
   -0.1018   -2.9552   -2.1437 C   0  0  0  0  0  0  0  0  0  0  0  0
   -2.7303    1.5484   -1.5784 C   0  0  0  0  0  0  0  0  0  0  0  0
    2.2463   -0.1693   -0.0618 O   0  0  0  0  0  0  0  0  0  0  0  0
    0.4146    0.7585    0.8404 O   0  0  0  0  0  0  0  0  0  0  0  0
   -1.6496   -1.1836   -2.4428 C   0  0  0  0  0  0  0  0  0  0  0  0
   -1.5792    0.9120   -1.1610 N   0  0  0  0  0  0  0  0  0  0  0  0
   -1.2508   -2.4769   -2.7206 C   0  0  0  0  0  0  0  0  0  0  0  0
   -3.0646    2.6024   -1.0232 O   0  0  0  0  0  0  0  0  0  0  0  0
   -1.0197   -0.3416   -1.5275 C   0  0  0  0  0  0  0  0  0  0  0  0
    0.1638   -0.8319   -0.9453 C   0  0  0  0  0  0  0  0  0  0  0  0
    0.6160   -2.1341   -1.2673 C   0  0  0  0  0  0  0  0  0  0  0  0
   -3.5368    1.0522   -2.7935 C   0  0  0  0  0  0  0  0  0  0  0  0
   -2.9232    0.8574   -4.0712 O   0  0  0  0  0  0  0  0  0  0  0  0
   -2.1579    1.8594   -4.5886 C   0  0  0  0  0  0  0  0  0  0  0  0
   -2.0565    1.9063   -5.9785 C   0  0  0  0  0  0  0  0  0  0  0  0
   -1.3582    2.9539   -6.5922 C   0  0  0  0  0  0  0  0  0  0  0  0
   -0.8095    3.9745   -5.8170 C   0  0  0  0  0  0  0  0  0  0  0  0
   -0.8296    3.8847   -4.4399 C   0  0  0  0  0  0  0  0  0  0  0  0
   -1.4617    2.8065   -3.8439 C   0  0  0  0  0  0  0  0  0  0  0  0
   -0.1430    5.3765   -6.5460 Cl  0  0  0  0  0  0  0  0  0  0  0  0
  1  5  2  0
  1 11  1  0
  1  4  1  0
  2 12  2  0
  2  8  1  0
  3  7  1  0
  3  9  2  0
  3 13  1  0
  6  8  2  0
  6 10  1  0
  7 10  1  0
 10 11  2  0
 11 12  1  0
 13 14  1  0
 14 15  1  0
 15 20  1  0
 15 16  2  0
 16 17  1  0
 17 18  2  0
 18 19  1  0
 18 21  1  0
 19 20  2  0
M  END
>  <DRUGBANK_ID>  (1) 
DB07185

>  <COMMON_NAME>  (1) 
2-{[(4-CHLOROPHENOXY)ACETYL]AMINO}BENZOIC ACID

$$$$
