JI7
     RDKit          3D

 26 28  0  0  0  0  0  0  0  0999 V2000
   -0.7591    1.3589    0.1221 C   0  0  0  0  0  0  0  0  0  0  0  0
   -1.4468    0.1545    0.2845 C   0  0  0  0  0  0  0  0  0  0  0  0
   -0.7047   -0.9967    0.5164 C   0  0  0  0  0  0  0  0  0  0  0  0
    0.6781   -0.8889    0.4916 C   0  0  0  0  0  0  0  0  0  0  0  0
    1.3272    0.2869    0.5327 N   0  0  0  0  0  0  0  0  0  0  0  0
    0.6162    1.3862    0.2767 C   0  0  0  0  0  0  0  0  0  0  0  0
    1.5467   -2.0534    0.1744 C   0  0  0  0  0  0  0  0  0  0  0  0
    2.3270   -1.9897   -1.1998 C   0  0  2  0  0  0  0  0  0  0  0  0
    3.5112   -1.0434   -1.2462 C   0  0  2  0  0  0  0  0  0  0  0  0
    2.8963    0.1055   -2.0924 C   0  0  0  0  0  0  0  0  0  0  0  0
    2.1746   -0.4753   -3.2114 N   0  0  0  0  0  0  0  0  0  0  0  0
    1.7610   -1.7422   -2.6599 C   0  0  0  0  0  0  0  0  0  0  0  0
    4.6560   -1.6448   -1.9806 N   0  0  0  0  0  0  0  0  0  0  0  0
    5.3444   -2.7804   -1.3396 C   0  0  0  0  0  0  0  0  0  0  0  0
    4.6810   -4.2082   -1.3214 C   0  0  0  0  0  0  0  0  0  0  0  0
    4.0846   -4.6017   -2.6027 N   0  0  0  0  0  0  0  0  0  0  0  0
    3.1625   -5.7662   -2.5943 C   0  0  0  0  0  0  0  0  0  0  0  0
    1.7740   -5.6433   -1.9417 C   0  0  0  0  0  0  0  0  0  0  0  0
    1.0029   -6.6344   -1.3969 C   0  0  0  0  0  0  0  0  0  0  0  0
   -0.2340   -6.3402   -0.7455 C   0  0  0  0  0  0  0  0  0  0  0  0
   -0.7907   -5.0632   -0.7757 C   0  0  0  0  0  0  0  0  0  0  0  0
   -0.2279   -4.1789   -1.6110 C   0  0  0  0  0  0  0  0  0  0  0  0
    1.0587   -4.4675   -2.1205 C   0  0  0  0  0  0  0  0  0  0  0  0
   -1.2149   -2.8382   -2.0647 Cl  0  0  0  0  0  0  0  0  0  0  0  0
   -2.9252    0.0631    0.0660 C   0  0  0  0  0  0  0  0  0  0  0  0
    1.3609    2.4924   -0.0956 N   0  0  0  0  0  0  0  0  0  0  0  0
  1  2  2  0
  2 25  1  0
  3  2  1  0
  4  3  2  0
  5  4  1  0
  5  6  2  0
  6  1  1  0
  7  4  1  0
  8  7  1  1
  8 12  1  0
  9 13  1  6
  9  8  1  0
 10 11  1  0
 10  9  1  0
 11 12  1  0
 14 13  1  0
 15 14  1  0
 16 15  1  0
 17 16  1  0
 18 19  2  0
 18 17  1  0
 20 19  1  0
 21 20  2  0
 22 21  1  0
 22 23  2  0
 23 18  1  0
 24 22  1  0
 26  6  1  0
M  END
>  <DRUGBANK_ID>  (1) 
DB08019

>  <COMMON_NAME>  (1) 
N-{(3R,4S)-4-[(6-amino-4-methylpyridin-2-yl)methyl]pyrrolidin-3-yl}-N'-(3-chlorobenzyl)ethane-1,2-diamine

$$$$
