NU5
     RDKit          3D

 34 37  0  0  0  0  0  0  0  0999 V2000
    1.1718    0.2466   -0.1264 O   0  0  0  0  0  0  0  0  0  0  0  0
    2.6392    0.1369   -0.1144 S   0  0  0  0  0  0  0  0  0  0  0  0
    3.2362   -1.1611    0.0703 O   0  0  0  0  0  0  0  0  0  0  0  0
    3.2112    0.7330   -1.7023 C   0  0  0  0  0  0  0  0  0  0  0  0
    2.6177    2.0673   -2.1815 C   0  0  0  0  0  0  0  0  0  0  0  0
    3.0276    3.0299   -1.2088 N   0  0  0  0  0  0  0  0  0  0  0  0
    2.5479    4.3998   -1.1267 C   0  0  0  0  0  0  0  0  0  0  0  0
    1.0394    4.4379   -0.8520 C   0  0  0  0  0  0  0  0  0  0  0  0
    0.5185    3.8387    0.4714 C   0  0  0  0  0  0  0  0  0  0  0  0
    0.8654    4.6468    1.5853 O   0  0  0  0  0  0  0  0  0  0  0  0
    3.1600    1.1702    1.3101 C   0  0  0  0  0  0  0  0  0  0  0  0
    3.3982    2.5349    1.4280 C   0  0  0  0  0  0  0  0  0  0  0  0
    3.5340    3.3015    2.5808 C   0  0  0  0  0  0  0  0  0  0  0  0
    3.5118    2.7094    3.7812 C   0  0  0  0  0  0  0  0  0  0  0  0
    3.2154    1.3635    3.7284 C   0  0  0  0  0  0  0  0  0  0  0  0
    3.1047    0.5753    2.5268 C   0  0  0  0  0  0  0  0  0  0  0  0
    3.8945    3.4518    4.8813 N   0  0  0  0  0  0  0  0  0  0  0  0
    4.3221    3.0256    6.1249 C   0  0  0  0  0  0  0  0  0  0  0  0
    5.4986    2.3556    6.2106 N   0  0  0  0  0  0  0  0  0  0  0  0
    5.8345    1.7213    7.3659 C   0  0  0  0  0  0  0  0  0  0  0  0
    5.0241    1.9373    8.4810 C   0  0  0  0  0  0  0  0  0  0  0  0
    5.0680    1.5247    9.7923 N   0  0  0  0  0  0  0  0  0  0  0  0
    4.0916    2.1801   10.3836 C   0  0  0  0  0  0  0  0  0  0  0  0
    3.3493    2.9063    9.4978 N   0  0  0  0  0  0  0  0  0  0  0  0
    3.9261    2.7551    8.2772 C   0  0  0  0  0  0  0  0  0  0  0  0
    3.5097    3.3209    7.1450 N   0  0  0  0  0  0  0  0  0  0  0  0
    6.8428    0.7612    7.4030 O   0  0  0  0  0  0  0  0  0  0  0  0
    7.5168    0.4211    6.1782 C   0  0  0  0  0  0  0  0  0  0  0  0
    6.7509   -0.5123    5.2042 C   0  0  0  0  0  0  0  0  0  0  0  0
    5.2974   -0.1607    5.1802 C   0  0  0  0  0  0  0  0  0  0  0  0
    4.4719   -1.0685    4.3316 C   0  0  0  0  0  0  0  0  0  0  0  0
    4.5075   -2.4986    4.6741 C   0  0  0  0  0  0  0  0  0  0  0  0
    5.9558   -2.8832    4.5800 C   0  0  0  0  0  0  0  0  0  0  0  0
    6.8394   -2.0135    5.5033 C   0  0  0  0  0  0  0  0  0  0  0  0
  1  2  2  0
  2  3  2  0
  2  4  1  0
  2 11  1  0
  4  5  1  0
  5  6  1  0
  6  7  1  0
  7  8  1  0
  8  9  1  0
  9 10  1  0
 11 12  2  0
 11 16  1  0
 12 13  1  0
 13 14  2  0
 14 15  1  0
 14 17  1  0
 15 16  2  0
 17 18  1  0
 18 19  2  0
 18 26  1  0
 19 20  1  0
 20 21  2  0
 20 27  1  0
 21 22  1  0
 21 25  1  0
 22 23  2  0
 23 24  1  0
 24 25  1  0
 25 26  2  0
 27 28  1  0
 28 29  1  0
 29 30  1  0
 29 34  1  0
 30 31  1  0
 31 32  1  0
 32 33  1  0
 33 34  1  0
M  END
>  <DRUGBANK_ID>  (1) 
DB08309

>  <COMMON_NAME>  (1) 
3-({2-[(4-{[6-(CYCLOHEXYLMETHOXY)-9H-PURIN-2-YL]AMINO}PHENYL)SULFONYL]ETHYL}AMINO)PROPAN-1-OL

$$$$
