ESI
     RDKit          3D

 13 14  0  0  0  0  0  0  0  0999 V2000
    1.0479    0.0193   -0.1769 C   0  0  0  0  0  0  0  0  0  0  0  0
    0.3510   -0.9329    0.6554 C   0  0  0  0  0  0  0  0  0  0  0  0
    0.3641    0.8488   -0.9258 N   0  0  0  0  0  0  0  0  0  0  0  0
    2.3622    0.0145   -0.1267 N   0  0  0  0  0  0  0  0  0  0  0  0
    0.7594   -1.1665    2.2865 S   0  0  0  0  0  0  0  0  0  0  0  0
   -0.3834   -2.4331    2.4711 C   0  0  0  0  0  0  0  0  0  0  0  0
   -1.0962   -2.6742    1.2904 C   0  0  0  0  0  0  0  0  0  0  0  0
   -0.6630   -1.7698    0.2459 C   0  0  0  0  0  0  0  0  0  0  0  0
   -0.6037   -3.1730    3.6467 C   0  0  0  0  0  0  0  0  0  0  0  0
   -1.5566   -4.1881    3.6376 C   0  0  0  0  0  0  0  0  0  0  0  0
   -2.2794   -4.4638    2.4854 C   0  0  0  0  0  0  0  0  0  0  0  0
   -2.0610   -3.7185    1.3186 C   0  0  0  0  0  0  0  0  0  0  0  0
   -3.1912   -4.1979   -0.3788 I   0  0  0  0  0  0  0  0  0  0  0  0
  1  2  1  0
  1  3  1  0
  1  4  2  0
  2  5  1  0
  2  8  2  0
  5  6  1  0
  6  7  2  0
  6  9  1  0
  7  8  1  0
  7 12  1  0
  9 10  2  0
 10 11  1  0
 11 12  2  0
 12 13  1  0
M  CHG  1   4   1
M  END
>  <DRUGBANK_ID>  (1) 
DB03136

>  <SECONDARY_ACCESSION_NUMBERS>  (1) 
EXPT01360

>  <COMMON_NAME>  (1) 
4-Iodobenzo[B]Thiophene-2-Carboxamidine

$$$$
