
     RDKit          3D

 17 16  0  0  0  0  0  0  0  0999 V2000
    1.3033   -0.1139    0.1320 C   0  0  0  0  0  0  0  0  0  0  0  0
    0.5739   -1.1465   -0.7718 C   0  0  0  0  0  0  0  0  0  0  0  0
    0.8064   -2.5311   -0.2357 C   0  0  0  0  0  0  0  0  0  0  0  0
    0.0186   -2.6390    1.0944 C   0  0  0  0  0  0  0  0  0  0  0  0
   -1.4620   -2.6924    1.0809 C   0  0  0  0  0  0  0  0  0  0  0  0
   -1.7429   -3.9651    0.3486 C   0  0  0  0  0  0  0  0  0  0  0  0
   -1.0630   -5.1595    1.0736 C   0  0  0  0  0  0  0  0  0  0  0  0
   -1.5034   -5.2270    2.5469 C   0  0  0  0  0  0  0  0  0  0  0  0
   -3.0316   -5.2289    2.5982 C   0  0  0  0  0  0  0  0  0  0  0  0
   -3.5750   -6.4212    1.8035 C   0  0  0  0  0  0  0  0  0  0  0  0
    1.2830   -0.2991    1.5573 O   0  0  0  0  0  0  0  0  0  0  0  0
   -3.0628   -7.7384    2.3836 C   0  0  0  0  0  0  0  0  0  0  0  0
   -3.5114   -7.8752    3.8280 C   0  0  0  0  0  0  0  0  0  0  0  0
    2.2603   -1.2888    2.4768 S   0  0  0  0  0  0  0  0  0  0  0  0
    2.4089   -2.6516    1.9629 O   0  0  0  0  0  0  0  0  0  0  0  0
    3.4320   -0.5821    2.8428 O   0  0  0  0  0  0  0  0  0  0  0  0
    1.3390   -1.5128    3.8012 O   0  0  0  0  0  0  0  0  0  0  0  0
  1  2  1  0
  1 11  1  0
  2  3  1  0
  3  4  1  0
  4  5  1  0
  5  6  1  0
  6  7  1  0
  7  8  1  0
  8  9  1  0
  9 10  1  0
 12 10  1  0
 13 12  1  0
 14 11  1  0
 15 14  2  0
 16 14  2  0
 17 14  1  0
M  END
>  <DRUGBANK_ID>  (1) 
DB03967

>  <SECONDARY_ACCESSION_NUMBERS>  (1) 
EXPT02877

>  <COMMON_NAME>  (1) 
Dodecyl sulfate

>  <CAS_NUMBER>  (1) 
151-41-7

>  <UNII>  (1) 
DIQ16UC154

>  <SYNONYMS>  (1) 
Dodecyl hydrogen sulfate; Dodecylsulfuric acid; Lauryl sulfate; Lauryl sulfuric acid; Lauryl sulphate; Monododecyl hydrogen sulfate; N-Dodecyl sulfate; Sulfuric acid, monododecyl ester

$$$$
