
     RDKit          3D

 26 28  0  0  0  0  0  0  0  0999 V2000
    1.0882    0.1811    0.0157 C   0  0  0  0  0  0  0  0  0  0  0  0
    0.6875   -1.2346   -0.2790 C   0  0  0  0  0  0  0  0  0  0  0  0
    1.1601   -2.1224    0.7472 O   0  0  0  0  0  0  0  0  0  0  0  0
    2.4882   -2.4285    0.7560 C   0  0  0  0  0  0  0  0  0  0  0  0
    3.3361   -1.8848    0.0787 O   0  0  0  0  0  0  0  0  0  0  0  0
    2.7966   -3.4140    1.6616 N   0  0  0  0  0  0  0  0  0  0  0  0
    1.8843   -4.1011    2.4436 C   0  0  0  0  0  0  0  0  0  0  0  0
    0.8147   -4.7575    1.9577 C   0  0  0  0  0  0  0  0  0  0  0  0
    0.4486   -5.1599    0.6565 N   0  0  0  0  0  0  0  0  0  0  0  0
   -0.1539   -4.4305   -0.4345 C   0  0  0  0  0  0  0  0  0  0  0  0
    1.1527   -5.1805   -0.6107 C   0  0  0  0  0  0  0  0  0  0  0  0
   -0.0700   -5.3900    3.0592 C   0  0  0  0  0  0  0  0  0  0  0  0
   -1.1024   -5.9861    2.7254 O   0  0  0  0  0  0  0  0  0  0  0  0
    0.2910   -5.3654    4.5915 C   0  0  0  0  0  0  0  0  0  0  0  0
   -0.6663   -6.0551    5.3872 N   0  0  0  0  0  0  0  0  0  0  0  0
   -0.8521   -6.2785    6.7542 C   0  0  0  0  0  0  0  0  0  0  0  0
   -1.6147   -7.1101    7.1940 O   0  0  0  0  0  0  0  0  0  0  0  0
   -0.1209   -5.4719    7.5449 O   0  0  0  0  0  0  0  0  0  0  0  0
    0.2160   -5.6943    8.9572 C   0  0  0  0  0  0  0  0  0  0  0  0
   -0.7419   -4.8612    9.7240 C   0  0  0  0  0  0  0  0  0  0  0  0
    1.4769   -4.8198    4.9687 C   0  0  0  0  0  0  0  0  0  0  0  0
    2.2995   -4.7718    6.0969 N   0  0  0  0  0  0  0  0  0  0  0  0
    1.9794   -4.1169    7.3276 C   0  0  0  0  0  0  0  0  0  0  0  0
    2.3416   -5.6664    7.1985 C   0  0  0  0  0  0  0  0  0  0  0  0
    2.2738   -4.1180    3.8881 C   0  0  0  0  0  0  0  0  0  0  0  0
    3.3296   -3.5411    4.1889 O   0  0  0  0  0  0  0  0  0  0  0  0
  1  2  1  0
  2  3  1  0
  3  4  1  0
  4  5  2  0
  4  6  1  0
  6  7  1  0
  7  8  2  0
  7 25  1  0
  8  9  1  0
  8 12  1  0
  9 10  1  0
  9 11  1  0
 10 11  1  0
 12 13  2  0
 12 14  1  0
 14 15  1  0
 14 21  2  0
 15 16  1  0
 16 17  2  0
 16 18  1  0
 18 19  1  0
 19 20  1  0
 21 22  1  0
 21 25  1  0
 22 23  1  0
 22 24  1  0
 23 24  1  0
 25 26  2  0
M  END
>  <DRUGBANK_ID>  (1) 
DB17174

>  <COMMON_NAME>  (1) 
Diaziquone

>  <CAS_NUMBER>  (1) 
57998-68-2

>  <UNII>  (1) 
FQL5EUP13W

>  <SYNONYMS>  (1) 
Aziridinyl benzoquinone; AZQ; Carbamic acid, (2,5-bis(1-aziridinyl)-3,6-dioxo-1,4-cyclohexadiene-1,4-diyl)bis-, diethyl ester; Diaziquone; Diethyl 2,5-bis-(1-aziridinyl)-3,6-dioxo-1,4-cyclohexadiene-1,4-dicarbamate; NSC-182986

$$$$
