616
     RDKit          3D

 27 28  0  0  0  0  0  0  0  0999 V2000
    7.0522   -0.6326    0.5084 O   0  0  0  0  0  0  0  0  0  0  0  0
    6.3376   -1.6242    0.3935 C   0  0  0  0  0  0  0  0  0  0  0  0
    5.2412   -1.7696   -0.6597 C   0  0  1  0  0  0  0  0  0  0  0  0
    5.6250   -2.8625   -1.6997 C   0  0  0  0  0  0  0  0  0  0  0  0
    5.7973   -4.2846   -1.1257 C   0  0  0  0  0  0  0  0  0  0  0  0
    4.6586   -2.8196   -2.8964 C   0  0  0  0  0  0  0  0  0  0  0  0
    3.7844   -1.8931   -0.0610 C   0  0  1  0  0  0  0  0  0  0  0  0
    3.2337   -3.3118    0.0353 C   0  0  2  0  0  0  0  0  0  0  0  0
    1.7612   -3.4058    0.0266 N   0  0  0  0  0  0  0  0  0  0  0  0
    1.1217   -4.9727   -0.0964 S   0  0  0  0  0  0  0  0  0  0  0  0
    1.6488   -5.7462    0.9942 O   0  0  0  0  0  0  0  0  0  0  0  0
   -0.3104   -4.8082   -0.2641 O   0  0  0  0  0  0  0  0  0  0  0  0
    1.8032   -5.6527   -1.6177 C   0  0  0  0  0  0  0  0  0  0  0  0
    3.8713   -3.8129    1.3157 C   0  0  0  0  0  0  0  0  0  0  0  0
    3.9308   -2.5859    2.2114 C   0  0  0  0  0  0  0  0  0  0  0  0
    3.7079   -1.4428    1.3241 N   0  0  0  0  0  0  0  0  0  0  0  0
    3.4543   -0.1936    1.8475 C   0  0  0  0  0  0  0  0  0  0  0  0
    3.4047   -0.0191    3.0666 O   0  0  0  0  0  0  0  0  0  0  0  0
    3.1535    0.9899    0.9762 C   0  0  0  0  0  0  0  0  0  0  0  0
    3.2115    1.0605   -0.3563 C   0  0  0  0  0  0  0  0  0  0  0  0
    2.9058    2.1603   -1.3008 C   0  0  0  0  0  0  0  0  0  0  0  0
    4.0657    2.3590   -2.1845 N   0  0  0  0  0  0  0  0  0  0  0  0
    4.2283    1.2884   -3.1895 C   0  0  0  0  0  0  0  0  0  0  0  0
    5.4910    1.4989   -4.0210 C   0  0  0  0  0  0  0  0  0  0  0  0
    5.4504    2.8542   -4.7077 C   0  0  0  0  0  0  0  0  0  0  0  0
    5.1684    3.9582   -3.6949 C   0  0  0  0  0  0  0  0  0  0  0  0
    3.9296    3.6510   -2.8602 C   0  0  0  0  0  0  0  0  0  0  0  0
  1  2  2  0
  3  2  1  1
  3  4  1  0
  4  5  1  0
  4  6  1  0
  7  8  1  0
  7 16  1  1
  7  3  1  0
  8  9  1  1
  8 14  1  0
  9 10  1  0
 10 11  2  0
 10 12  2  0
 10 13  1  0
 14 15  1  0
 15 16  1  0
 16 17  1  0
 17 18  2  0
 17 19  1  0
 19 20  2  0
 20 21  1  0
 21 22  1  0
 22 23  1  0
 22 27  1  0
 23 24  1  0
 24 25  1  0
 25 26  1  0
 26 27  1  0
M  END
>  <DRUGBANK_ID>  (1) 
DB03890

>  <SECONDARY_ACCESSION_NUMBERS>  (1) 
EXPT00265

>  <COMMON_NAME>  (1) 
N-[2-(1-Formyl-2-Methyl-Propyl)-1-(4-Piperidin-1-Yl-but-2-Enoyl)-Pyrrolidin-3-Yl]-Methanesulfonamide

$$$$
