
     RDKit          3D

 40 41  0  0  0  0  0  0  0  0999 V2000
    1.2020    0.4260   -0.2396 F   0  0  0  0  0  0  0  0  0  0  0  0
   -1.5775   -0.8889    0.7591 O   0  0  0  0  0  0  0  0  0  0  0  0
    2.6663   -0.6949    4.6075 O   0  0  0  0  0  0  0  0  0  0  0  0
    2.0537   -5.5316    2.3715 O   0  0  0  0  0  0  0  0  0  0  0  0
    3.8141   -1.5928   -0.9239 O   0  0  0  0  0  0  0  0  0  0  0  0
   -0.1263   -6.2722    2.4647 O   0  0  0  0  0  0  0  0  0  0  0  0
   -0.9524   -5.0279   -3.7456 O   0  0  0  0  0  0  0  0  0  0  0  0
   -0.3192   -0.9306    2.6198 N   0  0  0  0  0  0  0  0  0  0  0  0
    2.8572   -1.3845    2.4856 N   0  0  0  0  0  0  0  0  0  0  0  0
    0.2924   -4.1868    1.8064 N   0  0  0  0  0  0  0  0  0  0  0  0
    0.5755   -1.4412    3.7164 C   0  0  1  0  0  0  0  0  0  0  0  0
    0.7312   -2.9668    3.8749 C   0  0  0  0  0  0  0  0  0  0  0  0
    0.9381   -3.8705    5.0692 C   0  0  0  0  0  0  0  0  0  0  0  0
   -1.0526   -3.2731    1.5765 C   0  0  1  0  0  0  0  0  0  0  0  0
   -2.0787   -3.6362    2.5665 C   0  0  0  0  0  0  0  0  0  0  0  0
   -3.3744   -2.9415    2.2775 C   0  0  0  0  0  0  0  0  0  0  0  0
   -1.0338   -1.5897    1.6258 C   0  0  0  0  0  0  0  0  0  0  0  0
    2.0706   -1.0545    3.5837 C   0  0  0  0  0  0  0  0  0  0  0  0
    0.0014   -3.3588    6.1132 C   0  0  0  0  0  0  0  0  0  0  0  0
    0.6081   -5.3991    4.9670 C   0  0  0  0  0  0  0  0  0  0  0  0
    2.6456   -1.9272    1.0837 C   0  0  1  0  0  0  0  0  0  0  0  0
   -3.9128   -3.4216    0.9444 C   0  0  0  0  0  0  0  0  0  0  0  0
   -4.1555   -3.3043    3.5136 C   0  0  0  0  0  0  0  0  0  0  0  0
    1.2484   -2.0960    0.5934 C   0  0  0  0  0  0  0  0  0  0  0  0
    3.1297   -1.0866   -0.0351 C   0  0  0  0  0  0  0  0  0  0  0  0
    0.5834   -2.9537   -0.5477 C   0  0  0  0  0  0  0  0  0  0  0  0
    0.6615   -5.4327    2.1860 C   0  0  0  0  0  0  0  0  0  0  0  0
    2.5584    0.3067   -0.1095 C   0  0  0  0  0  0  0  0  0  0  0  0
   -0.0606   -2.2386   -1.5185 C   0  0  0  0  0  0  0  0  0  0  0  0
    0.2962   -4.3974   -0.6132 C   0  0  0  0  0  0  0  0  0  0  0  0
   -0.6728   -2.9342   -2.5611 C   0  0  0  0  0  0  0  0  0  0  0  0
   -0.4584   -5.0952   -1.5259 C   0  0  0  0  0  0  0  0  0  0  0  0
   -0.7771   -4.3386   -2.5913 C   0  0  0  0  0  0  0  0  0  0  0  0
    3.2996   -5.1911    1.6214 C   0  0  0  0  0  0  0  0  0  0  0  0
    3.2006   -5.6074    0.1812 C   0  0  0  0  0  0  0  0  0  0  0  0
    3.1302   -6.9794   -0.0277 C   0  0  0  0  0  0  0  0  0  0  0  0
    2.9607   -4.7852   -0.9228 C   0  0  0  0  0  0  0  0  0  0  0  0
    2.6466   -7.5060   -1.2227 C   0  0  0  0  0  0  0  0  0  0  0  0
    2.4477   -5.3083   -2.1244 C   0  0  0  0  0  0  0  0  0  0  0  0
    2.2384   -6.6699   -2.2512 C   0  0  0  0  0  0  0  0  0  0  0  0
  1 28  1  0
  2 17  2  0
  3 18  2  0
  4 27  1  0
  4 34  1  0
  5 25  2  0
  6 27  2  0
  7 33  1  0
  8 17  1  0
  9 18  1  0
 10 27  1  0
 11  8  1  0
 11 12  1  6
 11 18  1  0
 12 13  1  0
 13 19  1  0
 13 20  1  0
 14 10  1  0
 14 15  1  1
 14 17  1  0
 15 16  1  0
 16 22  1  0
 16 23  1  0
 21  9  1  0
 21 24  1  6
 21 25  1  0
 24 26  1  0
 25 28  1  0
 26 29  2  0
 26 30  1  0
 29 31  1  0
 30 32  2  0
 31 33  2  0
 32 33  1  0
 34 35  1  0
 35 36  2  0
 35 37  1  0
 36 38  1  0
 37 39  2  0
 38 40  2  0
 39 40  1  0
M  END
>  <DRUGBANK_ID>  (1) 
DB04653

>  <COMMON_NAME>  (1) 
N-[(benzyloxy)carbonyl]-L-leucyl-N-[(1S)-3-fluoro-1-(4-hydroxybenzyl)-2-oxopropyl]-L-leucinamide

>  <CAS_NUMBER>  (1) 
133410-84-1

>  <UNII>  (1) 
55GY047QB0

>  <SYNONYMS>  (1) 
Calpain inhibitor IV; CBZ-LEU-LEU-TYR-CH2F; N-[(benzyloxy)carbonyl]leucyl-N(1)-[3-fluoro-1-(4-hydroxybenzyl)-2-oxopropyl]leucinamide

$$$$
