
     RDKit          3D

 28 30  0  0  0  0  0  0  0  0999 V2000
    0.6576    0.1572    0.1202 C   0  0  0  0  0  0  0  0  0  0  0  0
    0.5232    0.3591   -1.3780 C   0  0  0  0  0  0  0  0  0  0  0  0
    1.2112   -0.9222   -2.4692 S   0  0  0  0  0  0  0  0  0  0  0  0
    0.9069   -2.2057   -1.9294 O   0  0  0  0  0  0  0  0  0  0  0  0
    0.7313   -0.5884   -3.8242 O   0  0  0  0  0  0  0  0  0  0  0  0
    2.8821   -0.8027   -2.5946 N   0  0  0  0  0  0  0  0  0  0  0  0
    3.7077   -0.1055   -1.6730 C   0  0  0  0  0  0  0  0  0  0  0  0
    3.5112   -0.2434   -0.3186 C   0  0  0  0  0  0  0  0  0  0  0  0
    3.9811    0.7231    0.5774 C   0  0  0  0  0  0  0  0  0  0  0  0
    4.9310    1.6334    0.1070 C   0  0  0  0  0  0  0  0  0  0  0  0
    5.7723    2.5336    0.7726 N   0  0  0  0  0  0  0  0  0  0  0  0
    5.7921    2.6087    2.2700 C   0  0  0  0  0  0  0  0  0  0  0  0
    6.9490    1.8991    3.2535 C   0  0  0  0  0  0  0  0  0  0  0  0
    8.4272    2.2784    3.1126 C   0  0  0  0  0  0  0  0  0  0  0  0
    8.7428    1.8878    1.7233 C   0  0  0  0  0  0  0  0  0  0  0  0
    8.6092    0.4861    1.1867 C   0  0  0  0  0  0  0  0  0  0  0  0
    8.5523    0.4796   -0.1744 F   0  0  0  0  0  0  0  0  0  0  0  0
    9.7014   -0.2132    1.5305 F   0  0  0  0  0  0  0  0  0  0  0  0
    7.3183   -0.1230    1.7052 C   0  0  0  0  0  0  0  0  0  0  0  0
    7.0272    0.3560    3.1281 C   0  0  0  0  0  0  0  0  0  0  0  0
    6.6562    3.0635   -0.2328 C   0  0  0  0  0  0  0  0  0  0  0  0
    6.4067    2.4725   -1.3952 N   0  0  0  0  0  0  0  0  0  0  0  0
    5.3752    1.5867   -1.2100 C   0  0  0  0  0  0  0  0  0  0  0  0
    4.7638    0.6923   -2.1222 C   0  0  0  0  0  0  0  0  0  0  0  0
    7.9528    3.9716   -0.0213 C   0  0  0  0  0  0  0  0  0  0  0  0
    9.3756    3.2590   -0.5086 C   0  0  0  0  0  0  0  0  0  0  0  0
    7.9479    5.1809   -0.9280 C   0  0  0  0  0  0  0  0  0  0  0  0
    7.8584    4.6931    1.3621 C   0  0  0  0  0  0  0  0  0  0  0  0
  1  2  1  0
  2  3  1  0
  3  4  2  0
  3  5  2  0
  3  6  1  0
  6  7  1  0
  7  8  2  0
  7 24  1  0
  8  9  1  0
  9 10  2  0
 10 11  1  0
 10 23  1  0
 11 12  1  0
 11 21  1  0
 12 13  1  0
 13 14  1  0
 13 20  1  0
 14 15  1  0
 15 16  1  0
 16 17  1  0
 16 18  1  0
 16 19  1  0
 19 20  1  0
 21 22  2  0
 21 25  1  0
 22 23  1  0
 23 24  2  0
 25 26  1  0
 25 27  1  0
 25 28  1  0
M  END
>  <DRUGBANK_ID>  (1) 
DB17077

>  <COMMON_NAME>  (1) 
AZD-1940

>  <CAS_NUMBER>  (1) 
881413-29-2

>  <UNII>  (1) 
0J0035E9FT

>  <SYNONYMS>  (1) 
Ethanesulfonamide, n-(1-((4,4-difluorocyclohexyl)methyl)-2-(1,1-dimethylethyl)-1h-benzimidazol-5-yl)-

$$$$
