444703
     RDKit          3D

 20 23  0  0  1  0  0  0  0  0999 V2000
   -1.3144   -2.2308    1.0814 S   0  0  0  0  0  0  0  0  0  0  0  0
   -1.1110    0.8995   -2.5698 O   0  0  0  0  0  0  0  0  0  0  0  0
   -1.6232   -0.4171   -0.6994 N   0  0  0  0  0  0  0  0  0  0  0  0
   -0.6098   -1.5624   -0.5016 C   0  0  1  0  0  0  0  0  0  0  0  0
    0.6702   -0.7014   -0.3663 C   0  0  0  0  0  0  0  0  0  0  0  0
   -2.0926    0.1829    0.6979 C   0  0  0  0  0  0  0  0  0  0  0  0
   -1.3644   -0.6050    1.7785 C   0  0  0  0  0  0  0  0  0  0  0  0
   -0.2584   -2.8900   -1.3000 C   0  0  0  0  0  0  0  0  0  0  0  0
    0.4205    0.6025   -0.7870 C   0  0  0  0  0  0  0  0  0  0  0  0
   -0.9005    0.5467   -1.4463 C   0  0  0  0  0  0  0  0  0  0  0  0
    1.8987   -0.9795    0.2117 C   0  0  0  0  0  0  0  0  0  0  0  0
   -0.9990   -3.5965   -2.2464 C   0  0  0  0  0  0  0  0  0  0  0  0
    1.2292    1.6595   -0.3893 C   0  0  0  0  0  0  0  0  0  0  0  0
    0.8660   -3.6592   -0.8173 C   0  0  0  0  0  0  0  0  0  0  0  0
    2.8052    0.0294    0.4688 C   0  0  0  0  0  0  0  0  0  0  0  0
   -0.6878   -4.9806   -2.5358 C   0  0  0  0  0  0  0  0  0  0  0  0
    2.4412    1.3515    0.2472 C   0  0  0  0  0  0  0  0  0  0  0  0
    1.2986   -4.9179   -1.2371 C   0  0  0  0  0  0  0  0  0  0  0  0
    0.4598   -5.6244   -2.0415 C   0  0  0  0  0  0  0  0  0  0  0  0
   -1.6246   -5.8647   -3.3059 C   0  0  0  0  0  0  0  0  0  0  0  0
  1  4  1  0
  1  7  1  0
  2 10  2  0
  3  4  1  0
  3  6  1  0
  3 10  1  0
  4  5  1  0
  4  8  1  6
  5  9  2  0
  5 11  1  0
  6  7  1  0
  8 12  2  0
  8 14  1  0
  9 10  1  0
  9 13  1  0
 11 15  2  0
 12 16  1  0
 13 17  2  0
 14 18  2  0
 15 17  1  0
 16 19  2  0
 16 20  1  0
 18 19  1  0
M  END
>  <DRUGBANK_ID>  (1) 
DB07472

>  <COMMON_NAME>  (1) 
(R)-(+)9B-(3-METHYL)PHENYL-2,3-DIHYDROTHIAZOLO[2,3-A]ISOINDOL-5(9BH)-ONE

$$$$
