
     RDKit          3D

 32 37  0  0  0  0  0  0  0  0999 V2000
    1.6425    1.2267    0.2893 C   0  0  0  0  0  0  0  0  0  0  0  0
    0.9562    1.3766   -1.4894 C   0  0  0  0  0  0  0  0  0  0  0  0
    0.9527    0.1722   -2.6267 N   0  0  0  0  0  0  0  0  0  0  0  0
    0.4494   -1.3076   -2.7399 C   0  0  0  0  0  0  0  0  0  0  0  0
    1.0974   -1.7777   -3.9145 C   0  0  0  0  0  0  0  0  0  0  0  0
    1.6599   -0.6548   -4.5547 C   0  0  0  0  0  0  0  0  0  0  0  0
    1.5640    0.4717   -3.8019 C   0  0  0  0  0  0  0  0  0  0  0  0
    2.0253    1.6800   -4.1196 N   0  0  0  0  0  0  0  0  0  0  0  0
    2.5641    1.8559   -5.3548 C   0  0  0  0  0  0  0  0  0  0  0  0
    2.6752    0.7060   -6.2269 C   0  0  0  0  0  0  0  0  0  0  0  0
    2.2469   -0.5321   -5.7667 C   0  0  0  0  0  0  0  0  0  0  0  0
    2.4322   -1.4581   -6.7175 N   0  0  0  0  0  0  0  0  0  0  0  0
    2.9575   -0.7672   -7.7827 C   0  0  0  0  0  0  0  0  0  0  0  0
    3.1170    0.5243   -7.5255 N   0  0  0  0  0  0  0  0  0  0  0  0
    2.1358   -2.8715   -6.6766 C   0  0  0  0  0  0  0  0  0  0  0  0
    2.9312    3.1816   -5.6973 N   0  0  0  0  0  0  0  0  0  0  0  0
    2.7843    4.2994   -4.9263 C   0  0  0  0  0  0  0  0  0  0  0  0
    3.3636    4.4280   -3.6352 C   0  0  0  0  0  0  0  0  0  0  0  0
    3.1037    5.7125   -3.2071 C   0  0  0  0  0  0  0  0  0  0  0  0
    2.3553    6.2718   -4.2104 N   0  0  0  0  0  0  0  0  0  0  0  0
    2.2133    5.4602   -5.2893 N   0  0  0  0  0  0  0  0  0  0  0  0
    1.8063    7.6131   -4.2071 C   0  0  0  0  0  0  0  0  0  0  0  0
    3.5120    6.4233   -1.9714 C   0  0  0  0  0  0  0  0  0  0  0  0
   -0.2134   -2.4683   -1.7254 C   0  0  0  0  0  0  0  0  0  0  0  0
   -0.0126   -3.6206   -1.9807 O   0  0  0  0  0  0  0  0  0  0  0  0
   -0.7919   -2.1236   -0.3359 N   0  0  0  0  0  0  0  0  0  0  0  0
   -0.6087   -0.9086    0.3196 C   0  0  0  0  0  0  0  0  0  0  0  0
   -0.9327    0.3988   -0.1940 C   0  0  0  0  0  0  0  0  0  0  0  0
    0.4574   -0.4739   -0.4690 C   0  0  0  0  0  0  0  0  0  0  0  0
   -0.9199   -3.0408    0.7353 C   0  0  0  0  0  0  0  0  0  0  0  0
   -0.9654   -4.4924    0.7628 C   0  0  0  0  0  0  0  0  0  0  0  0
   -2.2441   -3.6909    0.6379 C   0  0  0  0  0  0  0  0  0  0  0  0
  1  2  1  0
  2  3  1  0
  3  4  1  0
  3  7  1  0
  4  5  2  0
  4 24  1  0
  5  6  1  0
  6  7  2  0
  6 11  1  0
  7  8  1  0
  8  9  2  0
  9 10  1  0
  9 16  1  0
 10 11  2  0
 10 14  1  0
 11 12  1  0
 12 13  1  0
 12 15  1  0
 13 14  2  0
 16 17  1  0
 17 18  1  0
 17 21  2  0
 18 19  2  0
 19 20  1  0
 19 23  1  0
 20 21  1  0
 20 22  1  0
 24 25  2  0
 24 26  1  0
 26 27  1  0
 26 30  1  0
 27 28  1  0
 27 29  1  0
 28 29  1  0
 30 31  1  0
 30 32  1  0
 31 32  1  0
M  END
>  <DRUGBANK_ID>  (1) 
DB12591

>  <COMMON_NAME>  (1) 
BMS-911543

>  <CAS_NUMBER>  (1) 
1271022-90-2

>  <UNII>  (1) 
7N03P021J8

$$$$
