
     RDKit          3D

 12 11  0  0  1  0  0  0  0  0999 V2000
    1.4774   -1.2841    0.0408 C   0  0  0  0  0  0  0  0  0  0  0  0
    2.2177   -0.5677    1.1560 C   0  0  2  0  0  0  0  0  0  0  0  0
    3.1475    0.6582    0.8868 C   0  0  1  0  0  0  0  0  0  0  0  0
    3.5711    0.9982   -0.5615 C   0  0  1  0  0  0  0  0  0  0  0  0
    2.5355    1.6242   -1.5841 C   0  0  2  0  0  0  0  0  0  0  0  0
    1.1976    0.9548   -1.9458 C   0  0  0  0  0  0  0  0  0  0  0  0
    0.5530    1.1875   -3.7771 Br  0  0  0  0  0  0  0  0  0  0  0  0
    3.2653    1.8666   -2.7933 O   0  0  0  0  0  0  0  0  0  0  0  0
    4.6796    1.9502   -0.4466 O   0  0  0  0  0  0  0  0  0  0  0  0
    2.6531    1.8473    1.5420 O   0  0  0  0  0  0  0  0  0  0  0  0
    2.9662   -1.5997    1.8185 O   0  0  0  0  0  0  0  0  0  0  0  0
    2.6825   -2.0979   -1.2868 Br  0  0  0  0  0  0  0  0  0  0  0  0
  1 12  1  0
  2 11  1  6
  2  3  1  0
  2  1  1  0
  3  4  1  0
  3 10  1  6
  4  9  1  1
  5  8  1  6
  5  6  1  0
  5  4  1  0
  6  7  1  0
M  END
>  <DRUGBANK_ID>  (1) 
DB12916

>  <COMMON_NAME>  (1) 
Mitolactol

>  <CAS_NUMBER>  (1) 
10318-26-0

>  <UNII>  (1) 
LJ2P1SIK8Y

>  <SYNONYMS>  (1) 
Mitolactol

$$$$
