
     RDKit          3D

 24 26  0  0  0  0  0  0  0  0999 V2000
   -1.8986    1.2396   -0.0152 C   0  0  0  0  0  0  0  0  0  0  0  0
   -0.5712    0.7877   -0.0063 C   0  0  0  0  0  0  0  0  0  0  0  0
   -0.3181   -0.6042   -0.0025 C   0  0  0  0  0  0  0  0  0  0  0  0
   -1.3972   -1.5024    0.0101 C   0  0  0  0  0  0  0  0  0  0  0  0
   -2.7112   -1.0327    0.0113 C   0  0  0  0  0  0  0  0  0  0  0  0
   -2.9612    0.3360   -0.0076 C   0  0  0  0  0  0  0  0  0  0  0  0
    0.5013    1.7002    0.0050 C   0  0  0  0  0  0  0  0  0  0  0  0
    1.8269    1.2508    0.0207 C   0  0  0  0  0  0  0  0  0  0  0  0
    2.0575   -0.1410    0.0011 C   0  0  0  0  0  0  0  0  0  0  0  0
    1.0055   -1.0549   -0.0091 C   0  0  0  0  0  0  0  0  0  0  0  0
    3.3098   -0.7067   -0.0062 O   0  0  0  0  0  0  0  0  0  0  0  0
    3.0019    2.1727    0.0752 C   0  0  0  0  0  0  0  0  0  0  0  0
    2.7990    3.5502    0.1188 N   0  0  0  0  0  0  0  0  0  0  0  0
    3.7717    4.5366    0.2092 N   0  0  0  0  0  0  0  0  0  0  0  0
    5.0221    4.2055    0.1558 C   0  0  0  0  0  0  0  0  0  0  0  0
    6.1259    5.1769    0.2005 C   0  0  0  0  0  0  0  0  0  0  0  0
    4.1042    1.6185    0.0916 O   0  0  0  0  0  0  0  0  0  0  0  0
    7.2348    4.9268   -0.6146 C   0  0  0  0  0  0  0  0  0  0  0  0
    8.3074    5.8030   -0.5786 C   0  0  0  0  0  0  0  0  0  0  0  0
    8.2919    6.9091    0.2690 C   0  0  0  0  0  0  0  0  0  0  0  0
    7.1977    7.1434    1.1027 C   0  0  0  0  0  0  0  0  0  0  0  0
    6.1033    6.2703    1.0673 C   0  0  0  0  0  0  0  0  0  0  0  0
    9.3776    7.7403    0.2496 O   0  0  0  0  0  0  0  0  0  0  0  0
    9.3761    5.5562   -1.3925 O   0  0  0  0  0  0  0  0  0  0  0  0
  1  2  2  0
  2  3  1  0
  2  7  1  0
  3  4  2  0
  4  5  1  0
  5  6  2  0
  6  1  1  0
  7  8  2  0
  8  9  1  0
  8 12  1  0
  9 10  2  0
  9 11  1  0
 10  3  1  0
 12 13  1  0
 12 17  2  0
 13 14  1  0
 14 15  2  0
 15 16  1  0
 16 18  2  0
 18 19  1  0
 19 20  2  0
 19 24  1  0
 20 21  1  0
 20 23  1  0
 21 22  2  0
 22 16  1  0
M  END
>  <DRUGBANK_ID>  (1) 
DB15964

>  <COMMON_NAME>  (1) 
Dynasore

>  <CAS_NUMBER>  (1) 
304448-55-3

>  <SYNONYMS>  (1) 
3-Hydroxynaphthalene-2-carboxylic acid (3,4-dihydroxybenzylidene)hydrazide; Dynamin Inhibitor I

$$$$
