
     RDKit          3D

 21 22  0  0  0  0  0  0  0  0999 V2000
    0.7015    0.3389   -0.1355 C   0  0  0  0  0  0  0  0  0  0  0  0
    0.3566   -0.4848   -1.3639 C   0  0  0  0  0  0  0  0  0  0  0  0
    0.9061   -1.9199   -1.3498 N   0  0  0  0  0  0  0  0  0  0  0  0
    0.1175   -2.7247   -0.3183 C   0  0  0  0  0  0  0  0  0  0  0  0
    0.4564   -2.6567   -2.6473 C   0  0  0  0  0  0  0  0  0  0  0  0
    2.5017   -2.0328   -1.3034 C   0  0  0  0  0  0  0  0  0  0  0  0
    3.1068   -1.3195   -2.5355 C   0  0  0  0  0  0  0  0  0  0  0  0
    3.2219   -1.4880   -0.0476 C   0  0  0  0  0  0  0  0  0  0  0  0
    2.7893   -2.0915    1.2962 C   0  0  0  0  0  0  0  0  0  0  0  0
    3.2001   -3.5583    1.3165 C   0  0  0  0  0  0  0  0  0  0  0  0
    4.5386   -3.8372    1.5616 C   0  0  0  0  0  0  0  0  0  0  0  0
    4.9761   -5.1478    1.7082 C   0  0  0  0  0  0  0  0  0  0  0  0
    4.0909   -6.2022    1.4877 C   0  0  0  0  0  0  0  0  0  0  0  0
    2.7695   -5.9534    1.1823 C   0  0  0  0  0  0  0  0  0  0  0  0
    2.3095   -4.6363    1.1449 C   0  0  0  0  0  0  0  0  0  0  0  0
    3.1513   -1.2829    2.5398 C   0  0  0  0  0  0  0  0  0  0  0  0
    3.0425    0.1181    2.5600 C   0  0  0  0  0  0  0  0  0  0  0  0
    3.1610    0.8278    3.7515 C   0  0  0  0  0  0  0  0  0  0  0  0
    3.3900    0.1494    4.9417 C   0  0  0  0  0  0  0  0  0  0  0  0
    3.4765   -1.2370    4.9494 C   0  0  0  0  0  0  0  0  0  0  0  0
    3.3582   -1.9428    3.7608 C   0  0  0  0  0  0  0  0  0  0  0  0
  1  2  1  0
  2  3  1  0
  3  4  1  0
  3  5  1  0
  3  6  1  0
  6  7  1  0
  6  8  1  0
  8  9  1  0
  9 10  1  0
  9 16  1  0
 10 11  2  0
 10 15  1  0
 11 12  1  0
 12 13  2  0
 13 14  1  0
 14 15  2  0
 16 17  2  0
 16 21  1  0
 17 18  1  0
 18 19  2  0
 19 20  1  0
 20 21  2  0
M  CHG  1   3   1
M  END
>  <DRUGBANK_ID>  (1) 
DB13505

>  <COMMON_NAME>  (1) 
Emepronium

>  <CAS_NUMBER>  (1) 
27892-33-7

>  <UNII>  (1) 
04QQ8SWA4U

$$$$
