
     RDKit          3D

 14 14  0  0  0  0  0  0  0  0999 V2000
    1.0813    0.0109   -0.2110 C   0  0  0  0  0  0  0  0  0  0  0  0
    0.6373   -1.4233    0.0301 C   0  0  0  0  0  0  0  0  0  0  0  0
    1.1235   -1.9212    1.3885 C   0  0  0  0  0  0  0  0  0  0  0  0
    0.5835   -1.0708    2.5409 C   0  0  0  0  0  0  0  0  0  0  0  0
   -0.9557   -1.0552    2.6013 C   0  0  0  0  0  0  0  0  0  0  0  0
   -1.5257   -2.4537    2.8598 C   0  0  0  0  0  0  0  0  0  0  0  0
   -0.6281   -2.2572    5.2292 C   0  0  0  0  0  0  0  0  0  0  0  0
   -0.2279   -2.7940    6.4486 C   0  0  0  0  0  0  0  0  0  0  0  0
   -0.7712   -4.9929    5.6230 C   0  0  0  0  0  0  0  0  0  0  0  0
   -1.0819   -3.0739    4.1682 C   0  0  0  0  0  0  0  0  0  0  0  0
   -0.3289   -4.1555    6.6433 C   0  0  0  0  0  0  0  0  0  0  0  0
   -1.1330   -4.4516    4.3878 C   0  0  0  0  0  0  0  0  0  0  0  0
   -0.0091   -4.7147    7.8447 O   0  0  0  0  0  0  0  0  0  0  0  0
   -1.5316   -5.3532    3.4403 O   0  0  0  0  0  0  0  0  0  0  0  0
  2  1  1  0
  3  2  1  0
  4  3  1  0
  5  4  1  0
  6  5  1  0
  8  7  2  0
 10  6  1  0
 10  7  1  0
 11  8  1  0
 11  9  2  0
 12  9  1  0
 12 10  2  0
 13 11  1  0
 14 12  1  0
M  END
>  <DRUGBANK_ID>  (1) 
DB11254

>  <COMMON_NAME>  (1) 
Hexylresorcinol

>  <CAS_NUMBER>  (1) 
136-77-6

>  <UNII>  (1) 
R9QTB5E82N

>  <SYNONYMS>  (1) 
4-hexyl-1,3-benzenediol; 4-hexylresorcinol; Hexylresorcinol

$$$$
