B3H
     RDKit          3D

 21 20  0  0  0  0  0  0  0  0999 V2000
    0.9634   -0.7385    0.3049 O   0  0  0  0  0  0  0  0  0  0  0  0
    2.1899   -0.6405    0.2571 C   0  0  0  0  0  0  0  0  0  0  0  0
    2.8574    0.3330    1.1839 C   0  0  0  0  0  0  0  0  0  0  0  0
    3.7581    0.0928    2.3785 C   0  0  0  0  0  0  0  0  0  0  0  0
    4.9919   -0.6536    1.9634 C   0  0  0  0  0  0  0  0  0  0  0  0
    5.8768    0.1318    0.9883 C   0  0  0  0  0  0  0  0  0  0  0  0
    6.8228    1.2812    1.2925 C   0  0  0  0  0  0  0  0  0  0  0  0
    7.8229    0.7700    2.2538 C   0  0  0  0  0  0  0  0  0  0  0  0
    8.7304   -0.2233    1.5512 C   0  0  0  0  0  0  0  0  0  0  0  0
    9.5253    0.4466    0.4379 C   0  0  0  0  0  0  0  0  0  0  0  0
    2.1291    1.3752   -1.8423 O   0  0  0  0  0  0  0  0  0  0  0  0
    2.9818    1.9199   -1.2030 C   0  0  0  0  0  0  0  0  0  0  0  0
    2.6095    3.0824   -0.0649 C   0  0  0  0  0  0  0  0  0  0  0  0
    2.9980    3.2614    1.4696 C   0  0  0  0  0  0  0  0  0  0  0  0
    4.4776    3.2896    1.6350 C   0  0  0  0  0  0  0  0  0  0  0  0
    4.2475   -1.1369   -1.1357 C   0  0  0  0  0  0  0  0  0  0  0  0
    2.8711   -1.2575   -0.7272 O   0  0  0  0  0  0  0  0  0  0  0  0
    4.7421    0.1754   -1.8871 C   0  0  1  0  0  0  0  0  0  0  0  0
    4.3177    1.5300   -1.2971 O   0  0  0  0  0  0  0  0  0  0  0  0
    6.3384    0.1261   -1.9887 C   0  0  0  0  0  0  0  0  0  0  0  0
    6.8550   -1.1355   -2.4104 O   0  0  0  0  0  0  0  0  0  0  0  0
  1  2  2  0
  2  3  1  0
  2 17  1  0
  3  4  1  0
  4  5  1  0
  5  6  1  0
  6  7  1  0
  7  8  1  0
  8  9  1  0
  9 10  1  0
 11 12  2  0
 12 13  1  0
 12 19  1  0
 13 14  1  0
 14 15  1  0
 16 17  1  0
 18 16  1  1
 18 19  1  0
 18 20  1  0
 20 21  1  0
M  END
>  <DRUGBANK_ID>  (1) 
DB07416

>  <COMMON_NAME>  (1) 
(2S)-2-(BUTYRYLOXY)-3-HYDROXYPROPYL NONANOATE

$$$$
