2IH
     RDKit          3D

 16 17  0  0  0  0  0  0  0  0999 V2000
   -1.2392   -0.0779   -0.0082 C   0  0  0  0  0  0  0  0  0  0  0  0
   -0.4155   -1.1786   -0.0098 C   0  0  0  0  0  0  0  0  0  0  0  0
    0.8954   -0.8109   -0.1084 N   0  0  0  0  0  0  0  0  0  0  0  0
    0.8712    0.4980   -0.2052 C   0  0  0  0  0  0  0  0  0  0  0  0
   -0.3963    0.9931   -0.0647 N   0  0  0  0  0  0  0  0  0  0  0  0
   -0.8109    2.3800    0.0288 C   0  0  0  0  0  0  0  0  0  0  0  0
   -0.2594    3.0891    1.2685 C   0  0  0  0  0  0  0  0  0  0  0  0
    1.2657    3.1547    1.2670 C   0  0  0  0  0  0  0  0  0  0  0  0
    1.7849    3.8245   -0.0208 C   0  0  0  0  0  0  0  0  0  0  0  0
    1.4861    5.3235   -0.0129 C   0  0  0  0  0  0  0  0  0  0  0  0
    2.0461    6.0267    1.2296 C   0  0  0  0  0  0  0  0  0  0  0  0
    3.4877    5.9195    1.3391 N   0  0  0  0  0  0  0  0  0  0  0  0
    4.3617    6.9638    1.2591 C   0  0  0  0  0  0  0  0  0  0  0  0
    4.2438    4.7891    1.4928 C   0  0  0  0  0  0  0  0  0  0  0  0
    5.5387    5.1906    1.3344 C   0  0  0  0  0  0  0  0  0  0  0  0
    5.6065    6.5529    1.2258 N   0  0  0  0  0  0  0  0  0  0  0  0
  1  2  2  0
  1  5  1  0
  2  3  1  0
  3  4  2  0
  4  5  1  0
  5  6  1  0
  6  7  1  0
  7  8  1  0
  8  9  1  0
  9 10  1  0
 10 11  1  0
 11 12  1  0
 12 13  1  0
 12 14  1  0
 13 16  2  0
 14 15  2  0
 15 16  1  0
M  END
>  <DRUGBANK_ID>  (1) 
DB06968

>  <COMMON_NAME>  (1) 
1,1'-HEXANE-1,6-DIYLBIS(1H-IMIDAZOLE)

$$$$
