
     RDKit          3D

 27 30  0  0  0  0  0  0  0  0999 V2000
    1.1990   -0.0992   -0.1937 C   0  0  0  0  0  0  0  0  0  0  0  0
    0.7022    1.2398    0.1771 C   0  0  0  0  0  0  0  0  0  0  0  0
    1.1053    2.4456   -0.6207 C   0  0  0  0  0  0  0  0  0  0  0  0
   -0.6878    1.1361    0.3536 N   0  0  0  0  0  0  0  0  0  0  0  0
   -1.6651    0.3464    0.1203 C   0  0  0  0  0  0  0  0  0  0  0  0
   -3.3480    0.9386    0.9209 C   0  0  0  0  0  0  0  0  0  0  0  0
   -3.2152    2.0807    0.9062 C   0  0  0  0  0  0  0  0  0  0  0  0
   -1.6503    1.7926   -0.0548 N   0  0  0  0  0  0  0  0  0  0  0  0
   -4.6467    3.3459    0.9948 S   0  0  0  0  0  0  0  0  0  0  0  0
   -5.6133    3.0086   -0.0457 O   0  0  0  0  0  0  0  0  0  0  0  0
   -5.1647    3.2002    2.3382 O   0  0  0  0  0  0  0  0  0  0  0  0
   -3.9396    4.9845    0.7304 N   0  0  0  0  0  0  0  0  0  0  0  0
   -2.5553    5.4643    0.5482 C   0  0  0  0  0  0  0  0  0  0  0  0
   -2.2826    6.6556    0.4501 O   0  0  0  0  0  0  0  0  0  0  0  0
   -1.5283    4.5932    0.5364 N   0  0  0  0  0  0  0  0  0  0  0  0
   -1.9889    3.3564    0.6231 C   0  0  0  0  0  0  0  0  0  0  0  0
   -2.9833    2.5699   -0.9273 C   0  0  0  0  0  0  0  0  0  0  0  0
   -3.8164    3.3066   -1.8684 C   0  0  0  0  0  0  0  0  0  0  0  0
   -4.6355    2.0962   -2.4327 C   0  0  0  0  0  0  0  0  0  0  0  0
   -4.6922    0.6845   -1.6978 C   0  0  0  0  0  0  0  0  0  0  0  0
   -3.4121    0.6315   -0.9540 C   0  0  0  0  0  0  0  0  0  0  0  0
   -3.0955   -0.7532    0.4674 C   0  0  0  0  0  0  0  0  0  0  0  0
   -2.1282    0.1005    2.0114 C   0  0  0  0  0  0  0  0  0  0  0  0
   -0.9799   -0.5460    2.7054 C   0  0  0  0  0  0  0  0  0  0  0  0
   -0.2448    0.6794    3.3911 C   0  0  0  0  0  0  0  0  0  0  0  0
   -0.3001    2.1188    2.7695 C   0  0  0  0  0  0  0  0  0  0  0  0
   -1.6234    2.0243    2.0401 C   0  0  0  0  0  0  0  0  0  0  0  0
  1  2  1  0
  2  3  1  0
  2  4  1  0
  4  5  1  0
  4  8  1  0
  5  6  2  0
  6  7  1  0
  7  8  2  0
  7  9  1  0
  9 10  2  0
  9 11  2  0
  9 12  1  0
 12 13  1  0
 13 14  2  0
 13 15  1  0
 15 16  1  0
 16 17  2  0
 16 27  1  0
 17 18  1  0
 17 21  1  0
 18 19  1  0
 19 20  1  0
 20 21  1  0
 21 22  2  0
 22 23  1  0
 23 24  1  0
 23 27  2  0
 24 25  1  0
 25 26  1  0
 26 27  1  0
M  END
>  <DRUGBANK_ID>  (1) 
DB18304

>  <COMMON_NAME>  (1) 
Emlenoflast

>  <CAS_NUMBER>  (1) 
1995067-59-8

>  <UNII>  (1) 
SC4RYG0M76

>  <SYNONYMS>  (1) 
1h-pyrazole-3-sulfonamide, n-(((1,2,3,5,6,7-hexahydro-s-indacen-4-yl)amino)carbonyl)-1-(1-methylethyl)-; Inzomelid; N-[[(1,2,3,5,6,7-HEXAHYDRO-S-INDACEN-4-YL) AMINO]CARBONYL]-1-(1-METHYLETHYL)-1H-PYRAZOLE-3-SULFONAMIDE

$$$$
