
     RDKit          3D

 23 23  0  0  0  0  0  0  0  0999 V2000
    0.9376    0.0604    0.1230 C   0  0  0  0  0  0  0  0  0  0  0  0
    0.4640    0.2367    1.4654 O   0  0  0  0  0  0  0  0  0  0  0  0
    0.9171   -0.6939    2.3411 C   0  0  0  0  0  0  0  0  0  0  0  0
    1.6702   -1.6303    2.0752 O   0  0  0  0  0  0  0  0  0  0  0  0
    0.3704   -0.4799    3.7002 C   0  0  0  0  0  0  0  0  0  0  0  0
   -0.9721   -0.1541    3.8443 C   0  0  0  0  0  0  0  0  0  0  0  0
   -1.5425   -0.1012    5.1096 C   0  0  0  0  0  0  0  0  0  0  0  0
   -0.7961   -0.3286    6.2606 C   0  0  0  0  0  0  0  0  0  0  0  0
   -1.3726   -0.1216    7.5530 O   0  0  0  0  0  0  0  0  0  0  0  0
   -2.7108    0.2828    7.7656 C   0  0  0  0  0  0  0  0  0  0  0  0
   -3.5388    0.5397    6.8996 O   0  0  0  0  0  0  0  0  0  0  0  0
   -3.1213    0.4043    9.2094 C   0  0  0  0  0  0  0  0  0  0  0  0
   -3.0716   -0.9149    9.9338 C   0  0  0  0  0  0  0  0  0  0  0  0
   -1.6399   -1.3561   10.0776 C   0  0  0  0  0  0  0  0  0  0  0  0
   -0.7732   -0.2949   10.8043 C   0  0  0  0  0  0  0  0  0  0  0  0
   -1.1362   -0.2286   12.2774 C   0  0  0  0  0  0  0  0  0  0  0  0
   -0.9656   -1.5878   12.9589 C   0  0  0  0  0  0  0  0  0  0  0  0
    0.4833   -2.0701   13.0778 C   0  0  0  0  0  0  0  0  0  0  0  0
    0.9837   -2.1606   14.2035 O   0  0  0  0  0  0  0  0  0  0  0  0
    1.2713   -2.3956   12.0221 N   0  0  0  0  0  0  0  0  0  0  0  0
    0.9264   -2.6425   10.6963 O   0  0  0  0  0  0  0  0  0  0  0  0
    0.5475   -0.7142    6.1329 C   0  0  0  0  0  0  0  0  0  0  0  0
    1.1362   -0.7550    4.8474 C   0  0  0  0  0  0  0  0  0  0  0  0
  1  2  1  0
  2  3  1  0
  3  4  2  0
  3  5  1  0
  5  6  2  0
  5 23  1  0
  6  7  1  0
  7  8  2  0
  8  9  1  0
  8 22  1  0
  9 10  1  0
 10 11  2  0
 10 12  1  0
 12 13  1  0
 13 14  1  0
 14 15  1  0
 15 16  1  0
 16 17  1  0
 17 18  1  0
 18 19  2  0
 18 20  1  0
 20 21  1  0
 22 23  2  0
M  END
>  <DRUGBANK_ID>  (1) 
DB14869

>  <COMMON_NAME>  (1) 
Remetinostat

>  <CAS_NUMBER>  (1) 
946150-57-8

>  <UNII>  (1) 
37NT056AT4

>  <SYNONYMS>  (1) 
Remetinostat

$$$$
