
     RDKit          3D

 37 40  0  0  0  0  0  0  0  0999 V2000
    0.9547    0.0354   -0.0338 C   0  0  0  0  0  0  0  0  0  0  0  0
    0.3732    1.4214    0.2340 C   0  0  0  0  0  0  0  0  0  0  0  0
    0.9473    2.4759   -0.7125 C   0  0  0  0  0  0  0  0  0  0  0  0
   -1.0802    1.4027    0.2236 O   0  0  0  0  0  0  0  0  0  0  0  0
   -1.7084    1.0614   -0.9382 C   0  0  0  0  0  0  0  0  0  0  0  0
   -1.1361    0.7875   -1.9884 O   0  0  0  0  0  0  0  0  0  0  0  0
   -3.2225    1.1201   -0.8552 C   0  0  0  0  0  0  0  0  0  0  0  0
   -3.8390    0.1127    0.0032 N   0  0  0  0  0  0  0  0  0  0  0  0
   -4.5524    0.6037    1.0871 C   0  0  0  0  0  0  0  0  0  0  0  0
   -5.5830    1.5305    0.9036 C   0  0  0  0  0  0  0  0  0  0  0  0
   -6.3722    1.9301    1.9714 C   0  0  0  0  0  0  0  0  0  0  0  0
   -6.1025    1.3950    3.2060 C   0  0  0  0  0  0  0  0  0  0  0  0
   -5.0565    0.4720    3.3121 C   0  0  0  0  0  0  0  0  0  0  0  0
   -4.8815   -0.2008    4.6357 C   0  0  0  0  0  0  0  0  0  0  0  0
   -5.1257   -1.6725    4.7398 N   0  0  0  0  0  0  0  0  0  0  0  0
   -4.7895   -2.1120    6.1329 C   0  0  0  0  0  0  0  0  0  0  0  0
   -5.6805   -1.6123    7.2399 C   0  0  0  0  0  0  0  0  0  0  0  0
   -6.4975   -2.5145    7.9376 C   0  0  0  0  0  0  0  0  0  0  0  0
   -7.3452   -2.0547    8.9436 C   0  0  0  0  0  0  0  0  0  0  0  0
   -7.4405   -0.6783    9.1697 C   0  0  0  0  0  0  0  0  0  0  0  0
   -6.6450    0.2290    8.4831 C   0  0  0  0  0  0  0  0  0  0  0  0
   -5.7341   -0.2489    7.5652 C   0  0  0  0  0  0  0  0  0  0  0  0
   -8.3487   -0.1578   10.0984 N   0  0  0  0  0  0  0  0  0  0  0  0
   -8.4302   -0.4838   11.4279 C   0  0  0  0  0  0  0  0  0  0  0  0
   -9.3900    0.3395   11.9671 C   0  0  0  0  0  0  0  0  0  0  0  0
   -9.8506    1.1083   10.8854 C   0  0  0  0  0  0  0  0  0  0  0  0
   -9.1657    0.8688    9.7683 N   0  0  0  0  0  0  0  0  0  0  0  0
   -6.6783   -2.1074    4.1325 S   0  0  0  0  0  0  0  0  0  0  0  0
   -7.6666   -1.6670    5.0858 O   0  0  0  0  0  0  0  0  0  0  0  0
   -6.7921   -1.6997    2.7447 O   0  0  0  0  0  0  0  0  0  0  0  0
   -6.7328   -3.8588    4.0841 C   0  0  0  0  0  0  0  0  0  0  0  0
   -5.6632   -4.6889    4.3966 C   0  0  0  0  0  0  0  0  0  0  0  0
   -5.8467   -6.0643    4.3916 C   0  0  0  0  0  0  0  0  0  0  0  0
   -7.0719   -6.5562    3.9788 C   0  0  0  0  0  0  0  0  0  0  0  0
   -8.1080   -5.7745    3.6014 N   0  0  0  0  0  0  0  0  0  0  0  0
   -7.9191   -4.4342    3.6660 C   0  0  0  0  0  0  0  0  0  0  0  0
   -4.2596    0.0892    2.2872 N   0  0  0  0  0  0  0  0  0  0  0  0
  1  2  1  0
  2  3  1  0
  2  4  1  0
  4  5  1  0
  5  6  2  0
  5  7  1  0
  7  8  1  0
  8  9  1  0
  9 10  2  0
  9 37  1  0
 10 11  1  0
 11 12  2  0
 12 13  1  0
 13 14  1  0
 13 37  2  0
 14 15  1  0
 15 16  1  0
 15 28  1  0
 16 17  1  0
 17 18  2  0
 17 22  1  0
 18 19  1  0
 19 20  2  0
 20 21  1  0
 20 23  1  0
 21 22  2  0
 23 24  1  0
 23 27  1  0
 24 25  2  0
 25 26  1  0
 26 27  2  0
 28 29  2  0
 28 30  2  0
 28 31  1  0
 31 32  2  0
 31 36  1  0
 32 33  1  0
 33 34  2  0
 34 35  1  0
 35 36  2  0
M  END
>  <DRUGBANK_ID>  (1) 
DB15071

>  <COMMON_NAME>  (1) 
Omidenepag isopropyl

>  <CAS_NUMBER>  (1) 
1187451-19-9

>  <UNII>  (1) 
G0G0H52U6K

>  <SYNONYMS>  (1) 
isopropyl N-(6-(((4-(1H-pyrazol-1-yl)benzyl)(3-pyridinylsulfonyl)amino)methyl)-2-pyridinyl)glycinate; Omidenepag isopropyl

$$$$
