
     RDKit          3D

 30 31  0  0  0  0  0  0  0  0999 V2000
    1.0936    0.0437   -0.2775 C   0  0  0  0  0  0  0  0  0  0  0  0
    0.5010   -1.0831   -1.1213 C   0  0  0  0  0  0  0  0  0  0  0  0
    0.6594   -0.0718    1.1593 C   0  0  0  0  0  0  0  0  0  0  0  0
    0.9318   -2.5059   -0.7068 C   0  0  0  0  0  0  0  0  0  0  0  0
    3.6257    2.5488    0.5598 C   0  0  0  0  0  0  0  0  0  0  0  0
   -1.5037    0.5010    3.5866 C   0  0  0  0  0  0  0  0  0  0  0  0
    3.8965    2.8203   -0.7814 C   0  0  0  0  0  0  0  0  0  0  0  0
   -1.8523    1.7881    3.1345 C   0  0  0  0  0  0  0  0  0  0  0  0
    1.2204    0.9155    2.1259 C   0  0  0  0  0  0  0  0  0  0  0  0
    0.3956   -3.1051    0.6147 C   0  0  0  0  0  0  0  0  0  0  0  0
    3.0801    4.8654    0.9601 C   0  0  0  0  0  0  0  0  0  0  0  0
   -2.8928   -0.4808    1.8881 C   0  0  0  0  0  0  0  0  0  0  0  0
    1.1833    3.1843    2.8211 C   0  0  0  0  0  0  0  0  0  0  0  0
   -1.5210   -3.1295    2.1491 C   0  0  0  0  0  0  0  0  0  0  0  0
    3.2166    3.5666    1.4511 C   0  0  0  0  0  0  0  0  0  0  0  0
   -1.9428   -0.6492    2.9159 C   0  0  0  0  0  0  0  0  0  0  0  0
    3.8108    4.1315   -1.2217 C   0  0  0  0  0  0  0  0  0  0  0  0
   -2.6585    1.9210    2.0086 C   0  0  0  0  0  0  0  0  0  0  0  0
    3.3994    5.1382   -0.3549 C   0  0  0  0  0  0  0  0  0  0  0  0
   -3.2153    0.8005    1.4390 C   0  0  0  0  0  0  0  0  0  0  0  0
    2.7220    3.2544    2.8522 C   0  0  0  0  0  0  0  0  0  0  0  0
   -1.2556   -1.9886    3.1848 C   0  0  0  0  0  0  0  0  0  0  0  0
    0.6832    2.2289    1.8431 N   0  0  0  0  0  0  0  0  0  0  0  0
   -1.0457   -2.9302    0.7673 N   0  0  0  0  0  0  0  0  0  0  0  0
    4.1243    4.4770   -2.5043 O   0  0  0  0  0  0  0  0  0  0  0  0
   -2.8741    3.1403    1.4220 O   0  0  0  0  0  0  0  0  0  0  0  0
    3.2887    6.4297   -0.7767 O   0  0  0  0  0  0  0  0  0  0  0  0
   -4.0614    0.9196    0.3696 O   0  0  0  0  0  0  0  0  0  0  0  0
    3.1336    4.2225    3.8081 O   0  0  0  0  0  0  0  0  0  0  0  0
   -1.6399   -2.4388    4.4817 O   0  0  0  0  0  0  0  0  0  0  0  0
  2  1  1  0
  3  1  1  0
  4  2  1  0
  7  5  2  0
  8  6  2  0
  9  3  1  0
 10  4  1  0
 15  5  1  0
 15 11  2  0
 16  6  1  0
 16 12  2  0
 17  7  1  0
 18  8  1  0
 19 11  1  0
 19 17  2  0
 20 12  1  0
 20 18  2  0
 21 13  1  0
 21 15  1  0
 22 14  1  0
 22 16  1  0
 23  9  1  0
 23 13  1  0
 24 10  1  0
 24 14  1  0
 25 17  1  0
 26 18  1  0
 27 19  1  0
 28 20  1  0
 29 21  1  0
 30 22  1  0
M  END
>  <DRUGBANK_ID>  (1) 
DB08957

>  <COMMON_NAME>  (1) 
Hexoprenaline

>  <CAS_NUMBER>  (1) 
3215-70-1

>  <UNII>  (1) 
G9L6B3W684

>  <SYNONYMS>  (1) 
Hexoprenaline

$$$$
