
     RDKit          3D

 26 28  0  0  0  0  0  0  0  0999 V2000
    1.0821    0.2225   -0.0113 C   0  0  0  0  0  0  0  0  0  0  0  0
    0.5973   -1.1150   -0.5648 C   0  0  0  0  0  0  0  0  0  0  0  0
    1.4238   -2.0800    0.2360 C   0  0  0  0  0  0  0  0  0  0  0  0
   -0.9159   -1.2554   -0.4080 C   0  0  0  0  0  0  0  0  0  0  0  0
   -1.6888   -0.0322   -0.4828 C   0  0  0  0  0  0  0  0  0  0  0  0
   -3.0408   -0.0053   -0.2438 C   0  0  0  0  0  0  0  0  0  0  0  0
   -3.6260   -1.2243   -0.1706 C   0  0  0  0  0  0  0  0  0  0  0  0
   -2.9447   -2.4529   -0.2684 C   0  0  0  0  0  0  0  0  0  0  0  0
   -1.5757   -2.4968   -0.2495 C   0  0  0  0  0  0  0  0  0  0  0  0
   -1.0038   -3.8465   -0.1049 C   0  0  0  0  0  0  0  0  0  0  0  0
   -1.0653   -4.9030   -1.0014 C   0  0  0  0  0  0  0  0  0  0  0  0
   -0.2135   -5.8864   -0.4775 C   0  0  0  0  0  0  0  0  0  0  0  0
    0.2704   -5.5559    0.7183 N   0  0  0  0  0  0  0  0  0  0  0  0
   -0.3183   -4.3689    0.9971 N   0  0  0  0  0  0  0  0  0  0  0  0
    0.1429   -3.6732    2.1835 C   0  0  0  0  0  0  0  0  0  0  0  0
   -5.0063   -1.2706    0.1238 C   0  0  0  0  0  0  0  0  0  0  0  0
   -5.3293   -2.4505    0.2078 O   0  0  0  0  0  0  0  0  0  0  0  0
   -5.7539   -0.1617    0.3250 N   0  0  0  0  0  0  0  0  0  0  0  0
   -5.1759    1.1211    0.2505 C   0  0  0  0  0  0  0  0  0  0  0  0
   -5.7891    2.1707    0.4434 O   0  0  0  0  0  0  0  0  0  0  0  0
   -3.8147    1.1495   -0.0622 N   0  0  0  0  0  0  0  0  0  0  0  0
   -7.2017   -0.2786    0.6708 N   0  0  0  0  0  0  0  0  0  0  0  0
   -8.1862   -1.6375    0.8355 S   0  0  0  0  0  0  0  0  0  0  0  0
   -8.6379   -1.6271    2.2136 O   0  0  0  0  0  0  0  0  0  0  0  0
   -9.1559   -1.5522   -0.2393 O   0  0  0  0  0  0  0  0  0  0  0  0
   -7.3611   -3.2014    0.6143 C   0  0  0  0  0  0  0  0  0  0  0  0
  1  2  1  0
  2  3  1  0
  2  4  1  0
  4  5  2  0
  4  9  1  0
  5  6  1  0
  6  7  2  0
  6 21  1  0
  7  8  1  0
  7 16  1  0
  8  9  2  0
  9 10  1  0
 10 11  2  0
 10 14  1  0
 11 12  1  0
 12 13  2  0
 13 14  1  0
 14 15  1  0
 16 17  2  0
 16 18  1  0
 18 19  1  0
 18 22  1  0
 19 20  2  0
 19 21  1  0
 22 23  1  0
 23 24  2  0
 23 25  2  0
 23 26  1  0
M  END
>  <DRUGBANK_ID>  (1) 
DB12367

>  <COMMON_NAME>  (1) 
Selurampanel

>  <CAS_NUMBER>  (1) 
912574-69-7

>  <UNII>  (1) 
7WG1MR7DAR

>  <SYNONYMS>  (1) 
Selurampanel

$$$$
