M1N
     RDKit          3D

 32 34  0  0  0  0  0  0  0  0999 V2000
    5.8545    5.2822   -0.0080 O   0  0  0  0  0  0  0  0  0  0  0  0
    4.7647    5.2893    0.6458 C   0  0  0  0  0  0  0  0  0  0  0  0
    4.6118    6.1738    1.8099 N   0  0  0  0  0  0  0  0  0  0  0  0
    3.3944    6.0064    2.6167 C   0  0  2  0  0  0  0  0  0  0  0  0
    3.3801    4.5429    3.2633 B   0  0  0  0  0  0  0  0  0  0  0  0
    2.7227    3.4078    2.5357 O   0  0  0  0  0  0  0  0  0  0  0  0
    4.0242    4.3060    4.5971 O   0  0  0  0  0  0  0  0  0  0  0  0
    2.1716    6.1808    1.7309 C   0  0  0  0  0  0  0  0  0  0  0  0
    0.9128    6.0077    2.5650 C   0  0  0  0  0  0  0  0  0  0  0  0
    0.8903    7.0504    3.6708 C   0  0  0  0  0  0  0  0  0  0  0  0
   -0.3100    6.1821    1.6792 C   0  0  0  0  0  0  0  0  0  0  0  0
    3.8807    4.1684    0.1238 C   0  0  2  0  0  0  0  0  0  0  0  0
    4.5271    3.5332   -1.0337 N   0  0  0  0  0  0  0  0  0  0  0  0
    4.6115    4.2714   -2.3021 C   0  0  0  0  0  0  0  0  0  0  0  0
    5.1510    3.6136   -3.5009 N   0  0  0  0  0  0  0  0  0  0  0  0
    4.7491    2.2470   -3.8810 C   0  0  0  0  0  0  0  0  0  0  0  0
    5.9822    1.3846   -4.0313 C   0  0  0  0  0  0  0  0  0  0  0  0
    6.8762    1.9339   -4.9992 O   0  0  0  0  0  0  0  0  0  0  0  0
    7.2829    3.2424   -4.5980 C   0  0  0  0  0  0  0  0  0  0  0  0
    6.0924    4.1764   -4.4899 C   0  0  0  0  0  0  0  0  0  0  0  0
    4.2180    5.4784   -2.3623 O   0  0  0  0  0  0  0  0  0  0  0  0
    2.5355    4.7379   -0.2964 C   0  0  0  0  0  0  0  0  0  0  0  0
    1.6516    3.6169   -0.8184 C   0  0  0  0  0  0  0  0  0  0  0  0
    0.2938    3.6267   -0.6198 C   0  0  0  0  0  0  0  0  0  0  0  0
   -0.5230    2.6445   -1.2237 C   0  0  0  0  0  0  0  0  0  0  0  0
    0.0462    1.6772   -2.0043 C   0  0  0  0  0  0  0  0  0  0  0  0
    1.4362    1.6709   -2.2865 C   0  0  0  0  0  0  0  0  0  0  0  0
    2.0200    0.7390   -3.1521 C   0  0  0  0  0  0  0  0  0  0  0  0
    3.3815    0.7255   -3.4054 C   0  0  0  0  0  0  0  0  0  0  0  0
    4.1821    1.7000   -2.7881 C   0  0  0  0  0  0  0  0  0  0  0  0
    3.6632    2.6249   -1.9406 C   0  0  0  0  0  0  0  0  0  0  0  0
    2.2651    2.6586   -1.6613 C   0  0  0  0  0  0  0  0  0  0  0  0
  1  2  2  0
  2  3  1  0
  4  8  1  6
  4  5  1  0
  4  3  1  0
  5  6  1  0
  5  7  1  0
  8  9  1  0
  9 10  1  0
  9 11  1  0
 12 22  1  6
 12 13  1  0
 12  2  1  0
 13 14  1  0
 14 15  1  0
 14 21  2  0
 15 16  1  0
 15 20  1  0
 16 17  1  0
 17 18  1  0
 18 19  1  0
 19 20  1  0
 22 23  1  0
 23 24  2  0
 23 32  1  0
 24 25  1  0
 25 26  2  0
 26 27  1  0
 27 28  1  0
 27 32  2  0
 28 29  2  0
 29 30  1  0
 30 31  2  0
 31 32  1  0
M  END
>  <DRUGBANK_ID>  (1) 
DB04732

>  <COMMON_NAME>  (1) 
N-(4-MORPHOLINE)CARBONYL-B-(1-NAPHTHYL)-L-ALANINE-L-LEUCINE BORONIC ACID

$$$$
