
     RDKit          3D

 23 27  0  0  0  0  0  0  0  0999 V2000
   -1.5438    0.2669    2.1460 C   0  0  1  0  0  0  0  0  0  0  0  0
   -1.0446    1.6234    2.4868 C   0  0  0  0  0  0  0  0  0  0  0  0
   -1.5607   -0.7745    3.2273 C   0  0  2  0  0  0  0  0  0  0  0  0
   -2.0192    2.5998    2.4096 C   0  0  0  0  0  0  0  0  0  0  0  0
   -3.0317    0.7161    2.1888 C   0  0  1  0  0  0  0  0  0  0  0  0
   -3.2405    2.1325    2.1209 O   0  0  0  0  0  0  0  0  0  0  0  0
   -0.0072   -0.9497    3.3114 C   0  0  1  0  0  0  0  0  0  0  0  0
    0.1916    1.9010    2.7974 C   0  0  0  0  0  0  0  0  0  0  0  0
   -2.6875   -1.8127    2.5793 C   0  0  0  0  0  0  0  0  0  0  0  0
    0.1954   -2.1988    2.4949 N   0  0  0  0  0  0  0  0  0  0  0  0
    0.9353    0.6005    2.9343 C   0  0  0  0  0  0  0  0  0  0  0  0
   -0.6665   -0.5925    0.8604 C   0  0  0  0  0  0  0  0  0  0  0  0
   -3.3246   -1.4403    1.4123 C   0  0  0  0  0  0  0  0  0  0  0  0
   -3.6455   -0.0055    1.0587 C   0  0  2  0  0  0  0  0  0  0  0  0
   -1.6996    3.9368    2.5478 C   0  0  0  0  0  0  0  0  0  0  0  0
   -0.3654   -2.1142    1.1454 C   0  0  0  0  0  0  0  0  0  0  0  0
    0.6074    3.2713    2.7898 C   0  0  0  0  0  0  0  0  0  0  0  0
   -0.3843    4.2914    2.6686 C   0  0  0  0  0  0  0  0  0  0  0  0
    2.4791   -1.7098    2.7346 C   0  0  0  0  0  0  0  0  0  0  0  0
    2.8461   -1.2597    3.9558 C   0  0  0  0  0  0  0  0  0  0  0  0
    1.5036   -2.8147    2.5904 C   0  0  0  0  0  0  0  0  0  0  0  0
   -2.7150    4.8422    2.5117 O   0  0  0  0  0  0  0  0  0  0  0  0
   -3.0413    0.4073   -0.1701 O   0  0  0  0  0  0  0  0  0  0  0  0
  1  2  1  0
  1 12  1  6
  3  1  1  0
  4  2  2  0
  4  6  1  0
  5  1  1  0
  5  6  1  6
  7  3  1  0
  7 10  1  0
  8  2  1  0
  8 11  1  0
  3  9  1  6
  9 13  2  0
 10 16  1  0
  7 11  1  6
 13 14  1  0
 14  5  1  0
 14 23  1  6
 15  4  1  0
 15 18  2  0
 16 12  1  0
 17  8  2  0
 18 17  1  0
 19 21  1  0
 20 19  2  0
 21 10  1  0
 22 15  1  0
M  END
>  <DRUGBANK_ID>  (1) 
DB11490

>  <COMMON_NAME>  (1) 
Nalorphine

>  <CAS_NUMBER>  (1) 
62-67-9

>  <UNII>  (1) 
U59WB2WRY2

>  <SYNONYMS>  (1) 
Nalorfina; Nalorphine; Nalorphinum

$$$$
