FCD
     RDKit          3D

 15 16  0  0  0  0  0  0  0  0999 V2000
   -1.1054    0.0706   -0.0479 O   0  0  0  0  0  0  0  0  0  0  0  0
   -0.2220    1.1408   -0.0284 C   0  0  0  0  0  0  0  0  0  0  0  0
   -0.6157    2.5384   -0.0250 C   0  0  0  0  0  0  0  0  0  0  0  0
   -1.9508    2.7634   -0.0268 O   0  0  0  0  0  0  0  0  0  0  0  0
    1.0752    0.6618   -0.0163 C   0  0  0  0  0  0  0  0  0  0  0  0
    1.0097   -0.7375   -0.0326 C   0  0  0  0  0  0  0  0  0  0  0  0
   -0.3273   -1.0755   -0.0290 C   0  0  0  0  0  0  0  0  0  0  0  0
    0.1849    3.4716   -0.0255 O   0  0  0  0  0  0  0  0  0  0  0  0
   -0.9554   -2.3988    0.0292 C   0  0  0  0  0  0  0  0  0  0  0  0
   -1.7547   -2.8581   -1.0304 C   0  0  0  0  0  0  0  0  0  0  0  0
   -2.2470   -4.1737   -1.0444 C   0  0  0  0  0  0  0  0  0  0  0  0
   -1.9560   -5.0495    0.0000 C   0  0  0  0  0  0  0  0  0  0  0  0
   -1.1542   -4.6193    1.0523 C   0  0  0  0  0  0  0  0  0  0  0  0
   -0.6477   -3.3123    1.0625 C   0  0  0  0  0  0  0  0  0  0  0  0
    0.3821   -2.8982    2.3955 Cl  0  0  0  0  0  0  0  0  0  0  0  0
  1  2  1  0
  1  7  1  0
  2  3  1  0
  2  5  2  0
  3  4  1  0
  3  8  2  0
  5  6  1  0
  6  7  2  0
  7  9  1  0
  9 10  2  0
  9 14  1  0
 10 11  1  0
 11 12  2  0
 12 13  1  0
 13 14  2  0
 14 15  1  0
M  END
>  <DRUGBANK_ID>  (1) 
DB02909

>  <SECONDARY_ACCESSION_NUMBERS>  (1) 
EXPT01402

>  <COMMON_NAME>  (1) 
5-(2-Chlorophenyl)Furan-2-Carboxylic Acid

>  <UNII>  (1) 
L5RCO4YA70

$$$$
