
     RDKit          3D

 10 10  0  0  0  0  0  0  0  0999 V2000
    0.0567   -1.5372   -0.3238 C   0  0  0  0  0  0  0  0  0  0  0  0
    0.8463   -0.2579   -0.0688 C   0  0  0  0  0  0  0  0  0  0  0  0
   -1.3124   -1.2699    0.2941 C   0  0  0  0  0  0  0  0  0  0  0  0
   -0.0324   -1.8884   -1.7456 N   0  0  0  0  0  0  0  0  0  0  0  0
   -0.2400    1.1336    0.0286 S   0  0  0  0  0  0  0  0  0  0  0  0
    2.0579   -0.1448   -0.0219 O   0  0  0  0  0  0  0  0  0  0  0  0
   -1.7429    0.1296   -0.1048 C   0  0  0  0  0  0  0  0  0  0  0  0
    0.4842   -3.0752   -2.2141 C   0  0  0  0  0  0  0  0  0  0  0  0
    0.3517   -3.3135   -3.6971 C   0  0  0  0  0  0  0  0  0  0  0  0
    0.9946   -3.9159   -1.4805 O   0  0  0  0  0  0  0  0  0  0  0  0
  1  2  1  0
  1  3  1  0
  1  4  1  0
  2  5  1  0
  2  6  2  0
  3  7  1  0
  4  8  1  0
  5  7  1  0
  8  9  1  0
  8 10  2  0
M  END
>  <DRUGBANK_ID>  (1) 
DB13442

>  <COMMON_NAME>  (1) 
Citiolone

>  <CAS_NUMBER>  (1) 
1195-16-0

>  <UNII>  (1) 
70JKL15MUH

>  <SYNONYMS>  (1) 
Citiolona; Citiolone; Citiolonum

$$$$
