685
     RDKit          3D

 28 30  0  0  0  0  0  0  0  0999 V2000
    0.9560   -0.0862    0.0139 C   0  0  0  0  0  0  0  0  0  0  0  0
    0.4515    1.3104   -0.3628 C   0  0  1  0  0  0  0  0  0  0  0  0
    0.9615    1.6974   -1.7633 C   0  0  0  0  0  0  0  0  0  0  0  0
    0.4822    0.7901   -2.7585 O   0  0  0  0  0  0  0  0  0  0  0  0
   -1.0157    1.3677   -0.3013 N   0  0  0  0  0  0  0  0  0  0  0  0
   -1.7131    2.2426    0.5219 C   0  0  0  0  0  0  0  0  0  0  0  0
   -1.1105    3.0412    1.2466 O   0  0  0  0  0  0  0  0  0  0  0  0
   -3.1672    2.1437    0.4911 C   0  0  0  0  0  0  0  0  0  0  0  0
   -4.1640    3.5506    0.5872 S   0  0  0  0  0  0  0  0  0  0  0  0
   -5.5920    2.5728    0.5597 C   0  0  0  0  0  0  0  0  0  0  0  0
   -5.3484    1.2768    0.4992 N   0  0  0  0  0  0  0  0  0  0  0  0
   -3.9803    1.0221    0.4722 C   0  0  0  0  0  0  0  0  0  0  0  0
   -3.5500   -0.3986    0.4706 C   0  0  0  0  0  0  0  0  0  0  0  0
   -6.9384    3.1893    0.5584 C   0  0  0  0  0  0  0  0  0  0  0  0
   -7.3662    4.0162   -0.4529 C   0  0  0  0  0  0  0  0  0  0  0  0
   -8.6635    4.4658   -0.3523 C   0  0  0  0  0  0  0  0  0  0  0  0
   -9.5023    4.1354    0.6491 N   0  0  0  0  0  0  0  0  0  0  0  0
   -9.0125    3.3227    1.5944 C   0  0  0  0  0  0  0  0  0  0  0  0
   -9.8642    2.9547    2.6376 N   0  0  0  0  0  0  0  0  0  0  0  0
   -9.4890    2.1361    3.7059 C   0  0  0  0  0  0  0  0  0  0  0  0
   -8.4198    2.5357    4.5135 C   0  0  0  0  0  0  0  0  0  0  0  0
   -7.8579    1.6804    5.4586 C   0  0  0  0  0  0  0  0  0  0  0  0
   -6.6746    2.1392    6.2533 C   0  0  0  0  0  0  0  0  0  0  0  0
   -8.3888    0.3944    5.6038 C   0  0  0  0  0  0  0  0  0  0  0  0
   -9.4839   -0.0201    4.8268 C   0  0  0  0  0  0  0  0  0  0  0  0
  -10.0230   -1.4148    4.9627 C   0  0  0  0  0  0  0  0  0  0  0  0
  -10.0421    0.8679    3.8925 C   0  0  0  0  0  0  0  0  0  0  0  0
   -7.7524    2.8403    1.5730 N   0  0  0  0  0  0  0  0  0  0  0  0
  2  1  1  6
  2  3  1  0
  2  5  1  0
  4  3  1  0
  5  6  1  0
  6  8  1  0
  7  6  2  0
  8 12  2  0
  8  9  1  0
  9 10  1  0
 10 14  1  0
 11 10  2  0
 12 11  1  0
 13 12  1  0
 14 28  1  0
 14 15  2  0
 15 16  1  0
 16 17  2  0
 18 17  1  0
 18 19  1  0
 20 19  1  0
 20 27  1  0
 21 20  2  0
 22 21  1  0
 22 24  2  0
 23 22  1  0
 24 25  1  0
 25 26  1  0
 25 27  2  0
 28 18  2  0
M  END
>  <DRUGBANK_ID>  (1) 
DB07194

>  <COMMON_NAME>  (1) 
2-{2-[(3,5-dimethylphenyl)amino]pyrimidin-4-yl}-N-[(1S)-2-hydroxy-1-methylethyl]-4-methyl-1,3-thiazole-5-carboxamide

$$$$
