248
     RDKit          3D

 33 36  0  0  1  0  0  0  0  0999 V2000
   -0.7902   -0.1621   -0.3091 O   0  0  0  0  0  0  0  0  0  0  0  0
   -0.6359    1.8754   -1.6298 O   0  0  0  0  0  0  0  0  0  0  0  0
   -3.2123   -3.1540   -0.7529 N   0  0  0  0  0  0  0  0  0  0  0  0
   -0.1223   -0.5608   -3.6325 N   0  0  0  0  0  0  0  0  0  0  0  0
   -2.4536    1.4654   -0.1701 N   0  0  0  0  0  0  0  0  0  0  0  0
   -1.6951    3.5909   -1.1141 N   0  0  0  0  0  0  0  0  0  0  0  0
   -4.9268    4.5765   -0.3385 N   0  0  0  0  0  0  0  0  0  0  0  0
   -3.0047   -2.7186   -1.5703 C   0  0  1  0  0  0  0  0  0  0  0  0
   -2.2832   -3.9714   -1.3694 C   0  0  1  0  0  0  0  0  0  0  0  0
   -3.3957   -1.8831    0.5356 C   0  0  0  0  0  0  0  0  0  0  0  0
   -2.9383   -0.7526    0.0718 C   0  0  0  0  0  0  0  0  0  0  0  0
   -0.7969   -3.6070   -1.5049 C   0  0  0  0  0  0  0  0  0  0  0  0
   -2.1926   -2.3663    0.2057 C   0  0  0  0  0  0  0  0  0  0  0  0
   -2.8340   -2.3533   -3.3203 C   0  0  0  0  0  0  0  0  0  0  0  0
   -1.5064   -2.1702   -3.5214 C   0  0  0  0  0  0  0  0  0  0  0  0
   -0.5372   -2.5306   -2.5763 C   0  0  0  0  0  0  0  0  0  0  0  0
   -4.8863   -2.3605   -1.2327 C   0  0  0  0  0  0  0  0  0  0  0  0
   -1.9373    0.2015   -0.1576 C   0  0  0  0  0  0  0  0  0  0  0  0
   -1.1589   -1.1140   -4.3331 C   0  0  0  0  0  0  0  0  0  0  0  0
   -3.3880   -2.5505   -4.7046 C   0  0  0  0  0  0  0  0  0  0  0  0
    0.2154   -1.3744   -2.5566 C   0  0  0  0  0  0  0  0  0  0  0  0
   -1.8979   -0.7751   -5.4724 C   0  0  0  0  0  0  0  0  0  0  0  0
   -2.9450   -1.6604   -5.7517 C   0  0  0  0  0  0  0  0  0  0  0  0
   -4.9627   -0.8783   -1.7433 C   0  0  0  0  0  0  0  0  0  0  0  0
   -3.8684    1.6149    0.5891 C   0  0  0  0  0  0  0  0  0  0  0  0
   -1.6146    2.2496   -0.9799 C   0  0  0  0  0  0  0  0  0  0  0  0
   -4.0383    2.6046    1.6685 C   0  0  0  0  0  0  0  0  0  0  0  0
   -5.4577   -0.4918   -2.9187 C   0  0  0  0  0  0  0  0  0  0  0  0
   -3.9496    3.9560    1.1438 C   0  0  0  0  0  0  0  0  0  0  0  0
   -2.7923    4.2497   -0.7779 C   0  0  0  0  0  0  0  0  0  0  0  0
   -4.2686    5.9891   -1.2959 C   0  0  0  0  0  0  0  0  0  0  0  0
   -5.0941    3.4118   -1.6102 C   0  0  0  0  0  0  0  0  0  0  0  0
   -2.7357    5.6664    0.4290 C   0  0  0  0  0  0  0  0  0  0  0  0
  1 18  2  0
  2 26  2  0
  3  9  1  0
  3 13  1  0
  3 17  1  0
  4 19  1  0
  4 21  1  0
  5 18  1  0
  5 25  1  0
  5 26  1  0
  6 26  1  0
  6 30  1  0
  7 29  1  0
  7 31  1  0
  7 32  1  0
  8  9  1  0
  8 10  1  1
  8 14  1  0
  9 12  1  1
 10 11  1  0
 11 13  1  0
 11 18  1  0
 12 16  1  0
 14 15  2  0
 14 20  1  0
 15 16  1  0
 15 19  1  0
 16 21  2  0
 17 24  1  0
 19 22  2  0
 20 23  2  0
 22 23  1  0
 24 28  2  0
 25 27  1  0
 27 29  1  0
 30 33  1  0
M  END
>  <DRUGBANK_ID>  (1) 
DB00248

>  <SECONDARY_ACCESSION_NUMBERS>  (1) 
APRD00836

>  <COMMON_NAME>  (1) 
Cabergoline

>  <CAS_NUMBER>  (1) 
81409-90-7

>  <UNII>  (1) 
LL60K9J05T

>  <SYNONYMS>  (1) 
(8R)-6-allyl-N-[3-(dimethylamino)propyl]-N-(ethylcarbamoyl)ergoline-8-carboxamide; (8β)-N-[3-(dimethylamino)propyl]-N-[(ethylamino)carbonyl]-6-(2-propenyl)-ergoline-8-carboxamide; 1-((6-allylergolin-8β-yl)carbonyl)-1-(3-(dimethylamino)propyl)-3-ethylurea; 1-[(6-allylergoline-8β-yl)carbonyl]-1-[3-(dimethylamino)propyl]-3-ethylurea; 1-ethyl-3-(3'-dimethylamionpropyl)-2-(6'-allylergoline-8'β-carbonyl)urea; Cabergolina; Cabergoline; Cabergolinum

$$$$
