
     RDKit          3D

 18 18  0  0  0  0  0  0  0  0999 V2000
    0.6759   -1.0236   -0.4592 C   0  0  0  0  0  0  0  0  0  0  0  0
    1.0953   -2.4715   -0.1235 C   0  0  0  0  0  0  0  0  0  0  0  0
    1.3147    0.1488   -0.0535 C   0  0  0  0  0  0  0  0  0  0  0  0
   -0.4545   -0.7399   -1.1834 C   0  0  0  0  0  0  0  0  0  0  0  0
    0.2906   -3.5679    0.0562 O   0  0  0  0  0  0  0  0  0  0  0  0
    2.3399   -2.6433    0.0646 O   0  0  0  0  0  0  0  0  0  0  0  0
    0.6726    1.4344   -0.0008 C   0  0  0  0  0  0  0  0  0  0  0  0
    2.6489    0.1240    0.2339 O   0  0  0  0  0  0  0  0  0  0  0  0
   -1.1412    0.5577   -1.1094 C   0  0  0  0  0  0  0  0  0  0  0  0
   -1.1664   -3.8237    0.1568 C   0  0  0  0  0  0  0  0  0  0  0  0
   -0.6377    1.6101   -0.3790 C   0  0  0  0  0  0  0  0  0  0  0  0
   -1.8170   -3.2868    1.4645 C   0  0  0  0  0  0  0  0  0  0  0  0
   -1.5975   -1.8150    1.6041 C   0  0  0  0  0  0  0  0  0  0  0  0
   -3.3331   -3.3718    1.4764 C   0  0  0  0  0  0  0  0  0  0  0  0
   -2.3698   -1.1036    0.4997 C   0  0  0  0  0  0  0  0  0  0  0  0
   -3.9405   -4.7104    1.4335 C   0  0  0  0  0  0  0  0  0  0  0  0
   -3.8013   -0.7393    0.1926 C   0  0  0  0  0  0  0  0  0  0  0  0
   -4.1866    0.0360    1.3899 C   0  0  0  0  0  0  0  0  0  0  0  0
  1  2  1  0
  1  3  2  0
  1  4  1  0
  2  5  1  0
  2  6  2  0
  3  7  1  0
  3  8  1  0
  4  9  2  0
  5 10  1  0
  7 11  2  0
  9 11  1  0
 10 12  1  0
 12 13  1  0
 12 14  1  0
 13 15  1  0
 14 16  1  0
 15 17  1  0
 17 18  1  0
M  END
>  <DRUGBANK_ID>  (1) 
DB11062

>  <COMMON_NAME>  (1) 
Octisalate

>  <CAS_NUMBER>  (1) 
118-60-5

>  <UNII>  (1) 
4X49Y0596W

>  <SYNONYMS>  (1) 
2-Ethylhexyl 2-hydroxybenzoate; 2-Ethylhexyl salicylate; Octisalate; Octyl salicylate

$$$$
