
     RDKit          3D

 24 26  0  0  0  0  0  0  0  0999 V2000
    1.5430    0.3115   -0.9610 C   0  0  0  0  0  0  0  0  0  0  0  0
    0.7858   -0.7935   -1.2736 C   0  0  0  0  0  0  0  0  0  0  0  0
    0.8928    1.4557   -0.5223 C   0  0  0  0  0  0  0  0  0  0  0  0
   -0.6228   -0.7432   -1.1884 C   0  0  0  0  0  0  0  0  0  0  0  0
   -0.5037    1.4510   -0.3110 C   0  0  0  0  0  0  0  0  0  0  0  0
    0.4659   -2.5170    1.2494 C   0  0  0  0  0  0  0  0  0  0  0  0
   -2.0958   -2.5393    1.0126 C   0  0  0  0  0  0  0  0  0  0  0  0
   -3.7711   -0.0303    0.6861 C   0  0  0  0  0  0  0  0  0  0  0  0
   -1.5138   -5.0119   -0.3862 C   0  0  0  0  0  0  0  0  0  0  0  0
   -1.3282    0.3494   -0.6385 C   0  0  0  0  0  0  0  0  0  0  0  0
   -0.8601   -3.3030    1.4607 C   0  0  0  0  0  0  0  0  0  0  0  0
   -2.8580    0.4448   -0.4314 C   0  0  0  0  0  0  0  0  0  0  0  0
    0.5988   -1.0756    1.8476 C   0  0  0  0  0  0  0  0  0  0  0  0
   -3.8588   -0.6856   -0.6598 C   0  0  0  0  0  0  0  0  0  0  0  0
   -2.7713   -2.8905   -0.2878 C   0  0  0  0  0  0  0  0  0  0  0  0
   -0.6738   -4.6291    0.7629 C   0  0  0  0  0  0  0  0  0  0  0  0
   -2.4890   -4.2464   -0.8837 C   0  0  0  0  0  0  0  0  0  0  0  0
    0.2090   -0.9638    3.2972 C   0  0  0  0  0  0  0  0  0  0  0  0
    1.9304   -0.4431    1.7743 N   0  0  0  0  0  0  0  0  0  0  0  0
   -3.5363   -2.0577   -0.9315 N   0  0  0  0  0  0  0  0  0  0  0  0
    0.2344   -5.3923    1.0938 O   0  0  0  0  0  0  0  0  0  0  0  0
   -3.2154   -4.6325   -2.0005 O   0  0  0  0  0  0  0  0  0  0  0  0
    0.8439   -0.3917    4.1959 O   0  0  0  0  0  0  0  0  0  0  0  0
   -1.0019   -1.4460    3.5765 O   0  0  0  0  0  0  0  0  0  0  0  0
  2  1  2  0
  3  1  1  0
  4  2  1  0
  5  3  2  0
 10  4  2  0
 10  5  1  0
 11  6  1  0
 11  7  1  0
 12  8  1  0
 12 10  1  0
 13  6  1  0
 14  8  1  0
 14 12  1  0
 15  7  1  0
 16  9  1  0
 16 11  1  0
 17  9  2  0
 17 15  1  0
 18 13  1  0
 19 13  1  0
 20 14  1  0
 20 15  2  0
 21 16  2  0
 22 17  1  0
 23 18  2  0
 24 18  1  0
M  END
>  <DRUGBANK_ID>  (1) 
DB01657

>  <SECONDARY_ACCESSION_NUMBERS>  (1) 
EXPT03142

>  <COMMON_NAME>  (1) 
2-amino-3-[4-hydroxy-6-oxo-3-(2-phenyl-cyclopropylimino)-cyclohexa-1,4-dienyl]-propionic acid

$$$$
