
     RDKit          3D

  6  3  0  0  0  0  0  0  0  0999 V2000
    0.8814    0.0442   -0.5244 C   0  0  0  0  0  0  0  0  0  0  0  0
    0.1922   -0.7731   -1.1394 O   0  0  0  0  0  0  0  0  0  0  0  0
    0.4313    0.7064    0.3952 O   0  0  0  0  0  0  0  0  0  0  0  0
    2.0434   -0.1434   -0.2352 O   0  0  0  0  0  0  0  0  0  0  0  0
    0.2089   -1.3246    0.6042 Li  0  0  0  0  0 15  0  0  0  0  0  0
    2.1255    1.3370    0.8258 Li  0  0  0  0  0 15  0  0  0  0  0  0
  2  1  2  0
  3  1  1  0
  4  1  1  0
M  CHG  4   3  -1   4  -1   5   1   6   1
M  END
>  <DRUGBANK_ID>  (1) 
DB14509

>  <SECONDARY_ACCESSION_NUMBERS>  (1) 
DBSALT001075

>  <COMMON_NAME>  (1) 
Lithium carbonate

>  <CAS_NUMBER>  (1) 
554-13-2

>  <UNII>  (1) 
2BMD2GNA4V

>  <SYNONYMS>  (1) 
Carbonic acid, dilithium salt; Dilithium carbonate; Lithii carbonas; Lithium carbonate; Lithonate

$$$$
