
     RDKit          3D

 26 28  0  0  0  0  0  0  0  0999 V2000
   -2.4187   -1.0598    0.0055 C   0  0  0  0  0  0  0  0  0  0  0  0
   -2.7401    0.2865    0.0099 C   0  0  0  0  0  0  0  0  0  0  0  0
   -1.7311    1.2718    0.0143 C   0  0  0  0  0  0  0  0  0  0  0  0
   -1.0820   -1.4359   -0.0072 C   0  0  0  0  0  0  0  0  0  0  0  0
   -0.0339   -0.4825   -0.0024 C   0  0  0  0  0  0  0  0  0  0  0  0
   -0.3654    0.8930    0.0096 C   0  0  0  0  0  0  0  0  0  0  0  0
    0.6261    1.8148    0.0283 N   0  0  0  0  0  0  0  0  0  0  0  0
    1.3365   -0.8597    0.0009 C   0  0  0  0  0  0  0  0  0  0  0  0
    1.7116   -2.2087   -0.0025 N   0  0  0  0  0  0  0  0  0  0  0  0
   -2.1301    2.7002    0.0152 C   0  0  0  0  0  0  0  0  0  0  0  0
    2.2998    0.1640    0.0101 C   0  0  0  0  0  0  0  0  0  0  0  0
    1.9630    1.4693    0.0230 N   0  0  0  0  0  0  0  0  0  0  0  0
    3.7729   -0.1477    0.0181 C   0  0  0  0  0  0  0  0  0  0  0  0
    4.6549    0.9171    0.0472 N   0  0  0  0  0  0  0  0  0  0  0  0
    4.1711   -1.3146    0.0019 O   0  0  0  0  0  0  0  0  0  0  0  0
    6.0962    0.7190    0.0434 C   0  0  0  0  0  0  0  0  0  0  0  0
    6.7611    1.3439   -1.1795 C   0  0  0  0  0  0  0  0  0  0  0  0
    6.5944    2.8548   -1.1987 C   0  0  0  0  0  0  0  0  0  0  0  0
   -2.8962    3.2790    1.0559 C   0  0  0  0  0  0  0  0  0  0  0  0
   -3.2184    4.6445    1.0103 C   0  0  0  0  0  0  0  0  0  0  0  0
   -2.8011    5.4437   -0.0547 C   0  0  0  0  0  0  0  0  0  0  0  0
   -2.0677    4.8839   -1.0916 C   0  0  0  0  0  0  0  0  0  0  0  0
   -1.7441    3.5311   -1.0521 C   0  0  0  0  0  0  0  0  0  0  0  0
   -3.2832    2.4456    2.0795 O   0  0  0  0  0  0  0  0  0  0  0  0
   -4.0595    3.0136    3.1291 C   0  0  0  0  0  0  0  0  0  0  0  0
   -1.0553    3.0241   -2.0875 F   0  0  0  0  0  0  0  0  0  0  0  0
  1  2  2  0
  2  3  1  0
  3  6  2  0
  3 10  1  0
  4  1  1  0
  5  8  1  0
  5  4  2  0
  5  6  1  0
  6  7  1  0
  7 12  2  0
  8  9  1  0
 10 19  2  0
 11 13  1  0
 11  8  2  0
 11 12  1  0
 13 14  1  0
 13 15  2  0
 14 16  1  0
 16 17  1  0
 17 18  1  0
 19 20  1  0
 19 24  1  0
 20 21  2  0
 21 22  1  0
 22 23  2  0
 23 10  1  0
 23 26  1  0
 24 25  1  0
M  END
>  <DRUGBANK_ID>  (1) 
DB13994

>  <COMMON_NAME>  (1) 
AZD-7325

>  <CAS_NUMBER>  (1) 
942437-37-8

>  <UNII>  (1) 
KNM216XOUH

$$$$
