
     RDKit          3D

 26 28  0  0  0  0  0  0  0  0999 V2000
    1.1954   -0.2551    0.0677 C   0  0  0  0  0  0  0  0  0  0  0  0
    0.5109    0.9945   -0.3419 C   0  0  0  0  0  0  0  0  0  0  0  0
    0.9281    1.4512   -1.6338 O   0  0  0  0  0  0  0  0  0  0  0  0
   -0.9634    0.7140   -0.3863 C   0  0  0  0  0  0  0  0  0  0  0  0
   -1.6503    1.8107   -0.6946 C   0  0  0  0  0  0  0  0  0  0  0  0
   -2.9637    1.9047   -0.9159 N   0  0  0  0  0  0  0  0  0  0  0  0
   -3.7745    0.9660   -0.4754 C   0  0  0  0  0  0  0  0  0  0  0  0
   -5.2243    1.3835   -0.2925 C   0  0  0  0  0  0  0  0  0  0  0  0
   -5.6341    2.1978    0.9978 C   0  0  0  0  0  0  0  0  0  0  0  0
   -5.4018    3.6250    1.1985 O   0  0  0  0  0  0  0  0  0  0  0  0
   -4.1361    4.0992    1.0676 C   0  0  0  0  0  0  0  0  0  0  0  0
   -3.5777    4.1596   -0.1787 C   0  0  0  0  0  0  0  0  0  0  0  0
   -2.2246    4.4947   -0.3879 C   0  0  0  0  0  0  0  0  0  0  0  0
   -1.3905    4.7653    0.6847 C   0  0  0  0  0  0  0  0  0  0  0  0
    0.1331    4.7931    0.5727 C   0  0  0  0  0  0  0  0  0  0  0  0
    0.7057    6.1367    0.1348 C   0  0  0  0  0  0  0  0  0  0  0  0
    0.2770    7.4545    1.3222 S   0  0  0  0  0  0  0  0  0  0  0  0
   -1.0379    7.9874    0.3009 C   0  0  0  0  0  0  0  0  0  0  0  0
   -1.9881    8.6654    0.7056 O   0  0  0  0  0  0  0  0  0  0  0  0
   -0.8343    7.5754   -0.9633 N   0  0  0  0  0  0  0  0  0  0  0  0
    0.1023    6.6039   -1.1733 C   0  0  0  0  0  0  0  0  0  0  0  0
    0.3844    6.1503   -2.2729 O   0  0  0  0  0  0  0  0  0  0  0  0
   -2.0862    5.1420    1.8295 C   0  0  0  0  0  0  0  0  0  0  0  0
   -3.4529    4.8235    2.0215 C   0  0  0  0  0  0  0  0  0  0  0  0
   -3.2022   -0.2730   -0.2928 C   0  0  0  0  0  0  0  0  0  0  0  0
   -1.7781   -0.4034   -0.3153 C   0  0  0  0  0  0  0  0  0  0  0  0
  1  2  1  0
  2  3  1  0
  2  4  1  0
  4  5  2  0
  4 26  1  0
  5  6  1  0
  6  7  2  0
  7  8  1  0
  7 25  1  0
  8  9  1  0
  9 10  1  0
 10 11  1  0
 11 12  2  0
 11 24  1  0
 12 13  1  0
 13 14  2  0
 14 15  1  0
 14 23  1  0
 15 16  1  0
 16 17  1  0
 16 21  1  0
 17 18  1  0
 18 19  2  0
 18 20  1  0
 20 21  1  0
 21 22  2  0
 23 24  2  0
 25 26  2  0
M  END
>  <DRUGBANK_ID>  (1) 
DB15021

>  <COMMON_NAME>  (1) 
Leriglitazone

>  <CAS_NUMBER>  (1) 
146062-44-4

>  <UNII>  (1) 
K824X25AYA

>  <SYNONYMS>  (1) 
2,4-thiazolidinedione, 5-((4-(2-(5-(1-hydroxyethyl)-2-pyridinyl)ethoxy)phenyl)methyl)-; All-ambo-5-((4-(2-(5-(1-hydroxyethyl)pyridin-2-yl)ethoxy)phenyl)methyl)-1,3-thiazole-2,4(3H,5H)-dione; Hydroxypioglitazone; Leriglitazone

$$$$
