
     RDKit          3D

  9  8  0  0  1  0  0  0  0  0999 V2000
    0.8735   -0.1456    0.1810 C   0  0  0  0  0  0  0  0  0  0  0  0
    1.7221   -1.5655   -2.2551 C   0  0  0  0  0  0  0  0  0  0  0  0
    0.9551   -2.0511   -1.2613 C   0  0  0  0  0  0  0  0  0  0  0  0
    2.3605   -0.2167   -2.3736 C   0  0  1  0  0  0  0  0  0  0  0  0
    3.8917   -0.2549   -2.3500 C   0  0  0  0  0  0  0  0  0  0  0  0
    1.7844    0.5335   -3.4972 N   0  0  0  0  0  0  0  0  0  0  0  0
    4.6439    0.3531   -3.1036 O   0  0  0  0  0  0  0  0  0  0  0  0
    4.3803   -0.9265   -1.2821 O   0  0  0  0  0  0  0  0  0  0  0  0
    0.5109   -1.4893   -0.0959 O   0  0  0  0  0  0  0  0  0  0  0  0
  3  2  2  0
  4  2  1  0
  4  6  1  6
  5  4  1  0
  7  5  2  0
  8  5  1  0
  9  1  1  0
  9  3  1  0
M  END
>  <DRUGBANK_ID>  (1) 
DB03611

>  <SECONDARY_ACCESSION_NUMBERS>  (1) 
EXPT00504

>  <COMMON_NAME>  (1) 
L-2-amino-4-methoxy-cis-but-3-enoic acid

$$$$
