
     RDKit          3D

 19 20  0  0  0  0  0  0  0  0999 V2000
   -1.1450   -0.3660   -0.0620 O   0  0  0  0  0  0  0  0  0  0  0  0
    1.1390   -0.3930    0.0300 O   0  0  0  0  0  0  0  0  0  0  0  0
   -2.8539    1.8718   -0.6909 O   0  0  0  0  0  0  0  0  0  0  0  0
    2.1665   -7.0208    1.3839 N   0  0  0  0  0  0  0  0  0  0  0  0
    1.7881   -4.7992    0.5195 N   0  0  0  0  0  0  0  0  0  0  0  0
    3.0633   -5.1977    2.6869 N   0  0  0  0  0  0  0  0  0  0  0  0
   -0.7540    1.0160    0.0990 C   0  0  1  0  0  0  0  0  0  0  0  0
    0.7790    1.0080   -0.0840 C   0  0  0  0  0  0  0  0  0  0  0  0
   -0.0420   -2.7228    0.1286 C   0  0  0  0  0  0  0  0  0  0  0  0
   -1.4498    1.9329   -0.8938 C   0  0  0  0  0  0  0  0  0  0  0  0
    0.0703   -5.4752    0.1433 C   0  0  0  0  0  0  0  0  0  0  0  0
    0.0205   -6.9925    0.2199 C   0  0  0  0  0  0  0  0  0  0  0  0
   -0.5936   -3.4158   -0.8607 C   0  0  0  0  0  0  0  0  0  0  0  0
    0.5001   -3.3563    1.2346 C   0  0  0  0  0  0  0  0  0  0  0  0
   -0.5052   -4.7867   -0.8883 C   0  0  0  0  0  0  0  0  0  0  0  0
    0.6717   -4.7511    1.0695 C   0  0  0  0  0  0  0  0  0  0  0  0
    1.4359   -7.5464    0.2216 C   0  0  0  0  0  0  0  0  0  0  0  0
    2.3328   -5.7233    1.5246 C   0  0  0  0  0  0  0  0  0  0  0  0
   -0.0170   -1.1260    0.0300 B   0  0  0  0  0  0  0  0  0  0  0  0
  1  7  1  0
  1 19  1  0
  2  8  1  0
  2 19  1  0
  3 10  1  0
  4 17  1  0
  4 18  2  3
  5 18  1  0
  6 18  1  0
  7  8  1  0
  7 10  1  6
  9 13  2  0
  9 14  1  0
  9 19  1  0
 11 12  1  0
 11 15  2  0
 11 16  1  0
 12 17  1  0
 13 15  1  0
 14 16  2  0
M  END
>  <DRUGBANK_ID>  (1) 
DB07071

>  <COMMON_NAME>  (1) 
(R)-1-(4-(4-(Hydroxymethyl)-1,3,2-dioxaborolan-2-YL)phenethyl)guanidine

$$$$
