
     RDKit          3D

 17 17  0  0  0  0  0  0  0  0999 V2000
    1.0855    0.0113   -0.0671 C   0  0  0  0  0  0  0  0  0  0  0  0
    2.4414   -4.4341   -0.7885 C   0  0  0  0  0  0  0  0  0  0  0  0
    2.3952   -4.0088   -3.2909 C   0  0  0  0  0  0  0  0  0  0  0  0
    5.6108   -3.0117   -4.1468 C   0  0  0  0  0  0  0  0  0  0  0  0
    4.6979   -1.1378   -2.9197 C   0  0  0  0  0  0  0  0  0  0  0  0
    5.9255   -2.1512   -5.2025 C   0  0  0  0  0  0  0  0  0  0  0  0
    4.9789   -0.2892   -3.9826 C   0  0  0  0  0  0  0  0  0  0  0  0
    4.4316   -3.4254   -1.9250 C   0  0  0  0  0  0  0  0  0  0  0  0
    0.5820   -0.4996   -1.4072 C   0  0  0  0  0  0  0  0  0  0  0  0
    4.9687   -2.5099   -3.0056 C   0  0  0  0  0  0  0  0  0  0  0  0
    5.5982   -0.7976   -5.1183 C   0  0  0  0  0  0  0  0  0  0  0  0
    0.9772   -1.9650   -1.6417 C   0  0  0  0  0  0  0  0  0  0  0  0
    2.8649   -3.4900   -1.9200 C   0  0  0  0  0  0  0  0  0  0  0  0
    5.9618    0.2607   -6.4234 Cl  0  0  0  0  0  0  0  0  0  0  0  0
   -0.9021   -0.3978   -1.4121 N   0  0  0  0  0  0  0  0  0  0  0  0
    0.1346   -2.8422   -1.8297 O   0  0  0  0  0  0  0  0  0  0  0  0
    2.3234   -2.1589   -1.6410 O   0  0  0  0  0  0  0  0  0  0  0  0
  6  4  2  0
  7  5  1  0
  9  1  1  0
 10  4  1  0
 10  5  2  0
 10  8  1  0
 11  6  1  0
 11  7  2  0
 12  9  1  0
 13  2  1  0
 13  3  1  0
 13  8  1  0
 14 11  1  0
 15  9  1  0
 16 12  2  0
 17 12  1  0
 17 13  1  0
M  END
>  <DRUGBANK_ID>  (1) 
DB13233

>  <COMMON_NAME>  (1) 
Alaproclate

>  <CAS_NUMBER>  (1) 
60719-82-6

>  <UNII>  (1) 
C4R42570ZO

>  <SYNONYMS>  (1) 
Alaproclate

$$$$
