
     RDKit          3D

 13 14  0  0  0  0  0  0  0  0999 V2000
   -0.5723    0.8348   -0.0277 C   0  0  0  0  0  0  0  0  0  0  0  0
   -0.8122   -0.5216    0.0155 C   0  0  0  0  0  0  0  0  0  0  0  0
    0.6193    1.4780   -0.0390 N   0  0  0  0  0  0  0  0  0  0  0  0
    0.3411   -1.3889    0.0013 C   0  0  0  0  0  0  0  0  0  0  0  0
    1.6483    0.6772   -0.0110 C   0  0  0  0  0  0  0  0  0  0  0  0
    1.5399   -0.6973    0.0031 N   0  0  0  0  0  0  0  0  0  0  0  0
   -1.7750    1.4770   -0.0308 N   0  0  0  0  0  0  0  0  0  0  0  0
   -2.7818    0.5498    0.0547 C   0  0  0  0  0  0  0  0  0  0  0  0
   -2.2234   -0.7216    0.1058 C   0  0  0  0  0  0  0  0  0  0  0  0
    0.2943   -2.6170   -0.0073 O   0  0  0  0  0  0  0  0  0  0  0  0
    2.9071    1.1764    0.0045 N   0  0  0  0  0  0  0  0  0  0  0  0
   -2.9735   -2.0063    0.2327 C   0  0  0  0  0  0  0  0  0  0  0  0
   -3.7416   -1.9759    1.4756 N   0  0  0  0  0  0  0  0  0  0  0  0
  2  1  2  0
  3  1  1  0
  4  2  1  0
  5  3  2  0
  6  4  1  0
  6  5  1  0
  7  1  1  0
  8  7  1  0
  9  8  2  0
  9  2  1  0
 10  4  2  0
 11  5  1  0
 12  9  1  0
 13 12  1  0
M  END
>  <DRUGBANK_ID>  (1) 
DB03304

>  <SECONDARY_ACCESSION_NUMBERS>  (1) 
EXPT02659

>  <COMMON_NAME>  (1) 
7-Deaza-7-Aminomethyl-Guanine

$$$$
