AI7
     RDKit          3D

 17 17  0  0  0  0  0  0  0  0999 V2000
    0.9586   -0.0932    0.3866 C   0  0  0  0  0  0  0  0  0  0  0  0
   -1.6184    0.2030   -0.0166 C   0  0  0  0  0  0  0  0  0  0  0  0
   -0.8121    1.3554    0.0443 C   0  0  0  0  0  0  0  0  0  0  0  0
    5.2483   -0.3197   -0.0304 C   0  0  0  0  0  0  0  0  0  0  0  0
    1.4837    2.4400   -0.1330 C   0  0  0  0  0  0  0  0  0  0  0  0
    3.0077   -2.2129   -1.3244 C   0  0  0  0  0  0  0  0  0  0  0  0
   -1.0884   -1.1058   -0.0293 C   0  0  0  0  0  0  0  0  0  0  0  0
    2.2593   -2.7650   -0.0844 C   0  0  0  0  0  0  0  0  0  0  0  0
    5.4588    1.8830   -1.2376 C   0  0  0  0  0  0  0  0  0  0  0  0
    5.7958    0.3998   -1.2374 C   0  0  0  0  0  0  0  0  0  0  0  0
    0.2647   -1.2750    0.1227 C   0  0  0  0  0  0  0  0  0  0  0  0
    3.7706   -0.2191   -0.0262 C   0  0  0  0  0  0  0  0  0  0  0  0
    3.0529   -0.6991   -1.3331 C   0  0  0  0  0  0  0  0  0  0  0  0
    0.5452    1.2316    0.1237 C   0  0  0  0  0  0  0  0  0  0  0  0
    2.6743    2.4325   -0.2292 O   0  0  0  0  0  0  0  0  0  0  0  0
    0.8216   -2.5266   -0.0124 O   0  0  0  0  0  0  0  0  0  0  0  0
    0.9033    3.6414   -0.3590 O   0  0  0  0  0  0  0  0  0  0  0  0
  1 11  2  0
  2  7  2  0
  3  2  1  0
  3 14  2  0
  4 12  1  0
  4 10  1  0
  5 14  1  0
  5 17  1  0
  6 13  1  0
  7 11  1  0
  8  6  1  0
  9 10  1  0
 11 16  1  0
 13 12  1  0
 14  1  1  0
 15  5  2  0
 16  8  1  0
M  END
>  <DRUGBANK_ID>  (1) 
DB07355

>  <COMMON_NAME>  (1) 
3-(heptyloxy)benzoic acid

$$$$
