1589
     RDKit          3D

 25 27  0  0  0  0  0  0  0  0999 V2000
    1.0889   -0.0642   -0.0473 Cl  0  0  0  0  0  0  0  0  0  0  0  0
    9.5779    1.0477   -0.3774 S   0  0  0  0  0  0  0  0  0  0  0  0
    9.4791   -1.8114   -0.9403 F   0  0  0  0  0  0  0  0  0  0  0  0
    8.8649   -3.3477    0.4629 F   0  0  0  0  0  0  0  0  0  0  0  0
    7.5664   -2.8089   -1.2006 F   0  0  0  0  0  0  0  0  0  0  0  0
    5.1026    1.7440    2.8636 F   0  0  0  0  0  0  0  0  0  0  0  0
    7.0913   -0.1184   -0.0706 N   0  0  0  0  0  0  0  0  0  0  0  0
    6.5686    2.9142   -0.4832 N   0  0  0  0  0  0  0  0  0  0  0  0
    5.6461   -0.0536   -0.0942 C   0  0  0  0  0  0  0  0  0  0  0  0
    4.9138    1.1491    0.0135 C   0  0  0  0  0  0  0  0  0  0  0  0
    5.5526    2.4894    0.1807 C   0  0  0  0  0  0  0  0  0  0  0  0
    7.7048   -1.2902    0.6250 C   0  0  0  0  0  0  0  0  0  0  0  0
    7.9042    0.9121   -0.5846 C   0  0  0  0  0  0  0  0  0  0  0  0
    7.2136    1.9929   -1.4140 C   0  0  0  0  0  0  0  0  0  0  0  0
    4.9024   -1.2501   -0.1897 C   0  0  0  0  0  0  0  0  0  0  0  0
    3.5023    1.1330    0.0240 C   0  0  0  0  0  0  0  0  0  0  0  0
    4.9644    3.4192    1.1814 C   0  0  0  0  0  0  0  0  0  0  0  0
    8.4188   -2.3038   -0.2773 C   0  0  0  0  0  0  0  0  0  0  0  0
    3.5018   -1.2583   -0.1793 C   0  0  0  0  0  0  0  0  0  0  0  0
    2.8074   -0.0651   -0.0678 C   0  0  0  0  0  0  0  0  0  0  0  0
    4.7551    2.9844    2.4892 C   0  0  0  0  0  0  0  0  0  0  0  0
    4.6258    4.7261    0.8153 C   0  0  0  0  0  0  0  0  0  0  0  0
    4.1864    3.8324    3.4320 C   0  0  0  0  0  0  0  0  0  0  0  0
    4.1273    5.6025    1.7830 C   0  0  0  0  0  0  0  0  0  0  0  0
    3.9067    5.1552    3.0885 C   0  0  0  0  0  0  0  0  0  0  0  0
  1 20  1  0
  2 13  2  0
  3 18  1  0
  4 18  1  0
  5 18  1  0
  6 21  1  0
  7  9  1  0
  7 12  1  0
  7 13  1  0
  8 11  2  0
  8 14  1  0
  9 10  2  0
  9 15  1  0
 10 11  1  0
 10 16  1  0
 11 17  1  0
 12 18  1  0
 13 14  1  0
 15 19  2  0
 16 20  2  0
 17 21  2  0
 17 22  1  0
 19 20  1  0
 21 23  1  0
 22 24  2  0
 23 25  2  0
 24 25  1  0
M  END
>  <DRUGBANK_ID>  (1) 
DB01589

>  <COMMON_NAME>  (1) 
Quazepam

>  <CAS_NUMBER>  (1) 
36735-22-5

>  <UNII>  (1) 
JF8V0828ZI

>  <SYNONYMS>  (1) 
Quazepam; Quazepamum

$$$$
