LII
     RDKit          3D

 25 27  0  0  0  0  0  0  0  0999 V2000
    0.0986    0.8514   -0.1357 C   0  0  0  0  0  0  0  0  0  0  0  0
    1.3737    1.4368   -0.0106 C   0  0  0  0  0  0  0  0  0  0  0  0
    2.4036   -0.5975    0.0695 C   0  0  0  0  0  0  0  0  0  0  0  0
    0.1535   -0.5416   -0.1295 C   0  0  0  0  0  0  0  0  0  0  0  0
   -1.2015    1.4930   -0.3225 C   0  0  0  0  0  0  0  0  0  0  0  0
   -2.3352    0.6946   -0.6019 C   0  0  0  0  0  0  0  0  0  0  0  0
   -2.0840   -0.6686   -0.6606 C   0  0  0  0  0  0  0  0  0  0  0  0
   -1.4464    2.9669   -0.1161 C   0  0  0  0  0  0  0  0  0  0  0  0
   -3.7212    1.2969   -0.5798 C   0  0  0  0  0  0  0  0  0  0  0  0
   -5.0558   -0.6642    0.1349 C   0  0  0  0  0  0  0  0  0  0  0  0
   -4.3317   -1.3323    1.1339 C   0  0  0  0  0  0  0  0  0  0  0  0
   -4.3637   -2.7315    1.1057 C   0  0  0  0  0  0  0  0  0  0  0  0
   -5.2736   -3.4278    0.2947 C   0  0  0  0  0  0  0  0  0  0  0  0
   -6.0152   -2.7549   -0.6725 C   0  0  0  0  0  0  0  0  0  0  0  0
   -5.8597   -1.3791   -0.7786 C   0  0  0  0  0  0  0  0  0  0  0  0
   -4.8855    0.7394   -0.2015 C   0  0  0  0  0  0  0  0  0  0  0  0
   -3.3911    0.5771    2.3427 C   0  0  0  0  0  0  0  0  0  0  0  0
   -7.4500   -2.8451   -2.5629 C   0  0  0  0  0  0  0  0  0  0  0  0
    2.5106    0.7199    0.0824 N   0  0  0  0  0  0  0  0  0  0  0  0
    1.2681   -1.2581    0.0128 N   0  0  0  0  0  0  0  0  0  0  0  0
   -0.9135   -1.2821   -0.3625 N   0  0  0  0  0  0  0  0  0  0  0  0
    1.6166    2.7969   -0.1738 N   0  0  0  0  0  0  0  0  0  0  0  0
    3.5678   -1.3297    0.0694 N   0  0  0  0  0  0  0  0  0  0  0  0
   -3.4400   -0.8137    2.0417 O   0  0  0  0  0  0  0  0  0  0  0  0
   -6.7992   -3.5240   -1.4890 O   0  0  0  0  0  0  0  0  0  0  0  0
  1  2  2  0
  1  4  1  0
  1  5  1  0
  2 19  1  0
  2 22  1  0
  3 19  2  0
  3 20  1  0
  3 23  1  0
  4 20  2  0
  4 21  1  0
  5  6  2  0
  5  8  1  0
  6  7  1  0
  6  9  1  0
  7 21  2  0
  9 16  2  0
 10 11  2  0
 10 15  1  0
 10 16  1  0
 11 12  1  0
 11 24  1  0
 12 13  2  0
 13 14  1  0
 14 15  2  0
 14 25  1  0
 17 24  1  0
 18 25  1  0
M  END
>  <DRUGBANK_ID>  (1) 
DB03060

>  <SECONDARY_ACCESSION_NUMBERS>  (1) 
EXPT02032

>  <COMMON_NAME>  (1) 
Sri-9662

$$$$
