546
     RDKit          3D

 25 28  0  0  0  0  0  0  0  0999 V2000
    1.0208    0.0285    0.0481 Cl  0  0  0  0  0  0  0  0  0  0  0  0
    6.9506    0.1204    0.2278 N   0  0  0  0  0  0  0  0  0  0  0  0
    6.7617    2.1411   -2.1111 N   0  0  0  0  0  0  0  0  0  0  0  0
    6.6012   -2.9158    0.0659 N   0  0  0  0  0  0  0  0  0  0  0  0
    9.0443    0.8132    0.2261 N   0  0  0  0  0  0  0  0  0  0  0  0
    9.0203   -0.4660    0.7094 N   0  0  0  0  0  0  0  0  0  0  0  0
    5.5386    0.0629    0.1544 C   0  0  0  0  0  0  0  0  0  0  0  0
    7.8101    1.1643   -0.0833 C   0  0  0  0  0  0  0  0  0  0  0  0
    7.7733   -0.8871    0.6822 C   0  0  0  0  0  0  0  0  0  0  0  0
    4.8632   -1.1374   -0.1212 C   0  0  0  0  0  0  0  0  0  0  0  0
    7.4515    2.4137   -0.8315 C   0  0  0  0  0  0  0  0  0  0  0  0
    7.2551   -2.1925    1.1546 C   0  0  0  0  0  0  0  0  0  0  0  0
    5.5584   -2.4204   -0.4953 C   0  0  0  0  0  0  0  0  0  0  0  0
    4.7974    1.2331    0.3919 C   0  0  0  0  0  0  0  0  0  0  0  0
    3.4538   -1.1331   -0.1448 C   0  0  0  0  0  0  0  0  0  0  0  0
    4.9542   -3.1814   -1.6255 C   0  0  0  0  0  0  0  0  0  0  0  0
    3.4068    1.2290    0.3342 C   0  0  0  0  0  0  0  0  0  0  0  0
    2.7390    0.0429    0.0765 C   0  0  0  0  0  0  0  0  0  0  0  0
    6.3397    3.3999   -2.7313 C   0  0  0  0  0  0  0  0  0  0  0  0
    7.6587    1.4228   -3.0257 C   0  0  0  0  0  0  0  0  0  0  0  0
    4.8284   -2.5641   -2.8733 C   0  0  0  0  0  0  0  0  0  0  0  0
    4.3843   -4.4336   -1.3853 C   0  0  0  0  0  0  0  0  0  0  0  0
    3.9984   -3.1348   -3.8359 C   0  0  0  0  0  0  0  0  0  0  0  0
    3.6207   -5.0369   -2.3851 C   0  0  0  0  0  0  0  0  0  0  0  0
    3.3818   -4.3614   -3.5843 C   0  0  0  0  0  0  0  0  0  0  0  0
  1 18  1  0
  2  7  1  0
  2  8  1  0
  2  9  1  0
  3 11  1  0
  3 19  1  0
  3 20  1  0
  4 12  1  0
  4 13  2  0
  5  6  1  0
  5  8  2  0
  6  9  2  0
  7 10  2  0
  7 14  1  0
  8 11  1  0
  9 12  1  0
 10 13  1  0
 10 15  1  0
 13 16  1  0
 14 17  2  0
 15 18  2  0
 16 21  2  0
 16 22  1  0
 17 18  1  0
 21 23  1  0
 22 24  2  0
 23 25  2  0
 24 25  1  0
M  END
>  <DRUGBANK_ID>  (1) 
DB00546

>  <SECONDARY_ACCESSION_NUMBERS>  (1) 
APRD00724

>  <COMMON_NAME>  (1) 
Adinazolam

>  <CAS_NUMBER>  (1) 
37115-32-5

>  <UNII>  (1) 
KN08449444

>  <SYNONYMS>  (1) 
8-Chloro-1-((dimethylamino)methyl)-6-phenyl-4H-s-triazolo(4,3-a)(1,4)benzodiazepine; Adinazolam; Adinazolamum

$$$$
