
     RDKit          3D

 27 29  0  0  0  0  0  0  0  0999 V2000
   -1.8877    0.0490    0.0434 C   0  0  0  0  0  0  0  0  0  0  0  0
   -1.1442    1.2389    0.0079 C   0  0  0  0  0  0  0  0  0  0  0  0
    0.2598    1.1966    0.0225 C   0  0  0  0  0  0  0  0  0  0  0  0
    0.8829   -0.0551    0.0739 C   0  0  0  0  0  0  0  0  0  0  0  0
    0.1558   -1.2259    0.0732 C   0  0  0  0  0  0  0  0  0  0  0  0
   -1.2331   -1.1904    0.0920 C   0  0  0  0  0  0  0  0  0  0  0  0
   -1.9592   -2.5031    0.1628 C   0  0  0  0  0  0  0  0  0  0  0  0
   -1.5888   -3.3201   -0.9854 N   0  0  0  0  0  0  0  0  0  0  0  0
   -2.3812   -4.5436   -1.0759 C   0  0  0  0  0  0  0  0  0  0  0  0
   -3.8845   -4.2921   -1.2757 C   0  0  0  0  0  0  0  0  0  0  0  0
   -4.2193   -3.4577   -2.5341 C   0  0  0  0  0  0  0  0  0  0  0  0
   -3.2131   -3.6968   -3.6763 C   0  0  0  0  0  0  0  0  0  0  0  0
   -3.3150   -2.6824   -4.7889 C   0  0  0  0  0  0  0  0  0  0  0  0
   -3.3228   -1.3548   -4.2694 O   0  0  0  0  0  0  0  0  0  0  0  0
   -4.4579   -1.1078   -3.4441 C   0  0  0  0  0  0  0  0  0  0  0  0
   -4.3860   -1.9661   -2.2000 C   0  0  0  0  0  0  0  0  0  0  0  0
    2.2104   -0.2055    0.1373 F   0  0  0  0  0  0  0  0  0  0  0  0
    0.9175    2.4142    0.0073 O   0  0  0  0  0  0  0  0  0  0  0  0
    2.2996    2.4124   -0.0788 C   0  0  0  0  0  0  0  0  0  0  0  0
    2.9473    1.8424   -1.1711 C   0  0  0  0  0  0  0  0  0  0  0  0
    4.3388    1.7410   -1.1552 C   0  0  0  0  0  0  0  0  0  0  0  0
    5.0586    2.2965   -0.0984 C   0  0  0  0  0  0  0  0  0  0  0  0
    4.3254    2.9211    0.9093 C   0  0  0  0  0  0  0  0  0  0  0  0
    2.9634    2.9903    0.9459 N   0  0  0  0  0  0  0  0  0  0  0  0
    6.5407    2.2610   -0.0150 C   0  0  0  0  0  0  0  0  0  0  0  0
    7.1416    2.7945    0.9176 O   0  0  0  0  0  0  0  0  0  0  0  0
    7.2402    1.6280   -1.0054 N   0  0  0  0  0  0  0  0  0  0  0  0
  1  2  2  0
  1  6  1  0
  2  3  1  0
  3  4  2  0
  3 18  1  0
  4  5  1  0
  4 17  1  0
  5  6  2  0
  6  7  1  0
  7  8  1  0
  8  9  1  0
  9 10  1  0
 10 11  1  0
 11 12  1  0
 11 16  1  0
 12 13  1  0
 13 14  1  0
 14 15  1  0
 15 16  1  0
 18 19  1  0
 19 20  2  0
 19 24  1  0
 20 21  1  0
 21 22  2  0
 22 23  1  0
 22 25  1  0
 23 24  2  0
 25 26  2  0
 25 27  1  0
M  END
>  <DRUGBANK_ID>  (1) 
DB12585

>  <COMMON_NAME>  (1) 
Ondelopran

>  <CAS_NUMBER>  (1) 
676501-25-0

>  <UNII>  (1) 
4VZT670SD9

>  <SYNONYMS>  (1) 
Ondelopran

$$$$
