
     RDKit          3D

 26 27  0  0  0  0  0  0  0  0999 V2000
    1.0346   -0.8209    1.0327 C   0  0  0  0  0  0  0  0  0  0  0  0
    0.3701   -2.0132    1.0575 O   0  0  0  0  0  0  0  0  0  0  0  0
   -0.8935   -1.8158    0.5087 C   0  0  0  0  0  0  0  0  0  0  0  0
   -1.6789   -0.6225    0.4024 C   0  0  0  0  0  0  0  0  0  0  0  0
   -1.2308    0.9020    0.1384 C   0  0  0  0  0  0  0  0  0  0  0  0
   -2.0251    1.7656    0.4843 O   0  0  0  0  0  0  0  0  0  0  0  0
    0.1706    1.4604   -0.3918 C   0  0  0  0  0  0  0  0  0  0  0  0
    1.1179    0.8768   -1.1698 C   0  0  0  0  0  0  0  0  0  0  0  0
    2.6200    0.8687   -0.9527 C   0  0  0  0  0  0  0  0  0  0  0  0
    3.3463    1.5889    0.0075 C   0  0  0  0  0  0  0  0  0  0  0  0
    4.7519    1.6232   -0.0571 C   0  0  0  0  0  0  0  0  0  0  0  0
    5.4181    0.8485   -1.0045 C   0  0  0  0  0  0  0  0  0  0  0  0
    6.7497    0.9824   -1.2505 O   0  0  0  0  0  0  0  0  0  0  0  0
    4.7294   -0.0894   -1.7480 C   0  0  0  0  0  0  0  0  0  0  0  0
    3.3400   -0.1106   -1.6737 C   0  0  0  0  0  0  0  0  0  0  0  0
   -3.0480   -0.8875    0.6909 C   0  0  0  0  0  0  0  0  0  0  0  0
   -3.9643    0.1202    0.9155 O   0  0  0  0  0  0  0  0  0  0  0  0
   -3.5522   -2.2256    0.8562 C   0  0  0  0  0  0  0  0  0  0  0  0
   -4.9842   -2.4986    1.2506 C   0  0  0  0  0  0  0  0  0  0  0  0
   -5.6500   -3.3729    0.2176 C   0  0  0  0  0  0  0  0  0  0  0  0
   -6.1057   -4.6220    0.4404 C   0  0  0  0  0  0  0  0  0  0  0  0
   -6.6377   -5.4554   -0.6891 C   0  0  0  0  0  0  0  0  0  0  0  0
   -6.0707   -5.2631    1.8077 C   0  0  0  0  0  0  0  0  0  0  0  0
   -2.6867   -3.3147    0.6708 C   0  0  0  0  0  0  0  0  0  0  0  0
   -2.9483   -4.6401    0.8187 O   0  0  0  0  0  0  0  0  0  0  0  0
   -1.3761   -3.1071    0.4231 C   0  0  0  0  0  0  0  0  0  0  0  0
  1  2  1  0
  2  3  1  0
  3  4  2  0
  3 26  1  0
  4  5  1  0
  4 16  1  0
  5  6  2  0
  5  7  1  0
  7  8  2  0
  8  9  1  0
  9 10  2  0
  9 15  1  0
 10 11  1  0
 11 12  2  0
 12 13  1  0
 12 14  1  0
 14 15  2  0
 16 17  1  0
 16 18  2  0
 18 19  1  0
 18 24  1  0
 19 20  1  0
 20 21  2  3
 21 22  1  0
 21 23  1  0
 24 25  1  0
 24 26  2  0
M  END
>  <DRUGBANK_ID>  (1) 
DB15359

>  <COMMON_NAME>  (1) 
Xanthohumol

>  <CAS_NUMBER>  (1) 
6754-58-1

>  <UNII>  (1) 
T4467YT1NT

$$$$
