
     RDKit          3D

 28 31  0  0  1  0  0  0  0  0999 V2000
   -2.8334   -1.0445    2.4299 C   0  0  0  0  0  0  0  0  0  0  0  0
   -2.4261   -1.7937    1.2290 C   0  0  2  0  0  0  0  0  0  0  0  0
   -2.2333   -3.6471    1.7453 C   0  0  0  0  0  0  0  0  0  0  0  0
   -2.3686   -3.5385    0.3638 C   0  0  2  0  0  0  0  0  0  0  0  0
   -3.1798   -3.9212   -0.7613 C   0  0  2  0  0  0  0  0  0  0  0  0
   -4.4738   -4.6826   -0.3829 C   0  0  0  0  0  0  0  0  0  0  0  0
   -5.3130   -4.7015   -1.6348 C   0  0  1  0  0  0  0  0  0  0  0  0
   -4.4634   -5.3118   -2.7280 C   0  0  0  0  0  0  0  0  0  0  0  0
   -4.8779   -6.3609   -3.4398 C   0  0  0  0  0  0  0  0  0  0  0  0
   -4.0602   -6.9040   -4.5322 C   0  0  0  0  0  0  0  0  0  0  0  0
   -4.4240   -7.9047   -5.1515 O   0  0  0  0  0  0  0  0  0  0  0  0
   -2.8029   -6.2339   -4.9220 C   0  0  0  0  0  0  0  0  0  0  0  0
   -2.2627   -5.4163   -4.0143 C   0  0  0  0  0  0  0  0  0  0  0  0
   -3.1240   -4.6710   -3.0241 C   0  0  2  0  0  0  0  0  0  0  0  0
   -2.2542   -4.5943   -1.7229 C   0  0  1  0  0  0  0  0  0  0  0  0
   -0.7549   -3.9984   -1.8286 C   0  0  2  0  0  0  0  0  0  0  0  0
    0.0037   -3.5889   -0.5604 C   0  0  0  0  0  0  0  0  0  0  0  0
   -0.8646   -2.7369    0.3383 C   0  0  1  0  0  0  0  0  0  0  0  0
   -1.2580   -1.2875    0.2188 C   0  0  1  0  0  0  0  0  0  0  0  0
   -1.1466   -0.4625   -1.2878 C   0  0  0  0  0  0  0  0  0  0  0  0
   -0.1496    0.1912   -1.6093 O   0  0  0  0  0  0  0  0  0  0  0  0
   -2.1934   -0.6978   -2.4320 C   0  0  0  0  0  0  0  0  0  0  0  0
   -3.2289   -1.1708   -2.1146 O   0  0  0  0  0  0  0  0  0  0  0  0
   -1.6614   -0.7118   -3.7017 O   0  0  0  0  0  0  0  0  0  0  0  0
   -0.0174   -2.6600    1.8281 C   0  0  0  0  0  0  0  0  0  0  0  0
   -0.8893   -2.7619   -2.4277 O   0  0  0  0  0  0  0  0  0  0  0  0
   -3.5558   -3.3604   -3.6883 C   0  0  0  0  0  0  0  0  0  0  0  0
   -6.4504   -5.4002   -1.3961 F   0  0  0  0  0  0  0  0  0  0  0  0
  2  1  1  1
  2  3  1  0
  2 19  1  0
  4  3  1  6
  4  5  1  0
  4 18  1  0
  5  6  1  1
  5 15  1  0
  6  7  1  0
  7  8  1  0
  7 28  1  1
  8  9  2  0
  8 14  1  0
  9 10  1  0
 10 11  2  0
 10 12  1  0
 12 13  2  0
 13 14  1  0
 14 27  1  6
 15 14  1  0
 15 16  1  6
 16 17  1  0
 16 26  1  6
 17 18  1  0
 18 19  1  0
 18 25  1  1
 19 20  1  6
 20 21  2  0
 20 22  1  0
 22 23  2  0
 22 24  1  0
M  END
>  <DRUGBANK_ID>  (1) 
DB13223

>  <COMMON_NAME>  (1) 
Fluocortin

>  <CAS_NUMBER>  (1) 
33124-50-4

>  <UNII>  (1) 
03837V0H1Y

>  <SYNONYMS>  (1) 
Fluocortin; Fluocortina

$$$$
