
     RDKit          3D

 14 15  0  0  0  0  0  0  0  0999 V2000
    1.1910   -1.1820   -0.0010 C   0  0  0  0  0  0  0  0  0  0  0  0
    2.2430   -0.3630   -0.0020 C   0  0  0  0  0  0  0  0  0  0  0  0
    0.7470    1.5310   -0.0020 C   0  0  0  0  0  0  0  0  0  0  0  0
   -0.2630    0.7310   -0.0010 C   0  0  0  0  0  0  0  0  0  0  0  0
   -0.1370   -0.6650   -0.0000 C   0  0  0  0  0  0  0  0  0  0  0  0
    2.0560    1.0290    0.0040 C   0  0  0  0  0  0  0  0  0  0  0  0
    3.8220   -2.1971   -0.0151 O   0  0  0  0  0  0  0  0  0  0  0  0
    3.6501   -0.9379   -0.0097 C   0  0  0  0  0  0  0  0  0  0  0  0
    4.7724   -0.0680   -0.0107 O   0  0  0  0  0  0  0  0  0  0  0  0
   -2.0160    1.0430   -0.0000 O   0  0  0  0  0  0  0  0  0  0  0  0
   -1.2460   -1.4220    0.0010 O   0  0  0  0  0  0  0  0  0  0  0  0
   -2.5770   -0.7040    0.0010 Bi  0  0  0  0  0  3  0  0  0  0  0  0
   -3.7227   -1.1645    1.7488 O   0  0  0  0  0  0  0  0  0  0  0  0
    0.5322    2.9346   -0.0092 O   0  0  0  0  0  0  0  0  0  0  0  0
  1  5  2  0
  2  1  1  0
  2  8  1  0
  3 14  1  0
  3  4  2  0
  4 10  1  0
  4  5  1  0
  5 11  1  0
  6  2  2  0
  6  3  1  0
  7  8  2  0
  8  9  1  0
 10 12  1  0
 11 12  1  0
 12 13  1  0
M  END
>  <DRUGBANK_ID>  (1) 
DB13909

>  <COMMON_NAME>  (1) 
Bismuth subgallate

>  <CAS_NUMBER>  (1) 
99-26-3

>  <UNII>  (1) 
YIW503MI7V

>  <SYNONYMS>  (1) 
basic bismuth 3,4,5-trihydroxybenzoate; basisches Wismutgallat; Bismuth subgallate; Bismuto subgalato; gallic acid bismuth basic salt; Wismutgallathydroxid

$$$$
