
     RDKit          3D

 19 20  0  0  0  0  0  0  0  0999 V2000
    1.0331    0.0519    0.0857 C   0  0  0  0  0  0  0  0  0  0  0  0
    0.3981   -0.1652    1.7708 S   0  0  0  0  0  0  0  0  0  0  0  0
    1.0462   -1.8313    2.1975 C   0  0  0  0  0  0  0  0  0  0  0  0
    0.4524   -2.9553    1.3353 C   0  0  0  0  0  0  0  0  0  0  0  0
   -0.1569   -4.0781    2.1651 C   0  0  0  0  0  0  0  0  0  0  0  0
    0.7869   -5.1520    2.0273 N   0  0  0  0  0  0  0  0  0  0  0  0
    1.6804   -4.8695    1.0088 C   0  0  0  0  0  0  0  0  0  0  0  0
    2.5381   -5.6044    0.5329 O   0  0  0  0  0  0  0  0  0  0  0  0
    1.4896   -3.5893    0.5597 O   0  0  0  0  0  0  0  0  0  0  0  0
    0.6887   -6.2941    2.8031 N   0  0  0  0  0  0  0  0  0  0  0  0
    1.6160   -7.2089    2.7468 C   0  0  0  0  0  0  0  0  0  0  0  0
    1.5071   -8.4049    3.5615 C   0  0  0  0  0  0  0  0  0  0  0  0
    0.3781   -9.1256    3.9059 C   0  0  0  0  0  0  0  0  0  0  0  0
    0.7877  -10.1958    4.7273 C   0  0  0  0  0  0  0  0  0  0  0  0
    2.1499  -10.0735    4.8479 C   0  0  0  0  0  0  0  0  0  0  0  0
    2.6242   -9.0079    4.1227 O   0  0  0  0  0  0  0  0  0  0  0  0
    3.0642  -10.8820    5.6060 N   0  0  0  0  0  0  0  0  0  0  0  0
    4.2657  -10.5937    5.5922 O   0  0  0  0  0  0  0  0  0  0  0  0
    2.5546  -11.8237    6.2344 O   0  0  0  0  0  0  0  0  0  0  0  0
  1  2  1  0
  2  3  1  0
  3  4  1  0
  4  5  1  0
  4  9  1  0
  5  6  1  0
  6  7  1  0
  6 10  1  0
  7  8  2  0
  7  9  1  0
 10 11  2  0
 11 12  1  0
 12 13  2  0
 12 16  1  0
 13 14  1  0
 14 15  2  0
 15 16  1  0
 15 17  1  0
 17 18  2  0
 17 19  1  0
M  CHG  2  17   1  19  -1
M  END
>  <DRUGBANK_ID>  (1) 
DB13724

>  <COMMON_NAME>  (1) 
Nifuratel

>  <CAS_NUMBER>  (1) 
4936-47-4

>  <UNII>  (1) 
U60U6P08SP

>  <SYNONYMS>  (1) 
Nifuratel

$$$$
