ZYW
     RDKit          3D

 18 20  0  0  0  0  0  0  0  0999 V2000
    1.1908   -0.3146   -0.1324 Br  0  0  0  0  0  0  0  0  0  0  0  0
    3.0705   -0.0248   -0.0140 C   0  0  0  0  0  0  0  0  0  0  0  0
    3.8652   -1.1680   -0.0561 C   0  0  0  0  0  0  0  0  0  0  0  0
    5.2156   -1.1948   -0.0564 N   0  0  0  0  0  0  0  0  0  0  0  0
    5.7404    0.0445   -0.0326 C   0  0  0  0  0  0  0  0  0  0  0  0
    7.0748    0.3384   -0.0105 N   0  0  0  0  0  0  0  0  0  0  0  0
    7.3364    1.6614    0.0284 N   0  0  0  0  0  0  0  0  0  0  0  0
    6.1164    2.2091    0.0718 C   0  0  0  0  0  0  0  0  0  0  0  0
    5.0709    1.2562    0.0105 C   0  0  0  0  0  0  0  0  0  0  0  0
    3.6568    1.2658    0.0498 C   0  0  0  0  0  0  0  0  0  0  0  0
    2.9188    2.4182    0.1889 N   0  0  0  0  0  0  0  0  0  0  0  0
    3.1074    3.6356   -0.6069 C   0  0  0  0  0  0  0  0  0  0  0  0
    2.0644    2.6056    1.3631 C   0  0  0  0  0  0  0  0  0  0  0  0
    0.7068    3.1270    0.8747 C   0  0  0  0  0  0  0  0  0  0  0  0
    0.8641    4.3571    0.1413 O   0  0  0  0  0  0  0  0  0  0  0  0
    1.7037    4.1495   -1.0274 C   0  0  1  0  0  0  0  0  0  0  0  0
    1.7779    5.4831   -1.7881 C   0  0  0  0  0  0  0  0  0  0  0  0
    2.5732    5.4182   -3.0138 N   0  0  0  0  0  0  0  0  0  0  0  0
  1  2  1  0
  2  3  2  0
  2 10  1  0
  3  4  1  0
  4  5  2  0
  5  6  1  0
  5  9  1  0
  6  7  1  0
  7  8  2  0
  8  9  1  0
  9 10  2  0
 10 11  1  0
 11 12  1  0
 11 13  1  0
 12 16  1  0
 13 14  1  0
 14 15  1  0
 15 16  1  0
 16 17  1  1
 17 18  1  0
M  END
>  <DRUGBANK_ID>  (1) 
DB08781

>  <COMMON_NAME>  (1) 
1-[(2S)-4-(5-BROMO-1H-PYRAZOLO[3,4-B]PYRIDIN-4-YL)MORPHOLIN-2-YL]METHANAMINE

$$$$
