R64
     RDKit          3D

 30 33  0  0  0  0  0  0  0  0999 V2000
    0.9257    1.6646    1.3695 O   0  0  0  0  0  0  0  0  0  0  0  0
    2.1550    0.7781    1.4268 C   0  0  0  0  0  0  0  0  0  0  0  0
    1.6866   -0.6523    1.3759 C   0  0  0  0  0  0  0  0  0  0  0  0
    0.0921   -0.6848    1.2067 C   0  0  0  0  0  0  0  0  0  0  0  0
   -1.0306   -1.8893    0.5560 C   0  0  0  0  0  0  0  0  0  0  0  0
   -2.4286   -1.4909   -0.4572 C   0  0  0  0  0  0  0  0  0  0  0  0
   -2.8046    0.1397   -1.0496 C   0  0  0  0  0  0  0  0  0  0  0  0
   -1.6207    1.4903   -0.5990 C   0  0  0  0  0  0  0  0  0  0  0  0
   -0.2250    0.9901    0.8273 C   0  0  0  0  0  0  0  0  0  0  0  0
    3.6394    1.4388    0.6981 C   0  0  0  0  0  0  0  0  0  0  0  0
    3.7955    2.6099    0.3135 O   0  0  0  0  0  0  0  0  0  0  0  0
    4.7184    0.5123    0.2288 C   0  0  0  0  0  0  0  0  0  0  0  0
    5.0308   -0.2581   -0.9502 N   0  0  0  0  0  0  0  0  0  0  0  0
    4.3310   -0.5921   -2.1894 C   0  0  0  0  0  0  0  0  0  0  0  0
    6.1053   -1.0382   -0.5705 C   0  0  0  0  0  0  0  0  0  0  0  0
    6.5108   -0.5553    0.6427 C   0  0  0  0  0  0  0  0  0  0  0  0
    5.6752    0.3810    1.1158 N   0  0  0  0  0  0  0  0  0  0  0  0
    2.7879   -1.8704    0.8789 C   0  0  0  0  0  0  0  0  0  0  0  0
   -0.5897   -3.1806   -0.0831 O   0  0  0  0  0  0  0  0  0  0  0  0
    0.8215   -3.3703   -0.2266 C   0  0  0  0  0  0  0  0  0  0  0  0
    1.5099   -2.7625   -1.5454 C   0  0  0  0  0  0  0  0  0  0  0  0
    1.6339   -1.1683   -1.7227 C   0  0  0  0  0  0  0  0  0  0  0  0
    2.2019   -0.0821   -0.9519 N   0  0  0  0  0  0  0  0  0  0  0  0
    1.7932    1.3163   -1.1102 C   0  0  0  0  0  0  0  0  0  0  0  0
    0.2796    1.4264   -1.2904 C   0  0  0  0  0  0  0  0  0  0  0  0
   -0.7181   -0.0403   -0.6598 C   0  0  0  0  0  0  0  0  0  0  0  0
   -2.0830    0.4012    0.8381 C   0  0  0  0  0  0  0  0  0  0  0  0
   -2.6012    2.1984    1.0151 C   0  0  0  0  0  0  0  0  0  0  0  0
   -1.6341    3.5252    0.2483 N   0  0  0  0  0  0  0  0  0  0  0  0
   -0.2023    3.1019   -0.7529 C   0  0  0  0  0  0  0  0  0  0  0  0
  1  2  1  0
  1  9  1  0
  2  3  2  0
  2 10  1  0
  3  4  1  0
  3 18  1  0
  4  5  1  0
  4  9  2  0
  5  6  2  0
  5 19  1  0
  6  7  1  0
  7  8  2  0
  8  9  1  0
 10 11  2  0
 10 12  1  0
 12 13  1  0
 12 17  2  0
 13 14  1  0
 13 15  1  0
 15 16  2  0
 16 17  1  0
 19 20  1  0
 20 21  1  0
 21 22  1  0
 22 23  1  0
 23 24  1  0
 24 25  1  0
 25 26  2  0
 25 30  1  0
 26 27  1  0
 27 28  2  0
 28 29  1  0
 29 30  2  0
M  END
>  <DRUGBANK_ID>  (1) 
DB03062

>  <SECONDARY_ACCESSION_NUMBERS>  (1) 
EXPT02748

>  <COMMON_NAME>  (1) 
(1-Methyl-1h-Imidazol-2-Yl)-(3-Methyl-4-{3-[(Pyridin-3-Ylmethyl)-Amino]-Propoxy}-Benzofuran-2-Yl)-Methanone

$$$$
