
     RDKit          3D

 13 13  0  0  0  0  0  0  0  0999 V2000
    0.9012    0.0098   -0.0122 O   0  0  0  0  0  0  0  0  0  0  0  0
    3.1478    1.1496   -0.0583 O   0  0  0  0  0  0  0  0  0  0  0  0
    3.1508   -1.1345    0.0341 O   0  0  0  0  0  0  0  0  0  0  0  0
    2.9446    2.7575   -0.0824 N   0  0  0  0  0  0  0  0  0  0  0  0
    4.1910    4.4751   -1.2323 N   0  0  0  0  0  0  0  0  0  0  0  0
    4.0561    4.3870    1.3087 N   0  0  0  0  0  0  0  0  0  0  0  0
    0.9346    2.1136    1.1448 C   0  0  0  0  0  0  0  0  0  0  0  0
    2.4546    2.1136    1.1448 C   0  0  0  0  0  0  0  0  0  0  0  0
    0.4279    1.3475   -0.0663 C   0  0  0  0  0  0  0  0  0  0  0  0
    4.5231    0.7803    0.1879 C   0  0  0  0  0  0  0  0  0  0  0  0
    4.5504   -0.7527    0.0063 C   0  0  0  0  0  0  0  0  0  0  0  0
    3.7010    3.8312   -0.0050 C   0  0  0  0  0  0  0  0  0  0  0  0
    2.4012    0.0098   -0.0122 B   0  0  0  0  0  0  0  0  0  0  0  0
  1  9  1  0
  1 13  1  0
  2 10  1  0
  2 13  1  0
  3 11  1  0
  3 13  1  0
  4  8  1  0
  4 12  2  3
  5 12  1  0
  6 12  1  0
  7  8  1  0
  7  9  1  0
 10 11  1  0
M  CHG  1   4   1
M  END
>  <DRUGBANK_ID>  (1) 
DB03129

>  <SECONDARY_ACCESSION_NUMBERS>  (1) 
EXPT02858

>  <COMMON_NAME>  (1) 
Diamino-N-[3-(1,3,2-dioxaborolan-2-yloxy)propyl]methaniminium

>  <SYNONYMS>  (1) 
[3-(1,3,2-dioxaborolan-2-yloxy)propyl]guanidine

$$$$
