
     RDKit          3D

 34 38  0  0  1  0  0  0  0  0999 V2000
    0.2997    0.0127    0.0381 O   0  0  0  0  0  0  0  0  0  0  0  0
   -0.0522   -0.9309    0.9660 C   0  0  0  0  0  0  0  0  0  0  0  0
    0.3938   -1.0095    2.2270 C   0  0  0  0  0  0  0  0  0  0  0  0
    1.6407   -0.3474    2.6085 C   0  0  1  0  0  0  0  0  0  0  0  0
    2.7153   -0.9778    1.7731 C   0  0  0  0  0  0  0  0  0  0  0  0
    2.7863   -0.9005    0.2514 C   0  0  0  0  0  0  0  0  0  0  0  0
    2.7070   -2.2339    0.9055 C   0  0  0  0  0  0  0  0  0  0  0  0
    1.5552    1.1727    2.5447 C   0  0  0  0  0  0  0  0  0  0  0  0
    0.6134    1.8595    3.2993 C   0  0  0  0  0  0  0  0  0  0  0  0
    0.4668    3.2360    3.1194 C   0  0  0  0  0  0  0  0  0  0  0  0
    1.3290    3.9530    2.2585 C   0  0  0  0  0  0  0  0  0  0  0  0
    2.3311    3.2883    1.5518 C   0  0  0  0  0  0  0  0  0  0  0  0
    3.1968    3.9326    0.6144 N   0  0  0  0  0  0  0  0  0  0  0  0
    4.5900    3.3536   -0.1975 S   0  0  0  0  0  0  0  0  0  0  0  0
    4.2419    3.3915   -1.5869 O   0  0  0  0  0  0  0  0  0  0  0  0
    5.6981    4.1773    0.2981 O   0  0  0  0  0  0  0  0  0  0  0  0
    5.1193    1.6678    0.1603 C   0  0  0  0  0  0  0  0  0  0  0  0
    5.2661    0.7259   -0.8954 C   0  0  0  0  0  0  0  0  0  0  0  0
    5.5140   -0.6381   -0.5964 C   0  0  0  0  0  0  0  0  0  0  0  0
    5.6889   -1.0364    0.7400 C   0  0  0  0  0  0  0  0  0  0  0  0
    5.6156   -0.0869    1.7717 C   0  0  0  0  0  0  0  0  0  0  0  0
    5.2995    1.2500    1.4871 C   0  0  0  0  0  0  0  0  0  0  0  0
    2.3284    1.9225    1.6566 C   0  0  0  0  0  0  0  0  0  0  0  0
   -0.0765   -2.0400    3.1615 C   0  0  0  0  0  0  0  0  0  0  0  0
    0.4059   -2.1733    4.2845 O   0  0  0  0  0  0  0  0  0  0  0  0
   -1.1040   -2.8034    2.7083 O   0  0  0  0  0  0  0  0  0  0  0  0
   -1.4955   -2.7253    1.3526 C   0  0  0  0  0  0  0  0  0  0  0  0
   -0.9216   -1.9183    0.4460 C   0  0  0  0  0  0  0  0  0  0  0  0
   -1.3671   -1.7790   -0.9924 C   0  0  0  0  0  0  0  0  0  0  0  0
   -2.0233   -0.4348   -1.3605 C   0  0  0  0  0  0  0  0  0  0  0  0
   -3.0533    0.1595   -0.3714 C   0  0  0  0  0  0  0  0  0  0  0  0
   -3.3665   -0.6332    0.9096 C   0  0  0  0  0  0  0  0  0  0  0  0
   -3.8112   -2.0976    0.6246 C   0  0  0  0  0  0  0  0  0  0  0  0
   -2.8545   -3.2419    1.0732 C   0  0  0  0  0  0  0  0  0  0  0  0
  1  2  1  0
  2  3  2  0
  2 28  1  0
  4  3  1  6
  3 24  1  0
  4  5  1  0
  4  8  1  0
  5  6  1  0
  5  7  1  0
  6  7  1  0
  8  9  2  0
  8 23  1  0
  9 10  1  0
 10 11  2  0
 11 12  1  0
 12 13  1  0
 12 23  2  0
 13 14  1  0
 14 15  2  0
 14 16  2  0
 14 17  1  0
 17 18  2  0
 17 22  1  0
 18 19  1  0
 19 20  2  0
 20 21  1  0
 21 22  2  0
 24 25  2  0
 24 26  1  0
 26 27  1  0
 27 28  2  0
 27 34  1  0
 28 29  1  0
 29 30  1  0
 30 31  1  0
 31 32  1  0
 32 33  1  0
 33 34  1  0
M  END
>  <DRUGBANK_ID>  (1) 
DB02033

>  <SECONDARY_ACCESSION_NUMBERS>  (1) 
EXPT01894

>  <COMMON_NAME>  (1) 
N-(3-Cyclopropyl(5,6,7,8,9,10-Hexahydro-2-Oxo-2h-Cycloocta[B]Pyran-3-Yl)Methyl)Phenylbenzensulfonamide

$$$$
