
     RDKit          3D

 17 18  0  0  0  0  0  0  0  0999 V2000
    1.2814    0.0281    0.0489 C   0  0  0  0  0  0  0  0  0  0  0  0
    1.1302    2.3203   -0.8024 C   0  0  0  0  0  0  0  0  0  0  0  0
   -1.5710   -1.1553    0.2938 C   0  0  0  0  0  0  0  0  0  0  0  0
   -4.4309    0.2002    0.3361 C   0  0  0  0  0  0  0  0  0  0  0  0
   -5.9356    5.4582    0.2484 C   0  0  0  0  0  0  0  0  0  0  0  0
   -4.9581    5.3914   -0.7352 C   0  0  0  0  0  0  0  0  0  0  0  0
   -5.9218    4.5161    1.2774 C   0  0  0  0  0  0  0  0  0  0  0  0
   -4.0021    4.3576   -0.7035 C   0  0  0  0  0  0  0  0  0  0  0  0
   -4.9548    3.4869    1.3110 C   0  0  0  0  0  0  0  0  0  0  0  0
    0.5921    1.3704    0.2734 C   0  0  0  0  0  0  0  0  0  0  0  0
   -1.8531    0.3388    0.3260 C   0  0  0  0  0  0  0  0  0  0  0  0
   -4.0291    3.3369    0.2776 C   0  0  0  0  0  0  0  0  0  0  0  0
   -0.9166    1.3195    0.2968 C   0  0  0  0  0  0  0  0  0  0  0  0
   -1.6805    2.6119    0.3002 C   0  0  0  0  0  0  0  0  0  0  0  0
   -3.1554    0.8935    0.4218 N   0  0  0  0  0  0  0  0  0  0  0  0
   -3.0336    2.3143    0.2597 N   0  0  0  0  0  0  0  0  0  0  0  0
   -1.1580    3.7234    0.3620 O   0  0  0  0  0  0  0  0  0  0  0  0
  6  5  2  0
  7  5  1  0
  8  6  1  0
  9  7  2  0
 10  1  1  0
 10  2  1  0
 11  3  1  0
 12  8  2  0
 12  9  1  0
 13 10  1  0
 13 11  2  0
 14 13  1  0
 15  4  1  0
 15 11  1  0
 16 12  1  0
 16 14  1  0
 16 15  1  0
 17 14  2  0
M  END
>  <DRUGBANK_ID>  (1) 
DB13524

>  <COMMON_NAME>  (1) 
Propyphenazone

>  <CAS_NUMBER>  (1) 
479-92-5

>  <UNII>  (1) 
OED8FV75PY

>  <SYNONYMS>  (1) 
1-Phenyl-2,3-dimethyl-4-isopropyl-3-pyrazolin-5-one; 1-Phenyl-2,3-dimethyl-4-isopropylpyrazol-5-one; 4-Isopropyl-1,5-dimethyl-2-phenyl-1,2-dihydro-pyrazol-3-one; 4-Isopropylantipyrine; Isopropylantipyrine; Isopropylphenazone; Propifenazona; Propyphenazone; Propyphenazonum

$$$$
