
     RDKit          3D

 24 24  0  0  0  0  0  0  0  0999 V2000
   -0.8472   -0.2620    0.8960 C   0  0  2  0  0  0  0  0  0  0  0  0
    0.3359   -0.0697    0.0119 C   0  0  0  0  0  0  0  0  0  0  0  0
   -0.9928   -0.1896   -0.6578 C   0  0  0  0  0  0  0  0  0  0  0  0
   -1.5701    0.7867    1.6307 C   0  0  0  0  0  0  0  0  0  0  0  0
   -0.9865    1.3188    2.8478 N   0  0  0  0  0  0  0  0  0  0  0  0
   -1.3916    2.3498    3.7792 C   0  0  0  0  0  0  0  0  0  0  0  0
   -0.5283    2.6868    4.9877 C   0  0  0  0  0  0  0  0  0  0  0  0
   -2.6939    4.1866    0.1446 C   0  0  0  0  0  0  0  0  0  0  0  0
   -3.7682    3.6190   -0.8049 C   0  0  1  0  0  0  0  0  0  0  0  0
   -2.6169    0.9518    1.0600 O   0  0  0  0  0  0  0  0  0  0  0  0
   -0.9013    3.7187    5.7944 O   0  0  0  0  0  0  0  0  0  0  0  0
    0.4709    2.0322    5.2637 O   0  0  0  0  0  0  0  0  0  0  0  0
   -1.6150    3.6705    0.4124 O   0  0  0  0  0  0  0  0  0  0  0  0
   -2.5135    3.0797    3.7203 C   0  0  0  0  0  0  0  0  0  0  0  0
   -3.2039    2.3736   -1.3991 N   0  0  0  0  0  0  0  0  0  0  0  0
   -3.0180    5.3579    0.7223 O   0  0  0  0  0  0  0  0  0  0  0  0
    1.2134   -1.2674   -0.0810 C   0  0  0  0  0  0  0  0  0  0  0  0
    1.0049    1.2792   -0.0066 C   0  0  0  0  0  0  0  0  0  0  0  0
   -6.3025    4.5254    0.4530 S   0  0  0  0  0  0  0  0  0  0  0  0
   -5.2104    3.2773   -0.3606 C   0  0  0  0  0  0  0  0  0  0  0  0
   -3.4754    2.9317    2.6628 C   0  0  0  0  0  0  0  0  0  0  0  0
   -5.6447    4.8242    2.1376 C   0  0  0  0  0  0  0  0  0  0  0  0
   -4.8615    2.4365    2.8039 C   0  0  0  0  0  0  0  0  0  0  0  0
   -5.6560    3.6681    3.1644 C   0  0  0  0  0  0  0  0  0  0  0  0
  1  4  1  1
  2  1  1  0
  3  1  1  0
  3  2  1  0
  5  4  1  0
  6  5  1  0
  7  6  1  0
  8  9  1  0
  9 20  1  0
 10  4  2  0
 11  7  1  0
 12  7  2  0
 13  8  2  0
 14  6  2  0
  9 15  1  1
 16  8  1  0
 17  2  1  0
 18  2  1  0
 19 22  1  0
 20 19  1  0
 21 14  1  0
 22 24  1  0
 23 21  1  0
 24 23  1  0
M  END
>  <DRUGBANK_ID>  (1) 
DB01597

>  <SECONDARY_ACCESSION_NUMBERS>  (1) 
EXPT00918

>  <COMMON_NAME>  (1) 
Cilastatin

>  <CAS_NUMBER>  (1) 
82009-34-5

>  <UNII>  (1) 
141A6AMN38

>  <SYNONYMS>  (1) 
(L)-7-(2-Amino-2-carboxy-ethylsulfanyl)-2-[(2,2-dimethyl-cyclopropanecarbonyl)-amino]-hept-2-enoic acid; (Z)-(S)-6-carboxy-6-[(S)-2,2-dimethylcyclopropanecarboxamido]hex-5-enyl-L-cysteine; (Z)-7-((R)-2-Amino-2-carboxy-ethylsulfanyl)-2-[((S)-2,2-dimethyl-cyclopropanecarbonyl)-amino]-hept-2-enoic acid; Cilastatin; Cilastatina; Cilastatine; Cilastatinum

$$$$
