
     RDKit          3D

 22 24  0  0  0  0  0  0  0  0999 V2000
    0.8717   -0.0860   -0.0730 Cl  0  0  0  0  0  0  0  0  0  0  0  0
    9.4389   -0.0804    0.0826 N   0  0  0  0  0  0  0  0  0  0  0  0
    9.6622   -2.5386    1.6888 N   0  0  0  0  0  0  0  0  0  0  0  0
    4.6501   -0.7221    0.0357 N   0  0  0  0  0  0  0  0  0  0  0  0
   10.0841   -4.0639    3.3820 N   0  0  0  0  0  0  0  0  0  0  0  0
   11.6707   -3.7398    1.6655 N   0  0  0  0  0  0  0  0  0  0  0  0
    4.6968    0.6200    0.1475 N   0  0  0  0  0  0  0  0  0  0  0  0
    9.7521   -1.3961   -0.5090 C   0  0  0  0  0  0  0  0  0  0  0  0
    9.8453   -0.0793    1.5077 C   0  0  0  0  0  0  0  0  0  0  0  0
    8.1267    0.5549   -0.0836 C   0  0  0  0  0  0  0  0  0  0  0  0
    9.3203   -2.6552    0.2884 C   0  0  0  0  0  0  0  0  0  0  0  0
    9.3273   -1.2861    2.3430 C   0  0  0  0  0  0  0  0  0  0  0  0
    7.3016    0.2372   -1.3354 C   0  0  0  0  0  0  0  0  0  0  0  0
    6.6734   -1.1616   -1.3270 C   0  0  0  0  0  0  0  0  0  0  0  0
    5.8749   -1.4877   -0.0603 C   0  0  0  0  0  0  0  0  0  0  0  0
   10.5113   -3.4445    2.2716 C   0  0  0  0  0  0  0  0  0  0  0  0
    3.3831   -1.2183   -0.0091 C   0  0  0  0  0  0  0  0  0  0  0  0
   10.8562   -5.0582    3.8744 C   0  0  0  0  0  0  0  0  0  0  0  0
   12.4401   -4.6961    2.2348 C   0  0  0  0  0  0  0  0  0  0  0  0
    2.5578   -0.1220   -0.0126 C   0  0  0  0  0  0  0  0  0  0  0  0
    3.4177    0.9871    0.0426 C   0  0  0  0  0  0  0  0  0  0  0  0
   12.0656   -5.4137    3.3399 C   0  0  0  0  0  0  0  0  0  0  0  0
  1 20  1  0
  2  8  1  0
  2  9  1  0
  2 10  1  0
  3 11  1  0
  3 12  1  0
  3 16  1  0
  4  7  1  0
  4 15  1  0
  4 17  1  0
  5 16  2  0
  5 18  1  0
  6 16  1  0
  6 19  2  0
  7 21  2  0
  8 11  1  0
  9 12  1  0
 10 13  1  0
 13 14  1  0
 14 15  1  0
 17 20  2  0
 18 22  2  0
 19 22  1  0
 20 21  1  0
M  END
>  <DRUGBANK_ID>  (1) 
DB04970

>  <COMMON_NAME>  (1) 
Lesopitron

>  <CAS_NUMBER>  (1) 
132449-46-8

>  <UNII>  (1) 
H1CGM4755H

>  <SYNONYMS>  (1) 
2-(4-(4-(4-Chloropyrazol-1-yl)butyl)-1-piperazinyl)pyrimidine; Lesopitron

$$$$
