
     RDKit          3D

 27 29  0  0  1  0  0  0  0  0999 V2000
   -1.3216   -7.3406    2.2728 C   0  0  0  0  0  0  0  0  0  0  0  0
   -0.5250   -8.5339    2.3287 C   0  0  0  0  0  0  0  0  0  0  0  0
   -1.4725   -6.3395    3.3469 C   0  0  0  0  0  0  0  0  0  0  0  0
   -0.7390   -9.6489    3.1111 C   0  0  0  0  0  0  0  0  0  0  0  0
   -1.7586   -9.6560    4.2160 C   0  0  0  0  0  0  0  0  0  0  0  0
   -2.0225   -6.7404    4.5813 C   0  0  0  0  0  0  0  0  0  0  0  0
   -1.6363   -8.2938    5.3707 S   0  0  0  0  0  0  0  0  0  0  0  0
    0.5684   -8.8162    1.0397 S   0  0  0  0  0  0  0  0  0  0  0  0
    0.7732  -10.4345    1.4674 C   0  0  0  0  0  0  0  0  0  0  0  0
    0.0118  -10.7697    2.5699 C   0  0  0  0  0  0  0  0  0  0  0  0
   -2.8445   -5.8545    5.3012 C   0  0  0  0  0  0  0  0  0  0  0  0
   -3.0765   -4.5669    4.8218 C   0  0  0  0  0  0  0  0  0  0  0  0
   -2.4463   -4.1246    3.6458 C   0  0  0  0  0  0  0  0  0  0  0  0
   -1.6211   -4.9854    2.8899 C   0  0  0  0  0  0  0  0  0  0  0  0
   -2.0443   -7.1249    1.2841 O   0  0  0  0  0  0  0  0  0  0  0  0
   -1.0763   -4.4784    1.6309 N   0  0  0  0  0  0  0  0  0  0  0  0
   -0.0561   -5.0979    0.9117 C   0  0  0  0  0  0  0  0  0  0  0  0
    0.6262   -5.9960    1.4133 O   0  0  0  0  0  0  0  0  0  0  0  0
    0.3663   -4.6735   -0.5095 C   0  0  2  0  0  0  0  0  0  0  0  0
    0.8375   -3.2377   -0.3535 C   0  0  0  0  0  0  0  0  0  0  0  0
   -0.6267   -4.9614   -1.6311 C   0  0  0  0  0  0  0  0  0  0  0  0
    1.5156   -5.4983   -0.8947 O   0  0  0  0  0  0  0  0  0  0  0  0
   -2.6942   -8.5058    6.3533 O   0  0  0  0  0  0  0  0  0  0  0  0
   -0.2674   -8.1643    5.8214 O   0  0  0  0  0  0  0  0  0  0  0  0
    1.6946   -2.8621   -1.3272 F   0  0  0  0  0  0  0  0  0  0  0  0
   -0.2037   -2.3710   -0.3660 F   0  0  0  0  0  0  0  0  0  0  0  0
    1.4775   -3.0574    0.8296 F   0  0  0  0  0  0  0  0  0  0  0  0
  1  2  1  0
  1  3  1  0
  1 15  2  0
  2  4  2  0
  2  8  1  0
  3  6  2  0
  4  5  1  0
  4 10  1  0
  5  7  1  0
  6 11  1  0
  6  7  1  0
  7 23  2  0
  7 24  2  0
  8  9  1  0
  9 10  2  0
 11 12  2  0
 12 13  1  0
 13 14  2  0
 14  3  1  0
 14 16  1  0
 16 17  1  0
 17 18  2  0
 19 21  1  6
 19 22  1  0
 19 20  1  0
 19 17  1  0
 20 25  1  0
 20 26  1  0
 20 27  1  0
M  END
>  <DRUGBANK_ID>  (1) 
DB05498

>  <COMMON_NAME>  (1) 
KW-7158

>  <UNII>  (1) 
S2T07V1P1G

$$$$
