
     RDKit          3D

 27 29  0  0  0  0  0  0  0  0999 V2000
    1.2267   -0.4595    1.1187 Cl  0  0  0  0  0  0  0  0  0  0  0  0
    1.8256    1.0341   -8.4583 O   0  0  0  0  0  0  0  0  0  0  0  0
   -0.6665    1.0420   -6.6037 O   0  0  0  0  0  0  0  0  0  0  0  0
    2.7359   -0.6808   -2.3300 C   0  0  0  0  0  0  0  0  0  0  0  0
    3.6585   -0.4145   -3.3082 C   0  0  0  0  0  0  0  0  0  0  0  0
    3.0981   -1.0519   -0.8667 C   0  0  0  0  0  0  0  0  0  0  0  0
    3.2406    0.0422   -4.6791 C   0  0  0  0  0  0  0  0  0  0  0  0
    1.2586   -0.6341   -2.6176 C   0  0  0  0  0  0  0  0  0  0  0  0
    5.1350   -0.5230   -3.0616 C   0  0  0  0  0  0  0  0  0  0  0  0
    2.3885    1.1412   -4.8226 C   0  0  0  0  0  0  0  0  0  0  0  0
    3.7495   -0.5643   -5.8363 C   0  0  0  0  0  0  0  0  0  0  0  0
    2.7722   -0.1097    0.3009 C   0  0  0  0  0  0  0  0  0  0  0  0
    0.4306    0.1923   -1.8614 C   0  0  0  0  0  0  0  0  0  0  0  0
    0.6716   -1.2728   -3.7291 C   0  0  0  0  0  0  0  0  0  0  0  0
    5.7003   -1.6634   -2.4748 C   0  0  0  0  0  0  0  0  0  0  0  0
    5.9970    0.4765   -3.5402 C   0  0  0  0  0  0  0  0  0  0  0  0
    1.9999    1.5757   -6.0835 C   0  0  0  0  0  0  0  0  0  0  0  0
    3.3387   -0.1365   -7.1046 C   0  0  0  0  0  0  0  0  0  0  0  0
    2.3874    0.8800   -7.2203 C   0  0  0  0  0  0  0  0  0  0  0  0
   -0.9414    0.2878   -2.0753 C   0  0  0  0  0  0  0  0  0  0  0  0
   -0.6687   -1.0275   -4.0599 C   0  0  0  0  0  0  0  0  0  0  0  0
    7.0758   -1.7559   -2.2733 C   0  0  0  0  0  0  0  0  0  0  0  0
    7.3817    0.3324   -3.4382 C   0  0  0  0  0  0  0  0  0  0  0  0
   -1.4878   -0.2986   -3.2099 C   0  0  0  0  0  0  0  0  0  0  0  0
    7.9166   -0.7680   -2.7719 C   0  0  0  0  0  0  0  0  0  0  0  0
    0.6635    1.8715   -8.5651 C   0  0  0  0  0  0  0  0  0  0  0  0
   -0.6421    1.2692   -8.0053 C   0  0  0  0  0  0  0  0  0  0  0  0
  1 12  1  0
  2 19  1  0
  2 26  1  0
  3 27  1  0
  4  5  2  0
  4  6  1  0
  4  8  1  0
  5  7  1  0
  5  9  1  0
  6 12  1  0
  7 10  2  0
  7 11  1  0
  8 13  2  0
  8 14  1  0
  9 15  2  0
  9 16  1  0
 10 17  1  0
 11 18  2  0
 13 20  1  0
 14 21  2  0
 15 22  1  0
 16 23  2  0
 17 19  2  0
 18 19  1  0
 20 24  2  0
 21 24  1  0
 22 25  2  0
 23 25  1  0
 26 27  1  0
M  END
>  <DRUGBANK_ID>  (1) 
DB04938

>  <COMMON_NAME>  (1) 
Ospemifene

>  <CAS_NUMBER>  (1) 
128607-22-7

>  <UNII>  (1) 
B0P231ILBK

>  <SYNONYMS>  (1) 
2-(4-(4-Chloro-1,2-diphenyl-but-1-enyl)phenoxy)ethanol; 2-(p-((Z)-4-Chloro-1,2-diphenyl-1-butenyl)phenoxy)ethanol; Deamino-hydroxytoremifene; Ospemifene; Ospemifeno

$$$$
