1184
     RDKit          3D

 30 34  0  0  0  0  0  0  0  0999 V2000
    1.0368   -0.1502   -0.1246 Cl  0  0  0  0  0  0  0  0  0  0  0  0
    8.0916   -2.4231   -0.0180 O   0  0  0  0  0  0  0  0  0  0  0  0
    5.4170    7.1125    1.2087 O   0  0  0  0  0  0  0  0  0  0  0  0
    7.8708    3.3320   -0.9072 N   0  0  0  0  0  0  0  0  0  0  0  0
    6.9548   -0.3434    0.2673 N   0  0  0  0  0  0  0  0  0  0  0  0
    5.7775   -2.2951    0.0312 N   0  0  0  0  0  0  0  0  0  0  0  0
    6.4976    5.2099    2.0654 N   0  0  0  0  0  0  0  0  0  0  0  0
    7.1534    7.2459    2.7296 N   0  0  0  0  0  0  0  0  0  0  0  0
    8.1231    0.4612   -0.1658 C   0  0  0  0  0  0  0  0  0  0  0  0
    8.8126    1.5603    0.6588 C   0  0  0  0  0  0  0  0  0  0  0  0
    7.9474    0.9434   -1.6082 C   0  0  0  0  0  0  0  0  0  0  0  0
    8.1517    2.8862    0.4463 C   0  0  0  0  0  0  0  0  0  0  0  0
    7.2347    2.2900   -1.7068 C   0  0  0  0  0  0  0  0  0  0  0  0
    7.0532    4.5684   -0.8763 C   0  0  0  0  0  0  0  0  0  0  0  0
    5.6739    4.4872   -0.1748 C   0  0  0  0  0  0  0  0  0  0  0  0
    5.5531   -0.0693    0.1698 C   0  0  0  0  0  0  0  0  0  0  0  0
    7.0712   -1.7685    0.1066 C   0  0  0  0  0  0  0  0  0  0  0  0
    5.6709    4.2696    1.3729 C   0  0  0  0  0  0  0  0  0  0  0  0
    4.8537   -1.2669    0.0430 C   0  0  0  0  0  0  0  0  0  0  0  0
    4.8191    1.0881    0.1686 C   0  0  0  0  0  0  0  0  0  0  0  0
    3.4709   -1.3474   -0.0657 C   0  0  0  0  0  0  0  0  0  0  0  0
    7.5684    5.0346    2.9796 C   0  0  0  0  0  0  0  0  0  0  0  0
    3.4276    1.0715    0.0000 C   0  0  0  0  0  0  0  0  0  0  0  0
    6.2478    6.5861    1.9102 C   0  0  0  0  0  0  0  0  0  0  0  0
    7.9495    6.3181    3.3823 C   0  0  0  0  0  0  0  0  0  0  0  0
    2.7571   -0.1482   -0.0801 C   0  0  0  0  0  0  0  0  0  0  0  0
    8.2517    3.9377    3.4843 C   0  0  0  0  0  0  0  0  0  0  0  0
    8.9508    6.5667    4.2950 C   0  0  0  0  0  0  0  0  0  0  0  0
    9.3137    4.1651    4.3837 C   0  0  0  0  0  0  0  0  0  0  0  0
    9.6412    5.4673    4.8029 C   0  0  0  0  0  0  0  0  0  0  0  0
  1 26  1  0
  2 17  2  0
  3 24  2  0
  4 12  1  0
  4 13  1  0
  4 14  1  0
  5  9  1  0
  5 16  1  0
  5 17  1  0
  6 17  1  0
  6 19  1  0
  7 18  1  0
  7 22  1  0
  7 24  1  0
  8 24  1  0
  8 25  1  0
  9 10  1  0
  9 11  1  0
 10 12  1  0
 11 13  1  0
 14 15  1  0
 15 18  1  0
 16 19  2  0
 16 20  1  0
 19 21  1  0
 20 23  2  0
 21 26  2  0
 22 25  2  0
 22 27  1  0
 23 26  1  0
 25 28  1  0
 27 29  2  0
 28 30  2  0
 29 30  1  0
M  END
>  <DRUGBANK_ID>  (1) 
DB01184

>  <SECONDARY_ACCESSION_NUMBERS>  (1) 
APRD00418

>  <COMMON_NAME>  (1) 
Domperidone

>  <CAS_NUMBER>  (1) 
57808-66-9

>  <UNII>  (1) 
5587267Z69

>  <SYNONYMS>  (1) 
1-(3-(4-(5-chloro-2-oxo-2,3-dihydrobenzo[d]imidazol-1-yl)piperidin-1-yl)propyl)-1H-benzo[d]imidazol-2(3H)-one; 5-chloro-1-(1-(3-(2-oxo-1-benzimidazolinyl)propyl)-4-piperidyl)-2-benzimidazolinone; 5-chloro-1-(1-(3-(2-oxo-2,3-dihydrobenzo[d]imidazol-1-yl)propyl)piperidin-4-yl)-1H-benzo[d]imidazol-2(3H)-one; 5-chloro-1-{1-[3-(2-oxo-2,3-dihydro-benzoimidazol-1-yl)-propyl]-piperidin-4-yl}-1,3-dihydro-benzoimidazol-2-one; Domperidona; Domperidone; Domperidonum

$$$$
