
     RDKit          3D

 20 22  0  0  0  0  0  0  0  0999 V2000
    0.0154    0.7783   -0.0009 C   0  0  0  0  0  0  0  0  0  0  0  0
   -2.4179    0.6020   -0.3498 N   0  0  0  0  0  0  0  0  0  0  0  0
    1.1644   -1.4301   -0.0556 N   0  0  0  0  0  0  0  0  0  0  0  0
   -3.3339    0.9927   -1.3312 C   0  0  0  0  0  0  0  0  0  0  0  0
    2.4560    0.6403    0.0213 C   0  0  0  0  0  0  0  0  0  0  0  0
    0.0728   -0.7198   -0.0369 C   0  0  0  0  0  0  0  0  0  0  0  0
    2.3330   -0.7316   -0.0239 N   0  0  0  0  0  0  0  0  0  0  0  0
    1.1910    1.4308    0.0391 C   0  0  0  0  0  0  0  0  0  0  0  0
   -1.3108    1.4903    0.0115 C   0  0  0  0  0  0  0  0  0  0  0  0
    3.5697    1.3267    0.0541 N   0  0  0  0  0  0  0  0  0  0  0  0
   -1.2272   -1.4973   -0.0902 C   0  0  0  0  0  0  0  0  0  0  0  0
   -2.4139   -0.6720    0.3521 C   0  0  0  0  0  0  0  0  0  0  0  0
   -3.2457    2.0704   -1.9306 O   0  0  0  0  0  0  0  0  0  0  0  0
   -4.4567    0.0942   -1.7266 C   0  0  0  0  0  0  0  0  0  0  0  0
    4.7338    0.6667    0.1040 N   0  0  0  0  0  0  0  0  0  0  0  0
   -5.4402   -0.3011   -0.8105 C   0  0  0  0  0  0  0  0  0  0  0  0
   -4.5705   -0.3041   -3.0663 C   0  0  0  0  0  0  0  0  0  0  0  0
   -6.4763   -1.1532   -1.2135 C   0  0  0  0  0  0  0  0  0  0  0  0
   -5.6133   -1.1478   -3.4675 C   0  0  0  0  0  0  0  0  0  0  0  0
   -6.5575   -1.5830   -2.5383 C   0  0  0  0  0  0  0  0  0  0  0  0
  2  9  1  0
  3  6  2  0
  4  2  1  0
  5  8  1  0
  6  1  1  0
  7  5  1  0
  7  3  1  0
  8  1  2  0
  9  1  1  0
 10  5  2  0
 11  6  1  0
 12  2  1  0
 12 11  1  0
 13  4  2  0
 14  4  1  0
 15 10  1  0
 16 14  2  0
 17 14  1  0
 18 16  1  0
 19 17  2  0
 19 20  1  0
 20 18  2  0
M  END
>  <DRUGBANK_ID>  (1) 
DB13435

>  <COMMON_NAME>  (1) 
Endralazine

>  <CAS_NUMBER>  (1) 
39715-02-1

>  <UNII>  (1) 
L44741F05P

>  <SYNONYMS>  (1) 
Endralazina; Endralazine; Endralazinum

$$$$
