
     RDKit          3D

 19 18  0  0  0  0  0  0  0  0999 V2000
    1.0239    0.0446    0.0844 C   0  0  0  0  0  0  0  0  0  0  0  0
    0.5507    1.4473    0.4497 C   0  0  0  0  0  0  0  0  0  0  0  0
    0.6159   -0.4419   -1.3044 C   0  0  0  0  0  0  0  0  0  0  0  0
    1.0495    2.5204   -0.5166 C   0  0  0  0  0  0  0  0  0  0  0  0
    1.0699   -1.8402   -1.6340 C   0  0  0  0  0  0  0  0  0  0  0  0
    0.4747    2.4482   -1.9318 C   0  0  0  0  0  0  0  0  0  0  0  0
    0.4238   -2.8353   -0.6977 C   0  0  0  0  0  0  0  0  0  0  0  0
   -1.0517    2.3247   -1.9244 C   0  0  0  0  0  0  0  0  0  0  0  0
   -1.1078   -2.7533   -0.7790 C   0  0  0  0  0  0  0  0  0  0  0  0
   -1.6380    3.6633   -1.5039 C   0  0  0  0  0  0  0  0  0  0  0  0
   -1.6161   -3.0278   -2.2021 C   0  0  0  0  0  0  0  0  0  0  0  0
   -1.1933    4.7562   -2.4818 C   0  0  0  0  0  0  0  0  0  0  0  0
   -1.1589   -4.4058   -2.6912 C   0  0  0  0  0  0  0  0  0  0  0  0
   -1.6588    4.4443   -3.9101 C   0  0  0  0  0  0  0  0  0  0  0  0
   -1.6578   -5.5218   -1.7659 C   0  0  0  0  0  0  0  0  0  0  0  0
   -3.1828    4.3756   -3.9879 C   0  0  0  0  0  0  0  0  0  0  0  0
   -3.1795   -5.5511   -1.6715 C   0  0  0  0  0  0  0  0  0  0  0  0
   -3.7903    5.6913   -3.5293 C   0  0  0  0  0  0  0  0  0  0  0  0
   -3.7417   -5.8036   -2.9566 O   0  0  0  0  0  0  0  0  0  0  0  0
  1  2  1  0
  1  3  1  0
  2  4  1  0
  3  5  1  0
  4  6  1  0
  5  7  1  0
  6  8  1  0
  7  9  1  0
  8 10  1  0
  9 11  1  0
 10 12  1  0
 11 13  1  0
 12 14  1  0
 13 15  1  0
 14 16  1  0
 15 17  1  0
 16 18  1  0
 17 19  1  0
M  END
>  <DRUGBANK_ID>  (1) 
DB15953

>  <COMMON_NAME>  (1) 
Stearyl alcohol

>  <CAS_NUMBER>  (1) 
112-92-5

>  <UNII>  (1) 
2KR89I4H1Y

>  <SYNONYMS>  (1) 
1-Octadecanol; Octadecan-1-ol; Octadecyl alcohol; Stearyl alcohol

$$$$
