
     RDKit          3D

 11  9  0  0  1  0  0  0  0  0999 V2000
    1.1848    0.3221    2.5471 C   0  0  2  0  0  0  0  0  0  0  0  0
    0.7922   -0.3338    1.2381 C   0  0  2  0  0  0  0  0  0  0  0  0
    1.4206    0.1419   -0.1453 C   0  0  0  0  0  0  0  0  0  0  0  0
    2.6356    0.3786   -0.2562 O   0  0  0  0  0  0  0  0  0  0  0  0
    0.5699   -0.1175   -1.0928 O   0  0  0  0  0  0  0  0  0  0  0  0
   -0.7056   -0.3549    1.0891 O   0  0  0  0  0  0  0  0  0  0  0  0
    1.7027    1.7061    2.1059 C   0  0  0  0  0  0  0  0  0  0  0  0
    2.8872    1.9859    2.4087 O   0  0  0  0  0  0  0  0  0  0  0  0
    0.7990    2.3453    1.4707 O   0  0  0  0  0  0  0  0  0  0  0  0
    2.1336   -0.5333    3.2041 O   0  0  0  0  0  0  0  0  0  0  0  0
   -0.9286   -1.0527   -0.8009 Fe  0  0  0  0  0 15  0  0  0  0  0  0
  1  7  1  0
  1 10  1  6
  2  6  1  6
  2  3  1  0
  2  1  1  0
  3  4  2  0
  3  5  1  0
  7  8  2  0
  7  9  1  0
M  CHG  3   5  -1   9  -1  11   2
M  END
>  <DRUGBANK_ID>  (1) 
DB13639

>  <COMMON_NAME>  (1) 
Ferrous tartrate

>  <CAS_NUMBER>  (1) 
2944-65-2

>  <UNII>  (1) 
ZRW631PTZD

$$$$
