
     RDKit          3D

 22 24  0  0  1  0  0  0  0  0999 V2000
    0.7834   -0.0910    0.1439 C   0  0  0  0  0  0  0  0  0  0  0  0
    0.2575    0.7932   -1.0109 N   0  0  0  0  0  0  0  0  0  0  0  0
    1.3530    1.1774   -1.9453 C   0  0  2  0  0  0  0  0  0  0  0  0
    0.6830    1.8118   -3.1738 C   0  0  0  0  0  0  0  0  0  0  0  0
   -0.6578    1.1203   -3.2553 C   0  0  0  0  0  0  0  0  0  0  0  0
   -0.6810    0.1299   -2.0675 C   0  0  1  0  0  0  0  0  0  0  0  0
   -0.1446   -1.2537   -2.5612 C   0  0  0  0  0  0  0  0  0  0  0  0
    1.3754   -1.3984   -2.6555 C   0  0  2  0  0  0  0  0  0  0  0  0
    2.0356   -0.1194   -2.2891 C   0  0  0  0  0  0  0  0  0  0  0  0
    1.8239   -1.7554   -4.0216 O   0  0  0  0  0  0  0  0  0  0  0  0
    3.0569   -1.5545   -4.6061 C   0  0  0  0  0  0  0  0  0  0  0  0
    3.1731   -1.8028   -5.8182 O   0  0  0  0  0  0  0  0  0  0  0  0
    4.3079   -1.0543   -3.8026 C   0  0  1  0  0  0  0  0  0  0  0  0
    4.6425    0.5072   -3.7320 C   0  0  0  0  0  0  0  0  0  0  0  0
    3.7900    1.4849   -3.1245 O   0  0  0  0  0  0  0  0  0  0  0  0
    4.5786   -1.9317   -2.5821 C   0  0  0  0  0  0  0  0  0  0  0  0
    4.6435   -3.3271   -2.7551 C   0  0  0  0  0  0  0  0  0  0  0  0
    4.8777   -4.1693   -1.6696 C   0  0  0  0  0  0  0  0  0  0  0  0
    5.0279   -3.6351   -0.3931 C   0  0  0  0  0  0  0  0  0  0  0  0
    4.9843   -2.2580   -0.2066 C   0  0  0  0  0  0  0  0  0  0  0  0
    4.7857   -1.4139   -1.2965 C   0  0  0  0  0  0  0  0  0  0  0  0
   -0.3143    2.0410   -0.3427 C   0  0  0  0  0  0  0  0  0  0  0  0
  1  2  1  0
  2  3  1  0
  2  6  1  0
  2 22  1  0
  3  4  1  6
  3  9  1  0
  4  5  1  0
  6  5  1  6
  6  7  1  0
  7  8  1  0
  8  9  1  0
  8 10  1  6
 10 11  1  0
 11 12  2  0
 11 13  1  0
 13 14  1  1
 13 16  1  0
 14 15  1  0
 16 17  2  0
 16 21  1  0
 17 18  1  0
 18 19  2  0
 19 20  1  0
 20 21  2  0
M  CHG  1   2   1
M  END
>  <DRUGBANK_ID>  (1) 
DB13833

>  <COMMON_NAME>  (1) 
Methylatropine

>  <CAS_NUMBER>  (1) 
31610-87-4

>  <UNII>  (1) 
80719I460H

>  <SYNONYMS>  (1) 
Methylatropinium

$$$$
