
     RDKit          3D

 39 45  0  0  0  0  0  0  0  0999 V2000
   -1.5060    1.5472    0.0359 C   0  0  0  0  0  0  0  0  0  0  0  0
   -2.8423    1.8977    0.0375 C   0  0  0  0  0  0  0  0  0  0  0  0
   -3.7692    0.8924   -0.0030 C   0  0  0  0  0  0  0  0  0  0  0  0
   -3.3744   -0.4641   -0.0860 C   0  0  0  0  0  0  0  0  0  0  0  0
   -1.0412    0.2094   -0.0597 C   0  0  0  0  0  0  0  0  0  0  0  0
   -1.9733   -0.8414   -0.1719 C   0  0  0  0  0  0  0  0  0  0  0  0
   -1.2102   -2.1268   -0.3369 N   0  0  0  0  0  0  0  0  0  0  0  0
    0.1933   -0.4182   -0.0752 C   0  0  0  0  0  0  0  0  0  0  0  0
    0.2182   -1.7826   -0.3639 C   0  0  0  0  0  0  0  0  0  0  0  0
    2.5769   -1.7107    0.1627 C   0  0  0  0  0  0  0  0  0  0  0  0
    1.5453   -2.3619   -0.4609 C   0  0  0  0  0  0  0  0  0  0  0  0
    2.3829   -3.1824   -1.3028 N   0  0  0  0  0  0  0  0  0  0  0  0
    3.7479   -2.4042    0.3137 C   0  0  0  0  0  0  0  0  0  0  0  0
    3.7056   -3.3362   -0.7249 C   0  0  0  0  0  0  0  0  0  0  0  0
    4.9235   -4.0392   -0.9872 C   0  0  0  0  0  0  0  0  0  0  0  0
    5.8849   -4.1124    0.0580 C   0  0  0  0  0  0  0  0  0  0  0  0
    5.7347   -3.3743    1.2220 C   0  0  0  0  0  0  0  0  0  0  0  0
    4.7960   -2.3606    1.2425 C   0  0  0  0  0  0  0  0  0  0  0  0
    1.3894    0.3665    0.0289 C   0  0  0  0  0  0  0  0  0  0  0  0
    2.6032   -0.3079    0.1464 C   0  0  0  0  0  0  0  0  0  0  0  0
    3.6885    0.6277    0.0779 C   0  0  0  0  0  0  0  0  0  0  0  0
    3.0526    1.7813   -0.2676 N   0  0  0  0  0  0  0  0  0  0  0  0
    1.7238    1.7663    0.0200 C   0  0  0  0  0  0  0  0  0  0  0  0
   -4.7372   -1.5244   -0.1175 Cl  0  0  0  0  0  0  0  0  0  0  0  0
    5.3214   -4.8124   -2.4694 Cl  0  0  0  0  0  0  0  0  0  0  0  0
   -1.9982   -3.4077   -0.0906 C   0  0  2  0  0  0  0  0  0  0  0  0
   -1.5517   -4.2302    1.0174 O   0  0  0  0  0  0  0  0  0  0  0  0
   -2.7021   -4.8087    1.7364 C   0  0  1  0  0  0  0  0  0  0  0  0
   -3.5968   -5.7264    0.8601 C   0  0  2  0  0  0  0  0  0  0  0  0
   -4.0053   -4.9743   -0.4185 C   0  0  1  0  0  0  0  0  0  0  0  0
   -2.7809   -4.2776   -1.1472 C   0  0  1  0  0  0  0  0  0  0  0  0
   -3.2908   -3.4950   -2.2300 O   0  0  0  0  0  0  0  0  0  0  0  0
   -4.7102   -5.8428   -1.3200 O   0  0  0  0  0  0  0  0  0  0  0  0
   -2.2000   -5.6419    2.9270 C   0  0  0  0  0  0  0  0  0  0  0  0
   -1.3277   -4.8756    3.7468 O   0  0  0  0  0  0  0  0  0  0  0  0
   -4.7551   -6.1057    1.6427 O   0  0  0  0  0  0  0  0  0  0  0  0
   -5.3696   -7.3296    1.2417 C   0  0  0  0  0  0  0  0  0  0  0  0
    1.1431    2.8236    0.2770 O   0  0  0  0  0  0  0  0  0  0  0  0
    4.8949    0.5631    0.2579 O   0  0  0  0  0  0  0  0  0  0  0  0
  1  2  2  0
  2  3  1  0
  3  4  2  0
  4 24  1  0
  4  6  1  0
  5  6  2  0
  5  1  1  0
  6  7  1  0
  7  9  1  0
  8  9  2  0
  8  5  1  0
  9 11  1  0
 10 20  1  0
 10 11  2  0
 11 12  1  0
 12 14  1  0
 13 10  1  0
 13 14  2  0
 14 15  1  0
 15 25  1  0
 15 16  2  0
 16 17  1  0
 17 18  2  0
 18 13  1  0
 19 20  2  0
 19  8  1  0
 20 21  1  0
 21 22  1  0
 21 39  2  0
 22 23  1  0
 23 19  1  0
 23 38  2  0
 26  7  1  6
 26 27  1  0
 26 31  1  0
 27 28  1  0
 28 29  1  0
 28 34  1  1
 29 30  1  0
 29 36  1  1
 30 31  1  0
 30 33  1  6
 31 32  1  6
 34 35  1  0
 36 37  1  0
M  END
>  <DRUGBANK_ID>  (1) 
DB14729

>  <COMMON_NAME>  (1) 
Rebeccamycin

>  <CAS_NUMBER>  (1) 
93908-02-2

>  <UNII>  (1) 
Y96MQM21V9

$$$$
