
     RDKit          3D

 28 30  0  0  0  0  0  0  0  0999 V2000
   -0.7230    1.1407   -0.0045 C   0  0  0  0  0  0  0  0  0  0  0  0
    1.4211    0.0549   -0.0404 C   0  0  0  0  0  0  0  0  0  0  0  0
    0.6712    1.2252    0.0087 C   0  0  0  0  0  0  0  0  0  0  0  0
    0.7308   -1.1514   -0.1435 C   0  0  0  0  0  0  0  0  0  0  0  0
   -1.3827   -0.0558   -0.0156 N   0  0  0  0  0  0  0  0  0  0  0  0
   -0.6454   -1.1823   -0.0601 C   0  0  0  0  0  0  0  0  0  0  0  0
    2.9267    0.0868    0.0041 C   0  0  0  0  0  0  0  0  0  0  0  0
    3.5481   -0.6099    1.1969 C   0  0  0  0  0  0  0  0  0  0  0  0
    3.9771   -2.6573    2.4556 C   0  0  0  0  0  0  0  0  0  0  0  0
    3.3232   -1.9731    1.4451 C   0  0  0  0  0  0  0  0  0  0  0  0
    4.9293   -1.9975    3.2196 C   0  0  0  0  0  0  0  0  0  0  0  0
    4.4697    0.0603    2.0041 C   0  0  0  0  0  0  0  0  0  0  0  0
    5.1962   -0.6447    2.9651 C   0  0  0  0  0  0  0  0  0  0  0  0
    5.6524   -2.7368    4.3067 C   0  0  0  0  0  0  0  0  0  0  0  0
    7.1335   -2.8359    4.0411 C   0  0  0  0  0  0  0  0  0  0  0  0
    7.9090   -2.2522    4.9814 O   0  0  0  0  0  0  0  0  0  0  0  0
    7.6188   -3.3874    3.0562 O   0  0  0  0  0  0  0  0  0  0  0  0
   -1.3556   -2.4557    0.0231 C   0  0  0  0  0  0  0  0  0  0  0  0
   -1.5424    2.4179   -0.0125 C   0  0  0  0  0  0  0  0  0  0  0  0
   -2.3415    2.5262   -1.1117 F   0  0  0  0  0  0  0  0  0  0  0  0
   -2.3594    2.5367    1.0709 F   0  0  0  0  0  0  0  0  0  0  0  0
   -0.7721    3.5479   -0.0135 F   0  0  0  0  0  0  0  0  0  0  0  0
   -1.8643   -4.5200    1.1995 C   0  0  0  0  0  0  0  0  0  0  0  0
   -1.1325   -3.3388    1.0970 C   0  0  0  0  0  0  0  0  0  0  0  0
   -2.8194   -4.8403    0.2387 C   0  0  0  0  0  0  0  0  0  0  0  0
   -2.2858   -2.8113   -0.9596 C   0  0  0  0  0  0  0  0  0  0  0  0
   -3.0420   -3.9754   -0.8324 C   0  0  0  0  0  0  0  0  0  0  0  0
   -1.6213   -5.5619    2.5478 Cl  0  0  0  0  0  0  0  0  0  0  0  0
  1  5  2  0
  1 19  1  0
  2  3  2  0
  2  7  1  0
  3  1  1  0
  4  2  1  0
  5  6  1  0
  6  4  2  0
  6 18  1  0
  7  8  1  0
  8 12  2  0
  9 10  2  0
 10  8  1  0
 11  9  1  0
 11 14  1  0
 12 13  1  0
 13 11  2  0
 14 15  1  0
 15 16  1  0
 15 17  2  0
 18 26  2  0
 19 20  1  0
 19 21  1  0
 19 22  1  0
 23 24  2  0
 23 28  1  0
 24 18  1  0
 25 23  1  0
 26 27  1  0
 27 25  2  0
M  END
>  <DRUGBANK_ID>  (1) 
DB14790

>  <COMMON_NAME>  (1) 
Zatolmilast

>  <CAS_NUMBER>  (1) 
1606974-33-7

>  <UNII>  (1) 
G786V328X6

>  <SYNONYMS>  (1) 
Zatolmilast

$$$$
