
     RDKit          3D

 24 24  0  0  0  0  0  0  0  0999 V2000
    1.5064    1.0496   -0.1363 C   0  0  0  0  0  0  0  0  0  0  0  0
    0.2376    1.8378    0.1361 C   0  0  0  0  0  0  0  0  0  0  0  0
   -0.9277    1.1546   -0.5466 C   0  0  0  0  0  0  0  0  0  0  0  0
   -1.1723   -0.2883   -0.0142 C   0  0  0  0  0  0  0  0  0  0  0  0
    0.1539   -1.0805    0.1358 C   0  0  0  0  0  0  0  0  0  0  0  0
    1.3618   -0.4563    0.0220 C   0  0  0  0  0  0  0  0  0  0  0  0
    0.0872   -2.5312    0.3860 C   0  0  0  0  0  0  0  0  0  0  0  0
   -0.9835   -3.3085    0.6189 C   0  0  0  0  0  0  0  0  0  0  0  0
   -1.0105   -4.7530    0.7998 C   0  0  0  0  0  0  0  0  0  0  0  0
    0.1088   -5.4950    0.9195 C   0  0  0  0  0  0  0  0  0  0  0  0
    0.1151   -6.9185    1.1481 C   0  0  0  0  0  0  0  0  0  0  0  0
    1.2164   -7.6771    1.2944 C   0  0  0  0  0  0  0  0  0  0  0  0
    1.1751   -9.1295    1.5479 C   0  0  0  0  0  0  0  0  0  0  0  0
    2.3126   -9.8543    1.6883 C   0  0  0  0  0  0  0  0  0  0  0  0
    2.3146  -11.3321    1.9397 C   0  0  0  0  0  0  0  0  0  0  0  0
    3.5318  -11.9519    2.0576 N   0  0  0  0  0  0  0  0  0  0  0  0
    2.7250   -1.1189    0.0166 C   0  0  0  0  0  0  0  0  0  0  0  0
   -2.1296   -0.9041   -1.0714 C   0  0  0  0  0  0  0  0  0  0  0  0
   -1.8593   -0.1785    1.3671 C   0  0  0  0  0  0  0  0  0  0  0  0
   -2.4000   -5.3592    0.8645 C   0  0  0  0  0  0  0  0  0  0  0  0
   -0.2253   -9.7078    1.6330 C   0  0  0  0  0  0  0  0  0  0  0  0
    1.2852  -11.9943    2.0406 O   0  0  0  0  0  0  0  0  0  0  0  0
    3.5642  -13.3891    2.3099 C   0  0  0  0  0  0  0  0  0  0  0  0
    4.2530  -14.1440    1.1922 C   0  0  0  0  0  0  0  0  0  0  0  0
  1  2  1  0
  1  6  1  0
  2  3  1  0
  3  4  1  0
  4 18  1  0
  4 19  1  0
  4  5  1  0
  5  6  2  0
  5  7  1  0
  6 17  1  0
  7  8  2  0
  8  9  1  0
  9 20  1  0
  9 10  2  0
 10 11  1  0
 11 12  2  0
 12 13  1  0
 13 14  2  0
 13 21  1  0
 14 15  1  0
 15 16  1  0
 15 22  2  0
 16 23  1  0
 23 24  1  0
M  END
>  <DRUGBANK_ID>  (1) 
DB03917

>  <SECONDARY_ACCESSION_NUMBERS>  (1) 
EXPT01372

>  <COMMON_NAME>  (1) 
N-Ethylretinamide

>  <CAS_NUMBER>  (1) 
33631-41-3

>  <UNII>  (1) 
6LM987K76Y

>  <SYNONYMS>  (1) 
all-trans-N-Ethylretinamide; Ethyl retinamide; Vitamin A acid ethylamide

$$$$
