MP2
     RDKit          3D

 21 21  0  0  0  0  0  0  0  0999 V2000
    1.1696    0.0586    0.3034 O   0  0  0  0  0  0  0  0  0  0  0  0
    2.4058   -0.0157    0.2936 C   0  0  0  0  0  0  0  0  0  0  0  0
    3.1020    0.9688    0.9647 N   0  0  0  0  0  0  0  0  0  0  0  0
    4.5490    1.2569    1.2237 C   0  0  1  0  0  0  0  0  0  0  0  0
    5.1858    2.5887    0.6985 C   0  0  0  0  0  0  0  0  0  0  0  0
    4.7596    4.3732    0.8501 S   0  0  0  0  0  0  0  0  0  0  0  0
    5.0017    1.0137    2.6397 C   0  0  0  0  0  0  0  0  0  0  0  0
    5.7425    0.0720    2.9244 O   0  0  0  0  0  0  0  0  0  0  0  0
    4.6305    1.9298    3.5751 N   0  0  0  0  0  0  0  0  0  0  0  0
    3.7399    3.0405    3.3388 C   0  0  0  0  0  0  0  0  0  0  0  0
    2.4098    3.0920    4.0094 C   0  0  0  0  0  0  0  0  0  0  0  0
    2.1437    4.2722    4.5903 O   0  0  0  0  0  0  0  0  0  0  0  0
    1.5828    2.1737    3.9122 O   0  0  0  0  0  0  0  0  0  0  0  0
    2.9941   -0.9663   -0.4769 O   0  0  0  0  0  0  0  0  0  0  0  0
    4.3660   -0.9776   -0.9034 C   0  0  0  0  0  0  0  0  0  0  0  0
    4.7549    0.2442   -1.7514 C   0  0  0  0  0  0  0  0  0  0  0  0
    3.9121    1.3707   -1.8957 C   0  0  0  0  0  0  0  0  0  0  0  0
    4.3888    2.6258   -2.3145 C   0  0  0  0  0  0  0  0  0  0  0  0
    5.7310    2.7745   -2.6192 C   0  0  0  0  0  0  0  0  0  0  0  0
    6.5449    1.6421   -2.6416 C   0  0  0  0  0  0  0  0  0  0  0  0
    6.0568    0.3797   -2.2469 C   0  0  0  0  0  0  0  0  0  0  0  0
  1  2  2  0
  2  3  1  0
  2 14  1  0
  4  3  1  0
  4  5  1  1
  4  7  1  0
  5  6  1  0
  7  8  2  0
  7  9  1  0
  9 10  1  0
 10 11  1  0
 11 12  1  0
 11 13  2  0
 14 15  1  0
 15 16  1  0
 16 17  2  0
 16 21  1  0
 17 18  1  0
 18 19  2  0
 19 20  1  0
 20 21  2  0
M  END
>  <DRUGBANK_ID>  (1) 
DB08199

>  <COMMON_NAME>  (1) 
N-[(BENZYLOXY)CARBONYL]-L-CYSTEINYLGLYCINE

$$$$
