
     RDKit          3D

 11 10  0  0  0  0  0  0  0  0999 V2000
    1.1638   -0.0589    0.0308 C   0  0  0  0  0  0  0  0  0  0  0  0
    0.6841   -0.3505    1.4540 C   0  0  0  0  0  0  0  0  0  0  0  0
    1.0059    0.8076    2.3957 C   0  0  0  0  0  0  0  0  0  0  0  0
    0.3674    2.1330    1.9602 C   0  0  0  0  0  0  0  0  0  0  0  0
   -1.0794    2.0479    1.9657 O   0  0  0  0  0  0  0  0  0  0  0  0
   -1.7250    1.4511    0.9277 C   0  0  0  0  0  0  0  0  0  0  0  0
   -1.2415    1.0357   -0.1165 O   0  0  0  0  0  0  0  0  0  0  0  0
   -3.1565    1.2900    1.1436 C   0  0  0  0  0  0  0  0  0  0  0  0
   -3.8356    2.1099    1.9660 C   0  0  0  0  0  0  0  0  0  0  0  0
   -3.9165    0.3305    0.2424 C   0  0  0  0  0  0  0  0  0  0  0  0
   -4.5470   -0.4655   -0.5052 N   0  0  0  0  0  0  0  0  0  0  0  0
  1  2  1  0
  2  3  1  0
  3  4  1  0
  4  5  1  0
  5  6  1  0
  6  7  2  0
  6  8  1  0
  8  9  2  0
  8 10  1  0
 10 11  3  0
M  END
>  <DRUGBANK_ID>  (1) 
DB12358

>  <COMMON_NAME>  (1) 
Enbucrilate

>  <CAS_NUMBER>  (1) 
6606-65-1

>  <UNII>  (1) 
F8CEP82QNP

>  <SYNONYMS>  (1) 
Butyl 2-cyanoacrylate; Enbucrilate; N-butyl cyanoacrylate; N-butyl-2-cyanoacrylate

$$$$
