
     RDKit          3D

 22 24  0  0  0  0  0  0  0  0999 V2000
    1.0254   -0.1077   -0.1163 C   0  0  0  0  0  0  0  0  0  0  0  0
    0.4613   -0.4877    1.2597 C   0  0  0  0  0  0  0  0  0  0  0  0
   -0.8055   10.1901   -0.5764 C   0  0  0  0  0  0  0  0  0  0  0  0
   -2.1684    9.9050   -0.3649 C   0  0  0  0  0  0  0  0  0  0  0  0
    0.1838    9.2349   -0.3155 C   0  0  0  0  0  0  0  0  0  0  0  0
   -2.5660    8.6608    0.1207 C   0  0  0  0  0  0  0  0  0  0  0  0
   -0.5262    2.2431    1.1030 C   0  0  0  0  0  0  0  0  0  0  0  0
    0.9219    2.9879    2.8767 C   0  0  0  0  0  0  0  0  0  0  0  0
   -0.7380    3.5500    0.7024 C   0  0  0  0  0  0  0  0  0  0  0  0
    0.7135    4.3086    2.4769 C   0  0  0  0  0  0  0  0  0  0  0  0
    0.6071    6.8206    0.5607 C   0  0  0  0  0  0  0  0  0  0  0  0
    0.3773    1.9344    2.1311 C   0  0  0  0  0  0  0  0  0  0  0  0
   -0.2144    8.0080    0.1784 C   0  0  0  0  0  0  0  0  0  0  0  0
   -0.1127    4.5820    1.3871 C   0  0  0  0  0  0  0  0  0  0  0  0
    0.8488    0.5072    2.3763 C   0  0  0  0  0  0  0  0  0  0  0  0
   -1.5690    7.7447    0.3908 C   0  0  0  0  0  0  0  0  0  0  0  0
   -1.6918    6.3956    0.9385 C   0  0  0  0  0  0  0  0  0  0  0  0
    0.4081   -0.0097    3.7326 C   0  0  0  0  0  0  0  0  0  0  0  0
   -0.4024    5.8972    1.0322 N   0  0  0  0  0  0  0  0  0  0  0  0
   -2.7515    5.8860    1.2720 O   0  0  0  0  0  0  0  0  0  0  0  0
    1.1500   -0.3198    4.6532 O   0  0  0  0  0  0  0  0  0  0  0  0
   -0.9305   -0.0836    3.8729 O   0  0  0  0  0  0  0  0  0  0  0  0
  2  1  1  0
  4  3  2  0
  5  3  1  0
  6  4  1  0
  9  7  2  0
 10  8  1  0
 12  7  1  0
 12  8  2  0
 13  5  2  0
 13 11  1  0
 14  9  1  0
 14 10  2  0
 15  2  1  0
 15 12  1  0
 16  6  2  0
 16 13  1  0
 17 16  1  0
 18 15  1  0
 19 11  1  0
 19 14  1  0
 19 17  1  0
 20 17  2  0
 21 18  2  0
 22 18  1  0
M  END
>  <DRUGBANK_ID>  (1) 
DB12545

>  <COMMON_NAME>  (1) 
Indobufen

>  <CAS_NUMBER>  (1) 
63610-08-2

>  <UNII>  (1) 
6T9949G4LZ

>  <SYNONYMS>  (1) 
Indobufen

$$$$
