
     RDKit          3D

 21 22  0  0  0  0  0  0  0  0999 V2000
    2.5265   -0.1166   -0.0038 C   0  0  0  0  0  0  0  0  0  0  0  0
   -1.8184    0.0637    0.0485 C   0  0  0  0  0  0  0  0  0  0  0  0
   -1.2007   -6.0472   -0.0382 C   0  0  0  0  0  0  0  0  0  0  0  0
   -1.3455   -5.1766   -1.1158 C   0  0  0  0  0  0  0  0  0  0  0  0
   -1.0835    1.2351    0.0114 C   0  0  0  0  0  0  0  0  0  0  0  0
   -1.1433   -1.1384    0.1329 C   0  0  0  0  0  0  0  0  0  0  0  0
   -0.2861   -5.7230    0.9459 C   0  0  0  0  0  0  0  0  0  0  0  0
    1.0229   -0.0117    0.0530 C   0  0  0  0  0  0  0  0  0  0  0  0
   -0.5935   -3.9967   -1.1675 C   0  0  0  0  0  0  0  0  0  0  0  0
    0.3346    1.2269    0.0217 C   0  0  0  0  0  0  0  0  0  0  0  0
    0.2670   -1.2098    0.1135 C   0  0  0  0  0  0  0  0  0  0  0  0
    0.2689   -3.7192   -0.0936 C   0  0  0  0  0  0  0  0  0  0  0  0
   -0.7030   -3.0665   -2.3323 C   0  0  0  0  0  0  0  0  0  0  0  0
    0.9812    2.5965   -0.0008 C   0  0  0  0  0  0  0  0  0  0  0  0
    0.6042    3.3177   -1.0957 F   0  0  0  0  0  0  0  0  0  0  0  0
    0.6009    3.3419    1.0777 F   0  0  0  0  0  0  0  0  0  0  0  0
    2.3372    2.6448    0.0034 F   0  0  0  0  0  0  0  0  0  0  0  0
    0.4604   -4.5971    0.9277 N   0  0  0  0  0  0  0  0  0  0  0  0
    0.8917   -2.4753    0.0499 N   0  0  0  0  0  0  0  0  0  0  0  0
   -0.0240   -2.0880   -2.6005 O   0  0  0  0  0  0  0  0  0  0  0  0
   -1.6972   -3.3979   -3.1766 O   0  0  0  0  0  0  0  0  0  0  0  0
  4  3  2  0
  5  2  2  0
  6  2  1  0
  7  3  1  0
  8  1  1  0
  9  4  1  0
 10  5  1  0
 10  8  2  0
 11  6  2  0
 11  8  1  0
 12  9  2  0
 13  9  1  0
 14 10  1  0
 15 14  1  0
 16 14  1  0
 17 14  1  0
 18  7  2  0
 18 12  1  0
 19 11  1  0
 19 12  1  0
 20 13  2  0
 21 13  1  0
M  END
>  <DRUGBANK_ID>  (1) 
DB11518

>  <COMMON_NAME>  (1) 
Flunixin

>  <CAS_NUMBER>  (1) 
38677-85-9

>  <UNII>  (1) 
356IB1O400

>  <SYNONYMS>  (1) 
2-((2-methyl-3-(trifluoromethyl)phenyl)amino)-3-pyridinecarboxylic acid; Flunixin; Flunixine; Flunixino; Flunixinum

$$$$
