
     RDKit          3D

 27 30  0  0  0  0  0  0  0  0999 V2000
    1.4449   -0.3214    0.0139 C   0  0  0  0  0  0  0  0  0  0  0  0
   -4.0007    2.5082   -3.9228 C   0  0  0  0  0  0  0  0  0  0  0  0
    2.1495    5.9756    1.7538 C   0  0  0  0  0  0  0  0  0  0  0  0
    0.5222   -1.3685    0.0426 C   0  0  0  0  0  0  0  0  0  0  0  0
    0.9953    0.9778   -0.1414 C   0  0  0  0  0  0  0  0  0  0  0  0
   -3.1642    1.3940   -3.9500 C   0  0  0  0  0  0  0  0  0  0  0  0
   -4.4277    3.0137   -2.7077 C   0  0  0  0  0  0  0  0  0  0  0  0
    1.3245    4.9068    2.4370 C   0  0  0  0  0  0  0  0  0  0  0  0
    1.6979    7.3586    2.2332 C   0  0  0  0  0  0  0  0  0  0  0  0
   -0.8587   -1.1135   -0.0018 C   0  0  0  0  0  0  0  0  0  0  0  0
   -0.3675    1.2088   -0.2864 C   0  0  0  0  0  0  0  0  0  0  0  0
   -2.7669    0.7749   -2.7590 C   0  0  0  0  0  0  0  0  0  0  0  0
   -4.0277    2.3972   -1.5291 C   0  0  0  0  0  0  0  0  0  0  0  0
   -2.6785    6.0882    1.0844 C   0  0  0  0  0  0  0  0  0  0  0  0
   -0.1219    5.2981    2.3139 C   0  0  0  0  0  0  0  0  0  0  0  0
    0.1922    7.6226    2.0124 C   0  0  0  0  0  0  0  0  0  0  0  0
   -2.0817    6.7053    2.3983 C   0  0  0  0  0  0  0  0  0  0  0  0
   -3.4687    1.1586    1.1111 C   0  0  0  0  0  0  0  0  0  0  0  0
   -1.3322    0.1986   -0.1374 C   0  0  0  0  0  0  0  0  0  0  0  0
   -3.2040    1.2633   -1.5154 C   0  0  0  0  0  0  0  0  0  0  0  0
   -2.8370    0.5356   -0.2077 C   0  0  0  0  0  0  0  0  0  0  0  0
   -2.9870    2.5272    1.4526 C   0  0  0  0  0  0  0  0  0  0  0  0
   -2.7671    4.5882    1.1071 C   0  0  0  0  0  0  0  0  0  0  0  0
   -3.7208    3.7173    1.3687 N   0  0  0  0  0  0  0  0  0  0  0  0
   -1.6893    2.7310    1.5252 N   0  0  0  0  0  0  0  0  0  0  0  0
   -0.6143    6.6102    2.7010 N   0  0  0  0  0  0  0  0  0  0  0  0
   -1.5902    3.9484    0.8678 O   0  0  0  0  0  0  0  0  0  0  0  0
  4  1  2  0
  5  1  1  0
  6  2  2  0
  7  2  1  0
  8  3  1  0
  9  3  1  0
 10  4  1  0
 11  5  2  0
 12  6  1  0
 13  7  2  0
 15  8  1  0
 16  9  1  0
 17 14  1  0
 19 10  2  0
 19 11  1  0
 20 12  2  0
 20 13  1  0
 21 18  1  0
 21 19  1  0
 21 20  1  0
 22 18  1  0
 23 14  1  0
 24 22  1  0
 24 23  2  0
 25 22  2  0
 26 15  1  0
 26 16  1  0
 26 17  1  0
 27 23  1  0
 27 25  1  0
M  END
>  <DRUGBANK_ID>  (1) 
DB13397

>  <COMMON_NAME>  (1) 
Prenoxdiazine

>  <CAS_NUMBER>  (1) 
47543-65-7

>  <UNII>  (1) 
S491HH391H

>  <SYNONYMS>  (1) 
Prenoxdiazine

$$$$
