229
     RDKit          3D

 34 37  0  0  1  0  0  0  0  0999 V2000
    1.3273    1.0516    0.5031 S   0  0  0  0  0  0  0  0  0  0  0  0
    2.7165   -3.4716    1.9633 S   0  0  0  0  0  0  0  0  0  0  0  0
    0.1715    3.8905   -4.3833 S   0  0  0  0  0  0  0  0  0  0  0  0
   -2.7056   -0.4576    0.6598 O   0  0  0  0  0  0  0  0  0  0  0  0
   -2.1341   -2.8776   -0.3640 O   0  0  0  0  0  0  0  0  0  0  0  0
   -0.3038   -4.0790    0.0143 O   0  0  0  0  0  0  0  0  0  0  0  0
   -2.1181    4.8261    0.5269 O   0  0  0  0  0  0  0  0  0  0  0  0
   -0.6361   -0.5093   -0.4291 N   0  0  0  0  0  0  0  0  0  0  0  0
   -1.4554    2.6762    0.3030 N   0  0  0  0  0  0  0  0  0  0  0  0
    2.1120   -2.9461    4.6694 N   0  0  0  0  0  0  0  0  0  0  0  0
    0.5567   -5.7200    3.9212 N   0  0  0  0  0  0  0  0  0  0  0  0
   -1.4372    2.3177   -3.1799 N   0  0  0  0  0  0  0  0  0  0  0  0
    1.7315   -1.2566    3.3022 N   0  0  0  0  0  0  0  0  0  0  0  0
    1.7949   -1.8827    5.4482 N   0  0  0  0  0  0  0  0  0  0  0  0
    1.5344   -0.8850    4.6144 N   0  0  0  0  0  0  0  0  0  0  0  0
    0.1169    1.2141   -4.5183 N   0  0  0  0  0  0  0  0  0  0  0  0
    0.0270    0.7627   -0.7130 C   0  0  1  0  0  0  0  0  0  0  0  0
   -1.3573    1.4098   -0.4532 C   0  0  1  0  0  0  0  0  0  0  0  0
   -1.7326    0.0600    0.1178 C   0  0  0  0  0  0  0  0  0  0  0  0
    0.0002   -1.6906   -0.1284 C   0  0  0  0  0  0  0  0  0  0  0  0
    1.3446   -1.6994    0.0958 C   0  0  0  0  0  0  0  0  0  0  0  0
    2.2084   -0.4554    0.0352 C   0  0  0  0  0  0  0  0  0  0  0  0
    2.2214   -2.9122    0.3104 C   0  0  0  0  0  0  0  0  0  0  0  0
   -0.8107   -2.9741   -0.1133 C   0  0  0  0  0  0  0  0  0  0  0  0
   -2.0615    3.8187   -0.1797 C   0  0  0  0  0  0  0  0  0  0  0  0
   -2.6972    3.7886   -1.5743 C   0  0  0  0  0  0  0  0  0  0  0  0
   -1.6833    3.5931   -2.6681 C   0  0  0  0  0  0  0  0  0  0  0  0
    2.2216   -2.4774    3.3335 C   0  0  0  0  0  0  0  0  0  0  0  0
    2.1935   -4.2708    5.3093 C   0  0  0  0  0  0  0  0  0  0  0  0
    0.9695   -5.3068    5.2732 C   0  0  0  0  0  0  0  0  0  0  0  0
   -0.9186    4.5791   -3.2537 C   0  0  0  0  0  0  0  0  0  0  0  0
   -0.4353    2.3295   -4.0219 C   0  0  0  0  0  0  0  0  0  0  0  0
   -0.4914   -6.7057    3.7618 C   0  0  0  0  0  0  0  0  0  0  0  0
    0.0003   -4.5650    3.2630 C   0  0  0  0  0  0  0  0  0  0  0  0
 17  1  1  1
  1 22  1  0
  2 23  1  0
  2 28  1  0
  3 31  1  0
  3 32  1  0
  4 19  2  0
  5 24  1  0
  6 24  2  0
  7 25  2  0
  8 17  1  0
  8 19  1  0
  8 20  1  0
  9 25  1  0
 10 14  1  0
 10 28  1  0
 10 29  1  0
 11 30  1  0
 11 33  1  0
 11 34  1  0
 12 27  1  0
 12 32  2  0
 13 15  1  0
 13 28  2  0
 14 15  2  0
 16 32  1  0
 17 18  1  0
 18  9  1  1
 18 19  1  0
 20 21  2  0
 20 24  1  0
 21 22  1  0
 21 23  1  0
 25 26  1  0
 26 27  1  0
 27 31  2  0
 29 30  1  0
M  END
>  <DRUGBANK_ID>  (1) 
DB00229

>  <SECONDARY_ACCESSION_NUMBERS>  (1) 
APRD00855

>  <COMMON_NAME>  (1) 
Cefotiam

>  <CAS_NUMBER>  (1) 
61622-34-2

>  <UNII>  (1) 
91W6Z2N718

>  <SYNONYMS>  (1) 
(6R,7R)-7-[2-(2-Amino-thiazol-4-yl)-acetylamino]-3-[1-(2-dimethylamino-ethyl)-1H-tetrazol-5-ylsulfanylmethyl]-8-oxo-5-thia-1-aza-bicyclo[4.2.0]oct-2-ene-2-carboxylic acid; Cefotiam; Cefotiamum; CTM

$$$$
