
     RDKit          3D

 37 40  0  0  0  0  0  0  0  0999 V2000
    1.1426    0.0843    0.2564 O   0  0  0  0  0  0  0  0  0  0  0  0
    2.6093    0.0588    0.2259 S   0  0  0  0  0  0  0  0  0  0  0  0
    3.1567    1.7237   -0.1275 C   0  0  0  0  0  0  0  0  0  0  0  0
    2.2643    2.7889   -0.0296 C   0  0  0  0  0  0  0  0  0  0  0  0
    2.7015    4.0814   -0.3247 C   0  0  0  0  0  0  0  0  0  0  0  0
    4.0285    4.3145   -0.7100 C   0  0  0  0  0  0  0  0  0  0  0  0
    4.9519    3.2633   -0.7740 C   0  0  0  0  0  0  0  0  0  0  0  0
    6.2893    3.5356   -1.1990 N   0  0  0  0  0  0  0  0  0  0  0  0
    7.3113    2.5422   -1.2743 C   0  0  0  0  0  0  0  0  0  0  0  0
    7.2070    1.6572   -2.3336 C   0  0  0  0  0  0  0  0  0  0  0  0
    6.1999    1.7743   -3.4369 C   0  0  0  0  0  0  0  0  0  0  0  0
    8.1070    0.6310   -2.2815 C   0  0  0  0  0  0  0  0  0  0  0  0
    9.0150    0.4672   -1.2832 N   0  0  0  0  0  0  0  0  0  0  0  0
    9.1138    1.3663   -0.2933 C   0  0  0  0  0  0  0  0  0  0  0  0
   10.0007    1.1804    0.8563 N   0  0  0  0  0  0  0  0  0  0  0  0
   11.2529    0.4883    1.1082 C   0  0  0  0  0  0  0  0  0  0  0  0
   12.4766    0.7732    0.4661 C   0  0  0  0  0  0  0  0  0  0  0  0
   13.6316   -0.2161    0.4225 C   0  0  0  0  0  0  0  0  0  0  0  0
   13.5524   -1.4843    0.9752 C   0  0  0  0  0  0  0  0  0  0  0  0
   14.1532   -2.6353    0.4335 O   0  0  0  0  0  0  0  0  0  0  0  0
   14.7599   -2.7786   -0.9372 C   0  0  0  0  0  0  0  0  0  0  0  0
   13.9208   -3.1248   -2.2838 C   0  0  0  0  0  0  0  0  0  0  0  0
   12.7258   -2.4244   -2.7773 N   0  0  0  0  0  0  0  0  0  0  0  0
   12.8041   -1.0546   -3.3462 C   0  0  0  0  0  0  0  0  0  0  0  0
   12.7006   -0.1164   -2.2149 C   0  0  0  0  0  0  0  0  0  0  0  0
   11.6956   -0.9737   -1.4148 C   0  0  0  0  0  0  0  0  0  0  0  0
   11.8321   -2.4222   -1.6503 C   0  0  0  0  0  0  0  0  0  0  0  0
   12.4870   -1.6138    1.8862 C   0  0  0  0  0  0  0  0  0  0  0  0
   11.3500   -0.6647    1.9246 C   0  0  0  0  0  0  0  0  0  0  0  0
    8.2677    2.4348   -0.2886 N   0  0  0  0  0  0  0  0  0  0  0  0
    4.4791    1.9559   -0.5353 C   0  0  0  0  0  0  0  0  0  0  0  0
    3.3531   -0.3876    1.3604 O   0  0  0  0  0  0  0  0  0  0  0  0
    3.0877   -0.8877   -1.1050 N   0  0  0  0  0  0  0  0  0  0  0  0
    2.5552   -0.7022   -2.4837 C   0  0  0  0  0  0  0  0  0  0  0  0
    2.9913    0.6490   -2.9972 C   0  0  0  0  0  0  0  0  0  0  0  0
    3.1542   -1.7633   -3.4286 C   0  0  0  0  0  0  0  0  0  0  0  0
    1.0391   -0.7830   -2.5406 C   0  0  0  0  0  0  0  0  0  0  0  0
  2  1  2  0
  2 32  2  0
  3  2  1  0
  3  4  2  0
  3 31  1  0
  5  4  1  0
  6  5  2  0
  7  6  1  0
  8  7  1  0
  9  8  1  0
  9 10  2  0
 10 12  1  0
 11 10  1  0
 13 12  2  0
 13 14  1  0
 14 30  2  0
 15 14  1  0
 16 15  1  0
 16 17  2  0
 16 29  1  0
 18 17  1  0
 19 18  2  0
 20 19  1  0
 21 20  1  0
 21 22  1  0
 23 22  1  0
 23 24  1  0
 23 27  1  0
 25 24  1  0
 26 25  1  0
 27 26  1  0
 28 19  1  0
 29 28  2  0
 30  9  1  0
 31  7  2  0
 33  2  1  0
 34 33  1  0
 34 35  1  0
 34 36  1  0
 34 37  1  0
M  END
>  <DRUGBANK_ID>  (1) 
DB12500

>  <SECONDARY_ACCESSION_NUMBERS>  (1) 
DB06165

>  <COMMON_NAME>  (1) 
Fedratinib

>  <CAS_NUMBER>  (1) 
936091-26-8

>  <UNII>  (1) 
6L1XP550I6

>  <SYNONYMS>  (1) 
Fedratinib

$$$$
