84098
     RDKit          3D

 24 26  0  0  0  0  0  0  0  0999 V2000
    0.1353   -0.1462    0.0045 S   0  0  0  0  0  0  0  0  0  0  0  0
   -2.9978    4.1099   -2.6701 F   0  0  0  0  0  0  0  0  0  0  0  0
   -1.3104    4.0557   -4.0502 F   0  0  0  0  0  0  0  0  0  0  0  0
   -2.3707    2.2270   -3.5579 F   0  0  0  0  0  0  0  0  0  0  0  0
    3.4620   -0.7497    2.1580 O   0  0  0  0  0  0  0  0  0  0  0  0
    2.5525    3.6096    1.7322 O   0  0  0  0  0  0  0  0  0  0  0  0
   -0.5008   -0.9043   -1.0807 O   0  0  0  0  0  0  0  0  0  0  0  0
   -0.0761   -0.3622    1.3936 O   0  0  0  0  0  0  0  0  0  0  0  0
    2.7164   -0.4767    3.3053 N   0  0  0  0  0  0  0  0  0  0  0  0
    4.0649    0.2353   -0.3545 C   0  0  0  0  0  0  0  0  0  0  0  0
    4.7613    1.2058   -1.2336 C   0  0  0  0  0  0  0  0  0  0  0  0
    3.3254    1.3280   -1.4306 C   0  0  0  0  0  0  0  0  0  0  0  0
    3.5307    0.3789    1.3200 C   0  0  0  0  0  0  0  0  0  0  0  0
    2.6393    1.3181    1.8855 C   0  0  0  0  0  0  0  0  0  0  0  0
    2.0699    2.5486    1.3388 C   0  0  0  0  0  0  0  0  0  0  0  0
    2.2929    0.7785    3.1626 C   0  0  0  0  0  0  0  0  0  0  0  0
    0.8937    2.6306    0.2954 C   0  0  0  0  0  0  0  0  0  0  0  0
    0.0969    1.6121   -0.3195 C   0  0  0  0  0  0  0  0  0  0  0  0
    0.6621    3.9448   -0.2198 C   0  0  0  0  0  0  0  0  0  0  0  0
   -0.7400    1.8861   -1.4119 C   0  0  0  0  0  0  0  0  0  0  0  0
   -0.9659    3.1736   -1.8635 C   0  0  0  0  0  0  0  0  0  0  0  0
   -0.3055    4.2149   -1.2163 C   0  0  0  0  0  0  0  0  0  0  0  0
    1.7197   -0.4976   -0.3769 C   0  0  0  0  0  0  0  0  0  0  0  0
   -1.9032    3.3911   -3.0240 C   0  0  0  0  0  0  0  0  0  0  0  0
  1  7  2  0
  1  8  2  0
  1 18  1  0
  1 23  1  0
  2 24  1  0
  3 24  1  0
  4 24  1  0
  5  9  1  0
  5 13  1  0
  6 15  2  0
  9 16  2  0
 10 11  1  0
 10 12  1  0
 10 13  1  0
 11 12  1  0
 13 14  2  0
 14 15  1  0
 14 16  1  0
 15 17  1  0
 17 18  2  0
 17 19  1  0
 18 20  1  0
 19 22  2  0
 20 21  2  0
 21 22  1  0
 21 24  1  0
M  END
>  <DRUGBANK_ID>  (1) 
DB12938

>  <COMMON_NAME>  (1) 
Isoxaflutole

>  <CAS_NUMBER>  (1) 
141112-29-0

>  <UNII>  (1) 
0T9R0O0EYT

>  <SYNONYMS>  (1) 
Balance; Merlin

$$$$
