
     RDKit          3D

 23 22  0  0  1  0  0  0  0  0999 V2000
    1.0565   -0.0461   -0.0684 C   0  0  0  0  0  0  0  0  0  0  0  0
    0.4065   -0.7032    1.6487 As  0  0  0  0  0  3  0  0  0  0  0  0
   -1.5435   -0.7032    1.6487 C   0  0  0  0  0  0  0  0  0  0  0  0
    1.1532   -2.7887    1.9812 S   0  0  0  0  0  0  0  0  0  0  0  0
    0.5498   -3.3986    3.5750 C   0  0  0  0  0  0  0  0  0  0  0  0
    1.0565   -2.4955    4.6878 C   0  0  1  0  0  0  0  0  0  0  0  0
    0.5498   -1.0804    4.4621 C   0  0  0  0  0  0  0  0  0  0  0  0
   -0.1808   -0.5198    5.3379 O   0  0  0  0  0  0  0  0  0  0  0  0
    0.9050   -0.3601    3.2308 N   0  0  0  0  0  0  0  0  0  0  0  0
    1.7501   -1.0085    2.2178 C   0  0  0  0  0  0  0  0  0  0  0  0
    0.9901   -1.0957    0.9043 C   0  0  0  0  0  0  0  0  0  0  0  0
    1.4506   -0.5278   -0.1352 O   0  0  0  0  0  0  0  0  0  0  0  0
   -0.2345   -1.8116    0.8387 O   0  0  0  0  0  0  0  0  0  0  0  0
    0.5665   -2.9909    5.9822 N   0  0  0  0  0  0  0  0  0  0  0  0
    1.5218   -3.3902    7.0257 C   0  0  0  0  0  0  0  0  0  0  0  0
    1.0981   -3.8184    8.1448 O   0  0  0  0  0  0  0  0  0  0  0  0
    3.0162   -3.2909    6.7663 C   0  0  0  0  0  0  0  0  0  0  0  0
    3.3834   -4.1652    5.5783 C   0  0  0  0  0  0  0  0  0  0  0  0
    2.6234   -3.6947    4.3489 C   0  0  1  0  0  0  0  0  0  0  0  0
    2.9906   -2.2507    4.0480 C   0  0  0  0  0  0  0  0  0  0  0  0
    3.5201   -1.9489    2.9328 O   0  0  0  0  0  0  0  0  0  0  0  0
    2.7420   -1.2391    5.0130 O   0  0  0  0  0  0  0  0  0  0  0  0
    2.9785   -4.5402    3.2000 N   0  0  0  0  0  0  0  0  0  0  0  0
  1  2  1  0
  2  3  1  0
  2  4  1  0
  4  5  1  0
  6  5  1  6
  6  7  1  0
  6 14  1  0
  7  8  2  0
  7  9  1  0
  9 10  1  0
 10 11  1  0
 11 12  2  0
 11 13  1  0
 14 15  1  0
 15 16  2  0
 15 17  1  0
 17 18  1  0
 18 19  1  0
 19 20  1  0
 19 23  1  6
 20 21  2  0
 20 22  1  0
M  END
>  <DRUGBANK_ID>  (1) 
DB06179

>  <COMMON_NAME>  (1) 
Darinaparsin

>  <CAS_NUMBER>  (1) 
69819-86-9

>  <UNII>  (1) 
9XX54M675G

>  <SYNONYMS>  (1) 
Darinaparsin

$$$$
