
     RDKit          3D

 16 18  0  0  1  0  0  0  0  0999 V2000
    1.0718    0.0418    0.1123 O   0  0  0  0  0  0  0  0  0  0  0  0
    0.5605   -1.2843    0.2358 C   0  0  0  0  0  0  0  0  0  0  0  0
    1.0434   -2.2041   -0.8939 C   0  0  1  0  0  0  0  0  0  0  0  0
    0.2555   -3.4182   -0.9915 O   0  0  0  0  0  0  0  0  0  0  0  0
   -0.3063   -3.5099   -2.3165 C   0  0  2  0  0  0  0  0  0  0  0  0
   -0.1844   -2.1313   -2.9489 C   0  0  1  0  0  0  0  0  0  0  0  0
   -1.4234   -1.4697   -2.6322 O   0  0  0  0  0  0  0  0  0  0  0  0
   -2.3457   -2.4613   -2.4522 C   0  0  0  0  0  0  0  0  0  0  0  0
   -3.6096   -2.2233   -2.4655 N   0  0  0  0  0  0  0  0  0  0  0  0
   -4.4496   -3.3099   -2.3240 C   0  0  0  0  0  0  0  0  0  0  0  0
   -5.6762   -3.2207   -2.3129 O   0  0  0  0  0  0  0  0  0  0  0  0
   -3.8453   -4.6761   -2.2073 C   0  0  0  0  0  0  0  0  0  0  0  0
   -2.5104   -4.7924   -2.1949 C   0  0  0  0  0  0  0  0  0  0  0  0
   -1.7338   -3.6703   -2.2945 N   0  0  0  0  0  0  0  0  0  0  0  0
    1.0121   -1.5265   -2.2612 C   0  0  2  0  0  0  0  0  0  0  0  0
    2.2080   -1.8625   -2.9827 O   0  0  0  0  0  0  0  0  0  0  0  0
  1  2  1  0
  3  2  1  1
  3  4  1  0
  3 15  1  0
  5  4  1  1
  5  6  1  0
  5 14  1  0
  6  7  1  1
  6 15  1  0
  7  8  1  0
  8  9  2  0
  8 14  1  0
  9 10  1  0
 10 11  2  0
 10 12  1  0
 12 13  2  0
 13 14  1  0
 15 16  1  6
M  END
>  <DRUGBANK_ID>  (1) 
DB04627

>  <COMMON_NAME>  (1) 
Cyclouridine

>  <CAS_NUMBER>  (1) 
3736-77-4

>  <UNII>  (1) 
N9APX1AAR4

>  <SYNONYMS>  (1) 
2,2'-Anhydrouridine; 2,2'-O-Cyclouridine; O2,2'-Cyclouridine

$$$$
