908
     RDKit          3D

 24 27  0  0  1  0  0  0  0  0999 V2000
   -1.1042   -1.8918   -1.1773 O   0  0  0  0  0  0  0  0  0  0  0  0
    2.4414    1.3038   -4.9753 O   0  0  0  0  0  0  0  0  0  0  0  0
   -0.0078    0.8504   -3.3703 N   0  0  0  0  0  0  0  0  0  0  0  0
    3.6972   -0.5810    0.0785 N   0  0  0  0  0  0  0  0  0  0  0  0
   -0.9456    3.0108   -2.5070 C   0  0  1  0  0  0  0  0  0  0  0  0
   -1.0061    0.3809   -2.3954 C   0  0  2  0  0  0  0  0  0  0  0  0
   -1.6256    1.7317   -1.8594 C   0  0  0  0  0  0  0  0  0  0  0  0
    0.5139    3.0308   -2.0354 C   0  0  2  0  0  0  0  0  0  0  0  0
   -1.0768    2.8304   -4.0979 C   0  0  0  0  0  0  0  0  0  0  0  0
    0.9120    1.7434   -2.6223 C   0  0  0  0  0  0  0  0  0  0  0  0
   -0.6134    1.4386   -4.5445 C   0  0  0  0  0  0  0  0  0  0  0  0
   -0.4308   -0.6221   -1.2077 C   0  0  2  0  0  0  0  0  0  0  0  0
    0.9538    2.8543   -0.5538 C   0  0  0  0  0  0  0  0  0  0  0  0
    1.1051   -0.9161   -0.9124 C   0  0  0  0  0  0  0  0  0  0  0  0
    0.4212    3.4752    0.4574 C   0  0  0  0  0  0  0  0  0  0  0  0
    2.2549   -0.6395   -1.8215 C   0  0  0  0  0  0  0  0  0  0  0  0
    1.3868   -1.2409    0.4225 C   0  0  0  0  0  0  0  0  0  0  0  0
    3.4654   -0.2751   -1.2176 C   0  0  0  0  0  0  0  0  0  0  0  0
    2.2291   -0.4557   -3.2603 C   0  0  0  0  0  0  0  0  0  0  0  0
    2.7034   -1.1419    0.8244 C   0  0  0  0  0  0  0  0  0  0  0  0
    4.3772    0.5179   -1.9777 C   0  0  0  0  0  0  0  0  0  0  0  0
    3.0406    0.5284   -3.9589 C   0  0  0  0  0  0  0  0  0  0  0  0
    4.1470    0.9939   -3.2891 C   0  0  0  0  0  0  0  0  0  0  0  0
    3.0892    2.4794   -5.5306 C   0  0  0  0  0  0  0  0  0  0  0  0
  2 22  1  0
  2 24  1  0
  3  6  1  0
  3 10  1  0
  3 11  1  0
  4 18  2  0
  4 20  1  0
  5  7  1  1
  5  8  1  0
  5  9  1  0
  6  7  1  1
  6 12  1  0
  8 10  1  0
  8 13  1  1
  9 11  1  0
 12 14  1  0
 12  1  1  6
 13 15  2  0
 14 16  2  0
 14 17  1  0
 16 18  1  0
 16 19  1  0
 17 20  2  0
 18 21  1  0
 19 22  2  0
 21 23  2  0
 22 23  1  0
M  END
>  <DRUGBANK_ID>  (1) 
DB00908

>  <SECONDARY_ACCESSION_NUMBERS>  (1) 
APRD00136

>  <COMMON_NAME>  (1) 
Quinidine

>  <CAS_NUMBER>  (1) 
56-54-2

>  <UNII>  (1) 
ITX08688JL

>  <SYNONYMS>  (1) 
(+)-quinidine; (8R,9S)-Quinidine; (R)-(6-Methoxyquinolin-4-yl)((3S,4R,7S)-3-vinylquinuclidin-7-yl)methanol; (S)-(6-Methoxy-quinolin-4-yl)-((2R,5R)-5-vinyl-1-aza-bicyclo[2.2.2]oct-2-yl)-methanol; (S)-(6-Methoxyquinolin-4-yl)((2R,5R)-5-vinylquinuclidin-2-yl)methanol; 6-methoxy-α-(5-vinyl-2-quinuclidinyl)-4-quinolinemethanol; beta-Quinine; Chinidin; Chinidinum; CIN-QUIN; Conchinin; Conquinine; Pitayine; Quinidina; α-(6-methoxy-4-quinolyl)-5-vinyl-2-quinuclidinemethanol; β-quinine

$$$$
