
     RDKit          3D

 34 39  0  0  1  0  0  0  0  0999 V2000
   -0.3094   -1.5668    2.3879 O   0  0  0  0  0  0  0  0  0  0  0  0
    1.5640   -1.5003    1.0479 O   0  0  0  0  0  0  0  0  0  0  0  0
   -1.8127    1.3596    0.9533 O   0  0  0  0  0  0  0  0  0  0  0  0
    3.3089   -0.3274    0.4492 O   0  0  0  0  0  0  0  0  0  0  0  0
    0.8184   -1.9965    4.8013 O   0  0  0  0  0  0  0  0  0  0  0  0
   -3.3611   -0.3909   -0.1695 O   0  0  0  0  0  0  0  0  0  0  0  0
   -0.6191   -1.4519   -1.4926 O   0  0  0  0  0  0  0  0  0  0  0  0
   -0.8234   -0.6578    5.4934 O   0  0  0  0  0  0  0  0  0  0  0  0
   -0.3848    1.9122    0.0102 O   0  0  0  0  0  0  0  0  0  0  0  0
   -1.7525   -2.3467    0.8606 O   0  0  0  0  0  0  0  0  0  0  0  0
   -4.8617    1.6252    1.7840 O   0  0  0  0  0  0  0  0  0  0  0  0
    0.8372   -0.1589    3.0168 C   0  0  2  0  0  0  0  0  0  0  0  0
   -0.5129    1.1423    2.3064 C   0  0  2  0  0  0  0  0  0  0  0  0
    1.9407    0.7043    2.4660 C   0  0  1  0  0  0  0  0  0  0  0  0
    1.0025   -1.6552    2.2767 C   0  0  1  0  0  0  0  0  0  0  0  0
   -0.2565   -0.0902    2.3986 C   0  0  2  0  0  0  0  0  0  0  0  0
    2.1855   -0.2819    1.2692 C   0  0  2  0  0  0  0  0  0  0  0  0
    0.6377    2.0285    2.7989 C   0  0  0  0  0  0  0  0  0  0  0  0
    1.1039    0.6703    1.0844 C   0  0  0  0  0  0  0  0  0  0  0  0
    1.4925   -0.7806    4.3089 C   0  0  0  0  0  0  0  0  0  0  0  0
   -1.8557    0.1812    3.6238 C   0  0  0  0  0  0  0  0  0  0  0  0
   -2.2503    0.4490   -0.5851 C   0  0  2  0  0  0  0  0  0  0  0  0
   -0.9605   -0.1245   -1.1738 C   0  0  1  0  0  0  0  0  0  0  0  0
   -0.4323   -1.7810    5.2502 C   0  0  0  0  0  0  0  0  0  0  0  0
   -0.7098    0.0373    0.1916 C   0  0  2  0  0  0  0  0  0  0  0  0
   -3.2799   -0.2866    1.2445 C   0  0  1  0  0  0  0  0  0  0  0  0
   -1.9530   -0.9494    1.1859 C   0  0  1  0  0  0  0  0  0  0  0  0
   -1.2663   -2.9394    5.6085 C   0  0  0  0  0  0  0  0  0  0  0  0
   -3.5196    1.4173    1.9118 C   0  0  0  0  0  0  0  0  0  0  0  0
   -0.7762   -3.7354    6.6330 C   0  0  0  0  0  0  0  0  0  0  0  0
   -2.6093   -3.0710    5.2074 C   0  0  0  0  0  0  0  0  0  0  0  0
   -1.6093   -4.6640    7.2524 C   0  0  0  0  0  0  0  0  0  0  0  0
   -3.4615   -3.9497    5.8852 C   0  0  0  0  0  0  0  0  0  0  0  0
   -2.9443   -4.7865    6.8684 C   0  0  0  0  0  0  0  0  0  0  0  0
 15  1  1  6
  1 16  1  0
  2 15  1  0
  2 17  1  0
  5 20  1  0
  5 24  1  0
  6 22  1  0
  6 26  1  0
  8 24  2  0
 11 29  1  0
 12 13  1  0
 12 14  1  0
 12 15  1  0
 12 20  1  1
 13 16  1  0
 13 18  1  0
 13  3  1  1
 14 17  1  0
 14 18  1  6
 16 19  1  0
 16 21  1  1
 17 19  1  0
 17  4  1  6
 22  3  1  1
 22 23  1  0
 23  7  1  1
 23 25  1  0
 24 28  1  0
 25 27  1  0
 25  9  1  1
 26 27  1  0
 26 29  1  6
 27 10  1  6
 28 30  2  0
 28 31  1  0
 30 32  1  0
 31 33  2  0
 32 34  2  0
 33 34  1  0
M  END
>  <DRUGBANK_ID>  (1) 
DB16288

>  <COMMON_NAME>  (1) 
Peoniflorin

>  <CAS_NUMBER>  (1) 
23180-57-6

>  <UNII>  (1) 
21AIQ4EV64

>  <SYNONYMS>  (1) 
Paeoniflorin

$$$$
