
     RDKit          3D

 37 40  0  0  0  0  0  0  0  0999 V2000
    0.8529    0.1165   -0.0389 C   0  0  0  0  0  0  0  0  0  0  0  0
    8.9833   -3.3236  -15.9899 C   0  0  0  0  0  0  0  0  0  0  0  0
   10.6231   -4.5030  -14.4853 C   0  0  0  0  0  0  0  0  0  0  0  0
    3.4518    4.5649  -15.6841 C   0  0  0  0  0  0  0  0  0  0  0  0
    5.7776    4.0931  -16.5196 C   0  0  0  0  0  0  0  0  0  0  0  0
    0.4098   -0.8744   -1.1018 C   0  0  0  0  0  0  0  0  0  0  0  0
    2.9099   -1.7692   -2.2111 C   0  0  0  0  0  0  0  0  0  0  0  0
    3.6506   -0.6537   -2.3754 C   0  0  0  0  0  0  0  0  0  0  0  0
    3.2865   -0.2302   -4.8130 C   0  0  0  0  0  0  0  0  0  0  0  0
    5.4998   -0.0186   -3.8823 C   0  0  0  0  0  0  0  0  0  0  0  0
    3.8122   -0.0775   -6.1007 C   0  0  0  0  0  0  0  0  0  0  0  0
    6.0297    0.0972   -5.1727 C   0  0  0  0  0  0  0  0  0  0  0  0
    8.8779   -0.1305  -11.0368 C   0  0  0  0  0  0  0  0  0  0  0  0
    7.4771   -2.0789  -10.9400 C   0  0  0  0  0  0  0  0  0  0  0  0
    6.3481    3.1388  -10.7538 C   0  0  0  0  0  0  0  0  0  0  0  0
    5.5855    1.2334  -11.9939 C   0  0  0  0  0  0  0  0  0  0  0  0
    9.5098   -0.6375  -12.1810 C   0  0  0  0  0  0  0  0  0  0  0  0
    8.0886   -2.5560  -12.0998 C   0  0  0  0  0  0  0  0  0  0  0  0
    6.1088    3.9571  -11.8719 C   0  0  0  0  0  0  0  0  0  0  0  0
    5.3172    2.0618  -13.0871 C   0  0  0  0  0  0  0  0  0  0  0  0
    2.3740   -2.2458   -0.8999 C   0  0  0  0  0  0  0  0  0  0  0  0
    9.4168   -3.5766  -14.5533 C   0  0  0  0  0  0  0  0  0  0  0  0
    4.7645    3.8430  -15.4098 C   0  0  0  0  0  0  0  0  0  0  0  0
    4.1372   -0.2706   -3.7023 C   0  0  0  0  0  0  0  0  0  0  0  0
    7.8296   -0.8335  -10.4355 C   0  0  0  0  0  0  0  0  0  0  0  0
    6.0569    1.7752  -10.8006 C   0  0  0  0  0  0  0  0  0  0  0  0
    5.1937    0.0500   -6.2939 C   0  0  0  0  0  0  0  0  0  0  0  0
    9.1186   -1.8596  -12.7432 C   0  0  0  0  0  0  0  0  0  0  0  0
    5.5719    3.4366  -13.0593 C   0  0  0  0  0  0  0  0  0  0  0  0
    6.9620   -0.1768   -9.4719 C   0  0  0  0  0  0  0  0  0  0  0  0
    6.1765    0.9527   -9.6113 C   0  0  0  0  0  0  0  0  0  0  0  0
    5.7382    0.2111   -7.6403 C   0  0  0  0  0  0  0  0  0  0  0  0
    9.7156   -2.3041  -13.9094 N   0  0  0  0  0  0  0  0  0  0  0  0
    5.3053    4.2774  -14.1268 N   0  0  0  0  0  0  0  0  0  0  0  0
    6.6643   -0.6416   -8.2089 N   0  0  0  0  0  0  0  0  0  0  0  0
    5.4263    1.1735   -8.4817 N   0  0  0  0  0  0  0  0  0  0  0  0
    0.9474   -2.1829   -0.8931 O   0  0  0  0  0  0  0  0  0  0  0  0
  6  1  1  0
  8  7  2  0
 11  9  2  0
 12 10  1  0
 17 13  2  0
 18 14  1  0
 19 15  2  0
 20 16  1  0
 21  7  1  0
 22  2  1  0
 22  3  1  0
 23  4  1  0
 23  5  1  0
 24  8  1  0
 24  9  1  0
 24 10  2  0
 25 13  1  0
 25 14  2  0
 26 15  1  0
 26 16  2  0
 27 11  1  0
 27 12  2  0
 28 17  1  0
 28 18  2  0
 29 19  1  0
 29 20  2  0
 30 25  1  0
 31 26  1  0
 31 30  2  0
 32 27  1  0
 33 22  1  0
 33 28  1  0
 34 23  1  0
 34 29  1  0
 35 30  1  0
 35 32  1  0
 36 31  1  0
 36 32  2  0
 37  6  1  0
 37 21  1  0
M  END
>  <DRUGBANK_ID>  (1) 
DB14069

>  <COMMON_NAME>  (1) 
ONT-093

>  <CAS_NUMBER>  (1) 
216227-54-2

>  <UNII>  (1) 
PK2WD2XC83

$$$$
