
     RDKit          3D

 28 31  0  0  1  0  0  0  0  0999 V2000
    1.0266   -0.1390   -0.1575 C   0  0  0  0  0  0  0  0  0  0  0  0
    0.5505    1.1274    0.4297 C   0  0  0  0  0  0  0  0  0  0  0  0
   -0.7659    1.4743    0.5741 C   0  0  0  0  0  0  0  0  0  0  0  0
   -0.8564    2.7911    0.8212 N   0  0  0  0  0  0  0  0  0  0  0  0
    0.3590    3.2451    1.0553 C   0  0  0  0  0  0  0  0  0  0  0  0
    1.2786    2.2531    0.8086 N   0  0  0  0  0  0  0  0  0  0  0  0
    2.6646    2.3970    0.9833 C   0  0  0  0  0  0  0  0  0  0  0  0
    3.3951    1.2565    1.3555 C   0  0  0  0  0  0  0  0  0  0  0  0
    4.7748    1.3086    1.4626 C   0  0  0  0  0  0  0  0  0  0  0  0
    5.4197    2.5214    1.2609 C   0  0  0  0  0  0  0  0  0  0  0  0
    4.6987    3.6809    0.9504 C   0  0  0  0  0  0  0  0  0  0  0  0
    3.3015    3.6408    0.8006 C   0  0  0  0  0  0  0  0  0  0  0  0
    2.6007    4.9184    0.3567 C   0  0  0  0  0  0  0  0  0  0  0  0
    1.4664    5.3711    0.7871 N   0  0  0  0  0  0  0  0  0  0  0  0
    0.7214    4.5569    1.7407 C   0  0  1  0  0  0  0  0  0  0  0  0
   -0.5373    5.3324    2.2343 C   0  0  0  0  0  0  0  0  0  0  0  0
   -1.7145    4.4305    2.6357 C   0  0  0  0  0  0  0  0  0  0  0  0
   -1.3761    3.3656    3.7072 C   0  0  0  0  0  0  0  0  0  0  0  0
   -2.1738    2.9995    4.5467 O   0  0  0  0  0  0  0  0  0  0  0  0
   -0.0965    2.8853    3.6416 O   0  0  0  0  0  0  0  0  0  0  0  0
    0.3268    1.8901    4.5829 C   0  0  0  0  0  0  0  0  0  0  0  0
    3.2807    5.6870   -0.7265 C   0  0  0  0  0  0  0  0  0  0  0  0
    3.5198    5.0409   -1.9320 C   0  0  0  0  0  0  0  0  0  0  0  0
    4.4327    5.6173   -2.8035 C   0  0  0  0  0  0  0  0  0  0  0  0
    4.9714    6.8621   -2.4957 C   0  0  0  0  0  0  0  0  0  0  0  0
    4.5521    7.4948   -1.3337 C   0  0  0  0  0  0  0  0  0  0  0  0
    3.7579    6.9137   -0.4088 N   0  0  0  0  0  0  0  0  0  0  0  0
    7.2994    2.5924    1.4255 Br  0  0  0  0  0  0  0  0  0  0  0  0
  1  2  1  0
  2  3  2  0
  2  6  1  0
  3  4  1  0
  4  5  2  0
  5  6  1  0
  5 15  1  0
  6  7  1  0
  7  8  2  0
  7 12  1  0
  8  9  1  0
  9 10  2  0
 10 11  1  0
 10 28  1  0
 11 12  2  0
 12 13  1  0
 13 14  2  0
 13 22  1  0
 14 15  1  0
 15 16  1  6
 16 17  1  0
 17 18  1  0
 18 19  2  0
 18 20  1  0
 20 21  1  0
 22 23  2  0
 22 27  1  0
 23 24  1  0
 24 25  2  0
 25 26  1  0
 26 27  2  0
M  END
>  <DRUGBANK_ID>  (1) 
DB12404

>  <COMMON_NAME>  (1) 
Remimazolam

>  <CAS_NUMBER>  (1) 
308242-62-8

>  <UNII>  (1) 
7V4A8U16MB

>  <SYNONYMS>  (1) 
Remimazolam

$$$$
