
     RDKit          3D

 19 19  0  0  0  0  0  0  0  0999 V2000
    1.0148    0.1336   -0.0258 C   0  0  0  0  0  0  0  0  0  0  0  0
    0.5321    0.5256   -1.4133 C   0  0  0  0  0  0  0  0  0  0  0  0
    1.0006   -0.4715   -2.4731 C   0  0  0  0  0  0  0  0  0  0  0  0
    0.4758   -1.8818   -2.2187 C   0  0  0  0  0  0  0  0  0  0  0  0
   -0.9735   -1.8540   -2.2925 N   0  0  0  0  0  0  0  0  0  0  0  0
   -1.6479   -2.7710   -3.0653 C   0  0  0  0  0  0  0  0  0  0  0  0
   -1.2116   -4.0954   -3.1545 C   0  0  0  0  0  0  0  0  0  0  0  0
   -1.7406   -4.9705   -4.0953 C   0  0  0  0  0  0  0  0  0  0  0  0
   -2.6777   -4.4959   -5.0039 C   0  0  0  0  0  0  0  0  0  0  0  0
   -3.2863   -3.2472   -4.7727 C   0  0  0  0  0  0  0  0  0  0  0  0
   -2.7352   -2.3665   -3.8394 C   0  0  0  0  0  0  0  0  0  0  0  0
   -2.9907   -5.2639   -6.2543 C   0  0  0  0  0  0  0  0  0  0  0  0
   -3.5162   -4.7199   -7.2262 O   0  0  0  0  0  0  0  0  0  0  0  0
   -2.8323   -6.6091   -6.0712 O   0  0  0  0  0  0  0  0  0  0  0  0
   -3.5477   -7.4958   -6.9772 C   0  0  0  0  0  0  0  0  0  0  0  0
   -5.0401   -7.8019   -6.5909 C   0  0  0  0  0  0  0  0  0  0  0  0
   -5.9282   -6.6266   -6.5198 N   0  0  0  0  0  0  0  0  0  0  0  0
   -7.3458   -6.9472   -6.4077 C   0  0  0  0  0  0  0  0  0  0  0  0
   -5.6477   -5.8229   -5.3396 C   0  0  0  0  0  0  0  0  0  0  0  0
  1  2  1  0
  2  3  1  0
  3  4  1  0
  4  5  1  0
  5  6  1  0
  6  7  2  0
  6 11  1  0
  7  8  1  0
  8  9  2  0
  9 10  1  0
  9 12  1  0
 10 11  2  0
 12 13  2  0
 12 14  1  0
 14 15  1  0
 15 16  1  0
 16 17  1  0
 17 18  1  0
 17 19  1  0
M  END
>  <DRUGBANK_ID>  (1) 
DB09085

>  <COMMON_NAME>  (1) 
Tetracaine

>  <CAS_NUMBER>  (1) 
94-24-6

>  <UNII>  (1) 
0619F35CGV

>  <SYNONYMS>  (1) 
2-(dimethylamino)ethyl 4-(butylamino)benzoate; 2-(Dimethylamino)ethyl p-(butylamino)benzoate; Amethocaine; Amethocaine HCl; Diäthylaminoäthanol ester der p-butylaminobenzösäure; Dicaine; Medihaler-Tetracaine; Metraspray; p-(butylamino)benzoic acid β-(dimethylamino)ethyl ester ; p-Butylaminobenzoyl-2-dimethylaminoethanol; Tetracaína; Tetracaine; Tétracaïne; Tetracaine HCl

$$$$
