
     RDKit          3D

 11 11  0  0  0  0  0  0  0  0999 V2000
   -1.3775   -0.1048   -0.0087 C   0  0  0  0  0  0  0  0  0  0  0  0
   -0.7753    1.1353    0.0433 C   0  0  0  0  0  0  0  0  0  0  0  0
    0.5938    1.2228   -0.0287 N   0  0  0  0  0  0  0  0  0  0  0  0
    1.3473    0.0618   -0.0450 C   0  0  0  0  0  0  0  0  0  0  0  0
    0.6679   -1.1487    0.0478 C   0  0  0  0  0  0  0  0  0  0  0  0
   -0.6845   -1.2709    0.0193 N   0  0  0  0  0  0  0  0  0  0  0  0
    2.8305    0.1769   -0.1920 C   0  0  0  0  0  0  0  0  0  0  0  0
   -2.8603   -0.1543   -0.1661 C   0  0  0  0  0  0  0  0  0  0  0  0
   -3.3807   -1.3898   -0.3284 O   0  0  0  0  0  0  0  0  0  0  0  0
   -3.5465    0.8616   -0.1842 O   0  0  0  0  0  0  0  0  0  0  0  0
    1.1456    2.3663   -0.0890 O   0  0  0  0  0  0  0  0  0  0  0  0
  1  2  2  0
  1  6  1  0
  1  8  1  0
  2  3  1  0
  3  4  2  0
  3 11  1  0
  4  5  1  0
  4  7  1  0
  5  6  2  0
  8  9  1  0
  8 10  2  0
M  CHG  2   3   1  11  -1
M  END
>  <DRUGBANK_ID>  (1) 
DB09055

>  <COMMON_NAME>  (1) 
Acipimox

>  <CAS_NUMBER>  (1) 
51037-30-0

>  <UNII>  (1) 
K9AY9IR2SD

>  <SYNONYMS>  (1) 
Acipimox

$$$$
