RP4
     RDKit          3D

 25 27  0  0  0  0  0  0  0  0999 V2000
    5.1345    0.2739    0.1771 O   0  0  0  0  0  0  0  0  0  0  0  0
    4.7315   -0.8895    0.1395 C   0  0  0  0  0  0  0  0  0  0  0  0
    5.5942   -1.9261    0.3174 O   0  0  0  0  0  0  0  0  0  0  0  0
    3.2494   -1.2843   -0.1791 C   0  0  1  0  0  0  0  0  0  0  0  0
    2.2607   -0.2923    0.0780 O   0  0  0  0  0  0  0  0  0  0  0  0
    3.2065   -1.5946   -1.6789 C   0  0  0  0  0  0  0  0  0  0  0  0
    3.3089   -3.0514   -2.0952 C   0  0  1  0  0  0  0  0  0  0  0  0
    4.6032   -3.2000   -2.6909 O   0  0  0  0  0  0  0  0  0  0  0  0
    3.1025   -4.1388   -1.0196 C   0  0  2  0  0  0  0  0  0  0  0  0
    1.9077   -4.8458   -1.3498 O   0  0  0  0  0  0  0  0  0  0  0  0
    2.9440   -3.6848    0.3994 C   0  0  0  0  0  0  0  0  0  0  0  0
    2.9297   -2.3949    0.7646 C   0  0  0  0  0  0  0  0  0  0  0  0
    2.9614   -4.7041    1.4595 C   0  0  0  0  0  0  0  0  0  0  0  0
    4.0455   -5.5828    1.5924 C   0  0  0  0  0  0  0  0  0  0  0  0
    4.0796   -6.4963    2.6396 C   0  0  0  0  0  0  0  0  0  0  0  0
    3.0443   -6.5206    3.5681 C   0  0  0  0  0  0  0  0  0  0  0  0
    1.9941   -5.6055    3.4961 C   0  0  0  0  0  0  0  0  0  0  0  0
    1.9269   -4.7431    2.3985 C   0  0  0  0  0  0  0  0  0  0  0  0
    0.7526   -5.4230    4.7483 S   0  0  0  0  0  0  0  0  0  0  0  0
    1.2917   -6.3776    6.1526 C   0  0  0  0  0  0  0  0  0  0  0  0
    2.5622   -6.2804    6.7381 C   0  0  0  0  0  0  0  0  0  0  0  0
    2.8501   -6.9652    7.9228 C   0  0  0  0  0  0  0  0  0  0  0  0
    1.8537   -7.7034    8.5578 C   0  0  0  0  0  0  0  0  0  0  0  0
    0.5847   -7.7888    7.9910 C   0  0  0  0  0  0  0  0  0  0  0  0
    0.3224   -7.1725    6.7690 C   0  0  0  0  0  0  0  0  0  0  0  0
  1  2  2  0
  2  3  1  0
  4  6  1  0
  4 12  1  0
  4  5  1  6
  4  2  1  0
  6  7  1  0
  7  9  1  0
  7  8  1  1
  9 10  1  6
  9 11  1  0
 11 12  2  0
 11 13  1  0
 13 14  2  0
 13 18  1  0
 14 15  1  0
 15 16  2  0
 16 17  1  0
 17 18  2  0
 17 19  1  0
 19 20  1  0
 20 21  2  0
 20 25  1  0
 21 22  1  0
 22 23  2  0
 23 24  1  0
 24 25  2  0
M  END
>  <DRUGBANK_ID>  (1) 
DB08485

>  <COMMON_NAME>  (1) 
(1S,4S,5S)-1,4,5-TRIHYDROXY-3-[3-(PHENYLTHIO)PHENYL]CYCLOHEX-2-ENE-1-CARBOXYLIC ACID

$$$$
