
     RDKit          3D

 17 17  0  0  0  0  0  0  0  0999 V2000
    1.3518    0.0058    0.1815 C   0  0  0  0  0  0  0  0  0  0  0  0
   -1.8083    1.1553   -1.1681 O   0  0  0  0  0  0  0  0  0  0  0  0
    0.7443    0.4620   -0.7983 O   0  0  0  0  0  0  0  0  0  0  0  0
   -1.5305   -0.1038   -1.7762 C   0  0  0  0  0  0  0  0  0  0  0  0
    0.8901   -0.3544    1.3985 O   0  0  0  0  0  0  0  0  0  0  0  0
   -1.8246   -1.4388   -1.3035 C   0  0  0  0  0  0  0  0  0  0  0  0
    2.6646   -0.0737    0.0690 N   0  0  0  0  0  0  0  0  0  0  0  0
   -1.4579    1.0294    1.5784 C   0  0  0  0  0  0  0  0  0  0  0  0
   -1.2784    1.7715    0.1675 C   0  0  0  0  0  0  0  0  0  0  0  0
   -0.5422   -0.4696    1.5574 C   0  0  0  0  0  0  0  0  0  0  0  0
   -2.7116   -1.8737   -0.3371 O   0  0  0  0  0  0  0  0  0  0  0  0
   -2.9048    1.1232    1.9839 O   0  0  0  0  0  0  0  0  0  0  0  0
   -0.9840   -0.1038   -3.0588 C   0  0  0  0  0  0  0  0  0  0  0  0
   -1.2322   -2.5973   -1.7810 C   0  0  0  0  0  0  0  0  0  0  0  0
   -3.0329   -0.7778    0.3971 C   0  0  0  0  0  0  0  0  0  0  0  0
   -0.6662   -1.3338   -3.6996 C   0  0  0  0  0  0  0  0  0  0  0  0
   -0.6859   -2.5574   -3.0239 C   0  0  0  0  0  0  0  0  0  0  0  0
  2  9  1  0
  3  1  2  0
  4  2  1  0
  5  1  1  0
  6  4  2  0
  7  1  1  0
  8 10  1  0
  9  8  1  0
 10  5  1  0
 11  6  1  0
 12  8  1  0
 13  4  1  0
 14  6  1  0
 15 11  1  0
 16 13  2  0
 17 16  1  0
 17 14  2  0
M  END
>  <DRUGBANK_ID>  (1) 
DB00423

>  <SECONDARY_ACCESSION_NUMBERS>  (1) 
APRD01102

>  <COMMON_NAME>  (1) 
Methocarbamol

>  <CAS_NUMBER>  (1) 
532-03-6

>  <UNII>  (1) 
125OD7737X

>  <SYNONYMS>  (1) 
(RS)-2-hydroxy-3-(2-methoxyphenoxy)propyl carbamate; Methocarbamol; MÃ©thocarbamol; Methocarbamolum; Metocarbamol; Metocarbamolo

$$$$
