IAV
     RDKit          3D

 20 21  0  0  0  0  0  0  0  0999 V2000
    4.8022    4.0291   -0.6607 O   0  0  0  0  0  0  0  0  0  0  0  0
    4.1086    3.1186   -0.1936 C   0  0  0  0  0  0  0  0  0  0  0  0
    4.7234    2.2623    0.6774 N   0  0  0  0  0  0  0  0  0  0  0  0
    4.4187    0.8406    0.9153 C   0  0  2  0  0  0  0  0  0  0  0  0
    2.9216    0.5507    1.0271 C   0  0  0  0  0  0  0  0  0  0  0  0
    2.2703   -0.1267    0.2530 O   0  0  0  0  0  0  0  0  0  0  0  0
    2.3475    1.2069    2.0582 O   0  0  0  0  0  0  0  0  0  0  0  0
    5.0453    0.3654    2.2489 C   0  0  0  0  0  0  0  0  0  0  0  0
    4.5715   -1.0577    2.5802 C   0  0  0  0  0  0  0  0  0  0  0  0
    6.5718    0.3968    2.2323 C   0  0  0  0  0  0  0  0  0  0  0  0
    2.6232    3.0007   -0.5203 C   0  0  0  0  0  0  0  0  0  0  0  0
    1.6842    3.7300    0.4000 C   0  0  0  0  0  0  0  0  0  0  0  0
    0.3765    3.3646    0.6896 C   0  0  0  0  0  0  0  0  0  0  0  0
   -0.1735    4.3181    1.5089 N   0  0  0  0  0  0  0  0  0  0  0  0
    0.7390    5.3208    1.7414 C   0  0  0  0  0  0  0  0  0  0  0  0
    0.6159    6.5271    2.4464 C   0  0  0  0  0  0  0  0  0  0  0  0
    1.9223    4.9528    1.0995 C   0  0  0  0  0  0  0  0  0  0  0  0
    3.0332    5.8080    1.2133 C   0  0  0  0  0  0  0  0  0  0  0  0
    2.9273    7.0188    1.8862 C   0  0  0  0  0  0  0  0  0  0  0  0
    1.7288    7.3779    2.4843 C   0  0  0  0  0  0  0  0  0  0  0  0
  1  2  2  0
  2  3  1  0
  2 11  1  0
  4  8  1  0
  4  5  1  0
  4  3  1  1
  5  6  2  0
  5  7  1  0
  8  9  1  0
  8 10  1  0
 11 12  1  0
 12 13  2  0
 12 17  1  0
 13 14  1  0
 14 15  1  0
 15 16  1  0
 15 17  2  0
 16 20  2  0
 17 18  1  0
 18 19  2  0
 19 20  1  0
M  END
>  <DRUGBANK_ID>  (1) 
DB07953

>  <COMMON_NAME>  (1) 
N-[1H-INDOL-3-YL-ACETYL]VALINE ACID

$$$$
