
     RDKit          3D

 28 32  0  0  0  0  0  0  0  0999 V2000
    0.2890    0.7174    0.0052 C   0  0  0  0  0  0  0  0  0  0  0  0
    0.2829   -0.6704    0.0086 N   0  0  0  0  0  0  0  0  0  0  0  0
    1.5665   -1.1150   -0.0008 N   0  0  0  0  0  0  0  0  0  0  0  0
    2.2601    0.0241   -0.0018 C   0  0  0  0  0  0  0  0  0  0  0  0
    1.5227    1.1697    0.0006 N   0  0  0  0  0  0  0  0  0  0  0  0
   -0.8905   -1.4106    0.0041 C   0  0  0  0  0  0  0  0  0  0  0  0
   -2.1136   -0.8270    0.0019 C   0  0  0  0  0  0  0  0  0  0  0  0
   -2.1230    0.6636    0.0023 C   0  0  0  0  0  0  0  0  0  0  0  0
   -0.9667    1.3726    0.0025 C   0  0  0  0  0  0  0  0  0  0  0  0
   -3.4093    1.4436    0.0038 C   0  0  0  0  0  0  0  0  0  0  0  0
   -3.2984   -1.5457   -0.0587 N   0  0  0  0  0  0  0  0  0  0  0  0
   -3.4229   -2.9365   -0.0103 C   0  0  0  0  0  0  0  0  0  0  0  0
   -2.8298   -4.8903    1.0918 C   0  0  0  0  0  0  0  0  0  0  0  0
   -2.8165   -3.5518    1.0364 N   0  0  0  0  0  0  0  0  0  0  0  0
   -3.4185   -5.6098    0.1094 C   0  0  0  0  0  0  0  0  0  0  0  0
   -4.0857   -3.5822   -1.0034 N   0  0  0  0  0  0  0  0  0  0  0  0
   -4.0282   -4.9214   -0.9227 C   0  0  0  0  0  0  0  0  0  0  0  0
   -3.5419   -6.9774   -0.0915 N   0  0  0  0  0  0  0  0  0  0  0  0
   -4.2320   -7.1827   -1.2835 C   0  0  0  0  0  0  0  0  0  0  0  0
   -4.5309   -5.9038   -1.8051 N   0  0  0  0  0  0  0  0  0  0  0  0
   -3.0799   -8.0273    0.7582 C   0  0  0  0  0  0  0  0  0  0  0  0
   -4.5133   -8.2752   -1.7594 O   0  0  0  0  0  0  0  0  0  0  0  0
   -5.2326   -5.6990   -3.0536 C   0  0  0  0  0  0  0  0  0  0  0  0
   -6.6414   -6.3096   -2.9835 C   0  0  0  0  0  0  0  0  0  0  0  0
   -7.3227   -6.2891   -4.3393 C   0  0  0  0  0  0  0  0  0  0  0  0
   -6.5161   -6.9217   -5.3293 O   0  0  0  0  0  0  0  0  0  0  0  0
   -5.2607   -6.2707   -5.5060 C   0  0  0  0  0  0  0  0  0  0  0  0
   -4.4471   -6.3112   -4.2257 C   0  0  0  0  0  0  0  0  0  0  0  0
  1  2  1  0
  1  9  1  0
  2  3  1  0
  2  6  1  0
  3  4  2  0
  4  5  1  0
  5  1  2  0
  6  7  2  0
  7  8  1  0
  7 11  1  0
  8  9  2  0
  8 10  1  0
 11 12  1  0
 12 16  2  0
 13 14  2  0
 14 12  1  0
 15 13  1  0
 15 18  1  0
 16 17  1  0
 17 15  2  0
 18 19  1  0
 18 21  1  0
 19 20  1  0
 19 22  2  0
 20 17  1  0
 20 23  1  0
 23 24  1  0
 24 25  1  0
 25 26  1  0
 26 27  1  0
 27 28  1  0
 28 23  1  0
M  END
>  <DRUGBANK_ID>  (1) 
DB16834

>  <COMMON_NAME>  (1) 
AZD-7648

>  <CAS_NUMBER>  (1) 
2230820-11-6

>  <UNII>  (1) 
97A09L5JCK

>  <SYNONYMS>  (1) 
AZD7648

$$$$
