
     RDKit          3D

 27 30  0  0  0  0  0  0  0  0999 V2000
    1.2492   -0.4803    1.2650 C   0  0  0  0  0  0  0  0  0  0  0  0
    1.4038   -0.5294    2.9124 C   0  0  0  0  0  0  0  0  0  0  0  0
    0.7157    0.8157    3.8108 C   0  0  0  0  0  0  0  0  0  0  0  0
    0.4922    1.9778    3.1121 C   0  0  0  0  0  0  0  0  0  0  0  0
    1.0478    1.7885    1.7841 C   0  0  1  0  0  0  0  0  0  0  0  0
    0.1963    0.5347    1.3966 C   0  0  0  0  0  0  0  0  0  0  0  0
   -0.0277    3.3886    3.3129 C   0  0  0  0  0  0  0  0  0  0  0  0
    0.5564    4.5013    2.2335 C   0  0  0  0  0  0  0  0  0  0  0  0
    0.2574    4.0793    0.6348 C   0  0  2  0  0  0  0  0  0  0  0  0
    1.0865    2.7780    0.6211 C   0  0  2  0  0  0  0  0  0  0  0  0
    0.5683    5.1209   -0.9207 C   0  0  1  0  0  0  0  0  0  0  0  0
    1.2589    4.0410   -1.5776 C   0  0  2  0  0  0  0  0  0  0  0  0
    1.9364    2.7440   -1.5782 C   0  0  0  0  0  0  0  0  0  0  0  0
    1.2118    1.9055   -0.6360 C   0  0  2  0  0  0  0  0  0  0  0  0
    0.6459    4.9667   -2.9869 C   0  0  0  0  0  0  0  0  0  0  0  0
    2.0861    4.8674   -3.5444 C   0  0  0  0  0  0  0  0  0  0  0  0
    2.3481    5.2487   -2.1906 C   0  0  1  0  0  0  0  0  0  0  0  0
    2.1311   -1.3314    3.4881 O   0  0  0  0  0  0  0  0  0  0  0  0
    0.0757    1.3015   -1.2285 O   0  0  0  0  0  0  0  0  0  0  0  0
   -0.6427    3.8007   -1.7501 C   0  0  0  0  0  0  0  0  0  0  0  0
    2.3430    3.4043    0.7173 F   0  0  0  0  0  0  0  0  0  0  0  0
    1.9914    6.7114   -2.1738 O   0  0  0  0  0  0  0  0  0  0  0  0
    2.6432    1.7204    2.1672 C   0  0  0  0  0  0  0  0  0  0  0  0
    3.7841    5.2736   -1.7205 C   0  0  0  0  0  0  0  0  0  0  0  0
    4.1810    4.7159   -0.7199 O   0  0  0  0  0  0  0  0  0  0  0  0
    4.6928    6.1656   -2.5551 C   0  0  0  0  0  0  0  0  0  0  0  0
    4.7814    5.7599   -3.9098 O   0  0  0  0  0  0  0  0  0  0  0  0
  1  2  1  0
  1  6  1  0
  2  3  1  0
  2 18  2  0
  3  4  2  0
  4  5  1  0
  4  7  1  0
  5  6  1  0
  5 10  1  0
  5 23  1  1
  7  8  1  0
  9  8  1  1
  9 10  1  0
  9 11  1  0
 10 14  1  0
 10 21  1  1
 11 12  1  0
 11 15  1  6
 12 13  1  0
 12 17  1  0
 12 20  1  6
 13 14  1  0
 14 19  1  6
 15 16  1  0
 16 17  1  0
 17 22  1  6
 17 24  1  0
 24 25  2  0
 24 26  1  0
 26 27  1  0
M  END
>  <DRUGBANK_ID>  (1) 
DB00687

>  <SECONDARY_ACCESSION_NUMBERS>  (1) 
APRD00756; DB02478

>  <COMMON_NAME>  (1) 
Fludrocortisone

>  <CAS_NUMBER>  (1) 
127-31-1

>  <UNII>  (1) 
U0476M545B

>  <SYNONYMS>  (1) 
9alpha-Fluorocortisol; Fludrocortison; Fludrocortisona; Fludrocortisone; Fludrocortisonum; Fluohydrocortisone

$$$$
