
     RDKit          3D

 11 10  0  0  1  0  0  0  0  0999 V2000
    1.0088    0.0535   -0.0377 C   0  0  0  0  0  0  0  0  0  0  0  0
    0.5054   -1.2836    0.5031 C   0  0  1  0  0  0  0  0  0  0  0  0
    1.0281   -1.4333    1.9611 C   0  0  0  0  0  0  0  0  0  0  0  0
    0.5223   -0.3885    2.9699 C   0  0  0  0  0  0  0  0  0  0  0  0
   -0.9958   -0.3662    3.1873 C   0  0  0  0  0  0  0  0  0  0  0  0
   -1.6076   -1.7280    3.6011 C   0  0  0  0  0  0  0  0  0  0  0  0
   -1.1020   -2.0376    5.0035 C   0  0  0  0  0  0  0  0  0  0  0  0
   -3.1281   -1.6910    3.5251 C   0  0  0  0  0  0  0  0  0  0  0  0
   -1.2231   -2.8067    2.7567 O   0  0  0  0  0  0  0  0  0  0  0  0
   -0.9924   -1.3683    0.2568 C   0  0  0  0  0  0  0  0  0  0  0  0
   -1.6663   -2.3605   -0.3222 C   0  0  0  0  0  0  0  0  0  0  0  0
  2  1  1  1
  2  3  1  0
  2 10  1  0
  3  4  1  0
  4  5  1  0
  5  6  1  0
  6  7  1  0
  6  8  1  0
  6  9  1  0
 10 11  2  0
M  END
>  <DRUGBANK_ID>  (1) 
DB02273

>  <SECONDARY_ACCESSION_NUMBERS>  (1) 
EXPT01192

>  <COMMON_NAME>  (1) 
2,6-Dimethyl-7-Octen-2-Ol

>  <CAS_NUMBER>  (1) 
18479-58-8

>  <UNII>  (1) 
46L1B02ND9

$$$$
