
     RDKit          3D

 14 15  0  0  1  0  0  0  0  0999 V2000
    0.9688    0.1784   -0.0287 C   0  0  0  0  0  0  0  0  0  0  0  0
    3.8199    5.1424   -3.1429 C   0  0  0  0  0  0  0  0  0  0  0  0
    2.6454    4.1740   -2.9328 C   0  0  2  0  0  0  0  0  0  0  0  0
    1.8274    4.3959   -0.6139 C   0  0  2  0  0  0  0  0  0  0  0  0
    1.3071    4.9312   -2.9342 C   0  0  2  0  0  0  0  0  0  0  0  0
    1.1594    5.4641   -1.4999 C   0  0  2  0  0  0  0  0  0  0  0  0
    2.6954    3.5389   -1.5320 C   0  0  1  0  0  0  0  0  0  0  0  0
    1.0740    2.3491   -0.6290 C   0  0  0  0  0  0  0  0  0  0  0  0
    0.3341    1.2353   -0.3918 N   0  0  0  0  0  0  0  0  0  0  0  0
    0.8261    3.4734   -0.0553 N   0  0  0  0  0  0  0  0  0  0  0  0
    4.4399    4.8973   -4.3971 O   0  0  0  0  0  0  0  0  0  0  0  0
    0.2585    4.0102   -3.2283 O   0  0  0  0  0  0  0  0  0  0  0  0
    1.7476    6.7558   -1.3396 O   0  0  0  0  0  0  0  0  0  0  0  0
    2.1000    2.2415   -1.5091 O   0  0  0  0  0  0  0  0  0  0  0  0
  3  2  1  1
  5  3  1  0
  5 12  1  1
  6  4  1  0
  6  5  1  0
  6 13  1  6
  7  3  1  0
  7  4  1  0
  9  1  2  0
  9  8  1  0
  4 10  1  6
 10  8  2  0
 11  2  1  0
  7 14  1  6
 14  8  1  0
M  END
>  <DRUGBANK_ID>  (1) 
DB03539

>  <SECONDARY_ACCESSION_NUMBERS>  (1) 
EXPT02280

>  <COMMON_NAME>  (1) 
2-(Acetylamino)-2-Deoxy-6-O-Methyl-Alpha-D-Allopyranose

$$$$
