
     RDKit          3D

 40 44  0  0  1  0  0  0  0  0999 V2000
   -1.9380    5.7231    7.1563 C   0  0  0  0  0  0  0  0  0  0  0  0
   -0.2408    5.5862    6.4402 C   0  0  2  0  0  0  0  0  0  0  0  0
   -0.0453    4.0371    5.1005 C   0  0  0  0  0  0  0  0  0  0  0  0
   -0.7805    4.1925    6.1749 C   0  0  2  0  0  0  0  0  0  0  0  0
   -1.2548    5.3542    4.6419 C   0  0  2  0  0  0  0  0  0  0  0  0
   -2.3893    4.9529    3.7553 C   0  0  0  0  0  0  0  0  0  0  0  0
   -2.6478    6.1656    2.8414 C   0  0  1  0  0  0  0  0  0  0  0  0
   -1.4859    6.5510    1.9428 C   0  0  0  0  0  0  0  0  0  0  0  0
   -1.6415    6.8481    0.6395 C   0  0  0  0  0  0  0  0  0  0  0  0
   -0.4440    7.0031   -0.2589 C   0  0  0  0  0  0  0  0  0  0  0  0
   -0.5088    7.6246   -1.3090 O   0  0  0  0  0  0  0  0  0  0  0  0
    0.8937    6.4617    0.1830 C   0  0  0  0  0  0  0  0  0  0  0  0
    0.7475    5.7918    1.3257 C   0  0  0  0  0  0  0  0  0  0  0  0
   -0.0623    6.5188    2.4277 C   0  0  2  0  0  0  0  0  0  0  0  0
    0.1306    5.6042    3.6209 C   0  0  1  0  0  0  0  0  0  0  0  0
    1.4968    5.9337    4.3280 C   0  0  2  0  0  0  0  0  0  0  0  0
    2.0906    4.8983    5.4172 C   0  0  0  0  0  0  0  0  0  0  0  0
    1.0233    4.4072    6.6767 C   0  0  1  0  0  0  0  0  0  0  0  0
    0.8451    5.6011    7.5310 C   0  0  1  0  0  0  0  0  0  0  0  0
    2.0099    6.8252    7.6224 C   0  0  0  0  0  0  0  0  0  0  0  0
    2.3831    7.3728    8.6499 O   0  0  0  0  0  0  0  0  0  0  0  0
    2.5277    7.1895    6.4416 O   0  0  0  0  0  0  0  0  0  0  0  0
    3.4852    8.2489    6.1070 C   0  0  0  0  0  0  0  0  0  0  0  0
    3.1848    9.4963    6.7659 C   0  0  0  0  0  0  0  0  0  0  0  0
    2.8832   10.5160    7.2949 N   0  0  0  0  0  0  0  0  0  0  0  0
    0.3964    5.2488    8.8407 O   0  0  0  0  0  0  0  0  0  0  0  0
    1.5024    4.8448    9.5442 C   0  0  0  0  0  0  0  0  0  0  0  0
    2.6289    4.8076    9.0529 O   0  0  0  0  0  0  0  0  0  0  0  0
    1.3934    4.3396   10.9087 C   0  0  0  0  0  0  0  0  0  0  0  0
    0.5472    3.2067   11.4768 C   0  0  0  0  0  0  0  0  0  0  0  0
    0.5480    4.6610   12.0962 C   0  0  0  0  0  0  0  0  0  0  0  0
    1.2881    4.9648   13.3895 C   0  0  0  0  0  0  0  0  0  0  0  0
   -0.6470    5.5682   12.0186 C   0  0  0  0  0  0  0  0  0  0  0  0
   -0.7463    2.6080   10.9592 C   0  0  0  0  0  0  0  0  0  0  0  0
    1.3462    2.0716   12.0911 C   0  0  0  0  0  0  0  0  0  0  0  0
    1.3922    3.0811    7.2984 C   0  0  0  0  0  0  0  0  0  0  0  0
    1.3457    7.3057    4.6705 O   0  0  0  0  0  0  0  0  0  0  0  0
    0.2967    4.3331    3.0535 F   0  0  0  0  0  0  0  0  0  0  0  0
    0.5256    7.9701    2.5399 C   0  0  0  0  0  0  0  0  0  0  0  0
   -3.7330    5.8450    2.0876 F   0  0  0  0  0  0  0  0  0  0  0  0
  2  1  1  1
  2  3  1  0
  2 19  1  0
  4  3  1  6
  4  5  1  0
  4 18  1  0
  5  6  1  6
  5 15  1  0
  6  7  1  0
  7  8  1  0
  7 40  1  6
  8  9  2  0
  8 14  1  0
  9 10  1  0
 10 11  2  0
 10 12  1  0
 12 13  2  0
 13 14  1  0
 14 15  1  0
 14 39  1  1
 15 16  1  0
 15 38  1  6
 16 17  1  0
 16 37  1  1
 17 18  1  0
 18 19  1  0
 18 36  1  1
 19 20  1  0
 19 26  1  1
 20 21  2  0
 20 22  1  0
 22 23  1  0
 23 24  1  0
 24 25  3  0
 26 27  1  0
 27 28  2  0
 27 29  1  0
 29 30  1  0
 29 31  1  0
 30 31  1  0
 30 34  1  0
 30 35  1  0
 31 32  1  0
 31 33  1  0
M  END
>  <DRUGBANK_ID>  (1) 
DB12322

>  <COMMON_NAME>  (1) 
GW-870086

>  <CAS_NUMBER>  (1) 
827319-43-7

>  <UNII>  (1) 
O891A2A3ZU

$$$$
