CNQ
     RDKit          3D

 20 22  0  0  0  0  0  0  0  0999 V2000
   -2.4200    0.6453    0.0013 C   0  0  0  0  0  0  0  0  0  0  0  0
   -1.2164    1.3423    0.0091 C   0  0  0  0  0  0  0  0  0  0  0  0
    0.0018    0.6775    0.0008 C   0  0  0  0  0  0  0  0  0  0  0  0
    0.0402   -0.7419   -0.0087 C   0  0  0  0  0  0  0  0  0  0  0  0
   -1.1766   -1.4389   -0.0105 C   0  0  0  0  0  0  0  0  0  0  0  0
   -2.4000   -0.7445   -0.0068 C   0  0  0  0  0  0  0  0  0  0  0  0
    1.1261    1.4161   -0.0012 N   0  0  0  0  0  0  0  0  0  0  0  0
    2.2962    0.7401   -0.0035 C   0  0  0  0  0  0  0  0  0  0  0  0
    2.3649   -0.6405   -0.0006 C   0  0  0  0  0  0  0  0  0  0  0  0
    1.2396   -1.3839   -0.0149 N   0  0  0  0  0  0  0  0  0  0  0  0
   -1.2355   -2.9350   -0.0209 C   0  0  0  0  0  0  0  0  0  0  0  0
   -0.0618   -3.6332   -0.0280 N   0  0  0  0  0  0  0  0  0  0  0  0
   -2.3086   -3.5313   -0.0242 O   0  0  0  0  0  0  0  0  0  0  0  0
    3.6261   -1.3761    0.0399 C   0  0  0  0  0  0  0  0  0  0  0  0
    4.5295   -1.1789    1.0975 C   0  0  0  0  0  0  0  0  0  0  0  0
    5.7627   -1.8328    1.1176 C   0  0  0  0  0  0  0  0  0  0  0  0
    6.1020   -2.6990    0.0820 C   0  0  0  0  0  0  0  0  0  0  0  0
    5.2080   -2.9369   -0.9594 C   0  0  0  0  0  0  0  0  0  0  0  0
    3.9712   -2.2841   -0.9757 C   0  0  0  0  0  0  0  0  0  0  0  0
    7.6382   -3.4715    0.0883 Cl  0  0  0  0  0  0  0  0  0  0  0  0
  1  2  2  0
  1  6  1  0
  2  3  1  0
  3  4  2  0
  3  7  1  0
  4  5  1  0
  4 10  1  0
  5  6  2  0
  5 11  1  0
  7  8  2  0
  8  9  1  0
  9 10  2  0
  9 14  1  0
 11 12  1  0
 11 13  2  0
 14 15  2  0
 14 19  1  0
 15 16  1  0
 16 17  2  0
 17 18  1  0
 17 20  1  0
 18 19  2  0
M  END
>  <DRUGBANK_ID>  (1) 
DB03509

>  <SECONDARY_ACCESSION_NUMBERS>  (1) 
EXPT00973

>  <COMMON_NAME>  (1) 
2-(4-Chlorophenyl)-5-Quinoxalinecarboxamide

$$$$
