
     RDKit          3D

 16 16  0  0  0  0  0  0  0  0999 V2000
    1.6870   -0.3855    0.3390 C   0  0  0  0  0  0  0  0  0  0  0  0
    0.8840   -0.7910    1.6090 C   0  0  0  0  0  0  0  0  0  0  0  0
    1.1038    0.4057    2.5082 C   0  0  0  0  0  0  0  0  0  0  0  0
    0.3286    1.7527    2.0631 C   0  0  0  0  0  0  0  0  0  0  0  0
    0.9733    2.8587    1.1667 C   0  0  0  0  0  0  0  0  0  0  0  0
    1.3343    2.7167   -0.0066 O   0  0  0  0  0  0  0  0  0  0  0  0
    0.8959    4.1578    1.5577 N   0  0  0  0  0  0  0  0  0  0  0  0
    0.6007    4.6374    2.7903 C   0  0  0  0  0  0  0  0  0  0  0  0
    0.6316    5.8169    3.0465 O   0  0  0  0  0  0  0  0  0  0  0  0
    0.2702    3.6932    3.7064 N   0  0  0  0  0  0  0  0  0  0  0  0
    0.0468    2.3693    3.4780 C   0  0  0  0  0  0  0  0  0  0  0  0
   -0.3197    1.7081    4.4564 O   0  0  0  0  0  0  0  0  0  0  0  0
   -0.9722    1.4298    1.1218 C   0  0  0  0  0  0  0  0  0  0  0  0
   -0.7804    0.6331   -0.3023 C   0  0  0  0  0  0  0  0  0  0  0  0
   -0.9580   -0.6576   -0.7174 C   0  0  0  0  0  0  0  0  0  0  0  0
   -0.4659   -1.2134    1.8488 O   0  0  0  0  0  0  0  0  0  0  0  0
  1  2  1  0
  2  3  1  0
  2 16  1  0
  3  4  1  0
  4  5  1  0
  4 11  1  0
  4 13  1  0
  5  6  2  0
  5  7  1  0
  7  8  1  0
  8  9  2  0
  8 10  1  0
 10 11  1  0
 11 12  2  0
 13 14  1  0
 14 15  2  0
M  END
>  <DRUGBANK_ID>  (1) 
DB13253

>  <COMMON_NAME>  (1) 
Proxibarbal

>  <CAS_NUMBER>  (1) 
2537-29-3

>  <UNII>  (1) 
F97OMS297F

>  <SYNONYMS>  (1) 
Proxibarbal

$$$$
