
     RDKit          3D

 21 23  0  0  0  0  0  0  0  0999 V2000
   -2.2506    0.0463    0.0008 C   0  0  0  0  0  0  0  0  0  0  0  0
   -1.5144    1.1410    0.0296 N   0  0  0  0  0  0  0  0  0  0  0  0
   -0.2004    0.7168    0.0130 C   0  0  0  0  0  0  0  0  0  0  0  0
   -0.1063   -0.6658   -0.0166 C   0  0  0  0  0  0  0  0  0  0  0  0
   -1.4152   -1.0492   -0.0648 N   0  0  0  0  0  0  0  0  0  0  0  0
    0.9800    1.4637    0.0080 C   0  0  0  0  0  0  0  0  0  0  0  0
    2.2058    0.7848   -0.0011 C   0  0  0  0  0  0  0  0  0  0  0  0
    2.2680   -0.6106    0.0022 C   0  0  0  0  0  0  0  0  0  0  0  0
    1.1069   -1.3849   -0.0217 C   0  0  0  0  0  0  0  0  0  0  0  0
    1.1392   -2.8701   -0.1069 C   0  0  0  0  0  0  0  0  0  0  0  0
    0.1377   -3.5005   -0.3701 O   0  0  0  0  0  0  0  0  0  0  0  0
    2.3261   -3.5353    0.0749 N   0  0  0  0  0  0  0  0  0  0  0  0
   -4.5019   -2.8722   -0.0393 N   0  0  0  0  0  0  0  0  0  0  0  0
   -4.1396   -2.1720    1.1928 C   0  0  0  0  0  0  0  0  0  0  0  0
   -4.3952   -0.6817    1.2257 C   0  0  0  0  0  0  0  0  0  0  0  0
   -3.7802   -0.0203   -0.0191 C   0  0  0  0  0  0  0  0  0  0  0  0
   -4.3050   -0.7238   -1.2792 C   0  0  0  0  0  0  0  0  0  0  0  0
   -4.0267   -2.2240   -1.2684 C   0  0  0  0  0  0  0  0  0  0  0  0
   -4.0950   -4.2921   -0.0003 C   0  0  0  0  0  0  0  0  0  0  0  0
   -2.5817   -4.5847    0.0561 C   0  0  0  0  0  0  0  0  0  0  0  0
   -1.8914   -4.1923    1.3666 C   0  0  0  0  0  0  0  0  0  0  0  0
  1  2  2  0
  1  5  1  0
  1 16  1  0
  2  3  1  0
  3  4  2  0
  4  5  1  0
  6  7  2  0
  6  3  1  0
  7  8  1  0
  8  9  2  0
  9  4  1  0
  9 10  1  0
 10 11  2  0
 10 12  1  0
 13 14  1  0
 13 18  1  0
 13 19  1  0
 14 15  1  0
 15 16  1  0
 16 17  1  0
 17 18  1  0
 19 20  1  0
 20 21  1  0
M  END
>  <DRUGBANK_ID>  (1) 
DB07330

>  <COMMON_NAME>  (1) 
A-620223

>  <CAS_NUMBER>  (1) 
272769-49-0

>  <UNII>  (1) 
01FPW436S6

>  <SYNONYMS>  (1) 
trans-4-(7-carbamoyl-1H-benzimidazol-2-yl)-1-propylpiperidinium

$$$$
