
     RDKit          3D

 21 23  0  0  0  0  0  0  0  0999 V2000
   -1.8305    0.1019    0.8044 C   0  0  0  0  0  0  0  0  0  0  0  0
    3.7603   -0.6870   -0.5489 C   0  0  0  0  0  0  0  0  0  0  0  0
   -1.6278   -1.0438   -0.1755 C   0  0  0  0  0  0  0  0  0  0  0  0
   -1.1944    1.3092    0.1543 C   0  0  0  0  0  0  0  0  0  0  0  0
    3.4432    1.9246    2.7260 C   0  0  0  0  0  0  0  0  0  0  0  0
    2.8017    3.9775    1.7241 C   0  0  0  0  0  0  0  0  0  0  0  0
    4.2519    1.6571    1.5944 C   0  0  0  0  0  0  0  0  0  0  0  0
    3.3984    3.5616    0.5065 C   0  0  0  0  0  0  0  0  0  0  0  0
    2.8906   -0.7030    0.7168 C   0  0  0  0  0  0  0  0  0  0  0  0
    3.7895    0.5881   -1.4083 C   0  0  0  0  0  0  0  0  0  0  0  0
    0.7941   -1.4572    0.0371 C   0  0  0  0  0  0  0  0  0  0  0  0
    1.1887    0.9190    0.0605 C   0  0  0  0  0  0  0  0  0  0  0  0
    2.7830    3.1356    2.8394 C   0  0  0  0  0  0  0  0  0  0  0  0
   -0.2730   -0.7917   -0.7929 C   0  0  0  0  0  0  0  0  0  0  0  0
   -0.0818    0.7290   -0.6986 C   0  0  0  0  0  0  0  0  0  0  0  0
    4.0113    2.3157    0.3979 C   0  0  0  0  0  0  0  0  0  0  0  0
    2.2544    3.4965    4.1967 C   0  0  0  0  0  0  0  0  0  0  0  0
    1.9350    4.8178    4.3981 N   0  0  0  0  0  0  0  0  0  0  0  0
    1.5008   -0.3733    0.6370 N   0  0  0  0  0  0  0  0  0  0  0  0
    2.1994    2.7067    5.1114 O   0  0  0  0  0  0  0  0  0  0  0  0
    4.3624    1.8168   -0.8366 O   0  0  0  0  0  0  0  0  0  0  0  0
  3  1  1  0
  4  1  1  0
  7  5  2  0
  8  6  1  0
  9  2  1  0
 10  2  1  0
 13  5  1  0
 13  6  2  0
 14  3  1  0
 14 11  1  0
 15  4  1  0
 15 12  1  0
 15 14  1  0
 16  7  1  0
 16  8  2  0
 17 13  1  0
 18 17  1  0
 19  9  1  0
 19 11  1  0
 19 12  1  0
 20 17  2  0
 21 10  1  0
 21 16  1  0
M  END
>  <DRUGBANK_ID>  (1) 
DB16893

>  <COMMON_NAME>  (1) 
S-38093

>  <CAS_NUMBER>  (1) 
862896-30-8

>  <SYNONYMS>  (1) 
S 38093; S-38093 free base

$$$$
