BL7
     RDKit          3D

 21 24  0  0  0  0  0  0  0  0999 V2000
    0.7070   -0.2976   -0.5487 O   0  0  0  0  0  0  0  0  0  0  0  0
    1.9128   -0.1899   -0.8402 C   0  0  0  0  0  0  0  0  0  0  0  0
    2.6457    1.1103   -0.7598 C   0  0  2  0  0  0  0  0  0  0  0  0
    2.5579    1.1225    0.6874 O   0  0  0  0  0  0  0  0  0  0  0  0
    2.1061    2.4997   -1.1292 C   0  0  0  0  0  0  0  0  0  0  0  0
    3.2756    3.2913   -1.7676 C   0  0  0  0  0  0  0  0  0  0  0  0
    4.4368    2.3864   -1.6816 N   0  0  0  0  0  0  0  0  0  0  0  0
    5.6733    2.8383   -2.1873 C   0  0  0  0  0  0  0  0  0  0  0  0
    6.3301    3.8983   -1.5347 C   0  0  0  0  0  0  0  0  0  0  0  0
    7.5430    4.4319   -2.0000 C   0  0  0  0  0  0  0  0  0  0  0  0
    8.1774    3.8680   -3.0992 C   0  0  0  0  0  0  0  0  0  0  0  0
    7.6009    2.7593   -3.7130 C   0  0  0  0  0  0  0  0  0  0  0  0
    6.3462    2.2720   -3.2835 C   0  0  0  0  0  0  0  0  0  0  0  0
    4.0171    1.0731   -1.4885 C   0  0  0  0  0  0  0  0  0  0  0  0
    4.5885   -0.0297   -1.8814 N   0  0  0  0  0  0  0  0  0  0  0  0
    3.9559   -1.2727   -1.6314 C   0  0  0  0  0  0  0  0  0  0  0  0
    2.7401   -1.3918   -0.9591 C   0  0  0  0  0  0  0  0  0  0  0  0
    4.4968   -2.4647   -2.1285 C   0  0  0  0  0  0  0  0  0  0  0  0
    3.8727   -3.7059   -1.8824 C   0  0  0  0  0  0  0  0  0  0  0  0
    2.7575   -3.7894   -1.0501 C   0  0  0  0  0  0  0  0  0  0  0  0
    2.2086   -2.6224   -0.5518 C   0  0  0  0  0  0  0  0  0  0  0  0
  1  2  2  0
  2  3  1  0
  2 17  1  0
  3  5  1  0
  3 14  1  0
  3  4  1  1
  5  6  1  0
  6  7  1  0
  7 14  1  0
  7  8  1  0
  8  9  2  0
  8 13  1  0
  9 10  1  0
 10 11  2  0
 11 12  1  0
 12 13  2  0
 14 15  2  0
 15 16  1  0
 16 17  2  0
 16 18  1  0
 17 21  1  0
 18 19  2  0
 19 20  1  0
 20 21  2  0
M  END
>  <DRUGBANK_ID>  (1) 
DB07470

>  <COMMON_NAME>  (1) 
(3aS)-3a-hydroxy-1-phenyl-1,2,3,3a-tetrahydro-4H-pyrrolo[2,3-b]quinolin-4-one

$$$$
