726
     RDKit          3D

 22 24  0  0  1  0  0  0  0  0999 V2000
    0.0908   -0.9033   -0.9258 N   0  0  0  0  0  0  0  0  0  0  0  0
   -3.0262   -1.7254   -3.2101 N   0  0  0  0  0  0  0  0  0  0  0  0
   -0.6805   -2.7262   -2.5875 C   0  0  0  0  0  0  0  0  0  0  0  0
    0.1455   -1.4494   -2.3242 C   0  0  0  0  0  0  0  0  0  0  0  0
    1.3381   -0.4449   -0.4501 C   0  0  0  0  0  0  0  0  0  0  0  0
   -1.0796   -0.5586   -0.2488 C   0  0  0  0  0  0  0  0  0  0  0  0
   -2.2000   -2.6281   -2.3837 C   0  0  0  0  0  0  0  0  0  0  0  0
    0.5541    2.0036    0.0256 C   0  0  0  0  0  0  0  0  0  0  0  0
   -0.7234    1.8489   -0.8020 C   0  0  0  0  0  0  0  0  0  0  0  0
    1.5384    0.8417    0.0837 C   0  0  0  0  0  0  0  0  0  0  0  0
   -1.5675    0.7626   -0.1961 C   0  0  0  0  0  0  0  0  0  0  0  0
   -0.4796   -3.3094   -3.9937 C   0  0  0  0  0  0  0  0  0  0  0  0
    2.3463   -1.4203   -0.3526 C   0  0  0  0  0  0  0  0  0  0  0  0
   -1.7710   -1.5266    0.4916 C   0  0  0  0  0  0  0  0  0  0  0  0
    2.7429    1.0797    0.7727 C   0  0  0  0  0  0  0  0  0  0  0  0
   -2.7973    1.0429    0.4159 C   0  0  0  0  0  0  0  0  0  0  0  0
    3.5344   -1.1578    0.3132 C   0  0  0  0  0  0  0  0  0  0  0  0
   -3.0336   -1.2742    1.0159 C   0  0  0  0  0  0  0  0  0  0  0  0
    3.7174    0.0868    0.8891 C   0  0  0  0  0  0  0  0  0  0  0  0
   -3.5578    0.0171    0.9764 C   0  0  0  0  0  0  0  0  0  0  0  0
   -4.3559   -1.6604   -2.5852 C   0  0  0  0  0  0  0  0  0  0  0  0
   -2.5497   -0.3477   -3.2992 C   0  0  0  0  0  0  0  0  0  0  0  0
  1  4  1  0
  1  5  1  0
  1  6  1  0
  2  7  1  0
  2 21  1  0
  2 22  1  0
  3  4  1  0
  3  7  1  0
  3 12  1  0
  5 10  2  0
  5 13  1  0
  6 11  2  0
  6 14  1  0
  8  9  1  0
  8 10  1  0
  9 11  1  0
 10 15  1  0
 11 16  1  0
 13 17  2  0
 14 18  2  0
 15 19  2  0
 16 20  2  0
 17 19  1  0
 18 20  1  0
M  END
>  <DRUGBANK_ID>  (1) 
DB00726

>  <SECONDARY_ACCESSION_NUMBERS>  (1) 
APRD00498

>  <COMMON_NAME>  (1) 
Trimipramine

>  <CAS_NUMBER>  (1) 
739-71-9

>  <UNII>  (1) 
6S082C9NDT

>  <SYNONYMS>  (1) 
10,11-dihydro-N,N,β-trimethyl-5H-dibenz[b,f]azepine-5-propanamine; 5-(γ-dimethylamino-β-methylpropyl)-10,11-dihydro-5H-dibenzo[b,f]azepine; 5-[3-(dimethylamino)-2-methylpropyl]-10,11-dihydro-5H-dibenz[b,f]azepine; beta-Methylimipramine; Trimeprimina; Trimeprimine; Trimeproprimine; Trimipramina; Trimipramine; Trimipraminum; β-methylimipramine

$$$$
