FII
     RDKit          3D

 24 23  0  0  0  0  0  0  0  0999 V2000
    0.9681    0.0325    0.0737 C   0  0  0  0  0  0  0  0  0  0  0  0
    0.3762    0.1839   -1.2763 C   0  0  0  0  0  0  0  0  0  0  0  0
   -0.4991   -0.9225   -1.7479 C   0  0  0  0  0  0  0  0  0  0  0  0
    0.6505    1.2415   -2.0547 C   0  0  0  0  0  0  0  0  0  0  0  0
    1.6285    2.3562   -1.7398 C   0  0  0  0  0  0  0  0  0  0  0  0
    2.9020    2.4657   -2.6192 C   0  0  0  0  0  0  0  0  0  0  0  0
    2.6409    2.8895   -4.0494 C   0  0  0  0  0  0  0  0  0  0  0  0
    3.2196    4.1035   -4.6581 C   0  0  0  0  0  0  0  0  0  0  0  0
    1.7967    2.2036   -4.8115 C   0  0  0  0  0  0  0  0  0  0  0  0
    1.4004    2.3561   -6.2431 C   0  0  0  0  0  0  0  0  0  0  0  0
    1.8173    1.1264   -7.0280 C   0  0  0  0  0  0  0  0  0  0  0  0
    0.9399   -0.0045   -6.5431 C   0  0  0  0  0  0  0  0  0  0  0  0
   -0.0978   -0.4559   -7.6141 C   0  0  0  0  0  0  0  0  0  0  0  0
    1.3197   -0.5696   -5.3422 C   0  0  0  0  0  0  0  0  0  0  0  0
    0.9098   -1.8691   -4.7752 C   0  0  0  0  0  0  0  0  0  0  0  0
    1.9932   -2.8034   -4.4987 O   0  0  0  0  0  0  0  0  0  0  0  0
    2.8900   -3.2668   -5.5092 N   0  0  0  0  0  0  0  0  0  0  0  0
    2.8699   -3.1885   -6.8854 C   0  0  0  0  0  0  0  0  0  0  0  0
    3.8040   -3.4149   -7.5979 O   0  0  0  0  0  0  0  0  0  0  0  0
    1.6115   -2.6951   -7.4337 C   0  0  0  0  0  0  0  0  0  0  0  0
    0.1922   -3.7406   -7.2108 P   0  0  0  0  0  0  0  0  0  0  0  0
   -0.1552   -4.5390   -8.4109 O   0  0  0  0  0  0  0  0  0  0  0  0
    0.5543   -4.5912   -5.8928 O   0  0  0  0  0  0  0  0  0  0  0  0
   -1.1827   -3.1558   -6.5779 O   0  0  0  0  0  0  0  0  0  0  0  0
  1  2  1  0
  2  3  1  0
  2  4  2  3
  4  5  1  0
  5  6  1  0
  6  7  1  0
  7  8  1  0
  7  9  2  0
  9 10  1  0
 10 11  1  0
 11 12  1  0
 12 13  1  0
 12 14  2  0
 14 15  1  0
 15 16  1  0
 16 17  1  0
 17 18  1  0
 18 19  2  0
 18 20  1  0
 20 21  1  0
 21 22  2  0
 21 23  1  0
 21 24  1  0
M  END
>  <DRUGBANK_ID>  (1) 
DB07771

>  <COMMON_NAME>  (1) 
[(3,7,11-TRIMETHYL-DODECA-2,6,10-TRIENYLOXYCARBAMOYL)-METHYL]-PHOSPHONIC ACID

$$$$
