
     RDKit          3D

 14 15  0  0  1  0  0  0  0  0999 V2000
    4.4758   -3.0027   -0.6976 C   0  0  0  0  0  0  0  0  0  0  0  0
    3.2406   -3.4046   -1.2698 O   0  0  0  0  0  0  0  0  0  0  0  0
    2.1876   -2.6548   -0.8632 C   0  0  0  0  0  0  0  0  0  0  0  0
    2.2159   -1.7624   -0.0201 O   0  0  0  0  0  0  0  0  0  0  0  0
    0.9486   -3.1270   -1.5286 C   0  0  0  0  0  0  0  0  0  0  0  0
    0.8628   -2.9654   -3.0721 C   0  0  2  0  0  0  0  0  0  0  0  0
    0.3130   -4.3451   -3.5372 C   0  0  0  0  0  0  0  0  0  0  0  0
    1.5915   -5.1530   -3.7935 C   0  0  1  0  0  0  0  0  0  0  0  0
    1.6401   -5.9653   -5.0985 C   0  0  0  0  0  0  0  0  0  0  0  0
    2.0229   -4.6537   -5.8198 C   0  0  0  0  0  0  0  0  0  0  0  0
    2.5671   -4.1514   -4.4408 C   0  0  1  0  0  0  0  0  0  0  0  0
    2.1430   -2.7800   -3.9549 C   0  0  0  0  0  0  0  0  0  0  0  0
   -0.0000   -1.7204   -3.3762 C   0  0  0  0  0  0  0  0  0  0  0  0
   -0.7250   -1.9413   -4.6133 N   0  0  0  0  0  0  0  0  0  0  0  0
  1  2  1  0
  2  3  1  0
  3  4  2  0
  3  5  1  0
  6  7  1  0
  6 12  1  0
  6 13  1  1
  6  5  1  0
  8  7  1  6
  8  9  1  0
  8 11  1  0
  9 10  1  0
 11 10  1  6
 11 12  1  0
 13 14  1  0
M  END
>  <DRUGBANK_ID>  (1) 
DB12493

>  <COMMON_NAME>  (1) 
PD-217014

>  <CAS_NUMBER>  (1) 
444088-20-4

>  <UNII>  (1) 
K2T93E812G

$$$$
