
     RDKit          3D

 12 13  0  0  0  0  0  0  0  0999 V2000
    0.0171    1.1312    0.3257 C   0  0  2  0  0  0  0  0  0  0  0  0
   -0.0285   -0.0143    1.3702 C   0  0  0  0  0  0  0  0  0  0  0  0
   -0.0018   -1.1199    0.2676 C   0  0  1  0  0  0  0  0  0  0  0  0
   -1.2602   -0.7960   -0.5764 C   0  0  1  0  0  0  0  0  0  0  0  0
   -1.1770    0.7209   -0.5512 C   0  0  0  0  0  0  0  0  0  0  0  0
   -1.9531    1.4953   -1.0961 O   0  0  0  0  0  0  0  0  0  0  0  0
   -1.2492   -1.4570   -2.3831 Br  0  0  0  0  0  0  0  0  0  0  0  0
    1.2838   -0.7530   -0.5160 C   0  0  0  0  0  0  0  0  0  0  0  0
    1.2603    0.7908   -0.5288 C   0  0  0  0  0  0  0  0  0  0  0  0
    1.1704   -0.0257    2.3378 C   0  0  0  0  0  0  0  0  0  0  0  0
   -1.2946   -0.0133    2.2492 C   0  0  0  0  0  0  0  0  0  0  0  0
   -0.0086    2.5380    0.8797 C   0  0  0  0  0  0  0  0  0  0  0  0
  1  2  1  0
  1 12  1  1
  3  2  1  0
  3  4  1  0
  4  5  1  0
  4  7  1  6
  5  1  1  0
  6  5  2  0
  3  8  1  6
  8  9  1  0
  9  1  1  0
 10  2  1  0
 11  2  1  0
M  END
>  <DRUGBANK_ID>  (1) 
DB15915

>  <COMMON_NAME>  (1) 
Camphor monobromide

>  <CAS_NUMBER>  (1) 
76-29-9

>  <UNII>  (1) 
NAY429URSN

>  <SYNONYMS>  (1) 
3-Bromo-d-camphor; 3-Bromocamphor; Camphor bromide; Camphor, monobromated

$$$$
