MNS
     RDKit          3D

 17 18  0  0  0  0  0  0  0  0999 V2000
    1.2540   -1.4765   -0.0068 C   0  0  0  0  0  0  0  0  0  0  0  0
    2.4960   -0.8345   -0.0430 C   0  0  0  0  0  0  0  0  0  0  0  0
    2.5391    0.5321   -0.0163 C   0  0  0  0  0  0  0  0  0  0  0  0
    1.3483    1.2386    0.0352 C   0  0  0  0  0  0  0  0  0  0  0  0
    0.0413    0.6801    0.0143 C   0  0  0  0  0  0  0  0  0  0  0  0
   -1.1991    1.4511   -0.0058 C   0  0  0  0  0  0  0  0  0  0  0  0
   -2.3957    0.6967   -0.0103 C   0  0  0  0  0  0  0  0  0  0  0  0
   -2.4233   -0.6923   -0.0009 C   0  0  0  0  0  0  0  0  0  0  0  0
   -1.2370   -1.4013    0.0144 C   0  0  0  0  0  0  0  0  0  0  0  0
    0.0165   -0.7532    0.0104 C   0  0  0  0  0  0  0  0  0  0  0  0
   -1.2775    2.8533   -0.0361 N   0  0  0  0  0  0  0  0  0  0  0  0
   -2.5286    3.6071   -0.0756 C   0  0  0  0  0  0  0  0  0  0  0  0
   -0.1178    3.7339   -0.0503 C   0  0  0  0  0  0  0  0  0  0  0  0
    1.2521   -3.2502    0.0593 S   0  0  0  0  0  0  0  0  0  0  0  0
    0.7621   -3.6558    1.3527 O   0  0  0  0  0  0  0  0  0  0  0  0
    0.6981   -3.7552   -1.1787 O   0  0  0  0  0  0  0  0  0  0  0  0
    2.8801   -3.7044    0.0588 N   0  0  0  0  0  0  0  0  0  0  0  0
  1  2  2  0
  1 10  1  0
  1 14  1  0
  2  3  1  0
  3  4  2  0
  4  5  1  0
  5  6  1  0
  5 10  2  0
  6  7  2  0
  6 11  1  0
  7  8  1  0
  8  9  2  0
  9 10  1  0
 11 12  1  0
 11 13  1  0
 14 15  2  0
 14 16  2  0
 14 17  1  0
M  END
>  <DRUGBANK_ID>  (1) 
DB02866

>  <SECONDARY_ACCESSION_NUMBERS>  (1) 
EXPT02203

>  <COMMON_NAME>  (1) 
Dansylamide

>  <UNII>  (1) 
ZUZ5S5875E

$$$$
