
     RDKit          3D

 39 44  0  0  1  0  0  0  0  0999 V2000
    0.8408   -0.0086   -2.5427 C   0  0  0  0  0  0  0  0  0  0  0  0
    0.2696    0.6488   -1.2305 C   0  0  2  0  0  0  0  0  0  0  0  0
    0.7398    0.0284    0.1453 C   0  0  0  0  0  0  0  0  0  0  0  0
    1.6376   -1.0569   -0.2491 N   0  0  0  0  0  0  0  0  0  0  0  0
    1.9613   -2.3548    0.3640 C   0  0  0  0  0  0  0  0  0  0  0  0
    2.8358   -2.2897    1.6233 C   0  0  0  0  0  0  0  0  0  0  0  0
    3.9454   -1.3826    1.4685 O   0  0  0  0  0  0  0  0  0  0  0  0
    3.4641   -0.1365    0.9843 C   0  0  0  0  0  0  0  0  0  0  0  0
    2.9122   -0.3433   -0.4220 C   0  0  0  0  0  0  0  0  0  0  0  0
   -1.1794    0.6947   -1.2572 N   0  0  0  0  0  0  0  0  0  0  0  0
   -1.9889   -0.3597   -0.8522 C   0  0  0  0  0  0  0  0  0  0  0  0
   -1.4916   -1.5974   -0.4052 N   0  0  0  0  0  0  0  0  0  0  0  0
   -2.2850   -2.5862    0.0600 C   0  0  0  0  0  0  0  0  0  0  0  0
   -1.6708   -3.7006    0.5308 N   0  0  0  0  0  0  0  0  0  0  0  0
   -3.5441   -2.5820    0.1068 O   0  0  0  0  0  0  0  0  0  0  0  0
   -3.2465    0.0312   -0.9454 N   0  0  0  0  0  0  0  0  0  0  0  0
   -3.2703    1.2880   -1.5401 C   0  0  0  0  0  0  0  0  0  0  0  0
   -1.9695    1.7542   -1.6897 C   0  0  0  0  0  0  0  0  0  0  0  0
   -1.7381    3.0417   -2.2002 C   0  0  0  0  0  0  0  0  0  0  0  0
   -2.8961    3.7631   -2.7234 C   0  0  0  0  0  0  0  0  0  0  0  0
   -4.2610    3.2527   -2.7855 C   0  0  0  0  0  0  0  0  0  0  0  0
   -5.4787    3.9801   -3.7672 C   0  0  0  0  0  0  0  0  0  0  0  0
   -6.8983    4.1234   -4.1352 C   0  0  0  0  0  0  0  0  0  0  0  0
   -7.6347    4.6253   -5.7347 C   0  0  0  0  0  0  0  0  0  0  0  0
   -8.9215    4.9186   -6.4391 C   0  0  0  0  0  0  0  0  0  0  0  0
   -9.1073    4.3233   -7.7134 C   0  0  0  0  0  0  0  0  0  0  0  0
   -7.9661    3.7083   -8.1539 C   0  0  0  0  0  0  0  0  0  0  0  0
   -6.7242    4.2064   -7.6461 C   0  0  0  0  0  0  0  0  0  0  0  0
   -6.6934    5.0641   -6.5556 C   0  0  0  0  0  0  0  0  0  0  0  0
   -5.8595    6.2119   -6.0699 C   0  0  0  0  0  0  0  0  0  0  0  0
   -5.9499    6.5327   -4.6366 O   0  0  0  0  0  0  0  0  0  0  0  0
   -7.1505    6.4068   -3.9427 C   0  0  0  0  0  0  0  0  0  0  0  0
   -8.2788    7.1256   -4.2222 C   0  0  0  0  0  0  0  0  0  0  0  0
   -9.3981    6.9785   -3.4049 C   0  0  0  0  0  0  0  0  0  0  0  0
  -10.4819    7.7095   -3.6842 F   0  0  0  0  0  0  0  0  0  0  0  0
   -9.4310    6.0728   -2.3436 C   0  0  0  0  0  0  0  0  0  0  0  0
   -8.4516    5.0871   -2.3054 C   0  0  0  0  0  0  0  0  0  0  0  0
   -7.3869    5.2205   -3.2166 C   0  0  0  0  0  0  0  0  0  0  0  0
   -4.3968    2.0652   -2.0323 C   0  0  0  0  0  0  0  0  0  0  0  0
  2 10  1  0
  2  3  1  0
  2  1  1  6
  3  4  1  0
  4  5  1  0
  4  9  1  0
  5  6  1  0
  6  7  1  0
  7  8  1  0
  8  9  1  0
 10 11  1  0
 10 18  1  0
 11 12  1  0
 11 16  2  0
 12 13  1  0
 13 14  1  0
 13 15  2  0
 16 17  1  0
 17 18  2  0
 17 39  1  0
 18 19  1  0
 19 20  2  0
 20 21  1  0
 21 22  1  0
 21 39  2  0
 22 23  2  0
 23 24  1  0
 23 38  1  0
 24 25  2  0
 24 29  1  0
 25 26  1  0
 26 27  2  0
 27 28  1  0
 28 29  2  0
 29 30  1  0
 30 31  1  0
 31 32  1  0
 32 33  1  0
 32 38  2  0
 33 34  2  0
 34 35  1  0
 34 36  1  0
 36 37  2  0
 37 38  1  0
M  END
>  <DRUGBANK_ID>  (1) 
DB15367

>  <COMMON_NAME>  (1) 
LY-2623091

>  <CAS_NUMBER>  (1) 
1162264-07-4

>  <UNII>  (1) 
6FHZ595FNM

$$$$
