490
     RDKit          3D

 28 31  0  0  0  0  0  0  0  0999 V2000
    1.0327    0.0672    0.1927 O   0  0  0  0  0  0  0  0  0  0  0  0
    3.8873    2.0864   -2.0167 O   0  0  0  0  0  0  0  0  0  0  0  0
    3.0914    1.0873   -0.0708 N   0  0  0  0  0  0  0  0  0  0  0  0
    5.1207    5.1430    0.8882 N   0  0  0  0  0  0  0  0  0  0  0  0
    5.8550    7.4286   -0.7115 N   0  0  0  0  0  0  0  0  0  0  0  0
    7.1441    8.9988   -1.7997 N   0  0  0  0  0  0  0  0  0  0  0  0
    5.5955    9.6779   -0.1478 N   0  0  0  0  0  0  0  0  0  0  0  0
    3.9094   -1.3083   -1.2891 C   0  0  0  0  0  0  0  0  0  0  0  0
    3.0779   -1.4005   -2.5817 C   0  0  0  0  0  0  0  0  0  0  0  0
    4.8257   -2.5419   -1.2645 C   0  0  0  0  0  0  0  0  0  0  0  0
    3.8732   -2.3346   -3.4713 C   0  0  0  0  0  0  0  0  0  0  0  0
    4.4665   -3.3427   -2.5036 C   0  0  0  0  0  0  0  0  0  0  0  0
    3.0214   -1.2787   -0.0411 C   0  0  0  0  0  0  0  0  0  0  0  0
    4.7618   -0.0464   -1.3277 C   0  0  0  0  0  0  0  0  0  0  0  0
    2.2501    0.0122    0.0284 C   0  0  0  0  0  0  0  0  0  0  0  0
    3.8528    1.1585   -1.2176 C   0  0  0  0  0  0  0  0  0  0  0  0
    3.0285    2.1689    0.8967 C   0  0  0  0  0  0  0  0  0  0  0  0
    4.4156    2.3239    1.5672 C   0  0  0  0  0  0  0  0  0  0  0  0
    5.5185    2.7742    0.6014 C   0  0  0  0  0  0  0  0  0  0  0  0
    5.1357    4.0651   -0.1052 C   0  0  0  0  0  0  0  0  0  0  0  0
    4.1332    6.1914    0.5202 C   0  0  0  0  0  0  0  0  0  0  0  0
    6.4724    5.7569    0.9541 C   0  0  0  0  0  0  0  0  0  0  0  0
    4.4860    6.9492   -0.7755 C   0  0  0  0  0  0  0  0  0  0  0  0
    6.8884    6.4768   -0.3551 C   0  0  0  0  0  0  0  0  0  0  0  0
    6.1916    8.7325   -0.8914 C   0  0  0  0  0  0  0  0  0  0  0  0
    7.4654   10.2877   -2.0009 C   0  0  0  0  0  0  0  0  0  0  0  0
    6.0038   10.9496   -0.3367 C   0  0  0  0  0  0  0  0  0  0  0  0
    6.9289   11.3211   -1.2798 C   0  0  0  0  0  0  0  0  0  0  0  0
  1 15  2  0
  2 16  2  0
  3 15  1  0
  3 16  1  0
  3 17  1  0
  4 20  1  0
  4 21  1  0
  4 22  1  0
  5 23  1  0
  5 24  1  0
  5 25  1  0
  6 25  2  0
  6 26  1  0
  7 25  1  0
  7 27  2  0
  8  9  1  0
  8 10  1  0
  8 13  1  0
  8 14  1  0
  9 11  1  0
 10 12  1  0
 11 12  1  0
 13 15  1  0
 14 16  1  0
 17 18  1  0
 18 19  1  0
 19 20  1  0
 21 23  1  0
 22 24  1  0
 26 28  2  0
 27 28  1  0
M  END
>  <DRUGBANK_ID>  (1) 
DB00490

>  <SECONDARY_ACCESSION_NUMBERS>  (1) 
APRD00222

>  <COMMON_NAME>  (1) 
Buspirone

>  <CAS_NUMBER>  (1) 
36505-84-7

>  <UNII>  (1) 
TK65WKS8HL

>  <SYNONYMS>  (1) 
8-(4-(4-(2-Pyrimidinyl)-1-piperizinyl)butyl)-8-azaspiro(4,5)decane-7,9-dione; Buspiron; Buspirona; Buspirone; Buspironum

$$$$
