
     RDKit          3D

 26 28  0  0  0  0  0  0  0  0999 V2000
    0.9319   -0.0066   -0.0518 C   0  0  0  0  0  0  0  0  0  0  0  0
    0.3271    0.0198   -1.4556 C   0  0  0  0  0  0  0  0  0  0  0  0
    0.8234   -1.1351   -2.3437 C   0  0  0  0  0  0  0  0  0  0  0  0
    0.4961   -2.4167   -1.9119 C   0  0  0  0  0  0  0  0  0  0  0  0
    0.8413   -3.5245   -2.6736 C   0  0  0  0  0  0  0  0  0  0  0  0
    1.5065   -3.3788   -3.8946 C   0  0  0  0  0  0  0  0  0  0  0  0
    1.8963   -2.1196   -4.3497 C   0  0  0  0  0  0  0  0  0  0  0  0
    1.5900   -1.0195   -3.5538 C   0  0  0  0  0  0  0  0  0  0  0  0
    2.2306    0.2292   -3.9150 C   0  0  0  0  0  0  0  0  0  0  0  0
    2.7736    0.5530   -5.1154 C   0  0  0  0  0  0  0  0  0  0  0  0
    2.9858   -0.6503   -6.0225 C   0  0  0  0  0  0  0  0  0  0  0  0
    3.5567   -0.5333   -7.1223 O   0  0  0  0  0  0  0  0  0  0  0  0
    2.6001   -1.9165   -5.5724 N   0  0  0  0  0  0  0  0  0  0  0  0
    2.9057   -3.0696   -6.4067 C   0  0  0  0  0  0  0  0  0  0  0  0
    3.2937    1.9279   -5.5877 C   0  0  0  0  0  0  0  0  0  0  0  0
    3.9263    1.9676   -6.6610 O   0  0  0  0  0  0  0  0  0  0  0  0
    3.0987    3.1274   -4.8647 N   0  0  0  0  0  0  0  0  0  0  0  0
    2.1842    3.3328   -3.7329 C   0  0  0  0  0  0  0  0  0  0  0  0
    2.9797    3.5386   -2.4198 C   0  0  0  0  0  0  0  0  0  0  0  0
    3.5465    4.3755   -5.4008 C   0  0  0  0  0  0  0  0  0  0  0  0
    3.2265    4.7198   -6.7085 C   0  0  0  0  0  0  0  0  0  0  0  0
    3.5133    5.9990   -7.1731 C   0  0  0  0  0  0  0  0  0  0  0  0
    4.0668    6.9552   -6.3195 C   0  0  0  0  0  0  0  0  0  0  0  0
    4.3352    6.6410   -4.9969 C   0  0  0  0  0  0  0  0  0  0  0  0
    4.1496    5.3350   -4.5726 C   0  0  0  0  0  0  0  0  0  0  0  0
    2.3028    0.9464   -2.7749 O   0  0  0  0  0  0  0  0  0  0  0  0
  1  2  1  0
  2  3  1  0
  3  4  2  0
  3  8  1  0
  4  5  1  0
  5  6  2  0
  6  7  1  0
  7  8  2  0
  7 13  1  0
  8  9  1  0
  9 10  2  0
  9 26  1  0
 10 11  1  0
 10 15  1  0
 11 12  2  0
 11 13  1  0
 13 14  1  0
 15 16  2  0
 15 17  1  0
 17 18  1  0
 17 20  1  0
 18 19  1  0
 20 21  2  0
 20 25  1  0
 21 22  1  0
 22 23  2  0
 23 24  1  0
 24 25  2  0
M  END
>  <DRUGBANK_ID>  (1) 
DB13118

>  <SECONDARY_ACCESSION_NUMBERS>  (1) 
DB05901

>  <COMMON_NAME>  (1) 
Paquinimod

>  <CAS_NUMBER>  (1) 
248282-01-1

>  <UNII>  (1) 
HB76GLG27V

>  <SYNONYMS>  (1) 
Paquinimod

$$$$
