
     RDKit          3D

 23 23  0  0  0  0  0  0  0  0999 V2000
    0.8553   -0.0406   -0.3600 O   0  0  0  0  0  0  0  0  0  0  0  0
    6.4562   -1.9123    3.5142 O   0  0  0  0  0  0  0  0  0  0  0  0
    3.6704    6.2352    5.3540 O   0  0  0  0  0  0  0  0  0  0  0  0
    3.4744    4.5025    4.0171 O   0  0  0  0  0  0  0  0  0  0  0  0
    2.2795    0.4412    2.0183 N   0  0  0  0  0  0  0  0  0  0  0  0
    4.2420   -2.1032    3.2134 N   0  0  0  0  0  0  0  0  0  0  0  0
    2.8921    0.2281   -1.3080 N   0  0  0  0  0  0  0  0  0  0  0  0
    5.0248    1.0025    2.7464 N   0  0  0  0  0  0  0  0  0  0  0  0
    5.4259    2.3468    6.7985 N   0  0  0  0  0  0  0  0  0  0  0  0
    4.5055    4.3449    6.0223 N   0  0  0  0  0  0  0  0  0  0  0  0
    5.2223    2.8828    4.5097 N   0  0  0  0  0  0  0  0  0  0  0  0
    3.8682    5.0754    5.0666 N   0  0  0  0  0  0  0  0  0  0  0  0
    2.8125   -1.7501    3.0334 C   0  0  2  0  0  0  0  0  0  0  0  0
    2.4226   -1.8780    1.5740 C   0  0  0  0  0  0  0  0  0  0  0  0
    2.7704   -0.5079    1.0067 C   0  0  1  0  0  0  0  0  0  0  0  0
    2.3046   -0.3154    3.2515 C   0  0  0  0  0  0  0  0  0  0  0  0
    2.0749   -0.1275   -0.2788 C   0  0  0  0  0  0  0  0  0  0  0  0
    5.3512   -1.3772    3.5018 C   0  0  0  0  0  0  0  0  0  0  0  0
    5.2032    0.0575    3.9000 C   0  0  2  0  0  0  0  0  0  0  0  0
    4.2401    0.1741    5.1978 C   0  0  0  0  0  0  0  0  0  0  0  0
    4.9291   -0.0664    6.4949 C   0  0  0  0  0  0  0  0  0  0  0  0
    6.0074    0.9855    6.6672 C   0  0  0  0  0  0  0  0  0  0  0  0
    5.0660    3.1180    5.8250 C   0  0  0  0  0  0  0  0  0  0  0  0
  1 17  2  0
  2 18  2  0
  3 12  1  0
  4 12  2  0
  5 15  1  0
  5 16  1  0
  6 18  1  0
  7 17  1  0
  9 22  1  0
  9 23  2  0
 10 12  1  0
 10 23  1  0
 11 23  1  0
 13 14  1  0
 13 16  1  0
 13  6  1  6
 14 15  1  0
 15 17  1  6
 18 19  1  0
 19  8  1  6
 19 20  1  0
 20 21  1  0
 21 22  1  0
M  CHG  2   3  -1  12   1
M  END
>  <DRUGBANK_ID>  (1) 
DB02077

>  <SECONDARY_ACCESSION_NUMBERS>  (1) 
EXPT01254

>  <COMMON_NAME>  (1) 
L-N(omega)-nitroarginine-(4R)-amino-L-proline amide

$$$$
