
     RDKit          3D

 23 25  0  0  0  0  0  0  0  0999 V2000
    1.0197    0.0122    0.1490 O   0  0  0  0  0  0  0  0  0  0  0  0
    2.2471    0.0394   -0.0048 C   0  0  0  0  0  0  0  0  0  0  0  0
    2.9971    1.0136    0.8431 C   0  0  0  0  0  0  0  0  0  0  0  0
    2.6728    1.1517    2.1483 C   0  0  0  0  0  0  0  0  0  0  0  0
    1.7211    0.3900    2.8107 O   0  0  0  0  0  0  0  0  0  0  0  0
    3.3245    2.1851    2.9794 C   0  0  0  0  0  0  0  0  0  0  0  0
    4.3085    3.0068    2.4052 C   0  0  0  0  0  0  0  0  0  0  0  0
    4.6473    2.8305    1.0358 N   0  0  0  0  0  0  0  0  0  0  0  0
    5.6605    3.6691    0.4189 C   0  0  0  0  0  0  0  0  0  0  0  0
    3.9517    1.9596    0.2197 C   0  0  0  0  0  0  0  0  0  0  0  0
    4.1030    1.9605   -1.0066 O   0  0  0  0  0  0  0  0  0  0  0  0
    4.9139    4.0107    3.1788 C   0  0  0  0  0  0  0  0  0  0  0  0
    4.5498    4.2068    4.5092 C   0  0  0  0  0  0  0  0  0  0  0  0
    3.5860    3.3908    5.0871 C   0  0  0  0  0  0  0  0  0  0  0  0
    2.9780    2.3856    4.3290 C   0  0  0  0  0  0  0  0  0  0  0  0
    2.9427   -0.8526   -0.8362 N   0  0  0  0  0  0  0  0  0  0  0  0
    2.2033   -1.6732   -1.7521 C   0  0  0  0  0  0  0  0  0  0  0  0
    1.1452   -1.1216   -2.4853 C   0  0  0  0  0  0  0  0  0  0  0  0
    0.4166   -1.8947   -3.3905 C   0  0  0  0  0  0  0  0  0  0  0  0
    0.7451   -3.2324   -3.5856 C   0  0  0  0  0  0  0  0  0  0  0  0
    1.8186   -3.7889   -2.8932 C   0  0  0  0  0  0  0  0  0  0  0  0
    2.5306   -3.0208   -1.9636 C   0  0  0  0  0  0  0  0  0  0  0  0
    4.4050   -0.9734   -0.8884 C   0  0  0  0  0  0  0  0  0  0  0  0
  1  2  2  0
  2  3  1  0
  2 16  1  0
  3  4  2  0
  3 10  1  0
  4  5  1  0
  4  6  1  0
  6  7  2  0
  6 15  1  0
  7  8  1  0
  7 12  1  0
  8  9  1  0
  8 10  1  0
 10 11  2  0
 12 13  2  0
 13 14  1  0
 14 15  2  0
 16 17  1  0
 16 23  1  0
 17 18  2  0
 17 22  1  0
 18 19  1  0
 19 20  2  0
 20 21  1  0
 21 22  2  0
M  END
>  <DRUGBANK_ID>  (1) 
DB11366

>  <COMMON_NAME>  (1) 
Roquinimex

>  <CAS_NUMBER>  (1) 
84088-42-6

>  <UNII>  (1) 
372T2944C0

>  <SYNONYMS>  (1) 
Linomide; Roquinimex

$$$$
