
     RDKit          3D

 21 23  0  0  0  0  0  0  0  0999 V2000
    0.9109   -0.3856    0.1411 C   0  0  0  0  0  0  0  0  0  0  0  0
    0.3880   -0.5277   -1.2135 N   0  0  0  0  0  0  0  0  0  0  0  0
   -1.0781   -0.5374   -1.2092 C   0  0  0  0  0  0  0  0  0  0  0  0
    0.8569    0.5650   -2.0640 C   0  0  0  0  0  0  0  0  0  0  0  0
    0.2277    1.9233   -1.7281 C   0  0  0  0  0  0  0  0  0  0  0  0
    0.8175    2.6252   -0.5280 C   0  0  0  0  0  0  0  0  0  0  0  0
    1.7056    3.5992   -0.3091 C   0  0  0  0  0  0  0  0  0  0  0  0
    2.1614    3.7962    1.1414 C   0  0  0  0  0  0  0  0  0  0  0  0
    1.8290    2.9016    2.2001 C   0  0  0  0  0  0  0  0  0  0  0  0
    2.2483    3.0998    3.5225 C   0  0  0  0  0  0  0  0  0  0  0  0
    3.0443    4.1848    3.8304 C   0  0  0  0  0  0  0  0  0  0  0  0
    3.4187    5.0576    2.8154 C   0  0  0  0  0  0  0  0  0  0  0  0
    2.9926    4.8713    1.4842 C   0  0  0  0  0  0  0  0  0  0  0  0
    3.6104    6.0877    0.3504 S   0  0  0  0  0  0  0  0  0  0  0  0
    2.9807    5.5816   -1.2223 C   0  0  0  0  0  0  0  0  0  0  0  0
    3.3132    6.4312   -2.3031 C   0  0  0  0  0  0  0  0  0  0  0  0
    2.8730    6.1987   -3.6075 C   0  0  0  0  0  0  0  0  0  0  0  0
    2.0810    5.1200   -3.8388 C   0  0  0  0  0  0  0  0  0  0  0  0
    1.4488    4.7273   -5.3916 Cl  0  0  0  0  0  0  0  0  0  0  0  0
    1.7415    4.3206   -2.7663 C   0  0  0  0  0  0  0  0  0  0  0  0
    2.1730    4.4754   -1.4392 C   0  0  0  0  0  0  0  0  0  0  0  0
  1  2  1  0
  2  3  1  0
  2  4  1  0
  4  5  1  0
  5  6  1  0
  6  7  2  0
  7  8  1  0
  7 21  1  0
  8  9  1  0
  8 13  2  0
  9 10  2  0
 10 11  1  0
 11 12  2  0
 12 13  1  0
 13 14  1  0
 14 15  1  0
 15 16  1  0
 15 21  2  0
 16 17  2  0
 17 18  1  0
 18 19  1  0
 18 20  2  0
 20 21  1  0
M  END
>  <DRUGBANK_ID>  (1) 
DB01239

>  <SECONDARY_ACCESSION_NUMBERS>  (1) 
APRD00718

>  <COMMON_NAME>  (1) 
Chlorprothixene

>  <CAS_NUMBER>  (1) 
113-59-7

>  <UNII>  (1) 
9S7OD60EWP

>  <SYNONYMS>  (1) 
Alpha-Chlorprothixene; Chlorprothixen; Chlorprothixene; Chlorprothixine; Chlorprotixen; Chlorprotixene; Chlorprotixine; Chlothixen

$$$$
