
     RDKit          3D

 27 29  0  0  0  0  0  0  0  0999 V2000
    0.7465   -0.2354    0.0329 C   0  0  0  0  0  0  0  0  0  0  0  0
    0.3818   -0.0740   -1.4620 C   0  0  0  0  0  0  0  0  0  0  0  0
   -1.1004   -0.4605   -1.5575 C   0  0  0  0  0  0  0  0  0  0  0  0
    1.2506   -1.0134   -2.3337 C   0  0  0  0  0  0  0  0  0  0  0  0
    2.7141   -0.5520   -2.4106 C   0  0  0  0  0  0  0  0  0  0  0  0
    2.8061    0.8702   -2.9577 C   0  0  0  0  0  0  0  0  0  0  0  0
    2.0066    1.8506   -2.0681 C   0  0  0  0  0  0  0  0  0  0  0  0
    2.6124    1.9491   -0.6619 C   0  0  0  0  0  0  0  0  0  0  0  0
    2.0721    3.2606   -2.6619 C   0  0  0  0  0  0  0  0  0  0  0  0
    0.5399    1.3736   -1.9999 C   0  0  0  0  0  0  0  0  0  0  0  0
    3.7910   -1.2763   -1.9944 C   0  0  0  0  0  0  0  0  0  0  0  0
    5.1753   -0.7020   -2.0634 C   0  0  0  0  0  0  0  0  0  0  0  0
    5.5656    0.4086   -1.3001 C   0  0  0  0  0  0  0  0  0  0  0  0
    6.8410    0.9681   -1.4000 C   0  0  0  0  0  0  0  0  0  0  0  0
    7.7770    0.3514   -2.2121 C   0  0  0  0  0  0  0  0  0  0  0  0
    9.0533    0.8174   -2.3119 O   0  0  0  0  0  0  0  0  0  0  0  0
    7.4393   -0.7855   -2.9380 C   0  0  0  0  0  0  0  0  0  0  0  0
    6.1420   -1.3073   -2.8715 C   0  0  0  0  0  0  0  0  0  0  0  0
    3.6145   -2.6672   -1.4934 C   0  0  0  0  0  0  0  0  0  0  0  0
    3.0555   -3.6625   -2.3022 C   0  0  0  0  0  0  0  0  0  0  0  0
    3.0260   -4.9922   -1.8731 C   0  0  0  0  0  0  0  0  0  0  0  0
    3.5931   -5.3603   -0.6424 C   0  0  0  0  0  0  0  0  0  0  0  0
    4.1918   -4.3702    0.1442 C   0  0  0  0  0  0  0  0  0  0  0  0
    4.1463   -3.0285   -0.2505 C   0  0  0  0  0  0  0  0  0  0  0  0
    3.4816   -6.7950   -0.2334 C   0  0  0  0  0  0  0  0  0  0  0  0
    4.0099   -7.1251    0.9660 O   0  0  0  0  0  0  0  0  0  0  0  0
    2.9182   -7.6198   -0.9266 O   0  0  0  0  0  0  0  0  0  0  0  0
  1  2  1  0
  2  3  1  0
  2  4  1  0
  2 10  1  0
  4  5  1  0
  5  6  1  0
  5 11  2  3
  6  7  1  0
  7  8  1  0
  7  9  1  0
  7 10  1  0
 11 12  1  0
 11 19  1  0
 12 13  2  0
 12 18  1  0
 13 14  1  0
 14 15  2  0
 15 16  1  0
 15 17  1  0
 17 18  2  0
 19 20  2  0
 19 24  1  0
 20 21  1  0
 21 22  2  0
 22 23  1  0
 22 25  1  0
 23 24  2  0
 25 26  1  0
 25 27  2  0
M  END
>  <DRUGBANK_ID>  (1) 
DB16110

>  <COMMON_NAME>  (1) 
GSK232802

>  <CAS_NUMBER>  (1) 
843661-24-5

>  <UNII>  (1) 
AG92SGO434

$$$$
