
     RDKit          3D

 41 44  0  0  0  0  0  0  0  0999 V2000
    1.4238    0.3887   -0.4863 C   0  0  0  0  0  0  0  0  0  0  0  0
    0.2164   -0.7659   -0.7382 C   0  0  0  0  0  0  0  0  0  0  0  0
   -1.1653   -0.9822   -0.9442 C   0  0  0  0  0  0  0  0  0  0  0  0
   -1.6644    0.2683   -0.9258 C   0  0  0  0  0  0  0  0  0  0  0  0
   -0.7868    1.4176   -1.0045 C   0  0  0  0  0  0  0  0  0  0  0  0
    0.6747    1.4135   -0.9788 C   0  0  0  0  0  0  0  0  0  0  0  0
    4.0853   -0.3774   -1.5889 C   0  0  0  0  0  0  0  0  0  0  0  0
    3.3722   -0.1781    0.4757 C   0  0  0  0  0  0  0  0  0  0  0  0
    4.7440    0.5930   -2.1634 O   0  0  0  0  0  0  0  0  0  0  0  0
    3.3593   -0.7570   -2.6577 O   0  0  0  0  0  0  0  0  0  0  0  0
   -1.8943   -2.1244   -0.5487 O   0  0  0  0  0  0  0  0  0  0  0  0
   -1.3944   -3.4928   -0.2910 C   0  0  0  0  0  0  0  0  0  0  0  0
   -0.4231   -3.9443   -1.3331 C   0  0  0  0  0  0  0  0  0  0  0  0
    0.8370   -3.1847   -1.4489 C   0  0  0  0  0  0  0  0  0  0  0  0
    1.5246   -3.3348   -0.1428 N   0  0  0  0  0  0  0  0  0  0  0  0
    2.7828   -2.5588   -0.1771 C   0  0  0  0  0  0  0  0  0  0  0  0
    2.3511   -1.0716   -0.2923 C   0  0  0  0  0  0  0  0  0  0  0  0
    2.1753   -0.6805    1.8056 C   0  0  0  0  0  0  0  0  0  0  0  0
    1.7647   -1.4472    2.8779 C   0  0  0  0  0  0  0  0  0  0  0  0
    0.6834   -1.1594    3.8236 C   0  0  0  0  0  0  0  0  0  0  0  0
    0.3570    0.1752    4.1089 C   0  0  0  0  0  0  0  0  0  0  0  0
    1.2106    1.1885    3.5762 C   0  0  0  0  0  0  0  0  0  0  0  0
    2.1252    0.8332    2.4484 C   0  0  0  0  0  0  0  0  0  0  0  0
    3.3174    0.9739   -0.6561 C   0  0  0  0  0  0  0  0  0  0  0  0
    3.0973    2.2739   -0.3394 C   0  0  0  0  0  0  0  0  0  0  0  0
    4.2076    2.9996   -0.0238 C   0  0  0  0  0  0  0  0  0  0  0  0
    5.5444    2.4941    0.1688 C   0  0  0  0  0  0  0  0  0  0  0  0
    6.0028    1.2323    0.3673 C   0  0  0  0  0  0  0  0  0  0  0  0
    5.0355    0.4923   -0.0394 C   0  0  0  0  0  0  0  0  0  0  0  0
    0.6409   -3.0282    1.1725 C   0  0  0  0  0  0  0  0  0  0  0  0
   -0.3567   -1.4432    1.5167 C   0  0  0  0  0  0  0  0  0  0  0  0
   -1.5949   -1.2566    1.9315 C   0  0  0  0  0  0  0  0  0  0  0  0
   -2.0613    0.1680    1.9633 C   0  0  0  0  0  0  0  0  0  0  0  0
   -1.4485    1.4796    1.8324 C   0  0  0  0  0  0  0  0  0  0  0  0
   -0.2232    1.4284    1.5829 C   0  0  0  0  0  0  0  0  0  0  0  0
    0.0395    0.0387    1.4401 C   0  0  0  0  0  0  0  0  0  0  0  0
   -3.4367    0.4267    2.0217 C   0  0  0  0  0  0  0  0  0  0  0  0
   -3.5437    1.1571    3.1402 F   0  0  0  0  0  0  0  0  0  0  0  0
   -3.8641    1.1463    0.9614 F   0  0  0  0  0  0  0  0  0  0  0  0
   -4.1188   -0.7011    2.0856 F   0  0  0  0  0  0  0  0  0  0  0  0
   -2.5375   -2.6151    2.3073 Cl  0  0  0  0  0  0  0  0  0  0  0  0
  1  2  2  0
  1  6  1  0
  1  8  1  0
  2  3  1  0
  3  4  2  0
  3 11  1  0
  4  5  1  0
  5  6  2  0
  7  8  1  0
  7  9  2  0
  7 10  1  0
 11 12  1  0
 12 13  1  0
 13 14  1  0
 14 15  1  0
 15 16  1  0
 15 30  1  0
 16 17  1  0
 17 18  1  0
 17 24  1  0
 18 19  2  0
 18 23  1  0
 19 20  1  0
 20 21  2  0
 21 22  1  0
 22 23  2  0
 24 25  2  0
 24 29  1  0
 25 26  1  0
 26 27  2  0
 27 28  1  0
 28 29  2  0
 30 31  1  0
 31 32  2  0
 31 36  1  0
 32 33  1  0
 32 41  1  0
 33 34  2  0
 33 37  1  0
 34 35  1  0
 35 36  2  0
 37 38  1  0
 37 39  1  0
 37 40  1  0
M  END
>  <DRUGBANK_ID>  (1) 
DB03791

>  <SECONDARY_ACCESSION_NUMBERS>  (1) 
EXPT00345

>  <COMMON_NAME>  (1) 
GW-3965

>  <CAS_NUMBER>  (1) 
405911-09-3

>  <UNII>  (1) 
6JI5YOG7RC

$$$$
