
     RDKit          3D

 36 41  0  0  1  0  0  0  0  0999 V2000
    1.6429   -0.3768   -0.0622 C   0  0  0  0  0  0  0  0  0  0  0  0
    0.6955   -1.4628   -0.0187 C   0  0  0  0  0  0  0  0  0  0  0  0
   -0.6402   -1.2031    0.2863 C   0  0  0  0  0  0  0  0  0  0  0  0
   -0.8450   -0.0128    0.9359 C   0  0  0  0  0  0  0  0  0  0  0  0
    0.0600    1.0584    0.8604 C   0  0  0  0  0  0  0  0  0  0  0  0
    1.2762    0.9572    0.1986 C   0  0  0  0  0  0  0  0  0  0  0  0
    2.0500    2.2011   -0.1614 C   0  0  0  0  0  0  0  0  0  0  0  0
    2.6324    2.2696   -1.3751 N   0  0  0  0  0  0  0  0  0  0  0  0
    3.2995    3.4029   -1.6345 C   0  0  0  0  0  0  0  0  0  0  0  0
    3.3315    4.4384   -0.7740 N   0  0  0  0  0  0  0  0  0  0  0  0
    2.6798    4.3201    0.3954 C   0  0  0  0  0  0  0  0  0  0  0  0
    2.0451    3.2002    0.7408 N   0  0  0  0  0  0  0  0  0  0  0  0
    2.7659    5.3363    1.3080 N   0  0  0  0  0  0  0  0  0  0  0  0
    2.3496    6.7220    1.1387 C   0  0  2  0  0  0  0  0  0  0  0  0
    3.4911    7.4851    1.8434 C   0  0  0  0  0  0  0  0  0  0  0  0
    4.0401    6.4906    2.8720 C   0  0  0  0  0  0  0  0  0  0  0  0
    3.1539    5.2301    2.7090 C   0  0  1  0  0  0  0  0  0  0  0  0
    1.9281    5.4009    3.6333 C   0  0  0  0  0  0  0  0  0  0  0  0
    0.9878    6.4247    3.2814 O   0  0  0  0  0  0  0  0  0  0  0  0
    1.0402    6.9550    1.9467 C   0  0  0  0  0  0  0  0  0  0  0  0
    4.0502    3.4883   -2.7929 N   0  0  0  0  0  0  0  0  0  0  0  0
    3.5126    3.3289   -4.1467 C   0  0  0  0  0  0  0  0  0  0  0  0
    4.2642    2.2207   -4.9156 C   0  0  0  0  0  0  0  0  0  0  0  0
    5.6890    2.4278   -4.8948 O   0  0  0  0  0  0  0  0  0  0  0  0
    6.1616    2.4728   -3.5361 C   0  0  0  0  0  0  0  0  0  0  0  0
    5.5078    3.6321   -2.7466 C   0  0  0  0  0  0  0  0  0  0  0  0
   -1.7503   -2.0537    0.0087 N   0  0  0  0  0  0  0  0  0  0  0  0
   -3.1066   -1.8111   -0.0247 C   0  0  0  0  0  0  0  0  0  0  0  0
   -3.8740   -2.7947    0.0711 O   0  0  0  0  0  0  0  0  0  0  0  0
   -3.6985   -0.5779   -0.1048 N   0  0  0  0  0  0  0  0  0  0  0  0
   -3.2085    0.7019   -0.4687 C   0  0  0  0  0  0  0  0  0  0  0  0
   -2.2624    0.8449   -1.4775 C   0  0  0  0  0  0  0  0  0  0  0  0
   -1.5174    2.0161   -1.5135 C   0  0  0  0  0  0  0  0  0  0  0  0
   -1.6906    3.0577   -0.6653 N   0  0  0  0  0  0  0  0  0  0  0  0
   -2.6204    2.8993    0.3020 C   0  0  0  0  0  0  0  0  0  0  0  0
   -3.4401    1.7777    0.4110 C   0  0  0  0  0  0  0  0  0  0  0  0
  1  2  2  0
  1  6  1  0
  2  3  1  0
  3  4  2  0
  3 27  1  0
  4  5  1  0
  5  6  2  0
  6  7  1  0
  7  8  2  0
  7 12  1  0
  8  9  1  0
  9 10  2  0
  9 21  1  0
 10 11  1  0
 11 12  2  0
 11 13  1  0
 14 13  1  0
 14 15  1  1
 14 20  1  0
 15 16  1  0
 17 16  1  1
 17 13  1  0
 17 18  1  0
 18 19  1  0
 19 20  1  0
 21 22  1  0
 21 26  1  0
 22 23  1  0
 23 24  1  0
 24 25  1  0
 25 26  1  0
 27 28  1  0
 28 29  2  0
 28 30  1  0
 30 31  1  0
 31 32  2  0
 31 36  1  0
 32 33  1  0
 33 34  2  0
 34 35  1  0
 35 36  2  0
M  END
>  <DRUGBANK_ID>  (1) 
DB13109

>  <COMMON_NAME>  (1) 
PKI-179

>  <CAS_NUMBER>  (1) 
1197160-28-3

>  <UNII>  (1) 
CNN7Y60164

$$$$
