
     RDKit          3D

 21 23  0  0  1  0  0  0  0  0999 V2000
    0.9741    0.0014   -0.0790 C   0  0  0  0  0  0  0  0  0  0  0  0
    0.5280    1.3691    0.1416 N   0  0  0  0  0  0  0  0  0  0  0  0
   -0.6261    1.7647    0.7014 C   0  0  0  0  0  0  0  0  0  0  0  0
   -0.6483    3.1113    0.7220 N   0  0  0  0  0  0  0  0  0  0  0  0
    0.5292    3.5736    0.1645 C   0  0  0  0  0  0  0  0  0  0  0  0
    1.2653    2.4933   -0.2164 C   0  0  0  0  0  0  0  0  0  0  0  0
    2.5460    2.7026   -0.8505 C   0  0  0  0  0  0  0  0  0  0  0  0
    3.2816    1.7952   -1.2426 O   0  0  0  0  0  0  0  0  0  0  0  0
    2.9244    4.0381   -1.0012 N   0  0  0  0  0  0  0  0  0  0  0  0
    2.1625    5.0124   -0.6012 C   0  0  0  0  0  0  0  0  0  0  0  0
    0.9530    4.8492    0.0064 N   0  0  0  0  0  0  0  0  0  0  0  0
    2.5511    6.3014   -0.7124 N   0  0  0  0  0  0  0  0  0  0  0  0
   -1.7152    3.8977    1.3332 C   0  0  1  0  0  0  0  0  0  0  0  0
   -1.2416    4.7586    2.5036 C   0  0  1  0  0  0  0  0  0  0  0  0
   -2.2039    5.9328    2.4529 C   0  0  1  0  0  0  0  0  0  0  0  0
   -2.5745    6.0486    0.9690 C   0  0  2  0  0  0  0  0  0  0  0  0
   -2.2909    4.7638    0.3554 O   0  0  0  0  0  0  0  0  0  0  0  0
   -1.7928    7.1487    0.2346 C   0  0  0  0  0  0  0  0  0  0  0  0
   -0.3901    6.9006    0.2626 O   0  0  0  0  0  0  0  0  0  0  0  0
   -3.3454    5.6529    3.2648 O   0  0  0  0  0  0  0  0  0  0  0  0
   -1.2431    4.0377    3.7319 O   0  0  0  0  0  0  0  0  0  0  0  0
  1  2  1  0
  2  3  1  0
  2  6  1  0
  3  4  2  0
  4  5  1  0
 13  4  1  6
  5  6  2  0
  5 11  1  0
  6  7  1  0
  7  8  2  0
  7  9  1  0
  9 10  2  0
 10 11  1  0
 10 12  1  0
 13 14  1  0
 13 17  1  0
 14 15  1  0
 14 21  1  1
 15 16  1  0
 15 20  1  1
 16 17  1  0
 16 18  1  6
 18 19  1  0
M  CHG  1   4   1
M  END
>  <DRUGBANK_ID>  (1) 
DB03493

>  <SECONDARY_ACCESSION_NUMBERS>  (1) 
EXPT02164

>  <COMMON_NAME>  (1) 
7-Methylguanosine

>  <UNII>  (1) 
5290OM2I6G

$$$$
