519
     RDKit          3D

 31 33  0  0  1  0  0  0  0  0999 V2000
    1.0449   -0.0944    0.3610 O   0  0  0  0  0  0  0  0  0  0  0  0
    0.4961    0.6256    3.5733 O   0  0  0  0  0  0  0  0  0  0  0  0
    0.3874    2.3249    2.0867 O   0  0  0  0  0  0  0  0  0  0  0  0
    2.4848   -5.5287   -1.9222 O   0  0  0  0  0  0  0  0  0  0  0  0
    2.3422   -4.9784    0.2391 O   0  0  0  0  0  0  0  0  0  0  0  0
    2.9562    0.9621    0.9787 N   0  0  0  0  0  0  0  0  0  0  0  0
    2.6695   -2.2538   -0.4725 N   0  0  0  0  0  0  0  0  0  0  0  0
    3.9028    2.9802    1.5731 C   0  0  1  0  0  0  0  0  0  0  0  0
    4.1601    1.7470    0.7001 C   0  0  2  0  0  0  0  0  0  0  0  0
    3.3071    2.4267    2.8529 C   0  0  0  0  0  0  0  0  0  0  0  0
    2.5263    1.1818    2.3756 C   0  0  1  0  0  0  0  0  0  0  0  0
    5.1510    3.8211    1.7255 C   0  0  0  0  0  0  0  0  0  0  0  0
    4.4066    2.2522   -0.7168 C   0  0  0  0  0  0  0  0  0  0  0  0
    5.5216    4.3770    0.3544 C   0  0  0  0  0  0  0  0  0  0  0  0
    5.4998    3.3417   -0.7831 C   0  0  0  0  0  0  0  0  0  0  0  0
    2.2570    0.0615    0.1926 C   0  0  0  0  0  0  0  0  0  0  0  0
    1.0325    1.4341    2.6217 C   0  0  0  0  0  0  0  0  0  0  0  0
    3.0222   -0.8525   -0.7900 C   0  0  2  0  0  0  0  0  0  0  0  0
    2.6208   -0.5795   -2.2371 C   0  0  0  0  0  0  0  0  0  0  0  0
    3.3931   -3.2958   -1.2283 C   0  0  1  0  0  0  0  0  0  0  0  0
    4.9074   -3.1662   -1.0343 C   0  0  0  0  0  0  0  0  0  0  0  0
    2.7052   -4.6656   -0.9003 C   0  0  0  0  0  0  0  0  0  0  0  0
    5.3607   -3.3731    0.4080 C   0  0  0  0  0  0  0  0  0  0  0  0
    5.1655   -4.7964    0.8501 C   0  0  0  0  0  0  0  0  0  0  0  0
    2.1478   -5.0613   -3.2371 C   0  0  0  0  0  0  0  0  0  0  0  0
    5.4494   -5.8543   -0.0308 C   0  0  0  0  0  0  0  0  0  0  0  0
    4.5983   -5.0870    2.0967 C   0  0  0  0  0  0  0  0  0  0  0  0
    5.1629   -7.1668    0.3137 C   0  0  0  0  0  0  0  0  0  0  0  0
    4.3842   -6.4140    2.4707 C   0  0  0  0  0  0  0  0  0  0  0  0
    1.0713   -3.9838   -3.2348 C   0  0  0  0  0  0  0  0  0  0  0  0
    4.6534   -7.4487    1.5743 C   0  0  0  0  0  0  0  0  0  0  0  0
  1 16  2  0
  2 17  1  0
  3 17  2  0
  4 22  1  0
  4 25  1  0
  5 22  2  0
  6  9  1  0
  6 11  1  0
  6 16  1  0
  8  9  1  0
  8 10  1  1
  8 12  1  0
  9 13  1  6
 10 11  1  0
 11 17  1  6
 12 14  1  0
 13 15  1  0
 14 15  1  0
 16 18  1  0
 18  7  1  0
 18 19  1  6
 20  7  1  0
 20 21  1  1
 20 22  1  0
 21 23  1  0
 23 24  1  0
 24 26  2  0
 24 27  1  0
 25 30  1  0
 26 28  1  0
 27 29  2  0
 28 31  2  0
 29 31  1  0
M  END
>  <DRUGBANK_ID>  (1) 
DB00519

>  <SECONDARY_ACCESSION_NUMBERS>  (1) 
APRD01269

>  <COMMON_NAME>  (1) 
Trandolapril

>  <CAS_NUMBER>  (1) 
87679-37-6

>  <UNII>  (1) 
1T0N3G9CRC

>  <SYNONYMS>  (1) 
Trandolapril; Trandolaprilum

$$$$
