
     RDKit          3D

 15 16  0  0  0  0  0  0  0  0999 V2000
    2.1838   -0.6753   -0.0165 C   0  0  0  0  0  0  0  0  0  0  0  0
    2.1459    0.7162   -0.0299 C   0  0  0  0  0  0  0  0  0  0  0  0
    0.9998   -1.4164    0.0161 C   0  0  0  0  0  0  0  0  0  0  0  0
    0.9286    1.4066   -0.0031 C   0  0  0  0  0  0  0  0  0  0  0  0
   -2.0760   -2.6087   -0.0145 C   0  0  0  0  0  0  0  0  0  0  0  0
   -2.3891   -0.0555   -0.0633 C   0  0  0  0  0  0  0  0  0  0  0  0
   -1.6013   -1.1901   -0.0220 C   0  0  0  0  0  0  0  0  0  0  0  0
   -0.2411   -0.7486    0.0019 C   0  0  0  0  0  0  0  0  0  0  0  0
   -2.9308   -2.8841    1.1987 C   0  0  0  0  0  0  0  0  0  0  0  0
   -0.2489    0.6465   -0.0006 C   0  0  0  0  0  0  0  0  0  0  0  0
   -4.3805   -3.3349    0.9892 C   0  0  0  0  0  0  0  0  0  0  0  0
   -2.4548   -2.7594    2.4056 N   0  0  0  0  0  0  0  0  0  0  0  0
   -1.5679    1.0392   -0.0025 N   0  0  0  0  0  0  0  0  0  0  0  0
   -5.1331   -3.5570    1.9217 O   0  0  0  0  0  0  0  0  0  0  0  0
   -4.7457   -3.4869   -0.2827 O   0  0  0  0  0  0  0  0  0  0  0  0
  2  1  2  0
  3  1  1  0
  4  2  1  0
  7  5  1  0
  7  6  2  0
  8  3  2  0
  8  7  1  0
  9  5  1  0
 10  4  2  0
 10  8  1  0
 11  9  1  0
 12  9  2  0
 13  6  1  0
 13 10  1  0
 14 11  2  0
 15 11  1  0
M  END
>  <DRUGBANK_ID>  (1) 
DB02988

>  <SECONDARY_ACCESSION_NUMBERS>  (1) 
EXPT01942

>  <COMMON_NAME>  (1) 
Imino-Tryptophan

$$$$
