
     RDKit          3D

 10  9  0  0  1  0  0  0  0  0999 V2000
    0.9023    1.9129   -1.5593 C   0  0  0  0  0  0  0  0  0  0  0  0
    0.4671    1.4318   -0.1639 C   0  0  2  0  0  0  0  0  0  0  0  0
    1.2164    0.1500    0.2926 C   0  0  0  0  0  0  0  0  0  0  0  0
   -1.0048    1.3435   -0.0372 N   0  0  0  0  0  0  0  0  0  0  0  0
    1.6968   -0.0540    1.4038 O   0  0  0  0  0  0  0  0  0  0  0  0
    1.3830   -0.7748   -0.6722 O   0  0  0  0  0  0  0  0  0  0  0  0
    0.8562    1.8676   -3.8553 O   0  0  0  0  0  0  0  0  0  0  0  0
    0.4815   -0.2406   -2.7290 O   0  0  0  0  0  0  0  0  0  0  0  0
   -1.2022    0.6306   -3.8700 O   0  0  0  0  0  0  0  0  0  0  0  0
   -0.2377    1.2183   -2.8110 P   0  0  0  0  0  0  0  0  0  0  0  0
  2  4  1  6
  2  3  1  0
  2  1  1  0
  5  3  2  0
  6  3  1  0
 10  1  1  0
 10  7  1  0
 10  8  1  0
 10  9  2  0
M  END
>  <DRUGBANK_ID>  (1) 
DB03292

>  <SECONDARY_ACCESSION_NUMBERS>  (1) 
EXPT00542

>  <COMMON_NAME>  (1) 
3-Phosphono-D-alanine

>  <CAS_NUMBER>  (1) 
128241-72-5

>  <UNII>  (1) 
ZL1D9LZ2KD

>  <SYNONYMS>  (1) 
(S)-2-Amino-3-phosphonopropanoic acid; D-2-Amino-3-phosphonopropionic acid

$$$$
