
     RDKit          3D

  9  8  0  0  0  0  0  0  0  0999 V2000
    1.1459   -0.0264    0.0136 C   0  0  0  0  0  0  0  0  0  0  0  0
    0.5275    0.7951   -0.8524 C   0  0  0  0  0  0  0  0  0  0  0  0
    1.1914    1.7069   -1.8136 C   0  0  0  0  0  0  0  0  0  0  0  0
    0.3253   -0.8728    0.9057 C   0  0  0  0  0  0  0  0  0  0  0  0
    1.0515   -1.6536    1.7288 O   0  0  0  0  0  0  0  0  0  0  0  0
   -0.8963   -0.8766    0.9097 O   0  0  0  0  0  0  0  0  0  0  0  0
    0.5517    2.4240   -2.5696 O   0  0  0  0  0  0  0  0  0  0  0  0
    2.5445    1.6409   -1.7440 O   0  0  0  0  0  0  0  0  0  0  0  0
    3.2286    2.5100   -2.6603 C   0  0  0  0  0  0  0  0  0  0  0  0
  1  2  2  0
  1  4  1  0
  2  3  1  0
  3  7  2  0
  3  8  1  0
  4  5  1  0
  4  6  2  0
  8  9  1  0
M  END
>  <DRUGBANK_ID>  (1) 
DB14219

>  <COMMON_NAME>  (1) 
Monomethyl fumarate

>  <CAS_NUMBER>  (1) 
2756-87-8

>  <UNII>  (1) 
45IUB1PX8R

>  <SYNONYMS>  (1) 
Fumaric acid monomethyl ester; Methyl hydrogen fumarate; MMF; Monomethyl fumarate

$$$$
