
     RDKit          3D

 15 15  0  0  1  0  0  0  0  0999 V2000
   -1.3089   -2.0602    0.6373 C   0  0  0  0  0  0  0  0  0  0  0  0
   -1.8601   -0.9812   -0.2439 C   0  0  0  0  0  0  0  0  0  0  0  0
   -2.9887   -0.4151    0.2499 C   0  0  0  0  0  0  0  0  0  0  0  0
   -1.0805   -0.6585   -1.5587 C   0  0  2  0  0  0  0  0  0  0  0  0
   -1.3163    0.7640   -2.1124 C   0  0  0  0  0  0  0  0  0  0  0  0
   -2.5818    0.9396   -2.9648 C   0  0  0  0  0  0  0  0  0  0  0  0
   -2.7388   -0.1184   -4.1167 C   0  0  1  0  0  0  0  0  0  0  0  0
   -4.1707    0.0121   -4.6926 C   0  0  0  0  0  0  0  0  0  0  0  0
   -1.7589    0.3211   -5.2142 C   0  0  0  0  0  0  0  0  0  0  0  0
   -0.7867   -0.4216   -5.7617 C   0  0  0  0  0  0  0  0  0  0  0  0
   -2.4816   -1.6350   -3.6405 C   0  0  1  0  0  0  0  0  0  0  0  0
   -1.1687   -1.6770   -2.7655 C   0  0  0  0  0  0  0  0  0  0  0  0
   -3.6388   -2.2917   -2.8958 C   0  0  0  0  0  0  0  0  0  0  0  0
   -4.4188   -3.5056   -3.1757 C   0  0  0  0  0  0  0  0  0  0  0  0
   -4.1649   -1.6299   -1.8638 C   0  0  0  0  0  0  0  0  0  0  0  0
  1  2  1  0
  2  3  2  0
  4  5  1  0
  4 12  1  0
  4  2  1  1
  5  6  1  0
  7  6  1  0
  7  8  1  6
  7  9  1  0
  7 11  1  0
  9 10  2  0
 11 12  1  0
 11 13  1  1
 13 14  1  0
 13 15  2  0
M  END
>  <DRUGBANK_ID>  (1) 
DB18097

>  <COMMON_NAME>  (1) 
(-)-beta-Elemene

>  <CAS_NUMBER>  (1) 
515-13-9

>  <UNII>  (1) 
2QG8CX6LXD

>  <SYNONYMS>  (1) 
.beta.-elemene; (-)-.beta.-elemene; (-)-B-elemene; (-)-beta-Elemene; Cyclohexane, 1-ethenyl-1-methyl-2,4-bis(1-methylethenyl)-, (1s,2s,4r)-; Elemene, (-)-.beta.-

$$$$
