
     RDKit          3D

 31 35  0  0  0  0  0  0  0  0999 V2000
    0.8583    0.7834    0.2426 C   0  0  0  0  0  0  0  0  0  0  0  0
    0.8695   -0.5936    0.2460 C   0  0  0  0  0  0  0  0  0  0  0  0
    3.1715    0.8416   -0.6223 C   0  0  0  0  0  0  0  0  0  0  0  0
    2.2494    2.9447   -0.0496 O   0  0  0  0  0  0  0  0  0  0  0  0
    1.5977    3.9347    0.6110 C   0  0  0  0  0  0  0  0  0  0  0  0
    1.3102    4.9930    0.0627 O   0  0  0  0  0  0  0  0  0  0  0  0
    1.1491    3.6119    1.9936 C   0  0  0  0  0  0  0  0  0  0  0  0
    4.0627   -1.3238   -1.3731 C   0  0  0  0  0  0  0  0  0  0  0  0
    3.4037   -2.6455   -1.6178 C   0  0  0  0  0  0  0  0  0  0  0  0
    2.0075   -2.1510   -1.3054 C   0  0  0  0  0  0  0  0  0  0  0  0
    4.8357   -0.8253   -2.1822 O   0  0  0  0  0  0  0  0  0  0  0  0
   -0.4128   -1.4527    0.1354 C   0  0  0  0  0  0  0  0  0  0  0  0
   -1.4860   -0.7249   -0.4911 C   0  0  0  0  0  0  0  0  0  0  0  0
   -1.4364    0.6218   -0.7028 C   0  0  0  0  0  0  0  0  0  0  0  0
   -2.6996    1.1070   -1.1383 C   0  0  0  0  0  0  0  0  0  0  0  0
   -2.9473    2.5440   -0.8792 C   0  0  0  0  0  0  0  0  0  0  0  0
   -2.4157    2.9776    0.3166 O   0  0  0  0  0  0  0  0  0  0  0  0
   -1.8950    2.6827    2.4455 C   0  0  0  0  0  0  0  0  0  0  0  0
   -3.1026    1.9118    2.7379 O   0  0  0  0  0  0  0  0  0  0  0  0
   -3.4236    0.8746    1.8254 C   0  0  0  0  0  0  0  0  0  0  0  0
   -3.3165    3.4002   -1.6947 O   0  0  0  0  0  0  0  0  0  0  0  0
   -3.5100   -0.0255   -1.0738 C   0  0  0  0  0  0  0  0  0  0  0  0
   -2.7681   -1.1471   -0.7016 O   0  0  0  0  0  0  0  0  0  0  0  0
   -0.4249   -2.6130    0.5354 O   0  0  0  0  0  0  0  0  0  0  0  0
   -1.2360    2.3767    1.0637 C   0  0  1  0  0  0  0  0  0  0  0  0
   -0.4300    1.5755   -0.0890 C   0  0  1  0  0  0  0  0  0  0  0  0
   -0.2069    2.5881   -1.2303 C   0  0  0  0  0  0  0  0  0  0  0  0
    2.2029    1.5481    0.3205 C   0  0  1  0  0  0  0  0  0  0  0  0
    3.4357   -0.5918   -0.1526 C   0  0  1  0  0  0  0  0  0  0  0  0
    4.1681   -0.5538    1.1992 C   0  0  0  0  0  0  0  0  0  0  0  0
    2.1270   -1.4162    0.0415 C   0  0  1  0  0  0  0  0  0  0  0  0
  1  2  2  0
  1 28  1  0
  2 12  1  0
  2 31  1  0
  4  5  1  0
  5  6  2  0
  5  7  1  0
  8  9  1  0
  8 11  2  0
 10  9  1  0
 12 24  2  0
 13 12  1  0
 13 23  1  0
 14 13  2  0
 14 15  1  0
 15 16  1  0
 15 22  2  0
 16 21  2  0
 17 16  1  0
 17 25  1  0
 18 19  1  0
 19 20  1  0
 23 22  1  0
 25 18  1  1
 25 26  1  0
 26 14  1  0
 26  1  1  0
 26 27  1  6
 28  3  1  0
 28  4  1  6
 29  3  1  0
 29  8  1  0
 29 30  1  1
 31 29  1  0
 31 10  1  6
M  END
>  <DRUGBANK_ID>  (1) 
DB08059

>  <COMMON_NAME>  (1) 
Wortmannin

>  <CAS_NUMBER>  (1) 
19545-26-7

>  <UNII>  (1) 
XVA4O219QW

>  <SYNONYMS>  (1) 
Wartmannin

$$$$
