
     RDKit          3D

 20 19  0  0  0  0  0  0  0  0999 V2000
   -3.1363    4.2831   -2.3765 O   0  0  0  0  0  0  0  0  0  0  0  0
   -1.7982    4.1498   -2.4135 C   0  0  0  0  0  0  0  0  0  0  0  0
   -1.3273    2.8091   -2.9104 C   0  0  0  0  0  0  0  0  0  0  0  0
   -1.7155    1.6776   -1.9585 C   0  0  0  0  0  0  0  0  0  0  0  0
   -3.2344    1.5171   -1.8485 C   0  0  0  0  0  0  0  0  0  0  0  0
   -3.8535    1.2643   -3.2288 C   0  0  0  0  0  0  0  0  0  0  0  0
   -3.3367   -0.0597   -3.7945 C   0  0  0  0  0  0  0  0  0  0  0  0
   -3.7040   -1.2015   -2.8413 C   0  0  0  0  0  0  0  0  0  0  0  0
   -5.2267   -1.2782   -2.6706 C   0  0  0  0  0  0  0  0  0  0  0  0
   -5.8891   -1.5345   -4.0210 C   0  0  0  0  0  0  0  0  0  0  0  0
   -5.3217   -2.7985   -4.6442 C   0  0  0  0  0  0  0  0  0  0  0  0
   -5.6913   -3.9634   -3.7837 C   0  0  0  0  0  0  0  0  0  0  0  0
   -6.5134   -4.9268   -4.1888 C   0  0  0  0  0  0  0  0  0  0  0  0
   -1.0737    5.0679   -2.0503 O   0  0  0  0  0  0  0  0  0  0  0  0
   -7.0263   -5.0207   -5.5896 C   0  0  0  0  0  0  0  0  0  0  0  0
   -6.4648   -6.2744   -6.2386 C   0  0  0  0  0  0  0  0  0  0  0  0
   -6.9963   -7.5250   -5.5413 C   0  0  0  0  0  0  0  0  0  0  0  0
   -8.5304   -7.5654   -5.5656 C   0  0  0  0  0  0  0  0  0  0  0  0
   -9.0785   -7.5495   -6.9941 C   0  0  0  0  0  0  0  0  0  0  0  0
   -8.5782   -8.7588   -7.7660 C   0  0  0  0  0  0  0  0  0  0  0  0
  2  1  1  0
  2 14  2  0
  2  3  1  0
  3  4  1  0
  4  5  1  0
  5  6  1  0
  6  7  1  0
  7  8  1  0
  8  9  1  0
  9 10  1  0
 10 11  1  0
 12 11  1  0
 13 12  2  0
 15 13  1  0
 16 15  1  0
 17 16  1  0
 18 17  1  0
 19 18  1  0
 20 19  1  0
M  END
>  <DRUGBANK_ID>  (1) 
DB04801

>  <COMMON_NAME>  (1) 
cis-Vaccenic acid

>  <CAS_NUMBER>  (1) 
506-17-2

>  <UNII>  (1) 
400K7322UW

>  <SYNONYMS>  (1) 
(Z)-11-octadecenoic acid; (Z)-octadec-11-enoic acid; Asclepic acid; cis-11-octadecenoic acid; cis-octadec-11-enoic acid; trans-11-Octadecens√§ure

$$$$
