FRZ
     RDKit          3D

 25 29  0  0  0  0  0  0  0  0999 V2000
   -2.0617   -0.7533    0.0010 C   0  0  0  0  0  0  0  0  0  0  0  0
   -0.8642   -1.3635    0.0043 C   0  0  0  0  0  0  0  0  0  0  0  0
    0.3164   -0.6060    0.0190 N   0  0  0  0  0  0  0  0  0  0  0  0
    0.2846    0.7930    0.0370 C   0  0  0  0  0  0  0  0  0  0  0  0
   -0.9830    1.4391    0.0113 C   0  0  0  0  0  0  0  0  0  0  0  0
   -2.1096    0.6977   -0.0017 C   0  0  0  0  0  0  0  0  0  0  0  0
    1.5991   -1.0703   -0.0049 N   0  0  0  0  0  0  0  0  0  0  0  0
    2.3702    0.0249    0.0589 C   0  0  0  0  0  0  0  0  0  0  0  0
    1.5935    1.2195    0.0598 C   0  0  0  0  0  0  0  0  0  0  0  0
    2.0434    2.5950   -0.0359 C   0  0  0  0  0  0  0  0  0  0  0  0
    3.8329   -0.0182    0.0754 C   0  0  0  0  0  0  0  0  0  0  0  0
    4.5260    0.6912    1.0692 C   0  0  0  0  0  0  0  0  0  0  0  0
    5.8999    0.9040    0.9594 C   0  0  0  0  0  0  0  0  0  0  0  0
    6.6080    0.3239   -0.0894 C   0  0  0  0  0  0  0  0  0  0  0  0
    5.9429   -0.4714   -1.0241 C   0  0  0  0  0  0  0  0  0  0  0  0
    4.5517   -0.6087   -0.9689 C   0  0  0  0  0  0  0  0  0  0  0  0
    2.8375    2.9635   -1.1161 C   0  0  0  0  0  0  0  0  0  0  0  0
    3.3016    4.2762   -1.1056 C   0  0  0  0  0  0  0  0  0  0  0  0
    2.9364    5.0759   -0.0424 C   0  0  0  0  0  0  0  0  0  0  0  0
    2.1629    4.7086    0.9951 N   0  0  0  0  0  0  0  0  0  0  0  0
    1.7182    3.4430    0.9772 N   0  0  0  0  0  0  0  0  0  0  0  0
    4.1007    5.1079   -1.9225 C   0  0  0  0  0  0  0  0  0  0  0  0
    4.2313    6.3356   -1.4218 N   0  0  0  0  0  0  0  0  0  0  0  0
    3.5142    6.2886   -0.2758 N   0  0  0  0  0  0  0  0  0  0  0  0
    4.6521    4.7030   -3.0709 N   0  0  0  0  0  0  0  0  0  0  0  0
  1  2  2  0
  1  6  1  0
  2  3  1  0
  3  4  1  0
  3  7  1  0
  4  5  1  0
  4  9  2  0
  5  6  2  0
  7  8  2  0
  8  9  1  0
  8 11  1  0
  9 10  1  0
 10 17  2  0
 10 21  1  0
 11 12  2  0
 11 16  1  0
 12 13  1  0
 13 14  2  0
 14 15  1  0
 15 16  2  0
 17 18  1  0
 18 19  2  0
 18 22  1  0
 19 20  1  0
 19 24  1  0
 20 21  2  0
 22 23  2  0
 22 25  1  0
 23 24  1  0
M  END
>  <DRUGBANK_ID>  (1) 
DB07794

>  <COMMON_NAME>  (1) 
5-(2-PHENYLPYRAZOLO[1,5-A]PYRIDIN-3-YL)-1H-PYRAZOLO[3,4-C]PYRIDAZIN-3-AMINE

>  <UNII>  (1) 
4C7X7GV82C

$$$$
