
     RDKit          3D

 23 26  0  0  0  0  0  0  0  0999 V2000
    0.3822   -0.6943    0.5376 O   0  0  0  0  0  0  0  0  0  0  0  0
    0.3399   -1.3296   -0.7831 C   0  0  0  0  0  0  0  0  0  0  0  0
    1.0169   -0.7020   -2.1283 C   0  0  0  0  0  0  0  0  0  0  0  0
    2.4484   -0.4640   -2.2392 O   0  0  0  0  0  0  0  0  0  0  0  0
    3.1033    0.5574   -1.4625 C   0  0  0  0  0  0  0  0  0  0  0  0
    2.3961    0.8888   -0.1722 C   0  0  0  0  0  0  0  0  0  0  0  0
    1.7086    2.1786   -0.0614 N   0  0  0  0  0  0  0  0  0  0  0  0
    0.9216    2.4469   -1.2920 C   0  0  0  0  0  0  0  0  0  0  0  0
    1.7952    2.3697   -2.5643 C   0  0  0  0  0  0  0  0  0  0  0  0
    3.2076    1.9088   -2.1724 C   0  0  0  0  0  0  0  0  0  0  0  0
    3.7523    2.9388   -1.1313 C   0  0  0  0  0  0  0  0  0  0  0  0
    2.7917    3.1240    0.0643 C   0  0  0  0  0  0  0  0  0  0  0  0
    1.0086   -2.6805   -0.4774 C   0  0  0  0  0  0  0  0  0  0  0  0
    2.3586   -2.9317   -1.1609 C   0  0  0  0  0  0  0  0  0  0  0  0
    2.5508   -4.4258   -1.1149 C   0  0  0  0  0  0  0  0  0  0  0  0
    1.1763   -5.0016   -0.8049 C   0  0  0  0  0  0  0  0  0  0  0  0
    0.1890   -3.8646   -0.9189 C   0  0  0  0  0  0  0  0  0  0  0  0
   -1.1806   -1.2042   -0.8620 C   0  0  0  0  0  0  0  0  0  0  0  0
   -1.9080   -1.8641    0.1345 C   0  0  0  0  0  0  0  0  0  0  0  0
   -3.2922   -1.7400    0.2243 C   0  0  0  0  0  0  0  0  0  0  0  0
   -3.9372   -0.8467   -0.6069 C   0  0  0  0  0  0  0  0  0  0  0  0
   -3.2337   -0.0735   -1.5148 C   0  0  0  0  0  0  0  0  0  0  0  0
   -1.8573   -0.2820   -1.6756 C   0  0  0  0  0  0  0  0  0  0  0  0
  1  2  1  0
  2  3  1  0
  2 13  1  0
  2 18  1  0
  3  4  1  0
  4  5  1  0
  5  6  1  0
  5 10  1  0
  6  7  1  0
  7  8  1  0
  7 12  1  0
  8  9  1  0
  9 10  1  0
 10 11  1  0
 11 12  1  0
 13 14  1  0
 13 17  1  0
 14 15  1  0
 15 16  1  0
 16 17  1  0
 18 19  2  0
 18 23  1  0
 19 20  1  0
 20 21  2  0
 21 22  1  0
 22 23  2  0
M  END
>  <DRUGBANK_ID>  (1) 
DB16287

>  <COMMON_NAME>  (1) 
Penequinine, Penehyclidine

>  <CAS_NUMBER>  (1) 
87827-02-9

>  <UNII>  (1) 
353CX8CSHD

>  <SYNONYMS>  (1) 
Penehyclidine; Penequine; Penequinine; Penethequinine

$$$$
