
     RDKit          3D

 24 28  0  0  1  0  0  0  0  0999 V2000
    0.9082    0.1042   -0.0628 C   0  0  0  0  0  0  0  0  0  0  0  0
    0.5604    0.3271   -1.4712 N   0  0  0  0  0  0  0  0  0  0  0  0
    1.5316    1.1612   -2.2046 C   0  0  2  0  0  0  0  0  0  0  0  0
    1.0885    0.9836   -3.6689 C   0  0  0  0  0  0  0  0  0  0  0  0
    0.4424   -0.3915   -3.7119 C   0  0  0  0  0  0  0  0  0  0  0  0
    0.5660   -0.9028   -2.2743 C   0  0  1  0  0  0  0  0  0  0  0  0
    1.8781   -1.6796   -2.1261 C   0  0  0  0  0  0  0  0  0  0  0  0
    3.1767   -0.8505   -2.0360 C   0  0  0  0  0  0  0  0  0  0  0  0
    4.3757   -1.4744   -1.7908 C   0  0  0  0  0  0  0  0  0  0  0  0
    4.3034   -2.9477   -1.6287 C   0  0  0  0  0  0  0  0  0  0  0  0
    3.9914   -3.7775   -2.7156 C   0  0  0  0  0  0  0  0  0  0  0  0
    3.8149   -5.1429   -2.5287 C   0  0  0  0  0  0  0  0  0  0  0  0
    4.0317   -5.7023   -1.2713 C   0  0  0  0  0  0  0  0  0  0  0  0
    4.3681   -4.8896   -0.1905 C   0  0  0  0  0  0  0  0  0  0  0  0
    4.4586   -3.5040   -0.3482 C   0  0  0  0  0  0  0  0  0  0  0  0
    4.7620   -2.6248    0.8282 C   0  0  0  0  0  0  0  0  0  0  0  0
    6.4982   -2.1631    0.8303 S   0  0  0  0  0  0  0  0  0  0  0  0
    6.5996   -1.0130   -0.5482 C   0  0  0  0  0  0  0  0  0  0  0  0
    5.6692   -0.7458   -1.5882 C   0  0  0  0  0  0  0  0  0  0  0  0
    6.0489    0.1888   -2.5737 C   0  0  0  0  0  0  0  0  0  0  0  0
    7.2600    0.8768   -2.5185 C   0  0  0  0  0  0  0  0  0  0  0  0
    8.1564    0.6120   -1.4962 C   0  0  0  0  0  0  0  0  0  0  0  0
    7.8292   -0.3286   -0.5293 C   0  0  0  0  0  0  0  0  0  0  0  0
    2.9946    0.6712   -2.0498 C   0  0  0  0  0  0  0  0  0  0  0  0
  1  2  1  0
  3  2  1  0
  3  4  1  6
  3 24  1  0
  4  5  1  0
  6  5  1  6
  6  2  1  0
  6  7  1  0
  8  7  1  0
  8  9  2  3
  8 24  1  0
  9 10  1  0
  9 19  1  0
 10 11  2  0
 10 15  1  0
 11 12  1  0
 12 13  2  0
 13 14  1  0
 14 15  2  0
 15 16  1  0
 16 17  1  0
 17 18  1  0
 18 19  2  0
 18 23  1  0
 19 20  1  0
 20 21  2  0
 21 22  1  0
 22 23  2  0
M  END
>  <DRUGBANK_ID>  (1) 
DB13252

>  <COMMON_NAME>  (1) 
Tropatepine

>  <CAS_NUMBER>  (1) 
27574-24-9

>  <UNII>  (1) 
C27HY5RFU5

>  <SYNONYMS>  (1) 
Tropatepine

$$$$
