
     RDKit          3D

 20 20  0  0  0  0  0  0  0  0999 V2000
    1.0385    1.1099    2.2167 C   0  0  0  0  0  0  0  0  0  0  0  0
    3.6352    1.4819    1.8753 C   0  0  0  0  0  0  0  0  0  0  0  0
    2.2914   -1.8969    2.5723 C   0  0  0  0  0  0  0  0  0  0  0  0
   -0.4095    0.7778   -1.1832 C   0  0  0  0  0  0  0  0  0  0  0  0
    2.7015   -0.6719    1.7428 C   0  0  2  0  0  0  0  0  0  0  0  0
    0.1581    0.2597    1.2760 C   0  0  2  0  0  0  0  0  0  0  0  0
    4.3204    0.7534    0.6655 C   0  0  2  0  0  0  0  0  0  0  0  0
    0.6494    0.4415   -0.1995 C   0  0  2  0  0  0  0  0  0  0  0  0
    4.0432   -0.7090    0.9979 C   0  0  2  0  0  0  0  0  0  0  0  0
    2.4722    0.6554    2.3579 N   0  0  0  0  0  0  0  0  0  0  0  0
    1.0110   -1.8529    3.2229 O   0  0  0  0  0  0  0  0  0  0  0  0
   -1.0260    1.9846   -0.7806 O   0  0  0  0  0  0  0  0  0  0  0  0
   -1.2445    0.3640    1.5157 O   0  0  0  0  0  0  0  0  0  0  0  0
    5.7156    0.9765    0.4702 O   0  0  0  0  0  0  0  0  0  0  0  0
    3.9182   -1.4958   -0.2089 O   0  0  0  0  0  0  0  0  0  0  0  0
    1.1630    3.3849   -1.4779 O   0  0  0  0  0  0  0  0  0  0  0  0
    1.6528    3.4581    0.8794 O   0  0  0  0  0  0  0  0  0  0  0  0
    3.4564    3.1022   -0.6910 O   0  0  0  0  0  0  0  0  0  0  0  0
    1.8267    1.2659   -0.3967 O   0  0  0  0  0  0  0  0  0  0  0  0
    2.0167    2.9288   -0.4371 S   0  0  0  0  0  0  0  0  0  0  0  0
  5  3  1  1
  5 10  1  0
  6 13  1  6
  6  8  1  0
  6  1  1  0
  7  2  1  0
  7 14  1  1
  8  4  1  6
  9  5  1  0
  9  7  1  0
  9 15  1  6
 10  1  1  0
 10  2  1  0
 11  3  1  0
 12  4  1  0
 19  8  1  0
 20 16  1  0
 20 17  1  0
 20 18  1  0
 20 19  1  0
M  CHG  3  16  -1  17  -1  18  -1
M  END
>  <DRUGBANK_ID>  (1) 
DB02492

>  <SECONDARY_ACCESSION_NUMBERS>  (1) 
EXPT01590

>  <COMMON_NAME>  (1) 
Ghavamiol

$$$$
