649
     RDKit          3D

 16 17  0  0  1  0  0  0  0  0999 V2000
   -1.1571   -0.0339    0.1057 O   0  0  0  0  0  0  0  0  0  0  0  0
   -1.8985   -2.6531    1.0045 O   0  0  0  0  0  0  0  0  0  0  0  0
   -1.4029    3.7677   -0.2500 O   0  0  0  0  0  0  0  0  0  0  0  0
   -0.9647    4.6922    4.1146 O   0  0  0  0  0  0  0  0  0  0  0  0
   -0.6802    2.0456    1.1266 N   0  0  0  0  0  0  0  0  0  0  0  0
   -1.4540    4.0763    1.9817 N   0  0  0  0  0  0  0  0  0  0  0  0
   -0.3772    1.1754   -0.0068 C   0  0  1  0  0  0  0  0  0  0  0  0
   -0.2726   -1.1722   -0.0517 C   0  0  1  0  0  0  0  0  0  0  0  0
    1.0463    0.7207    0.0218 C   0  0  0  0  0  0  0  0  0  0  0  0
    1.1041   -0.6110    0.0006 C   0  0  0  0  0  0  0  0  0  0  0  0
   -0.5557   -2.1752    1.0724 C   0  0  0  0  0  0  0  0  0  0  0  0
   -0.3822    1.6438    2.4158 C   0  0  0  0  0  0  0  0  0  0  0  0
   -1.1973    3.3095    0.8706 C   0  0  0  0  0  0  0  0  0  0  0  0
   -0.4136    2.4853    3.4546 C   0  0  0  0  0  0  0  0  0  0  0  0
   -0.9596    3.8397    3.2304 C   0  0  0  0  0  0  0  0  0  0  0  0
    0.1194    2.1566    4.8069 C   0  0  0  0  0  0  0  0  0  0  0  0
  1  7  1  0
  1  8  1  0
  2 11  1  0
  3 13  2  0
  4 15  2  0
  5 12  1  0
  5 13  1  0
  6 13  1  0
  6 15  1  0
  7  9  1  0
  7  5  1  1
  8 10  1  0
  8 11  1  1
  9 10  2  0
 12 14  2  0
 14 15  1  0
 14 16  1  0
M  END
>  <DRUGBANK_ID>  (1) 
DB00649

>  <SECONDARY_ACCESSION_NUMBERS>  (1) 
APRD00440

>  <COMMON_NAME>  (1) 
Stavudine

>  <CAS_NUMBER>  (1) 
3056-17-5

>  <UNII>  (1) 
BO9LE4QFZF

>  <SYNONYMS>  (1) 
1-(2,3-Dideoxy-beta-D-glycero-pent-2-enofuranosyl)thymine; 2',3'-Didehydro-3'-deoxythimidine; 3'-Deoxy-2'-thymidinene; Estavudina; Sanilvudine; Stavudin; Stavudine; Stavudinum; STV

$$$$
