SPI
     RDKit          3D

 31 33  0  0  0  0  0  0  0  0999 V2000
    0.9861    0.0115   -0.0070 S   0  0  0  0  0  0  0  0  0  0  0  0
    0.4074   -0.0714    1.3195 O   0  0  0  0  0  0  0  0  0  0  0  0
    0.6242    1.1083   -0.8748 O   0  0  0  0  0  0  0  0  0  0  0  0
    0.5333   -1.5112   -0.7927 C   0  0  0  0  0  0  0  0  0  0  0  0
    0.7933   -2.7101   -0.1270 C   0  0  0  0  0  0  0  0  0  0  0  0
    0.4126   -3.9286   -0.6684 C   0  0  0  0  0  0  0  0  0  0  0  0
   -0.3546   -3.9611   -1.8246 C   0  0  0  0  0  0  0  0  0  0  0  0
   -0.7466   -2.7521   -2.4161 C   0  0  0  0  0  0  0  0  0  0  0  0
   -0.2640   -1.5238   -1.9362 C   0  0  0  0  0  0  0  0  0  0  0  0
   -0.7750   -5.1107   -2.4360 O   0  0  0  0  0  0  0  0  0  0  0  0
   -0.2421   -6.3268   -1.9081 C   0  0  0  0  0  0  0  0  0  0  0  0
    2.7483    0.0594    0.1306 N   0  0  0  0  0  0  0  0  0  0  0  0
    3.4231   -1.1323    0.8041 C   0  0  2  0  0  0  0  0  0  0  0  0
    3.0172   -1.2048    2.2919 C   0  0  0  0  0  0  0  0  0  0  0  0
    3.3416    0.0492    2.9598 N   0  0  0  0  0  0  0  0  0  0  0  0
    2.8191    1.2866    2.3486 C   0  0  0  0  0  0  0  0  0  0  0  0
    3.1354    1.3445    0.8532 C   0  0  0  0  0  0  0  0  0  0  0  0
    4.0698    0.1356    4.1271 C   0  0  0  0  0  0  0  0  0  0  0  0
    4.2166    1.2059    4.6871 O   0  0  0  0  0  0  0  0  0  0  0  0
    4.5852   -1.0554    4.5504 O   0  0  0  0  0  0  0  0  0  0  0  0
    5.3874   -1.0431    5.7538 C   0  0  0  0  0  0  0  0  0  0  0  0
    6.7392   -0.3900    5.5726 C   0  0  0  0  0  0  0  0  0  0  0  0
    6.8334    1.0081    5.6268 C   0  0  0  0  0  0  0  0  0  0  0  0
    8.0280    1.6738    5.3971 C   0  0  0  0  0  0  0  0  0  0  0  0
    9.1901    0.9395    5.2299 C   0  0  0  0  0  0  0  0  0  0  0  0
    9.1414   -0.4553    5.2696 C   0  0  0  0  0  0  0  0  0  0  0  0
    7.9147   -1.1226    5.3777 C   0  0  0  0  0  0  0  0  0  0  0  0
    4.9574   -1.2454    0.7198 C   0  0  0  0  0  0  0  0  0  0  0  0
    5.6621   -0.1385    0.3290 N   0  0  0  0  0  0  0  0  0  0  0  0
    7.0702   -0.1983    0.3283 O   0  0  0  0  0  0  0  0  0  0  0  0
    5.5436   -2.2858    1.0343 O   0  0  0  0  0  0  0  0  0  0  0  0
  1  2  2  0
  1  3  2  0
  1  4  1  0
  1 12  1  0
  4  5  2  0
  4  9  1  0
  5  6  1  0
  6  7  2  0
  7  8  1  0
  7 10  1  0
  8  9  2  0
 10 11  1  0
 12 13  1  0
 12 17  1  0
 13 14  1  0
 13 28  1  1
 14 15  1  0
 15 16  1  0
 15 18  1  0
 16 17  1  0
 18 19  2  0
 18 20  1  0
 20 21  1  0
 21 22  1  0
 22 23  2  0
 22 27  1  0
 23 24  1  0
 24 25  2  0
 25 26  1  0
 26 27  2  0
 28 29  1  0
 28 31  2  0
 29 30  1  0
M  END
>  <DRUGBANK_ID>  (1) 
DB04232

>  <SECONDARY_ACCESSION_NUMBERS>  (1) 
EXPT02946

>  <COMMON_NAME>  (1) 
N-Hydroxy-1-(4-Methoxyphenyl)Sulfonyl-4-Benzyloxycarbonyl-Piperazine-2-Carboxamide

$$$$
