
     RDKit          3D

 24 25  0  0  0  0  0  0  0  0999 V2000
    1.7205   -1.5191   -0.0032 O   0  0  0  0  0  0  0  0  0  0  0  0
    0.5281   -0.8696   -0.0057 C   0  0  0  0  0  0  0  0  0  0  0  0
   -0.7264   -1.4892   -0.0117 C   0  0  0  0  0  0  0  0  0  0  0  0
   -1.9305   -0.7277   -0.0123 C   0  0  0  0  0  0  0  0  0  0  0  0
   -1.8891    0.6654    0.0047 C   0  0  0  0  0  0  0  0  0  0  0  0
   -3.1280    1.5260    0.0111 C   0  0  0  0  0  0  0  0  0  0  0  0
   -3.1688    2.8864    0.0296 C   0  0  0  0  0  0  0  0  0  0  0  0
   -1.8282    3.6025    0.0482 C   0  0  0  0  0  0  0  0  0  0  0  0
   -0.7160    4.1966    0.0637 N   0  0  0  0  0  0  0  0  0  0  0  0
   -4.4291    3.6597    0.0235 C   0  0  0  0  0  0  0  0  0  0  0  0
   -5.5300    3.0914    0.0288 O   0  0  0  0  0  0  0  0  0  0  0  0
   -4.4021    5.0154    0.0078 N   0  0  0  0  0  0  0  0  0  0  0  0
   -3.2991    5.9437    0.0711 C   0  0  0  0  0  0  0  0  0  0  0  0
   -3.1262    6.7603   -1.1953 C   0  0  0  0  0  0  0  0  0  0  0  0
   -4.1508    7.8678   -1.1741 C   0  0  0  0  0  0  0  0  0  0  0  0
   -4.0061    8.7432    0.0547 C   0  0  0  0  0  0  0  0  0  0  0  0
   -2.8370    8.7664    0.8509 C   0  0  0  0  0  0  0  0  0  0  0  0
   -2.7484    9.5442    1.9936 C   0  0  0  0  0  0  0  0  0  0  0  0
   -3.7893   10.4041    2.2973 C   0  0  0  0  0  0  0  0  0  0  0  0
   -4.9310   10.4359    1.4927 C   0  0  0  0  0  0  0  0  0  0  0  0
   -5.0696    9.5640    0.4149 C   0  0  0  0  0  0  0  0  0  0  0  0
   -0.5912    1.1896    0.0128 C   0  0  0  0  0  0  0  0  0  0  0  0
    0.5846    0.4865    0.0004 C   0  0  0  0  0  0  0  0  0  0  0  0
    1.7287    1.2273   -0.0028 O   0  0  0  0  0  0  0  0  0  0  0  0
  1  2  1  0
  2  3  2  0
  2 23  1  0
  3  4  1  0
  4  5  2  0
  5  6  1  0
  5 22  1  0
  6  7  2  0
  7  8  1  0
  7 10  1  0
  8  9  3  0
 10 11  2  0
 10 12  1  0
 12 13  1  0
 13 14  1  0
 14 15  1  0
 15 16  1  0
 16 17  2  0
 16 21  1  0
 17 18  1  0
 18 19  2  0
 19 20  1  0
 20 21  2  0
 22 23  2  0
 23 24  1  0
M  END
>  <DRUGBANK_ID>  (1) 
DB16773

>  <COMMON_NAME>  (1) 
Tyrphostin AG 555

>  <CAS_NUMBER>  (1) 
133550-34-2

>  <SYNONYMS>  (1) 
AG 555; AG-555; Tyrphostin AG 555; Tyrphostin AG-555; Tyrphostin B-46; Tyrphostin B46

$$$$
