
     RDKit          3D

 29 31  0  0  0  0  0  0  0  0999 V2000
   -2.5298    0.4161    0.8414 C   0  0  0  0  0  0  0  0  0  0  0  0
   -1.9100    1.6781    0.9158 C   0  0  0  0  0  0  0  0  0  0  0  0
   -0.4944    1.7667    1.1230 C   0  0  0  0  0  0  0  0  0  0  0  0
    0.1385    0.7081    1.7215 C   0  0  0  0  0  0  0  0  0  0  0  0
   -0.4723   -0.5331    1.5902 C   0  0  0  0  0  0  0  0  0  0  0  0
   -1.7505   -0.6950    1.0714 C   0  0  0  0  0  0  0  0  0  0  0  0
    0.1839   -1.6556    1.8699 F   0  0  0  0  0  0  0  0  0  0  0  0
    1.6038    1.0034    2.6120 Cl  0  0  0  0  0  0  0  0  0  0  0  0
    0.2985    2.7565    0.4688 N   0  0  0  0  0  0  0  0  0  0  0  0
    1.6291    2.7425    0.0581 C   0  0  0  0  0  0  0  0  0  0  0  0
    2.1141    3.8563   -0.2005 O   0  0  0  0  0  0  0  0  0  0  0  0
    2.4552    1.5654   -0.1091 N   0  0  0  0  0  0  0  0  0  0  0  0
    2.2863    0.0160   -0.2915 C   0  0  0  0  0  0  0  0  0  0  0  0
    2.7206   -1.0162    0.5093 C   0  0  0  0  0  0  0  0  0  0  0  0
    2.0683   -2.3209    0.4146 C   0  0  0  0  0  0  0  0  0  0  0  0
    0.9917   -2.6406   -0.5064 C   0  0  0  0  0  0  0  0  0  0  0  0
    0.5561   -1.6371   -1.3448 C   0  0  0  0  0  0  0  0  0  0  0  0
    1.2589   -0.4478   -1.1078 C   0  0  0  0  0  0  0  0  0  0  0  0
    0.6084    0.6195   -1.4115 O   0  0  0  0  0  0  0  0  0  0  0  0
   -1.0755   -1.6411   -2.3424 S   0  0  0  0  0  0  0  0  0  0  0  0
   -0.7910   -2.5657   -3.4566 O   0  0  0  0  0  0  0  0  0  0  0  0
   -2.1554   -1.9668   -1.4527 O   0  0  0  0  0  0  0  0  0  0  0  0
   -1.5986   -0.1523   -3.1738 N   0  0  0  0  0  0  0  0  0  0  0  0
   -0.7475    0.4283   -4.2668 C   0  0  0  0  0  0  0  0  0  0  0  0
    0.4410    1.1540   -3.6851 C   0  0  0  0  0  0  0  0  0  0  0  0
   -0.1143    2.2282   -2.8180 N   0  0  0  0  0  0  0  0  0  0  0  0
   -1.2300    1.8746   -1.9013 C   0  0  0  0  0  0  0  0  0  0  0  0
   -2.2919    0.9830   -2.4662 C   0  0  0  0  0  0  0  0  0  0  0  0
    0.1227   -4.1118   -0.2537 Cl  0  0  0  0  0  0  0  0  0  0  0  0
  1  2  2  0
  1  6  1  0
  2  3  1  0
  3  4  2  0
  3  9  1  0
  4  5  1  0
  4  8  1  0
  5  6  2  0
  5  7  1  0
  9 10  1  0
 10 11  2  0
 10 12  1  0
 12 13  1  0
 13 14  2  0
 13 18  1  0
 14 15  1  0
 15 16  2  0
 16 17  1  0
 16 29  1  0
 17 18  2  0
 17 20  1  0
 18 19  1  0
 20 21  2  0
 20 22  2  0
 20 23  1  0
 23 24  1  0
 23 28  1  0
 24 25  1  0
 25 26  1  0
 26 27  1  0
 27 28  1  0
M  END
>  <DRUGBANK_ID>  (1) 
DB12135

>  <COMMON_NAME>  (1) 
Elubrixin

>  <CAS_NUMBER>  (1) 
688763-64-6

>  <UNII>  (1) 
MW2AIJ8USP

>  <SYNONYMS>  (1) 
Elubrixin

$$$$
