
     RDKit          3D

 35 39  0  0  0  0  0  0  0  0999 V2000
   -0.7884    0.4177    0.7191 N   0  0  0  0  0  0  0  0  0  0  0  0
   -0.4711   -1.0290    0.6451 C   0  0  1  0  0  0  0  0  0  0  0  0
   -1.9824    0.2792    0.0355 C   0  0  0  0  0  0  0  0  0  0  0  0
   -1.8732   -1.2631    0.0663 C   0  0  1  0  0  0  0  0  0  0  0  0
    0.2169    1.3622    0.2171 C   0  0  2  0  0  0  0  0  0  0  0  0
    0.9483   -1.1215   -0.5121 S   0  0  0  0  0  0  0  0  0  0  0  0
    1.5315    0.5521    0.0239 C   0  0  0  0  0  0  0  0  0  0  0  0
   -1.9358   -3.3495   -1.2005 C   0  0  0  0  0  0  0  0  0  0  0  0
   -1.9001   -1.9746   -1.2213 N   0  0  0  0  0  0  0  0  0  0  0  0
   -1.0846   -5.2513   -2.7027 C   0  0  0  0  0  0  0  0  0  0  0  0
   -2.1261   -3.9714   -2.5691 C   0  0  1  0  0  0  0  0  0  0  0  0
    0.3568    2.5758    1.1612 C   0  0  0  0  0  0  0  0  0  0  0  0
   -1.5389   -6.6403   -3.1850 O   0  0  0  0  0  0  0  0  0  0  0  0
   -2.6690    1.0903   -0.5009 O   0  0  0  0  0  0  0  0  0  0  0  0
   -4.6637   -8.9553   -3.0813 C   0  0  0  0  0  0  0  0  0  0  0  0
   -2.0440   -3.9815   -0.1503 O   0  0  0  0  0  0  0  0  0  0  0  0
    0.1215   -5.0855   -2.4793 O   0  0  0  0  0  0  0  0  0  0  0  0
   -2.7133   -7.6581   -3.7927 C   0  0  0  0  0  0  0  0  0  0  0  0
   -0.4810    3.6091    0.9145 O   0  0  0  0  0  0  0  0  0  0  0  0
   -3.2946   -8.5887   -2.8711 C   0  0  0  0  0  0  0  0  0  0  0  0
   -3.6394   -4.1081   -2.5921 C   0  0  0  0  0  0  0  0  0  0  0  0
   -5.4809   -8.3054   -4.0835 C   0  0  0  0  0  0  0  0  0  0  0  0
    1.1176    2.6390    2.1160 O   0  0  0  0  0  0  0  0  0  0  0  0
   -4.9054   -7.3279   -4.9284 C   0  0  0  0  0  0  0  0  0  0  0  0
   -3.5081   -7.0298   -4.8096 C   0  0  0  0  0  0  0  0  0  0  0  0
    2.4191    1.0952   -1.0937 C   0  0  0  0  0  0  0  0  0  0  0  0
    2.3542    0.3484    1.3039 C   0  0  0  0  0  0  0  0  0  0  0  0
   -5.5805   -9.6960   -2.1085 C   0  0  0  0  0  0  0  0  0  0  0  0
   -6.8527   -9.8076   -2.9734 C   0  0  0  0  0  0  0  0  0  0  0  0
   -6.9695   -8.4734   -3.7044 C   0  0  0  0  0  0  0  0  0  0  0  0
   -4.7724   -3.3159   -2.5307 C   0  0  0  0  0  0  0  0  0  0  0  0
   -3.9527   -5.3780   -2.4159 C   0  0  0  0  0  0  0  0  0  0  0  0
   -5.1653   -5.9485   -2.3678 C   0  0  0  0  0  0  0  0  0  0  0  0
   -6.0664   -3.8939   -2.7220 C   0  0  0  0  0  0  0  0  0  0  0  0
   -6.2290   -5.2480   -2.7748 C   0  0  0  0  0  0  0  0  0  0  0  0
  2  1  1  0
  3  1  1  0
  4  3  1  0
  4  2  1  0
  4  9  1  6
  5  1  1  0
  5 12  1  1
  2  6  1  6
  6  7  1  0
  7  5  1  0
  8  9  1  0
 11 10  1  1
 11  8  1  0
 13 10  1  0
 14  3  2  0
 15 20  2  0
 16  8  2  0
 17 10  2  0
 18 13  1  0
 19 12  1  0
 20 18  1  0
 21 11  1  0
 22 15  1  0
 23 12  2  0
 24 25  1  0
 24 22  2  0
 25 18  2  0
 26  7  1  0
 27  7  1  0
 28 15  1  0
 29 28  1  0
 30 22  1  0
 30 29  1  0
 31 21  2  0
 32 21  1  0
 33 32  2  0
 34 31  1  0
 35 33  1  0
 35 34  2  0
M  END
>  <DRUGBANK_ID>  (1) 
DB09319

>  <COMMON_NAME>  (1) 
Carindacillin

>  <CAS_NUMBER>  (1) 
35531-88-5

>  <UNII>  (1) 
5V278481KE

>  <SYNONYMS>  (1) 
6β-{2-[(2,3-dihydro-1H-inden-5-yloxy)carbonyl]-2-phenylacetamido}-2,2-dimethylpenam-3α-carboxylic acid; Carbenicillin indanyl; Carindacilina; Carindacillin; Carindacilline; Carindacillinum; Indanyl carbenicillin

$$$$
