AL9
     RDKit          3D

 22 23  0  0  0  0  0  0  0  0999 V2000
    0.1336    1.2732   -0.0021 C   0  0  0  0  0  0  0  0  0  0  0  0
    1.9783   -3.5860    1.2002 C   0  0  0  0  0  0  0  0  0  0  0  0
    1.3335   -3.9544    2.4914 C   0  0  0  0  0  0  0  0  0  0  0  0
    1.2250   -5.3005    2.8291 C   0  0  0  0  0  0  0  0  0  0  0  0
    0.6087   -5.6655    4.0167 C   0  0  0  0  0  0  0  0  0  0  0  0
    0.0856   -4.6918    4.8709 C   0  0  0  0  0  0  0  0  0  0  0  0
    0.1949   -3.3421    4.5333 C   0  0  0  0  0  0  0  0  0  0  0  0
    0.7834   -2.9733    3.3287 C   0  0  0  0  0  0  0  0  0  0  0  0
   -0.9547    3.2331   -1.2992 O   0  0  0  0  0  0  0  0  0  0  0  0
   -0.9862    3.2652    1.2473 O   0  0  0  0  0  0  0  0  0  0  0  0
    1.1139    3.8529   -0.0356 N   0  0  0  0  0  0  0  0  0  0  0  0
   -0.3479    2.9847   -0.0199 S   0  0  0  0  0  0  0  0  0  0  0  0
    1.4067    0.7503   -0.0125 C   0  0  0  0  0  0  0  0  0  0  0  0
    1.4063   -0.6519   -0.1114 C   0  0  0  0  0  0  0  0  0  0  0  0
    0.1416   -1.2054   -0.0708 C   0  0  0  0  0  0  0  0  0  0  0  0
   -1.0576    0.0287   -0.0058 S   0  0  0  0  0  0  0  0  0  0  0  0
   -0.3370   -2.9322   -0.0936 S   0  0  0  0  0  0  0  0  0  0  0  0
   -1.1280   -3.1760    1.0846 O   0  0  0  0  0  0  0  0  0  0  0  0
   -0.8588   -3.1944   -1.4178 O   0  0  0  0  0  0  0  0  0  0  0  0
    1.1244   -3.8129    0.0223 N   0  0  0  0  0  0  0  0  0  0  0  0
   -0.5681   -4.9507    6.0443 O   0  0  0  0  0  0  0  0  0  0  0  0
   -0.7810   -6.3272    6.3355 C   0  0  0  0  0  0  0  0  0  0  0  0
  1 12  1  0
  1 13  2  0
  1 16  1  0
  2  3  1  0
  2 20  1  0
  3  4  2  0
  3  8  1  0
  4  5  1  0
  5  6  2  0
  6  7  1  0
  6 21  1  0
  7  8  2  0
  9 12  2  0
 10 12  2  0
 11 12  1  0
 13 14  1  0
 14 15  2  0
 15 16  1  0
 15 17  1  0
 17 18  2  0
 17 19  2  0
 17 20  1  0
 21 22  1  0
M  END
>  <DRUGBANK_ID>  (1) 
DB03526

>  <SECONDARY_ACCESSION_NUMBERS>  (1) 
EXPT00493

>  <COMMON_NAME>  (1) 
AL5927

$$$$
