
     RDKit          3D

 15 17  0  0  1  0  0  0  0  0999 V2000
    1.2735    1.5503    0.1417 C   0  0  0  0  0  0  0  0  0  0  0  0
    2.5436    0.9603    0.0823 C   0  0  0  0  0  0  0  0  0  0  0  0
    2.5486   -0.4289   -0.0806 C   0  0  0  0  0  0  0  0  0  0  0  0
    1.4491   -1.2253   -0.1166 N   0  0  0  0  0  0  0  0  0  0  0  0
    0.2531   -0.6018   -0.0306 C   0  0  0  0  0  0  0  0  0  0  0  0
    0.1111    0.7762    0.0642 C   0  0  0  0  0  0  0  0  0  0  0  0
   -1.4219    1.5672    0.0580 Cl  0  0  0  0  0  0  0  0  0  0  0  0
   -1.0802   -1.6916   -0.0320 Cl  0  0  0  0  0  0  0  0  0  0  0  0
    3.6836    1.7058    0.1568 N   0  0  0  0  0  0  0  0  0  0  0  0
    4.7316    1.7250   -0.8582 C   0  0  0  0  0  0  0  0  0  0  0  0
    5.4956    3.0293   -0.6161 C   0  0  2  0  0  0  0  0  0  0  0  0
    6.7566    2.9980    0.2760 C   0  0  0  0  0  0  0  0  0  0  0  0
    6.1515    4.0364    1.1367 N   0  0  0  0  0  0  0  0  0  0  0  0
    4.8162    3.7096    0.5892 C   0  0  2  0  0  0  0  0  0  0  0  0
    4.0340    2.5784    1.2749 C   0  0  0  0  0  0  0  0  0  0  0  0
  1  2  2  0
  1  6  1  0
  2  3  1  0
  2  9  1  0
  3  4  2  0
  4  5  1  0
  5  6  2  0
  5  8  1  0
  6  7  1  0
  9 10  1  0
  9 15  1  0
 11 10  1  1
 11 12  1  0
 11 14  1  0
 12 13  1  0
 14 13  1  0
 14 15  1  1
M  END
>  <DRUGBANK_ID>  (1) 
DB12527

>  <COMMON_NAME>  (1) 
Sofinicline

>  <CAS_NUMBER>  (1) 
799279-80-4

>  <UNII>  (1) 
SQC232V4YY

>  <SYNONYMS>  (1) 
Sofinicline

$$$$
