824
     RDKit          3D

 14 15  0  0  0  0  0  0  0  0999 V2000
    1.1018    0.0337    0.0328 O   0  0  0  0  0  0  0  0  0  0  0  0
    4.9761   -2.3296    0.0189 O   0  0  0  0  0  0  0  0  0  0  0  0
    3.0572    1.2842   -0.0936 N   0  0  0  0  0  0  0  0  0  0  0  0
    3.0501   -1.0898   -0.0108 N   0  0  0  0  0  0  0  0  0  0  0  0
    6.4205    0.2985   -0.0750 N   0  0  0  0  0  0  0  0  0  0  0  0
    5.3359    2.2059   -0.3764 N   0  0  0  0  0  0  0  0  0  0  0  0
    2.3454    2.5648   -0.0176 C   0  0  0  0  0  0  0  0  0  0  0  0
    4.4382    1.1927   -0.2089 C   0  0  0  0  0  0  0  0  0  0  0  0
    2.6133    3.3806    1.2616 C   0  0  0  0  0  0  0  0  0  0  0  0
    5.0890   -0.0003   -0.1036 C   0  0  0  0  0  0  0  0  0  0  0  0
    2.3305    0.0932   -0.0204 C   0  0  0  0  0  0  0  0  0  0  0  0
    4.4157   -1.2375   -0.0208 C   0  0  0  0  0  0  0  0  0  0  0  0
    4.0612    3.8015    1.4184 C   0  0  0  0  0  0  0  0  0  0  0  0
    6.5185    1.6588   -0.1799 C   0  0  0  0  0  0  0  0  0  0  0  0
  1 11  2  0
  2 12  2  0
  3  7  1  0
  3  8  1  0
  3 11  1  0
  4 11  1  0
  4 12  1  0
  5 10  1  0
  5 14  1  0
  6  8  1  0
  6 14  2  0
  7  9  1  0
  8 10  2  0
  9 13  1  0
 10 12  1  0
M  END
>  <DRUGBANK_ID>  (1) 
DB00824

>  <SECONDARY_ACCESSION_NUMBERS>  (1) 
APRD00273

>  <COMMON_NAME>  (1) 
Enprofylline

>  <CAS_NUMBER>  (1) 
41078-02-8

>  <UNII>  (1) 
DT7DT5E518

>  <SYNONYMS>  (1) 
3-n-propylxanthine; 3-Propyl-3,7-dihydro-purine-2,6-dione; 3-propylxanthine; 3,7-dihydro-3-propyl-1H-purine-2,6-dione; Enprofilina; Enprofylline; Enprofyllinum

$$$$
