
     RDKit          3D

 29 33  0  0  0  0  0  0  0  0999 V2000
    0.4423   -1.1582    0.2574 C   0  0  0  0  0  0  0  0  0  0  0  0
   -0.6176   -0.0361    1.0439 S   0  0  0  0  0  0  0  0  0  0  0  0
    0.0946    1.2743    0.2978 N   0  0  0  0  0  0  0  0  0  0  0  0
    1.3077    0.8310   -0.0194 C   0  0  0  0  0  0  0  0  0  0  0  0
    1.5513   -0.5452   -0.1035 N   0  0  0  0  0  0  0  0  0  0  0  0
   -5.3043   -2.9199   -2.3946 C   0  0  1  0  0  0  0  0  0  0  0  0
   -3.9448   -2.3597   -2.7426 C   0  0  0  0  0  0  0  0  0  0  0  0
   -5.2135   -3.2003   -0.8909 C   0  0  0  0  0  0  0  0  0  0  0  0
   -4.4368   -2.0157   -0.3317 C   0  0  2  0  0  0  0  0  0  0  0  0
   -3.6264   -1.5027   -1.5384 C   0  0  1  0  0  0  0  0  0  0  0  0
   -2.1986   -1.5497   -1.1600 C   0  0  0  0  0  0  0  0  0  0  0  0
   -2.1418   -2.3940   -0.0002 N   0  0  0  0  0  0  0  0  0  0  0  0
   -3.4043   -2.3878    0.7246 C   0  0  0  0  0  0  0  0  0  0  0  0
   -1.0337   -3.1583    0.2364 C   0  0  0  0  0  0  0  0  0  0  0  0
    0.1819   -2.5110    0.1547 N   0  0  0  0  0  0  0  0  0  0  0  0
   -1.0945   -4.3669    0.3886 O   0  0  0  0  0  0  0  0  0  0  0  0
    2.2047    1.8288   -0.1346 O   0  0  0  0  0  0  0  0  0  0  0  0
    3.5337    1.3609   -0.0332 C   0  0  0  0  0  0  0  0  0  0  0  0
   -6.5571   -0.7091   -2.3288 C   0  0  0  0  0  0  0  0  0  0  0  0
   -5.6072    0.2236   -2.6094 N   0  0  0  0  0  0  0  0  0  0  0  0
   -5.6469    1.4355   -2.0094 C   0  0  0  0  0  0  0  0  0  0  0  0
   -6.5836    1.9102   -1.1798 N   0  0  0  0  0  0  0  0  0  0  0  0
   -7.6493   -0.2603   -1.5612 C   0  0  0  0  0  0  0  0  0  0  0  0
   -7.5730    1.0205   -1.0297 C   0  0  0  0  0  0  0  0  0  0  0  0
   -8.7001    1.2467   -0.2917 N   0  0  0  0  0  0  0  0  0  0  0  0
   -9.5244    0.1543   -0.3639 C   0  0  0  0  0  0  0  0  0  0  0  0
   -8.8846   -0.8060   -1.1182 C   0  0  0  0  0  0  0  0  0  0  0  0
   -6.4149   -2.0221   -2.7447 N   0  0  0  0  0  0  0  0  0  0  0  0
   -7.3811   -2.5429   -3.6841 C   0  0  0  0  0  0  0  0  0  0  0  0
  1  2  1  0
  2  3  1  0
  3  4  2  0
  4 17  1  0
  4  5  1  0
  5  1  2  0
  6  7  1  0
  6 28  1  1
 10  7  1  6
  8  6  1  0
  9  8  1  6
  9 10  1  0
 10 11  1  0
 11 12  1  0
 12 13  1  0
 12 14  1  0
 13  9  1  0
 14 15  1  0
 14 16  2  0
 15  1  1  0
 17 18  1  0
 19 20  2  0
 19 28  1  0
 20 21  1  0
 21 22  2  0
 22 24  1  0
 23 19  1  0
 23 24  2  0
 24 25  1  0
 25 26  1  0
 26 27  2  0
 27 23  1  0
 28 29  1  0
M  END
>  <DRUGBANK_ID>  (1) 
DB16756

>  <COMMON_NAME>  (1) 
Ivarmacitinib

>  <CAS_NUMBER>  (1) 
1445987-21-2

>  <UNII>  (1) 
K6K4B9Z5TV

>  <SYNONYMS>  (1) 
Ivarmacitinib

$$$$
