827
     RDKit          3D

 19 21  0  0  0  0  0  0  0  0999 V2000
    3.2719   -1.0272    1.5005 O   0  0  0  0  0  0  0  0  0  0  0  0
    2.8002    1.1606    0.9796 O   0  0  0  0  0  0  0  0  0  0  0  0
    7.0026    2.1049   -1.1856 O   0  0  0  0  0  0  0  0  0  0  0  0
    9.2567    2.3502   -2.0682 O   0  0  0  0  0  0  0  0  0  0  0  0
   10.9695    1.4458   -0.9403 O   0  0  0  0  0  0  0  0  0  0  0  0
    8.1409   -0.1256    1.9311 N   0  0  0  0  0  0  0  0  0  0  0  0
    9.1063    0.3954    1.0301 N   0  0  0  0  0  0  0  0  0  0  0  0
    6.7528    0.0331    1.7173 C   0  0  0  0  0  0  0  0  0  0  0  0
    6.3704    0.9480    0.7366 C   0  0  0  0  0  0  0  0  0  0  0  0
    4.3157   -0.2109    1.9719 C   0  0  0  0  0  0  0  0  0  0  0  0
    5.6427   -0.5837    2.3603 C   0  0  0  0  0  0  0  0  0  0  0  0
    4.0907    0.9630    1.3392 C   0  0  0  0  0  0  0  0  0  0  0  0
    5.0938    1.4731    0.5936 C   0  0  0  0  0  0  0  0  0  0  0  0
    8.7538   -0.8602    3.0644 C   0  0  0  0  0  0  0  0  0  0  0  0
    7.3299    1.4367   -0.2086 C   0  0  0  0  0  0  0  0  0  0  0  0
    8.7514    1.1128   -0.0049 C   0  0  0  0  0  0  0  0  0  0  0  0
    2.4992   -0.1714    0.5190 C   0  0  0  0  0  0  0  0  0  0  0  0
    8.5429   -0.1691    4.4050 C   0  0  0  0  0  0  0  0  0  0  0  0
    9.7880    1.6461   -1.0361 C   0  0  0  0  0  0  0  0  0  0  0  0
  1 10  1  0
  1 17  1  0
  2 12  1  0
  2 17  1  0
  3 15  2  0
  4 19  1  0
  5 19  2  0
  6  7  1  0
  6  8  1  0
  6 14  1  0
  7 16  2  0
  8  9  2  0
  8 11  1  0
  9 13  1  0
  9 15  1  0
 10 11  2  0
 10 12  1  0
 12 13  2  0
 14 18  1  0
 15 16  1  0
 16 19  1  0
M  END
>  <DRUGBANK_ID>  (1) 
DB00827

>  <SECONDARY_ACCESSION_NUMBERS>  (1) 
APRD00873

>  <COMMON_NAME>  (1) 
Cinoxacin

>  <CAS_NUMBER>  (1) 
28657-80-9

>  <UNII>  (1) 
LMK22VUH23

>  <SYNONYMS>  (1) 
1-ethyl-6,7-methylenedioxy-4(1H)-oxocinnoline-3-carboxylic acid; 5-Ethyl-8-oxo-5,8-dihydro-1,3-dioxa-5,6-diaza-cyclopenta[b]naphthalene-7-carboxylic acid; Cinoxacin; Cinoxacine; Cinoxacino; Cinoxacinum

$$$$
