
     RDKit          3D

 27 30  0  0  1  0  0  0  0  0999 V2000
   -1.2965    1.3476   -0.1596 C   0  0  0  0  0  0  0  0  0  0  0  0
    0.1222    1.4473   -0.2807 C   0  0  0  0  0  0  0  0  0  0  0  0
    0.9438    0.3183   -0.4249 C   0  0  0  0  0  0  0  0  0  0  0  0
    0.3674   -0.9164   -0.4728 C   0  0  0  0  0  0  0  0  0  0  0  0
   -1.0894   -0.9363   -0.5642 C   0  0  0  0  0  0  0  0  0  0  0  0
   -1.9288    0.1152   -0.2737 C   0  0  0  0  0  0  0  0  0  0  0  0
   -3.3267   -0.0704   -0.0538 N   0  0  0  0  0  0  0  0  0  0  0  0
   -4.1122   -1.2280    0.0226 C   0  0  0  0  0  0  0  0  0  0  0  0
   -5.3719   -1.0899   -0.0014 O   0  0  0  0  0  0  0  0  0  0  0  0
   -3.5711   -2.6195    0.1790 C   0  0  0  0  0  0  0  0  0  0  0  0
   -2.6202   -2.8889    1.1645 C   0  0  0  0  0  0  0  0  0  0  0  0
   -1.8840   -4.0768    1.0793 C   0  0  0  0  0  0  0  0  0  0  0  0
   -2.1913   -4.9996    0.0941 C   0  0  0  0  0  0  0  0  0  0  0  0
   -3.2127   -4.7022   -0.7913 C   0  0  0  0  0  0  0  0  0  0  0  0
   -3.9004   -3.5268   -0.7870 N   0  0  0  0  0  0  0  0  0  0  0  0
   -1.4653   -6.1172   -0.0339 F   0  0  0  0  0  0  0  0  0  0  0  0
    1.0061   -2.2290    0.0831 C   0  0  1  0  0  0  0  0  0  0  0  0
    0.5164   -3.0558   -1.1729 C   0  0  0  0  0  0  0  0  0  0  0  0
    1.0184   -4.3650   -1.2885 O   0  0  0  0  0  0  0  0  0  0  0  0
    1.8112   -4.6390   -0.1572 C   0  0  0  0  0  0  0  0  0  0  0  0
    1.9490   -3.3446    0.6987 C   0  0  2  0  0  0  0  0  0  0  0  0
    2.5033   -3.1785    2.1429 C   0  0  0  0  0  0  0  0  0  0  0  0
    2.4213   -1.5314    2.8752 S   0  0  0  0  0  0  0  0  0  0  0  0
    0.8979   -1.0963    2.2078 C   0  0  0  0  0  0  0  0  0  0  0  0
    0.2667   -1.9051    1.4027 N   0  0  0  0  0  0  0  0  0  0  0  0
    0.4680    0.0959    2.7406 N   0  0  0  0  0  0  0  0  0  0  0  0
    2.2654    0.4082   -0.2693 F   0  0  0  0  0  0  0  0  0  0  0  0
  1  2  2  0
  1  6  1  0
  2  3  1  0
  3  4  2  0
  3 27  1  0
  4  5  1  0
  5  6  2  0
  6  7  1  0
  7  8  1  0
  8  9  2  0
  8 10  1  0
 10 11  2  0
 10 15  1  0
 11 12  1  0
 12 13  2  0
 13 14  1  0
 13 16  1  0
 14 15  2  0
 17  4  1  6
 17 18  1  0
 17 21  1  0
 17 25  1  0
 18 19  1  0
 19 20  1  0
 21 20  1  1
 21 22  1  0
 22 23  1  0
 23 24  1  0
 24 25  2  0
 24 26  1  0
M  END
>  <DRUGBANK_ID>  (1) 
DB12547

>  <COMMON_NAME>  (1) 
LY-2886721

>  <CAS_NUMBER>  (1) 
1262036-50-9

>  <UNII>  (1) 
2CQ62IWB67

$$$$
