
     RDKit          3D

 34 37  0  0  0  0  0  0  0  0999 V2000
   -1.3618    1.3421    5.9089 C   0  0  0  0  0  0  0  0  0  0  0  0
   -1.1132    1.7598    7.3007 C   0  0  0  0  0  0  0  0  0  0  0  0
   -2.5436    1.3717    5.4893 O   0  0  0  0  0  0  0  0  0  0  0  0
   -0.0114    1.0945    4.9894 C   0  0  2  0  0  0  0  0  0  0  0  0
   -1.9583    2.7640    7.8650 O   0  0  0  0  0  0  0  0  0  0  0  0
   -1.1089   -0.2528    5.1411 O   0  0  0  0  0  0  0  0  0  0  0  0
    2.0110    0.7581    4.6628 C   0  0  1  0  0  0  0  0  0  0  0  0
   -0.2292    2.4661    4.1890 C   0  0  0  0  0  0  0  0  0  0  0  0
   -2.0675    4.0379    7.3821 C   0  0  0  0  0  0  0  0  0  0  0  0
   -1.5459   -1.4956    4.7759 C   0  0  0  0  0  0  0  0  0  0  0  0
    2.8914    1.9175    3.5993 C   0  0  0  0  0  0  0  0  0  0  0  0
    0.8232    0.4116    4.0898 C   0  0  1  0  0  0  0  0  0  0  0  0
    2.7692   -0.5933    3.8828 C   0  0  0  0  0  0  0  0  0  0  0  0
    0.9505    2.1395    4.9216 C   0  0  0  0  0  0  0  0  0  0  0  0
   -1.8341    4.3206    5.9396 C   0  0  0  0  0  0  0  0  0  0  0  0
   -2.3842    4.9650    8.1196 O   0  0  0  0  0  0  0  0  0  0  0  0
   -3.0303   -1.6525    5.0387 C   0  0  0  0  0  0  0  0  0  0  0  0
   -0.9017   -2.3904    4.2941 O   0  0  0  0  0  0  0  0  0  0  0  0
    0.3901    0.1946    2.6734 C   0  0  1  0  0  0  0  0  0  0  0  0
    2.2476   -1.1350    2.3859 C   0  0  1  0  0  0  0  0  0  0  0  0
   -3.8160   -2.5129    4.0824 C   0  0  0  0  0  0  0  0  0  0  0  0
    0.6034   -1.2932    2.4434 C   0  0  2  0  0  0  0  0  0  0  0  0
   -1.0234    0.5397    2.5165 C   0  0  0  0  0  0  0  0  0  0  0  0
    2.7779   -0.3149    1.3309 O   0  0  0  0  0  0  0  0  0  0  0  0
   -0.7111   -2.1138    1.4460 C   0  0  2  0  0  0  0  0  0  0  0  0
   -1.7604    0.2799    1.2855 C   0  0  1  0  0  0  0  0  0  0  0  0
    0.3537   -2.9085    0.6669 C   0  0  0  0  0  0  0  0  0  0  0  0
   -1.3985   -1.0218    0.6195 C   0  0  0  0  0  0  0  0  0  0  0  0
   -2.1936   -3.2521    1.5649 C   0  0  0  0  0  0  0  0  0  0  0  0
   -3.1459    0.4001    1.9245 C   0  0  0  0  0  0  0  0  0  0  0  0
   -2.1288   -1.5516   -0.3967 C   0  0  0  0  0  0  0  0  0  0  0  0
   -3.2347   -3.3799    0.6461 C   0  0  0  0  0  0  0  0  0  0  0  0
   -3.4554   -2.0254    0.0998 C   0  0  0  0  0  0  0  0  0  0  0  0
   -4.4874   -1.3483    0.3408 O   0  0  0  0  0  0  0  0  0  0  0  0
  1  2  1  0
  1  3  2  0
  2  5  1  0
  4  8  1  0
  4  6  1  6
  4  1  1  0
  5  9  1  0
  6 10  1  0
  7  4  1  0
  7 11  1  1
  7 13  1  0
  8 14  1  0
  9 15  1  0
  9 16  2  0
 10 17  1  0
 10 18  2  0
 12  7  1  0
 12 14  1  6
 12 19  1  0
 17 21  1  0
 19 22  1  0
 19 23  1  1
 20 13  1  0
 20 24  1  6
 22 20  1  6
 22 25  1  0
 25 27  1  6
 25 28  1  0
 25 29  1  0
 26 23  1  0
 26 28  1  0
 26 30  1  1
 28 31  2  0
 29 32  2  0
 31 33  1  0
 32 33  1  0
 33 34  2  0
M  END
>  <DRUGBANK_ID>  (1) 
DB14643

>  <SECONDARY_ACCESSION_NUMBERS>  (1) 
DBSALT002468

>  <COMMON_NAME>  (1) 
Methylprednisolone aceponate

>  <CAS_NUMBER>  (1) 
86401-95-8

>  <UNII>  (1) 
ET54W9J4U2

>  <SYNONYMS>  (1) 
Aceponato de metilprednisolona; Methylprednisolone aceponate; Methylprednisoloni aceponas

$$$$
