VZZ
     RDKit          3D

 17 16  0  0  0  0  0  0  0  0999 V2000
    1.0735    0.1970    0.0166 O   0  0  0  0  0  0  0  0  0  0  0  0
    2.2870    0.0574   -0.0009 C   0  0  0  0  0  0  0  0  0  0  0  0
    3.0494    0.4336    1.0436 O   0  0  0  0  0  0  0  0  0  0  0  0
    3.0702   -0.5285   -1.1581 C   0  0  0  0  0  0  0  0  0  0  0  0
    2.6610   -1.9769   -1.4261 C   0  0  0  0  0  0  0  0  0  0  0  0
    1.1743   -2.0969   -1.7769 C   0  0  0  0  0  0  0  0  0  0  0  0
    0.8369   -1.2438   -3.0045 C   0  0  0  0  0  0  0  0  0  0  0  0
    1.6265   -1.7394   -4.2213 C   0  0  0  0  0  0  0  0  0  0  0  0
    1.2573   -3.1873   -4.5201 C   0  0  0  0  0  0  0  0  0  0  0  0
   -0.2370   -3.2707   -4.7923 C   0  0  0  0  0  0  0  0  0  0  0  0
   -0.6102   -2.4024   -6.0098 C   0  0  0  0  0  0  0  0  0  0  0  0
    0.0182   -2.9804   -7.2718 C   0  0  0  0  0  0  0  0  0  0  0  0
   -0.4344   -4.4264   -7.4959 C   0  0  0  0  0  0  0  0  0  0  0  0
   -1.8589   -4.4980   -7.7574 O   0  0  0  0  0  0  0  0  0  0  0  0
   -2.7901   -4.4220   -6.7645 C   0  0  0  0  0  0  0  0  0  0  0  0
   -2.5810   -4.3966   -5.5577 O   0  0  0  0  0  0  0  0  0  0  0  0
   -4.4553   -4.2715   -7.2807 S   0  0  0  0  0  0  0  0  0  0  0  0
  1  2  2  0
  2  3  1  0
  2  4  1  0
  4  5  1  0
  5  6  1  0
  6  7  1  0
  7  8  1  0
  8  9  1  0
  9 10  1  0
 10 11  1  0
 11 12  1  0
 12 13  1  0
 13 14  1  0
 14 15  1  0
 15 16  2  0
 15 17  1  0
M  END
>  <DRUGBANK_ID>  (1) 
DB08712

>  <COMMON_NAME>  (1) 
11-[(MERCAPTOCARBONYL)OXY]UNDECANOIC ACID

$$$$
