HBO
     RDKit          3D

 15 16  0  0  0  0  0  0  0  0999 V2000
    1.5566    0.1495    2.0262 O   0  0  0  0  0  0  0  0  0  0  0  0
   -0.7996    0.1926    1.7446 C   0  0  0  0  0  0  0  0  0  0  0  0
   -1.0227    0.7084    3.0006 N   0  0  0  0  0  0  0  0  0  0  0  0
   -0.6773    2.0399    3.2867 C   0  0  0  0  0  0  0  0  0  0  0  0
    0.0942    2.7368    2.3431 C   0  0  0  0  0  0  0  0  0  0  0  0
    0.6149    2.1545    1.2110 O   0  0  0  0  0  0  0  0  0  0  0  0
    0.5289    0.7365    1.2067 C   0  0  1  0  0  0  0  0  0  0  0  0
   -1.1608    2.7160    4.4049 C   0  0  0  0  0  0  0  0  0  0  0  0
   -0.8914    4.0839    4.5588 C   0  0  0  0  0  0  0  0  0  0  0  0
    0.3574    4.0984    2.4983 C   0  0  0  0  0  0  0  0  0  0  0  0
   -1.4418   -0.7179    1.2176 O   0  0  0  0  0  0  0  0  0  0  0  0
   -1.8122   -0.0082    3.9170 O   0  0  0  0  0  0  0  0  0  0  0  0
   -0.1306    4.7810    3.6106 C   0  0  0  0  0  0  0  0  0  0  0  0
    0.0724    6.1111    3.8693 O   0  0  0  0  0  0  0  0  0  0  0  0
    0.8702    6.8278    2.9279 C   0  0  0  0  0  0  0  0  0  0  0  0
  2  3  1  0
  2  7  1  0
  2 11  2  0
  3  4  1  0
  3 12  1  0
  4  5  2  0
  4  8  1  0
  5  6  1  0
  5 10  1  0
  6  7  1  0
  7  1  1  1
  8  9  2  0
  9 13  1  0
 10 13  2  0
 13 14  1  0
 14 15  1  0
M  END
>  <DRUGBANK_ID>  (1) 
DB02185

>  <SECONDARY_ACCESSION_NUMBERS>  (1) 
EXPT01700

>  <COMMON_NAME>  (1) 
2,4-Dihydroxy-7-(Methyloxy)-2h-1,4-Benzoxazin-3(4h)-One

$$$$
