
     RDKit          3D

  9  8  0  0  0  0  0  0  0  0999 V2000
    1.0031   -0.0430    0.0805 C   0  0  0  0  0  0  0  0  0  0  0  0
    0.5035   -0.3993    1.4786 C   0  0  0  0  0  0  0  0  0  0  0  0
    1.0102    0.6023    2.5034 C   0  0  0  0  0  0  0  0  0  0  0  0
    1.4305    1.4333    3.3537 N   0  0  0  0  0  0  0  0  0  0  0  0
    0.6106    1.3802   -0.3327 C   0  0  0  0  0  0  0  0  0  0  0  0
    1.2055    1.8389   -1.9785 S   0  0  0  0  0  0  0  0  0  0  0  0
    2.9388    1.8426   -1.8998 C   0  0  0  0  0  0  0  0  0  0  0  0
    3.6466    1.6448   -0.8429 N   0  0  0  0  0  0  0  0  0  0  0  0
    3.5590    2.0670   -3.0697 N   0  0  0  0  0  0  0  0  0  0  0  0
  1  2  1  0
  1  5  1  0
  2  3  1  0
  3  4  3  0
  5  6  1  0
  6  7  1  0
  7  8  2  0
  7  9  1  0
M  END
>  <DRUGBANK_ID>  (1) 
DB13010

>  <COMMON_NAME>  (1) 
4-isothioureidobutyronitrile

>  <CAS_NUMBER>  (1) 
500863-50-3

>  <UNII>  (1) 
C3059TG1KN

>  <SYNONYMS>  (1) 
Kevetrin; Thioureidobutyronitrile

$$$$
