
     RDKit          3D

 35 37  0  0  0  0  0  0  0  0999 V2000
    1.1897   -0.2011   -0.2435 C   0  0  0  0  0  0  0  0  0  0  0  0
    0.2342    0.2377   -1.4015 C   0  0  0  0  0  0  0  0  0  0  0  0
   -0.6888   -0.9264   -1.7182 C   0  0  0  0  0  0  0  0  0  0  0  0
   -1.6766   -1.1902   -0.5934 C   0  0  0  0  0  0  0  0  0  0  0  0
   -2.5239   -1.4165    0.3715 C   0  0  0  0  0  0  0  0  0  0  0  0
   -3.5116   -1.6803    1.4963 C   0  0  0  0  0  0  0  0  0  0  0  0
    0.9074   -0.9401    0.6919 O   0  0  0  0  0  0  0  0  0  0  0  0
    2.4845    0.1723   -0.3476 O   0  0  0  0  0  0  0  0  0  0  0  0
   -3.2078   -0.8473    2.6850 N   0  0  0  0  0  0  0  0  0  0  0  0
   -3.8133    0.4962    2.5805 C   0  0  0  0  0  0  0  0  0  0  0  0
   -3.2602    1.3163    1.4149 C   0  0  0  0  0  0  0  0  0  0  0  0
   -1.8719    1.5879    1.6415 O   0  0  0  0  0  0  0  0  0  0  0  0
   -1.1136    0.4229    1.9826 C   0  0  0  0  0  0  0  0  0  0  0  0
   -1.7498   -0.6574    2.8867 C   0  0  0  0  0  0  0  0  0  0  0  0
   -0.5986    1.4828   -1.3132 N   0  0  0  0  0  0  0  0  0  0  0  0
   -1.6037    1.9083   -2.6575 S   0  0  0  0  0  0  0  0  0  0  0  0
   -2.4342    0.7811   -3.0552 O   0  0  0  0  0  0  0  0  0  0  0  0
   -2.2226    3.1616   -2.3373 O   0  0  0  0  0  0  0  0  0  0  0  0
   -0.4165    2.1727   -3.9577 C   0  0  0  0  0  0  0  0  0  0  0  0
   -0.1233    3.4683   -4.3766 C   0  0  0  0  0  0  0  0  0  0  0  0
    0.8641    3.6847   -5.3587 C   0  0  0  0  0  0  0  0  0  0  0  0
    1.5806    2.6086   -5.9078 C   0  0  0  0  0  0  0  0  0  0  0  0
    1.2942    1.3290   -5.4280 C   0  0  0  0  0  0  0  0  0  0  0  0
    0.2479    1.0967   -4.5386 C   0  0  0  0  0  0  0  0  0  0  0  0
    2.5253    2.8226   -6.9547 N   0  0  0  0  0  0  0  0  0  0  0  0
    3.1919    1.8030   -7.6398 C   0  0  0  0  0  0  0  0  0  0  0  0
    4.1065    2.1702   -8.7480 C   0  0  0  0  0  0  0  0  0  0  0  0
    5.0103    3.2209   -8.6160 C   0  0  0  0  0  0  0  0  0  0  0  0
    5.9879    3.4254   -9.5976 C   0  0  0  0  0  0  0  0  0  0  0  0
    6.0784    2.5829  -10.7099 C   0  0  0  0  0  0  0  0  0  0  0  0
    5.2056    1.4983  -10.8133 C   0  0  0  0  0  0  0  0  0  0  0  0
    4.2020    1.3106   -9.8563 C   0  0  0  0  0  0  0  0  0  0  0  0
    3.1155    0.5989   -7.4117 O   0  0  0  0  0  0  0  0  0  0  0  0
    6.9686    2.7277  -11.7401 O   0  0  0  0  0  0  0  0  0  0  0  0
    7.7654    3.9097  -11.7229 C   0  0  0  0  0  0  0  0  0  0  0  0
  1  2  1  0
  1  7  2  0
  1  8  1  0
  2  3  1  0
  2 15  1  0
  3  4  1  0
  4  5  3  0
  5  6  1  0
  6  9  1  0
  9 10  1  0
  9 14  1  0
 10 11  1  0
 11 12  1  0
 12 13  1  0
 13 14  1  0
 15 16  1  0
 16 17  2  0
 16 18  2  0
 16 19  1  0
 19 20  2  0
 19 24  1  0
 20 21  1  0
 21 22  2  0
 22 23  1  0
 22 25  1  0
 23 24  2  0
 25 26  1  0
 26 27  1  0
 26 33  2  0
 27 28  2  0
 27 32  1  0
 28 29  1  0
 29 30  2  0
 30 31  1  0
 30 34  1  0
 31 32  2  0
 34 35  1  0
M  END
>  <DRUGBANK_ID>  (1) 
DB05495

>  <COMMON_NAME>  (1) 
PG-530742

>  <CAS_NUMBER>  (1) 
291533-11-4

>  <UNII>  (1) 
F94T42GL80

$$$$
