
     RDKit          3D

 46 50  0  0  0  0  0  0  0  0999 V2000
   44.7390   70.1210   31.1160 C   0  0  0  0  0  0  0  0  0  0  0  0
   44.8110   68.8490   30.5460 C   0  0  0  0  0  0  0  0  0  0  0  0
   43.7340   67.9650   30.6550 C   0  0  0  0  0  0  0  0  0  0  0  0
   42.5950   68.3800   31.3380 C   0  0  0  0  0  0  0  0  0  0  0  0
   42.5040   69.6340   31.9080 C   0  0  0  0  0  0  0  0  0  0  0  0
   43.6010   70.4810   31.7750 C   0  0  0  0  0  0  0  0  0  0  0  0
   43.4780   71.7970   32.3860 C   0  0  0  0  0  0  0  0  0  0  0  0
   43.3500   71.9700   33.7240 N   0  0  0  0  0  0  0  0  0  0  0  0
   43.2560   73.2290   34.0390 O   0  0  0  0  0  0  0  0  0  0  0  0
   43.3160   73.9340   32.9410 C   0  0  0  0  0  0  0  0  0  0  0  0
   43.4490   73.0580   31.9680 N   0  0  0  0  0  0  0  0  0  0  0  0
   43.2790   75.2990   32.5390 N   0  0  0  0  0  0  0  0  0  0  0  0
   44.0920   75.7900   31.4110 C   0  0  0  0  0  0  0  0  0  0  0  0
   44.2820   77.2600   31.8130 C   0  0  0  0  0  0  0  0  0  0  0  0
   42.8410   77.5750   32.1760 C   0  0  0  0  0  0  0  0  0  0  0  0
   42.5090   76.4080   33.0940 C   0  0  0  0  0  0  0  0  0  0  0  0
   47.1110   72.8080   29.9310 C   0  0  0  0  0  0  0  0  0  0  0  0
   45.9320   72.0250   30.0310 C   0  0  0  0  0  0  0  0  0  0  0  0
   45.9000   70.9630   30.9530 C   0  0  0  0  0  0  0  0  0  0  0  0
   47.0000   70.7230   31.7160 N   0  0  0  0  0  0  0  0  0  0  0  0
   48.1130   71.5090   31.5800 C   0  0  0  0  0  0  0  0  0  0  0  0
   48.1620   72.5110   30.7190 N   0  0  0  0  0  0  0  0  0  0  0  0
   49.2350   71.1840   32.4300 C   0  0  0  0  0  0  0  0  0  0  0  0
   50.3500   72.0110   32.4320 C   0  0  0  0  0  0  0  0  0  0  0  0
   51.4690   71.7720   33.2180 C   0  0  0  0  0  0  0  0  0  0  0  0
   51.4710   70.6450   34.0460 C   0  0  0  0  0  0  0  0  0  0  0  0
   50.3400   69.8770   33.9910 C   0  0  0  0  0  0  0  0  0  0  0  0
   49.2320   70.0960   33.2270 N   0  0  0  0  0  0  0  0  0  0  0  0
   45.7198   68.5408   30.0084 H   0  0  0  0  0  0  0  0  0  0  0  0
   43.7858   66.9606   30.2095 H   0  0  0  0  0  0  0  0  0  0  0  0
   41.7432   67.6895   31.4262 H   0  0  0  0  0  0  0  0  0  0  0  0
   41.5992   69.9519   32.4468 H   0  0  0  0  0  0  0  0  0  0  0  0
   43.5559   75.6976   30.4549 H   0  0  0  0  0  0  0  0  0  0  0  0
   45.0290   75.2368   31.2496 H   0  0  0  0  0  0  0  0  0  0  0  0
   44.9607   77.3717   32.6714 H   0  0  0  0  0  0  0  0  0  0  0  0
   44.7389   77.9106   31.0527 H   0  0  0  0  0  0  0  0  0  0  0  0
   42.7583   78.5379   32.7013 H   0  0  0  0  0  0  0  0  0  0  0  0
   42.1683   77.6766   31.3116 H   0  0  0  0  0  0  0  0  0  0  0  0
   41.4317   76.1866   33.0726 H   0  0  0  0  0  0  0  0  0  0  0  0
   42.7542   76.6116   34.1468 H   0  0  0  0  0  0  0  0  0  0  0  0
   47.1658   73.6456   29.2201 H   0  0  0  0  0  0  0  0  0  0  0  0
   45.0588   72.2444   29.3990 H   0  0  0  0  0  0  0  0  0  0  0  0
   50.3467   72.8971   31.7803 H   0  0  0  0  0  0  0  0  0  0  0  0
   52.3329   72.4524   33.1902 H   0  0  0  0  0  0  0  0  0  0  0  0
   52.3221   70.3936   34.6959 H   0  0  0  0  0  0  0  0  0  0  0  0
   50.3226   68.9846   34.6339 H   0  0  0  0  0  0  0  0  0  0  0  0
  1  6  2  0
  2  3  2  0
  2  1  1  0
  3  4  1  0
  4  5  2  0
  6  5  1  0
  6  7  1  0
  7  8  2  0
  8  9  1  0
 10  9  1  0
 11  7  1  0
 11 10  2  0
 12 10  1  0
 12 16  1  0
 13 14  1  0
 13 12  1  0
 14 15  1  0
 15 16  1  0
 17 18  2  0
 17 22  1  0
 18 19  1  0
 19  1  1  0
 19 20  2  0
 21 20  1  0
 21 23  1  0
 22 21  2  0
 23 24  2  0
 23 28  1  0
 24 25  1  0
 25 26  2  0
 27 26  1  0
 28 27  2  0
  2 29  1  0
  3 30  1  0
  4 31  1  0
  5 32  1  0
 13 33  1  0
 13 34  1  0
 14 35  1  0
 14 36  1  0
 15 37  1  0
 15 38  1  0
 16 39  1  0
 16 40  1  0
 17 41  1  0
 18 42  1  0
 24 43  1  0
 25 44  1  0
 26 45  1  0
 27 46  1  0
M  END
>  <Score>  (1) 
-7.04543

$$$$
