
     RDKit          3D

 53 58  0  0  1  0  0  0  0  0999 V2000
   47.4020   69.7550   31.3170 C   0  0  0  0  0  0  0  0  0  0  0  0
   46.8790   70.3840   30.2410 C   0  0  0  0  0  0  0  0  0  0  0  0
   47.0880   69.7690   29.0310 C   0  0  0  0  0  0  0  0  0  0  0  0
   47.7800   68.6080   28.9840 N   0  0  0  0  0  0  0  0  0  0  0  0
   48.2740   68.0260   30.0520 C   0  0  0  0  0  0  0  0  0  0  0  0
   48.0980   68.5810   31.2290 N   0  0  0  0  0  0  0  0  0  0  0  0
   46.1390   71.6280   30.4670 C   0  0  2  0  0  0  0  0  0  0  0  0
   46.9470   72.7200   30.3910 N   0  0  0  0  0  0  0  0  0  0  0  0
   46.5170   73.9560   30.6910 C   0  0  0  0  0  0  0  0  0  0  0  0
   45.2610   74.1540   31.2470 N   0  0  0  0  0  0  0  0  0  0  0  0
   44.5060   73.0500   31.4820 C   0  0  0  0  0  0  0  0  0  0  0  0
   43.2820   73.1450   32.0710 C   0  0  0  0  0  0  0  0  0  0  0  0
   42.5400   71.9960   32.3570 C   0  0  0  0  0  0  0  0  0  0  0  0
   43.0450   70.7400   32.0430 C   0  0  0  0  0  0  0  0  0  0  0  0
   44.2970   70.6530   31.4410 C   0  0  0  0  0  0  0  0  0  0  0  0
   44.9770   71.8110   31.1820 C   0  0  0  0  0  0  0  0  0  0  0  0
   49.0120   66.7460   29.9280 C   0  0  0  0  0  0  0  0  0  0  0  0
   49.2840   66.3940   28.4710 C   0  0  0  0  0  0  0  0  0  0  0  0
   48.3010   65.4410   27.9360 C   0  0  0  0  0  0  0  0  0  0  0  0
   48.6970   64.6820   26.8310 C   0  0  0  0  0  0  0  0  0  0  0  0
   47.7840   63.7760   26.3090 C   0  0  0  0  0  0  0  0  0  0  0  0
   46.5720   63.6560   26.8700 N   0  0  0  0  0  0  0  0  0  0  0  0
   46.1840   64.3760   27.9270 C   0  0  0  0  0  0  0  0  0  0  0  0
   47.0790   65.2670   28.4400 N   0  0  0  0  0  0  0  0  0  0  0  0
   44.8820   64.1970   28.4710 N   0  0  0  0  0  0  0  0  0  0  0  0
   44.0440   65.2490   28.6710 C   0  0  0  0  0  0  0  0  0  0  0  0
   42.8940   64.8300   29.1850 N   0  0  0  0  0  0  0  0  0  0  0  0
   42.9460   63.5140   29.3350 C   0  0  0  0  0  0  0  0  0  0  0  0
   42.1080   62.5020   29.8030 C   0  0  0  0  0  0  0  0  0  0  0  0
   42.5440   61.2250   29.7940 N   0  0  0  0  0  0  0  0  0  0  0  0
   43.7620   60.8640   29.3530 C   0  0  0  0  0  0  0  0  0  0  0  0
   44.6050   61.8340   28.8900 N   0  0  0  0  0  0  0  0  0  0  0  0
   44.1920   63.1200   28.8880 C   0  0  0  0  0  0  0  0  0  0  0  0
   47.2613   70.2083   32.3093 H   0  0  0  0  0  0  0  0  0  0  0  0
   46.0966   69.5681   28.5989 H   0  0  0  0  0  0  0  0  0  0  0  0
   47.7340   70.4764   28.4903 H   0  0  0  0  0  0  0  0  0  0  0  0
   48.4798   68.1372   32.0764 H   0  0  0  0  0  0  0  0  0  0  0  0
   45.4552   71.3962   29.6372 H   0  0  0  0  0  0  0  0  0  0  0  0
   47.1673   74.8210   30.4940 H   0  0  0  0  0  0  0  0  0  0  0  0
   44.9161   75.0981   31.4719 H   0  0  0  0  0  0  0  0  0  0  0  0
   42.8738   74.1347   32.3238 H   0  0  0  0  0  0  0  0  0  0  0  0
   41.5522   72.0861   32.8326 H   0  0  0  0  0  0  0  0  0  0  0  0
   42.4662   69.8316   32.2660 H   0  0  0  0  0  0  0  0  0  0  0  0
   44.7293   69.6758   31.1797 H   0  0  0  0  0  0  0  0  0  0  0  0
   49.9713   66.8342   30.4590 H   0  0  0  0  0  0  0  0  0  0  0  0
   48.3930   65.9484   30.3647 H   0  0  0  0  0  0  0  0  0  0  0  0
   49.2466   67.3154   27.8713 H   0  0  0  0  0  0  0  0  0  0  0  0
   50.2757   65.9210   28.4179 H   0  0  0  0  0  0  0  0  0  0  0  0
   49.6980   64.7987   26.3901 H   0  0  0  0  0  0  0  0  0  0  0  0
   48.0536   63.1592   25.4390 H   0  0  0  0  0  0  0  0  0  0  0  0
   44.2846   66.2972   28.4399 H   0  0  0  0  0  0  0  0  0  0  0  0
   41.1014   62.7425   30.1758 H   0  0  0  0  0  0  0  0  0  0  0  0
   44.0732   59.8090   29.3649 H   0  0  0  0  0  0  0  0  0  0  0  0
  2  7  1  0
  2  1  2  0
  3  2  1  0
  4  3  1  0
  4  5  2  0
  5  6  1  0
  6  1  1  0
  7 16  1  0
  8  7  1  0
  8  9  2  0
  9 10  1  0
 10 11  1  0
 11 12  2  0
 12 13  1  0
 14 13  2  0
 15 14  1  0
 16 15  2  0
 16 11  1  0
 17  5  1  0
 18 17  1  0
 19 24  1  0
 19 18  1  0
 20 19  2  0
 21 20  1  0
 21 22  2  0
 22 23  1  0
 23 24  2  0
 23 25  1  0
 25 26  1  0
 25 33  1  0
 26 27  2  0
 27 28  1  0
 28 29  2  0
 30 29  1  0
 31 30  2  0
 32 31  1  0
 33 32  2  0
 33 28  1  0
  1 34  1  0
  3 35  1  0
  3 36  1  0
  6 37  1  0
  7 38  1  6
  9 39  1  0
 10 40  1  0
 12 41  1  0
 13 42  1  0
 14 43  1  0
 15 44  1  0
 17 45  1  0
 17 46  1  0
 18 47  1  0
 18 48  1  0
 20 49  1  0
 21 50  1  0
 26 51  1  0
 29 52  1  0
 31 53  1  0
M  END
>  <Score>  (1) 
-7.1259

$$$$
