
     RDKit          3D

 49 53  0  0  1  0  0  0  0  0999 V2000
   44.4150   74.8600   32.5490 C   0  0  0  0  0  0  0  0  0  0  0  0
   45.8940   72.7950   32.7950 C   0  0  0  0  0  0  0  0  0  0  0  0
   45.0740   73.6730   32.0810 C   0  0  0  0  0  0  0  0  0  0  0  0
   44.8530   73.3840   30.7470 C   0  0  0  0  0  0  0  0  0  0  0  0
   45.4480   72.2670   30.2130 N   0  0  0  0  0  0  0  0  0  0  0  0
   46.2370   71.4390   30.9310 C   0  0  0  0  0  0  0  0  0  0  0  0
   46.4510   71.7190   32.2270 N   0  0  0  0  0  0  0  0  0  0  0  0
   46.8080   70.3070   30.2850 N   0  0  0  0  0  0  0  0  0  0  0  0
   46.0220   69.2980   29.8970 C   0  0  0  0  0  0  0  0  0  0  0  0
   46.4480   68.1480   29.2620 C   0  0  0  0  0  0  0  0  0  0  0  0
   47.8090   68.0500   29.0140 C   0  0  0  0  0  0  0  0  0  0  0  0
   48.2610   67.0430   28.4470 O   0  0  0  0  0  0  0  0  0  0  0  0
   48.6010   69.0800   29.4120 N   0  0  0  0  0  0  0  0  0  0  0  0
   48.1310   70.1970   30.0360 C   0  0  0  0  0  0  0  0  0  0  0  0
   48.9060   71.1220   30.3850 O   0  0  0  0  0  0  0  0  0  0  0  0
   45.4850   67.0980   28.8790 C   0  0  0  0  0  0  0  0  0  0  0  0
   44.4510   75.9960   31.5990 C   0  0  2  0  0  0  0  0  0  0  0  0
   44.6280   77.3750   32.0280 C   0  0  0  0  0  0  0  0  0  0  0  0
   43.2870   77.0110   31.6140 C   0  0  2  0  0  0  0  0  0  0  0  0
   42.1630   76.8050   32.5450 C   0  0  0  0  0  0  0  0  0  0  0  0
   41.9190   77.3050   33.7950 N   0  0  0  0  0  0  0  0  0  0  0  0
   40.8050   76.8320   34.2330 O   0  0  0  0  0  0  0  0  0  0  0  0
   40.2780   76.0270   33.3290 C   0  0  0  0  0  0  0  0  0  0  0  0
   41.1200   76.0000   32.2650 N   0  0  0  0  0  0  0  0  0  0  0  0
   39.0730   75.2460   33.2880 N   0  0  0  0  0  0  0  0  0  0  0  0
   39.1380   73.9660   32.8630 C   0  0  0  0  0  0  0  0  0  0  0  0
   37.9360   73.2520   32.8430 C   0  0  0  0  0  0  0  0  0  0  0  0
   36.7340   73.8090   33.2340 C   0  0  0  0  0  0  0  0  0  0  0  0
   35.5210   73.0560   33.2040 N   0  0  0  0  0  0  0  0  0  0  0  0
   36.7530   75.1010   33.6490 N   0  0  0  0  0  0  0  0  0  0  0  0
   37.9030   75.8200   33.6790 C   0  0  0  0  0  0  0  0  0  0  0  0
   37.9300   77.0260   34.0640 O   0  0  0  0  0  0  0  0  0  0  0  0
   43.3621   74.6125   32.7493 H   0  0  0  0  0  0  0  0  0  0  0  0
   44.9579   75.1861   33.4484 H   0  0  0  0  0  0  0  0  0  0  0  0
   46.0880   72.9950   33.8591 H   0  0  0  0  0  0  0  0  0  0  0  0
   44.2160   74.0330   30.1282 H   0  0  0  0  0  0  0  0  0  0  0  0
   44.9451   69.3915   30.1006 H   0  0  0  0  0  0  0  0  0  0  0  0
   49.6129   69.0129   29.2321 H   0  0  0  0  0  0  0  0  0  0  0  0
   45.0637   66.6386   29.7853 H   0  0  0  0  0  0  0  0  0  0  0  0
   44.6747   67.5433   28.2830 H   0  0  0  0  0  0  0  0  0  0  0  0
   45.9986   66.3292   28.2830 H   0  0  0  0  0  0  0  0  0  0  0  0
   44.9580   75.3486   30.8683 H   0  0  0  0  0  0  0  0  0  0  0  0
   44.8243   77.5872   33.0893 H   0  0  0  0  0  0  0  0  0  0  0  0
   45.3183   78.1750   31.7223 H   0  0  0  0  0  0  0  0  0  0  0  0
   42.5674   77.4399   30.9011 H   0  0  0  0  0  0  0  0  0  0  0  0
   40.0877   73.5085   32.5487 H   0  0  0  0  0  0  0  0  0  0  0  0
   37.9481   72.2060   32.5027 H   0  0  0  0  0  0  0  0  0  0  0  0
   34.6364   73.4925   33.5003 H   0  0  0  0  0  0  0  0  0  0  0  0
   35.5307   72.0764   32.8860 H   0  0  0  0  0  0  0  0  0  0  0  0
  3  1  1  0
  3  2  2  0
  4  3  1  0
  5  4  2  0
  5  6  1  0
  6  7  2  0
  7  2  1  0
  8  6  1  0
  9  8  1  0
 10  9  2  0
 11 10  1  0
 11 13  1  0
 12 11  2  0
 13 14  1  0
 14  8  1  0
 14 15  2  0
 16 10  1  0
 17 19  1  0
 17 18  1  0
 17  1  1  0
 19 18  1  0
 19 20  1  0
 20 21  2  0
 21 22  1  0
 23 22  1  0
 24 20  1  0
 24 23  2  0
 25 23  1  0
 25 31  1  0
 26 25  1  0
 27 26  2  0
 27 28  1  0
 28 30  2  0
 29 28  1  0
 30 31  1  0
 31 32  2  0
  1 33  1  0
  1 34  1  0
  2 35  1  0
  4 36  1  0
  9 37  1  0
 13 38  1  0
 16 39  1  0
 16 40  1  0
 16 41  1  0
 17 42  1  6
 18 43  1  0
 18 44  1  0
 19 45  1  6
 26 46  1  0
 27 47  1  0
 29 48  1  0
 29 49  1  0
M  END
>  <Score>  (1) 
-7.13078

$$$$
