
     RDKit          3D

 42 45  0  0  0  0  0  0  0  0999 V2000
   44.5140   70.1190   31.2420 C   0  0  0  0  0  0  0  0  0  0  0  0
   44.6460   68.8370   30.7270 C   0  0  0  0  0  0  0  0  0  0  0  0
   43.4790   68.1020   30.8100 C   0  0  0  0  0  0  0  0  0  0  0  0
   42.3470   68.5500   31.3200 N   0  0  0  0  0  0  0  0  0  0  0  0
   42.3130   69.8260   31.8030 C   0  0  0  0  0  0  0  0  0  0  0  0
   43.3950   70.6110   31.7650 N   0  0  0  0  0  0  0  0  0  0  0  0
   46.7940   72.9950   30.4420 C   0  0  0  0  0  0  0  0  0  0  0  0
   45.6420   72.1740   30.4770 C   0  0  0  0  0  0  0  0  0  0  0  0
   45.6990   70.9750   31.1990 C   0  0  0  0  0  0  0  0  0  0  0  0
   46.8510   70.6710   31.8210 N   0  0  0  0  0  0  0  0  0  0  0  0
   47.9510   71.4600   31.7850 C   0  0  0  0  0  0  0  0  0  0  0  0
   47.9150   72.6250   31.0910 N   0  0  0  0  0  0  0  0  0  0  0  0
   49.1490   71.0920   32.4630 N   0  0  0  0  0  0  0  0  0  0  0  0
   50.0190   72.1420   32.5120 C   0  0  0  0  0  0  0  0  0  0  0  0
   51.2580   71.9960   33.1350 C   0  0  0  0  0  0  0  0  0  0  0  0
   52.2450   73.1100   33.2180 C   0  0  0  0  0  0  0  0  0  0  0  0
   51.5600   70.7670   33.6860 C   0  0  0  0  0  0  0  0  0  0  0  0
   52.6520   70.5570   34.2600 O   0  0  0  0  0  0  0  0  0  0  0  0
   50.6680   69.7600   33.6110 N   0  0  0  0  0  0  0  0  0  0  0  0
   49.4750   69.9080   33.0080 C   0  0  0  0  0  0  0  0  0  0  0  0
   48.5830   69.0310   32.8900 O   0  0  0  0  0  0  0  0  0  0  0  0
   43.3800   66.7470   30.3380 N   0  0  0  0  0  0  0  0  0  0  0  0
   42.8740   65.9140   31.2830 C   0  0  0  0  0  0  0  0  0  0  0  0
   42.7090   64.5620   30.9990 C   0  0  0  0  0  0  0  0  0  0  0  0
   43.0690   64.0910   29.7420 C   0  0  0  0  0  0  0  0  0  0  0  0
   42.9100   62.7100   29.4230 N   0  0  0  0  0  0  0  0  0  0  0  0
   43.5640   64.9720   28.8510 N   0  0  0  0  0  0  0  0  0  0  0  0
   43.7210   66.2650   29.1270 C   0  0  0  0  0  0  0  0  0  0  0  0
   44.1720   67.1270   28.3490 O   0  0  0  0  0  0  0  0  0  0  0  0
   45.5809   68.4472   30.2981 H   0  0  0  0  0  0  0  0  0  0  0  0
   41.3780   70.2161   32.2316 H   0  0  0  0  0  0  0  0  0  0  0  0
   46.7740   73.9412   29.8814 H   0  0  0  0  0  0  0  0  0  0  0  0
   44.7233   72.4704   29.9496 H   0  0  0  0  0  0  0  0  0  0  0  0
   49.7425   73.1056   32.0592 H   0  0  0  0  0  0  0  0  0  0  0  0
   52.4495   73.3408   34.2739 H   0  0  0  0  0  0  0  0  0  0  0  0
   53.1792   72.8100   32.7207 H   0  0  0  0  0  0  0  0  0  0  0  0
   51.8347   74.0012   32.7207 H   0  0  0  0  0  0  0  0  0  0  0  0
   50.9070   68.8491   34.0282 H   0  0  0  0  0  0  0  0  0  0  0  0
   42.5949   66.3073   32.2716 H   0  0  0  0  0  0  0  0  0  0  0  0
   42.3004   63.8773   31.7568 H   0  0  0  0  0  0  0  0  0  0  0  0
   43.1773   62.3627   28.4909 H   0  0  0  0  0  0  0  0  0  0  0  0
   42.5279   62.0600   30.1247 H   0  0  0  0  0  0  0  0  0  0  0  0
  1  6  2  0
  2  3  2  0
  2  1  1  0
  3  4  1  0
  4  5  2  0
  6  5  1  0
  7  8  2  0
  7 12  1  0
  8  9  1  0
  9  1  1  0
  9 10  2  0
 11 10  1  0
 11 13  1  0
 12 11  2  0
 13 14  1  0
 13 20  1  0
 14 15  2  0
 15 16  1  0
 15 17  1  0
 17 18  2  0
 19 17  1  0
 20 19  1  0
 21 20  2  0
 22  3  1  0
 22 23  1  0
 24 23  2  0
 25 24  1  0
 26 25  1  0
 27 28  1  0
 27 25  2  0
 28 22  1  0
 29 28  2  0
  2 30  1  0
  5 31  1  0
  7 32  1  0
  8 33  1  0
 14 34  1  0
 16 35  1  0
 16 36  1  0
 16 37  1  0
 19 38  1  0
 23 39  1  0
 24 40  1  0
 26 41  1  0
 26 42  1  0
M  END
>  <Score>  (1) 
-7.44557

$$$$
