
     RDKit          3D

 38 42  0  0  0  0  0  0  0  0999 V2000
   46.5560   71.9640   29.2450 C   0  0  0  0  0  0  0  0  0  0  0  0
   45.9060   72.1310   30.4770 C   0  0  0  0  0  0  0  0  0  0  0  0
   45.6050   70.9920   31.2180 C   0  0  0  0  0  0  0  0  0  0  0  0
   45.9640   69.7760   30.6980 N   0  0  0  0  0  0  0  0  0  0  0  0
   46.5840   69.6590   29.5170 C   0  0  0  0  0  0  0  0  0  0  0  0
   46.8790   70.7490   28.7940 N   0  0  0  0  0  0  0  0  0  0  0  0
   46.8770   68.3170   29.1420 N   0  0  0  0  0  0  0  0  0  0  0  0
   48.1680   67.9470   29.0270 C   0  0  0  0  0  0  0  0  0  0  0  0
   48.2300   66.6390   28.6640 N   0  0  0  0  0  0  0  0  0  0  0  0
   46.9730   66.1660   28.5440 C   0  0  0  0  0  0  0  0  0  0  0  0
   46.3330   64.9800   28.2190 C   0  0  0  0  0  0  0  0  0  0  0  0
   47.0730   64.0030   27.9420 O   0  0  0  0  0  0  0  0  0  0  0  0
   44.9720   64.9030   28.2110 N   0  0  0  0  0  0  0  0  0  0  0  0
   44.2070   65.9910   28.5200 C   0  0  0  0  0  0  0  0  0  0  0  0
   42.8210   65.6840   28.4480 N   0  0  0  0  0  0  0  0  0  0  0  0
   44.8080   67.1540   28.8380 N   0  0  0  0  0  0  0  0  0  0  0  0
   46.1440   67.2270   28.8460 C   0  0  0  0  0  0  0  0  0  0  0  0
   45.5910   73.4800   30.8920 C   0  0  0  0  0  0  0  0  0  0  0  0
   46.4860   74.5310   30.9820 C   0  0  0  0  0  0  0  0  0  0  0  0
   45.8320   75.6430   31.4050 N   0  0  0  0  0  0  0  0  0  0  0  0
   44.5120   75.3260   31.5950 C   0  0  0  0  0  0  0  0  0  0  0  0
   43.4310   76.0880   32.0160 C   0  0  0  0  0  0  0  0  0  0  0  0
   42.1680   75.5000   32.1230 C   0  0  0  0  0  0  0  0  0  0  0  0
   42.0130   74.1740   31.8100 C   0  0  0  0  0  0  0  0  0  0  0  0
   43.1100   73.4490   31.3950 C   0  0  0  0  0  0  0  0  0  0  0  0
   44.3700   73.9990   31.2790 C   0  0  0  0  0  0  0  0  0  0  0  0
   46.8038   72.8487   28.6402 H   0  0  0  0  0  0  0  0  0  0  0  0
   45.0952   71.0655   32.1900 H   0  0  0  0  0  0  0  0  0  0  0  0
   49.0353   68.6012   29.1999 H   0  0  0  0  0  0  0  0  0  0  0  0
   44.5147   64.0124   27.9687 H   0  0  0  0  0  0  0  0  0  0  0  0
   42.1211   66.4105   28.6561 H   0  0  0  0  0  0  0  0  0  0  0  0
   42.5165   64.7351   28.1877 H   0  0  0  0  0  0  0  0  0  0  0  0
   47.5593   74.4746   30.7476 H   0  0  0  0  0  0  0  0  0  0  0  0
   46.2563   76.5691   31.5575 H   0  0  0  0  0  0  0  0  0  0  0  0
   43.5681   77.1508   32.2645 H   0  0  0  0  0  0  0  0  0  0  0  0
   41.3052   76.0959   32.4556 H   0  0  0  0  0  0  0  0  0  0  0  0
   41.0260   73.6947   31.8890 H   0  0  0  0  0  0  0  0  0  0  0  0
   42.9747   72.3862   31.1456 H   0  0  0  0  0  0  0  0  0  0  0  0
  1  2  2  0
  2 18  1  0
  2  3  1  0
  4  3  2  0
  5  4  1  0
  6  1  1  0
  6  5  2  0
  7  5  1  0
  8  7  1  0
  9  8  2  0
 10  9  1  0
 10 17  2  0
 11 10  1  0
 12 11  2  0
 13 11  1  0
 13 14  1  0
 14 16  2  0
 15 14  1  0
 16 17  1  0
 17  7  1  0
 18 19  2  0
 18 26  1  0
 19 20  1  0
 20 21  1  0
 21 22  2  0
 22 23  1  0
 24 23  2  0
 25 24  1  0
 26 25  2  0
 26 21  1  0
  1 27  1  0
  3 28  1  0
  8 29  1  0
 13 30  1  0
 15 31  1  0
 15 32  1  0
 19 33  1  0
 20 34  1  0
 22 35  1  0
 23 36  1  0
 24 37  1  0
 25 38  1  0
M  END
>  <Score>  (1) 
-7.471

$$$$
