
     RDKit          3D

 50 55  0  0  0  0  0  0  0  0999 V2000
   44.7990   71.1150   31.0460 C   0  0  0  0  0  0  0  0  0  0  0  0
   44.3350   72.3960   31.3950 C   0  0  0  0  0  0  0  0  0  0  0  0
   45.1250   73.4990   31.1320 C   0  0  0  0  0  0  0  0  0  0  0  0
   46.3360   73.3080   30.5360 N   0  0  0  0  0  0  0  0  0  0  0  0
   46.7610   72.0780   30.2090 C   0  0  0  0  0  0  0  0  0  0  0  0
   46.0030   71.0060   30.4620 N   0  0  0  0  0  0  0  0  0  0  0  0
   44.6770   74.8260   31.5150 C   0  0  0  0  0  0  0  0  0  0  0  0
   45.5520   75.8880   31.3770 C   0  0  0  0  0  0  0  0  0  0  0  0
   45.0050   77.1000   31.7930 C   0  0  0  0  0  0  0  0  0  0  0  0
   43.7440   77.2410   32.2850 C   0  0  0  0  0  0  0  0  0  0  0  0
   42.9390   76.1450   32.3910 C   0  0  0  0  0  0  0  0  0  0  0  0
   43.4200   74.9260   31.9990 N   0  0  0  0  0  0  0  0  0  0  0  0
   41.5880   76.1300   32.8870 N   0  0  0  0  0  0  0  0  0  0  0  0
   41.0810   76.7010   33.9930 C   0  0  0  0  0  0  0  0  0  0  0  0
   39.7590   76.5630   34.2760 C   0  0  0  0  0  0  0  0  0  0  0  0
   38.9310   75.8360   33.4250 C   0  0  0  0  0  0  0  0  0  0  0  0
   37.6920   75.7210   33.7110 O   0  0  0  0  0  0  0  0  0  0  0  0
   39.4770   75.2730   32.3160 N   0  0  0  0  0  0  0  0  0  0  0  0
   40.7870   75.4270   32.0630 C   0  0  0  0  0  0  0  0  0  0  0  0
   41.1330   74.8450   30.9990 O   0  0  0  0  0  0  0  0  0  0  0  0
   44.0100   69.9570   31.3310 N   0  0  0  0  0  0  0  0  0  0  0  0
   44.3320   68.7160   30.9170 C   0  0  0  0  0  0  0  0  0  0  0  0
   43.2900   67.9280   31.4510 C   0  0  0  0  0  0  0  0  0  0  0  0
   42.4230   68.7190   32.1380 N   0  0  0  0  0  0  0  0  0  0  0  0
   42.8750   70.0030   32.0650 C   0  0  0  0  0  0  0  0  0  0  0  0
   41.9990   70.8530   32.8170 C   0  0  0  0  0  0  0  0  0  0  0  0
   41.9620   71.5520   34.0060 C   0  0  0  0  0  0  0  0  0  0  0  0
   40.7910   72.1540   34.2190 N   0  0  0  0  0  0  0  0  0  0  0  0
   39.9470   71.9200   33.2090 C   0  0  0  0  0  0  0  0  0  0  0  0
   38.6670   72.2930   32.9430 C   0  0  0  0  0  0  0  0  0  0  0  0
   38.0500   71.8860   31.7930 C   0  0  0  0  0  0  0  0  0  0  0  0
   38.7220   71.0910   30.8880 C   0  0  0  0  0  0  0  0  0  0  0  0
   40.0160   70.7350   31.1940 C   0  0  0  0  0  0  0  0  0  0  0  0
   40.6810   71.1350   32.3660 C   0  0  0  0  0  0  0  0  0  0  0  0
   43.3520   72.5189   31.8731 H   0  0  0  0  0  0  0  0  0  0  0  0
   47.7422   71.9504   29.7283 H   0  0  0  0  0  0  0  0  0  0  0  0
   46.5730   75.7865   30.9803 H   0  0  0  0  0  0  0  0  0  0  0  0
   45.6325   78.0004   31.7190 H   0  0  0  0  0  0  0  0  0  0  0  0
   43.3770   78.2307   32.5946 H   0  0  0  0  0  0  0  0  0  0  0  0
   41.7330   77.2773   34.6659 H   0  0  0  0  0  0  0  0  0  0  0  0
   39.3413   77.0277   35.1813 H   0  0  0  0  0  0  0  0  0  0  0  0
   38.8874   74.7289   31.6701 H   0  0  0  0  0  0  0  0  0  0  0  0
   45.1936   68.3962   30.3125 H   0  0  0  0  0  0  0  0  0  0  0  0
   43.1937   66.8389   31.3298 H   0  0  0  0  0  0  0  0  0  0  0  0
   42.8095   71.6070   34.7051 H   0  0  0  0  0  0  0  0  0  0  0  0
   40.5674   72.7219   35.0487 H   0  0  0  0  0  0  0  0  0  0  0  0
   38.1235   72.9273   33.6588 H   0  0  0  0  0  0  0  0  0  0  0  0
   37.0139   72.1936   31.5886 H   0  0  0  0  0  0  0  0  0  0  0  0
   38.2421   70.7543   29.9572 H   0  0  0  0  0  0  0  0  0  0  0  0
   40.5614   70.1006   30.4798 H   0  0  0  0  0  0  0  0  0  0  0  0
  1 21  1  0
  1  2  2  0
  3  2  1  0
  3  7  1  0
  4  3  2  0
  5  6  2  0
  5  4  1  0
  6  1  1  0
  7 12  1  0
  8  7  2  0
  8  9  1  0
  9 10  2  0
 10 11  1  0
 11 13  1  0
 12 11  2  0
 13 14  1  0
 14 15  2  0
 16 17  2  0
 16 15  1  0
 18 16  1  0
 19 18  1  0
 19 13  1  0
 20 19  2  0
 21 25  1  0
 22 21  1  0
 22 23  2  0
 23 24  1  0
 25 24  2  0
 25 26  1  0
 26 27  2  0
 27 28  1  0
 29 28  1  0
 30 29  2  0
 31 30  1  0
 32 33  1  0
 32 31  2  0
 33 34  2  0
 34 26  1  0
 34 29  1  0
  2 35  1  0
  5 36  1  0
  8 37  1  0
  9 38  1  0
 10 39  1  0
 14 40  1  0
 15 41  1  0
 18 42  1  0
 22 43  1  0
 23 44  1  0
 27 45  1  0
 28 46  1  0
 30 47  1  0
 31 48  1  0
 32 49  1  0
 33 50  1  0
M  END
>  <Score>  (1) 
-7.63266

$$$$
