
     RDKit          3D

 43 47  0  0  0  0  0  0  0  0999 V2000
   45.9700   71.3000   31.1170 C   0  0  0  0  0  0  0  0  0  0  0  0
   46.0600   72.2300   30.0730 C   0  0  0  0  0  0  0  0  0  0  0  0
   47.3030   72.8310   29.8340 C   0  0  0  0  0  0  0  0  0  0  0  0
   48.3580   72.4800   30.6280 N   0  0  0  0  0  0  0  0  0  0  0  0
   48.2310   71.5790   31.6250 C   0  0  0  0  0  0  0  0  0  0  0  0
   47.0370   71.0080   31.8470 N   0  0  0  0  0  0  0  0  0  0  0  0
   49.3570   71.2090   32.4660 C   0  0  0  0  0  0  0  0  0  0  0  0
   50.4910   71.9820   32.5410 C   0  0  0  0  0  0  0  0  0  0  0  0
   51.5850   71.6450   33.3440 C   0  0  0  0  0  0  0  0  0  0  0  0
   51.5210   70.4820   34.0960 C   0  0  0  0  0  0  0  0  0  0  0  0
   50.3620   69.7290   33.9940 C   0  0  0  0  0  0  0  0  0  0  0  0
   49.3170   70.0750   33.2110 N   0  0  0  0  0  0  0  0  0  0  0  0
   50.1240   68.4990   34.6980 N   0  0  0  0  0  0  0  0  0  0  0  0
   48.9930   67.7700   34.5250 C   0  0  0  0  0  0  0  0  0  0  0  0
   48.9770   66.6520   35.2850 N   0  0  0  0  0  0  0  0  0  0  0  0
   50.1380   66.6710   35.9650 C   0  0  0  0  0  0  0  0  0  0  0  0
   50.7660   65.8740   36.8910 C   0  0  0  0  0  0  0  0  0  0  0  0
   51.9720   66.1860   37.3960 N   0  0  0  0  0  0  0  0  0  0  0  0
   52.6310   67.3000   37.0240 C   0  0  0  0  0  0  0  0  0  0  0  0
   52.0360   68.1130   36.1080 N   0  0  0  0  0  0  0  0  0  0  0  0
   50.8370   67.8030   35.6030 C   0  0  0  0  0  0  0  0  0  0  0  0
   44.7270   70.6730   31.3890 N   0  0  0  0  0  0  0  0  0  0  0  0
   44.5140   69.3740   31.0320 C   0  0  0  0  0  0  0  0  0  0  0  0
   43.2830   68.7800   31.3100 C   0  0  0  0  0  0  0  0  0  0  0  0
   42.3910   69.6080   31.9390 C   0  0  0  0  0  0  0  0  0  0  0  0
   41.2590   69.0930   32.2050 O   0  0  0  0  0  0  0  0  0  0  0  0
   42.5620   70.8760   32.3020 N   0  0  0  0  0  0  0  0  0  0  0  0
   43.7850   71.4040   32.0040 C   0  0  0  0  0  0  0  0  0  0  0  0
   43.9960   72.6210   32.3340 O   0  0  0  0  0  0  0  0  0  0  0  0
   42.9630   67.3800   30.9600 C   0  0  0  0  0  0  0  0  0  0  0  0
   45.1818   72.4807   29.4598 H   0  0  0  0  0  0  0  0  0  0  0  0
   47.4264   73.5677   29.0265 H   0  0  0  0  0  0  0  0  0  0  0  0
   50.5400   72.9047   31.9441 H   0  0  0  0  0  0  0  0  0  0  0  0
   52.4766   72.2883   33.3783 H   0  0  0  0  0  0  0  0  0  0  0  0
   52.3531   70.1708   34.7447 H   0  0  0  0  0  0  0  0  0  0  0  0
   48.1795   68.0567   33.8423 H   0  0  0  0  0  0  0  0  0  0  0  0
   50.2674   64.9536   37.2291 H   0  0  0  0  0  0  0  0  0  0  0  0
   53.6169   67.5449   37.4460 H   0  0  0  0  0  0  0  0  0  0  0  0
   45.3061   68.7998   30.5292 H   0  0  0  0  0  0  0  0  0  0  0  0
   41.8253   71.4199   32.7736 H   0  0  0  0  0  0  0  0  0  0  0  0
   42.8289   66.7933   31.8808 H   0  0  0  0  0  0  0  0  0  0  0  0
   42.0354   67.3525   30.3694 H   0  0  0  0  0  0  0  0  0  0  0  0
   43.7865   66.9523   30.3694 H   0  0  0  0  0  0  0  0  0  0  0  0
  1 22  1  0
  1  6  1  0
  2  1  2  0
  3  2  1  0
  3  4  2  0
  4  5  1  0
  5  6  2  0
  5  7  1  0
  7  8  2  0
  7 12  1  0
  8  9  1  0
  9 10  2  0
 11 10  1  0
 11 13  1  0
 12 11  2  0
 13 21  1  0
 14 13  1  0
 14 15  2  0
 15 16  1  0
 16 17  2  0
 17 18  1  0
 19 18  2  0
 20 19  1  0
 21 16  1  0
 21 20  2  0
 22 28  1  0
 23 24  2  0
 23 22  1  0
 24 25  1  0
 25 26  2  0
 25 27  1  0
 28 27  1  0
 28 29  2  0
 30 24  1  0
  2 31  1  0
  3 32  1  0
  8 33  1  0
  9 34  1  0
 10 35  1  0
 14 36  1  0
 17 37  1  0
 19 38  1  0
 23 39  1  0
 27 40  1  0
 30 41  1  0
 30 42  1  0
 30 43  1  0
M  END
>  <Score>  (1) 
-7.05431

$$$$
