
     RDKit          3D

 44 47  0  0  0  0  0  0  0  0999 V2000
   44.6240   70.1670   31.2090 C   0  0  0  0  0  0  0  0  0  0  0  0
   44.7550   68.8960   30.6770 C   0  0  0  0  0  0  0  0  0  0  0  0
   43.6840   67.9880   30.7450 C   0  0  0  0  0  0  0  0  0  0  0  0
   42.5130   68.4030   31.3520 C   0  0  0  0  0  0  0  0  0  0  0  0
   42.3660   69.6690   31.8880 C   0  0  0  0  0  0  0  0  0  0  0  0
   43.4530   70.5340   31.7990 C   0  0  0  0  0  0  0  0  0  0  0  0
   43.2750   71.8540   32.3670 C   0  0  0  0  0  0  0  0  0  0  0  0
   42.9580   72.0620   33.6710 N   0  0  0  0  0  0  0  0  0  0  0  0
   42.8500   73.3270   33.9530 O   0  0  0  0  0  0  0  0  0  0  0  0
   43.0880   74.0160   32.8520 C   0  0  0  0  0  0  0  0  0  0  0  0
   43.3400   73.1150   31.9170 N   0  0  0  0  0  0  0  0  0  0  0  0
   43.1430   75.3640   32.4330 N   0  0  0  0  0  0  0  0  0  0  0  0
   44.1200   75.8180   31.4410 C   0  0  0  0  0  0  0  0  0  0  0  0
   44.2940   77.2950   31.8480 C   0  0  0  0  0  0  0  0  0  0  0  0
   42.8320   77.6570   31.9990 C   0  0  0  0  0  0  0  0  0  0  0  0
   42.3280   76.5020   32.8430 C   0  0  0  0  0  0  0  0  0  0  0  0
   47.1760   72.6300   29.8910 C   0  0  0  0  0  0  0  0  0  0  0  0
   46.0270   71.8120   29.9490 C   0  0  0  0  0  0  0  0  0  0  0  0
   45.7810   71.0240   31.0900 C   0  0  0  0  0  0  0  0  0  0  0  0
   46.6760   71.0900   32.0970 N   0  0  0  0  0  0  0  0  0  0  0  0
   47.7900   71.8920   32.0270 C   0  0  0  0  0  0  0  0  0  0  0  0
   48.0060   72.6340   30.9310 N   0  0  0  0  0  0  0  0  0  0  0  0
   48.6940   71.9160   33.1250 N   0  0  0  0  0  0  0  0  0  0  0  0
   50.0840   71.8440   32.8770 C   0  0  0  0  0  0  0  0  0  0  0  0
   50.6090   72.0810   31.7290 N   0  0  0  0  0  0  0  0  0  0  0  0
   50.9180   71.4920   33.9640 N   0  0  0  0  0  0  0  0  0  0  0  0
   51.6210   72.0410   31.5030 H   0  0  0  0  0  0  0  0  0  0  0  0
   45.6995   68.5956   30.1998 H   0  0  0  0  0  0  0  0  0  0  0  0
   43.7750   66.9747   30.3266 H   0  0  0  0  0  0  0  0  0  0  0  0
   41.6682   67.7009   31.4105 H   0  0  0  0  0  0  0  0  0  0  0  0
   41.4259   69.9808   32.3665 H   0  0  0  0  0  0  0  0  0  0  0  0
   43.7283   75.7252   30.4173 H   0  0  0  0  0  0  0  0  0  0  0  0
   45.0553   75.2391   31.4300 H   0  0  0  0  0  0  0  0  0  0  0  0
   44.8478   77.4027   32.7923 H   0  0  0  0  0  0  0  0  0  0  0  0
   44.8720   77.9189   31.1504 H   0  0  0  0  0  0  0  0  0  0  0  0
   42.7064   78.6194   32.5167 H   0  0  0  0  0  0  0  0  0  0  0  0
   42.2982   77.7862   31.0459 H   0  0  0  0  0  0  0  0  0  0  0  0
   41.2637   76.3098   32.6424 H   0  0  0  0  0  0  0  0  0  0  0  0
   42.4088   76.7064   33.9208 H   0  0  0  0  0  0  0  0  0  0  0  0
   47.3806   73.2502   29.0059 H   0  0  0  0  0  0  0  0  0  0  0  0
   45.3240   71.7901   29.1032 H   0  0  0  0  0  0  0  0  0  0  0  0
   48.3399   71.9850   34.0898 H   0  0  0  0  0  0  0  0  0  0  0  0
   51.9373   71.4270   33.8311 H   0  0  0  0  0  0  0  0  0  0  0  0
   50.5059   71.3007   34.8884 H   0  0  0  0  0  0  0  0  0  0  0  0
  1  6  2  0
  2  3  2  0
  2  1  1  0
  3  4  1  0
  4  5  2  0
  6  5  1  0
  6  7  1  0
  7  8  2  0
  8  9  1  0
 10  9  1  0
 11  7  1  0
 11 10  2  0
 12 16  1  0
 12 10  1  0
 13 14  1  0
 13 12  1  0
 14 15  1  0
 15 16  1  0
 17 18  2  0
 17 22  1  0
 18 19  1  0
 19  1  1  0
 19 20  2  0
 21 20  1  0
 21 23  1  0
 22 21  2  0
 24 23  1  0
 24 26  1  0
 25 24  2  0
 27 25  1  0
  2 28  1  0
  3 29  1  0
  4 30  1  0
  5 31  1  0
 13 32  1  0
 13 33  1  0
 14 34  1  0
 14 35  1  0
 15 36  1  0
 15 37  1  0
 16 38  1  0
 16 39  1  0
 17 40  1  0
 18 41  1  0
 23 42  1  0
 26 43  1  0
 26 44  1  0
M  END
>  <Score>  (1) 
-7.3892

$$$$
