
     RDKit          3D

 50 55  0  0  0  0  0  0  0  0999 V2000
   54.5440   73.0470   34.2600 N   0  0  0  0  0  0  0  0  0  0  0  0
   54.0380   74.2320   33.8470 C   0  0  0  0  0  0  0  0  0  0  0  0
   52.8150   73.9700   33.3530 N   0  0  0  0  0  0  0  0  0  0  0  0
   52.5780   72.6700   33.4570 C   0  0  0  0  0  0  0  0  0  0  0  0
   51.4550   71.9420   33.0810 C   0  0  0  0  0  0  0  0  0  0  0  0
   51.4950   70.6170   33.3130 N   0  0  0  0  0  0  0  0  0  0  0  0
   52.5560   70.0130   33.8760 C   0  0  0  0  0  0  0  0  0  0  0  0
   53.6330   70.7350   34.2320 N   0  0  0  0  0  0  0  0  0  0  0  0
   53.6690   72.0580   34.0350 C   0  0  0  0  0  0  0  0  0  0  0  0
   52.4340   68.5340   34.0600 C   0  0  0  0  0  0  0  0  0  0  0  0
   53.7350   68.0060   34.6730 C   0  0  0  0  0  0  0  0  0  0  0  0
   54.4880   67.3090   33.6140 C   0  0  0  0  0  0  0  0  0  0  0  0
   55.6770   67.8450   33.1810 C   0  0  0  0  0  0  0  0  0  0  0  0
   56.3080   67.0990   32.1730 C   0  0  0  0  0  0  0  0  0  0  0  0
   55.7600   65.9380   31.6800 C   0  0  0  0  0  0  0  0  0  0  0  0
   54.5560   65.4520   32.1610 C   0  0  0  0  0  0  0  0  0  0  0  0
   53.9640   66.1860   33.1340 N   0  0  0  0  0  0  0  0  0  0  0  0
   50.3180   72.4660   32.4980 O   0  0  0  0  0  0  0  0  0  0  0  0
   49.0740   71.8520   32.5900 C   0  0  0  0  0  0  0  0  0  0  0  0
   48.6520   71.6960   33.7540 O   0  0  0  0  0  0  0  0  0  0  0  0
   46.8390   71.9520   29.7120 C   0  0  0  0  0  0  0  0  0  0  0  0
   46.8870   70.6710   29.2190 C   0  0  0  0  0  0  0  0  0  0  0  0
   47.6980   69.7410   29.8760 C   0  0  0  0  0  0  0  0  0  0  0  0
   48.4150   70.1320   30.9820 N   0  0  0  0  0  0  0  0  0  0  0  0
   48.3280   71.4270   31.4320 C   0  0  0  0  0  0  0  0  0  0  0  0
   47.5580   72.2960   30.8010 N   0  0  0  0  0  0  0  0  0  0  0  0
   47.7480   68.4230   29.3700 N   0  0  0  0  0  0  0  0  0  0  0  0
   48.8410   67.6530   29.1050 C   0  0  0  0  0  0  0  0  0  0  0  0
   48.4580   66.4470   28.6290 N   0  0  0  0  0  0  0  0  0  0  0  0
   47.1200   66.4110   28.5770 C   0  0  0  0  0  0  0  0  0  0  0  0
   46.2690   65.4100   28.1670 C   0  0  0  0  0  0  0  0  0  0  0  0
   44.9450   65.6540   28.2220 N   0  0  0  0  0  0  0  0  0  0  0  0
   44.5000   66.8510   28.6710 C   0  0  0  0  0  0  0  0  0  0  0  0
   45.3460   67.8160   29.0670 N   0  0  0  0  0  0  0  0  0  0  0  0
   46.6840   67.6460   29.0400 C   0  0  0  0  0  0  0  0  0  0  0  0
   55.4727   72.9227   34.6878 H   0  0  0  0  0  0  0  0  0  0  0  0
   54.5294   75.2145   33.9040 H   0  0  0  0  0  0  0  0  0  0  0  0
   51.5918   68.3129   34.7321 H   0  0  0  0  0  0  0  0  0  0  0  0
   52.2535   68.0493   33.0892 H   0  0  0  0  0  0  0  0  0  0  0  0
   54.3303   68.8441   35.0643 H   0  0  0  0  0  0  0  0  0  0  0  0
   53.5148   67.3170   35.5018 H   0  0  0  0  0  0  0  0  0  0  0  0
   56.0972   68.7764   33.5883 H   0  0  0  0  0  0  0  0  0  0  0  0
   57.2669   67.4528   31.7664 H   0  0  0  0  0  0  0  0  0  0  0  0
   56.2879   65.3853   30.8889 H   0  0  0  0  0  0  0  0  0  0  0  0
   54.1066   64.5248   31.7759 H   0  0  0  0  0  0  0  0  0  0  0  0
   46.2089   72.7042   29.2148 H   0  0  0  0  0  0  0  0  0  0  0  0
   46.3034   70.3847   28.3316 H   0  0  0  0  0  0  0  0  0  0  0  0
   49.8841   67.9675   29.2566 H   0  0  0  0  0  0  0  0  0  0  0  0
   46.6559   64.4452   27.8072 H   0  0  0  0  0  0  0  0  0  0  0  0
   43.4169   67.0383   28.7126 H   0  0  0  0  0  0  0  0  0  0  0  0
  2  1  1  0
  3  4  1  0
  3  2  2  0
  4  9  2  0
  5  6  2  0
  5  4  1  0
  6  7  1  0
  7 10  1  0
  7  8  2  0
  9  8  1  0
  9  1  1  0
 10 11  1  0
 12 11  1  0
 13 12  2  0
 14 13  1  0
 15 16  1  0
 15 14  2  0
 16 17  2  0
 17 12  1  0
 18 19  1  0
 18  5  1  0
 19 20  2  0
 21 26  2  0
 22 21  1  0
 22 23  2  0
 23 24  1  0
 24 25  2  0
 25 19  1  0
 26 25  1  0
 27 23  1  0
 28 27  1  0
 29 28  2  0
 30 29  1  0
 30 35  2  0
 31 32  2  0
 31 30  1  0
 32 33  1  0
 33 34  2  0
 35 34  1  0
 35 27  1  0
  1 36  1  0
  2 37  1  0
 10 38  1  0
 10 39  1  0
 11 40  1  0
 11 41  1  0
 13 42  1  0
 14 43  1  0
 15 44  1  0
 16 45  1  0
 21 46  1  0
 22 47  1  0
 28 48  1  0
 31 49  1  0
 33 50  1  0
M  END
>  <Score>  (1) 
-7.19389

$$$$
