
     RDKit          3D

 47 51  0  0  1  0  0  0  0  0999 V2000
   44.9130   71.1440   31.3000 C   0  0  0  0  0  0  0  0  0  0  0  0
   44.7270   69.7440   31.2140 C   0  0  0  0  0  0  0  0  0  0  0  0
   43.4800   69.2160   31.6240 C   0  0  0  0  0  0  0  0  0  0  0  0
   42.5270   70.0850   32.0780 N   0  0  0  0  0  0  0  0  0  0  0  0
   42.7580   71.4190   32.1400 C   0  0  0  0  0  0  0  0  0  0  0  0
   43.9350   71.9250   31.7540 N   0  0  0  0  0  0  0  0  0  0  0  0
   46.2020   71.6590   30.8820 C   0  0  0  0  0  0  0  0  0  0  0  0
   46.5850   72.3070   29.7370 C   0  0  0  0  0  0  0  0  0  0  0  0
   47.8930   72.6040   29.7760 N   0  0  0  0  0  0  0  0  0  0  0  0
   48.3870   72.1500   30.9570 C   0  0  0  0  0  0  0  0  0  0  0  0
   49.6790   72.2340   31.4310 C   0  0  0  0  0  0  0  0  0  0  0  0
   49.9730   71.6960   32.6880 C   0  0  0  0  0  0  0  0  0  0  0  0
   48.9420   71.1010   33.4000 C   0  0  0  0  0  0  0  0  0  0  0  0
   47.6660   71.0300   32.9120 C   0  0  0  0  0  0  0  0  0  0  0  0
   47.3500   71.5540   31.6710 C   0  0  0  0  0  0  0  0  0  0  0  0
   41.7100   72.3310   32.6470 C   0  0  2  0  0  0  0  0  0  0  0  0
   40.4670   71.4720   32.8830 C   0  0  0  0  0  0  0  0  0  0  0  0
   41.3350   73.4270   31.7010 C   0  0  0  0  0  0  0  0  0  0  0  0
   41.1630   74.7010   32.3700 N   0  0  0  0  0  0  0  0  0  0  0  0
   40.1420   75.1870   33.1000 C   0  0  0  0  0  0  0  0  0  0  0  0
   40.4520   76.4210   33.5100 N   0  0  0  0  0  0  0  0  0  0  0  0
   41.6570   76.7340   33.0550 C   0  0  0  0  0  0  0  0  0  0  0  0
   42.4600   77.8650   33.1730 C   0  0  0  0  0  0  0  0  0  0  0  0
   42.0690   78.8730   33.8280 O   0  0  0  0  0  0  0  0  0  0  0  0
   43.6790   77.9340   32.5980 N   0  0  0  0  0  0  0  0  0  0  0  0
   44.0770   76.8510   31.9060 C   0  0  0  0  0  0  0  0  0  0  0  0
   45.3420   76.7370   31.2250 N   0  0  0  0  0  0  0  0  0  0  0  0
   43.3420   75.7260   31.7550 N   0  0  0  0  0  0  0  0  0  0  0  0
   42.1190   75.6630   32.3360 C   0  0  0  0  0  0  0  0  0  0  0  0
   45.5263   69.0871   30.8403 H   0  0  0  0  0  0  0  0  0  0  0  0
   43.2824   68.1348   31.5787 H   0  0  0  0  0  0  0  0  0  0  0  0
   45.9128   72.5502   28.9010 H   0  0  0  0  0  0  0  0  0  0  0  0
   48.4272   73.0897   29.0414 H   0  0  0  0  0  0  0  0  0  0  0  0
   50.4649   72.7158   30.8309 H   0  0  0  0  0  0  0  0  0  0  0  0
   50.9919   71.7433   33.0999 H   0  0  0  0  0  0  0  0  0  0  0  0
   49.1575   70.6721   34.3897 H   0  0  0  0  0  0  0  0  0  0  0  0
   46.8806   70.5499   33.5143 H   0  0  0  0  0  0  0  0  0  0  0  0
   42.1007   72.8215   33.5508 H   0  0  0  0  0  0  0  0  0  0  0  0
   40.3006   71.3570   33.9643 H   0  0  0  0  0  0  0  0  0  0  0  0
   39.5925   71.9594   32.4273 H   0  0  0  0  0  0  0  0  0  0  0  0
   40.6137   70.4817   32.4273 H   0  0  0  0  0  0  0  0  0  0  0  0
   40.3904   73.1580   31.2057 H   0  0  0  0  0  0  0  0  0  0  0  0
   42.1541   73.5378   30.9752 H   0  0  0  0  0  0  0  0  0  0  0  0
   39.2051   74.6554   33.3229 H   0  0  0  0  0  0  0  0  0  0  0  0
   44.2729   78.7711   32.6843 H   0  0  0  0  0  0  0  0  0  0  0  0
   45.5762   75.8735   30.7146 H   0  0  0  0  0  0  0  0  0  0  0  0
   46.0119   77.5190   31.2487 H   0  0  0  0  0  0  0  0  0  0  0  0
  1  6  1  0
  2  1  2  0
  2  3  1  0
  3  4  2  0
  4  5  1  0
  5 16  1  0
  6  5  2  0
  7  1  1  0
  7 15  1  0
  8  9  1  0
  8  7  2  0
  9 10  1  0
 10 11  1  0
 10 15  2  0
 11 12  2  0
 12 13  1  0
 14 13  2  0
 15 14  1  0
 16 17  1  0
 18 19  1  0
 18 16  1  0
 19 20  1  0
 20 21  2  0
 22 23  1  0
 22 21  1  0
 23 24  2  0
 25 23  1  0
 26 25  1  0
 27 26  1  0
 28 26  2  0
 28 29  1  0
 29 19  1  0
 29 22  2  0
  2 30  1  0
  3 31  1  0
  8 32  1  0
  9 33  1  0
 11 34  1  0
 12 35  1  0
 13 36  1  0
 14 37  1  0
 16 38  1  1
 17 39  1  0
 17 40  1  0
 17 41  1  0
 18 42  1  0
 18 43  1  0
 20 44  1  0
 25 45  1  0
 27 46  1  0
 27 47  1  0
M  END
>  <Score>  (1) 
-7.07939

$$$$
