
     RDKit          3D

 52 57  0  0  0  0  0  0  0  0999 V2000
   44.7770   71.1440   31.0430 C   0  0  0  0  0  0  0  0  0  0  0  0
   44.3090   72.4180   31.3880 C   0  0  0  0  0  0  0  0  0  0  0  0
   45.0760   73.5310   31.1110 C   0  0  0  0  0  0  0  0  0  0  0  0
   46.2750   73.3590   30.4980 N   0  0  0  0  0  0  0  0  0  0  0  0
   46.7140   72.1290   30.1680 C   0  0  0  0  0  0  0  0  0  0  0  0
   45.9730   71.0530   30.4390 N   0  0  0  0  0  0  0  0  0  0  0  0
   44.6230   74.8520   31.5130 C   0  0  0  0  0  0  0  0  0  0  0  0
   45.5030   75.9160   31.3970 C   0  0  0  0  0  0  0  0  0  0  0  0
   44.9510   77.1230   31.8330 C   0  0  0  0  0  0  0  0  0  0  0  0
   43.6880   77.2550   32.3200 C   0  0  0  0  0  0  0  0  0  0  0  0
   42.8820   76.1530   32.4030 C   0  0  0  0  0  0  0  0  0  0  0  0
   43.3630   74.9430   31.9920 N   0  0  0  0  0  0  0  0  0  0  0  0
   41.5260   76.1370   32.8930 N   0  0  0  0  0  0  0  0  0  0  0  0
   41.0100   76.6800   33.9990 C   0  0  0  0  0  0  0  0  0  0  0  0
   39.6720   76.5210   34.2450 C   0  0  0  0  0  0  0  0  0  0  0  0
   38.8560   75.8190   33.3850 C   0  0  0  0  0  0  0  0  0  0  0  0
   37.6200   75.7100   33.6750 O   0  0  0  0  0  0  0  0  0  0  0  0
   39.4200   75.2900   32.2850 N   0  0  0  0  0  0  0  0  0  0  0  0
   40.7290   75.4430   32.0400 C   0  0  0  0  0  0  0  0  0  0  0  0
   41.0880   74.8820   30.9660 O   0  0  0  0  0  0  0  0  0  0  0  0
   44.0120   69.9770   31.3560 N   0  0  0  0  0  0  0  0  0  0  0  0
   44.3280   68.7400   30.8870 C   0  0  0  0  0  0  0  0  0  0  0  0
   43.3080   67.9290   31.4210 C   0  0  0  0  0  0  0  0  0  0  0  0
   42.4640   68.7060   32.1580 N   0  0  0  0  0  0  0  0  0  0  0  0
   42.9080   70.0010   32.1210 C   0  0  0  0  0  0  0  0  0  0  0  0
   42.0810   70.8460   32.9230 C   0  0  0  0  0  0  0  0  0  0  0  0
   42.4150   71.4700   34.1430 C   0  0  0  0  0  0  0  0  0  0  0  0
   41.6970   72.2900   34.9420 C   0  0  0  0  0  0  0  0  0  0  0  0
   40.4380   72.5360   34.4540 C   0  0  0  0  0  0  0  0  0  0  0  0
   39.9450   72.0130   33.2810 C   0  0  0  0  0  0  0  0  0  0  0  0
   38.6630   72.3440   32.8940 C   0  0  0  0  0  0  0  0  0  0  0  0
   38.1610   71.8370   31.7150 C   0  0  0  0  0  0  0  0  0  0  0  0
   38.9470   71.0070   30.9450 C   0  0  0  0  0  0  0  0  0  0  0  0
   40.2200   70.7120   31.3850 C   0  0  0  0  0  0  0  0  0  0  0  0
   40.7720   71.1900   32.5530 C   0  0  0  0  0  0  0  0  0  0  0  0
   43.3313   72.5312   31.8791 H   0  0  0  0  0  0  0  0  0  0  0  0
   47.6889   72.0110   29.6723 H   0  0  0  0  0  0  0  0  0  0  0  0
   46.5260   75.8206   31.0040 H   0  0  0  0  0  0  0  0  0  0  0  0
   45.5784   78.0249   31.7789 H   0  0  0  0  0  0  0  0  0  0  0  0
   43.3181   78.2389   32.6441 H   0  0  0  0  0  0  0  0  0  0  0  0
   41.6463   77.2431   34.6976 H   0  0  0  0  0  0  0  0  0  0  0  0
   39.2377   76.9653   35.1527 H   0  0  0  0  0  0  0  0  0  0  0  0
   38.8379   74.7596   31.6211 H   0  0  0  0  0  0  0  0  0  0  0  0
   45.1731   68.4453   30.2474 H   0  0  0  0  0  0  0  0  0  0  0  0
   43.2083   66.8442   31.2683 H   0  0  0  0  0  0  0  0  0  0  0  0
   43.4307   71.2527   34.5050 H   0  0  0  0  0  0  0  0  0  0  0  0
   42.0801   72.7144   35.8817 H   0  0  0  0  0  0  0  0  0  0  0  0
   39.7798   73.1948   35.0394 H   0  0  0  0  0  0  0  0  0  0  0  0
   38.0474   73.0062   33.5204 H   0  0  0  0  0  0  0  0  0  0  0  0
   37.1413   72.0926   31.3911 H   0  0  0  0  0  0  0  0  0  0  0  0
   38.5673   70.5894   30.0008 H   0  0  0  0  0  0  0  0  0  0  0  0
   40.8372   70.0494   30.7604 H   0  0  0  0  0  0  0  0  0  0  0  0
  1 21  1  0
  1  2  2  0
  3  2  1  0
  3  7  1  0
  4  3  2  0
  5  6  2  0
  5  4  1  0
  6  1  1  0
  7 12  1  0
  8  7  2  0
  8  9  1  0
  9 10  2  0
 10 11  1  0
 11 13  1  0
 12 11  2  0
 13 14  1  0
 14 15  2  0
 16 17  2  0
 16 15  1  0
 18 16  1  0
 19 18  1  0
 19 13  1  0
 20 19  2  0
 21 25  1  0
 22 21  1  0
 22 23  2  0
 23 24  1  0
 25 24  2  0
 25 26  1  0
 26 27  2  0
 27 28  1  0
 29 28  2  0
 30 29  1  0
 31 30  2  0
 32 31  1  0
 33 34  1  0
 33 32  2  0
 34 35  2  0
 35 26  1  0
 35 30  1  0
  2 36  1  0
  5 37  1  0
  8 38  1  0
  9 39  1  0
 10 40  1  0
 14 41  1  0
 15 42  1  0
 18 43  1  0
 22 44  1  0
 23 45  1  0
 27 46  1  0
 28 47  1  0
 29 48  1  0
 31 49  1  0
 32 50  1  0
 33 51  1  0
 34 52  1  0
M  END
>  <Score>  (1) 
-7.81603

$$$$
