
     RDKit          3D

 49 53  0  0  0  0  0  0  0  0999 V2000
   54.8940   72.9290   34.1300 N   0  0  0  0  0  0  0  0  0  0  0  0
   54.3510   74.1360   33.8010 C   0  0  0  0  0  0  0  0  0  0  0  0
   53.0780   73.8810   33.4320 N   0  0  0  0  0  0  0  0  0  0  0  0
   52.8590   72.5810   33.5330 C   0  0  0  0  0  0  0  0  0  0  0  0
   51.7050   71.8660   33.2610 C   0  0  0  0  0  0  0  0  0  0  0  0
   51.7600   70.5160   33.4540 N   0  0  0  0  0  0  0  0  0  0  0  0
   52.8720   69.9010   33.8860 C   0  0  0  0  0  0  0  0  0  0  0  0
   53.9890   70.6280   34.1440 N   0  0  0  0  0  0  0  0  0  0  0  0
   54.0010   71.9560   33.9750 C   0  0  0  0  0  0  0  0  0  0  0  0
   52.7760   68.4200   34.0500 C   0  0  0  0  0  0  0  0  0  0  0  0
   54.1280   67.8850   34.5360 C   0  0  0  0  0  0  0  0  0  0  0  0
   54.7180   67.1120   33.4330 C   0  0  0  0  0  0  0  0  0  0  0  0
   55.8930   67.5470   32.8350 C   0  0  0  0  0  0  0  0  0  0  0  0
   56.3620   66.7310   31.7950 C   0  0  0  0  0  0  0  0  0  0  0  0
   55.6880   65.5920   31.4170 C   0  0  0  0  0  0  0  0  0  0  0  0
   54.5290   65.2120   32.0460 C   0  0  0  0  0  0  0  0  0  0  0  0
   54.0760   66.0050   33.0560 N   0  0  0  0  0  0  0  0  0  0  0  0
   50.5070   72.3940   32.8140 O   0  0  0  0  0  0  0  0  0  0  0  0
   49.3120   71.6870   32.8230 C   0  0  0  0  0  0  0  0  0  0  0  0
   49.0320   71.1400   33.9220 O   0  0  0  0  0  0  0  0  0  0  0  0
   47.2330   72.6600   29.9940 C   0  0  0  0  0  0  0  0  0  0  0  0
   46.7990   71.4560   29.4740 C   0  0  0  0  0  0  0  0  0  0  0  0
   47.2270   70.2700   30.1060 C   0  0  0  0  0  0  0  0  0  0  0  0
   48.0490   70.3610   31.1980 N   0  0  0  0  0  0  0  0  0  0  0  0
   48.4480   71.5780   31.6740 C   0  0  0  0  0  0  0  0  0  0  0  0
   48.0390   72.6980   31.0700 N   0  0  0  0  0  0  0  0  0  0  0  0
   46.7900   69.0400   29.5810 N   0  0  0  0  0  0  0  0  0  0  0  0
   45.4940   68.6370   29.6360 C   0  0  0  0  0  0  0  0  0  0  0  0
   45.0100   67.4400   29.1370 C   0  0  0  0  0  0  0  0  0  0  0  0
   45.9090   66.5950   28.5390 C   0  0  0  0  0  0  0  0  0  0  0  0
   45.4550   65.4990   28.0850 O   0  0  0  0  0  0  0  0  0  0  0  0
   47.1900   66.9720   28.4740 N   0  0  0  0  0  0  0  0  0  0  0  0
   47.6030   68.1380   28.9720 C   0  0  0  0  0  0  0  0  0  0  0  0
   48.8190   68.4350   28.8790 O   0  0  0  0  0  0  0  0  0  0  0  0
   55.8619   72.7903   34.4537 H   0  0  0  0  0  0  0  0  0  0  0  0
   54.8486   75.1166   33.8304 H   0  0  0  0  0  0  0  0  0  0  0  0
   51.9970   68.1801   34.7886 H   0  0  0  0  0  0  0  0  0  0  0  0
   52.5154   67.9548   33.0879 H   0  0  0  0  0  0  0  0  0  0  0  0
   54.7892   68.7223   34.8040 H   0  0  0  0  0  0  0  0  0  0  0  0
   53.9977   67.2528   35.4267 H   0  0  0  0  0  0  0  0  0  0  0  0
   56.4159   68.4612   33.1524 H   0  0  0  0  0  0  0  0  0  0  0  0
   57.2884   67.0073   31.2702 H   0  0  0  0  0  0  0  0  0  0  0  0
   56.0851   64.9759   30.5968 H   0  0  0  0  0  0  0  0  0  0  0  0
   53.9874   64.3028   31.7461 H   0  0  0  0  0  0  0  0  0  0  0  0
   46.9149   73.6009   29.5213 H   0  0  0  0  0  0  0  0  0  0  0  0
   46.1398   71.4233   28.5940 H   0  0  0  0  0  0  0  0  0  0  0  0
   44.7723   69.3152   30.1147 H   0  0  0  0  0  0  0  0  0  0  0  0
   43.9450   67.1768   29.2172 H   0  0  0  0  0  0  0  0  0  0  0  0
   47.8754   66.3458   28.0279 H   0  0  0  0  0  0  0  0  0  0  0  0
  2  1  1  0
  3  4  1  0
  3  2  2  0
  4  9  2  0
  5  6  2  0
  5  4  1  0
  6  7  1  0
  7 10  1  0
  7  8  2  0
  9  1  1  0
  9  8  1  0
 10 11  1  0
 12 11  1  0
 13 12  2  0
 14 13  1  0
 15 14  2  0
 15 16  1  0
 16 17  2  0
 17 12  1  0
 18 19  1  0
 18  5  1  0
 19 20  2  0
 21 26  2  0
 22 21  1  0
 22 23  2  0
 23 24  1  0
 24 25  2  0
 25 19  1  0
 26 25  1  0
 27 28  1  0
 27 23  1  0
 29 28  2  0
 30 29  1  0
 31 30  2  0
 32 30  1  0
 32 33  1  0
 33 27  1  0
 34 33  2  0
  1 35  1  0
  2 36  1  0
 10 37  1  0
 10 38  1  0
 11 39  1  0
 11 40  1  0
 13 41  1  0
 14 42  1  0
 15 43  1  0
 16 44  1  0
 21 45  1  0
 22 46  1  0
 28 47  1  0
 29 48  1  0
 32 49  1  0
M  END
>  <Score>  (1) 
-7.1168

$$$$
