
     RDKit          3D

 47 51  0  0  0  0  0  0  0  0999 V2000
   46.7730   73.1770   30.3490 C   0  0  0  0  0  0  0  0  0  0  0  0
   45.5090   73.1760   31.0170 C   0  0  0  0  0  0  0  0  0  0  0  0
   44.8200   71.9640   31.1770 C   0  0  0  0  0  0  0  0  0  0  0  0
   45.3950   70.8390   30.6830 N   0  0  0  0  0  0  0  0  0  0  0  0
   46.5910   70.8880   30.0580 C   0  0  0  0  0  0  0  0  0  0  0  0
   47.2590   72.0310   29.8980 N   0  0  0  0  0  0  0  0  0  0  0  0
   44.9920   74.4700   31.5030 C   0  0  0  0  0  0  0  0  0  0  0  0
   45.7680   75.6270   31.3740 C   0  0  0  0  0  0  0  0  0  0  0  0
   44.6950   76.9480   32.1110 S   0  0  0  0  0  0  0  0  0  0  0  0
   43.3630   75.6370   32.4620 C   0  0  0  0  0  0  0  0  0  0  0  0
   43.8430   74.7270   32.0710 N   0  0  0  0  0  0  0  0  0  0  0  0
   42.0970   75.9140   33.0850 N   0  0  0  0  0  0  0  0  0  0  0  0
   41.5630   77.2160   33.3010 C   0  0  0  0  0  0  0  0  0  0  0  0
   40.4960   77.0660   34.3780 C   0  0  0  0  0  0  0  0  0  0  0  0
   39.4830   76.2150   33.9930 O   0  0  0  0  0  0  0  0  0  0  0  0
   39.8660   75.1110   33.2790 C   0  0  0  0  0  0  0  0  0  0  0  0
   41.3240   74.7700   33.5170 C   0  0  0  0  0  0  0  0  0  0  0  0
   47.1080   69.6200   29.5590 C   0  0  0  0  0  0  0  0  0  0  0  0
   48.3730   69.2500   29.2680 N   0  0  0  0  0  0  0  0  0  0  0  0
   48.3890   68.0200   28.8420 O   0  0  0  0  0  0  0  0  0  0  0  0
   47.1290   67.5470   28.8430 C   0  0  0  0  0  0  0  0  0  0  0  0
   46.3500   68.5280   29.2820 N   0  0  0  0  0  0  0  0  0  0  0  0
   46.5900   66.2810   28.4770 N   0  0  0  0  0  0  0  0  0  0  0  0
   47.4620   65.2770   28.3120 C   0  0  0  0  0  0  0  0  0  0  0  0
   46.9780   64.0180   27.9540 C   0  0  0  0  0  0  0  0  0  0  0  0
   47.9140   62.8770   27.7620 C   0  0  0  0  0  0  0  0  0  0  0  0
   45.6130   63.8460   27.7790 C   0  0  0  0  0  0  0  0  0  0  0  0
   45.1240   62.7130   27.4510 O   0  0  0  0  0  0  0  0  0  0  0  0
   44.7520   64.8730   27.9510 N   0  0  0  0  0  0  0  0  0  0  0  0
   45.2510   66.0870   28.3000 C   0  0  0  0  0  0  0  0  0  0  0  0
   44.4930   67.0920   28.4750 O   0  0  0  0  0  0  0  0  0  0  0  0
   47.3324   74.1142   30.2120 H   0  0  0  0  0  0  0  0  0  0  0  0
   43.8457   71.9274   31.6863 H   0  0  0  0  0  0  0  0  0  0  0  0
   46.7735   75.7288   30.9396 H   0  0  0  0  0  0  0  0  0  0  0  0
   42.3540   77.9007   33.6409 H   0  0  0  0  0  0  0  0  0  0  0  0
   41.1412   77.6343   32.3752 H   0  0  0  0  0  0  0  0  0  0  0  0
   40.9661   76.6675   35.2892 H   0  0  0  0  0  0  0  0  0  0  0  0
   40.0543   78.0576   34.5558 H   0  0  0  0  0  0  0  0  0  0  0  0
   39.7162   75.3094   32.2075 H   0  0  0  0  0  0  0  0  0  0  0  0
   39.2550   74.2584   33.6101 H   0  0  0  0  0  0  0  0  0  0  0  0
   41.6051   73.8809   32.9334 H   0  0  0  0  0  0  0  0  0  0  0  0
   41.5089   74.5468   34.5781 H   0  0  0  0  0  0  0  0  0  0  0  0
   48.5399   65.4422   28.4561 H   0  0  0  0  0  0  0  0  0  0  0  0
   48.2295   62.4924   28.7431 H   0  0  0  0  0  0  0  0  0  0  0  0
   47.4078   62.0780   27.2005 H   0  0  0  0  0  0  0  0  0  0  0  0
   48.7966   63.2172   27.2005 H   0  0  0  0  0  0  0  0  0  0  0  0
   43.7393   64.7382   27.8203 H   0  0  0  0  0  0  0  0  0  0  0  0
  1  2  2  0
  2  3  1  0
  2  7  1  0
  4  3  2  0
  5  4  1  0
  6  5  2  0
  6  1  1  0
  7 11  1  0
  8  7  2  0
  8  9  1  0
  9 10  1  0
 10 12  1  0
 11 10  2  0
 12 13  1  0
 12 17  1  0
 13 14  1  0
 15 14  1  0
 16 17  1  0
 16 15  1  0
 18  5  1  0
 19 18  2  0
 20 21  1  0
 20 19  1  0
 21 22  2  0
 22 18  1  0
 23 21  1  0
 24 23  1  0
 25 24  2  0
 26 25  1  0
 27 29  1  0
 27 25  1  0
 28 27  2  0
 29 30  1  0
 30 31  2  0
 30 23  1  0
  1 32  1  0
  3 33  1  0
  8 34  1  0
 13 35  1  0
 13 36  1  0
 14 37  1  0
 14 38  1  0
 16 39  1  0
 16 40  1  0
 17 41  1  0
 17 42  1  0
 24 43  1  0
 26 44  1  0
 26 45  1  0
 26 46  1  0
 29 47  1  0
M  END
>  <Score>  (1) 
-7.3045

$$$$
