
     RDKit          3D

 42 46  0  0  0  0  0  0  0  0999 V2000
   44.7590   70.1320   31.2180 C   0  0  0  0  0  0  0  0  0  0  0  0
   44.8080   68.8470   30.7260 C   0  0  0  0  0  0  0  0  0  0  0  0
   43.6060   68.1710   30.7970 C   0  0  0  0  0  0  0  0  0  0  0  0
   42.4900   68.6970   31.2950 N   0  0  0  0  0  0  0  0  0  0  0  0
   42.5310   69.9800   31.7620 C   0  0  0  0  0  0  0  0  0  0  0  0
   43.6630   70.6980   31.7260 N   0  0  0  0  0  0  0  0  0  0  0  0
   47.2590   72.7960   30.3710 C   0  0  0  0  0  0  0  0  0  0  0  0
   46.0550   72.0610   30.3830 C   0  0  0  0  0  0  0  0  0  0  0  0
   45.9930   70.9200   31.1800 C   0  0  0  0  0  0  0  0  0  0  0  0
   47.0870   70.5740   31.9020 N   0  0  0  0  0  0  0  0  0  0  0  0
   48.2380   71.3000   31.8740 C   0  0  0  0  0  0  0  0  0  0  0  0
   48.3180   72.4080   31.1070 N   0  0  0  0  0  0  0  0  0  0  0  0
   49.2490   70.7470   32.7090 N   0  0  0  0  0  0  0  0  0  0  0  0
   49.2520   69.5200   33.2670 C   0  0  0  0  0  0  0  0  0  0  0  0
   50.3900   69.3980   33.9800 N   0  0  0  0  0  0  0  0  0  0  0  0
   51.0960   70.5260   33.8770 C   0  0  0  0  0  0  0  0  0  0  0  0
   52.3320   70.8720   34.4340 C   0  0  0  0  0  0  0  0  0  0  0  0
   52.7810   72.1130   34.1310 N   0  0  0  0  0  0  0  0  0  0  0  0
   52.0810   72.9560   33.3440 C   0  0  0  0  0  0  0  0  0  0  0  0
   50.8770   72.6020   32.8080 N   0  0  0  0  0  0  0  0  0  0  0  0
   50.3780   71.3860   33.0710 C   0  0  0  0  0  0  0  0  0  0  0  0
   53.0570   69.9700   35.2630 N   0  0  0  0  0  0  0  0  0  0  0  0
   43.4300   66.8260   30.3430 N   0  0  0  0  0  0  0  0  0  0  0  0
   42.8970   66.0310   31.3040 C   0  0  0  0  0  0  0  0  0  0  0  0
   42.6570   64.6860   31.0310 C   0  0  0  0  0  0  0  0  0  0  0  0
   42.9740   64.1830   29.7610 C   0  0  0  0  0  0  0  0  0  0  0  0
   42.7320   62.8070   29.4710 N   0  0  0  0  0  0  0  0  0  0  0  0
   43.5030   65.0430   28.8570 N   0  0  0  0  0  0  0  0  0  0  0  0
   43.7250   66.3200   29.1290 C   0  0  0  0  0  0  0  0  0  0  0  0
   44.2100   67.1560   28.3370 O   0  0  0  0  0  0  0  0  0  0  0  0
   45.7236   68.3986   30.3129 H   0  0  0  0  0  0  0  0  0  0  0  0
   41.6179   70.4329   32.1756 H   0  0  0  0  0  0  0  0  0  0  0  0
   47.3341   73.7010   29.7502 H   0  0  0  0  0  0  0  0  0  0  0  0
   45.1910   72.3792   29.7811 H   0  0  0  0  0  0  0  0  0  0  0  0
   48.4677   68.7561   33.1600 H   0  0  0  0  0  0  0  0  0  0  0  0
   52.4911   73.9538   33.1290 H   0  0  0  0  0  0  0  0  0  0  0  0
   53.9649   70.2515   35.6597 H   0  0  0  0  0  0  0  0  0  0  0  0
   52.6737   69.0358   35.4661 H   0  0  0  0  0  0  0  0  0  0  0  0
   42.6555   66.4460   32.2937 H   0  0  0  0  0  0  0  0  0  0  0  0
   42.2254   64.0286   31.8001 H   0  0  0  0  0  0  0  0  0  0  0  0
   42.9616   62.4286   28.5410 H   0  0  0  0  0  0  0  0  0  0  0  0
   42.3277   62.1922   30.1917 H   0  0  0  0  0  0  0  0  0  0  0  0
  1  6  2  0
  2  3  2  0
  2  1  1  0
  3  4  1  0
  4  5  2  0
  6  5  1  0
  7  8  2  0
  7 12  1  0
  8  9  1  0
  9  1  1  0
  9 10  2  0
 11 10  1  0
 11 13  1  0
 12 11  2  0
 13 21  1  0
 13 14  1  0
 14 15  2  0
 16 15  1  0
 16 17  2  0
 17 22  1  0
 18 17  1  0
 19 18  2  0
 20 21  2  0
 20 19  1  0
 21 16  1  0
 23  3  1  0
 23 24  1  0
 25 24  2  0
 26 25  1  0
 27 26  1  0
 28 29  1  0
 28 26  2  0
 29 23  1  0
 30 29  2  0
  2 31  1  0
  5 32  1  0
  7 33  1  0
  8 34  1  0
 14 35  1  0
 19 36  1  0
 22 37  1  0
 22 38  1  0
 24 39  1  0
 25 40  1  0
 27 41  1  0
 27 42  1  0
M  END
>  <Score>  (1) 
-7.10745

$$$$
