
     RDKit          3D

 49 53  0  0  0  0  0  0  0  0999 V2000
   44.7420   71.0130   31.2230 C   0  0  0  0  0  0  0  0  0  0  0  0
   44.2560   72.3100   31.4960 C   0  0  0  0  0  0  0  0  0  0  0  0
   45.0920   73.3950   31.3510 C   0  0  0  0  0  0  0  0  0  0  0  0
   46.3710   73.1800   30.9460 N   0  0  0  0  0  0  0  0  0  0  0  0
   46.8210   71.9360   30.6910 C   0  0  0  0  0  0  0  0  0  0  0  0
   46.0100   70.8820   30.8310 N   0  0  0  0  0  0  0  0  0  0  0  0
   44.6050   74.7290   31.6340 C   0  0  0  0  0  0  0  0  0  0  0  0
   45.4580   75.8010   31.4180 C   0  0  0  0  0  0  0  0  0  0  0  0
   44.8730   77.0270   31.7310 C   0  0  0  0  0  0  0  0  0  0  0  0
   43.5980   77.1700   32.2000 C   0  0  0  0  0  0  0  0  0  0  0  0
   42.8130   76.0550   32.3880 C   0  0  0  0  0  0  0  0  0  0  0  0
   43.3430   74.8310   32.0950 N   0  0  0  0  0  0  0  0  0  0  0  0
   41.4640   76.0470   32.8670 N   0  0  0  0  0  0  0  0  0  0  0  0
   40.9350   76.6810   33.9180 C   0  0  0  0  0  0  0  0  0  0  0  0
   39.5980   76.5180   34.1580 C   0  0  0  0  0  0  0  0  0  0  0  0
   38.7980   75.7270   33.3480 C   0  0  0  0  0  0  0  0  0  0  0  0
   37.5580   75.6100   33.6190 O   0  0  0  0  0  0  0  0  0  0  0  0
   39.3740   75.1050   32.2960 N   0  0  0  0  0  0  0  0  0  0  0  0
   40.6850   75.2670   32.0670 C   0  0  0  0  0  0  0  0  0  0  0  0
   41.0630   74.6180   31.0490 O   0  0  0  0  0  0  0  0  0  0  0  0
   43.8850   69.8780   31.3230 N   0  0  0  0  0  0  0  0  0  0  0  0
   44.2180   68.6650   30.8370 C   0  0  0  0  0  0  0  0  0  0  0  0
   43.0610   67.8870   31.1140 C   0  0  0  0  0  0  0  0  0  0  0  0
   42.1330   68.6680   31.7360 N   0  0  0  0  0  0  0  0  0  0  0  0
   42.6630   69.9210   31.8650 C   0  0  0  0  0  0  0  0  0  0  0  0
   41.7610   70.7240   32.5200 N   0  0  0  0  0  0  0  0  0  0  0  0
   42.2950   71.3700   33.6080 C   0  0  0  0  0  0  0  0  0  0  0  0
   41.5580   72.1720   34.4410 C   0  0  0  0  0  0  0  0  0  0  0  0
   42.1470   72.8660   35.6150 C   0  0  0  0  0  0  0  0  0  0  0  0
   40.2210   72.3060   34.1340 C   0  0  0  0  0  0  0  0  0  0  0  0
   39.5130   73.0310   34.8730 O   0  0  0  0  0  0  0  0  0  0  0  0
   39.7530   71.6520   33.0590 N   0  0  0  0  0  0  0  0  0  0  0  0
   40.4520   70.8720   32.2410 C   0  0  0  0  0  0  0  0  0  0  0  0
   40.0020   70.2670   31.2380 O   0  0  0  0  0  0  0  0  0  0  0  0
   43.2155   72.4533   31.8227 H   0  0  0  0  0  0  0  0  0  0  0  0
   47.8612   71.7865   30.3659 H   0  0  0  0  0  0  0  0  0  0  0  0
   46.4857   75.6952   31.0403 H   0  0  0  0  0  0  0  0  0  0  0  0
   45.4760   77.9364   31.5916 H   0  0  0  0  0  0  0  0  0  0  0  0
   43.2008   78.1706   32.4262 H   0  0  0  0  0  0  0  0  0  0  0  0
   41.5552   77.3140   34.5696 H   0  0  0  0  0  0  0  0  0  0  0  0
   39.1442   77.0299   35.0194 H   0  0  0  0  0  0  0  0  0  0  0  0
   38.8091   74.5098   31.6735 H   0  0  0  0  0  0  0  0  0  0  0  0
   45.1530   68.3546   30.3476 H   0  0  0  0  0  0  0  0  0  0  0  0
   42.9345   66.8229   30.8657 H   0  0  0  0  0  0  0  0  0  0  0  0
   43.3659   71.2376   33.8216 H   0  0  0  0  0  0  0  0  0  0  0  0
   41.7620   72.4124   36.5402 H   0  0  0  0  0  0  0  0  0  0  0  0
   43.2423   72.7686   35.5870 H   0  0  0  0  0  0  0  0  0  0  0  0
   41.8728   73.9309   35.5870 H   0  0  0  0  0  0  0  0  0  0  0  0
   38.7516   71.7663   32.8469 H   0  0  0  0  0  0  0  0  0  0  0  0
  1 21  1  0
  1  2  2  0
  3  2  1  0
  3  7  1  0
  4  3  2  0
  5  6  2  0
  5  4  1  0
  6  1  1  0
  7 12  1  0
  8  7  2  0
  8  9  1  0
  9 10  2  0
 10 11  1  0
 11 13  1  0
 12 11  2  0
 13 14  1  0
 14 15  2  0
 16 17  2  0
 16 15  1  0
 18 16  1  0
 19 18  1  0
 19 13  1  0
 20 19  2  0
 21 25  1  0
 22 23  2  0
 22 21  1  0
 23 24  1  0
 24 25  2  0
 25 26  1  0
 26 27  1  0
 27 28  2  0
 28 29  1  0
 30 28  1  0
 30 31  2  0
 32 30  1  0
 33 26  1  0
 33 32  1  0
 34 33  2  0
  2 35  1  0
  5 36  1  0
  8 37  1  0
  9 38  1  0
 10 39  1  0
 14 40  1  0
 15 41  1  0
 18 42  1  0
 22 43  1  0
 23 44  1  0
 27 45  1  0
 29 46  1  0
 29 47  1  0
 29 48  1  0
 32 49  1  0
M  END
>  <Score>  (1) 
-7.60557

$$$$
