
     RDKit          3D

 47 52  0  0  0  0  0  0  0  0999 V2000
   46.6830   72.0780   29.6380 C   0  0  0  0  0  0  0  0  0  0  0  0
   45.6580   72.1140   30.6370 C   0  0  0  0  0  0  0  0  0  0  0  0
   45.1650   70.9140   31.1520 C   0  0  0  0  0  0  0  0  0  0  0  0
   45.6840   69.7560   30.6770 N   0  0  0  0  0  0  0  0  0  0  0  0
   46.6500   69.7660   29.7330 C   0  0  0  0  0  0  0  0  0  0  0  0
   47.1340   70.9000   29.2310 N   0  0  0  0  0  0  0  0  0  0  0  0
   45.1790   73.4420   31.0630 C   0  0  0  0  0  0  0  0  0  0  0  0
   46.0270   74.5600   31.0150 C   0  0  0  0  0  0  0  0  0  0  0  0
   44.9670   75.9390   31.6380 S   0  0  0  0  0  0  0  0  0  0  0  0
   43.5300   74.7170   31.8570 C   0  0  0  0  0  0  0  0  0  0  0  0
   43.9950   73.7710   31.5140 N   0  0  0  0  0  0  0  0  0  0  0  0
   42.2230   75.0660   32.3500 N   0  0  0  0  0  0  0  0  0  0  0  0
   41.7600   76.4050   32.5270 C   0  0  0  0  0  0  0  0  0  0  0  0
   40.5850   76.3090   33.4990 C   0  0  0  0  0  0  0  0  0  0  0  0
   39.5600   75.5390   32.9940 O   0  0  0  0  0  0  0  0  0  0  0  0
   39.9450   74.4040   32.3410 C   0  0  0  0  0  0  0  0  0  0  0  0
   41.3380   73.9670   32.6820 C   0  0  0  0  0  0  0  0  0  0  0  0
   47.1320   68.4620   29.2900 C   0  0  0  0  0  0  0  0  0  0  0  0
   48.3810   67.9680   29.2360 N   0  0  0  0  0  0  0  0  0  0  0  0
   48.3590   66.7420   28.7660 O   0  0  0  0  0  0  0  0  0  0  0  0
   47.0860   66.4090   28.5000 C   0  0  0  0  0  0  0  0  0  0  0  0
   46.3380   67.4650   28.8220 N   0  0  0  0  0  0  0  0  0  0  0  0
   46.5850   65.1850   27.9780 N   0  0  0  0  0  0  0  0  0  0  0  0
   47.2770   64.3540   27.1660 C   0  0  0  0  0  0  0  0  0  0  0  0
   46.5430   63.2960   26.8490 N   0  0  0  0  0  0  0  0  0  0  0  0
   45.3410   63.4230   27.4590 C   0  0  0  0  0  0  0  0  0  0  0  0
   44.2060   62.6140   27.4710 C   0  0  0  0  0  0  0  0  0  0  0  0
   43.1390   63.0160   28.1890 N   0  0  0  0  0  0  0  0  0  0  0  0
   43.2110   64.1950   28.8730 C   0  0  0  0  0  0  0  0  0  0  0  0
   44.3160   64.9710   28.8550 N   0  0  0  0  0  0  0  0  0  0  0  0
   45.3870   64.6050   28.1570 C   0  0  0  0  0  0  0  0  0  0  0  0
   44.2470   61.3980   26.7150 N   0  0  0  0  0  0  0  0  0  0  0  0
   47.0883   73.0097   29.2165 H   0  0  0  0  0  0  0  0  0  0  0  0
   44.3783   70.9086   31.9208 H   0  0  0  0  0  0  0  0  0  0  0  0
   47.0752   74.6044   30.6844 H   0  0  0  0  0  0  0  0  0  0  0  0
   42.5573   77.0342   32.9495 H   0  0  0  0  0  0  0  0  0  0  0  0
   41.4615   76.8618   31.5719 H   0  0  0  0  0  0  0  0  0  0  0  0
   40.9373   75.8593   34.4390 H   0  0  0  0  0  0  0  0  0  0  0  0
   40.1972   77.3249   33.6653 H   0  0  0  0  0  0  0  0  0  0  0  0
   39.8926   74.5895   31.2580 H   0  0  0  0  0  0  0  0  0  0  0  0
   39.2647   73.5996   32.6573 H   0  0  0  0  0  0  0  0  0  0  0  0
   41.6076   73.0755   32.0968 H   0  0  0  0  0  0  0  0  0  0  0  0
   41.4173   73.7090   33.7484 H   0  0  0  0  0  0  0  0  0  0  0  0
   48.3051   64.5309   26.8172 H   0  0  0  0  0  0  0  0  0  0  0  0
   42.3398   64.5240   29.4585 H   0  0  0  0  0  0  0  0  0  0  0  0
   43.4280   60.7736   26.6990 H   0  0  0  0  0  0  0  0  0  0  0  0
   45.0955   61.1480   26.1874 H   0  0  0  0  0  0  0  0  0  0  0  0
  1  2  2  0
  2  7  1  0
  2  3  1  0
  4  3  2  0
  5  4  1  0
  6  1  1  0
  6  5  2  0
  7 11  1  0
  8  7  2  0
  8  9  1  0
  9 10  1  0
 10 12  1  0
 11 10  2  0
 12 13  1  0
 12 17  1  0
 13 14  1  0
 15 14  1  0
 16 17  1  0
 16 15  1  0
 18  5  1  0
 19 18  2  0
 20 19  1  0
 21 20  1  0
 21 22  2  0
 22 18  1  0
 23 31  1  0
 23 21  1  0
 24 23  1  0
 25 24  2  0
 25 26  1  0
 26 27  2  0
 26 31  1  0
 27 28  1  0
 28 29  2  0
 30 29  1  0
 31 30  2  0
 32 27  1  0
  1 33  1  0
  3 34  1  0
  8 35  1  0
 13 36  1  0
 13 37  1  0
 14 38  1  0
 14 39  1  0
 16 40  1  0
 16 41  1  0
 17 42  1  0
 17 43  1  0
 24 44  1  0
 29 45  1  0
 32 46  1  0
 32 47  1  0
M  END
>  <Score>  (1) 
-7.33127

$$$$
