
     RDKit          3D

 54 59  0  0  1  0  0  0  0  0999 V2000
   44.8350   74.9350   32.6990 C   0  0  0  0  0  0  0  0  0  0  0  0
   46.1780   72.7730   32.8830 C   0  0  0  0  0  0  0  0  0  0  0  0
   45.4000   73.7120   32.1960 C   0  0  0  0  0  0  0  0  0  0  0  0
   45.1200   73.4650   30.8560 C   0  0  0  0  0  0  0  0  0  0  0  0
   45.6230   72.3200   30.2900 N   0  0  0  0  0  0  0  0  0  0  0  0
   46.3720   71.4280   30.9740 C   0  0  0  0  0  0  0  0  0  0  0  0
   46.6430   71.6720   32.2840 N   0  0  0  0  0  0  0  0  0  0  0  0
   46.8500   70.2700   30.3020 N   0  0  0  0  0  0  0  0  0  0  0  0
   45.9780   69.3200   29.9240 C   0  0  0  0  0  0  0  0  0  0  0  0
   46.3120   68.1500   29.2660 C   0  0  0  0  0  0  0  0  0  0  0  0
   47.6410   67.9570   28.9830 C   0  0  0  0  0  0  0  0  0  0  0  0
   48.0110   66.9260   28.3920 O   0  0  0  0  0  0  0  0  0  0  0  0
   48.5180   68.9250   29.3690 N   0  0  0  0  0  0  0  0  0  0  0  0
   48.1410   70.0600   30.0150 C   0  0  0  0  0  0  0  0  0  0  0  0
   48.9900   70.9240   30.3510 O   0  0  0  0  0  0  0  0  0  0  0  0
   45.2560   67.1750   28.8990 C   0  0  0  0  0  0  0  0  0  0  0  0
   45.0770   76.1160   31.8390 C   0  0  2  0  0  0  0  0  0  0  0  0
   45.2930   77.4530   32.3710 C   0  0  0  0  0  0  0  0  0  0  0  0
   43.9940   77.2170   31.7730 C   0  0  2  0  0  0  0  0  0  0  0  0
   42.7480   77.0530   32.5340 C   0  0  0  0  0  0  0  0  0  0  0  0
   42.2290   77.7340   33.5740 N   0  0  0  0  0  0  0  0  0  0  0  0
   41.1100   77.2120   33.9160 O   0  0  0  0  0  0  0  0  0  0  0  0
   40.8180   76.1950   33.1640 C   0  0  0  0  0  0  0  0  0  0  0  0
   41.8420   76.0890   32.2950 N   0  0  0  0  0  0  0  0  0  0  0  0
   39.7290   75.2050   33.0370 C   0  0  0  0  0  0  0  0  0  0  0  0
   38.3790   75.5100   33.1620 C   0  0  0  0  0  0  0  0  0  0  0  0
   37.4010   74.5610   33.0360 C   0  0  0  0  0  0  0  0  0  0  0  0
   37.7020   73.2440   32.7770 C   0  0  0  0  0  0  0  0  0  0  0  0
   39.0270   72.8960   32.6460 C   0  0  0  0  0  0  0  0  0  0  0  0
   39.2870   71.5800   32.3880 C   0  0  0  0  0  0  0  0  0  0  0  0
   40.5820   71.1530   32.2440 C   0  0  0  0  0  0  0  0  0  0  0  0
   41.5880   72.0900   32.3660 C   0  0  0  0  0  0  0  0  0  0  0  0
   41.2630   73.4050   32.6250 C   0  0  0  0  0  0  0  0  0  0  0  0
   39.9870   73.8760   32.7780 C   0  0  0  0  0  0  0  0  0  0  0  0
   43.7481   74.7975   32.7978 H   0  0  0  0  0  0  0  0  0  0  0  0
   45.3289   75.1385   33.6606 H   0  0  0  0  0  0  0  0  0  0  0  0
   46.4130   72.9455   33.9437 H   0  0  0  0  0  0  0  0  0  0  0  0
   44.5126   74.1675   30.2665 H   0  0  0  0  0  0  0  0  0  0  0  0
   44.9156   69.4857   30.1560 H   0  0  0  0  0  0  0  0  0  0  0  0
   49.5177   68.7901   29.1608 H   0  0  0  0  0  0  0  0  0  0  0  0
   44.8065   66.7599   29.8131 H   0  0  0  0  0  0  0  0  0  0  0  0
   44.4800   67.6809   28.3059 H   0  0  0  0  0  0  0  0  0  0  0  0
   45.6985   66.3611   28.3059 H   0  0  0  0  0  0  0  0  0  0  0  0
   45.6303   75.4714   31.1402 H   0  0  0  0  0  0  0  0  0  0  0  0
   45.3663   77.5932   33.4596 H   0  0  0  0  0  0  0  0  0  0  0  0
   46.0711   78.2122   32.2028 H   0  0  0  0  0  0  0  0  0  0  0  0
   43.4034   77.7384   31.0053 H   0  0  0  0  0  0  0  0  0  0  0  0
   38.0864   76.5499   33.3693 H   0  0  0  0  0  0  0  0  0  0  0  0
   36.3477   74.8589   33.1446 H   0  0  0  0  0  0  0  0  0  0  0  0
   36.9066   72.4907   32.6775 H   0  0  0  0  0  0  0  0  0  0  0  0
   38.4578   70.8631   32.2958 H   0  0  0  0  0  0  0  0  0  0  0  0
   40.8118   70.0972   32.0378 H   0  0  0  0  0  0  0  0  0  0  0  0
   42.6408   71.7903   32.2575 H   0  0  0  0  0  0  0  0  0  0  0  0
   42.0881   74.1268   32.7150 H   0  0  0  0  0  0  0  0  0  0  0  0
  3  1  1  0
  3  2  2  0
  4  3  1  0
  5  4  2  0
  5  6  1  0
  6  7  2  0
  7  2  1  0
  8  6  1  0
  9  8  1  0
 10  9  2  0
 11 10  1  0
 11 13  1  0
 12 11  2  0
 13 14  1  0
 14  8  1  0
 14 15  2  0
 16 10  1  0
 17 18  1  0
 17  1  1  0
 19 17  1  0
 19 18  1  0
 19 20  1  0
 20 21  2  0
 21 22  1  0
 23 22  1  0
 24 20  1  0
 24 23  2  0
 25 26  2  0
 25 23  1  0
 27 26  1  0
 28 27  2  0
 29 28  1  0
 29 34  2  0
 30 29  1  0
 31 32  1  0
 31 30  2  0
 32 33  2  0
 33 34  1  0
 34 25  1  0
  1 35  1  0
  1 36  1  0
  2 37  1  0
  4 38  1  0
  9 39  1  0
 13 40  1  0
 16 41  1  0
 16 42  1  0
 16 43  1  0
 17 44  1  6
 18 45  1  0
 18 46  1  0
 19 47  1  6
 26 48  1  0
 27 49  1  0
 28 50  1  0
 30 51  1  0
 31 52  1  0
 32 53  1  0
 33 54  1  0
M  END
>  <Score>  (1) 
-7.55

$$$$
