
     RDKit          3D

 46 50  0  0  0  0  0  0  0  0999 V2000
   44.7510   70.9610   31.4080 C   0  0  0  0  0  0  0  0  0  0  0  0
   44.2400   72.2610   31.5410 C   0  0  0  0  0  0  0  0  0  0  0  0
   45.1130   73.3320   31.6240 C   0  0  0  0  0  0  0  0  0  0  0  0
   46.4540   73.0940   31.5720 N   0  0  0  0  0  0  0  0  0  0  0  0
   46.9240   71.8360   31.4430 C   0  0  0  0  0  0  0  0  0  0  0  0
   46.0850   70.7950   31.3640 N   0  0  0  0  0  0  0  0  0  0  0  0
   44.6030   74.6790   31.7810 C   0  0  0  0  0  0  0  0  0  0  0  0
   45.4360   75.7460   31.4790 C   0  0  0  0  0  0  0  0  0  0  0  0
   44.8250   76.9840   31.6830 C   0  0  0  0  0  0  0  0  0  0  0  0
   43.5500   77.1450   32.1290 C   0  0  0  0  0  0  0  0  0  0  0  0
   42.7900   76.0400   32.4060 C   0  0  0  0  0  0  0  0  0  0  0  0
   43.3320   74.7990   32.2260 N   0  0  0  0  0  0  0  0  0  0  0  0
   41.4280   76.0490   32.8830 N   0  0  0  0  0  0  0  0  0  0  0  0
   40.8820   76.7610   33.8730 C   0  0  0  0  0  0  0  0  0  0  0  0
   39.5470   76.5950   34.1330 C   0  0  0  0  0  0  0  0  0  0  0  0
   38.7690   75.7180   33.4030 C   0  0  0  0  0  0  0  0  0  0  0  0
   37.5370   75.6100   33.6940 O   0  0  0  0  0  0  0  0  0  0  0  0
   39.3710   75.0170   32.4070 N   0  0  0  0  0  0  0  0  0  0  0  0
   40.6750   75.1800   32.1530 C   0  0  0  0  0  0  0  0  0  0  0  0
   41.0650   74.4590   31.2080 O   0  0  0  0  0  0  0  0  0  0  0  0
   43.8740   69.8400   31.3360 N   0  0  0  0  0  0  0  0  0  0  0  0
   44.2170   68.6590   30.7810 C   0  0  0  0  0  0  0  0  0  0  0  0
   43.0490   67.8690   30.9530 C   0  0  0  0  0  0  0  0  0  0  0  0
   42.1010   68.6080   31.5830 N   0  0  0  0  0  0  0  0  0  0  0  0
   42.6210   69.8540   31.8260 C   0  0  0  0  0  0  0  0  0  0  0  0
   41.6900   70.6330   32.5020 N   0  0  0  0  0  0  0  0  0  0  0  0
   42.2070   71.1930   33.6430 C   0  0  0  0  0  0  0  0  0  0  0  0
   41.4540   71.9600   34.5080 C   0  0  0  0  0  0  0  0  0  0  0  0
   40.1330   72.1430   34.1690 C   0  0  0  0  0  0  0  0  0  0  0  0
   39.4060   72.8330   34.9270 O   0  0  0  0  0  0  0  0  0  0  0  0
   39.6760   71.5730   33.0410 N   0  0  0  0  0  0  0  0  0  0  0  0
   40.3960   70.8260   32.1870 C   0  0  0  0  0  0  0  0  0  0  0  0
   39.9910   70.2970   31.1460 O   0  0  0  0  0  0  0  0  0  0  0  0
   43.1534   72.4279   31.5790 H   0  0  0  0  0  0  0  0  0  0  0  0
   48.0096   71.6631   31.4022 H   0  0  0  0  0  0  0  0  0  0  0  0
   46.4682   75.6289   31.1173 H   0  0  0  0  0  0  0  0  0  0  0  0
   45.4129   77.8888   31.4692 H   0  0  0  0  0  0  0  0  0  0  0  0
   43.1332   78.1537   32.2659 H   0  0  0  0  0  0  0  0  0  0  0  0
   41.4888   77.4626   34.4643 H   0  0  0  0  0  0  0  0  0  0  0  0
   39.0829   77.1753   34.9441 H   0  0  0  0  0  0  0  0  0  0  0  0
   38.8195   74.3548   31.8429 H   0  0  0  0  0  0  0  0  0  0  0  0
   45.1699   68.3765   30.3097 H   0  0  0  0  0  0  0  0  0  0  0  0
   42.9317   66.8248   30.6275 H   0  0  0  0  0  0  0  0  0  0  0  0
   43.2680   71.0230   33.8783 H   0  0  0  0  0  0  0  0  0  0  0  0
   41.8859   72.4009   35.4185 H   0  0  0  0  0  0  0  0  0  0  0  0
   38.6834   71.7223   32.8100 H   0  0  0  0  0  0  0  0  0  0  0  0
  1  2  2  0
  2  3  1  0
  3  7  1  0
  4  3  2  0
  5  4  1  0
  6  1  1  0
  6  5  2  0
  7 12  2  0
  8  9  2  0
  8  7  1  0
  9 10  1  0
 10 11  2  0
 11 13  1  0
 12 11  1  0
 13 14  1  0
 14 15  2  0
 16 17  2  0
 16 15  1  0
 18 16  1  0
 19 18  1  0
 19 13  1  0
 20 19  2  0
 21  1  1  0
 21 25  1  0
 22 23  2  0
 22 21  1  0
 23 24  1  0
 24 25  2  0
 25 26  1  0
 26 27  1  0
 27 28  2  0
 29 28  1  0
 29 30  2  0
 31 29  1  0
 32 26  1  0
 32 31  1  0
 33 32  2  0
  2 34  1  0
  5 35  1  0
  8 36  1  0
  9 37  1  0
 10 38  1  0
 14 39  1  0
 15 40  1  0
 18 41  1  0
 22 42  1  0
 23 43  1  0
 27 44  1  0
 28 45  1  0
 31 46  1  0
M  END
>  <Score>  (1) 
-7.41303

$$$$
