
     RDKit          3D

 41 45  0  0  0  0  0  0  0  0999 V2000
   44.3130   71.5040   31.9020 N   0  0  0  0  0  0  0  0  0  0  0  0
   43.4430   72.1820   32.6540 C   0  0  0  0  0  0  0  0  0  0  0  0
   42.3380   71.4330   32.7820 N   0  0  0  0  0  0  0  0  0  0  0  0
   42.5370   70.3000   32.1070 C   0  0  0  0  0  0  0  0  0  0  0  0
   41.6770   69.2250   31.9530 C   0  0  0  0  0  0  0  0  0  0  0  0
   42.1740   68.2030   31.2060 N   0  0  0  0  0  0  0  0  0  0  0  0
   43.3810   68.2050   30.6460 C   0  0  0  0  0  0  0  0  0  0  0  0
   44.2080   69.2660   30.8040 N   0  0  0  0  0  0  0  0  0  0  0  0
   43.7880   70.3130   31.5330 C   0  0  0  0  0  0  0  0  0  0  0  0
   43.6890   67.0110   29.9010 N   0  0  0  0  0  0  0  0  0  0  0  0
   42.9570   65.8910   30.0290 C   0  0  0  0  0  0  0  0  0  0  0  0
   43.1950   64.7180   29.3500 C   0  0  0  0  0  0  0  0  0  0  0  0
   44.2550   64.6700   28.4700 C   0  0  0  0  0  0  0  0  0  0  0  0
   44.6130   63.5250   27.7060 N   0  0  0  0  0  0  0  0  0  0  0  0
   44.9970   65.8010   28.3370 N   0  0  0  0  0  0  0  0  0  0  0  0
   44.6990   66.9060   29.0380 C   0  0  0  0  0  0  0  0  0  0  0  0
   45.4420   67.9070   28.8510 O   0  0  0  0  0  0  0  0  0  0  0  0
   45.6440   71.8500   31.4560 C   0  0  0  0  0  0  0  0  0  0  0  0
   45.8060   72.6610   30.3350 C   0  0  0  0  0  0  0  0  0  0  0  0
   47.1280   72.9600   29.9460 C   0  0  0  0  0  0  0  0  0  0  0  0
   48.1490   72.4460   30.6820 N   0  0  0  0  0  0  0  0  0  0  0  0
   47.9370   71.6650   31.7620 C   0  0  0  0  0  0  0  0  0  0  0  0
   46.6780   71.3610   32.1560 N   0  0  0  0  0  0  0  0  0  0  0  0
   48.9900   71.1200   32.5480 N   0  0  0  0  0  0  0  0  0  0  0  0
   50.1170   71.8700   32.5970 C   0  0  0  0  0  0  0  0  0  0  0  0
   51.0200   71.1880   33.4080 C   0  0  0  0  0  0  0  0  0  0  0  0
   50.4170   70.0440   33.8270 N   0  0  0  0  0  0  0  0  0  0  0  0
   49.1710   70.0210   33.2900 C   0  0  0  0  0  0  0  0  0  0  0  0
   43.6040   73.1785   33.0912 H   0  0  0  0  0  0  0  0  0  0  0  0
   41.4355   68.8334   32.9521 H   0  0  0  0  0  0  0  0  0  0  0  0
   40.7972   69.6054   31.4134 H   0  0  0  0  0  0  0  0  0  0  0  0
   45.1432   69.2699   30.3724 H   0  0  0  0  0  0  0  0  0  0  0  0
   42.1067   65.9137   30.7265 H   0  0  0  0  0  0  0  0  0  0  0  0
   42.5536   63.8381   29.5060 H   0  0  0  0  0  0  0  0  0  0  0  0
   45.4200   63.5639   27.0672 H   0  0  0  0  0  0  0  0  0  0  0  0
   44.0652   62.6569   27.7915 H   0  0  0  0  0  0  0  0  0  0  0  0
   44.9412   73.0508   29.7781 H   0  0  0  0  0  0  0  0  0  0  0  0
   47.3281   73.5932   29.0691 H   0  0  0  0  0  0  0  0  0  0  0  0
   50.2862   72.8329   32.0928 H   0  0  0  0  0  0  0  0  0  0  0  0
   52.0384   71.5159   33.6638 H   0  0  0  0  0  0  0  0  0  0  0  0
   48.4272   69.2248   33.4408 H   0  0  0  0  0  0  0  0  0  0  0  0
  1  2  1  0
  2  3  2  0
  4  3  1  0
  5  4  1  0
  6  5  1  0
  7  8  1  0
  7  6  2  0
  8  9  1  0
  9  1  1  0
  9  4  2  0
 10 11  1  0
 10  7  1  0
 12 11  2  0
 13 12  1  0
 14 13  1  0
 15 13  2  0
 15 16  1  0
 16 10  1  0
 17 16  2  0
 18  1  1  0
 18 23  1  0
 19 18  2  0
 20 19  1  0
 20 21  2  0
 21 22  1  0
 22 23  2  0
 22 24  1  0
 24 25  1  0
 24 28  1  0
 25 26  2  0
 26 27  1  0
 28 27  2  0
  2 29  1  0
  5 30  1  0
  5 31  1  0
  8 32  1  0
 11 33  1  0
 12 34  1  0
 14 35  1  0
 14 36  1  0
 19 37  1  0
 20 38  1  0
 25 39  1  0
 26 40  1  0
 28 41  1  0
M  END
>  <Score>  (1) 
-7.10831

$$$$
