
     RDKit          3D

 56 61  0  0  1  0  0  0  0  0999 V2000
   49.0210   66.7440   29.8910 C   0  0  0  0  0  0  0  0  0  0  0  0
   47.4330   69.7600   31.2860 C   0  0  0  0  0  0  0  0  0  0  0  0
   46.8740   70.3730   30.2190 C   0  0  0  0  0  0  0  0  0  0  0  0
   47.0500   69.7440   29.0130 C   0  0  0  0  0  0  0  0  0  0  0  0
   47.7470   68.5860   28.9600 N   0  0  0  0  0  0  0  0  0  0  0  0
   48.2770   68.0200   30.0190 C   0  0  0  0  0  0  0  0  0  0  0  0
   48.1330   68.5900   31.1920 N   0  0  0  0  0  0  0  0  0  0  0  0
   46.1340   71.6170   30.4480 C   0  0  2  0  0  0  0  0  0  0  0  0
   46.9460   72.7070   30.3840 N   0  0  0  0  0  0  0  0  0  0  0  0
   46.5210   73.9430   30.6920 C   0  0  0  0  0  0  0  0  0  0  0  0
   45.2630   74.1390   31.2490 N   0  0  0  0  0  0  0  0  0  0  0  0
   44.5050   73.0330   31.4760 C   0  0  0  0  0  0  0  0  0  0  0  0
   43.2880   73.1370   32.0770 C   0  0  0  0  0  0  0  0  0  0  0  0
   42.5480   71.9850   32.3650 C   0  0  0  0  0  0  0  0  0  0  0  0
   43.0480   70.7250   32.0420 C   0  0  0  0  0  0  0  0  0  0  0  0
   44.2920   70.6420   31.4280 C   0  0  0  0  0  0  0  0  0  0  0  0
   44.9730   71.7960   31.1660 C   0  0  0  0  0  0  0  0  0  0  0  0
   49.2280   66.3630   28.4240 C   0  0  0  0  0  0  0  0  0  0  0  0
   48.2540   65.3490   27.9790 C   0  0  0  0  0  0  0  0  0  0  0  0
   48.5700   64.6330   26.8320 C   0  0  0  0  0  0  0  0  0  0  0  0
   47.6640   63.6620   26.3830 C   0  0  0  0  0  0  0  0  0  0  0  0
   46.5340   63.4550   27.0650 N   0  0  0  0  0  0  0  0  0  0  0  0
   46.2200   64.1480   28.1820 C   0  0  0  0  0  0  0  0  0  0  0  0
   47.1010   65.0760   28.5970 N   0  0  0  0  0  0  0  0  0  0  0  0
   45.0040   63.9000   28.8830 N   0  0  0  0  0  0  0  0  0  0  0  0
   43.8390   64.5160   28.5540 C   0  0  0  0  0  0  0  0  0  0  0  0
   42.8130   64.1280   29.3530 N   0  0  0  0  0  0  0  0  0  0  0  0
   43.3400   63.2380   30.2190 C   0  0  0  0  0  0  0  0  0  0  0  0
   42.8390   62.4880   31.2670 C   0  0  0  0  0  0  0  0  0  0  0  0
   41.6210   62.5700   31.5820 O   0  0  0  0  0  0  0  0  0  0  0  0
   43.6960   61.6810   31.9240 N   0  0  0  0  0  0  0  0  0  0  0  0
   45.0020   61.5500   31.6370 C   0  0  0  0  0  0  0  0  0  0  0  0
   45.7590   60.6490   32.4390 N   0  0  0  0  0  0  0  0  0  0  0  0
   45.5210   62.2770   30.6100 N   0  0  0  0  0  0  0  0  0  0  0  0
   44.6840   63.1050   29.9220 C   0  0  0  0  0  0  0  0  0  0  0  0
   50.0030   66.8523   30.3746 H   0  0  0  0  0  0  0  0  0  0  0  0
   48.4328   65.9504   30.3750 H   0  0  0  0  0  0  0  0  0  0  0  0
   47.3192   70.2246   32.2765 H   0  0  0  0  0  0  0  0  0  0  0  0
   46.0472   69.5321   28.6136 H   0  0  0  0  0  0  0  0  0  0  0  0
   47.6756   70.4476   28.4442 H   0  0  0  0  0  0  0  0  0  0  0  0
   48.5433   68.1601   32.0333 H   0  0  0  0  0  0  0  0  0  0  0  0
   45.4541   71.4008   29.6108 H   0  0  0  0  0  0  0  0  0  0  0  0
   47.1740   74.8075   30.5018 H   0  0  0  0  0  0  0  0  0  0  0  0
   44.9193   75.0820   31.4801 H   0  0  0  0  0  0  0  0  0  0  0  0
   42.8860   74.1275   32.3364 H   0  0  0  0  0  0  0  0  0  0  0  0
   41.5647   72.0745   32.8498 H   0  0  0  0  0  0  0  0  0  0  0  0
   42.4708   69.8163   32.2680 H   0  0  0  0  0  0  0  0  0  0  0  0
   44.7198   69.6652   31.1582 H   0  0  0  0  0  0  0  0  0  0  0  0
   49.1136   67.2635   27.8027 H   0  0  0  0  0  0  0  0  0  0  0  0
   50.2368   65.9368   28.3204 H   0  0  0  0  0  0  0  0  0  0  0  0
   49.5077   64.8229   26.2893 H   0  0  0  0  0  0  0  0  0  0  0  0
   47.8814   63.0761   25.4778 H   0  0  0  0  0  0  0  0  0  0  0  0
   43.7389   65.2442   27.7356 H   0  0  0  0  0  0  0  0  0  0  0  0
   43.3215   61.1230   32.7046 H   0  0  0  0  0  0  0  0  0  0  0  0
   46.7638   60.5162   32.2558 H   0  0  0  0  0  0  0  0  0  0  0  0
   45.3017   60.1302   33.2023 H   0  0  0  0  0  0  0  0  0  0  0  0
  1  6  1  0
  3  8  1  0
  3  2  2  0
  4  3  1  0
  5  4  1  0
  5  6  2  0
  6  7  1  0
  7  2  1  0
  8 17  1  0
  9  8  1  0
  9 10  2  0
 10 11  1  0
 11 12  1  0
 12 13  2  0
 13 14  1  0
 15 14  2  0
 16 15  1  0
 17 16  2  0
 17 12  1  0
 18  1  1  0
 19 18  1  0
 19 24  1  0
 20 19  2  0
 21 20  1  0
 21 22  2  0
 22 23  1  0
 23 24  2  0
 23 25  1  0
 25 35  1  0
 26 25  1  0
 26 27  2  0
 27 28  1  0
 28 29  1  0
 29 30  2  0
 29 31  1  0
 32 31  1  0
 32 33  1  0
 34 32  2  0
 35 28  2  0
 35 34  1  0
  1 36  1  0
  1 37  1  0
  2 38  1  0
  4 39  1  0
  4 40  1  0
  7 41  1  0
  8 42  1  6
 10 43  1  0
 11 44  1  0
 13 45  1  0
 14 46  1  0
 15 47  1  0
 16 48  1  0
 18 49  1  0
 18 50  1  0
 20 51  1  0
 21 52  1  0
 26 53  1  0
 31 54  1  0
 33 55  1  0
 33 56  1  0
M  END
>  <Score>  (1) 
-7.34825

$$$$
