
     RDKit          3D

 52 56  0  0  0  0  0  0  0  0999 V2000
   54.7530   72.9610   34.1900 N   0  0  0  0  0  0  0  0  0  0  0  0
   54.2310   74.1470   33.8240 C   0  0  0  0  0  0  0  0  0  0  0  0
   52.9790   73.8980   33.4000 N   0  0  0  0  0  0  0  0  0  0  0  0
   52.7400   72.5960   33.5030 C   0  0  0  0  0  0  0  0  0  0  0  0
   51.5970   71.8860   33.1880 C   0  0  0  0  0  0  0  0  0  0  0  0
   51.6310   70.5550   33.3970 N   0  0  0  0  0  0  0  0  0  0  0  0
   52.7220   69.9360   33.8890 C   0  0  0  0  0  0  0  0  0  0  0  0
   53.8220   70.6390   34.1900 N   0  0  0  0  0  0  0  0  0  0  0  0
   53.8620   71.9810   34.0070 C   0  0  0  0  0  0  0  0  0  0  0  0
   52.6030   68.4510   34.0640 C   0  0  0  0  0  0  0  0  0  0  0  0
   53.9270   67.9100   34.6170 C   0  0  0  0  0  0  0  0  0  0  0  0
   54.5960   67.1850   33.5180 C   0  0  0  0  0  0  0  0  0  0  0  0
   55.7800   67.6830   32.9970 C   0  0  0  0  0  0  0  0  0  0  0  0
   56.3190   66.9150   31.9670 C   0  0  0  0  0  0  0  0  0  0  0  0
   55.7120   65.7620   31.5200 C   0  0  0  0  0  0  0  0  0  0  0  0
   54.5290   65.3190   32.0840 C   0  0  0  0  0  0  0  0  0  0  0  0
   54.0150   66.0720   33.0840 N   0  0  0  0  0  0  0  0  0  0  0  0
   50.4230   72.4290   32.6760 O   0  0  0  0  0  0  0  0  0  0  0  0
   49.2220   71.7490   32.7120 C   0  0  0  0  0  0  0  0  0  0  0  0
   48.9070   71.2390   33.8270 O   0  0  0  0  0  0  0  0  0  0  0  0
   47.0810   72.6390   29.9060 C   0  0  0  0  0  0  0  0  0  0  0  0
   46.7170   71.4280   29.3530 C   0  0  0  0  0  0  0  0  0  0  0  0
   47.2190   70.2710   29.9590 C   0  0  0  0  0  0  0  0  0  0  0  0
   48.0290   70.3940   31.0460 N   0  0  0  0  0  0  0  0  0  0  0  0
   48.3610   71.6160   31.5570 C   0  0  0  0  0  0  0  0  0  0  0  0
   47.8810   72.7040   30.9770 N   0  0  0  0  0  0  0  0  0  0  0  0
   46.9050   68.9840   29.4700 N   0  0  0  0  0  0  0  0  0  0  0  0
   45.6680   68.4810   29.4650 C   0  0  0  0  0  0  0  0  0  0  0  0
   45.4230   67.2140   28.9730 C   0  0  0  0  0  0  0  0  0  0  0  0
   44.0030   66.7140   28.9990 C   0  0  0  0  0  0  0  0  0  0  0  0
   46.4350   66.4150   28.4700 C   0  0  0  0  0  0  0  0  0  0  0  0
   46.1940   65.2600   28.0250 O   0  0  0  0  0  0  0  0  0  0  0  0
   47.6740   66.9650   28.4950 N   0  0  0  0  0  0  0  0  0  0  0  0
   47.8860   68.2050   28.9800 C   0  0  0  0  0  0  0  0  0  0  0  0
   49.0590   68.6700   28.9810 O   0  0  0  0  0  0  0  0  0  0  0  0
   55.7052   72.8274   34.5592 H   0  0  0  0  0  0  0  0  0  0  0  0
   54.7301   75.1265   33.8639 H   0  0  0  0  0  0  0  0  0  0  0  0
   51.7888   68.2260   34.7686 H   0  0  0  0  0  0  0  0  0  0  0  0
   52.3814   67.9776   33.0962 H   0  0  0  0  0  0  0  0  0  0  0  0
   54.5600   68.7417   34.9600 H   0  0  0  0  0  0  0  0  0  0  0  0
   53.7488   67.2428   35.4732 H   0  0  0  0  0  0  0  0  0  0  0  0
   56.2533   68.6052   33.3651 H   0  0  0  0  0  0  0  0  0  0  0  0
   57.2586   67.2395   31.4960 H   0  0  0  0  0  0  0  0  0  0  0  0
   56.1738   65.1863   30.7043 H   0  0  0  0  0  0  0  0  0  0  0  0
   54.0315   64.4013   31.7372 H   0  0  0  0  0  0  0  0  0  0  0  0
   46.7057   73.5704   29.4570 H   0  0  0  0  0  0  0  0  0  0  0  0
   46.0597   71.3746   28.4726 H   0  0  0  0  0  0  0  0  0  0  0  0
   44.8348   69.0826   29.8572 H   0  0  0  0  0  0  0  0  0  0  0  0
   43.6741   66.5982   30.0423 H   0  0  0  0  0  0  0  0  0  0  0  0
   43.3505   67.4364   28.4869 H   0  0  0  0  0  0  0  0  0  0  0  0
   43.9470   65.7421   28.4869 H   0  0  0  0  0  0  0  0  0  0  0  0
   48.4722   66.4227   28.1349 H   0  0  0  0  0  0  0  0  0  0  0  0
  2  1  1  0
  3  4  1  0
  3  2  2  0
  4  9  2  0
  5  6  2  0
  5  4  1  0
  6  7  1  0
  7 10  1  0
  7  8  2  0
  9  1  1  0
  9  8  1  0
 10 11  1  0
 12 11  1  0
 13 12  2  0
 14 13  1  0
 15 14  2  0
 15 16  1  0
 16 17  2  0
 17 12  1  0
 18 19  1  0
 18  5  1  0
 19 20  2  0
 21 26  2  0
 22 21  1  0
 22 23  2  0
 23 24  1  0
 24 25  2  0
 25 19  1  0
 26 25  1  0
 27 23  1  0
 28 27  1  0
 29 30  1  0
 29 28  2  0
 31 33  1  0
 31 29  1  0
 32 31  2  0
 33 34  1  0
 34 35  2  0
 34 27  1  0
  1 36  1  0
  2 37  1  0
 10 38  1  0
 10 39  1  0
 11 40  1  0
 11 41  1  0
 13 42  1  0
 14 43  1  0
 15 44  1  0
 16 45  1  0
 21 46  1  0
 22 47  1  0
 28 48  1  0
 30 49  1  0
 30 50  1  0
 30 51  1  0
 33 52  1  0
M  END
>  <Score>  (1) 
-7.2937

$$$$
