
     RDKit          3D

 26 28  0  0  0  0  0  0  0  0999 V2000
   39.9660   32.3700   38.3070 C   0  0  0  0  0  0  0  0  0  0  0  0
   40.7520   33.2620   39.0680 C   0  0  0  0  0  0  0  0  0  0  0  0
   40.5930   33.2350   40.4650 C   0  0  0  0  0  0  0  0  0  0  0  0
   39.7010   32.3620   41.0070 N   0  0  0  0  0  0  0  0  0  0  0  0
   38.9640   31.5180   40.2320 C   0  0  0  0  0  0  0  0  0  0  0  0
   39.1010   31.5300   38.9040 N   0  0  0  0  0  0  0  0  0  0  0  0
   38.0680   30.6560   40.9240 N   0  0  0  0  0  0  0  0  0  0  0  0
   36.7330   30.6550   40.8910 C   0  0  0  0  0  0  0  0  0  0  0  0
   36.2820   29.6740   41.6930 N   0  0  0  0  0  0  0  0  0  0  0  0
   37.3670   29.0580   42.2320 C   0  0  0  0  0  0  0  0  0  0  0  0
   37.4030   27.9910   43.1180 C   0  0  0  0  0  0  0  0  0  0  0  0
   36.3300   27.4780   43.5160 O   0  0  0  0  0  0  0  0  0  0  0  0
   38.6040   27.5270   43.5340 N   0  0  0  0  0  0  0  0  0  0  0  0
   39.7060   28.1310   43.0620 C   0  0  0  0  0  0  0  0  0  0  0  0
   40.9970   27.6920   43.4600 N   0  0  0  0  0  0  0  0  0  0  0  0
   39.6690   29.1700   42.2000 N   0  0  0  0  0  0  0  0  0  0  0  0
   38.5100   29.6830   41.7430 C   0  0  0  0  0  0  0  0  0  0  0  0
   40.1140   32.3850   36.9020 N   0  0  0  0  0  0  0  0  0  0  0  0
   41.4614   33.9515   38.5869 H   0  0  0  0  0  0  0  0  0  0  0  0
   41.1793   33.9077   41.1082 H   0  0  0  0  0  0  0  0  0  0  0  0
   36.1059   31.3428   40.3048 H   0  0  0  0  0  0  0  0  0  0  0  0
   38.6705   26.7366   44.1910 H   0  0  0  0  0  0  0  0  0  0  0  0
   41.8367   28.1618   43.0924 H   0  0  0  0  0  0  0  0  0  0  0  0
   41.0934   26.9039   44.1161 H   0  0  0  0  0  0  0  0  0  0  0  0
   40.7809   33.0346   36.4613 H   0  0  0  0  0  0  0  0  0  0  0  0
   39.5550   31.7464   36.3184 H   0  0  0  0  0  0  0  0  0  0  0  0
  1  6  2  0
  1  2  1  0
  2  3  2  0
  3  4  1  0
  5  7  1  0
  5  4  2  0
  6  5  1  0
  7 17  1  0
  8  7  1  0
  8  9  2  0
  9 10  1  0
 10 11  1  0
 11 12  2  0
 11 13  1  0
 14 15  1  0
 14 13  1  0
 16 14  2  0
 17 16  1  0
 17 10  2  0
 18  1  1  0
  2 19  1  0
  3 20  1  0
  8 21  1  0
 13 22  1  0
 15 23  1  0
 15 24  1  0
 18 25  1  0
 18 26  1  0
M  ISO  4  19  14  20  14  21  14  22   9
M  END
>  <minimizedAffinity>  (1) 
-5.66329527

>  <minimizedRMSD>  (1) 
5.69541883

$$$$
