
     RDKit          3D

 26 27  0  0  0  0  0  0  0  0999 V2000
   37.2340   32.3230   39.6570 C   0  0  0  0  0  0  0  0  0  0  0  0
   37.6260   31.8260   38.4000 C   0  0  0  0  0  0  0  0  0  0  0  0
   38.0090   30.4680   38.3290 C   0  0  0  0  0  0  0  0  0  0  0  0
   37.9780   29.7180   39.4740 N   0  0  0  0  0  0  0  0  0  0  0  0
   37.5920   30.2520   40.6490 C   0  0  0  0  0  0  0  0  0  0  0  0
   37.2270   31.5350   40.7320 N   0  0  0  0  0  0  0  0  0  0  0  0
   37.5840   29.4170   41.7990 N   0  0  0  0  0  0  0  0  0  0  0  0
   36.5400   28.4270   41.9800 C   0  0  0  0  0  0  0  0  0  0  0  0
   37.1360   27.1220   42.3890 C   0  0  0  0  0  0  0  0  0  0  0  0
   38.0090   27.3260   43.5250 N   0  0  0  0  0  0  0  0  0  0  0  0
   39.1390   28.1300   43.0800 C   0  0  0  0  0  0  0  0  0  0  0  0
   38.6140   29.5350   42.8170 C   0  0  0  0  0  0  0  0  0  0  0  0
   36.8460   33.6870   39.7450 N   0  0  0  0  0  0  0  0  0  0  0  0
   37.6339   32.4696   37.5079 H   0  0  0  0  0  0  0  0  0  0  0  0
   38.3254   30.0227   37.3742 H   0  0  0  0  0  0  0  0  0  0  0  0
   35.8448   28.7700   42.7604 H   0  0  0  0  0  0  0  0  0  0  0  0
   36.0010   28.2946   41.0303 H   0  0  0  0  0  0  0  0  0  0  0  0
   36.3331   26.4223   42.6644 H   0  0  0  0  0  0  0  0  0  0  0  0
   37.7146   26.7044   41.5519 H   0  0  0  0  0  0  0  0  0  0  0  0
   37.5011   27.8193   44.2730 H   0  0  0  0  0  0  0  0  0  0  0  0
   39.9135   28.1568   43.8606 H   0  0  0  0  0  0  0  0  0  0  0  0
   39.5884   27.7038   42.1709 H   0  0  0  0  0  0  0  0  0  0  0  0
   39.4281   30.1820   42.4583 H   0  0  0  0  0  0  0  0  0  0  0  0
   38.2092   29.9826   43.7367 H   0  0  0  0  0  0  0  0  0  0  0  0
   36.8576   34.2810   38.9036 H   0  0  0  0  0  0  0  0  0  0  0  0
   36.5531   34.0817   40.6501 H   0  0  0  0  0  0  0  0  0  0  0  0
  1 13  1  0
  1  6  2  0
  2  1  1  0
  3  2  2  0
  3  4  1  0
  4  5  2  0
  5  6  1  0
  5  7  1  0
  7  8  1  0
  7 12  1  0
  8  9  1  0
  9 10  1  0
 11 10  1  0
 12 11  1  0
  2 14  1  0
  3 15  1  0
  8 16  1  0
  8 17  1  0
  9 18  1  0
  9 19  1  0
 10 20  1  0
 11 21  1  0
 11 22  1  0
 12 23  1  0
 12 24  1  0
 13 25  1  0
 13 26  1  0
M  ISO  8  14  14  15  14  16  13  17  13  18  13  19  13  20   5  21  13
M  ISO  3  22  13  23  13  24  13
M  END
>  <minimizedAffinity>  (1) 
-4.48406219

>  <minimizedRMSD>  (1) 
4.26714516

$$$$
