
     RDKit          3D

 20 21  0  0  0  0  0  0  0  0999 V2000
   37.8420   33.2060   39.9720 C   0  0  0  0  0  0  0  0  0  0  0  0
   39.1890   33.5990   40.0810 C   0  0  0  0  0  0  0  0  0  0  0  0
   40.0650   32.7570   40.7890 C   0  0  0  0  0  0  0  0  0  0  0  0
   39.5490   31.6080   41.3250 N   0  0  0  0  0  0  0  0  0  0  0  0
   38.2530   31.2660   41.1990 C   0  0  0  0  0  0  0  0  0  0  0  0
   37.4140   32.0630   40.5280 N   0  0  0  0  0  0  0  0  0  0  0  0
   37.8080   30.0050   41.8190 C   0  0  0  0  0  0  0  0  0  0  0  0
   38.4230   29.5300   42.9590 C   0  0  0  0  0  0  0  0  0  0  0  0
   37.9230   28.3450   43.4460 C   0  0  0  0  0  0  0  0  0  0  0  0
   36.9050   27.7020   42.8480 N   0  0  0  0  0  0  0  0  0  0  0  0
   36.3320   28.1900   41.7440 C   0  0  0  0  0  0  0  0  0  0  0  0
   36.7840   29.3590   41.2150 N   0  0  0  0  0  0  0  0  0  0  0  0
   36.9490   34.0520   39.2580 N   0  0  0  0  0  0  0  0  0  0  0  0
   39.5454   34.5353   39.6267 H   0  0  0  0  0  0  0  0  0  0  0  0
   41.1282   33.0129   40.9080 H   0  0  0  0  0  0  0  0  0  0  0  0
   39.2548   30.0617   43.4443 H   0  0  0  0  0  0  0  0  0  0  0  0
   38.3696   27.9101   44.3523 H   0  0  0  0  0  0  0  0  0  0  0  0
   35.5009   27.6505   41.2664 H   0  0  0  0  0  0  0  0  0  0  0  0
   35.9575   33.7901   39.1619 H   0  0  0  0  0  0  0  0  0  0  0  0
   37.2938   34.9265   38.8371 H   0  0  0  0  0  0  0  0  0  0  0  0
  1  2  2  0
  1  6  1  0
  2  3  1  0
  3  4  2  0
  5  4  1  0
  5  7  1  0
  6  5  2  0
  7  8  2  0
  8  9  1  0
 10  9  2  0
 11 10  1  0
 12 11  2  0
 12  7  1  0
 13  1  1  0
  2 14  1  0
  3 15  1  0
  8 16  1  0
  9 17  1  0
 11 18  1  0
 13 19  1  0
 13 20  1  0
M  ISO  5  14  14  15  14  16  14  17  14  18  14
M  END
>  <minimizedAffinity>  (1) 
-4.42295408

>  <minimizedRMSD>  (1) 
4.58047104

$$$$
