
     RDKit          3D

 44 48  0  0  1  0  0  0  0  0999 V2000
   37.6690   28.7930   41.9180 C   0  0  1  0  0  0  0  0  0  0  0  0
   36.8520   28.1200   43.0210 C   0  0  0  0  0  0  0  0  0  0  0  0
   37.9370   27.5820   43.9180 C   0  0  0  0  0  0  0  0  0  0  0  0
   39.1520   27.4110   43.0370 C   0  0  0  0  0  0  0  0  0  0  0  0
   38.7050   27.7440   41.6210 C   0  0  2  0  0  0  0  0  0  0  0  0
   37.4850   33.6780   39.5380 C   0  0  0  0  0  0  0  0  0  0  0  0
   38.5900   33.9330   40.3710 C   0  0  0  0  0  0  0  0  0  0  0  0
   39.0840   32.8600   41.0970 C   0  0  0  0  0  0  0  0  0  0  0  0
   38.4800   31.6490   40.9610 N   0  0  0  0  0  0  0  0  0  0  0  0
   37.4400   31.4250   40.1730 C   0  0  0  0  0  0  0  0  0  0  0  0
   36.9480   32.4570   39.4610 N   0  0  0  0  0  0  0  0  0  0  0  0
   36.7770   30.1860   40.0090 N   0  0  0  0  0  0  0  0  0  0  0  0
   35.9390   30.0840   38.9930 N   0  0  0  0  0  0  0  0  0  0  0  0
   35.3910   28.8450   39.0120 C   0  0  0  0  0  0  0  0  0  0  0  0
   35.9440   28.1870   40.1010 C   0  0  0  0  0  0  0  0  0  0  0  0
   36.8330   29.0490   40.7390 C   0  0  0  0  0  0  0  0  0  0  0  0
   39.8700   28.4660   40.9910 C   0  0  0  0  0  0  0  0  0  0  0  0
   40.9050   29.0380   41.7430 C   0  0  0  0  0  0  0  0  0  0  0  0
   41.8400   29.5810   40.9560 N   0  0  0  0  0  0  0  0  0  0  0  0
   41.4740   29.3980   39.6780 C   0  0  0  0  0  0  0  0  0  0  0  0
   41.9900   29.7220   38.4270 C   0  0  0  0  0  0  0  0  0  0  0  0
   41.3870   29.4130   37.2370 C   0  0  0  0  0  0  0  0  0  0  0  0
   40.1930   28.7370   37.3290 C   0  0  0  0  0  0  0  0  0  0  0  0
   39.6440   28.3970   38.5440 C   0  0  0  0  0  0  0  0  0  0  0  0
   40.2750   28.7210   39.7010 C   0  0  0  0  0  0  0  0  0  0  0  0
   38.0897   29.7692   42.2009 H   0  0  0  0  0  0  0  0  0  0  0  0
   36.2174   28.8462   43.5501 H   0  0  0  0  0  0  0  0  0  0  0  0
   36.1533   27.3532   42.6552 H   0  0  0  0  0  0  0  0  0  0  0  0
   38.1498   28.2925   44.7303 H   0  0  0  0  0  0  0  0  0  0  0  0
   37.6404   26.6325   44.3875 H   0  0  0  0  0  0  0  0  0  0  0  0
   39.9519   28.0960   43.3546 H   0  0  0  0  0  0  0  0  0  0  0  0
   39.5497   26.3873   43.0997 H   0  0  0  0  0  0  0  0  0  0  0  0
   38.3731   26.9018   40.9961 H   0  0  0  0  0  0  0  0  0  0  0  0
   37.0566   34.4966   38.9410 H   0  0  0  0  0  0  0  0  0  0  0  0
   39.0398   34.9343   40.4427 H   0  0  0  0  0  0  0  0  0  0  0  0
   39.9460   32.9855   41.7687 H   0  0  0  0  0  0  0  0  0  0  0  0
   34.6531   28.4405   38.3036 H   0  0  0  0  0  0  0  0  0  0  0  0
   35.7179   27.1556   40.4095 H   0  0  0  0  0  0  0  0  0  0  0  0
   40.9435   29.0401   42.8423 H   0  0  0  0  0  0  0  0  0  0  0  0
   42.6949   30.0581   41.2761 H   0  0  0  0  0  0  0  0  0  0  0  0
   42.9471   30.2630   38.3916 H   0  0  0  0  0  0  0  0  0  0  0  0
   41.8298   29.6882   36.2684 H   0  0  0  0  0  0  0  0  0  0  0  0
   39.6623   28.4605   36.4060 H   0  0  0  0  0  0  0  0  0  0  0  0
   38.6857   27.8581   38.5778 H   0  0  0  0  0  0  0  0  0  0  0  0
  1  2  1  0
  2  3  1  0
  4  3  1  0
  5  1  1  0
  5  4  1  0
  6  7  2  0
  7  8  1  0
  9  8  2  0
 10  9  1  0
 11  6  1  0
 11 10  2  0
 12 10  1  0
 12 16  1  0
 13 14  2  0
 13 12  1  0
 14 15  1  0
 15 16  2  0
 16  1  1  0
 17  5  1  0
 17 18  2  0
 19 18  1  0
 20 25  2  0
 20 19  1  0
 21 20  1  0
 22 23  1  0
 22 21  2  0
 23 24  2  0
 24 25  1  0
 25 17  1  0
  1 26  1  1
  2 27  1  0
  2 28  1  0
  3 29  1  0
  3 30  1  0
  4 31  1  0
  4 32  1  0
  5 33  1  6
  6 34  1  0
  7 35  1  0
  8 36  1  0
 14 37  1  0
 15 38  1  0
 18 39  1  0
 19 40  1  0
 21 41  1  0
 22 42  1  0
 23 43  1  0
 24 44  1  0
M  ISO  8  26  13  27  13  28  13  29  13  30  13  31  13  32  13  33  13
M  ISO  8  34  14  35  14  36  14  37  14  38  14  39  14  40   9  41  14
M  ISO  3  42  14  43  14  44  14
M  END
>  <minimizedAffinity>  (1) 
-5.57028913

>  <minimizedRMSD>  (1) 
6.3290801

$$$$
