
     RDKit          3D

 19 20  0  0  0  0  0  0  0  0999 V2000
   37.6980   32.2190   40.5830 C   0  0  0  0  0  0  0  0  0  0  0  0
   39.0660   32.5500   40.6390 C   0  0  0  0  0  0  0  0  0  0  0  0
   39.9200   31.6680   41.3410 C   0  0  0  0  0  0  0  0  0  0  0  0
   39.3850   30.5620   41.9170 N   0  0  0  0  0  0  0  0  0  0  0  0
   38.0600   30.2890   41.8330 C   0  0  0  0  0  0  0  0  0  0  0  0
   37.2270   31.1070   41.1750 N   0  0  0  0  0  0  0  0  0  0  0  0
   37.4420   29.1120   42.4370 C   0  0  0  0  0  0  0  0  0  0  0  0
   36.6260   28.0720   42.0220 C   0  0  0  0  0  0  0  0  0  0  0  0
   36.4350   27.2980   43.1700 C   0  0  0  0  0  0  0  0  0  0  0  0
   37.1440   27.9150   44.2030 C   0  0  0  0  0  0  0  0  0  0  0  0
   37.7230   28.9860   43.7120 O   0  0  0  0  0  0  0  0  0  0  0  0
   36.8270   33.0900   39.8870 N   0  0  0  0  0  0  0  0  0  0  0  0
   39.4547   33.4586   40.1558 H   0  0  0  0  0  0  0  0  0  0  0  0
   40.9976   31.8747   41.4186 H   0  0  0  0  0  0  0  0  0  0  0  0
   36.2197   27.8952   41.0152 H   0  0  0  0  0  0  0  0  0  0  0  0
   35.8388   26.3767   43.2456 H   0  0  0  0  0  0  0  0  0  0  0  0
   37.2063   27.5653   45.2441 H   0  0  0  0  0  0  0  0  0  0  0  0
   35.8215   32.8745   39.8288 H   0  0  0  0  0  0  0  0  0  0  0  0
   37.1984   33.9396   39.4385 H   0  0  0  0  0  0  0  0  0  0  0  0
  1  2  2  0
  1  6  1  0
  2  3  1  0
  3  4  2  0
  5  4  1  0
  5  7  1  0
  6  5  2  0
  7 11  1  0
  8  7  2  0
  8  9  1  0
  9 10  2  0
 11 10  1  0
 12  1  1  0
  2 13  1  0
  3 14  1  0
  8 15  1  0
  9 16  1  0
 10 17  1  0
 12 18  1  0
 12 19  1  0
M  ISO  5  13  14  14  14  15  14  16  14  17  14
M  END
>  <minimizedAffinity>  (1) 
-4.38866854

>  <minimizedRMSD>  (1) 
3.57674646

$$$$
