
     RDKit          3D

 19 20  0  0  0  0  0  0  0  0999 V2000
   37.7500   33.1460   39.9510 C   0  0  0  0  0  0  0  0  0  0  0  0
   39.1150   33.4450   40.1050 C   0  0  0  0  0  0  0  0  0  0  0  0
   39.9030   32.5370   40.8380 C   0  0  0  0  0  0  0  0  0  0  0  0
   39.2990   31.4210   41.3550 N   0  0  0  0  0  0  0  0  0  0  0  0
   37.9730   31.1760   41.1790 C   0  0  0  0  0  0  0  0  0  0  0  0
   37.2160   32.0310   40.4840 N   0  0  0  0  0  0  0  0  0  0  0  0
   37.4150   29.9630   41.7660 C   0  0  0  0  0  0  0  0  0  0  0  0
   38.0520   29.4230   42.8650 C   0  0  0  0  0  0  0  0  0  0  0  0
   37.3420   28.2980   43.2270 C   0  0  0  0  0  0  0  0  0  0  0  0
   36.3110   28.1740   42.3650 N   0  0  0  0  0  0  0  0  0  0  0  0
   36.3520   29.1770   41.4820 N   0  0  0  0  0  0  0  0  0  0  0  0
   36.9410   34.0520   39.2140 N   0  0  0  0  0  0  0  0  0  0  0  0
   39.5517   34.3554   39.6686 H   0  0  0  0  0  0  0  0  0  0  0  0
   40.9769   32.7191   40.9918 H   0  0  0  0  0  0  0  0  0  0  0  0
   38.9538   29.8153   43.3578 H   0  0  0  0  0  0  0  0  0  0  0  0
   37.5736   27.6245   44.0653 H   0  0  0  0  0  0  0  0  0  0  0  0
   35.6042   27.4250   42.3843 H   0  0  0  0  0  0  0  0  0  0  0  0
   35.9376   33.8587   39.0850 H   0  0  0  0  0  0  0  0  0  0  0  0
   37.3579   34.9022   38.8087 H   0  0  0  0  0  0  0  0  0  0  0  0
  1  2  2  0
  1  6  1  0
  2  3  1  0
  3  4  2  0
  5  4  1  0
  5  7  1  0
  6  5  2  0
  7  8  1  0
  8  9  2  0
 10  9  1  0
 11  7  2  0
 11 10  1  0
 12  1  1  0
  2 13  1  0
  3 14  1  0
  8 15  1  0
  9 16  1  0
 10 17  1  0
 12 18  1  0
 12 19  1  0
M  ISO  5  13  14  14  14  15  14  16  14  17   9
M  END
>  <minimizedAffinity>  (1) 
-4.29651976

>  <minimizedRMSD>  (1) 
4.46118784

$$$$
