
     RDKit          3D

 18 19  0  0  0  0  0  0  0  0999 V2000
   37.7690   32.4940   40.4680 C   0  0  0  0  0  0  0  0  0  0  0  0
   39.1090   32.9080   40.5620 C   0  0  0  0  0  0  0  0  0  0  0  0
   40.0220   32.0570   41.2110 C   0  0  0  0  0  0  0  0  0  0  0  0
   39.5560   30.8680   41.7150 N   0  0  0  0  0  0  0  0  0  0  0  0
   38.2510   30.5130   41.5980 C   0  0  0  0  0  0  0  0  0  0  0  0
   37.3870   31.3300   40.9790 N   0  0  0  0  0  0  0  0  0  0  0  0
   37.8260   29.2130   42.1700 C   0  0  0  0  0  0  0  0  0  0  0  0
   37.6180   28.1520   41.3090 C   0  0  0  0  0  0  0  0  0  0  0  0
   37.1120   26.7990   42.5090 S   0  0  0  0  0  0  0  0  0  0  0  0
   37.2990   28.0070   43.9680 C   0  0  0  0  0  0  0  0  0  0  0  0
   37.6220   28.9660   43.4640 N   0  0  0  0  0  0  0  0  0  0  0  0
   36.8450   33.3480   39.8160 N   0  0  0  0  0  0  0  0  0  0  0  0
   39.4345   33.8703   40.1400 H   0  0  0  0  0  0  0  0  0  0  0  0
   41.0810   32.3368   41.3120 H   0  0  0  0  0  0  0  0  0  0  0  0
   37.7212   28.1111   40.2146 H   0  0  0  0  0  0  0  0  0  0  0  0
   37.1334   27.8183   45.0390 H   0  0  0  0  0  0  0  0  0  0  0  0
   35.8568   33.0698   39.7327 H   0  0  0  0  0  0  0  0  0  0  0  0
   37.1616   34.2469   39.4254 H   0  0  0  0  0  0  0  0  0  0  0  0
  1  2  2  0
  1  6  1  0
  2  3  1  0
  3  4  2  0
  5  4  1  0
  5  7  1  0
  6  5  2  0
  7 11  1  0
  8  7  2  0
  8  9  1  0
  9 10  1  0
 11 10  2  0
 12  1  1  0
  2 13  1  0
  3 14  1  0
  8 15  1  0
 10 16  1  0
 12 17  1  0
 12 18  1  0
M  ISO  4  13  14  14  14  15  14  16  14
M  END
>  <minimizedAffinity>  (1) 
-3.98562217

>  <minimizedRMSD>  (1) 
3.81171584

$$$$
