
     RDKit          3D

 23 24  0  0  0  0  0  0  0  0999 V2000
   39.3670   30.0380   42.1570 C   0  0  0  0  0  0  0  0  0  0  0  0
   38.0990   29.4240   42.2970 C   0  0  0  0  0  0  0  0  0  0  0  0
   36.9970   30.0710   41.6660 C   0  0  0  0  0  0  0  0  0  0  0  0
   37.2330   31.2260   40.9760 N   0  0  0  0  0  0  0  0  0  0  0  0
   38.4660   31.7600   40.8790 C   0  0  0  0  0  0  0  0  0  0  0  0
   39.5430   31.1700   41.4690 N   0  0  0  0  0  0  0  0  0  0  0  0
   40.4620   29.3970   42.7830 N   0  0  0  0  0  0  0  0  0  0  0  0
   38.5510   32.9350   40.1460 O   0  0  0  0  0  0  0  0  0  0  0  0
   39.6880   33.3610   39.4890 C   0  0  0  0  0  0  0  0  0  0  0  0
   40.3700   32.7620   38.4490 C   0  0  0  0  0  0  0  0  0  0  0  0
   41.5000   33.3500   37.9210 C   0  0  0  0  0  0  0  0  0  0  0  0
   41.9700   34.5590   38.4280 C   0  0  0  0  0  0  0  0  0  0  0  0
   41.2930   35.1640   39.4670 C   0  0  0  0  0  0  0  0  0  0  0  0
   40.1550   34.5770   40.0030 C   0  0  0  0  0  0  0  0  0  0  0  0
   37.9704   28.4914   42.8660 H   0  0  0  0  0  0  0  0  0  0  0  0
   35.9825   29.6511   41.7329 H   0  0  0  0  0  0  0  0  0  0  0  0
   41.4059   29.8029   42.7114 H   0  0  0  0  0  0  0  0  0  0  0  0
   40.3152   28.5245   43.3103 H   0  0  0  0  0  0  0  0  0  0  0  0
   40.0090   31.8076   38.0380 H   0  0  0  0  0  0  0  0  0  0  0  0
   42.0341   32.8606   37.0933 H   0  0  0  0  0  0  0  0  0  0  0  0
   42.8712   35.0266   38.0047 H   0  0  0  0  0  0  0  0  0  0  0  0
   41.6579   36.1187   39.8737 H   0  0  0  0  0  0  0  0  0  0  0  0
   39.6207   35.0665   40.8306 H   0  0  0  0  0  0  0  0  0  0  0  0
  1  2  2  0
  1  7  1  0
  3  2  1  0
  4  3  2  0
  5  4  1  0
  5  6  2  0
  6  1  1  0
  8  5  1  0
  9 14  1  0
  9  8  1  0
 10  9  2  0
 11 12  2  0
 11 10  1  0
 12 13  1  0
 13 14  2  0
  2 15  1  0
  3 16  1  0
  7 17  1  0
  7 18  1  0
 10 19  1  0
 11 20  1  0
 12 21  1  0
 13 22  1  0
 14 23  1  0
M  ISO  7  15  14  16  14  19  14  20  14  21  14  22  14  23  14
M  END
>  <minimizedAffinity>  (1) 
-3.64310932

>  <minimizedRMSD>  (1) 
8.33431721

$$$$
