
     RDKit          3D

 20 21  0  0  0  0  0  0  0  0999 V2000
   37.6760   31.2810   40.8610 C   0  0  0  0  0  0  0  0  0  0  0  0
   38.8710   31.9510   41.2430 C   0  0  0  0  0  0  0  0  0  0  0  0
   39.8660   31.1780   41.8900 C   0  0  0  0  0  0  0  0  0  0  0  0
   39.6270   29.8550   42.1090 N   0  0  0  0  0  0  0  0  0  0  0  0
   38.4620   29.2630   41.7220 C   0  0  0  0  0  0  0  0  0  0  0  0
   37.5030   29.9790   41.1040 N   0  0  0  0  0  0  0  0  0  0  0  0
   36.6640   32.0150   40.2150 N   0  0  0  0  0  0  0  0  0  0  0  0
   38.3650   27.9140   42.0120 O   0  0  0  0  0  0  0  0  0  0  0  0
   37.9000   27.4210   43.2420 C   0  0  0  0  0  0  0  0  0  0  0  0
   37.2330   28.3310   44.2140 C   0  0  0  0  0  0  0  0  0  0  0  0
   36.4360   27.2580   43.4630 C   0  0  0  0  0  0  0  0  0  0  0  0
   39.0162   33.0232   41.0445 H   0  0  0  0  0  0  0  0  0  0  0  0
   40.8132   31.6371   42.2094 H   0  0  0  0  0  0  0  0  0  0  0  0
   36.7961   33.0190   40.0270 H   0  0  0  0  0  0  0  0  0  0  0  0
   35.7912   31.5482   39.9301 H   0  0  0  0  0  0  0  0  0  0  0  0
   38.7680   26.7479   43.3010 H   0  0  0  0  0  0  0  0  0  0  0  0
   37.4242   28.2242   45.2920 H   0  0  0  0  0  0  0  0  0  0  0  0
   37.1542   29.4209   44.3398 H   0  0  0  0  0  0  0  0  0  0  0  0
   35.7228   27.5479   42.6773 H   0  0  0  0  0  0  0  0  0  0  0  0
   35.7748   26.4276   43.7515 H   0  0  0  0  0  0  0  0  0  0  0  0
  1  6  2  0
  1  2  1  0
  2  3  2  0
  3  4  1  0
  5  8  1  0
  5  4  2  0
  6  5  1  0
  7  1  1  0
  8  9  1  0
  9 11  1  0
  9 10  1  0
 11 10  1  0
  2 12  1  0
  3 13  1  0
  7 14  1  0
  7 15  1  0
  9 16  1  0
 10 17  1  0
 10 18  1  0
 11 19  1  0
 11 20  1  0
M  ISO  7  12  14  13  14  16  13  17  13  18  13  19  13  20  13
M  END
>  <minimizedAffinity>  (1) 
-3.45700145

>  <minimizedRMSD>  (1) 
3.0931623

$$$$
