
     RDKit          3D

 37 40  0  0  1  0  0  0  0  0999 V2000
   37.5450   25.3440   41.9440 C   0  0  1  0  0  0  0  0  0  0  0  0
   36.9160   25.8120   40.6440 C   0  0  0  0  0  0  0  0  0  0  0  0
   36.3870   24.5310   40.0520 C   0  0  0  0  0  0  0  0  0  0  0  0
   37.0870   23.3980   40.7550 C   0  0  0  0  0  0  0  0  0  0  0  0
   38.2220   24.0780   41.5370 C   0  0  1  0  0  0  0  0  0  0  0  0
   37.0520   30.7080   41.1350 C   0  0  0  0  0  0  0  0  0  0  0  0
   35.8020   30.3340   40.5900 C   0  0  0  0  0  0  0  0  0  0  0  0
   35.4270   29.0090   40.7120 C   0  0  0  0  0  0  0  0  0  0  0  0
   36.2750   28.1540   41.3440 N   0  0  0  0  0  0  0  0  0  0  0  0
   37.4420   28.5070   41.8530 C   0  0  0  0  0  0  0  0  0  0  0  0
   37.8360   29.8040   41.7470 N   0  0  0  0  0  0  0  0  0  0  0  0
   38.3450   27.6390   42.5050 N   0  0  0  0  0  0  0  0  0  0  0  0
   39.3170   28.2240   43.2040 N   0  0  0  0  0  0  0  0  0  0  0  0
   40.0970   27.2360   43.7520 C   0  0  0  0  0  0  0  0  0  0  0  0
   39.5230   26.0410   43.3310 C   0  0  0  0  0  0  0  0  0  0  0  0
   38.4220   26.3090   42.5490 C   0  0  0  0  0  0  0  0  0  0  0  0
   39.2980   24.2220   40.5260 C   0  0  0  0  0  0  0  0  0  0  0  0
   40.4630   24.9520   40.8210 C   0  0  0  0  0  0  0  0  0  0  0  0
   41.2130   24.8660   39.6670 C   0  0  0  0  0  0  0  0  0  0  0  0
   40.5040   24.1140   38.7460 C   0  0  0  0  0  0  0  0  0  0  0  0
   39.3640   23.7530   39.3130 O   0  0  0  0  0  0  0  0  0  0  0  0
   36.8084   25.1952   42.7473 H   0  0  0  0  0  0  0  0  0  0  0  0
   36.1022   26.5278   40.8322 H   0  0  0  0  0  0  0  0  0  0  0  0
   37.6198   26.3400   39.9838 H   0  0  0  0  0  0  0  0  0  0  0  0
   35.3010   24.4613   40.2121 H   0  0  0  0  0  0  0  0  0  0  0  0
   36.5719   24.4941   38.9683 H   0  0  0  0  0  0  0  0  0  0  0  0
   36.3989   22.8796   41.4390 H   0  0  0  0  0  0  0  0  0  0  0  0
   37.4581   22.6349   40.0550 H   0  0  0  0  0  0  0  0  0  0  0  0
   38.6702   23.5951   42.4179 H   0  0  0  0  0  0  0  0  0  0  0  0
   37.3872   31.7528   41.0571 H   0  0  0  0  0  0  0  0  0  0  0  0
   35.1538   31.0681   40.0889 H   0  0  0  0  0  0  0  0  0  0  0  0
   34.4670   28.6552   40.3081 H   0  0  0  0  0  0  0  0  0  0  0  0
   40.9856   27.3624   44.3879 H   0  0  0  0  0  0  0  0  0  0  0  0
   39.8921   25.0361   43.5840 H   0  0  0  0  0  0  0  0  0  0  0  0
   40.7174   25.4718   41.7565 H   0  0  0  0  0  0  0  0  0  0  0  0
   42.2033   25.3169   39.5061 H   0  0  0  0  0  0  0  0  0  0  0  0
   40.8297   23.8618   37.7260 H   0  0  0  0  0  0  0  0  0  0  0  0
  1 16  1  0
  2  1  1  0
  3  2  1  0
  3  4  1  0
  4  5  1  0
  5  1  1  0
  6 11  2  0
  7  8  2  0
  7  6  1  0
  8  9  1  0
  9 10  2  0
 10 12  1  0
 11 10  1  0
 12 16  1  0
 12 13  1  0
 13 14  2  0
 15 14  1  0
 16 15  2  0
 17 18  2  0
 17  5  1  0
 19 18  1  0
 20 21  1  0
 20 19  2  0
 21 17  1  0
  1 22  1  1
  2 23  1  0
  2 24  1  0
  3 25  1  0
  3 26  1  0
  4 27  1  0
  4 28  1  0
  5 29  1  1
  6 30  1  0
  7 31  1  0
  8 32  1  0
 14 33  1  0
 15 34  1  0
 18 35  1  0
 19 36  1  0
 20 37  1  0
M  ISO  8  22  13  23  13  24  13  25  13  26  13  27  13  28  13  29  13
M  ISO  8  30  14  31  14  32  14  33  14  34  14  35  14  36  14  37  14
M  END
>  <minimizedAffinity>  (1) 
-5.40541983

>  <minimizedRMSD>  (1) 
1.49954569

$$$$
