
     RDKit          3D

 31 34  0  0  0  0  0  0  0  0999 V2000
   37.9210   29.3210   42.6190 C   0  0  0  0  0  0  0  0  0  0  0  0
   37.0720   29.9680   41.7840 N   0  0  0  0  0  0  0  0  0  0  0  0
   37.7440   30.8540   41.1080 O   0  0  0  0  0  0  0  0  0  0  0  0
   39.0130   30.8300   41.4510 C   0  0  0  0  0  0  0  0  0  0  0  0
   39.1550   29.8740   42.4030 N   0  0  0  0  0  0  0  0  0  0  0  0
   39.9320   31.7220   40.8310 N   0  0  0  0  0  0  0  0  0  0  0  0
   41.1620   31.4290   40.3700 C   0  0  0  0  0  0  0  0  0  0  0  0
   41.7370   32.5250   39.8480 N   0  0  0  0  0  0  0  0  0  0  0  0
   40.8670   33.5600   39.9670 C   0  0  0  0  0  0  0  0  0  0  0  0
   41.0040   34.8780   39.5810 C   0  0  0  0  0  0  0  0  0  0  0  0
   39.9600   35.7210   39.8230 N   0  0  0  0  0  0  0  0  0  0  0  0
   38.8570   35.2010   40.4310 C   0  0  0  0  0  0  0  0  0  0  0  0
   38.7330   33.8960   40.8100 N   0  0  0  0  0  0  0  0  0  0  0  0
   39.7560   33.0240   40.5840 C   0  0  0  0  0  0  0  0  0  0  0  0
   42.2290   35.2920   38.9460 N   0  0  0  0  0  0  0  0  0  0  0  0
   37.9370   28.3190   43.5800 O   0  0  0  0  0  0  0  0  0  0  0  0
   38.5200   24.8970   42.5540 C   0  0  0  0  0  0  0  0  0  0  0  0
   39.8090   24.6720   43.0780 C   0  0  0  0  0  0  0  0  0  0  0  0
   40.4270   25.7340   43.7750 C   0  0  0  0  0  0  0  0  0  0  0  0
   39.7360   26.9210   43.9000 N   0  0  0  0  0  0  0  0  0  0  0  0
   38.4970   27.0700   43.3710 C   0  0  0  0  0  0  0  0  0  0  0  0
   37.9090   26.0660   42.7090 N   0  0  0  0  0  0  0  0  0  0  0  0
   37.8850   23.8530   41.8550 N   0  0  0  0  0  0  0  0  0  0  0  0
   41.6296   30.4343   40.4143 H   0  0  0  0  0  0  0  0  0  0  0  0
   38.0120   35.8768   40.6291 H   0  0  0  0  0  0  0  0  0  0  0  0
   42.9841   34.6093   38.7892 H   0  0  0  0  0  0  0  0  0  0  0  0
   42.3498   36.2708   38.6487 H   0  0  0  0  0  0  0  0  0  0  0  0
   40.3156   23.7042   42.9488 H   0  0  0  0  0  0  0  0  0  0  0  0
   41.4321   25.6174   44.2064 H   0  0  0  0  0  0  0  0  0  0  0  0
   38.3618   22.9477   41.7367 H   0  0  0  0  0  0  0  0  0  0  0  0
   36.9435   23.9944   41.4618 H   0  0  0  0  0  0  0  0  0  0  0  0
  1 16  1  0
  2  1  2  0
  3  4  1  0
  3  2  1  0
  4  5  2  0
  5  1  1  0
  6  4  1  0
  7  6  1  0
  8  9  1  0
  8  7  2  0
  9 14  2  0
 10 11  2  0
 10  9  1  0
 11 12  1  0
 12 13  2  0
 14 13  1  0
 14  6  1  0
 15 10  1  0
 17 22  2  0
 17 18  1  0
 18 19  2  0
 19 20  1  0
 21 16  1  0
 21 20  2  0
 22 21  1  0
 23 17  1  0
  7 24  1  0
 12 25  1  0
 15 26  1  0
 15 27  1  0
 18 28  1  0
 19 29  1  0
 23 30  1  0
 23 31  1  0
M  ISO  4  24  14  25  14  28  14  29  14
M  END
>  <minimizedAffinity>  (1) 
-6.68985367

>  <minimizedRMSD>  (1) 
0.483783096

$$$$
