
     RDKit          3D

 28 30  0  0  0  0  0  0  0  0999 V2000
   36.7790   28.5780   42.0070 C   0  0  0  0  0  0  0  0  0  0  0  0
   36.1180   28.7260   40.8470 N   0  0  0  0  0  0  0  0  0  0  0  0
   36.4190   29.8860   40.3270 O   0  0  0  0  0  0  0  0  0  0  0  0
   37.2630   30.5350   41.0950 C   0  0  0  0  0  0  0  0  0  0  0  0
   37.5050   29.7330   42.1590 N   0  0  0  0  0  0  0  0  0  0  0  0
   37.7780   31.8330   40.7930 N   0  0  0  0  0  0  0  0  0  0  0  0
   37.1270   32.6360   39.9570 C   0  0  0  0  0  0  0  0  0  0  0  0
   37.6260   33.8930   39.6650 C   0  0  0  0  0  0  0  0  0  0  0  0
   38.8110   34.3740   40.2190 C   0  0  0  0  0  0  0  0  0  0  0  0
   39.2840   35.4930   39.9770 O   0  0  0  0  0  0  0  0  0  0  0  0
   39.4050   33.4830   41.0610 N   0  0  0  0  0  0  0  0  0  0  0  0
   38.9270   32.2540   41.3530 C   0  0  0  0  0  0  0  0  0  0  0  0
   39.5690   31.5290   42.1440 O   0  0  0  0  0  0  0  0  0  0  0  0
   36.9490   27.6820   43.0390 O   0  0  0  0  0  0  0  0  0  0  0  0
   38.4730   24.4690   42.3240 C   0  0  0  0  0  0  0  0  0  0  0  0
   39.7070   24.5990   42.9980 C   0  0  0  0  0  0  0  0  0  0  0  0
   39.9660   25.8200   43.6870 C   0  0  0  0  0  0  0  0  0  0  0  0
   39.0010   26.7910   43.6510 N   0  0  0  0  0  0  0  0  0  0  0  0
   37.8310   26.6110   42.9870 C   0  0  0  0  0  0  0  0  0  0  0  0
   37.5670   25.4660   42.3300 N   0  0  0  0  0  0  0  0  0  0  0  0
   38.2160   23.2790   41.6510 N   0  0  0  0  0  0  0  0  0  0  0  0
   36.1871   32.2994   39.4952 H   0  0  0  0  0  0  0  0  0  0  0  0
   37.0668   34.5365   38.9699 H   0  0  0  0  0  0  0  0  0  0  0  0
   40.2870   33.7687   41.5097 H   0  0  0  0  0  0  0  0  0  0  0  0
   40.4454   23.7837   42.9916 H   0  0  0  0  0  0  0  0  0  0  0  0
   40.9099   25.9769   44.2296 H   0  0  0  0  0  0  0  0  0  0  0  0
   38.9167   22.5241   41.6538 H   0  0  0  0  0  0  0  0  0  0  0  0
   37.3250   23.1528   41.1499 H   0  0  0  0  0  0  0  0  0  0  0  0
  1  5  1  0
  1 14  1  0
  2  1  2  0
  3  2  1  0
  3  4  1  0
  4  5  2  0
  6  4  1  0
  6 12  1  0
  7  6  1  0
  8  7  2  0
  8  9  1  0
  9 11  1  0
 10  9  2  0
 11 12  1  0
 12 13  2  0
 15 20  2  0
 15 16  1  0
 16 17  2  0
 18 17  1  0
 19 14  1  0
 19 18  2  0
 20 19  1  0
 21 15  1  0
  7 22  1  0
  8 23  1  0
 11 24  1  0
 16 25  1  0
 17 26  1  0
 21 27  1  0
 21 28  1  0
M  ISO  5  22  14  23  14  24   9  25  14  26  14
M  END
>  <minimizedAffinity>  (1) 
-6.47458887

>  <minimizedRMSD>  (1) 
1.91953123

$$$$
