
     RDKit          3D

 34 37  0  0  0  0  0  0  0  0999 V2000
   37.7610   29.3280   42.5540 C   0  0  0  0  0  0  0  0  0  0  0  0
   36.9380   29.9340   41.6920 N   0  0  0  0  0  0  0  0  0  0  0  0
   37.5820   30.8410   41.0350 O   0  0  0  0  0  0  0  0  0  0  0  0
   38.8210   30.8990   41.3950 C   0  0  0  0  0  0  0  0  0  0  0  0
   38.9360   29.9510   42.3490 N   0  0  0  0  0  0  0  0  0  0  0  0
   40.0290   31.6820   41.0480 C   0  0  0  0  0  0  0  0  0  0  0  0
   41.3190   31.1380   41.0480 C   0  0  0  0  0  0  0  0  0  0  0  0
   42.4070   31.8980   40.7200 C   0  0  0  0  0  0  0  0  0  0  0  0
   42.2950   33.2250   40.3740 C   0  0  0  0  0  0  0  0  0  0  0  0
   41.0390   33.7910   40.3640 C   0  0  0  0  0  0  0  0  0  0  0  0
   40.9440   35.1120   40.0180 C   0  0  0  0  0  0  0  0  0  0  0  0
   39.7370   35.7440   39.9850 C   0  0  0  0  0  0  0  0  0  0  0  0
   38.6160   35.0100   40.3100 C   0  0  0  0  0  0  0  0  0  0  0  0
   38.7610   33.6840   40.6510 C   0  0  0  0  0  0  0  0  0  0  0  0
   39.9580   33.0050   40.6990 C   0  0  0  0  0  0  0  0  0  0  0  0
   37.7530   28.3340   43.5110 O   0  0  0  0  0  0  0  0  0  0  0  0
   38.4130   24.9140   42.5310 C   0  0  0  0  0  0  0  0  0  0  0  0
   39.7020   24.7110   43.0750 C   0  0  0  0  0  0  0  0  0  0  0  0
   40.3110   25.7980   43.7800 C   0  0  0  0  0  0  0  0  0  0  0  0
   39.6110   26.9680   43.8880 N   0  0  0  0  0  0  0  0  0  0  0  0
   38.3680   27.1060   43.3410 C   0  0  0  0  0  0  0  0  0  0  0  0
   37.7870   26.0940   42.6770 N   0  0  0  0  0  0  0  0  0  0  0  0
   37.8050   23.8600   41.8380 N   0  0  0  0  0  0  0  0  0  0  0  0
   41.4596   30.0806   41.3166 H   0  0  0  0  0  0  0  0  0  0  0  0
   43.4041   31.4337   40.7331 H   0  0  0  0  0  0  0  0  0  0  0  0
   43.1840   33.8177   40.1125 H   0  0  0  0  0  0  0  0  0  0  0  0
   41.8557   35.6720   39.7627 H   0  0  0  0  0  0  0  0  0  0  0  0
   39.6596   36.8057   39.7079 H   0  0  0  0  0  0  0  0  0  0  0  0
   37.6202   35.4771   40.2970 H   0  0  0  0  0  0  0  0  0  0  0  0
   37.8494   33.1232   40.9049 H   0  0  0  0  0  0  0  0  0  0  0  0
   40.2208   23.7479   42.9602 H   0  0  0  0  0  0  0  0  0  0  0  0
   41.3130   25.6952   44.2221 H   0  0  0  0  0  0  0  0  0  0  0  0
   38.2965   22.9608   41.7337 H   0  0  0  0  0  0  0  0  0  0  0  0
   36.8663   23.9839   41.4325 H   0  0  0  0  0  0  0  0  0  0  0  0
  1 16  1  0
  2  1  2  0
  3  4  1  0
  3  2  1  0
  4  5  2  0
  5  1  1  0
  6  7  2  0
  6  4  1  0
  8  7  1  0
  9  8  2  0
 10  9  1  0
 10 15  2  0
 11 10  1  0
 12 11  2  0
 12 13  1  0
 13 14  2  0
 14 15  1  0
 15  6  1  0
 17 22  2  0
 17 18  1  0
 18 19  2  0
 19 20  1  0
 21 16  1  0
 21 20  2  0
 22 21  1  0
 23 17  1  0
  7 24  1  0
  8 25  1  0
  9 26  1  0
 11 27  1  0
 12 28  1  0
 13 29  1  0
 14 30  1  0
 18 31  1  0
 19 32  1  0
 23 33  1  0
 23 34  1  0
M  ISO  8  24  14  25  14  26  14  27  14  28  14  29  14  30  14  31  14
M  ISO  1  32  14
M  END
>  <minimizedAffinity>  (1) 
-6.23003578

>  <minimizedRMSD>  (1) 
0.560573936

$$$$
