
     RDKit          3D

 32 34  0  0  0  0  0  0  0  0999 V2000
   37.1770   27.8860   43.2000 O   0  0  0  0  0  0  0  0  0  0  0  0
   36.8370   28.6550   42.1060 C   0  0  0  0  0  0  0  0  0  0  0  0
   35.9030   28.7400   41.1440 N   0  0  0  0  0  0  0  0  0  0  0  0
   36.1690   29.7590   40.3650 O   0  0  0  0  0  0  0  0  0  0  0  0
   37.2550   30.3700   40.7670 C   0  0  0  0  0  0  0  0  0  0  0  0
   37.6950   29.7000   41.8560 N   0  0  0  0  0  0  0  0  0  0  0  0
   37.8810   31.5280   40.1850 N   0  0  0  0  0  0  0  0  0  0  0  0
   39.3420   31.6830   40.3010 C   0  0  0  0  0  0  0  0  0  0  0  0
   39.5120   33.1330   40.7030 C   0  0  0  0  0  0  0  0  0  0  0  0
   38.9340   34.0340   39.7370 N   0  0  0  0  0  0  0  0  0  0  0  0
   37.5060   33.9040   39.6180 C   0  0  0  0  0  0  0  0  0  0  0  0
   37.0360   32.4940   39.5070 C   0  0  0  0  0  0  0  0  0  0  0  0
   38.5090   24.6140   42.4140 C   0  0  0  0  0  0  0  0  0  0  0  0
   39.7490   24.6590   43.0720 C   0  0  0  0  0  0  0  0  0  0  0  0
   40.0850   25.8410   43.7770 C   0  0  0  0  0  0  0  0  0  0  0  0
   39.1830   26.8740   43.7780 N   0  0  0  0  0  0  0  0  0  0  0  0
   37.9910   26.7720   43.1190 C   0  0  0  0  0  0  0  0  0  0  0  0
   37.6610   25.6550   42.4460 N   0  0  0  0  0  0  0  0  0  0  0  0
   38.1600   23.4440   41.7070 N   0  0  0  0  0  0  0  0  0  0  0  0
   39.7489   31.0111   41.0710 H   0  0  0  0  0  0  0  0  0  0  0  0
   39.8750   31.4301   39.3726 H   0  0  0  0  0  0  0  0  0  0  0  0
   39.0212   33.2918   41.6745 H   0  0  0  0  0  0  0  0  0  0  0  0
   40.5899   33.3446   40.7617 H   0  0  0  0  0  0  0  0  0  0  0  0
   39.1515   35.0001   40.0204 H   0  0  0  0  0  0  0  0  0  0  0  0
   37.0417   34.3550   40.5074 H   0  0  0  0  0  0  0  0  0  0  0  0
   37.2152   34.4122   38.6867 H   0  0  0  0  0  0  0  0  0  0  0  0
   36.0265   32.4322   39.9395 H   0  0  0  0  0  0  0  0  0  0  0  0
   37.0592   32.2373   38.4376 H   0  0  0  0  0  0  0  0  0  0  0  0
   40.4384   23.8024   43.0409 H   0  0  0  0  0  0  0  0  0  0  0  0
   41.0437   25.9279   44.3093 H   0  0  0  0  0  0  0  0  0  0  0  0
   38.8092   22.6448   41.6815 H   0  0  0  0  0  0  0  0  0  0  0  0
   37.2560   23.3891   41.2164 H   0  0  0  0  0  0  0  0  0  0  0  0
  2  1  1  0
  3  2  2  0
  4  5  1  0
  4  3  1  0
  5  6  2  0
  6  2  1  0
  7  8  1  0
  7  5  1  0
  8  9  1  0
 10  9  1  0
 11 10  1  0
 12 11  1  0
 12  7  1  0
 13 18  2  0
 13 14  1  0
 14 15  2  0
 15 16  1  0
 17  1  1  0
 17 16  2  0
 18 17  1  0
 19 13  1  0
  8 20  1  0
  8 21  1  0
  9 22  1  0
  9 23  1  0
 10 24  1  0
 11 25  1  0
 11 26  1  0
 12 27  1  0
 12 28  1  0
 14 29  1  0
 15 30  1  0
 19 31  1  0
 19 32  1  0
M  ISO  8  20  13  21  13  22  13  23  13  24   5  25  13  26  13  27  13
M  ISO  3  28  13  29  14  30  14
M  END
>  <minimizedAffinity>  (1) 
-5.54869938

>  <minimizedRMSD>  (1) 
1.9005394

$$$$
