
     RDKit          3D

 26 28  0  0  0  0  0  0  0  0999 V2000
   36.8720   27.6580   43.1140 O   0  0  0  0  0  0  0  0  0  0  0  0
   38.4530   24.4870   42.3260 C   0  0  0  0  0  0  0  0  0  0  0  0
   39.7030   24.6400   42.9780 C   0  0  0  0  0  0  0  0  0  0  0  0
   39.9460   25.8500   43.6720 C   0  0  0  0  0  0  0  0  0  0  0  0
   38.9650   26.8070   43.6760 N   0  0  0  0  0  0  0  0  0  0  0  0
   37.7870   26.6070   43.0340 C   0  0  0  0  0  0  0  0  0  0  0  0
   37.5360   25.4550   42.3650 N   0  0  0  0  0  0  0  0  0  0  0  0
   38.2130   23.2930   41.6420 N   0  0  0  0  0  0  0  0  0  0  0  0
   36.6270   28.5180   42.0640 C   0  0  0  0  0  0  0  0  0  0  0  0
   35.8590   28.6180   40.9590 N   0  0  0  0  0  0  0  0  0  0  0  0
   36.1010   29.7330   40.3420 O   0  0  0  0  0  0  0  0  0  0  0  0
   37.0200   30.4100   40.9940 C   0  0  0  0  0  0  0  0  0  0  0  0
   37.3600   29.6620   42.0750 N   0  0  0  0  0  0  0  0  0  0  0  0
   37.5890   31.7250   40.6440 C   0  0  0  0  0  0  0  0  0  0  0  0
   36.9290   32.6450   39.8550 C   0  0  0  0  0  0  0  0  0  0  0  0
   37.5410   33.8710   39.5720 C   0  0  0  0  0  0  0  0  0  0  0  0
   38.7780   34.0860   40.1020 N   0  0  0  0  0  0  0  0  0  0  0  0
   39.4140   33.2040   40.8590 C   0  0  0  0  0  0  0  0  0  0  0  0
   38.8070   32.0240   41.1240 N   0  0  0  0  0  0  0  0  0  0  0  0
   40.4606   23.8431   42.9456 H   0  0  0  0  0  0  0  0  0  0  0  0
   40.8989   26.0178   44.1952 H   0  0  0  0  0  0  0  0  0  0  0  0
   38.9331   22.5568   41.6228 H   0  0  0  0  0  0  0  0  0  0  0  0
   37.3160   23.1488   41.1568 H   0  0  0  0  0  0  0  0  0  0  0  0
   35.9311   32.4166   39.4524 H   0  0  0  0  0  0  0  0  0  0  0  0
   37.0448   34.6291   38.9482 H   0  0  0  0  0  0  0  0  0  0  0  0
   40.4128   33.4259   41.2629 H   0  0  0  0  0  0  0  0  0  0  0  0
  2  7  2  0
  2  3  1  0
  3  4  2  0
  4  5  1  0
  6  1  1  0
  6  5  2  0
  7  6  1  0
  8  2  1  0
  9 13  1  0
  9  1  1  0
 10  9  2  0
 11 10  1  0
 11 12  1  0
 12 13  2  0
 14 12  1  0
 14 19  1  0
 15 14  2  0
 16 15  1  0
 16 17  2  0
 17 18  1  0
 18 19  2  0
  3 20  1  0
  4 21  1  0
  8 22  1  0
  8 23  1  0
 15 24  1  0
 16 25  1  0
 18 26  1  0
M  ISO  5  20  14  21  14  24  14  25  14  26  14
M  END
>  <minimizedAffinity>  (1) 
-5.31479025

>  <minimizedRMSD>  (1) 
2.00318098

$$$$
