
     RDKit          3D

 41 45  0  0  1  0  0  0  0  0999 V2000
   37.6080   28.1770   42.0130 C   0  0  1  0  0  0  0  0  0  0  0  0
   36.3670   27.9270   42.8790 C   0  0  0  0  0  0  0  0  0  0  0  0
   36.9950   27.7610   44.2550 C   0  0  0  0  0  0  0  0  0  0  0  0
   38.3980   27.3090   44.0190 C   0  0  0  0  0  0  0  0  0  0  0  0
   38.5400   27.1180   42.5170 C   0  0  2  0  0  0  0  0  0  0  0  0
   37.2350   32.4180   38.6420 C   0  0  0  0  0  0  0  0  0  0  0  0
   37.8370   33.1080   39.7080 C   0  0  0  0  0  0  0  0  0  0  0  0
   38.2620   32.3450   40.7880 C   0  0  0  0  0  0  0  0  0  0  0  0
   38.0720   31.0000   40.7450 N   0  0  0  0  0  0  0  0  0  0  0  0
   37.5020   30.3660   39.7320 C   0  0  0  0  0  0  0  0  0  0  0  0
   37.0780   31.0890   38.6640 N   0  0  0  0  0  0  0  0  0  0  0  0
   37.2770   28.9630   39.6490 N   0  0  0  0  0  0  0  0  0  0  0  0
   36.9830   28.4880   38.4550 N   0  0  0  0  0  0  0  0  0  0  0  0
   36.7890   27.1350   38.5750 C   0  0  0  0  0  0  0  0  0  0  0  0
   36.9880   26.8410   39.9290 C   0  0  0  0  0  0  0  0  0  0  0  0
   37.2990   28.0230   40.5940 C   0  0  0  0  0  0  0  0  0  0  0  0
   39.9230   27.5130   42.2130 N   0  0  0  0  0  0  0  0  0  0  0  0
   40.4970   28.6330   42.7050 C   0  0  0  0  0  0  0  0  0  0  0  0
   41.7750   28.7650   42.2740 N   0  0  0  0  0  0  0  0  0  0  0  0
   42.0190   27.7070   41.4930 C   0  0  0  0  0  0  0  0  0  0  0  0
   43.1100   27.2760   40.7750 C   0  0  0  0  0  0  0  0  0  0  0  0
   43.0160   26.1340   40.0770 N   0  0  0  0  0  0  0  0  0  0  0  0
   41.8800   25.3950   40.0580 C   0  0  0  0  0  0  0  0  0  0  0  0
   40.7670   25.7630   40.7450 N   0  0  0  0  0  0  0  0  0  0  0  0
   40.8660   26.9230   41.4530 C   0  0  0  0  0  0  0  0  0  0  0  0
   38.0231   29.1930   42.0865 H   0  0  0  0  0  0  0  0  0  0  0  0
   35.6771   28.7833   42.8515 H   0  0  0  0  0  0  0  0  0  0  0  0
   35.7558   27.0715   42.5556 H   0  0  0  0  0  0  0  0  0  0  0  0
   36.9886   28.7190   44.7955 H   0  0  0  0  0  0  0  0  0  0  0  0
   36.4371   27.0362   44.8661 H   0  0  0  0  0  0  0  0  0  0  0  0
   39.1080   28.0703   44.3746 H   0  0  0  0  0  0  0  0  0  0  0  0
   38.6136   26.3769   44.5619 H   0  0  0  0  0  0  0  0  0  0  0  0
   38.3350   26.1158   42.1125 H   0  0  0  0  0  0  0  0  0  0  0  0
   36.8838   32.9847   37.7671 H   0  0  0  0  0  0  0  0  0  0  0  0
   37.9655   34.2003   39.6880 H   0  0  0  0  0  0  0  0  0  0  0  0
   38.7411   32.8183   41.6577 H   0  0  0  0  0  0  0  0  0  0  0  0
   36.5306   26.4277   37.7731 H   0  0  0  0  0  0  0  0  0  0  0  0
   36.9115   25.8448   40.3891 H   0  0  0  0  0  0  0  0  0  0  0  0
   39.9909   29.3473   43.3711 H   0  0  0  0  0  0  0  0  0  0  0  0
   44.0437   27.8576   40.7730 H   0  0  0  0  0  0  0  0  0  0  0  0
   41.8584   24.4673   39.4673 H   0  0  0  0  0  0  0  0  0  0  0  0
  1  5  1  0
  1  2  1  0
  2  3  1  0
  4  3  1  0
  5  4  1  0
  6 11  2  0
  6  7  1  0
  7  8  2  0
  9  8  1  0
 10  9  2  0
 11 10  1  0
 12 10  1  0
 12 16  1  0
 13 14  2  0
 13 12  1  0
 14 15  1  0
 15 16  2  0
 16  1  1  0
 17  5  1  0
 17 18  1  0
 19 18  2  0
 20 19  1  0
 21 20  2  0
 22 21  1  0
 23 22  2  0
 23 24  1  0
 24 25  2  0
 25 20  1  0
 25 17  1  0
  1 26  1  6
  2 27  1  0
  2 28  1  0
  3 29  1  0
  3 30  1  0
  4 31  1  0
  4 32  1  0
  5 33  1  1
  6 34  1  0
  7 35  1  0
  8 36  1  0
 14 37  1  0
 15 38  1  0
 18 39  1  0
 21 40  1  0
 23 41  1  0
M  ISO  8  26  13  27  13  28  13  29  13  30  13  31  13  32  13  33  13
M  ISO  8  34  14  35  14  36  14  37  14  38  14  39  14  40  14  41  14
M  END
>  <minimizedAffinity>  (1) 
-5.33458757

>  <minimizedRMSD>  (1) 
5.5967021

$$$$
