
     RDKit          3D

 24 26  0  0  0  0  0  0  0  0999 V2000
   37.6050   28.1180   43.4590 O   0  0  0  0  0  0  0  0  0  0  0  0
   38.5120   24.7570   42.4800 C   0  0  0  0  0  0  0  0  0  0  0  0
   39.8100   24.6510   43.0490 C   0  0  0  0  0  0  0  0  0  0  0  0
   40.3220   25.7800   43.7640 C   0  0  0  0  0  0  0  0  0  0  0  0
   39.5280   26.8850   43.8510 N   0  0  0  0  0  0  0  0  0  0  0  0
   38.2980   26.9240   43.2860 C   0  0  0  0  0  0  0  0  0  0  0  0
   37.7870   25.8740   42.6050 N   0  0  0  0  0  0  0  0  0  0  0  0
   38.0170   23.6430   41.7820 N   0  0  0  0  0  0  0  0  0  0  0  0
   37.4160   29.0420   42.4520 C   0  0  0  0  0  0  0  0  0  0  0  0
   36.5660   29.3690   41.4690 N   0  0  0  0  0  0  0  0  0  0  0  0
   37.0170   30.4260   40.8500 O   0  0  0  0  0  0  0  0  0  0  0  0
   38.1340   30.8360   41.3630 C   0  0  0  0  0  0  0  0  0  0  0  0
   38.3970   29.9700   42.3750 N   0  0  0  0  0  0  0  0  0  0  0  0
   38.9510   31.9950   40.9420 C   0  0  0  0  0  0  0  0  0  0  0  0
   38.2930   33.1500   40.4240 C   0  0  0  0  0  0  0  0  0  0  0  0
   39.7310   34.2350   40.0750 S   0  0  0  0  0  0  0  0  0  0  0  0
   40.9380   32.9960   40.6650 C   0  0  0  0  0  0  0  0  0  0  0  0
   40.2670   32.0160   41.0220 N   0  0  0  0  0  0  0  0  0  0  0  0
   40.4024   23.7302   42.9432 H   0  0  0  0  0  0  0  0  0  0  0  0
   41.3198   25.7572   44.2265 H   0  0  0  0  0  0  0  0  0  0  0  0
   38.5909   22.7919   41.6969 H   0  0  0  0  0  0  0  0  0  0  0  0
   37.0802   23.6772   41.3553 H   0  0  0  0  0  0  0  0  0  0  0  0
   37.2195   33.3382   40.2749 H   0  0  0  0  0  0  0  0  0  0  0  0
   42.0328   33.0983   40.6969 H   0  0  0  0  0  0  0  0  0  0  0  0
  2  7  2  0
  2  3  1  0
  3  4  2  0
  4  5  1  0
  6  1  1  0
  6  5  2  0
  7  6  1  0
  8  2  1  0
  9  1  1  0
 10  9  2  0
 11 12  1  0
 11 10  1  0
 12 13  2  0
 13  9  1  0
 14 18  1  0
 14 12  1  0
 15 14  2  0
 16 15  1  0
 16 17  1  0
 17 18  2  0
  3 19  1  0
  4 20  1  0
  8 21  1  0
  8 22  1  0
 15 23  1  0
 17 24  1  0
M  ISO  4  19  14  20  14  23  14  24  14
M  END
>  <minimizedAffinity>  (1) 
-4.89201498

>  <minimizedRMSD>  (1) 
0.88365972

$$$$
