
     RDKit          3D

 19 20  0  0  0  0  0  0  0  0999 V2000
   38.2420   24.9550   42.3630 C   0  0  0  0  0  0  0  0  0  0  0  0
   39.4940   24.6370   42.9340 C   0  0  0  0  0  0  0  0  0  0  0  0
   40.1180   25.6420   43.7270 C   0  0  0  0  0  0  0  0  0  0  0  0
   39.4790   26.8420   43.8890 N   0  0  0  0  0  0  0  0  0  0  0  0
   38.2780   27.0840   43.3130 C   0  0  0  0  0  0  0  0  0  0  0  0
   37.6620   26.1470   42.5540 N   0  0  0  0  0  0  0  0  0  0  0  0
   37.6040   23.9810   41.5760 N   0  0  0  0  0  0  0  0  0  0  0  0
   37.7360   28.3350   43.5520 O   0  0  0  0  0  0  0  0  0  0  0  0
   37.7170   29.3410   42.6010 C   0  0  0  0  0  0  0  0  0  0  0  0
   36.8780   29.9080   41.7210 N   0  0  0  0  0  0  0  0  0  0  0  0
   37.4750   30.8670   41.0730 O   0  0  0  0  0  0  0  0  0  0  0  0
   38.7160   30.9700   41.4940 C   0  0  0  0  0  0  0  0  0  0  0  0
   38.8770   30.0260   42.4450 N   0  0  0  0  0  0  0  0  0  0  0  0
   40.0050   32.1170   40.9570 S   0  0  0  0  0  0  0  0  0  0  0  0
   39.9662   23.6566   42.7734 H   0  0  0  0  0  0  0  0  0  0  0  0
   41.0939   25.4578   44.1999 H   0  0  0  0  0  0  0  0  0  0  0  0
   38.0501   23.0643   41.4292 H   0  0  0  0  0  0  0  0  0  0  0  0
   36.6903   24.1838   41.1460 H   0  0  0  0  0  0  0  0  0  0  0  0
   40.6175   32.6620   42.0546 H   0  0  0  0  0  0  0  0  0  0  0  0
  1  6  2  0
  1  2  1  0
  2  3  2  0
  3  4  1  0
  5  8  1  0
  5  4  2  0
  6  5  1  0
  7  1  1  0
  9  8  1  0
 10  9  2  0
 11 12  1  0
 11 10  1  0
 12 13  2  0
 13  9  1  0
 14 12  1  0
  2 15  1  0
  3 16  1  0
  7 17  1  0
  7 18  1  0
 14 19  1  0
M  ISO  3  15  14  16  14  19  11
M  END
>  <minimizedAffinity>  (1) 
-4.02939415

>  <minimizedRMSD>  (1) 
0.145899579

$$$$
