
     RDKit          3D

 38 41  0  0  0  0  0  0  0  0999 V2000
   38.1880   24.3300   41.9910 C   0  0  0  0  0  0  0  0  0  0  0  0
   39.5320   24.4830   42.4240 C   0  0  0  0  0  0  0  0  0  0  0  0
   39.8930   25.7080   43.0350 C   0  0  0  0  0  0  0  0  0  0  0  0
   38.9250   26.6660   43.1700 N   0  0  0  0  0  0  0  0  0  0  0  0
   37.6620   26.4650   42.7400 C   0  0  0  0  0  0  0  0  0  0  0  0
   37.2740   25.3120   42.1510 N   0  0  0  0  0  0  0  0  0  0  0  0
   37.8350   23.1260   41.3900 N   0  0  0  0  0  0  0  0  0  0  0  0
   41.2470   25.9480   43.5060 C   0  0  0  0  0  0  0  0  0  0  0  0
   42.3580   25.2920   43.0400 C   0  0  0  0  0  0  0  0  0  0  0  0
   43.6270   25.5720   43.5370 C   0  0  0  0  0  0  0  0  0  0  0  0
   43.7380   26.5340   44.5190 C   0  0  0  0  0  0  0  0  0  0  0  0
   42.6550   27.2210   45.0210 C   0  0  0  0  0  0  0  0  0  0  0  0
   41.4400   26.8960   44.4880 C   0  0  0  0  0  0  0  0  0  0  0  0
   36.8010   27.5390   42.9530 O   0  0  0  0  0  0  0  0  0  0  0  0
   36.5030   28.4720   41.9740 C   0  0  0  0  0  0  0  0  0  0  0  0
   35.6300   28.6750   40.9640 N   0  0  0  0  0  0  0  0  0  0  0  0
   35.9010   29.8200   40.3910 O   0  0  0  0  0  0  0  0  0  0  0  0
   36.9220   30.3840   40.9860 C   0  0  0  0  0  0  0  0  0  0  0  0
   37.3200   29.5670   41.9790 N   0  0  0  0  0  0  0  0  0  0  0  0
   37.5450   31.6810   40.6500 C   0  0  0  0  0  0  0  0  0  0  0  0
   36.9160   32.6360   39.8720 C   0  0  0  0  0  0  0  0  0  0  0  0
   37.5630   33.8410   39.5930 C   0  0  0  0  0  0  0  0  0  0  0  0
   38.8470   34.0900   40.0960 C   0  0  0  0  0  0  0  0  0  0  0  0
   39.4510   33.1250   40.8680 C   0  0  0  0  0  0  0  0  0  0  0  0
   38.8170   31.9480   41.1400 C   0  0  0  0  0  0  0  0  0  0  0  0
   40.2679   23.6766   42.2891 H   0  0  0  0  0  0  0  0  0  0  0  0
   38.5389   22.3833   41.2724 H   0  0  0  0  0  0  0  0  0  0  0  0
   36.8698   22.9773   41.0626 H   0  0  0  0  0  0  0  0  0  0  0  0
   42.2431   24.5283   42.2567 H   0  0  0  0  0  0  0  0  0  0  0  0
   44.5139   25.0427   43.1586 H   0  0  0  0  0  0  0  0  0  0  0  0
   44.7366   26.7629   44.9194 H   0  0  0  0  0  0  0  0  0  0  0  0
   42.7620   27.9858   45.8044 H   0  0  0  0  0  0  0  0  0  0  0  0
   40.5550   27.4271   44.8684 H   0  0  0  0  0  0  0  0  0  0  0  0
   35.9082   32.4464   39.4740 H   0  0  0  0  0  0  0  0  0  0  0  0
   37.0617   34.6000   38.9743 H   0  0  0  0  0  0  0  0  0  0  0  0
   39.3613   35.0376   39.8780 H   0  0  0  0  0  0  0  0  0  0  0  0
   40.4585   33.3046   41.2714 H   0  0  0  0  0  0  0  0  0  0  0  0
   39.3239   31.1944   41.7606 H   0  0  0  0  0  0  0  0  0  0  0  0
  1  6  2  0
  1  2  1  0
  2  3  2  0
  3  4  1  0
  3  8  1  0
  5 14  1  0
  5  4  2  0
  6  5  1  0
  7  1  1  0
  8 13  1  0
  9  8  2  0
  9 10  1  0
 10 11  2  0
 11 12  1  0
 13 12  2  0
 15 19  1  0
 15 14  1  0
 16 15  2  0
 17 16  1  0
 17 18  1  0
 18 19  2  0
 20 18  1  0
 20 25  1  0
 21 20  2  0
 22 21  1  0
 22 23  2  0
 23 24  1  0
 24 25  2  0
  2 26  1  0
  7 27  1  0
  7 28  1  0
  9 29  1  0
 10 30  1  0
 11 31  1  0
 12 32  1  0
 13 33  1  0
 21 34  1  0
 22 35  1  0
 23 36  1  0
 24 37  1  0
 25 38  1  0
M  ISO  8  26  14  29  14  30  14  31  14  32  14  33  14  34  14  35  14
M  ISO  3  36  14  37  14  38  14
M  END
>  <minimizedAffinity>  (1) 
-6.6359992

>  <minimizedRMSD>  (1) 
0.744049609

$$$$
