
     RDKit          3D

 35 38  0  0  0  0  0  0  0  0999 V2000
   37.1140   27.6940   43.1690 O   0  0  0  0  0  0  0  0  0  0  0  0
   38.4660   24.4590   42.2400 C   0  0  0  0  0  0  0  0  0  0  0  0
   39.7910   24.5880   42.6990 C   0  0  0  0  0  0  0  0  0  0  0  0
   40.1730   25.8130   43.3240 C   0  0  0  0  0  0  0  0  0  0  0  0
   39.2420   26.7950   43.4460 N   0  0  0  0  0  0  0  0  0  0  0  0
   37.9680   26.6180   42.9840 C   0  0  0  0  0  0  0  0  0  0  0  0
   37.5830   25.4620   42.3860 N   0  0  0  0  0  0  0  0  0  0  0  0
   38.1040   23.2670   41.6360 N   0  0  0  0  0  0  0  0  0  0  0  0
   41.5310   26.0030   43.8180 C   0  0  0  0  0  0  0  0  0  0  0  0
   41.8930   26.9740   44.7280 C   0  0  0  0  0  0  0  0  0  0  0  0
   43.2670   26.7500   44.8770 C   0  0  0  0  0  0  0  0  0  0  0  0
   43.6790   25.7100   44.0980 N   0  0  0  0  0  0  0  0  0  0  0  0
   42.5910   25.2620   43.4510 N   0  0  0  0  0  0  0  0  0  0  0  0
   36.7680   28.5720   42.1610 C   0  0  0  0  0  0  0  0  0  0  0  0
   35.8780   28.6890   41.1540 N   0  0  0  0  0  0  0  0  0  0  0  0
   36.0800   29.8090   40.5330 O   0  0  0  0  0  0  0  0  0  0  0  0
   37.0700   30.4570   41.0800 C   0  0  0  0  0  0  0  0  0  0  0  0
   37.5210   29.7020   42.1070 N   0  0  0  0  0  0  0  0  0  0  0  0
   37.6340   31.7710   40.6930 C   0  0  0  0  0  0  0  0  0  0  0  0
   36.9370   32.6580   39.8970 C   0  0  0  0  0  0  0  0  0  0  0  0
   37.5130   33.8810   39.5610 C   0  0  0  0  0  0  0  0  0  0  0  0
   38.7900   34.2220   40.0220 C   0  0  0  0  0  0  0  0  0  0  0  0
   39.4500   33.3120   40.8120 C   0  0  0  0  0  0  0  0  0  0  0  0
   38.8920   32.1110   41.1440 C   0  0  0  0  0  0  0  0  0  0  0  0
   40.5125   23.7664   42.5790 H   0  0  0  0  0  0  0  0  0  0  0  0
   38.7956   22.5106   41.5337 H   0  0  0  0  0  0  0  0  0  0  0  0
   37.1431   23.1366   41.2889 H   0  0  0  0  0  0  0  0  0  0  0  0
   41.2618   27.7326   45.2139 H   0  0  0  0  0  0  0  0  0  0  0  0
   43.9262   27.3352   45.5350 H   0  0  0  0  0  0  0  0  0  0  0  0
   44.6372   25.3402   44.0208 H   0  0  0  0  0  0  0  0  0  0  0  0
   35.9325   32.4004   39.5302 H   0  0  0  0  0  0  0  0  0  0  0  0
   36.9579   34.5871   38.9260 H   0  0  0  0  0  0  0  0  0  0  0  0
   39.2498   35.1865   39.7605 H   0  0  0  0  0  0  0  0  0  0  0  0
   40.4546   33.5576   41.1869 H   0  0  0  0  0  0  0  0  0  0  0  0
   39.4517   31.4074   41.7778 H   0  0  0  0  0  0  0  0  0  0  0  0
  2  7  2  0
  2  3  1  0
  3  4  2  0
  4  5  1  0
  4  9  1  0
  6  1  1  0
  6  5  2  0
  7  6  1  0
  8  2  1  0
  9 10  1  0
 10 11  2  0
 12 11  1  0
 13  9  2  0
 13 12  1  0
 14  1  1  0
 15 14  2  0
 16 17  1  0
 16 15  1  0
 17 18  2  0
 18 14  1  0
 19 17  1  0
 19 24  1  0
 20 19  2  0
 21 20  1  0
 21 22  2  0
 22 23  1  0
 23 24  2  0
  3 25  1  0
  8 26  1  0
  8 27  1  0
 10 28  1  0
 11 29  1  0
 12 30  1  0
 20 31  1  0
 21 32  1  0
 22 33  1  0
 23 34  1  0
 24 35  1  0
M  ISO  8  25  14  28  14  29  14  30   9  31  14  32  14  33  14  34  14
M  ISO  1  35  14
M  END
>  <minimizedAffinity>  (1) 
-6.49133587

>  <minimizedRMSD>  (1) 
0.521591425

$$$$
