
     RDKit          3D

 37 40  0  0  0  0  0  0  0  0999 V2000
   36.7190   27.5000   42.9300 O   0  0  0  0  0  0  0  0  0  0  0  0
   38.2320   24.3330   42.0270 C   0  0  0  0  0  0  0  0  0  0  0  0
   39.5610   24.5200   42.4800 C   0  0  0  0  0  0  0  0  0  0  0  0
   39.8660   25.7640   43.0880 C   0  0  0  0  0  0  0  0  0  0  0  0
   38.8950   26.7050   43.2090 N   0  0  0  0  0  0  0  0  0  0  0  0
   37.6260   26.4710   42.7530 C   0  0  0  0  0  0  0  0  0  0  0  0
   37.3080   25.2940   42.1700 N   0  0  0  0  0  0  0  0  0  0  0  0
   37.8930   23.1250   41.4260 N   0  0  0  0  0  0  0  0  0  0  0  0
   41.2260   25.9920   43.5670 C   0  0  0  0  0  0  0  0  0  0  0  0
   42.2490   25.2890   42.9780 C   0  0  0  0  0  0  0  0  0  0  0  0
   43.5030   25.5580   43.4840 C   0  0  0  0  0  0  0  0  0  0  0  0
   43.7010   26.4810   44.5180 C   0  0  0  0  0  0  0  0  0  0  0  0
   42.6210   27.1600   45.0700 C   0  0  0  0  0  0  0  0  0  0  0  0
   41.4160   26.8710   44.5510 N   0  0  0  0  0  0  0  0  0  0  0  0
   36.4490   28.4460   41.9530 C   0  0  0  0  0  0  0  0  0  0  0  0
   35.5890   28.6640   40.9390 N   0  0  0  0  0  0  0  0  0  0  0  0
   35.8750   29.8030   40.3680 O   0  0  0  0  0  0  0  0  0  0  0  0
   36.9030   30.3580   40.9700 C   0  0  0  0  0  0  0  0  0  0  0  0
   37.2790   29.5260   41.9650 N   0  0  0  0  0  0  0  0  0  0  0  0
   37.5410   31.6420   40.6410 C   0  0  0  0  0  0  0  0  0  0  0  0
   36.9290   32.6190   39.8940 C   0  0  0  0  0  0  0  0  0  0  0  0
   37.5910   33.8180   39.6160 C   0  0  0  0  0  0  0  0  0  0  0  0
   38.8750   34.0310   40.0940 C   0  0  0  0  0  0  0  0  0  0  0  0
   39.4750   33.0490   40.8370 C   0  0  0  0  0  0  0  0  0  0  0  0
   38.8180   31.8730   41.1060 C   0  0  0  0  0  0  0  0  0  0  0  0
   40.3228   23.7348   42.3652 H   0  0  0  0  0  0  0  0  0  0  0  0
   38.6032   22.3871   41.3164 H   0  0  0  0  0  0  0  0  0  0  0  0
   36.9318   22.9685   41.0906 H   0  0  0  0  0  0  0  0  0  0  0  0
   42.0805   24.5671   42.1653 H   0  0  0  0  0  0  0  0  0  0  0  0
   44.3729   25.0324   43.0633 H   0  0  0  0  0  0  0  0  0  0  0  0
   44.7168   26.6699   44.8956 H   0  0  0  0  0  0  0  0  0  0  0  0
   42.7455   27.8903   45.8831 H   0  0  0  0  0  0  0  0  0  0  0  0
   35.9104   32.4564   39.5118 H   0  0  0  0  0  0  0  0  0  0  0  0
   37.0925   34.5942   39.0168 H   0  0  0  0  0  0  0  0  0  0  0  0
   39.4027   34.9722   39.8803 H   0  0  0  0  0  0  0  0  0  0  0  0
   40.4936   33.2038   41.2223 H   0  0  0  0  0  0  0  0  0  0  0  0
   39.3213   31.0996   41.7048 H   0  0  0  0  0  0  0  0  0  0  0  0
  2  7  2  0
  2  3  1  0
  3  4  2  0
  4  5  1  0
  4  9  1  0
  6  1  1  0
  6  5  2  0
  7  6  1  0
  8  2  1  0
  9 14  2  0
 10 11  2  0
 10  9  1  0
 11 12  1  0
 12 13  2  0
 14 13  1  0
 15 19  1  0
 15  1  1  0
 16 15  2  0
 17 16  1  0
 17 18  1  0
 18 19  2  0
 20 18  1  0
 20 25  1  0
 21 20  2  0
 22 21  1  0
 22 23  2  0
 23 24  1  0
 24 25  2  0
  3 26  1  0
  8 27  1  0
  8 28  1  0
 10 29  1  0
 11 30  1  0
 12 31  1  0
 13 32  1  0
 21 33  1  0
 22 34  1  0
 23 35  1  0
 24 36  1  0
 25 37  1  0
M  ISO  8  26  14  29  14  30  14  31  14  32  14  33  14  34  14  35  14
M  ISO  2  36  14  37  14
M  END
>  <minimizedAffinity>  (1) 
-6.48488188

>  <minimizedRMSD>  (1) 
0.625269175

$$$$
