
     RDKit          3D

 36 39  0  0  0  0  0  0  0  0999 V2000
   36.7830   27.5130   42.9580 O   0  0  0  0  0  0  0  0  0  0  0  0
   38.1970   24.3160   42.0000 C   0  0  0  0  0  0  0  0  0  0  0  0
   39.5160   24.4690   42.4480 C   0  0  0  0  0  0  0  0  0  0  0  0
   39.8790   25.6900   43.0750 C   0  0  0  0  0  0  0  0  0  0  0  0
   38.9200   26.6400   43.2050 N   0  0  0  0  0  0  0  0  0  0  0  0
   37.6530   26.4510   42.7570 C   0  0  0  0  0  0  0  0  0  0  0  0
   37.2860   25.2960   42.1560 N   0  0  0  0  0  0  0  0  0  0  0  0
   37.8510   23.1150   41.3850 N   0  0  0  0  0  0  0  0  0  0  0  0
   41.2150   25.9460   43.5720 C   0  0  0  0  0  0  0  0  0  0  0  0
   42.3310   25.3320   43.1010 C   0  0  0  0  0  0  0  0  0  0  0  0
   43.5880   25.6090   43.6060 C   0  0  0  0  0  0  0  0  0  0  0  0
   43.7320   26.5230   44.6090 N   0  0  0  0  0  0  0  0  0  0  0  0
   42.6090   27.1220   45.0640 C   0  0  0  0  0  0  0  0  0  0  0  0
   41.4120   26.8340   44.5560 N   0  0  0  0  0  0  0  0  0  0  0  0
   36.4960   28.4490   41.9800 C   0  0  0  0  0  0  0  0  0  0  0  0
   35.6260   28.6570   40.9640 N   0  0  0  0  0  0  0  0  0  0  0  0
   35.8990   29.7940   40.3890 O   0  0  0  0  0  0  0  0  0  0  0  0
   36.9240   30.3660   40.9800 C   0  0  0  0  0  0  0  0  0  0  0  0
   37.3150   29.5350   41.9830 N   0  0  0  0  0  0  0  0  0  0  0  0
   37.5560   31.6540   40.6480 C   0  0  0  0  0  0  0  0  0  0  0  0
   36.9320   32.6190   39.8920 C   0  0  0  0  0  0  0  0  0  0  0  0
   37.5770   33.8180   39.6110 C   0  0  0  0  0  0  0  0  0  0  0  0
   38.8600   34.0600   40.0860 C   0  0  0  0  0  0  0  0  0  0  0  0
   39.4690   33.0730   40.8460 C   0  0  0  0  0  0  0  0  0  0  0  0
   38.8330   31.9000   41.1200 C   0  0  0  0  0  0  0  0  0  0  0  0
   40.2524   23.6624   42.3170 H   0  0  0  0  0  0  0  0  0  0  0  0
   38.5561   22.3728   41.2712 H   0  0  0  0  0  0  0  0  0  0  0  0
   36.8901   22.9691   41.0440 H   0  0  0  0  0  0  0  0  0  0  0  0
   42.2319   24.5919   42.2933 H   0  0  0  0  0  0  0  0  0  0  0  0
   44.4707   25.0933   43.1998 H   0  0  0  0  0  0  0  0  0  0  0  0
   42.6854   27.8642   45.8722 H   0  0  0  0  0  0  0  0  0  0  0  0
   35.9168   32.4409   39.5076 H   0  0  0  0  0  0  0  0  0  0  0  0
   37.0667   34.5825   39.0068 H   0  0  0  0  0  0  0  0  0  0  0  0
   39.3769   35.0057   39.8659 H   0  0  0  0  0  0  0  0  0  0  0  0
   40.4843   33.2403   41.2348 H   0  0  0  0  0  0  0  0  0  0  0  0
   39.3427   31.1365   41.7260 H   0  0  0  0  0  0  0  0  0  0  0  0
  2  7  2  0
  2  3  1  0
  3  4  2  0
  4  5  1  0
  4  9  1  0
  6  1  1  0
  6  5  2  0
  7  6  1  0
  8  2  1  0
  9 14  1  0
 10  9  2  0
 10 11  1  0
 11 12  2  0
 12 13  1  0
 14 13  2  0
 15 19  1  0
 15  1  1  0
 16 15  2  0
 17 16  1  0
 17 18  1  0
 18 19  2  0
 20 18  1  0
 20 25  1  0
 21 20  2  0
 22 21  1  0
 22 23  2  0
 23 24  1  0
 24 25  2  0
  3 26  1  0
  8 27  1  0
  8 28  1  0
 10 29  1  0
 11 30  1  0
 13 31  1  0
 21 32  1  0
 22 33  1  0
 23 34  1  0
 24 35  1  0
 25 36  1  0
M  ISO  8  26  14  29  14  30  14  31  14  32  14  33  14  34  14  35  14
M  ISO  1  36  14
M  END
>  <minimizedAffinity>  (1) 
-6.4811039

>  <minimizedRMSD>  (1) 
0.659547508

$$$$
