
     RDKit          3D

 39 42  0  0  0  0  0  0  0  0999 V2000
   38.5860   24.7240   42.3420 C   0  0  0  0  0  0  0  0  0  0  0  0
   39.8180   25.2360   42.8230 C   0  0  0  0  0  0  0  0  0  0  0  0
   39.8410   26.5840   43.2770 C   0  0  0  0  0  0  0  0  0  0  0  0
   38.6870   27.2990   43.2240 N   0  0  0  0  0  0  0  0  0  0  0  0
   37.5300   26.7530   42.7530 C   0  0  0  0  0  0  0  0  0  0  0  0
   37.4680   25.4740   42.3110 N   0  0  0  0  0  0  0  0  0  0  0  0
   38.5640   23.4060   41.8980 N   0  0  0  0  0  0  0  0  0  0  0  0
   41.0450   27.1540   43.7690 N   0  0  0  0  0  0  0  0  0  0  0  0
   41.6940   26.6300   44.8240 C   0  0  0  0  0  0  0  0  0  0  0  0
   42.8430   27.2770   45.1960 C   0  0  0  0  0  0  0  0  0  0  0  0
   43.3250   28.3840   44.5600 C   0  0  0  0  0  0  0  0  0  0  0  0
   44.5130   29.0900   44.9090 N   0  0  0  0  0  0  0  0  0  0  0  0
   42.6330   28.8690   43.5050 N   0  0  0  0  0  0  0  0  0  0  0  0
   41.4970   28.2510   43.1160 C   0  0  0  0  0  0  0  0  0  0  0  0
   40.8670   28.7330   42.1190 O   0  0  0  0  0  0  0  0  0  0  0  0
   36.4290   27.6050   42.7590 O   0  0  0  0  0  0  0  0  0  0  0  0
   36.2200   28.5800   41.7970 C   0  0  0  0  0  0  0  0  0  0  0  0
   35.3950   28.8490   40.7770 N   0  0  0  0  0  0  0  0  0  0  0  0
   35.7460   29.9910   40.2370 O   0  0  0  0  0  0  0  0  0  0  0  0
   36.7740   30.4880   40.8600 C   0  0  0  0  0  0  0  0  0  0  0  0
   37.0970   29.6220   41.8500 N   0  0  0  0  0  0  0  0  0  0  0  0
   37.4800   31.7510   40.5740 C   0  0  0  0  0  0  0  0  0  0  0  0
   36.9100   32.7740   39.8340 C   0  0  0  0  0  0  0  0  0  0  0  0
   37.6320   33.9370   39.6020 C   0  0  0  0  0  0  0  0  0  0  0  0
   38.9130   34.1010   40.0930 C   0  0  0  0  0  0  0  0  0  0  0  0
   39.4680   33.0710   40.8300 C   0  0  0  0  0  0  0  0  0  0  0  0
   38.7510   31.9170   41.0590 C   0  0  0  0  0  0  0  0  0  0  0  0
   40.7241   24.6126   42.8443 H   0  0  0  0  0  0  0  0  0  0  0  0
   37.6885   22.9973   41.5412 H   0  0  0  0  0  0  0  0  0  0  0  0
   39.4233   22.8387   41.9260 H   0  0  0  0  0  0  0  0  0  0  0  0
   41.3260   25.7392   45.3542 H   0  0  0  0  0  0  0  0  0  0  0  0
   43.4076   26.8828   46.0538 H   0  0  0  0  0  0  0  0  0  0  0  0
   44.7975   29.9187   44.3675 H   0  0  0  0  0  0  0  0  0  0  0  0
   45.0870   28.7715   45.7027 H   0  0  0  0  0  0  0  0  0  0  0  0
   35.8916   32.6656   39.4327 H   0  0  0  0  0  0  0  0  0  0  0  0
   37.1739   34.7460   39.0141 H   0  0  0  0  0  0  0  0  0  0  0  0
   39.4764   35.0264   39.9027 H   0  0  0  0  0  0  0  0  0  0  0  0
   40.4856   33.1734   41.2349 H   0  0  0  0  0  0  0  0  0  0  0  0
   39.2105   31.1082   41.6461 H   0  0  0  0  0  0  0  0  0  0  0  0
  1  2  2  0
  2  3  1  0
  3  8  1  0
  4  3  2  0
  5 16  1  0
  5  4  1  0
  6  1  1  0
  6  5  2  0
  7  1  1  0
  8  9  1  0
  9 10  2  0
 11 12  1  0
 11 10  1  0
 13 11  2  0
 14 13  1  0
 14  8  1  0
 15 14  2  0
 17 21  1  0
 17 16  1  0
 18 17  2  0
 19 18  1  0
 19 20  1  0
 20 21  2  0
 22 20  1  0
 22 27  1  0
 23 22  2  0
 24 23  1  0
 24 25  2  0
 25 26  1  0
 26 27  2  0
  2 28  1  0
  7 29  1  0
  7 30  1  0
  9 31  1  0
 10 32  1  0
 12 33  1  0
 12 34  1  0
 23 35  1  0
 24 36  1  0
 25 37  1  0
 26 38  1  0
 27 39  1  0
M  ISO  8  28  14  31  14  32  14  35  14  36  14  37  14  38  14  39  14
M  END
>  <minimizedAffinity>  (1) 
-6.43999529

>  <minimizedRMSD>  (1) 
1.08776128

$$$$
