
     RDKit          3D

 42 45  0  0  0  0  0  0  0  0999 V2000
   37.0390   27.6740   43.1080 O   0  0  0  0  0  0  0  0  0  0  0  0
   38.4280   24.4540   42.1890 C   0  0  0  0  0  0  0  0  0  0  0  0
   39.7610   24.5970   42.6070 C   0  0  0  0  0  0  0  0  0  0  0  0
   40.1460   25.8420   43.2100 C   0  0  0  0  0  0  0  0  0  0  0  0
   39.1970   26.8120   43.3450 N   0  0  0  0  0  0  0  0  0  0  0  0
   37.9150   26.6130   42.9180 C   0  0  0  0  0  0  0  0  0  0  0  0
   37.5400   25.4440   42.3480 N   0  0  0  0  0  0  0  0  0  0  0  0
   38.0740   23.2450   41.6080 N   0  0  0  0  0  0  0  0  0  0  0  0
   41.4580   26.0770   43.6590 N   0  0  0  0  0  0  0  0  0  0  0  0
   41.7640   27.2530   44.4500 C   0  0  0  0  0  0  0  0  0  0  0  0
   42.8320   26.8630   45.4470 C   0  0  0  0  0  0  0  0  0  0  0  0
   44.0270   26.5280   44.7290 N   0  0  0  0  0  0  0  0  0  0  0  0
   43.8260   25.9240   43.4490 C   0  0  0  0  0  0  0  0  0  0  0  0
   42.5150   25.1510   43.3380 C   0  0  0  0  0  0  0  0  0  0  0  0
   36.7080   28.5700   42.1250 C   0  0  0  0  0  0  0  0  0  0  0  0
   35.8160   28.7020   41.1270 N   0  0  0  0  0  0  0  0  0  0  0  0
   36.0210   29.8420   40.5080 O   0  0  0  0  0  0  0  0  0  0  0  0
   37.0300   30.4750   41.0710 C   0  0  0  0  0  0  0  0  0  0  0  0
   37.4650   29.6950   42.0760 N   0  0  0  0  0  0  0  0  0  0  0  0
   37.5690   31.7770   40.6730 C   0  0  0  0  0  0  0  0  0  0  0  0
   36.9200   32.6830   39.8780 C   0  0  0  0  0  0  0  0  0  0  0  0
   37.5130   33.9010   39.5490 C   0  0  0  0  0  0  0  0  0  0  0  0
   38.7790   34.2220   40.0250 C   0  0  0  0  0  0  0  0  0  0  0  0
   39.4290   33.3010   40.8290 C   0  0  0  0  0  0  0  0  0  0  0  0
   38.8300   32.1180   41.1360 C   0  0  0  0  0  0  0  0  0  0  0  0
   40.4872   23.7811   42.4766 H   0  0  0  0  0  0  0  0  0  0  0  0
   38.7776   22.5008   41.4982 H   0  0  0  0  0  0  0  0  0  0  0  0
   37.1076   23.0916   41.2865 H   0  0  0  0  0  0  0  0  0  0  0  0
   42.1341   28.0583   43.7985 H   0  0  0  0  0  0  0  0  0  0  0  0
   40.8644   27.6174   44.9676 H   0  0  0  0  0  0  0  0  0  0  0  0
   43.0311   27.7056   46.1255 H   0  0  0  0  0  0  0  0  0  0  0  0
   42.4954   26.0000   46.0403 H   0  0  0  0  0  0  0  0  0  0  0  0
   44.5673   27.3939   44.5902 H   0  0  0  0  0  0  0  0  0  0  0  0
   43.8282   26.7165   42.6862 H   0  0  0  0  0  0  0  0  0  0  0  0
   44.6411   25.2001   43.3021 H   0  0  0  0  0  0  0  0  0  0  0  0
   42.3860   24.7688   42.3146 H   0  0  0  0  0  0  0  0  0  0  0  0
   42.5058   24.2888   44.0210 H   0  0  0  0  0  0  0  0  0  0  0  0
   35.9168   32.4467   39.4935 H   0  0  0  0  0  0  0  0  0  0  0  0
   36.9746   34.6140   38.9074 H   0  0  0  0  0  0  0  0  0  0  0  0
   39.2517   35.1819   39.7698 H   0  0  0  0  0  0  0  0  0  0  0  0
   40.4320   33.5260   41.2206 H   0  0  0  0  0  0  0  0  0  0  0  0
   39.3681   31.4042   41.7771 H   0  0  0  0  0  0  0  0  0  0  0  0
  2  7  2  0
  2  3  1  0
  3  4  2  0
  4  5  1  0
  4  9  1  0
  6  1  1  0
  6  5  2  0
  7  6  1  0
  8  2  1  0
  9 10  1  0
 10 11  1  0
 12 11  1  0
 13 12  1  0
 14 13  1  0
 14  9  1  0
 15  1  1  0
 16 15  2  0
 17 18  1  0
 17 16  1  0
 18 19  2  0
 19 15  1  0
 20 18  1  0
 20 25  1  0
 21 20  2  0
 22 21  1  0
 22 23  2  0
 23 24  1  0
 24 25  2  0
  3 26  1  0
  8 27  1  0
  8 28  1  0
 10 29  1  0
 10 30  1  0
 11 31  1  0
 11 32  1  0
 12 33  1  0
 13 34  1  0
 13 35  1  0
 14 36  1  0
 14 37  1  0
 21 38  1  0
 22 39  1  0
 23 40  1  0
 24 41  1  0
 25 42  1  0
M  ISO  8  26  14  29  13  30  13  31  13  32  13  33   5  34  13  35  13
M  ISO  7  36  13  37  13  38  14  39  14  40  14  41  14  42  14
M  END
>  <minimizedAffinity>  (1) 
-6.28124809

>  <minimizedRMSD>  (1) 
0.570891976

$$$$
