
     RDKit          3D

 35 38  0  0  0  0  0  0  0  0999 V2000
   36.7980   27.5990   43.0130 O   0  0  0  0  0  0  0  0  0  0  0  0
   38.3410   24.4220   42.2080 C   0  0  0  0  0  0  0  0  0  0  0  0
   39.6470   24.6130   42.6880 C   0  0  0  0  0  0  0  0  0  0  0  0
   39.9470   25.8800   43.2920 C   0  0  0  0  0  0  0  0  0  0  0  0
   38.9500   26.8140   43.3610 N   0  0  0  0  0  0  0  0  0  0  0  0
   37.7100   26.5680   42.8780 C   0  0  0  0  0  0  0  0  0  0  0  0
   37.4230   25.3820   42.3110 N   0  0  0  0  0  0  0  0  0  0  0  0
   38.0350   23.2000   41.6210 N   0  0  0  0  0  0  0  0  0  0  0  0
   41.2520   26.1350   43.7970 N   0  0  0  0  0  0  0  0  0  0  0  0
   42.1700   25.3420   43.2270 N   0  0  0  0  0  0  0  0  0  0  0  0
   43.3880   25.6130   43.7310 C   0  0  0  0  0  0  0  0  0  0  0  0
   43.1900   26.6210   44.6520 C   0  0  0  0  0  0  0  0  0  0  0  0
   41.8500   26.9450   44.6890 C   0  0  0  0  0  0  0  0  0  0  0  0
   36.5270   28.5060   42.0040 C   0  0  0  0  0  0  0  0  0  0  0  0
   35.6960   28.6600   40.9570 N   0  0  0  0  0  0  0  0  0  0  0  0
   35.9550   29.7960   40.3610 O   0  0  0  0  0  0  0  0  0  0  0  0
   36.9320   30.4080   40.9700 C   0  0  0  0  0  0  0  0  0  0  0  0
   37.3150   29.6190   42.0120 N   0  0  0  0  0  0  0  0  0  0  0  0
   37.5500   31.7110   40.6420 C   0  0  0  0  0  0  0  0  0  0  0  0
   36.9100   32.6500   39.8590 C   0  0  0  0  0  0  0  0  0  0  0  0
   37.5460   33.8640   39.5830 C   0  0  0  0  0  0  0  0  0  0  0  0
   38.8110   34.1440   40.0830 C   0  0  0  0  0  0  0  0  0  0  0  0
   39.4180   33.1890   40.8580 C   0  0  0  0  0  0  0  0  0  0  0  0
   38.8040   31.9900   41.1370 C   0  0  0  0  0  0  0  0  0  0  0  0
   40.4088   23.8239   42.6045 H   0  0  0  0  0  0  0  0  0  0  0  0
   38.7563   22.4682   41.5491 H   0  0  0  0  0  0  0  0  0  0  0  0
   37.0870   23.0261   41.2578 H   0  0  0  0  0  0  0  0  0  0  0  0
   44.3408   25.1321   43.4647 H   0  0  0  0  0  0  0  0  0  0  0  0
   43.9763   27.0917   45.2604 H   0  0  0  0  0  0  0  0  0  0  0  0
   41.3693   27.7085   45.3183 H   0  0  0  0  0  0  0  0  0  0  0  0
   35.9075   32.4449   39.4553 H   0  0  0  0  0  0  0  0  0  0  0  0
   37.0350   34.6113   38.9582 H   0  0  0  0  0  0  0  0  0  0  0  0
   39.3096   35.0999   39.8647 H   0  0  0  0  0  0  0  0  0  0  0  0
   40.4201   33.3866   41.2664 H   0  0  0  0  0  0  0  0  0  0  0  0
   39.3203   31.2465   41.7620 H   0  0  0  0  0  0  0  0  0  0  0  0
  2  7  2  0
  2  3  1  0
  3  4  2  0
  4  5  1  0
  4  9  1  0
  6  1  1  0
  6  5  2  0
  7  6  1  0
  8  2  1  0
  9 13  1  0
 10 11  2  0
 10  9  1  0
 11 12  1  0
 12 13  2  0
 14 18  1  0
 14  1  1  0
 15 14  2  0
 16 15  1  0
 16 17  1  0
 17 18  2  0
 19 17  1  0
 19 24  1  0
 20 19  2  0
 21 20  1  0
 21 22  2  0
 22 23  1  0
 23 24  2  0
  3 25  1  0
  8 26  1  0
  8 27  1  0
 11 28  1  0
 12 29  1  0
 13 30  1  0
 20 31  1  0
 21 32  1  0
 22 33  1  0
 23 34  1  0
 24 35  1  0
M  ISO  8  25  14  28  14  29  14  30  14  31  14  32  14  33  14  34  14
M  ISO  1  35  14
M  END
>  <minimizedAffinity>  (1) 
-6.27387857

>  <minimizedRMSD>  (1) 
0.399203002

$$$$
