
     RDKit          3D

 35 38  0  0  0  0  0  0  0  0999 V2000
   36.5170   28.4570   41.9870 C   0  0  0  0  0  0  0  0  0  0  0  0
   35.6430   28.6550   40.9710 N   0  0  0  0  0  0  0  0  0  0  0  0
   35.9150   29.7960   40.3940 O   0  0  0  0  0  0  0  0  0  0  0  0
   36.9300   30.3650   40.9780 C   0  0  0  0  0  0  0  0  0  0  0  0
   37.3420   29.5530   41.9910 N   0  0  0  0  0  0  0  0  0  0  0  0
   37.5690   31.6570   40.6530 C   0  0  0  0  0  0  0  0  0  0  0  0
   36.9270   32.6180   39.8860 C   0  0  0  0  0  0  0  0  0  0  0  0
   37.5760   33.8230   39.6070 C   0  0  0  0  0  0  0  0  0  0  0  0
   38.8570   34.0760   40.0850 C   0  0  0  0  0  0  0  0  0  0  0  0
   39.4620   33.1020   40.8390 C   0  0  0  0  0  0  0  0  0  0  0  0
   38.8350   31.9110   41.1210 C   0  0  0  0  0  0  0  0  0  0  0  0
   36.8100   27.5280   42.9680 O   0  0  0  0  0  0  0  0  0  0  0  0
   38.2200   24.3250   42.0230 C   0  0  0  0  0  0  0  0  0  0  0  0
   39.5460   24.4770   42.4790 C   0  0  0  0  0  0  0  0  0  0  0  0
   39.9050   25.7030   43.1060 C   0  0  0  0  0  0  0  0  0  0  0  0
   38.9500   26.6740   43.2370 N   0  0  0  0  0  0  0  0  0  0  0  0
   37.6820   26.4680   42.7750 C   0  0  0  0  0  0  0  0  0  0  0  0
   37.3250   25.3160   42.1800 N   0  0  0  0  0  0  0  0  0  0  0  0
   37.8770   23.1290   41.4130 N   0  0  0  0  0  0  0  0  0  0  0  0
   41.2090   25.9330   43.5880 N   0  0  0  0  0  0  0  0  0  0  0  0
   41.5760   26.8170   44.5450 C   0  0  0  0  0  0  0  0  0  0  0  0
   42.9470   26.6800   44.6720 C   0  0  0  0  0  0  0  0  0  0  0  0
   43.3760   25.7330   43.8080 N   0  0  0  0  0  0  0  0  0  0  0  0
   42.2900   25.2750   43.1400 C   0  0  0  0  0  0  0  0  0  0  0  0
   35.9138   32.4324   39.5001 H   0  0  0  0  0  0  0  0  0  0  0  0
   37.0653   34.5844   38.9991 H   0  0  0  0  0  0  0  0  0  0  0  0
   39.3683   35.0250   39.8661 H   0  0  0  0  0  0  0  0  0  0  0  0
   40.4756   33.2787   41.2282 H   0  0  0  0  0  0  0  0  0  0  0  0
   39.3529   31.1537   41.7278 H   0  0  0  0  0  0  0  0  0  0  0  0
   40.2826   23.6698   42.3534 H   0  0  0  0  0  0  0  0  0  0  0  0
   38.5815   22.3854   41.3049 H   0  0  0  0  0  0  0  0  0  0  0  0
   36.9176   22.9836   41.0677 H   0  0  0  0  0  0  0  0  0  0  0  0
   40.9213   27.5012   45.1047 H   0  0  0  0  0  0  0  0  0  0  0  0
   43.5847   27.2496   45.3641 H   0  0  0  0  0  0  0  0  0  0  0  0
   42.2934   24.4965   42.3629 H   0  0  0  0  0  0  0  0  0  0  0  0
  1  5  1  0
  1 12  1  0
  2  1  2  0
  3  2  1  0
  3  4  1  0
  4  5  2  0
  6  4  1  0
  6 11  1  0
  7  6  2  0
  8  7  1  0
  8  9  2  0
  9 10  1  0
 10 11  2  0
 13 18  2  0
 13 14  1  0
 14 15  2  0
 15 16  1  0
 15 20  1  0
 17 12  1  0
 17 16  2  0
 18 17  1  0
 19 13  1  0
 20 21  1  0
 21 22  2  0
 23 22  1  0
 24 20  1  0
 24 23  2  0
  7 25  1  0
  8 26  1  0
  9 27  1  0
 10 28  1  0
 11 29  1  0
 14 30  1  0
 19 31  1  0
 19 32  1  0
 21 33  1  0
 22 34  1  0
 24 35  1  0
M  ISO  8  25  14  26  14  27  14  28  14  29  14  30  14  33  14  34  14
M  ISO  1  35  14
M  END
>  <minimizedAffinity>  (1) 
-6.21761036

>  <minimizedRMSD>  (1) 
0.624958158

$$$$
