
     RDKit          3D

 29 31  0  0  0  0  0  0  0  0999 V2000
   36.4550   28.5520   41.9220 C   0  0  0  0  0  0  0  0  0  0  0  0
   35.7300   28.6690   40.7850 N   0  0  0  0  0  0  0  0  0  0  0  0
   36.0300   29.7960   40.1950 O   0  0  0  0  0  0  0  0  0  0  0  0
   36.9210   30.4370   40.8870 C   0  0  0  0  0  0  0  0  0  0  0  0
   37.2190   29.6880   41.9840 N   0  0  0  0  0  0  0  0  0  0  0  0
   37.5470   31.7460   40.5950 C   0  0  0  0  0  0  0  0  0  0  0  0
   36.9110   32.7070   39.8240 C   0  0  0  0  0  0  0  0  0  0  0  0
   37.5360   33.9210   39.5770 C   0  0  0  0  0  0  0  0  0  0  0  0
   38.7980   34.1950   40.0920 C   0  0  0  0  0  0  0  0  0  0  0  0
   39.4010   33.2180   40.8540 C   0  0  0  0  0  0  0  0  0  0  0  0
   38.8000   32.0180   41.1070 C   0  0  0  0  0  0  0  0  0  0  0  0
   36.6530   27.6830   42.9850 O   0  0  0  0  0  0  0  0  0  0  0  0
   38.6070   24.6940   42.3990 C   0  0  0  0  0  0  0  0  0  0  0  0
   39.7610   24.9680   43.1670 C   0  0  0  0  0  0  0  0  0  0  0  0
   39.8090   26.2030   43.8670 C   0  0  0  0  0  0  0  0  0  0  0  0
   38.7390   27.0530   43.7580 N   0  0  0  0  0  0  0  0  0  0  0  0
   37.6610   26.7320   43.0050 C   0  0  0  0  0  0  0  0  0  0  0  0
   37.5830   25.5690   42.3290 N   0  0  0  0  0  0  0  0  0  0  0  0
   38.5620   23.4780   41.7120 N   0  0  0  0  0  0  0  0  0  0  0  0
   40.9290   26.5040   44.6300 O   0  0  0  0  0  0  0  0  0  0  0  0
   35.9122   32.5073   39.4086 H   0  0  0  0  0  0  0  0  0  0  0  0
   37.0251   34.6783   38.9643 H   0  0  0  0  0  0  0  0  0  0  0  0
   39.2967   35.1562   39.8983 H   0  0  0  0  0  0  0  0  0  0  0  0
   40.3998   33.4110   41.2725 H   0  0  0  0  0  0  0  0  0  0  0  0
   39.3162   31.2653   41.7210 H   0  0  0  0  0  0  0  0  0  0  0  0
   40.5928   24.2502   43.2209 H   0  0  0  0  0  0  0  0  0  0  0  0
   37.7389   23.2394   41.1407 H   0  0  0  0  0  0  0  0  0  0  0  0
   39.3520   22.8203   41.7769 H   0  0  0  0  0  0  0  0  0  0  0  0
   40.9762   27.3611   45.1232 H   0  0  0  0  0  0  0  0  0  0  0  0
  1  5  1  0
  1 12  1  0
  2  1  2  0
  3  2  1  0
  3  4  1  0
  4  5  2  0
  6  4  1  0
  6 11  1  0
  7  6  2  0
  8  7  1  0
  8  9  2  0
  9 10  1  0
 10 11  2  0
 12 17  1  0
 13 14  2  0
 14 15  1  0
 15 20  1  0
 16 15  2  0
 17 16  1  0
 18 13  1  0
 18 17  2  0
 19 13  1  0
  7 21  1  0
  8 22  1  0
  9 23  1  0
 10 24  1  0
 11 25  1  0
 14 26  1  0
 19 27  1  0
 19 28  1  0
 20 29  1  0
M  ISO  7  21  14  22  14  23  14  24  14  25  14  26  14  29   3
M  END
>  <minimizedAffinity>  (1) 
-6.00523806

>  <minimizedRMSD>  (1) 
0.261983573

$$$$
