
     RDKit          3D

 32 34  0  0  0  0  0  0  0  0999 V2000
   36.2080   28.6880   41.7800 C   0  0  0  0  0  0  0  0  0  0  0  0
   35.4760   28.8920   40.6670 N   0  0  0  0  0  0  0  0  0  0  0  0
   35.8320   30.0120   40.1160 O   0  0  0  0  0  0  0  0  0  0  0  0
   36.7780   30.5740   40.8150 C   0  0  0  0  0  0  0  0  0  0  0  0
   37.0370   29.7640   41.8730 N   0  0  0  0  0  0  0  0  0  0  0  0
   37.4650   31.8570   40.5390 C   0  0  0  0  0  0  0  0  0  0  0  0
   36.9170   32.8540   39.7780 C   0  0  0  0  0  0  0  0  0  0  0  0
   37.6160   34.0360   39.5570 C   0  0  0  0  0  0  0  0  0  0  0  0
   38.8670   34.2210   40.1000 C   0  0  0  0  0  0  0  0  0  0  0  0
   39.4130   33.2150   40.8660 C   0  0  0  0  0  0  0  0  0  0  0  0
   38.7190   32.0540   41.0780 C   0  0  0  0  0  0  0  0  0  0  0  0
   36.3620   27.7630   42.8040 O   0  0  0  0  0  0  0  0  0  0  0  0
   38.3120   24.7710   42.2750 C   0  0  0  0  0  0  0  0  0  0  0  0
   39.4850   25.0710   42.9980 C   0  0  0  0  0  0  0  0  0  0  0  0
   39.5560   26.3190   43.6510 C   0  0  0  0  0  0  0  0  0  0  0  0
   38.4760   27.1650   43.5420 N   0  0  0  0  0  0  0  0  0  0  0  0
   37.3770   26.8330   42.8400 C   0  0  0  0  0  0  0  0  0  0  0  0
   37.2850   25.6330   42.1990 N   0  0  0  0  0  0  0  0  0  0  0  0
   40.7060   26.6800   44.3920 N   0  0  0  0  0  0  0  0  0  0  0  0
   38.2280   23.5310   41.6200 N   0  0  0  0  0  0  0  0  0  0  0  0
   40.5570   24.1520   43.0670 N   0  0  0  0  0  0  0  0  0  0  0  0
   35.9176   32.7196   39.3385 H   0  0  0  0  0  0  0  0  0  0  0  0
   37.1651   34.8296   38.9431 H   0  0  0  0  0  0  0  0  0  0  0  0
   39.4207   35.1553   39.9254 H   0  0  0  0  0  0  0  0  0  0  0  0
   40.4112   33.3449   41.3095 H   0  0  0  0  0  0  0  0  0  0  0  0
   39.1715   31.2611   41.6916 H   0  0  0  0  0  0  0  0  0  0  0  0
   40.7478   27.5939   44.8652 H   0  0  0  0  0  0  0  0  0  0  0  0
   41.5013   26.0289   44.4582 H   0  0  0  0  0  0  0  0  0  0  0  0
   37.3822   23.2874   41.0851 H   0  0  0  0  0  0  0  0  0  0  0  0
   39.0123   22.8655   41.6747 H   0  0  0  0  0  0  0  0  0  0  0  0
   41.4056   24.3897   43.6003 H   0  0  0  0  0  0  0  0  0  0  0  0
   40.4895   23.2448   42.5840 H   0  0  0  0  0  0  0  0  0  0  0  0
  1  5  1  0
  1 12  1  0
  2  1  2  0
  3  2  1  0
  3  4  1  0
  4  5  2  0
  6  4  1  0
  6 11  1  0
  7  6  2  0
  8  7  1  0
  8  9  2  0
  9 10  1  0
 10 11  2  0
 12 17  1  0
 13 14  2  0
 14 21  1  0
 14 15  1  0
 15 19  1  0
 16 15  2  0
 17 16  1  0
 18 13  1  0
 18 17  2  0
 20 13  1  0
  7 22  1  0
  8 23  1  0
  9 24  1  0
 10 25  1  0
 11 26  1  0
 19 27  1  0
 19 28  1  0
 20 29  1  0
 20 30  1  0
 21 31  1  0
 21 32  1  0
M  ISO  5  22  14  23  14  24  14  25  14  26  14
M  END
>  <minimizedAffinity>  (1) 
-6.09181118

>  <minimizedRMSD>  (1) 
0.281299651

$$$$
