
     RDKit          3D

 36 38  0  0  0  0  0  0  0  0999 V2000
   36.8770   31.6170   40.3410 C   0  0  0  0  0  0  0  0  0  0  0  0
   36.8570   31.9160   39.0350 N   0  0  0  0  0  0  0  0  0  0  0  0
   37.6490   32.9240   38.8000 O   0  0  0  0  0  0  0  0  0  0  0  0
   38.2080   33.3120   39.9350 C   0  0  0  0  0  0  0  0  0  0  0  0
   37.7310   32.5080   40.8840 N   0  0  0  0  0  0  0  0  0  0  0  0
   39.1680   34.4210   40.0930 C   0  0  0  0  0  0  0  0  0  0  0  0
   38.8480   35.7470   40.0110 C   0  0  0  0  0  0  0  0  0  0  0  0
   39.8260   36.7240   40.1720 C   0  0  0  0  0  0  0  0  0  0  0  0
   41.1260   36.3630   40.4170 C   0  0  0  0  0  0  0  0  0  0  0  0
   41.4490   35.0350   40.5010 C   0  0  0  0  0  0  0  0  0  0  0  0
   40.4830   34.0900   40.3410 C   0  0  0  0  0  0  0  0  0  0  0  0
   36.3070   30.7160   41.2130 O   0  0  0  0  0  0  0  0  0  0  0  0
   36.7690   27.2130   40.4410 C   0  0  0  0  0  0  0  0  0  0  0  0
   37.4640   26.7690   41.5790 C   0  0  0  0  0  0  0  0  0  0  0  0
   37.7620   27.7200   42.6080 C   0  0  0  0  0  0  0  0  0  0  0  0
   37.3450   29.0040   42.4090 N   0  0  0  0  0  0  0  0  0  0  0  0
   36.6740   29.3900   41.2930 C   0  0  0  0  0  0  0  0  0  0  0  0
   36.3850   28.4940   40.3070 N   0  0  0  0  0  0  0  0  0  0  0  0
   38.4490   27.3300   43.7580 N   0  0  0  0  0  0  0  0  0  0  0  0
   36.4950   26.2840   39.4460 N   0  0  0  0  0  0  0  0  0  0  0  0
   37.9020   25.3780   41.8120 C   0  0  0  0  0  0  0  0  0  0  0  0
   36.7820   24.4680   42.2520 C   0  0  0  0  0  0  0  0  0  0  0  0
   37.8073   36.0451   39.8158 H   0  0  0  0  0  0  0  0  0  0  0  0
   39.5556   37.7880   40.1026 H   0  0  0  0  0  0  0  0  0  0  0  0
   41.9016   37.1325   40.5448 H   0  0  0  0  0  0  0  0  0  0  0  0
   42.4881   34.7324   40.6976 H   0  0  0  0  0  0  0  0  0  0  0  0
   40.7604   33.0279   40.4118 H   0  0  0  0  0  0  0  0  0  0  0  0
   38.6585   28.0214   44.4921 H   0  0  0  0  0  0  0  0  0  0  0  0
   38.7467   26.3507   43.8728 H   0  0  0  0  0  0  0  0  0  0  0  0
   35.9875   26.5727   38.5975 H   0  0  0  0  0  0  0  0  0  0  0  0
   36.7992   25.3062   39.5565 H   0  0  0  0  0  0  0  0  0  0  0  0
   38.3259   24.9836   40.8767 H   0  0  0  0  0  0  0  0  0  0  0  0
   38.6432   25.4005   42.6245 H   0  0  0  0  0  0  0  0  0  0  0  0
   36.7445   24.4376   43.3509 H   0  0  0  0  0  0  0  0  0  0  0  0
   35.8261   24.8485   41.8629 H   0  0  0  0  0  0  0  0  0  0  0  0
   36.9588   23.4544   41.8629 H   0  0  0  0  0  0  0  0  0  0  0  0
  1  5  1  0
  1 12  1  0
  2  1  2  0
  3  2  1  0
  3  4  1  0
  4  6  1  0
  4  5  2  0
  6 11  1  0
  7  6  2  0
  7  8  1  0
  8  9  2  0
  9 10  1  0
 11 10  2  0
 12 17  1  0
 13 14  2  0
 14 21  1  0
 14 15  1  0
 15 19  1  0
 16 15  2  0
 17 16  1  0
 18 13  1  0
 18 17  2  0
 20 13  1  0
 21 22  1  0
  7 23  1  0
  8 24  1  0
  9 25  1  0
 10 26  1  0
 11 27  1  0
 19 28  1  0
 19 29  1  0
 20 30  1  0
 20 31  1  0
 21 32  1  0
 21 33  1  0
 22 34  1  0
 22 35  1  0
 22 36  1  0
M  ISO  8  23  14  24  14  25  14  26  14  27  14  32   8  33   8  34   8
M  ISO  2  35   8  36   8
M  END
>  <minimizedAffinity>  (1) 
-5.97911358

>  <minimizedRMSD>  (1) 
3.46861243

$$$$
