
     RDKit          3D

 32 34  0  0  1  0  0  0  0  0999 V2000
   38.7730   32.8870   40.5300 C   0  0  0  0  0  0  0  0  0  0  0  0
   37.4160   32.6730   40.2330 C   0  0  0  0  0  0  0  0  0  0  0  0
   36.8860   31.4490   40.6030 C   0  0  0  0  0  0  0  0  0  0  0  0
   37.6960   30.5470   41.2190 N   0  0  0  0  0  0  0  0  0  0  0  0
   38.9730   30.7660   41.4910 C   0  0  0  0  0  0  0  0  0  0  0  0
   39.5290   31.9560   41.1440 N   0  0  0  0  0  0  0  0  0  0  0  0
   39.8680   29.8610   42.1220 N   0  0  0  0  0  0  0  0  0  0  0  0
   41.0180   30.3510   42.5480 N   0  0  0  0  0  0  0  0  0  0  0  0
   41.7340   29.3270   43.1040 C   0  0  0  0  0  0  0  0  0  0  0  0
   40.9330   28.1840   42.9820 C   0  0  0  0  0  0  0  0  0  0  0  0
   39.7470   28.5430   42.3560 C   0  0  0  0  0  0  0  0  0  0  0  0
   38.6190   27.6720   42.0500 C   0  0  1  0  0  0  0  0  0  0  0  0
   39.0990   26.3100   41.5240 C   0  0  0  0  0  0  0  0  0  0  0  0
   37.8260   25.4790   41.6590 C   0  0  0  0  0  0  0  0  0  0  0  0
   36.9650   26.1870   42.6800 C   0  0  0  0  0  0  0  0  0  0  0  0
   37.8950   27.2100   43.2780 C   0  0  2  0  0  0  0  0  0  0  0  0
   37.1990   28.2490   44.0460 C   0  0  0  0  0  0  0  0  0  0  0  0
   36.6130   28.1680   45.1360 O   0  0  0  0  0  0  0  0  0  0  0  0
   39.2332   33.8466   40.2519 H   0  0  0  0  0  0  0  0  0  0  0  0
   36.8062   33.4392   39.7320 H   0  0  0  0  0  0  0  0  0  0  0  0
   35.8309   31.2108   40.4028 H   0  0  0  0  0  0  0  0  0  0  0  0
   42.7353   29.3883   43.5553 H   0  0  0  0  0  0  0  0  0  0  0  0
   41.1989   27.1730   43.3244 H   0  0  0  0  0  0  0  0  0  0  0  0
   38.0115   28.2734   41.3577 H   0  0  0  0  0  0  0  0  0  0  0  0
   39.9139   25.9034   42.1409 H   0  0  0  0  0  0  0  0  0  0  0  0
   39.5153   26.3387   40.5062 H   0  0  0  0  0  0  0  0  0  0  0  0
   37.3032   25.4229   40.6928 H   0  0  0  0  0  0  0  0  0  0  0  0
   38.0517   24.4487   41.9711 H   0  0  0  0  0  0  0  0  0  0  0  0
   36.1037   26.6730   42.1984 H   0  0  0  0  0  0  0  0  0  0  0  0
   36.5417   25.5032   43.4305 H   0  0  0  0  0  0  0  0  0  0  0  0
   38.5766   26.8324   44.0544 H   0  0  0  0  0  0  0  0  0  0  0  0
   37.1967   29.2484   43.5864 H   0  0  0  0  0  0  0  0  0  0  0  0
  1  6  2  0
  2  1  1  0
  2  3  2  0
  3  4  1  0
  4  5  2  0
  5  7  1  0
  6  5  1  0
  7 11  1  0
  7  8  1  0
  8  9  2  0
 10  9  1  0
 11 10  2  0
 12 11  1  0
 12 16  1  0
 13 14  1  0
 13 12  1  0
 14 15  1  0
 15 16  1  0
 16 17  1  0
 17 18  2  0
  1 19  1  0
  2 20  1  0
  3 21  1  0
  9 22  1  0
 10 23  1  0
 12 24  1  6
 13 25  1  0
 13 26  1  0
 14 27  1  0
 14 28  1  0
 15 29  1  0
 15 30  1  0
 16 31  1  1
 17 32  1  0
M  ISO  8  19  14  20  14  21  14  22  14  23  14  24  13  25  13  26  13
M  ISO  6  27  13  28  13  29  13  30  13  31  13  32   6
M  END
>  <minimizedAffinity>  (1) 
-5.0133419

>  <minimizedRMSD>  (1) 
2.68828011

$$$$
