
     RDKit          3D

 31 33  0  0  1  0  0  0  0  0999 V2000
   37.7690   31.2960   41.1660 C   0  0  0  0  0  0  0  0  0  0  0  0
   36.5390   31.1970   40.4900 C   0  0  0  0  0  0  0  0  0  0  0  0
   35.9330   29.9310   40.4560 C   0  0  0  0  0  0  0  0  0  0  0  0
   36.5720   28.9090   41.0690 N   0  0  0  0  0  0  0  0  0  0  0  0
   37.7290   29.0140   41.7020 C   0  0  0  0  0  0  0  0  0  0  0  0
   38.3170   30.2190   41.7410 N   0  0  0  0  0  0  0  0  0  0  0  0
   38.4180   27.9560   42.3500 N   0  0  0  0  0  0  0  0  0  0  0  0
   39.4030   28.3010   43.1560 N   0  0  0  0  0  0  0  0  0  0  0  0
   39.9450   27.1750   43.6800 C   0  0  0  0  0  0  0  0  0  0  0  0
   39.2180   26.1240   43.1360 C   0  0  0  0  0  0  0  0  0  0  0  0
   38.2440   26.6360   42.2870 C   0  0  0  0  0  0  0  0  0  0  0  0
   37.2650   25.8900   41.5360 C   0  0  1  0  0  0  0  0  0  0  0  0
   37.7330   25.6030   40.1030 C   0  0  0  0  0  0  0  0  0  0  0  0
   36.7480   24.5300   39.6680 C   0  0  0  0  0  0  0  0  0  0  0  0
   36.1990   23.9110   40.9380 C   0  0  0  0  0  0  0  0  0  0  0  0
   37.0950   24.4800   42.0310 C   0  0  1  0  0  0  0  0  0  0  0  0
   38.3200   23.8080   42.0510 O   0  0  0  0  0  0  0  0  0  0  0  0
   38.2842   32.2663   41.2223 H   0  0  0  0  0  0  0  0  0  0  0  0
   36.0738   32.0709   40.0104 H   0  0  0  0  0  0  0  0  0  0  0  0
   34.9701   29.7756   39.9474 H   0  0  0  0  0  0  0  0  0  0  0  0
   40.7845   27.1075   44.3876 H   0  0  0  0  0  0  0  0  0  0  0  0
   39.3862   25.0570   43.3439 H   0  0  0  0  0  0  0  0  0  0  0  0
   36.3654   26.5171   41.6226 H   0  0  0  0  0  0  0  0  0  0  0  0
   37.6566   26.4986   39.4690 H   0  0  0  0  0  0  0  0  0  0  0  0
   38.7874   25.2984   40.0295 H   0  0  0  0  0  0  0  0  0  0  0  0
   35.9331   24.9777   39.0802 H   0  0  0  0  0  0  0  0  0  0  0  0
   37.2362   23.7741   39.0353 H   0  0  0  0  0  0  0  0  0  0  0  0
   35.1510   24.2049   41.0968 H   0  0  0  0  0  0  0  0  0  0  0  0
   36.2016   22.8113   40.9129 H   0  0  0  0  0  0  0  0  0  0  0  0
   36.6973   24.3977   43.0533 H   0  0  0  0  0  0  0  0  0  0  0  0
   38.5976   23.6557   42.9890 H   0  0  0  0  0  0  0  0  0  0  0  0
  1  6  2  0
  2  1  1  0
  3  2  2  0
  3  4  1  0
  4  5  2  0
  5  6  1  0
  5  7  1  0
  7  8  1  0
  8  9  2  0
 10  9  1  0
 11  7  1  0
 11 10  2  0
 12 16  1  0
 12 11  1  0
 13 12  1  0
 14 13  1  0
 14 15  1  0
 15 16  1  0
 16 17  1  0
  1 18  1  0
  2 19  1  0
  3 20  1  0
  9 21  1  0
 10 22  1  0
 12 23  1  6
 13 24  1  0
 13 25  1  0
 14 26  1  0
 14 27  1  0
 15 28  1  0
 15 29  1  0
 16 30  1  1
 17 31  1  0
M  ISO  8  18  14  19  14  20  14  21  14  22  14  23  13  24  13  25  13
M  ISO  6  26  13  27  13  28  13  29  13  30  13  31   3
M  END
>  <minimizedAffinity>  (1) 
-4.97982836

>  <minimizedRMSD>  (1) 
0.114930496

$$$$
