
     RDKit          3D

 24 26  0  0  0  0  0  0  0  0999 V2000
   37.2920   30.3990   40.5460 C   0  0  0  0  0  0  0  0  0  0  0  0
   37.3140   31.7270   40.7900 N   0  0  0  0  0  0  0  0  0  0  0  0
   37.2890   32.6780   39.8780 C   0  0  0  0  0  0  0  0  0  0  0  0
   37.2390   32.3820   38.5860 N   0  0  0  0  0  0  0  0  0  0  0  0
   37.2120   31.0820   38.2030 C   0  0  0  0  0  0  0  0  0  0  0  0
   37.1600   30.7980   36.8570 C   0  0  0  0  0  0  0  0  0  0  0  0
   37.1330   29.4850   36.4380 C   0  0  0  0  0  0  0  0  0  0  0  0
   37.1580   28.4800   37.4060 C   0  0  0  0  0  0  0  0  0  0  0  0
   37.2110   28.8520   38.7320 C   0  0  0  0  0  0  0  0  0  0  0  0
   37.2400   30.1350   39.1990 C   0  0  0  0  0  0  0  0  0  0  0  0
   38.7550   28.5000   43.2180 C   0  0  0  0  0  0  0  0  0  0  0  0
   37.8190   27.5600   43.6560 C   0  0  0  0  0  0  0  0  0  0  0  0
   36.6020   27.5760   42.9900 C   0  0  0  0  0  0  0  0  0  0  0  0
   36.4470   28.4770   42.0100 N   0  0  0  0  0  0  0  0  0  0  0  0
   37.3190   29.3770   41.5790 C   0  0  0  0  0  0  0  0  0  0  0  0
   38.4760   29.3400   42.2330 N   0  0  0  0  0  0  0  0  0  0  0  0
   37.3099   33.7319   40.1926 H   0  0  0  0  0  0  0  0  0  0  0  0
   37.1401   31.6143   36.1199 H   0  0  0  0  0  0  0  0  0  0  0  0
   37.0928   29.2356   35.3674 H   0  0  0  0  0  0  0  0  0  0  0  0
   37.1360   27.4186   37.1181 H   0  0  0  0  0  0  0  0  0  0  0  0
   37.2318   28.0451   39.4793 H   0  0  0  0  0  0  0  0  0  0  0  0
   39.7426   28.5432   43.7005 H   0  0  0  0  0  0  0  0  0  0  0  0
   38.0323   26.8552   44.4732 H   0  0  0  0  0  0  0  0  0  0  0  0
   35.7958   26.8765   43.2559 H   0  0  0  0  0  0  0  0  0  0  0  0
  1  2  2  0
  1 15  1  0
  3  2  1  0
  4  3  2  0
  5  4  1  0
  5 10  2  0
  6  5  1  0
  7  6  2  0
  7  8  1  0
  8  9  2  0
  9 10  1  0
 10  1  1  0
 11 12  2  0
 13 12  1  0
 14 13  2  0
 15 14  1  0
 15 16  2  0
 16 11  1  0
  3 17  1  0
  6 18  1  0
  7 19  1  0
  8 20  1  0
  9 21  1  0
 11 22  1  0
 12 23  1  0
 13 24  1  0
M  ISO  8  17  14  18  14  19  14  20  14  21  14  22  14  23  14  24  14
M  END
>  <minimizedAffinity>  (1) 
-4.49918604

>  <minimizedRMSD>  (1) 
1.17036581

$$$$
