
     RDKit          3D

 36 39  0  0  1  0  0  0  0  0999 V2000
   37.6590   27.9650   41.7330 C   0  0  1  0  0  0  0  0  0  0  0  0
   36.5460   27.0510   42.2580 C   0  0  0  0  0  0  0  0  0  0  0  0
   36.5130   27.4450   43.7290 C   0  0  0  0  0  0  0  0  0  0  0  0
   37.8680   27.9960   44.0410 C   0  0  0  0  0  0  0  0  0  0  0  0
   38.7050   27.7980   42.7910 C   0  0  2  0  0  0  0  0  0  0  0  0
   37.5840   31.2430   37.4010 C   0  0  0  0  0  0  0  0  0  0  0  0
   37.3440   32.2400   38.3630 C   0  0  0  0  0  0  0  0  0  0  0  0
   37.4210   31.8540   39.7000 C   0  0  0  0  0  0  0  0  0  0  0  0
   37.7200   30.5580   39.9760 N   0  0  0  0  0  0  0  0  0  0  0  0
   37.9430   29.6320   39.0580 C   0  0  0  0  0  0  0  0  0  0  0  0
   37.8740   29.9800   37.7480 N   0  0  0  0  0  0  0  0  0  0  0  0
   38.2470   28.2720   39.3010 N   0  0  0  0  0  0  0  0  0  0  0  0
   38.7210   27.5720   38.2870 N   0  0  0  0  0  0  0  0  0  0  0  0
   38.9340   26.2960   38.7220 C   0  0  0  0  0  0  0  0  0  0  0  0
   38.5610   26.2620   40.0580 C   0  0  0  0  0  0  0  0  0  0  0  0
   38.1240   27.5340   40.4150 C   0  0  0  0  0  0  0  0  0  0  0  0
   39.6520   28.9230   42.7660 N   0  0  0  0  0  0  0  0  0  0  0  0
   39.2730   30.2100   42.8540 C   0  0  0  0  0  0  0  0  0  0  0  0
   40.3580   31.0180   42.8030 N   0  0  0  0  0  0  0  0  0  0  0  0
   41.4110   30.2030   42.6810 C   0  0  0  0  0  0  0  0  0  0  0  0
   40.9860   28.9320   42.6580 N   0  0  0  0  0  0  0  0  0  0  0  0
   37.3558   29.0111   41.5785 H   0  0  0  0  0  0  0  0  0  0  0  0
   35.5860   27.2588   41.7629 H   0  0  0  0  0  0  0  0  0  0  0  0
   36.7189   25.9793   42.0802 H   0  0  0  0  0  0  0  0  0  0  0  0
   35.7409   28.2091   43.9024 H   0  0  0  0  0  0  0  0  0  0  0  0
   36.2715   26.5845   44.3703 H   0  0  0  0  0  0  0  0  0  0  0  0
   37.7970   29.0659   44.2866 H   0  0  0  0  0  0  0  0  0  0  0  0
   38.3167   27.4886   44.9077 H   0  0  0  0  0  0  0  0  0  0  0  0
   39.2704   26.8591   42.6976 H   0  0  0  0  0  0  0  0  0  0  0  0
   37.5325   31.5060   36.3341 H   0  0  0  0  0  0  0  0  0  0  0  0
   37.1069   33.2746   38.0743 H   0  0  0  0  0  0  0  0  0  0  0  0
   37.2446   32.5783   40.5088 H   0  0  0  0  0  0  0  0  0  0  0  0
   39.3256   25.4569   38.1283 H   0  0  0  0  0  0  0  0  0  0  0  0
   38.6033   25.3837   40.7189 H   0  0  0  0  0  0  0  0  0  0  0  0
   38.2335   30.5558   42.9530 H   0  0  0  0  0  0  0  0  0  0  0  0
   42.4605   30.5248   42.6106 H   0  0  0  0  0  0  0  0  0  0  0  0
  1  2  1  0
  1  5  1  0
  2  3  1  0
  3  4  1  0
  5  4  1  0
  6 11  2  0
  6  7  1  0
  7  8  2  0
  8  9  1  0
 10 12  1  0
 10  9  2  0
 11 10  1  0
 12 16  1  0
 13 14  2  0
 13 12  1  0
 14 15  1  0
 15 16  2  0
 16  1  1  0
 17  5  1  0
 17 18  1  0
 19 18  2  0
 20 19  1  0
 21 20  2  0
 21 17  1  0
  1 22  1  6
  2 23  1  0
  2 24  1  0
  3 25  1  0
  3 26  1  0
  4 27  1  0
  4 28  1  0
  5 29  1  1
  6 30  1  0
  7 31  1  0
  8 32  1  0
 14 33  1  0
 15 34  1  0
 18 35  1  0
 20 36  1  0
M  ISO  8  22  13  23  13  24  13  25  13  26  13  27  13  28  13  29  13
M  ISO  7  30  14  31  14  32  14  33  14  34  14  35  14  36  14
M  END
>  <minimizedAffinity>  (1) 
-4.90574169

>  <minimizedRMSD>  (1) 
4.7961998

$$$$
