
     RDKit          3D

 48 51  0  0  0  0  0  0  0  0999 V2000
   37.3140   26.6220   41.0720 C   0  0  0  0  0  0  0  0  0  0  0  0
   38.3580   26.3300   41.9800 C   0  0  0  0  0  0  0  0  0  0  0  0
   38.8360   27.3510   42.8070 C   0  0  0  0  0  0  0  0  0  0  0  0
   38.2570   28.5820   42.6890 N   0  0  0  0  0  0  0  0  0  0  0  0
   37.2590   28.8500   41.8180 C   0  0  0  0  0  0  0  0  0  0  0  0
   36.7790   27.8680   41.0010 N   0  0  0  0  0  0  0  0  0  0  0  0
   39.8600   27.0970   43.6990 N   0  0  0  0  0  0  0  0  0  0  0  0
   36.8000   25.6590   40.2170 N   0  0  0  0  0  0  0  0  0  0  0  0
   36.7690   30.1440   41.8080 O   0  0  0  0  0  0  0  0  0  0  0  0
   37.0320   31.0460   40.8020 C   0  0  0  0  0  0  0  0  0  0  0  0
   36.6410   31.3340   39.5500 N   0  0  0  0  0  0  0  0  0  0  0  0
   37.3020   32.3570   39.1170 O   0  0  0  0  0  0  0  0  0  0  0  0
   38.1380   32.7790   40.0370 C   0  0  0  0  0  0  0  0  0  0  0  0
   37.9890   31.9680   41.1100 N   0  0  0  0  0  0  0  0  0  0  0  0
   39.0670   33.9150   39.9310 C   0  0  0  0  0  0  0  0  0  0  0  0
   38.7680   35.1890   40.3470 C   0  0  0  0  0  0  0  0  0  0  0  0
   39.7130   36.1980   40.2040 C   0  0  0  0  0  0  0  0  0  0  0  0
   40.9460   35.9540   39.6550 C   0  0  0  0  0  0  0  0  0  0  0  0
   41.2400   34.6910   39.2460 C   0  0  0  0  0  0  0  0  0  0  0  0
   40.3090   33.6690   39.3790 C   0  0  0  0  0  0  0  0  0  0  0  0
   40.7670   32.3520   38.8900 C   0  0  0  0  0  0  0  0  0  0  0  0
   40.6550   31.9460   37.5000 C   0  0  0  0  0  0  0  0  0  0  0  0
   41.3650   30.2940   37.5450 S   0  0  0  0  0  0  0  0  0  0  0  0
   41.7050   30.4020   39.4310 C   0  0  0  0  0  0  0  0  0  0  0  0
   41.3090   31.4660   39.7070 N   0  0  0  0  0  0  0  0  0  0  0  0
   38.8310   24.9500   41.9490 C   0  0  0  0  0  0  0  0  0  0  0  0
   37.7090   23.9430   41.7200 C   0  0  0  0  0  0  0  0  0  0  0  0
   39.6080   24.4990   43.1390 C   0  0  0  0  0  0  0  0  0  0  0  0
   39.7750   24.8450   40.7550 C   0  0  0  0  0  0  0  0  0  0  0  0
   40.2113   27.8499   44.3077 H   0  0  0  0  0  0  0  0  0  0  0  0
   40.2721   26.1547   43.7553 H   0  0  0  0  0  0  0  0  0  0  0  0
   36.0393   25.9013   39.5662 H   0  0  0  0  0  0  0  0  0  0  0  0
   37.1789   24.7014   40.2326 H   0  0  0  0  0  0  0  0  0  0  0  0
   37.7861   35.4097   40.7909 H   0  0  0  0  0  0  0  0  0  0  0  0
   39.4663   37.2163   40.5390 H   0  0  0  0  0  0  0  0  0  0  0  0
   41.6824   36.7640   39.5477 H   0  0  0  0  0  0  0  0  0  0  0  0
   42.2249   34.4766   38.8055 H   0  0  0  0  0  0  0  0  0  0  0  0
   40.2441   32.5024   36.6447 H   0  0  0  0  0  0  0  0  0  0  0  0
   42.1605   29.6479   40.0897 H   0  0  0  0  0  0  0  0  0  0  0  0
   37.3233   23.5968   42.6903 H   0  0  0  0  0  0  0  0  0  0  0  0
   36.8973   24.4213   41.1523 H   0  0  0  0  0  0  0  0  0  0  0  0
   38.0971   23.0845   41.1523 H   0  0  0  0  0  0  0  0  0  0  0  0
   39.0832   24.8036   44.0565 H   0  0  0  0  0  0  0  0  0  0  0  0
   39.7061   23.4036   43.1192 H   0  0  0  0  0  0  0  0  0  0  0  0
   40.6079   24.9571   43.1192 H   0  0  0  0  0  0  0  0  0  0  0  0
   40.8085   24.7300   41.1137 H   0  0  0  0  0  0  0  0  0  0  0  0
   39.4993   23.9720   40.1452 H   0  0  0  0  0  0  0  0  0  0  0  0
   39.6978   25.7573   40.1452 H   0  0  0  0  0  0  0  0  0  0  0  0
  1  2  2  0
  2  3  1  0
  3  7  1  0
  4  3  2  0
  5  4  1  0
  6  1  1  0
  6  5  2  0
  8  1  1  0
  9  5  1  0
 10 14  1  0
 10  9  1  0
 11 10  2  0
 12 11  1  0
 12 13  1  0
 13 14  2  0
 15 13  1  0
 15 16  2  0
 17 16  1  0
 18 17  2  0
 19 20  2  0
 19 18  1  0
 20 15  1  0
 21 20  1  0
 21 25  1  0
 22 23  1  0
 22 21  2  0
 23 24  1  0
 24 25  2  0
 26  2  1  0
 26 28  1  0
 27 26  1  0
 29 26  1  0
  7 30  1  0
  7 31  1  0
  8 32  1  0
  8 33  1  0
 16 34  1  0
 17 35  1  0
 18 36  1  0
 19 37  1  0
 22 38  1  0
 24 39  1  0
 27 40  1  0
 27 41  1  0
 27 42  1  0
 28 43  1  0
 28 44  1  0
 28 45  1  0
 29 46  1  0
 29 47  1  0
 29 48  1  0
M  ISO  8  34  14  35  14  36  14  37  14  38  14  39  14  40   8  41   8
M  ISO  7  42   8  43   8  44   8  45   8  46   8  47   8  48   8
M  END
>  <minimizedAffinity>  (1) 
-6.92079973

>  <minimizedRMSD>  (1) 
0.163107425

$$$$
