
     RDKit          3D

 47 50  0  0  0  0  0  0  0  0999 V2000
   37.3020   26.6560   41.0700 C   0  0  0  0  0  0  0  0  0  0  0  0
   38.3360   26.3750   41.9660 C   0  0  0  0  0  0  0  0  0  0  0  0
   38.8210   27.4070   42.7890 C   0  0  0  0  0  0  0  0  0  0  0  0
   38.2330   28.6410   42.6520 N   0  0  0  0  0  0  0  0  0  0  0  0
   37.2350   28.8930   41.7810 C   0  0  0  0  0  0  0  0  0  0  0  0
   36.7630   27.9050   40.9870 N   0  0  0  0  0  0  0  0  0  0  0  0
   39.8460   27.1760   43.6880 N   0  0  0  0  0  0  0  0  0  0  0  0
   36.7750   25.6840   40.2240 N   0  0  0  0  0  0  0  0  0  0  0  0
   36.7450   30.1860   41.7580 O   0  0  0  0  0  0  0  0  0  0  0  0
   37.0340   31.0870   40.7550 C   0  0  0  0  0  0  0  0  0  0  0  0
   36.6700   31.3700   39.4960 N   0  0  0  0  0  0  0  0  0  0  0  0
   37.3410   32.3940   39.0640 O   0  0  0  0  0  0  0  0  0  0  0  0
   38.1610   32.8210   40.0050 C   0  0  0  0  0  0  0  0  0  0  0  0
   37.9750   32.0130   41.0590 N   0  0  0  0  0  0  0  0  0  0  0  0
   39.0900   33.9560   39.9120 C   0  0  0  0  0  0  0  0  0  0  0  0
   38.7890   35.2240   40.3660 C   0  0  0  0  0  0  0  0  0  0  0  0
   39.7420   36.2340   40.2300 C   0  0  0  0  0  0  0  0  0  0  0  0
   40.9670   36.0040   39.6590 C   0  0  0  0  0  0  0  0  0  0  0  0
   41.2630   34.7360   39.2060 C   0  0  0  0  0  0  0  0  0  0  0  0
   40.3230   33.7210   39.3360 C   0  0  0  0  0  0  0  0  0  0  0  0
   40.6540   32.3840   38.8510 C   0  0  0  0  0  0  0  0  0  0  0  0
   40.4660   31.9020   37.6080 N   0  0  0  0  0  0  0  0  0  0  0  0
   40.8880   30.6630   37.5610 O   0  0  0  0  0  0  0  0  0  0  0  0
   41.3580   30.2940   38.7460 C   0  0  0  0  0  0  0  0  0  0  0  0
   41.2080   31.3830   39.5570 N   0  0  0  0  0  0  0  0  0  0  0  0
   38.8250   25.0030   41.9620 C   0  0  0  0  0  0  0  0  0  0  0  0
   37.6860   23.9950   41.7740 C   0  0  0  0  0  0  0  0  0  0  0  0
   39.5990   24.5590   43.1480 C   0  0  0  0  0  0  0  0  0  0  0  0
   39.7460   24.8700   40.7610 C   0  0  0  0  0  0  0  0  0  0  0  0
   40.1906   27.9420   44.2841 H   0  0  0  0  0  0  0  0  0  0  0  0
   40.2649   26.2379   43.7615 H   0  0  0  0  0  0  0  0  0  0  0  0
   36.0124   25.9248   39.5749 H   0  0  0  0  0  0  0  0  0  0  0  0
   37.1477   24.7241   40.2472 H   0  0  0  0  0  0  0  0  0  0  0  0
   37.8132   35.4351   40.8278 H   0  0  0  0  0  0  0  0  0  0  0  0
   39.5033   37.2450   40.5917 H   0  0  0  0  0  0  0  0  0  0  0  0
   41.7013   36.8175   39.5639 H   0  0  0  0  0  0  0  0  0  0  0  0
   42.2393   34.5287   38.7436 H   0  0  0  0  0  0  0  0  0  0  0  0
   41.7802   29.3155   39.0183 H   0  0  0  0  0  0  0  0  0  0  0  0
   37.3182   23.6695   42.7583 H   0  0  0  0  0  0  0  0  0  0  0  0
   36.8659   24.4686   41.2144 H   0  0  0  0  0  0  0  0  0  0  0  0
   38.0564   23.1234   41.2144 H   0  0  0  0  0  0  0  0  0  0  0  0
   39.0714   24.8617   44.0645 H   0  0  0  0  0  0  0  0  0  0  0  0
   39.7027   23.4641   43.1292 H   0  0  0  0  0  0  0  0  0  0  0  0
   40.5965   25.0222   43.1292 H   0  0  0  0  0  0  0  0  0  0  0  0
   40.7797   24.7207   41.1064 H   0  0  0  0  0  0  0  0  0  0  0  0
   39.4342   24.0076   40.1536 H   0  0  0  0  0  0  0  0  0  0  0  0
   39.6909   25.7854   40.1536 H   0  0  0  0  0  0  0  0  0  0  0  0
  1  2  2  0
  2  3  1  0
  3  7  1  0
  4  3  2  0
  5  4  1  0
  6  1  1  0
  6  5  2  0
  8  1  1  0
  9  5  1  0
 10 14  1  0
 10  9  1  0
 11 10  2  0
 12 11  1  0
 12 13  1  0
 13 14  2  0
 15 13  1  0
 15 16  2  0
 17 16  1  0
 18 17  2  0
 19 20  2  0
 19 18  1  0
 20 15  1  0
 21 20  1  0
 21 25  1  0
 22 21  2  0
 23 22  1  0
 23 24  1  0
 24 25  2  0
 26  2  1  0
 26 28  1  0
 27 26  1  0
 29 26  1  0
  7 30  1  0
  7 31  1  0
  8 32  1  0
  8 33  1  0
 16 34  1  0
 17 35  1  0
 18 36  1  0
 19 37  1  0
 24 38  1  0
 27 39  1  0
 27 40  1  0
 27 41  1  0
 28 42  1  0
 28 43  1  0
 28 44  1  0
 29 45  1  0
 29 46  1  0
 29 47  1  0
M  ISO  8  34  14  35  14  36  14  37  14  38  14  39   8  40   8  41   8
M  ISO  6  42   8  43   8  44   8  45   8  46   8  47   8
M  END
>  <minimizedAffinity>  (1) 
-6.91142607

>  <minimizedRMSD>  (1) 
0.386861086

$$$$
