
     RDKit          3D

 31 33  0  0  1  0  0  0  0  0999 V2000
   37.8180   31.3500   41.1050 C   0  0  0  0  0  0  0  0  0  0  0  0
   36.5390   31.2710   40.5280 C   0  0  0  0  0  0  0  0  0  0  0  0
   35.8900   30.0360   40.5770 C   0  0  0  0  0  0  0  0  0  0  0  0
   36.5330   29.0000   41.1750 N   0  0  0  0  0  0  0  0  0  0  0  0
   37.7380   29.0840   41.7170 C   0  0  0  0  0  0  0  0  0  0  0  0
   38.3870   30.2790   41.6800 N   0  0  0  0  0  0  0  0  0  0  0  0
   38.4210   28.0200   42.3420 N   0  0  0  0  0  0  0  0  0  0  0  0
   39.4690   28.3610   43.0980 N   0  0  0  0  0  0  0  0  0  0  0  0
   40.0050   27.2270   43.6160 C   0  0  0  0  0  0  0  0  0  0  0  0
   39.2210   26.1890   43.1290 C   0  0  0  0  0  0  0  0  0  0  0  0
   38.2200   26.7060   42.3230 C   0  0  0  0  0  0  0  0  0  0  0  0
   37.1860   25.9700   41.6420 C   0  0  1  0  0  0  0  0  0  0  0  0
   37.3570   25.9960   40.1170 C   0  0  0  0  0  0  0  0  0  0  0  0
   36.3980   24.8920   39.6910 C   0  0  0  0  0  0  0  0  0  0  0  0
   36.2030   23.9980   40.9040 C   0  0  0  0  0  0  0  0  0  0  0  0
   37.2860   24.4830   41.8680 C   0  0  1  0  0  0  0  0  0  0  0  0
   38.8350   23.7800   41.2240 S   0  0  0  0  0  0  0  0  0  0  0  0
   38.3620   32.3058   41.0850 H   0  0  0  0  0  0  0  0  0  0  0  0
   36.0685   32.1466   40.0570 H   0  0  0  0  0  0  0  0  0  0  0  0
   34.8872   29.9058   40.1440 H   0  0  0  0  0  0  0  0  0  0  0  0
   40.8771   27.1467   44.2816 H   0  0  0  0  0  0  0  0  0  0  0  0
   39.3716   25.1218   43.3492 H   0  0  0  0  0  0  0  0  0  0  0  0
   36.2673   26.4404   42.0225 H   0  0  0  0  0  0  0  0  0  0  0  0
   37.0641   26.9688   39.6954 H   0  0  0  0  0  0  0  0  0  0  0  0
   38.3928   25.8493   39.7770 H   0  0  0  0  0  0  0  0  0  0  0  0
   35.4358   25.3240   39.3788 H   0  0  0  0  0  0  0  0  0  0  0  0
   36.7989   24.3240   38.8386 H   0  0  0  0  0  0  0  0  0  0  0  0
   35.2004   24.1318   41.3364 H   0  0  0  0  0  0  0  0  0  0  0  0
   36.2810   22.9262   40.6690 H   0  0  0  0  0  0  0  0  0  0  0  0
   37.2138   24.2176   42.9331 H   0  0  0  0  0  0  0  0  0  0  0  0
   39.6403   23.4145   42.2703 H   0  0  0  0  0  0  0  0  0  0  0  0
  1  6  2  0
  2  3  2  0
  2  1  1  0
  3  4  1  0
  4  5  2  0
  5  7  1  0
  6  5  1  0
  7  8  1  0
  8  9  2  0
 10  9  1  0
 11  7  1  0
 11 10  2  0
 12 16  1  0
 12 11  1  0
 13 12  1  0
 14 13  1  0
 14 15  1  0
 15 16  1  0
 17 16  1  0
  1 18  1  0
  2 19  1  0
  3 20  1  0
  9 21  1  0
 10 22  1  0
 12 23  1  6
 13 24  1  0
 13 25  1  0
 14 26  1  0
 14 27  1  0
 15 28  1  0
 15 29  1  0
 16 30  1  1
 17 31  1  0
M  ISO  8  18  14  19  14  20  14  21  14  22  14  23  13  24  13  25  13
M  ISO  6  26  13  27  13  28  13  29  13  30  13  31  11
M  END
>  <minimizedAffinity>  (1) 
-4.87502384

>  <minimizedRMSD>  (1) 
0.1715087

$$$$
