
     RDKit          3D

 49 52  0  0  0  0  0  0  0  0999 V2000
   37.2940   26.6880   41.0670 C   0  0  0  0  0  0  0  0  0  0  0  0
   38.3370   26.4140   41.9650 C   0  0  0  0  0  0  0  0  0  0  0  0
   38.8240   27.4540   42.7650 C   0  0  0  0  0  0  0  0  0  0  0  0
   38.2410   28.6900   42.6150 N   0  0  0  0  0  0  0  0  0  0  0  0
   37.2380   28.9390   41.7470 C   0  0  0  0  0  0  0  0  0  0  0  0
   36.7600   27.9430   40.9700 N   0  0  0  0  0  0  0  0  0  0  0  0
   39.8560   27.2370   43.6660 N   0  0  0  0  0  0  0  0  0  0  0  0
   36.7630   25.7020   40.2330 N   0  0  0  0  0  0  0  0  0  0  0  0
   36.7580   30.2330   41.7130 O   0  0  0  0  0  0  0  0  0  0  0  0
   37.0570   31.1220   40.7100 C   0  0  0  0  0  0  0  0  0  0  0  0
   36.7270   31.3840   39.4330 N   0  0  0  0  0  0  0  0  0  0  0  0
   37.3890   32.4160   39.0040 O   0  0  0  0  0  0  0  0  0  0  0  0
   38.1620   32.8660   39.9550 C   0  0  0  0  0  0  0  0  0  0  0  0
   37.9730   32.0690   41.0380 N   0  0  0  0  0  0  0  0  0  0  0  0
   39.0790   34.0220   39.8870 C   0  0  0  0  0  0  0  0  0  0  0  0
   38.7200   35.2940   40.2870 C   0  0  0  0  0  0  0  0  0  0  0  0
   39.6620   36.3270   40.1840 C   0  0  0  0  0  0  0  0  0  0  0  0
   40.9410   36.1010   39.6920 C   0  0  0  0  0  0  0  0  0  0  0  0
   41.2620   34.8340   39.3060 C   0  0  0  0  0  0  0  0  0  0  0  0
   40.3530   33.8100   39.3990 C   0  0  0  0  0  0  0  0  0  0  0  0
   40.8240   32.4750   38.9480 C   0  0  0  0  0  0  0  0  0  0  0  0
   40.8730   32.1000   37.5750 C   0  0  0  0  0  0  0  0  0  0  0  0
   41.3310   30.8360   37.3170 C   0  0  0  0  0  0  0  0  0  0  0  0
   41.7250   29.9660   38.2930 C   0  0  0  0  0  0  0  0  0  0  0  0
   41.4330   31.0190   39.8460 S   0  0  0  0  0  0  0  0  0  0  0  0
   38.8120   25.0460   41.9760 C   0  0  0  0  0  0  0  0  0  0  0  0
   37.6700   24.0310   41.8110 C   0  0  0  0  0  0  0  0  0  0  0  0
   39.6010   24.6110   43.1610 C   0  0  0  0  0  0  0  0  0  0  0  0
   39.7210   24.8850   40.7610 C   0  0  0  0  0  0  0  0  0  0  0  0
   40.2034   28.0127   44.2478 H   0  0  0  0  0  0  0  0  0  0  0  0
   40.2750   26.3001   43.7533 H   0  0  0  0  0  0  0  0  0  0  0  0
   35.9974   25.9338   39.5841 H   0  0  0  0  0  0  0  0  0  0  0  0
   37.1369   24.7428   40.2667 H   0  0  0  0  0  0  0  0  0  0  0  0
   37.7120   35.4933   40.6798 H   0  0  0  0  0  0  0  0  0  0  0  0
   39.3811   37.3422   40.5008 H   0  0  0  0  0  0  0  0  0  0  0  0
   41.6722   36.9193   39.6162 H   0  0  0  0  0  0  0  0  0  0  0  0
   42.2684   34.6283   38.9126 H   0  0  0  0  0  0  0  0  0  0  0  0
   40.5620   32.7838   36.7714 H   0  0  0  0  0  0  0  0  0  0  0  0
   41.3844   30.5041   36.2696 H   0  0  0  0  0  0  0  0  0  0  0  0
   42.1065   28.9381   38.2041 H   0  0  0  0  0  0  0  0  0  0  0  0
   37.3143   23.7149   42.8027 H   0  0  0  0  0  0  0  0  0  0  0  0
   36.8425   24.4971   41.2561 H   0  0  0  0  0  0  0  0  0  0  0  0
   38.0358   23.1545   41.2561 H   0  0  0  0  0  0  0  0  0  0  0  0
   39.0724   24.9025   44.0806 H   0  0  0  0  0  0  0  0  0  0  0  0
   39.7232   23.5180   43.1390 H   0  0  0  0  0  0  0  0  0  0  0  0
   40.5905   25.0911   43.1390 H   0  0  0  0  0  0  0  0  0  0  0  0
   40.7525   24.7023   41.0965 H   0  0  0  0  0  0  0  0  0  0  0  0
   39.3762   24.0339   40.1553 H   0  0  0  0  0  0  0  0  0  0  0  0
   39.6895   25.8027   40.1553 H   0  0  0  0  0  0  0  0  0  0  0  0
  1  2  2  0
  2 26  1  0
  2  3  1  0
  3  7  1  0
  4  3  2  0
  5  4  1  0
  6  1  1  0
  6  5  2  0
  8  1  1  0
  9  5  1  0
 10 14  1  0
 10  9  1  0
 11 10  2  0
 12 11  1  0
 12 13  1  0
 13 14  2  0
 15 13  1  0
 15 16  2  0
 17 16  1  0
 18 17  2  0
 19 20  2  0
 19 18  1  0
 20 15  1  0
 21 20  1  0
 21 25  1  0
 22 21  2  0
 23 22  1  0
 23 24  2  0
 24 25  1  0
 26 28  1  0
 27 26  1  0
 29 26  1  0
  7 30  1  0
  7 31  1  0
  8 32  1  0
  8 33  1  0
 16 34  1  0
 17 35  1  0
 18 36  1  0
 19 37  1  0
 22 38  1  0
 23 39  1  0
 24 40  1  0
 27 41  1  0
 27 42  1  0
 27 43  1  0
 28 44  1  0
 28 45  1  0
 28 46  1  0
 29 47  1  0
 29 48  1  0
 29 49  1  0
M  ISO  8  34  14  35  14  36  14  37  14  38  14  39  14  40  14  41   8
M  ISO  8  42   8  43   8  44   8  45   8  46   8  47   8  48   8  49   8
M  END
>  <minimizedAffinity>  (1) 
-6.87972879

>  <minimizedRMSD>  (1) 
0.47545746

$$$$
