
     RDKit          3D

 45 47  0  0  0  0  0  0  0  0999 V2000
   37.3190   26.6030   41.0750 C   0  0  0  0  0  0  0  0  0  0  0  0
   38.3530   26.3040   41.9820 C   0  0  0  0  0  0  0  0  0  0  0  0
   38.8290   27.3200   42.8290 C   0  0  0  0  0  0  0  0  0  0  0  0
   38.2490   28.5500   42.7130 N   0  0  0  0  0  0  0  0  0  0  0  0
   37.2580   28.8220   41.8380 C   0  0  0  0  0  0  0  0  0  0  0  0
   36.7860   27.8520   41.0120 N   0  0  0  0  0  0  0  0  0  0  0  0
   39.8440   27.0570   43.7280 N   0  0  0  0  0  0  0  0  0  0  0  0
   36.8070   25.6440   40.2090 N   0  0  0  0  0  0  0  0  0  0  0  0
   36.7670   30.1170   41.8370 O   0  0  0  0  0  0  0  0  0  0  0  0
   37.0190   31.0220   40.8270 C   0  0  0  0  0  0  0  0  0  0  0  0
   36.6200   31.3080   39.5800 N   0  0  0  0  0  0  0  0  0  0  0  0
   37.2700   32.3400   39.1300 O   0  0  0  0  0  0  0  0  0  0  0  0
   38.1060   32.7630   40.0470 C   0  0  0  0  0  0  0  0  0  0  0  0
   37.9700   31.9510   41.1270 N   0  0  0  0  0  0  0  0  0  0  0  0
   39.0300   33.9060   39.9400 C   0  0  0  0  0  0  0  0  0  0  0  0
   38.7230   35.1910   40.2800 C   0  0  0  0  0  0  0  0  0  0  0  0
   39.6550   36.2080   40.1460 C   0  0  0  0  0  0  0  0  0  0  0  0
   40.9230   35.9470   39.6630 C   0  0  0  0  0  0  0  0  0  0  0  0
   41.2420   34.6540   39.3160 C   0  0  0  0  0  0  0  0  0  0  0  0
   40.3070   33.6530   39.4530 C   0  0  0  0  0  0  0  0  0  0  0  0
   40.7370   32.2720   39.0530 C   0  0  0  0  0  0  0  0  0  0  0  0
   38.8370   24.9240   41.9490 C   0  0  0  0  0  0  0  0  0  0  0  0
   37.6970   23.9260   41.7190 C   0  0  0  0  0  0  0  0  0  0  0  0
   39.5920   24.4660   43.1430 C   0  0  0  0  0  0  0  0  0  0  0  0
   39.7720   24.8220   40.7540 C   0  0  0  0  0  0  0  0  0  0  0  0
   40.1901   27.8040   44.3470 H   0  0  0  0  0  0  0  0  0  0  0  0
   40.2548   26.1139   43.7795 H   0  0  0  0  0  0  0  0  0  0  0  0
   36.0501   25.8916   39.5558 H   0  0  0  0  0  0  0  0  0  0  0  0
   37.1845   24.6857   40.2204 H   0  0  0  0  0  0  0  0  0  0  0  0
   37.7198   35.4237   40.6666 H   0  0  0  0  0  0  0  0  0  0  0  0
   39.3819   37.2357   40.4276 H   0  0  0  0  0  0  0  0  0  0  0  0
   41.6616   36.7553   39.5581 H   0  0  0  0  0  0  0  0  0  0  0  0
   42.2448   34.4203   38.9289 H   0  0  0  0  0  0  0  0  0  0  0  0
   40.9242   31.6706   39.9548 H   0  0  0  0  0  0  0  0  0  0  0  0
   39.9434   31.7995   38.4555 H   0  0  0  0  0  0  0  0  0  0  0  0
   41.6585   32.3336   38.4555 H   0  0  0  0  0  0  0  0  0  0  0  0
   37.3071   23.5847   42.6893 H   0  0  0  0  0  0  0  0  0  0  0  0
   36.8912   24.4143   41.1513 H   0  0  0  0  0  0  0  0  0  0  0  0
   38.0744   23.0627   41.1513 H   0  0  0  0  0  0  0  0  0  0  0  0
   39.0655   24.7854   44.0545 H   0  0  0  0  0  0  0  0  0  0  0  0
   39.6690   23.3688   43.1295 H   0  0  0  0  0  0  0  0  0  0  0  0
   40.6007   24.9046   43.1295 H   0  0  0  0  0  0  0  0  0  0  0  0
   40.8076   24.7090   41.1073 H   0  0  0  0  0  0  0  0  0  0  0  0
   39.4950   23.9487   40.1452 H   0  0  0  0  0  0  0  0  0  0  0  0
   39.6898   25.7344   40.1452 H   0  0  0  0  0  0  0  0  0  0  0  0
  1  2  2  0
  2  3  1  0
  3  7  1  0
  4  3  2  0
  5  4  1  0
  6  1  1  0
  6  5  2  0
  8  1  1  0
  9  5  1  0
 10 14  1  0
 10  9  1  0
 11 10  2  0
 12 11  1  0
 12 13  1  0
 13 14  2  0
 15 13  1  0
 15 16  2  0
 17 16  1  0
 18 17  2  0
 19 20  2  0
 19 18  1  0
 20 15  1  0
 21 20  1  0
 22  2  1  0
 22 24  1  0
 23 22  1  0
 25 22  1  0
  7 26  1  0
  7 27  1  0
  8 28  1  0
  8 29  1  0
 16 30  1  0
 17 31  1  0
 18 32  1  0
 19 33  1  0
 21 34  1  0
 21 35  1  0
 21 36  1  0
 23 37  1  0
 23 38  1  0
 23 39  1  0
 24 40  1  0
 24 41  1  0
 24 42  1  0
 25 43  1  0
 25 44  1  0
 25 45  1  0
M  ISO  8  30  14  31  14  32  14  33  14  34   8  35   8  36   8  37   8
M  ISO  8  38   8  39   8  40   8  41   8  42   8  43   8  44   8  45   8
M  END
>  <minimizedAffinity>  (1) 
-6.62826204

>  <minimizedRMSD>  (1) 
0.0312855057

$$$$
