
     RDKit          3D

 45 48  0  0  1  0  0  0  0  0999 V2000
   36.9460   26.8500   40.0330 C   0  0  1  0  0  0  0  0  0  0  0  0
   37.1310   25.4620   40.6650 C   0  0  0  0  0  0  0  0  0  0  0  0
   36.8830   25.7840   42.1360 C   0  0  0  0  0  0  0  0  0  0  0  0
   37.2040   27.2410   42.3020 C   0  0  0  0  0  0  0  0  0  0  0  0
   37.7540   27.6920   40.9760 C   0  0  2  0  0  0  0  0  0  0  0  0
   33.9370   28.4810   35.8190 C   0  0  0  0  0  0  0  0  0  0  0  0
   33.0760   28.9510   36.8250 C   0  0  0  0  0  0  0  0  0  0  0  0
   33.5390   28.8710   38.1270 C   0  0  0  0  0  0  0  0  0  0  0  0
   34.7760   28.3520   38.3500 N   0  0  0  0  0  0  0  0  0  0  0  0
   35.5760   27.9120   37.3870 C   0  0  0  0  0  0  0  0  0  0  0  0
   35.1510   27.9770   36.0990 N   0  0  0  0  0  0  0  0  0  0  0  0
   36.8730   27.3540   37.5640 N   0  0  0  0  0  0  0  0  0  0  0  0
   37.6350   27.2580   36.4930 N   0  0  0  0  0  0  0  0  0  0  0  0
   38.8200   26.6900   36.8630 C   0  0  0  0  0  0  0  0  0  0  0  0
   38.7170   26.4510   38.2390 C   0  0  0  0  0  0  0  0  0  0  0  0
   37.4650   26.8830   38.6700 C   0  0  0  0  0  0  0  0  0  0  0  0
   37.5900   29.0780   40.7070 N   0  0  0  0  0  0  0  0  0  0  0  0
   36.2210   29.5220   40.6890 C   0  0  0  0  0  0  0  0  0  0  0  0
   36.2630   30.9610   41.2240 C   0  0  0  0  0  0  0  0  0  0  0  0
   37.1970   31.7060   40.3130 C   0  0  0  0  0  0  0  0  0  0  0  0
   37.7060   30.8720   39.1590 C   0  0  0  0  0  0  0  0  0  0  0  0
   38.3780   29.5920   39.6290 C   0  0  0  0  0  0  0  0  0  0  0  0
   35.9020   27.1789   39.9244 H   0  0  0  0  0  0  0  0  0  0  0  0
   36.3964   24.7400   40.2790 H   0  0  0  0  0  0  0  0  0  0  0  0
   38.1044   24.9930   40.4586 H   0  0  0  0  0  0  0  0  0  0  0  0
   35.8317   25.5924   42.3970 H   0  0  0  0  0  0  0  0  0  0  0  0
   37.5026   25.1579   42.7949 H   0  0  0  0  0  0  0  0  0  0  0  0
   36.2951   27.8076   42.5526 H   0  0  0  0  0  0  0  0  0  0  0  0
   37.9237   27.4072   43.1171 H   0  0  0  0  0  0  0  0  0  0  0  0
   38.8451   27.5698   40.9081 H   0  0  0  0  0  0  0  0  0  0  0  0
   33.6074   28.5270   34.7705 H   0  0  0  0  0  0  0  0  0  0  0  0
   32.0833   29.3621   36.5896 H   0  0  0  0  0  0  0  0  0  0  0  0
   32.9183   29.2205   38.9652 H   0  0  0  0  0  0  0  0  0  0  0  0
   39.6792   26.4661   36.2137 H   0  0  0  0  0  0  0  0  0  0  0  0
   39.4939   25.9984   38.8726 H   0  0  0  0  0  0  0  0  0  0  0  0
   35.8215   29.5020   39.6643 H   0  0  0  0  0  0  0  0  0  0  0  0
   35.5687   28.8750   41.2940 H   0  0  0  0  0  0  0  0  0  0  0  0
   35.2594   31.4104   41.1952 H   0  0  0  0  0  0  0  0  0  0  0  0
   36.6021   30.9957   42.2698 H   0  0  0  0  0  0  0  0  0  0  0  0
   36.6639   32.5772   39.9046 H   0  0  0  0  0  0  0  0  0  0  0  0
   38.0718   31.9963   40.9133 H   0  0  0  0  0  0  0  0  0  0  0  0
   38.4346   31.4654   38.5872 H   0  0  0  0  0  0  0  0  0  0  0  0
   36.8426   30.5920   38.5377 H   0  0  0  0  0  0  0  0  0  0  0  0
   38.4164   28.8617   38.8073 H   0  0  0  0  0  0  0  0  0  0  0  0
   39.4102   29.7872   39.9552 H   0  0  0  0  0  0  0  0  0  0  0  0
  1  2  1  0
  1  5  1  0
  2  3  1  0
  3  4  1  0
  5  4  1  0
  6 11  2  0
  6  7  1  0
  7  8  2  0
  8  9  1  0
 10 12  1  0
 10  9  2  0
 11 10  1  0
 12 16  1  0
 13 14  2  0
 13 12  1  0
 14 15  1  0
 15 16  2  0
 16  1  1  0
 17  5  1  0
 18 17  1  0
 18 19  1  0
 20 19  1  0
 21 22  1  0
 21 20  1  0
 22 17  1  0
  1 23  1  6
  2 24  1  0
  2 25  1  0
  3 26  1  0
  3 27  1  0
  4 28  1  0
  4 29  1  0
  5 30  1  1
  6 31  1  0
  7 32  1  0
  8 33  1  0
 14 34  1  0
 15 35  1  0
 18 36  1  0
 18 37  1  0
 19 38  1  0
 19 39  1  0
 20 40  1  0
 20 41  1  0
 21 42  1  0
 21 43  1  0
 22 44  1  0
 22 45  1  0
M  ISO  8  23  13  24  13  25  13  26  13  27  13  28  13  29  13  30  13
M  ISO  8  31  14  32  14  33  14  34  14  35  14  36  13  37  13  38  13
M  ISO  7  39  13  40  13  41  13  42  13  43  13  44  13  45  13
M  END
>  <minimizedAffinity>  (1) 
-4.62917662

>  <minimizedRMSD>  (1) 
5.75188446

$$$$
