
     RDKit          3D

 33 35  0  0  0  0  0  0  0  0999 V2000
   37.2640   28.5130   41.2320 C   0  0  0  0  0  0  0  0  0  0  0  0
   37.3910   29.1240   42.4990 C   0  0  0  0  0  0  0  0  0  0  0  0
   37.3540   28.4460   43.7020 C   0  0  0  0  0  0  0  0  0  0  0  0
   37.1830   27.0760   43.6780 C   0  0  0  0  0  0  0  0  0  0  0  0
   37.0550   26.4240   42.4790 C   0  0  0  0  0  0  0  0  0  0  0  0
   36.8920   25.0510   42.4450 C   0  0  0  0  0  0  0  0  0  0  0  0
   36.7660   24.3460   41.2610 C   0  0  0  0  0  0  0  0  0  0  0  0
   36.8160   25.1180   40.1050 C   0  0  0  0  0  0  0  0  0  0  0  0
   36.9780   26.4720   40.1650 C   0  0  0  0  0  0  0  0  0  0  0  0
   37.1020   27.1660   41.3270 C   0  0  0  0  0  0  0  0  0  0  0  0
   37.3310   29.3900   40.1100 C   0  0  0  0  0  0  0  0  0  0  0  0
   36.3830   29.6940   39.1380 C   0  0  0  0  0  0  0  0  0  0  0  0
   36.5940   30.6110   38.1150 C   0  0  0  0  0  0  0  0  0  0  0  0
   37.8110   31.2100   38.1180 N   0  0  0  0  0  0  0  0  0  0  0  0
   38.7430   30.9460   39.0270 C   0  0  0  0  0  0  0  0  0  0  0  0
   38.4890   30.0570   39.9860 N   0  0  0  0  0  0  0  0  0  0  0  0
   40.0330   31.5960   39.0120 N   0  0  0  0  0  0  0  0  0  0  0  0
   40.3600   32.5480   38.0110 C   0  0  0  0  0  0  0  0  0  0  0  0
   39.9630   32.3150   36.8160 N   0  0  0  0  0  0  0  0  0  0  0  0
   41.0990   33.7030   38.3440 N   0  0  0  0  0  0  0  0  0  0  0  0
   39.4320   31.5270   36.4560 H   0  0  0  0  0  0  0  0  0  0  0  0
   37.5289   30.2149   42.5300 H   0  0  0  0  0  0  0  0  0  0  0  0
   37.4582   28.9843   44.6556 H   0  0  0  0  0  0  0  0  0  0  0  0
   37.1495   26.5086   44.6198 H   0  0  0  0  0  0  0  0  0  0  0  0
   36.8613   24.4983   43.3956 H   0  0  0  0  0  0  0  0  0  0  0  0
   36.6357   23.2540   41.2358 H   0  0  0  0  0  0  0  0  0  0  0  0
   36.7233   24.6283   39.1244 H   0  0  0  0  0  0  0  0  0  0  0  0
   37.0100   27.0332   39.2195 H   0  0  0  0  0  0  0  0  0  0  0  0
   35.4117   29.1796   39.1816 H   0  0  0  0  0  0  0  0  0  0  0  0
   35.8288   30.8349   37.3572 H   0  0  0  0  0  0  0  0  0  0  0  0
   40.7258   31.3653   39.7384 H   0  0  0  0  0  0  0  0  0  0  0  0
   41.3345   34.3916   37.6151 H   0  0  0  0  0  0  0  0  0  0  0  0
   41.4030   33.8575   39.3159 H   0  0  0  0  0  0  0  0  0  0  0  0
  1 10  1  0
  1  2  2  0
  2  3  1  0
  4  3  2  0
  5  4  1  0
  6  5  2  0
  7  6  1  0
  8  9  1  0
  8  7  2  0
  9 10  2  0
 10  5  1  0
 11  1  1  0
 12 11  2  0
 13 14  2  0
 13 12  1  0
 14 15  1  0
 15 16  2  0
 16 11  1  0
 17 15  1  0
 18 20  1  0
 18 17  1  0
 19 18  2  0
 21 19  1  0
  2 22  1  0
  3 23  1  0
  4 24  1  0
  6 25  1  0
  7 26  1  0
  8 27  1  0
  9 28  1  0
 12 29  1  0
 13 30  1  0
 17 31  1  0
 20 32  1  0
 20 33  1  0
M  ISO  8  22  14  23  14  24  14  25  14  26  14  27  14  28  14  29  14
M  ISO  1  30  14
M  END
>  <minimizedAffinity>  (1) 
-6.75183201

>  <minimizedRMSD>  (1) 
0.768463492

$$$$
