
     RDKit          3D

 39 42  0  0  0  0  0  0  0  0999 V2000
   37.4470   28.7950   41.2670 C   0  0  0  0  0  0  0  0  0  0  0  0
   37.5470   29.3580   42.5580 C   0  0  0  0  0  0  0  0  0  0  0  0
   37.4580   28.6400   43.7380 C   0  0  0  0  0  0  0  0  0  0  0  0
   37.2560   27.2760   43.6590 C   0  0  0  0  0  0  0  0  0  0  0  0
   37.1500   26.6690   42.4370 C   0  0  0  0  0  0  0  0  0  0  0  0
   36.9540   25.3050   42.3490 C   0  0  0  0  0  0  0  0  0  0  0  0
   36.8440   24.6400   41.1350 C   0  0  0  0  0  0  0  0  0  0  0  0
   36.9490   25.4530   40.0100 C   0  0  0  0  0  0  0  0  0  0  0  0
   37.1430   26.7990   40.1270 C   0  0  0  0  0  0  0  0  0  0  0  0
   37.2500   27.4510   41.3160 C   0  0  0  0  0  0  0  0  0  0  0  0
   37.5660   29.7040   40.1800 C   0  0  0  0  0  0  0  0  0  0  0  0
   36.6370   30.0650   39.1930 C   0  0  0  0  0  0  0  0  0  0  0  0
   36.9010   31.0120   38.2080 C   0  0  0  0  0  0  0  0  0  0  0  0
   38.1330   31.5760   38.2600 N   0  0  0  0  0  0  0  0  0  0  0  0
   39.0360   31.2570   39.1800 C   0  0  0  0  0  0  0  0  0  0  0  0
   38.7460   30.3450   40.1080 N   0  0  0  0  0  0  0  0  0  0  0  0
   40.3050   31.9130   39.1420 N   0  0  0  0  0  0  0  0  0  0  0  0
   40.9710   32.0510   37.8590 C   0  0  0  0  0  0  0  0  0  0  0  0
   41.6060   33.4450   37.8510 C   0  0  0  0  0  0  0  0  0  0  0  0
   42.5630   33.4330   38.8420 O   0  0  0  0  0  0  0  0  0  0  0  0
   41.9080   33.5260   40.0660 C   0  0  0  0  0  0  0  0  0  0  0  0
   40.9270   32.4340   40.3220 C   0  0  0  0  0  0  0  0  0  0  0  0
   37.7069   30.4439   42.6312 H   0  0  0  0  0  0  0  0  0  0  0  0
   37.5458   29.1423   44.7127 H   0  0  0  0  0  0  0  0  0  0  0  0
   37.1803   26.6773   44.5787 H   0  0  0  0  0  0  0  0  0  0  0  0
   36.8821   24.7213   43.2786 H   0  0  0  0  0  0  0  0  0  0  0  0
   36.6859   23.5535   41.0675 H   0  0  0  0  0  0  0  0  0  0  0  0
   36.8743   25.0028   39.0091 H   0  0  0  0  0  0  0  0  0  0  0  0
   37.2173   27.3925   39.2038 H   0  0  0  0  0  0  0  0  0  0  0  0
   35.6518   29.5757   39.1978 H   0  0  0  0  0  0  0  0  0  0  0  0
   36.1615   31.2841   37.4405 H   0  0  0  0  0  0  0  0  0  0  0  0
   41.7464   31.2788   37.7475 H   0  0  0  0  0  0  0  0  0  0  0  0
   40.2627   31.9299   37.0262 H   0  0  0  0  0  0  0  0  0  0  0  0
   42.0698   33.6479   36.8744 H   0  0  0  0  0  0  0  0  0  0  0  0
   40.8556   34.2301   38.0256 H   0  0  0  0  0  0  0  0  0  0  0  0
   42.6647   33.5032   40.8641 H   0  0  0  0  0  0  0  0  0  0  0  0
   41.3354   34.4650   40.0459 H   0  0  0  0  0  0  0  0  0  0  0  0
   40.1394   32.8260   40.9823 H   0  0  0  0  0  0  0  0  0  0  0  0
   41.4898   31.6042   40.7744 H   0  0  0  0  0  0  0  0  0  0  0  0
  1 10  1  0
  1  2  2  0
  2  3  1  0
  4  3  2  0
  5  4  1  0
  6  5  2  0
  7  6  1  0
  8  9  1  0
  8  7  2  0
  9 10  2  0
 10  5  1  0
 11  1  1  0
 12 11  2  0
 13 14  2  0
 13 12  1  0
 14 15  1  0
 15 16  2  0
 16 11  1  0
 17 15  1  0
 17 22  1  0
 18 17  1  0
 19 18  1  0
 19 20  1  0
 20 21  1  0
 21 22  1  0
  2 23  1  0
  3 24  1  0
  4 25  1  0
  6 26  1  0
  7 27  1  0
  8 28  1  0
  9 29  1  0
 12 30  1  0
 13 31  1  0
 18 32  1  0
 18 33  1  0
 19 34  1  0
 19 35  1  0
 21 36  1  0
 21 37  1  0
 22 38  1  0
 22 39  1  0
M  ISO  8  23  14  24  14  25  14  26  14  27  14  28  14  29  14  30  14
M  ISO  8  31  14  32  13  33  13  34  13  35  13  36  13  37  13  38  13
M  ISO  1  39  13
M  END
>  <minimizedAffinity>  (1) 
-6.30291557

>  <minimizedRMSD>  (1) 
1.16507697

$$$$
