
     RDKit          3D

 38 41  0  0  0  0  0  0  0  0999 V2000
   37.3280   28.5570   41.0720 C   0  0  0  0  0  0  0  0  0  0  0  0
   37.4790   29.2250   42.3050 C   0  0  0  0  0  0  0  0  0  0  0  0
   37.4450   28.5950   43.5340 C   0  0  0  0  0  0  0  0  0  0  0  0
   37.2530   27.2240   43.5720 C   0  0  0  0  0  0  0  0  0  0  0  0
   37.1020   26.5230   42.4060 C   0  0  0  0  0  0  0  0  0  0  0  0
   36.9260   25.1590   42.4370 C   0  0  0  0  0  0  0  0  0  0  0  0
   36.7850   24.4020   41.2870 C   0  0  0  0  0  0  0  0  0  0  0  0
   36.8320   25.1210   40.0990 C   0  0  0  0  0  0  0  0  0  0  0  0
   37.0070   26.4750   40.0980 C   0  0  0  0  0  0  0  0  0  0  0  0
   37.1470   27.2200   41.2270 C   0  0  0  0  0  0  0  0  0  0  0  0
   37.3830   29.3810   39.9070 C   0  0  0  0  0  0  0  0  0  0  0  0
   36.4190   29.5980   38.9090 C   0  0  0  0  0  0  0  0  0  0  0  0
   36.6230   30.4800   37.8520 C   0  0  0  0  0  0  0  0  0  0  0  0
   37.8160   31.1250   37.8390 N   0  0  0  0  0  0  0  0  0  0  0  0
   38.7460   30.9340   38.7750 C   0  0  0  0  0  0  0  0  0  0  0  0
   38.5200   30.0840   39.7730 N   0  0  0  0  0  0  0  0  0  0  0  0
   39.9660   31.6600   38.6700 N   0  0  0  0  0  0  0  0  0  0  0  0
   40.7750   32.0680   39.8040 C   0  0  0  0  0  0  0  0  0  0  0  0
   41.9530   32.8020   39.2550 C   0  0  0  0  0  0  0  0  0  0  0  0
   41.4200   33.3130   37.9130 C   0  0  0  0  0  0  0  0  0  0  0  0
   40.6220   32.1190   37.4630 C   0  0  0  0  0  0  0  0  0  0  0  0
   37.6332   30.3140   42.2869 H   0  0  0  0  0  0  0  0  0  0  0  0
   37.5679   29.1705   44.4633 H   0  0  0  0  0  0  0  0  0  0  0  0
   37.2219   26.6989   44.5381 H   0  0  0  0  0  0  0  0  0  0  0  0
   36.8962   24.6510   43.4122 H   0  0  0  0  0  0  0  0  0  0  0  0
   36.6459   23.3111   41.3117 H   0  0  0  0  0  0  0  0  0  0  0  0
   36.7263   24.5896   39.1417 H   0  0  0  0  0  0  0  0  0  0  0  0
   37.0364   26.9931   39.1281 H   0  0  0  0  0  0  0  0  0  0  0  0
   35.4668   29.0501   38.9649 H   0  0  0  0  0  0  0  0  0  0  0  0
   35.8627   30.6441   37.0742 H   0  0  0  0  0  0  0  0  0  0  0  0
   40.1937   32.7269   40.4658 H   0  0  0  0  0  0  0  0  0  0  0  0
   41.0944   31.1960   40.3936 H   0  0  0  0  0  0  0  0  0  0  0  0
   42.2450   33.6351   39.9113 H   0  0  0  0  0  0  0  0  0  0  0  0
   42.8564   32.1811   39.1635 H   0  0  0  0  0  0  0  0  0  0  0  0
   40.7845   34.2018   38.0402 H   0  0  0  0  0  0  0  0  0  0  0  0
   42.1964   33.6389   37.2052 H   0  0  0  0  0  0  0  0  0  0  0  0
   39.8823   32.4076   36.7017 H   0  0  0  0  0  0  0  0  0  0  0  0
   41.2479   31.3419   37.0000 H   0  0  0  0  0  0  0  0  0  0  0  0
  1 10  1  0
  1  2  2  0
  2  3  1  0
  3  4  2  0
  5  6  2  0
  5  4  1  0
  7  6  1  0
  8  7  2  0
  9  8  1  0
  9 10  2  0
 10  5  1  0
 11  1  1  0
 12 11  2  0
 13 12  1  0
 14 13  2  0
 14 15  1  0
 15 16  2  0
 16 11  1  0
 17 15  1  0
 17 18  1  0
 19 18  1  0
 20 19  1  0
 21 20  1  0
 21 17  1  0
  2 22  1  0
  3 23  1  0
  4 24  1  0
  6 25  1  0
  7 26  1  0
  8 27  1  0
  9 28  1  0
 12 29  1  0
 13 30  1  0
 18 31  1  0
 18 32  1  0
 19 33  1  0
 19 34  1  0
 20 35  1  0
 20 36  1  0
 21 37  1  0
 21 38  1  0
M  ISO  8  22  14  23  14  24  14  25  14  26  14  27  14  28  14  29  14
M  ISO  8  30  14  31  13  32  13  33  13  34  13  35  13  36  13  37  13
M  ISO  1  38  13
M  END
>  <minimizedAffinity>  (1) 
-6.173738

>  <minimizedRMSD>  (1) 
0.934612632

$$$$
