
     RDKit          3D

 36 39  0  0  0  0  0  0  0  0999 V2000
   37.4590   28.7680   41.2830 C   0  0  0  0  0  0  0  0  0  0  0  0
   37.6080   29.2940   42.5850 C   0  0  0  0  0  0  0  0  0  0  0  0
   37.5330   28.5620   43.7490 C   0  0  0  0  0  0  0  0  0  0  0  0
   37.2950   27.2050   43.6510 C   0  0  0  0  0  0  0  0  0  0  0  0
   37.1370   26.6160   42.4070 C   0  0  0  0  0  0  0  0  0  0  0  0
   36.9090   25.2700   42.3110 C   0  0  0  0  0  0  0  0  0  0  0  0
   36.7540   24.6320   41.0900 C   0  0  0  0  0  0  0  0  0  0  0  0
   36.8500   25.4660   39.9740 C   0  0  0  0  0  0  0  0  0  0  0  0
   37.0780   26.8060   40.1100 C   0  0  0  0  0  0  0  0  0  0  0  0
   37.2280   27.4220   41.3130 C   0  0  0  0  0  0  0  0  0  0  0  0
   37.5720   29.6990   40.2140 C   0  0  0  0  0  0  0  0  0  0  0  0
   36.7020   30.7180   39.8050 C   0  0  0  0  0  0  0  0  0  0  0  0
   36.9710   31.5870   38.7560 C   0  0  0  0  0  0  0  0  0  0  0  0
   38.1490   31.3820   38.1440 N   0  0  0  0  0  0  0  0  0  0  0  0
   39.0250   30.4160   38.4950 C   0  0  0  0  0  0  0  0  0  0  0  0
   38.7140   29.6070   39.5140 N   0  0  0  0  0  0  0  0  0  0  0  0
   40.2820   30.2820   37.7580 C   0  0  0  0  0  0  0  0  0  0  0  0
   40.6910   29.0400   37.3170 C   0  0  0  0  0  0  0  0  0  0  0  0
   41.9020   28.9730   36.6180 C   0  0  0  0  0  0  0  0  0  0  0  0
   42.6920   30.0970   36.3570 C   0  0  0  0  0  0  0  0  0  0  0  0
   42.2090   31.2990   36.8340 C   0  0  0  0  0  0  0  0  0  0  0  0
   41.0290   31.4160   37.5250 C   0  0  0  0  0  0  0  0  0  0  0  0
   37.7990   30.3734   42.6766 H   0  0  0  0  0  0  0  0  0  0  0  0
   37.6591   29.0445   44.7294 H   0  0  0  0  0  0  0  0  0  0  0  0
   37.2308   26.5913   44.5616 H   0  0  0  0  0  0  0  0  0  0  0  0
   36.8466   24.6743   43.2337 H   0  0  0  0  0  0  0  0  0  0  0  0
   36.5694   23.5508   41.0066 H   0  0  0  0  0  0  0  0  0  0  0  0
   36.7401   25.0362   38.9674 H   0  0  0  0  0  0  0  0  0  0  0  0
   37.1437   27.4187   39.1988 H   0  0  0  0  0  0  0  0  0  0  0  0
   35.7515   30.8364   40.3458 H   0  0  0  0  0  0  0  0  0  0  0  0
   36.2740   32.3811   38.4501 H   0  0  0  0  0  0  0  0  0  0  0  0
   40.0896   28.1388   37.5071 H   0  0  0  0  0  0  0  0  0  0  0  0
   42.2475   27.9927   36.2580 H   0  0  0  0  0  0  0  0  0  0  0  0
   43.6409   30.0275   35.8050 H   0  0  0  0  0  0  0  0  0  0  0  0
   42.7996   32.2088   36.6511 H   0  0  0  0  0  0  0  0  0  0  0  0
   40.6860   32.3968   37.8861 H   0  0  0  0  0  0  0  0  0  0  0  0
  1 10  1  0
  1  2  2  0
  2  3  1  0
  4  3  2  0
  5  4  1  0
  6  5  2  0
  7  6  1  0
  8  9  1  0
  8  7  2  0
  9 10  2  0
 10  5  1  0
 11  1  1  0
 12 11  2  0
 13 12  1  0
 14 15  1  0
 14 13  2  0
 15 16  2  0
 16 11  1  0
 17 15  1  0
 18 17  2  0
 19 18  1  0
 20 19  2  0
 20 21  1  0
 21 22  2  0
 22 17  1  0
  2 23  1  0
  3 24  1  0
  4 25  1  0
  6 26  1  0
  7 27  1  0
  8 28  1  0
  9 29  1  0
 12 30  1  0
 13 31  1  0
 18 32  1  0
 19 33  1  0
 20 34  1  0
 21 35  1  0
 22 36  1  0
M  ISO  8  23  14  24  14  25  14  26  14  27  14  28  14  29  14  30  14
M  ISO  6  31  14  32  14  33  14  34  14  35  14  36  14
M  END
>  <minimizedAffinity>  (1) 
-6.10872984

>  <minimizedRMSD>  (1) 
0.727125883

$$$$
