
     RDKit          3D

 34 37  0  0  0  0  0  0  0  0999 V2000
   37.4630   28.7730   41.2760 C   0  0  0  0  0  0  0  0  0  0  0  0
   37.6250   29.2810   42.5840 C   0  0  0  0  0  0  0  0  0  0  0  0
   37.5680   28.5300   43.7400 C   0  0  0  0  0  0  0  0  0  0  0  0
   37.3350   27.1790   43.6250 C   0  0  0  0  0  0  0  0  0  0  0  0
   37.1700   26.6140   42.3830 C   0  0  0  0  0  0  0  0  0  0  0  0
   36.9380   25.2600   42.2560 C   0  0  0  0  0  0  0  0  0  0  0  0
   36.7660   24.6440   41.0330 C   0  0  0  0  0  0  0  0  0  0  0  0
   36.8430   25.4900   39.9230 C   0  0  0  0  0  0  0  0  0  0  0  0
   37.0730   26.8270   40.0760 C   0  0  0  0  0  0  0  0  0  0  0  0
   37.2410   27.4290   41.2880 C   0  0  0  0  0  0  0  0  0  0  0  0
   37.5580   29.7210   40.2200 C   0  0  0  0  0  0  0  0  0  0  0  0
   36.6480   30.7000   39.8010 C   0  0  0  0  0  0  0  0  0  0  0  0
   36.9060   31.5900   38.7600 C   0  0  0  0  0  0  0  0  0  0  0  0
   38.1140   31.4440   38.1680 N   0  0  0  0  0  0  0  0  0  0  0  0
   39.0020   30.5280   38.5360 C   0  0  0  0  0  0  0  0  0  0  0  0
   38.7160   29.6880   39.5450 N   0  0  0  0  0  0  0  0  0  0  0  0
   40.2750   30.4740   37.8150 C   0  0  0  0  0  0  0  0  0  0  0  0
   40.7810   29.2520   37.3810 C   0  0  0  0  0  0  0  0  0  0  0  0
   41.9860   29.3170   36.7120 C   0  0  0  0  0  0  0  0  0  0  0  0
   42.6510   30.4710   36.4790 N   0  0  0  0  0  0  0  0  0  0  0  0
   42.1140   31.6460   36.9240 C   0  0  0  0  0  0  0  0  0  0  0  0
   40.9230   31.6310   37.5910 N   0  0  0  0  0  0  0  0  0  0  0  0
   37.8112   30.3600   42.6892 H   0  0  0  0  0  0  0  0  0  0  0  0
   37.7050   28.9983   44.7259 H   0  0  0  0  0  0  0  0  0  0  0  0
   37.2808   26.5513   44.5267 H   0  0  0  0  0  0  0  0  0  0  0  0
   36.8880   24.6459   43.1673 H   0  0  0  0  0  0  0  0  0  0  0  0
   36.5814   23.5637   40.9385 H   0  0  0  0  0  0  0  0  0  0  0  0
   36.7166   25.0731   38.9130 H   0  0  0  0  0  0  0  0  0  0  0  0
   37.1256   27.4525   39.1727 H   0  0  0  0  0  0  0  0  0  0  0  0
   35.6806   30.7699   40.3200 H   0  0  0  0  0  0  0  0  0  0  0  0
   36.1813   32.3545   38.4431 H   0  0  0  0  0  0  0  0  0  0  0  0
   40.2570   28.3013   37.5589 H   0  0  0  0  0  0  0  0  0  0  0  0
   42.4300   28.3786   36.3483 H   0  0  0  0  0  0  0  0  0  0  0  0
   42.6375   32.5970   36.7461 H   0  0  0  0  0  0  0  0  0  0  0  0
  1 10  1  0
  1  2  2  0
  2  3  1  0
  4  3  2  0
  5  4  1  0
  6  5  2  0
  7  6  1  0
  8  9  1  0
  8  7  2  0
  9 10  2  0
 10  5  1  0
 11  1  1  0
 12 11  2  0
 13 12  1  0
 14 15  1  0
 14 13  2  0
 15 16  2  0
 16 11  1  0
 17 15  1  0
 18 17  2  0
 19 18  1  0
 20 19  2  0
 20 21  1  0
 21 22  2  0
 22 17  1  0
  2 23  1  0
  3 24  1  0
  4 25  1  0
  6 26  1  0
  7 27  1  0
  8 28  1  0
  9 29  1  0
 12 30  1  0
 13 31  1  0
 18 32  1  0
 19 33  1  0
 21 34  1  0
M  ISO  8  23  14  24  14  25  14  26  14  27  14  28  14  29  14  30  14
M  ISO  4  31  14  32  14  33  14  34  14
M  END
>  <minimizedAffinity>  (1) 
-5.99423599

>  <minimizedRMSD>  (1) 
0.640238583

$$$$
