
     RDKit          3D

 33 36  0  0  0  0  0  0  0  0999 V2000
   37.4860   28.8500   41.2610 C   0  0  0  0  0  0  0  0  0  0  0  0
   37.6660   29.3850   42.5550 C   0  0  0  0  0  0  0  0  0  0  0  0
   37.6170   28.6620   43.7240 C   0  0  0  0  0  0  0  0  0  0  0  0
   37.3730   27.3090   43.6450 C   0  0  0  0  0  0  0  0  0  0  0  0
   37.1860   26.7140   42.4220 C   0  0  0  0  0  0  0  0  0  0  0  0
   36.9460   25.3640   42.3220 C   0  0  0  0  0  0  0  0  0  0  0  0
   36.7570   24.7140   41.1180 C   0  0  0  0  0  0  0  0  0  0  0  0
   36.8280   25.5420   39.9880 C   0  0  0  0  0  0  0  0  0  0  0  0
   37.0670   26.8790   40.1060 C   0  0  0  0  0  0  0  0  0  0  0  0
   37.2520   27.5080   41.3010 C   0  0  0  0  0  0  0  0  0  0  0  0
   37.5770   29.7730   40.1800 C   0  0  0  0  0  0  0  0  0  0  0  0
   36.6630   30.7350   39.7310 C   0  0  0  0  0  0  0  0  0  0  0  0
   36.9170   31.5940   38.6730 C   0  0  0  0  0  0  0  0  0  0  0  0
   38.1310   31.4460   38.0820 N   0  0  0  0  0  0  0  0  0  0  0  0
   39.0210   30.5430   38.4830 C   0  0  0  0  0  0  0  0  0  0  0  0
   38.7390   29.7270   39.5120 N   0  0  0  0  0  0  0  0  0  0  0  0
   40.3470   30.4540   37.7590 C   0  0  0  0  0  0  0  0  0  0  0  0
   40.9020   29.2740   37.3260 C   0  0  0  0  0  0  0  0  0  0  0  0
   42.0920   29.3150   36.6910 C   0  0  0  0  0  0  0  0  0  0  0  0
   42.7240   30.5610   36.4950 C   0  0  0  0  0  0  0  0  0  0  0  0
   41.5400   31.7380   37.2670 S   0  0  0  0  0  0  0  0  0  0  0  0
   37.8607   30.4647   42.6345 H   0  0  0  0  0  0  0  0  0  0  0  0
   37.7688   29.1520   44.6971 H   0  0  0  0  0  0  0  0  0  0  0  0
   37.3279   26.7043   44.5628 H   0  0  0  0  0  0  0  0  0  0  0  0
   36.9023   24.7715   43.2477 H   0  0  0  0  0  0  0  0  0  0  0  0
   36.5660   23.6328   41.0507 H   0  0  0  0  0  0  0  0  0  0  0  0
   36.6883   25.1046   38.9884 H   0  0  0  0  0  0  0  0  0  0  0  0
   37.1130   27.4826   39.1875 H   0  0  0  0  0  0  0  0  0  0  0  0
   35.6934   30.8128   40.2446 H   0  0  0  0  0  0  0  0  0  0  0  0
   36.1861   32.3435   38.3355 H   0  0  0  0  0  0  0  0  0  0  0  0
   40.3873   28.3164   37.4934 H   0  0  0  0  0  0  0  0  0  0  0  0
   42.5633   28.3887   36.3308 H   0  0  0  0  0  0  0  0  0  0  0  0
   43.6845   30.7751   36.0035 H   0  0  0  0  0  0  0  0  0  0  0  0
  1 10  1  0
  1  2  2  0
  2  3  1  0
  4  3  2  0
  5  4  1  0
  6  5  2  0
  7  6  1  0
  8  9  1  0
  8  7  2  0
  9 10  2  0
 10  5  1  0
 11  1  1  0
 12 11  2  0
 13 12  1  0
 14 15  1  0
 14 13  2  0
 15 16  2  0
 16 11  1  0
 17 15  1  0
 18 17  2  0
 19 18  1  0
 20 19  2  0
 20 21  1  0
 21 17  1  0
  2 22  1  0
  3 23  1  0
  4 24  1  0
  6 25  1  0
  7 26  1  0
  8 27  1  0
  9 28  1  0
 12 29  1  0
 13 30  1  0
 18 31  1  0
 19 32  1  0
 20 33  1  0
M  ISO  8  22  14  23  14  24  14  25  14  26  14  27  14  28  14  29  14
M  ISO  4  30  14  31  14  32  14  33  14
M  END
>  <minimizedAffinity>  (1) 
-5.86795998

>  <minimizedRMSD>  (1) 
0.606725812

$$$$
