
     RDKit          3D

 33 36  0  0  0  0  0  0  0  0999 V2000
   37.2450   28.4140   40.9350 C   0  0  0  0  0  0  0  0  0  0  0  0
   37.4390   29.1510   42.1240 C   0  0  0  0  0  0  0  0  0  0  0  0
   37.4730   28.6180   43.3910 C   0  0  0  0  0  0  0  0  0  0  0  0
   37.3040   27.2490   43.5250 C   0  0  0  0  0  0  0  0  0  0  0  0
   37.1120   26.4740   42.4130 C   0  0  0  0  0  0  0  0  0  0  0  0
   36.9500   25.1130   42.5420 C   0  0  0  0  0  0  0  0  0  0  0  0
   36.7580   24.2770   41.4600 C   0  0  0  0  0  0  0  0  0  0  0  0
   36.7400   24.9190   40.2140 C   0  0  0  0  0  0  0  0  0  0  0  0
   36.9040   26.2680   40.1240 C   0  0  0  0  0  0  0  0  0  0  0  0
   37.0930   27.0880   41.1950 C   0  0  0  0  0  0  0  0  0  0  0  0
   37.2430   29.1610   39.7250 C   0  0  0  0  0  0  0  0  0  0  0  0
   36.1810   29.5650   38.9030 C   0  0  0  0  0  0  0  0  0  0  0  0
   36.3520   30.3260   37.7620 C   0  0  0  0  0  0  0  0  0  0  0  0
   37.6210   30.6660   37.4780 N   0  0  0  0  0  0  0  0  0  0  0  0
   38.6660   30.3100   38.2260 C   0  0  0  0  0  0  0  0  0  0  0  0
   38.4570   29.5710   39.3230 N   0  0  0  0  0  0  0  0  0  0  0  0
   39.9800   30.7650   37.7760 C   0  0  0  0  0  0  0  0  0  0  0  0
   40.3340   32.0960   37.5870 C   0  0  0  0  0  0  0  0  0  0  0  0
   41.6450   32.1150   37.1620 C   0  0  0  0  0  0  0  0  0  0  0  0
   42.0390   30.7990   37.1080 C   0  0  0  0  0  0  0  0  0  0  0  0
   41.0260   30.0590   37.4770 O   0  0  0  0  0  0  0  0  0  0  0  0
   37.5737   30.2386   42.0288 H   0  0  0  0  0  0  0  0  0  0  0  0
   37.6296   29.2586   44.2714 H   0  0  0  0  0  0  0  0  0  0  0  0
   37.3241   26.7862   44.5227 H   0  0  0  0  0  0  0  0  0  0  0  0
   36.9746   24.6729   43.5498 H   0  0  0  0  0  0  0  0  0  0  0  0
   36.6290   23.1899   41.5676 H   0  0  0  0  0  0  0  0  0  0  0  0
   36.5918   24.3268   39.2990 H   0  0  0  0  0  0  0  0  0  0  0  0
   36.8825   26.7241   39.1232 H   0  0  0  0  0  0  0  0  0  0  0  0
   35.1608   29.2610   39.1802 H   0  0  0  0  0  0  0  0  0  0  0  0
   35.5064   30.6328   37.1289 H   0  0  0  0  0  0  0  0  0  0  0  0
   39.6877   32.9716   37.7470 H   0  0  0  0  0  0  0  0  0  0  0  0
   42.2506   32.9999   36.9168 H   0  0  0  0  0  0  0  0  0  0  0  0
   43.0318   30.4329   36.8073 H   0  0  0  0  0  0  0  0  0  0  0  0
  1 10  1  0
  1  2  2  0
  2  3  1  0
  3  4  2  0
  5  6  2  0
  5  4  1  0
  7  6  1  0
  8  7  2  0
  9  8  1  0
  9 10  2  0
 10  5  1  0
 11  1  1  0
 12 11  2  0
 13 12  1  0
 14 13  2  0
 14 15  1  0
 15 16  2  0
 16 11  1  0
 17 15  1  0
 18 17  2  0
 19 18  1  0
 20 19  2  0
 20 21  1  0
 21 17  1  0
  2 22  1  0
  3 23  1  0
  4 24  1  0
  6 25  1  0
  7 26  1  0
  8 27  1  0
  9 28  1  0
 12 29  1  0
 13 30  1  0
 18 31  1  0
 19 32  1  0
 20 33  1  0
M  ISO  8  22  14  23  14  24  14  25  14  26  14  27  14  28  14  29  14
M  ISO  4  30  14  31  14  32  14  33  14
M  END
>  <minimizedAffinity>  (1) 
-5.7983017

>  <minimizedRMSD>  (1) 
0.609103501

$$$$
