
     RDKit          3D

 42 45  0  0  1  0  0  0  0  0999 V2000
   37.6020   25.4690   39.8180 C   0  0  1  0  0  0  0  0  0  0  0  0
   37.2920   24.0400   39.3420 C   0  0  0  0  0  0  0  0  0  0  0  0
   36.7250   23.4150   40.6080 C   0  0  0  0  0  0  0  0  0  0  0  0
   37.2450   24.2480   41.7560 C   0  0  0  0  0  0  0  0  0  0  0  0
   38.2610   25.1470   41.1280 C   0  0  2  0  0  0  0  0  0  0  0  0
   35.7970   29.3060   36.4000 C   0  0  0  0  0  0  0  0  0  0  0  0
   34.6380   29.2150   37.2300 C   0  0  0  0  0  0  0  0  0  0  0  0
   34.6940   28.4340   38.3680 C   0  0  0  0  0  0  0  0  0  0  0  0
   35.8660   27.7920   38.6300 N   0  0  0  0  0  0  0  0  0  0  0  0
   36.9460   27.8690   37.8670 C   0  0  0  0  0  0  0  0  0  0  0  0
   36.9170   28.6330   36.7390 N   0  0  0  0  0  0  0  0  0  0  0  0
   38.1810   27.2020   38.0930 N   0  0  0  0  0  0  0  0  0  0  0  0
   39.2280   27.6170   37.4090 N   0  0  0  0  0  0  0  0  0  0  0  0
   40.2990   26.8460   37.7480 C   0  0  0  0  0  0  0  0  0  0  0  0
   39.8240   25.9280   38.6930 C   0  0  0  0  0  0  0  0  0  0  0  0
   38.4730   26.1660   38.9040 C   0  0  0  0  0  0  0  0  0  0  0  0
   38.7030   26.2340   41.9030 N   0  0  0  0  0  0  0  0  0  0  0  0
   39.3750   25.7400   43.0810 C   0  0  0  0  0  0  0  0  0  0  0  0
   39.4770   27.0000   43.9170 C   0  0  0  0  0  0  0  0  0  0  0  0
   38.0460   27.5310   43.7660 C   0  0  0  0  0  0  0  0  0  0  0  0
   37.7330   27.1870   42.3110 C   0  0  0  0  0  0  0  0  0  0  0  0
   36.7386   26.1468   39.8906 H   0  0  0  0  0  0  0  0  0  0  0  0
   36.5526   24.0393   38.5276 H   0  0  0  0  0  0  0  0  0  0  0  0
   38.1607   23.5066   38.9287 H   0  0  0  0  0  0  0  0  0  0  0  0
   35.6255   23.4392   40.5862 H   0  0  0  0  0  0  0  0  0  0  0  0
   37.0275   22.3620   40.7064 H   0  0  0  0  0  0  0  0  0  0  0  0
   36.4334   24.8348   42.2109 H   0  0  0  0  0  0  0  0  0  0  0  0
   37.6691   23.6333   42.5636 H   0  0  0  0  0  0  0  0  0  0  0  0
   39.2466   24.6738   41.0071 H   0  0  0  0  0  0  0  0  0  0  0  0
   35.7769   29.9217   35.4887 H   0  0  0  0  0  0  0  0  0  0  0  0
   33.7175   29.7571   36.9677 H   0  0  0  0  0  0  0  0  0  0  0  0
   33.8260   28.3346   39.0363 H   0  0  0  0  0  0  0  0  0  0  0  0
   41.3249   26.9277   37.3596 H   0  0  0  0  0  0  0  0  0  0  0  0
   40.4224   25.1478   39.1862 H   0  0  0  0  0  0  0  0  0  0  0  0
   38.7800   24.9669   43.5893 H   0  0  0  0  0  0  0  0  0  0  0  0
   40.3414   25.2555   42.8777 H   0  0  0  0  0  0  0  0  0  0  0  0
   39.7216   26.7762   44.9658 H   0  0  0  0  0  0  0  0  0  0  0  0
   40.2676   27.6999   43.6086 H   0  0  0  0  0  0  0  0  0  0  0  0
   37.3558   27.0218   44.4547 H   0  0  0  0  0  0  0  0  0  0  0  0
   37.9420   28.6004   44.0017 H   0  0  0  0  0  0  0  0  0  0  0  0
   37.7998   28.0888   41.6847 H   0  0  0  0  0  0  0  0  0  0  0  0
   36.7140   26.7856   42.2081 H   0  0  0  0  0  0  0  0  0  0  0  0
  1  5  1  0
  2  1  1  0
  2  3  1  0
  3  4  1  0
  5  4  1  0
  5 17  1  0
  6 11  2  0
  6  7  1  0
  7  8  2  0
  8  9  1  0
 10 12  1  0
 10  9  2  0
 11 10  1  0
 12 16  1  0
 13 14  2  0
 13 12  1  0
 14 15  1  0
 15 16  2  0
 16  1  1  0
 17 21  1  0
 17 18  1  0
 18 19  1  0
 20 19  1  0
 21 20  1  0
  1 22  1  1
  2 23  1  0
  2 24  1  0
  3 25  1  0
  3 26  1  0
  4 27  1  0
  4 28  1  0
  5 29  1  6
  6 30  1  0
  7 31  1  0
  8 32  1  0
 14 33  1  0
 15 34  1  0
 18 35  1  0
 18 36  1  0
 19 37  1  0
 19 38  1  0
 20 39  1  0
 20 40  1  0
 21 41  1  0
 21 42  1  0
M  ISO  8  22  13  23  13  24  13  25  13  26  13  27  13  28  13  29  13
M  ISO  8  30  14  31  14  32  14  33  14  34  14  35  13  36  13  37  13
M  ISO  5  38  13  39  13  40  13  41  13  42  13
M  END
>  <minimizedAffinity>  (1) 
-4.25977135

>  <minimizedRMSD>  (1) 
3.91887522

$$$$
