
     RDKit          3D

 27 29  0  0  0  0  0  0  0  0999 V2000
   37.3720   28.5200   41.1400 C   0  0  0  0  0  0  0  0  0  0  0  0
   37.4960   29.1520   42.3940 C   0  0  0  0  0  0  0  0  0  0  0  0
   37.4070   28.5100   43.6150 C   0  0  0  0  0  0  0  0  0  0  0  0
   37.1780   27.1490   43.6150 C   0  0  0  0  0  0  0  0  0  0  0  0
   37.0470   26.4660   42.4310 C   0  0  0  0  0  0  0  0  0  0  0  0
   36.8320   25.1100   42.4250 C   0  0  0  0  0  0  0  0  0  0  0  0
   36.7060   24.3770   41.2540 C   0  0  0  0  0  0  0  0  0  0  0  0
   36.8140   25.1190   40.0920 C   0  0  0  0  0  0  0  0  0  0  0  0
   37.0260   26.4660   40.1170 C   0  0  0  0  0  0  0  0  0  0  0  0
   37.1490   27.1820   41.2670 C   0  0  0  0  0  0  0  0  0  0  0  0
   37.4990   29.3650   40.0010 C   0  0  0  0  0  0  0  0  0  0  0  0
   36.5260   30.0070   39.2390 C   0  0  0  0  0  0  0  0  0  0  0  0
   36.8200   30.8440   38.1650 C   0  0  0  0  0  0  0  0  0  0  0  0
   38.1290   30.9980   37.8990 N   0  0  0  0  0  0  0  0  0  0  0  0
   39.0930   30.4000   38.6030 C   0  0  0  0  0  0  0  0  0  0  0  0
   38.7660   29.6070   39.6250 N   0  0  0  0  0  0  0  0  0  0  0  0
   40.7860   30.7120   38.1150 S   0  0  0  0  0  0  0  0  0  0  0  0
   37.6771   30.2370   42.4014 H   0  0  0  0  0  0  0  0  0  0  0  0
   37.5154   29.0667   44.5575 H   0  0  0  0  0  0  0  0  0  0  0  0
   37.0999   26.6080   44.5696 H   0  0  0  0  0  0  0  0  0  0  0  0
   36.7566   24.5834   43.3878 H   0  0  0  0  0  0  0  0  0  0  0  0
   36.5337   23.2906   41.2500 H   0  0  0  0  0  0  0  0  0  0  0  0
   36.7265   24.6090   39.1213 H   0  0  0  0  0  0  0  0  0  0  0  0
   37.1013   27.0005   39.1586 H   0  0  0  0  0  0  0  0  0  0  0  0
   35.4696   29.8446   39.4989 H   0  0  0  0  0  0  0  0  0  0  0  0
   36.0367   31.3436   37.5761 H   0  0  0  0  0  0  0  0  0  0  0  0
   41.5645   30.8555   39.2331 H   0  0  0  0  0  0  0  0  0  0  0  0
  1 10  1  0
  1  2  2  0
  2  3  1  0
  4  3  2  0
  5  4  1  0
  6  5  2  0
  7  6  1  0
  8  9  1  0
  8  7  2  0
  9 10  2  0
 10  5  1  0
 11  1  1  0
 12 11  2  0
 13 12  1  0
 14 13  2  0
 14 15  1  0
 15 16  2  0
 16 11  1  0
 17 15  1  0
  2 18  1  0
  3 19  1  0
  4 20  1  0
  6 21  1  0
  7 22  1  0
  8 23  1  0
  9 24  1  0
 12 25  1  0
 13 26  1  0
 17 27  1  0
M  ISO  8  18  14  19  14  20  14  21  14  22  14  23  14  24  14  25  14
M  ISO  2  26  14  27  11
M  END
>  <minimizedAffinity>  (1) 
-5.20349026

>  <minimizedRMSD>  (1) 
0.116105519

$$$$
