
     RDKit          3D

 36 39  0  0  0  0  0  0  0  0999 V2000
   37.1760   28.6010   41.1390 C   0  0  0  0  0  0  0  0  0  0  0  0
   37.3600   29.2410   42.3820 C   0  0  0  0  0  0  0  0  0  0  0  0
   37.4130   28.5710   43.5960 C   0  0  0  0  0  0  0  0  0  0  0  0
   37.2800   27.1930   43.6000 C   0  0  0  0  0  0  0  0  0  0  0  0
   37.0980   26.5140   42.4040 C   0  0  0  0  0  0  0  0  0  0  0  0
   36.9660   25.1450   42.4010 C   0  0  0  0  0  0  0  0  0  0  0  0
   36.7870   24.4320   41.2430 C   0  0  0  0  0  0  0  0  0  0  0  0
   36.7480   25.1880   40.0890 C   0  0  0  0  0  0  0  0  0  0  0  0
   36.8800   26.5470   40.1130 C   0  0  0  0  0  0  0  0  0  0  0  0
   37.0570   27.2540   41.2580 C   0  0  0  0  0  0  0  0  0  0  0  0
   37.1460   29.4640   40.0180 C   0  0  0  0  0  0  0  0  0  0  0  0
   36.4140   29.3810   38.8240 C   0  0  0  0  0  0  0  0  0  0  0  0
   36.4730   30.3290   37.8080 C   0  0  0  0  0  0  0  0  0  0  0  0
   37.3150   31.3780   38.0510 N   0  0  0  0  0  0  0  0  0  0  0  0
   38.0220   31.4900   39.1650 C   0  0  0  0  0  0  0  0  0  0  0  0
   37.9350   30.5560   40.1160 N   0  0  0  0  0  0  0  0  0  0  0  0
   38.8970   32.6560   39.3240 C   0  0  0  0  0  0  0  0  0  0  0  0
   38.4530   33.7200   39.8340 O   0  0  0  0  0  0  0  0  0  0  0  0
   40.2900   32.6020   38.8940 C   0  0  0  0  0  0  0  0  0  0  0  0
   41.2650   32.6550   39.8790 C   0  0  0  0  0  0  0  0  0  0  0  0
   42.5610   32.5960   39.3610 C   0  0  0  0  0  0  0  0  0  0  0  0
   42.9050   32.4990   38.0680 N   0  0  0  0  0  0  0  0  0  0  0  0
   41.8830   32.4530   37.1700 C   0  0  0  0  0  0  0  0  0  0  0  0
   40.6200   32.5060   37.6030 N   0  0  0  0  0  0  0  0  0  0  0  0
   37.4679   30.3357   42.3897 H   0  0  0  0  0  0  0  0  0  0  0  0
   37.5577   29.1236   44.5361 H   0  0  0  0  0  0  0  0  0  0  0  0
   37.3185   26.6380   44.5489 H   0  0  0  0  0  0  0  0  0  0  0  0
   37.0052   24.6044   43.3582 H   0  0  0  0  0  0  0  0  0  0  0  0
   36.6821   23.3370   41.2347 H   0  0  0  0  0  0  0  0  0  0  0  0
   36.6066   24.6816   39.1228 H   0  0  0  0  0  0  0  0  0  0  0  0
   36.8411   27.0944   39.1597 H   0  0  0  0  0  0  0  0  0  0  0  0
   35.7530   28.5131   38.6828 H   0  0  0  0  0  0  0  0  0  0  0  0
   35.8875   30.2414   36.8809 H   0  0  0  0  0  0  0  0  0  0  0  0
   41.0417   32.7349   40.9531 H   0  0  0  0  0  0  0  0  0  0  0  0
   43.3849   32.6329   40.0889 H   0  0  0  0  0  0  0  0  0  0  0  0
   42.0957   32.3726   36.0938 H   0  0  0  0  0  0  0  0  0  0  0  0
  1 10  1  0
  1  2  2  0
  2  3  1  0
  3  4  2  0
  5  4  1  0
  6  5  2  0
  7  6  1  0
  8  9  1  0
  8  7  2  0
  9 10  2  0
 10  5  1  0
 11 16  1  0
 11  1  1  0
 12 11  2  0
 13 14  2  0
 13 12  1  0
 14 15  1  0
 15 17  1  0
 15 16  2  0
 17 18  2  0
 19 17  1  0
 19 20  2  0
 21 20  1  0
 22 21  2  0
 23 24  2  0
 23 22  1  0
 24 19  1  0
  2 25  1  0
  3 26  1  0
  4 27  1  0
  6 28  1  0
  7 29  1  0
  8 30  1  0
  9 31  1  0
 12 32  1  0
 13 33  1  0
 20 34  1  0
 21 35  1  0
 23 36  1  0
M  ISO  8  25  14  26  14  27  14  28  14  29  14  30  14  31  14  32  14
M  ISO  4  33  14  34  14  35  14  36  14
M  END
>  <minimizedAffinity>  (1) 
-6.24487877

>  <minimizedRMSD>  (1) 
2.01963615

$$$$
