
     RDKit          3D

 36 39  0  0  0  0  0  0  0  0999 V2000
   37.2560   28.5790   40.9210 C   0  0  0  0  0  0  0  0  0  0  0  0
   37.4550   29.3490   42.0880 C   0  0  0  0  0  0  0  0  0  0  0  0
   37.5040   28.8180   43.3660 C   0  0  0  0  0  0  0  0  0  0  0  0
   37.3500   27.4470   43.5180 C   0  0  0  0  0  0  0  0  0  0  0  0
   37.1510   26.6390   42.4050 C   0  0  0  0  0  0  0  0  0  0  0  0
   37.0040   25.2850   42.5550 C   0  0  0  0  0  0  0  0  0  0  0  0
   36.8140   24.4550   41.4780 C   0  0  0  0  0  0  0  0  0  0  0  0
   36.7810   25.0790   40.2490 C   0  0  0  0  0  0  0  0  0  0  0  0
   36.9300   26.4300   40.1300 C   0  0  0  0  0  0  0  0  0  0  0  0
   37.1180   27.2530   41.1830 C   0  0  0  0  0  0  0  0  0  0  0  0
   37.2320   29.3120   39.7100 C   0  0  0  0  0  0  0  0  0  0  0  0
   36.2470   29.4160   38.7180 C   0  0  0  0  0  0  0  0  0  0  0  0
   36.3680   30.2070   37.5830 C   0  0  0  0  0  0  0  0  0  0  0  0
   37.5400   30.9000   37.4870 N   0  0  0  0  0  0  0  0  0  0  0  0
   38.4970   30.8260   38.4100 C   0  0  0  0  0  0  0  0  0  0  0  0
   38.3410   30.0500   39.4890 N   0  0  0  0  0  0  0  0  0  0  0  0
   39.7080   31.6220   38.2000 C   0  0  0  0  0  0  0  0  0  0  0  0
   40.0060   32.0590   37.0560 O   0  0  0  0  0  0  0  0  0  0  0  0
   40.6010   31.9290   39.3050 C   0  0  0  0  0  0  0  0  0  0  0  0
   40.5060   33.1960   39.8720 C   0  0  0  0  0  0  0  0  0  0  0  0
   41.3790   33.4570   40.9320 C   0  0  0  0  0  0  0  0  0  0  0  0
   42.2660   32.5620   41.3990 N   0  0  0  0  0  0  0  0  0  0  0  0
   42.3220   31.3370   40.8130 C   0  0  0  0  0  0  0  0  0  0  0  0
   41.4900   31.0360   39.7750 N   0  0  0  0  0  0  0  0  0  0  0  0
   37.5785   30.4362   41.9750 H   0  0  0  0  0  0  0  0  0  0  0  0
   37.6612   29.4673   44.2399 H   0  0  0  0  0  0  0  0  0  0  0  0
   37.3856   26.9989   44.5220 H   0  0  0  0  0  0  0  0  0  0  0  0
   37.0392   24.8514   43.5653 H   0  0  0  0  0  0  0  0  0  0  0  0
   36.6962   23.3669   41.5881 H   0  0  0  0  0  0  0  0  0  0  0  0
   36.6310   24.4734   39.3431 H   0  0  0  0  0  0  0  0  0  0  0  0
   36.8951   26.8715   39.1231 H   0  0  0  0  0  0  0  0  0  0  0  0
   35.3215   28.8355   38.8465 H   0  0  0  0  0  0  0  0  0  0  0  0
   35.5790   30.2703   36.8191 H   0  0  0  0  0  0  0  0  0  0  0  0
   39.7882   33.9461   39.5085 H   0  0  0  0  0  0  0  0  0  0  0  0
   41.3378   34.4473   41.4091 H   0  0  0  0  0  0  0  0  0  0  0  0
   43.0397   30.5869   41.1766 H   0  0  0  0  0  0  0  0  0  0  0  0
  1 10  1  0
  1  2  2  0
  2  3  1  0
  3  4  2  0
  5  6  2  0
  5  4  1  0
  7  6  1  0
  8  7  2  0
  9  8  1  0
  9 10  2  0
 10  5  1  0
 11  1  1  0
 12 11  2  0
 13 12  1  0
 14 13  2  0
 14 15  1  0
 15 16  2  0
 16 11  1  0
 17 15  1  0
 17 19  1  0
 18 17  2  0
 19 24  1  0
 19 20  2  0
 20 21  1  0
 21 22  2  0
 23 22  1  0
 24 23  2  0
  2 25  1  0
  3 26  1  0
  4 27  1  0
  6 28  1  0
  7 29  1  0
  8 30  1  0
  9 31  1  0
 12 32  1  0
 13 33  1  0
 20 34  1  0
 21 35  1  0
 23 36  1  0
M  ISO  8  25  14  26  14  27  14  28  14  29  14  30  14  31  14  32  14
M  ISO  4  33  14  34  14  35  14  36  14
M  END
>  <minimizedAffinity>  (1) 
-5.80998182

>  <minimizedRMSD>  (1) 
1.42163765

$$$$
