
     RDKit          3D

 34 37  0  0  0  0  0  0  0  0999 V2000
   37.2520   28.4980   40.9740 C   0  0  0  0  0  0  0  0  0  0  0  0
   37.4270   29.2110   42.1810 C   0  0  0  0  0  0  0  0  0  0  0  0
   37.4490   28.6270   43.4350 C   0  0  0  0  0  0  0  0  0  0  0  0
   37.2920   27.2590   43.5310 C   0  0  0  0  0  0  0  0  0  0  0  0
   37.1190   26.5150   42.3900 C   0  0  0  0  0  0  0  0  0  0  0  0
   36.9610   25.1530   42.4700 C   0  0  0  0  0  0  0  0  0  0  0  0
   36.7820   24.3540   41.3700 C   0  0  0  0  0  0  0  0  0  0  0  0
   36.7720   25.0280   40.1520 C   0  0  0  0  0  0  0  0  0  0  0  0
   36.9290   26.3790   40.0810 C   0  0  0  0  0  0  0  0  0  0  0  0
   37.1040   27.1490   41.1750 C   0  0  0  0  0  0  0  0  0  0  0  0
   37.2680   29.2770   39.7950 C   0  0  0  0  0  0  0  0  0  0  0  0
   36.3100   29.4620   38.8010 C   0  0  0  0  0  0  0  0  0  0  0  0
   36.4740   30.2850   37.6970 C   0  0  0  0  0  0  0  0  0  0  0  0
   37.6750   30.9310   37.6360 N   0  0  0  0  0  0  0  0  0  0  0  0
   38.6130   30.7850   38.5560 C   0  0  0  0  0  0  0  0  0  0  0  0
   38.4100   29.9760   39.6100 N   0  0  0  0  0  0  0  0  0  0  0  0
   39.8770   31.5200   38.4080 C   0  0  0  0  0  0  0  0  0  0  0  0
   40.1300   32.1290   37.3320 O   0  0  0  0  0  0  0  0  0  0  0  0
   40.8740   31.5640   39.5020 C   0  0  0  0  0  0  0  0  0  0  0  0
   40.7690   32.6160   40.4210 C   0  0  0  0  0  0  0  0  0  0  0  0
   42.1770   32.2530   41.5480 S   0  0  0  0  0  0  0  0  0  0  0  0
   42.6580   30.7110   40.5450 C   0  0  0  0  0  0  0  0  0  0  0  0
   41.8380   30.6780   39.6510 N   0  0  0  0  0  0  0  0  0  0  0  0
   37.5541   30.3019   42.1198 H   0  0  0  0  0  0  0  0  0  0  0  0
   37.5888   29.2404   44.3373 H   0  0  0  0  0  0  0  0  0  0  0  0
   37.3054   26.7680   44.5153 H   0  0  0  0  0  0  0  0  0  0  0  0
   36.9789   24.6808   43.4633 H   0  0  0  0  0  0  0  0  0  0  0  0
   36.6559   23.2638   41.4444 H   0  0  0  0  0  0  0  0  0  0  0  0
   36.6338   24.4549   39.2233 H   0  0  0  0  0  0  0  0  0  0  0  0
   36.9125   26.8615   39.0926 H   0  0  0  0  0  0  0  0  0  0  0  0
   35.3587   28.9183   38.8983 H   0  0  0  0  0  0  0  0  0  0  0  0
   35.6959   30.4079   36.9292 H   0  0  0  0  0  0  0  0  0  0  0  0
   40.0399   33.4388   40.4587 H   0  0  0  0  0  0  0  0  0  0  0  0
   43.4864   30.0118   40.7316 H   0  0  0  0  0  0  0  0  0  0  0  0
  1 10  1  0
  1  2  2  0
  2  3  1  0
  3  4  2  0
  5  6  2  0
  5  4  1  0
  7  6  1  0
  8  7  2  0
  9  8  1  0
  9 10  2  0
 10  5  1  0
 11  1  1  0
 12 11  2  0
 13 12  1  0
 14 13  2  0
 14 15  1  0
 15 16  2  0
 16 11  1  0
 17 15  1  0
 17 19  1  0
 18 17  2  0
 19 23  1  0
 19 20  2  0
 20 21  1  0
 22 21  1  0
 23 22  2  0
  2 24  1  0
  3 25  1  0
  4 26  1  0
  6 27  1  0
  7 28  1  0
  8 29  1  0
  9 30  1  0
 12 31  1  0
 13 32  1  0
 20 33  1  0
 22 34  1  0
M  ISO  8  24  14  25  14  26  14  27  14  28  14  29  14  30  14  31  14
M  ISO  3  32  14  33  14  34  14
M  END
>  <minimizedAffinity>  (1) 
-5.71763754

>  <minimizedRMSD>  (1) 
0.92837435

$$$$
