
     RDKit          3D

 29 31  0  0  0  0  0  0  0  0999 V2000
   37.3340   28.5160   41.0970 C   0  0  0  0  0  0  0  0  0  0  0  0
   37.4690   29.1920   42.3290 C   0  0  0  0  0  0  0  0  0  0  0  0
   37.4200   28.5630   43.5640 C   0  0  0  0  0  0  0  0  0  0  0  0
   37.2300   27.1800   43.5970 C   0  0  0  0  0  0  0  0  0  0  0  0
   37.0960   26.4860   42.4240 C   0  0  0  0  0  0  0  0  0  0  0  0
   36.9140   25.1160   42.4460 C   0  0  0  0  0  0  0  0  0  0  0  0
   36.7800   24.3730   41.3010 C   0  0  0  0  0  0  0  0  0  0  0  0
   36.8400   25.0870   40.1250 C   0  0  0  0  0  0  0  0  0  0  0  0
   37.0200   26.4370   40.1160 C   0  0  0  0  0  0  0  0  0  0  0  0
   37.1520   27.1720   41.2380 C   0  0  0  0  0  0  0  0  0  0  0  0
   37.4130   29.3410   39.9460 C   0  0  0  0  0  0  0  0  0  0  0  0
   36.4040   29.7930   39.0860 C   0  0  0  0  0  0  0  0  0  0  0  0
   36.6420   30.6300   38.0000 C   0  0  0  0  0  0  0  0  0  0  0  0
   37.9550   30.9940   37.8170 N   0  0  0  0  0  0  0  0  0  0  0  0
   38.9270   30.5810   38.6150 C   0  0  0  0  0  0  0  0  0  0  0  0
   38.6540   29.7790   39.6460 N   0  0  0  0  0  0  0  0  0  0  0  0
   40.2900   31.0200   38.3260 C   0  0  0  0  0  0  0  0  0  0  0  0
   40.5270   31.8610   37.4230 O   0  0  0  0  0  0  0  0  0  0  0  0
   41.3420   30.4830   39.0780 O   0  0  0  0  0  0  0  0  0  0  0  0
   37.6220   30.2811   42.3082 H   0  0  0  0  0  0  0  0  0  0  0  0
   37.5281   29.1394   44.4947 H   0  0  0  0  0  0  0  0  0  0  0  0
   37.1882   26.6506   44.5603 H   0  0  0  0  0  0  0  0  0  0  0  0
   36.8752   24.6025   43.4180 H   0  0  0  0  0  0  0  0  0  0  0  0
   36.6347   23.2828   41.3207 H   0  0  0  0  0  0  0  0  0  0  0  0
   36.7400   24.5533   39.1684 H   0  0  0  0  0  0  0  0  0  0  0  0
   37.0596   26.9528   39.1453 H   0  0  0  0  0  0  0  0  0  0  0  0
   35.3704   29.4698   39.2790 H   0  0  0  0  0  0  0  0  0  0  0  0
   35.8367   30.9758   37.3352 H   0  0  0  0  0  0  0  0  0  0  0  0
   42.2735   30.7664   38.8990 H   0  0  0  0  0  0  0  0  0  0  0  0
  1 10  1  0
  1  2  2  0
  2  3  1  0
  3  4  2  0
  5  6  2  0
  5  4  1  0
  7  6  1  0
  8  7  2  0
  9  8  1  0
  9 10  2  0
 10  5  1  0
 11  1  1  0
 12 11  2  0
 13 12  1  0
 14 13  2  0
 14 15  1  0
 15 16  2  0
 16 11  1  0
 17 15  1  0
 17 19  1  0
 18 17  2  0
  2 20  1  0
  3 21  1  0
  4 22  1  0
  6 23  1  0
  7 24  1  0
  8 25  1  0
  9 26  1  0
 12 27  1  0
 13 28  1  0
 19 29  1  0
M  ISO  8  20  14  21  14  22  14  23  14  24  14  25  14  26  14  27  14
M  ISO  2  28  14  29   3
M  END
>  <minimizedAffinity>  (1) 
-5.27682877

>  <minimizedRMSD>  (1) 
0.0171850082

$$$$
