
     RDKit          3D

 45 49  0  0  0  0  0  0  0  0999 V2000
   37.4460   29.5100   40.3260 C   0  0  0  0  0  0  0  0  0  0  0  0
   36.4750   30.0490   39.4650 C   0  0  0  0  0  0  0  0  0  0  0  0
   36.7770   30.9730   38.4650 C   0  0  0  0  0  0  0  0  0  0  0  0
   38.0900   31.3340   38.3640 N   0  0  0  0  0  0  0  0  0  0  0  0
   39.0220   30.8420   39.1610 C   0  0  0  0  0  0  0  0  0  0  0  0
   38.6960   29.9690   40.0960 N   0  0  0  0  0  0  0  0  0  0  0  0
   37.3300   28.5900   41.3830 C   0  0  0  0  0  0  0  0  0  0  0  0
   37.4250   29.1380   42.6770 C   0  0  0  0  0  0  0  0  0  0  0  0
   37.3360   28.4070   43.8490 C   0  0  0  0  0  0  0  0  0  0  0  0
   37.1380   27.0270   43.7400 C   0  0  0  0  0  0  0  0  0  0  0  0
   37.0380   26.4340   42.4960 C   0  0  0  0  0  0  0  0  0  0  0  0
   36.8460   25.0840   42.3750 C   0  0  0  0  0  0  0  0  0  0  0  0
   36.7410   24.4510   41.1750 C   0  0  0  0  0  0  0  0  0  0  0  0
   36.8430   25.2760   40.0840 C   0  0  0  0  0  0  0  0  0  0  0  0
   37.0360   26.6210   40.1920 C   0  0  0  0  0  0  0  0  0  0  0  0
   37.1390   27.2450   41.4080 C   0  0  0  0  0  0  0  0  0  0  0  0
   40.3980   31.2970   38.9640 C   0  0  0  0  0  0  0  0  0  0  0  0
   41.1890   30.6380   38.2170 O   0  0  0  0  0  0  0  0  0  0  0  0
   40.9930   32.4820   39.5600 C   0  0  0  0  0  0  0  0  0  0  0  0
   40.9170   33.6790   38.8360 C   0  0  0  0  0  0  0  0  0  0  0  0
   41.4790   34.8520   39.3760 C   0  0  0  0  0  0  0  0  0  0  0  0
   42.1080   34.8600   40.6080 C   0  0  0  0  0  0  0  0  0  0  0  0
   42.1700   33.6880   41.2920 C   0  0  0  0  0  0  0  0  0  0  0  0
   41.6280   32.5340   40.7830 C   0  0  0  0  0  0  0  0  0  0  0  0
   41.7220   31.2650   41.5680 C   0  0  0  0  0  0  0  0  0  0  0  0
   42.1530   31.2690   42.9870 C   0  0  0  0  0  0  0  0  0  0  0  0
   40.6820   31.1010   42.6770 C   0  0  0  0  0  0  0  0  0  0  0  0
   35.4298   29.7277   39.5851 H   0  0  0  0  0  0  0  0  0  0  0  0
   36.0051   31.3855   37.7987 H   0  0  0  0  0  0  0  0  0  0  0  0
   37.5809   30.2236   42.7622 H   0  0  0  0  0  0  0  0  0  0  0  0
   37.4181   28.8945   44.8317 H   0  0  0  0  0  0  0  0  0  0  0  0
   37.0616   26.4111   44.6482 H   0  0  0  0  0  0  0  0  0  0  0  0
   36.7730   24.4816   43.2925 H   0  0  0  0  0  0  0  0  0  0  0  0
   36.5868   23.3654   41.0870 H   0  0  0  0  0  0  0  0  0  0  0  0
   36.7658   24.8337   39.0798 H   0  0  0  0  0  0  0  0  0  0  0  0
   37.1114   27.2241   39.2752 H   0  0  0  0  0  0  0  0  0  0  0  0
   40.4224   33.7025   37.8538 H   0  0  0  0  0  0  0  0  0  0  0  0
   41.4160   35.7882   38.8019 H   0  0  0  0  0  0  0  0  0  0  0  0
   42.5427   35.7830   41.0193 H   0  0  0  0  0  0  0  0  0  0  0  0
   42.6648   33.6631   42.2741 H   0  0  0  0  0  0  0  0  0  0  0  0
   42.0656   30.6997   40.6891 H   0  0  0  0  0  0  0  0  0  0  0  0
   42.7276   30.4199   43.3857 H   0  0  0  0  0  0  0  0  0  0  0  0
   42.7332   31.9627   43.6131 H   0  0  0  0  0  0  0  0  0  0  0  0
   39.9728   31.9127   42.8966 H   0  0  0  0  0  0  0  0  0  0  0  0
   39.9045   30.3633   42.9244 H   0  0  0  0  0  0  0  0  0  0  0  0
  1  7  1  0
  2  1  2  0
  3  2  1  0
  4  3  2  0
  4  5  1  0
  5  6  2  0
  6  1  1  0
  7 16  1  0
  7  8  2  0
  8  9  1  0
 10  9  2  0
 11 10  1  0
 12 11  2  0
 13 12  1  0
 14 15  1  0
 14 13  2  0
 15 16  2  0
 16 11  1  0
 17  5  1  0
 17 19  1  0
 18 17  2  0
 19 24  2  0
 20 21  2  0
 20 19  1  0
 21 22  1  0
 22 23  2  0
 24 23  1  0
 24 25  1  0
 25 27  1  0
 25 26  1  0
 27 26  1  0
  2 28  1  0
  3 29  1  0
  8 30  1  0
  9 31  1  0
 10 32  1  0
 12 33  1  0
 13 34  1  0
 14 35  1  0
 15 36  1  0
 20 37  1  0
 21 38  1  0
 22 39  1  0
 23 40  1  0
 25 41  1  0
 26 42  1  0
 26 43  1  0
 27 44  1  0
 27 45  1  0
M  ISO  8  28  14  29  14  30  14  31  14  32  14  33  14  34  14  35  14
M  ISO  8  36  14  37  14  38  14  39  14  40  14  41  13  42  13  43  13
M  ISO  2  44  13  45  13
M  END
>  <minimizedAffinity>  (1) 
-6.46845961

>  <minimizedRMSD>  (1) 
1.91151428

$$$$
