
     RDKit          3D

 45 49  0  0  0  0  0  0  0  0999 V2000
   37.2690   29.2510   39.6940 C   0  0  0  0  0  0  0  0  0  0  0  0
   36.3260   29.3140   38.6640 C   0  0  0  0  0  0  0  0  0  0  0  0
   36.4800   30.0930   37.5190 C   0  0  0  0  0  0  0  0  0  0  0  0
   37.6340   30.8120   37.4560 N   0  0  0  0  0  0  0  0  0  0  0  0
   38.5550   30.7780   38.4110 C   0  0  0  0  0  0  0  0  0  0  0  0
   38.3590   30.0150   39.4880 N   0  0  0  0  0  0  0  0  0  0  0  0
   37.2730   28.5340   40.9080 C   0  0  0  0  0  0  0  0  0  0  0  0
   37.4650   29.3050   42.0690 C   0  0  0  0  0  0  0  0  0  0  0  0
   37.5030   28.7840   43.3500 C   0  0  0  0  0  0  0  0  0  0  0  0
   37.3400   27.4090   43.5080 C   0  0  0  0  0  0  0  0  0  0  0  0
   37.1480   26.6070   42.4070 C   0  0  0  0  0  0  0  0  0  0  0  0
   36.9880   25.2600   42.5450 C   0  0  0  0  0  0  0  0  0  0  0  0
   36.7930   24.4140   41.4850 C   0  0  0  0  0  0  0  0  0  0  0  0
   36.7720   25.0320   40.2600 C   0  0  0  0  0  0  0  0  0  0  0  0
   36.9330   26.3780   40.1100 C   0  0  0  0  0  0  0  0  0  0  0  0
   37.1240   27.2000   41.1740 C   0  0  0  0  0  0  0  0  0  0  0  0
   39.7600   31.5930   38.2340 C   0  0  0  0  0  0  0  0  0  0  0  0
   39.8970   32.3150   37.2060 O   0  0  0  0  0  0  0  0  0  0  0  0
   40.8760   31.6620   39.1650 C   0  0  0  0  0  0  0  0  0  0  0  0
   40.6820   32.3600   40.3640 C   0  0  0  0  0  0  0  0  0  0  0  0
   41.7190   32.4560   41.3030 C   0  0  0  0  0  0  0  0  0  0  0  0
   42.9460   31.8710   41.0700 C   0  0  0  0  0  0  0  0  0  0  0  0
   43.1240   31.1960   39.9050 C   0  0  0  0  0  0  0  0  0  0  0  0
   42.1090   31.0980   38.9780 C   0  0  0  0  0  0  0  0  0  0  0  0
   42.3570   30.3720   37.7390 C   0  0  0  0  0  0  0  0  0  0  0  0
   43.0390   30.8510   36.6270 C   0  0  0  0  0  0  0  0  0  0  0  0
   43.1130   29.9270   35.6040 C   0  0  0  0  0  0  0  0  0  0  0  0
   42.4600   28.8710   36.1200 N   0  0  0  0  0  0  0  0  0  0  0  0
   42.0340   29.1350   37.3340 N   0  0  0  0  0  0  0  0  0  0  0  0
   35.4094   28.7139   38.7631 H   0  0  0  0  0  0  0  0  0  0  0  0
   35.7223   30.1247   36.7222 H   0  0  0  0  0  0  0  0  0  0  0  0
   37.5930   30.3911   41.9507 H   0  0  0  0  0  0  0  0  0  0  0  0
   37.6578   29.4378   44.2209 H   0  0  0  0  0  0  0  0  0  0  0  0
   37.3649   26.9647   44.5139 H   0  0  0  0  0  0  0  0  0  0  0  0
   37.0169   24.8312   43.5576 H   0  0  0  0  0  0  0  0  0  0  0  0
   36.6639   23.3283   41.6061 H   0  0  0  0  0  0  0  0  0  0  0  0
   36.6189   24.4161   39.3615 H   0  0  0  0  0  0  0  0  0  0  0  0
   36.9074   26.8099   39.0987 H   0  0  0  0  0  0  0  0  0  0  0  0
   39.7115   32.8351   40.5699 H   0  0  0  0  0  0  0  0  0  0  0  0
   41.5512   33.0067   42.2403 H   0  0  0  0  0  0  0  0  0  0  0  0
   43.7583   31.9490   41.8076 H   0  0  0  0  0  0  0  0  0  0  0  0
   44.0938   30.7199   39.6981 H   0  0  0  0  0  0  0  0  0  0  0  0
   43.4739   31.8597   36.5681 H   0  0  0  0  0  0  0  0  0  0  0  0
   43.5865   30.0289   34.6164 H   0  0  0  0  0  0  0  0  0  0  0  0
   42.3138   27.9769   35.6300 H   0  0  0  0  0  0  0  0  0  0  0  0
  1  7  1  0
  2  1  2  0
  3  2  1  0
  4  3  2  0
  4  5  1  0
  5  6  2  0
  6  1  1  0
  7 16  1  0
  7  8  2  0
  8  9  1  0
  9 10  2  0
 11 12  2  0
 11 10  1  0
 13 12  1  0
 14 13  2  0
 15 14  1  0
 15 16  2  0
 16 11  1  0
 17  5  1  0
 17 19  1  0
 18 17  2  0
 19 20  2  0
 20 21  1  0
 22 21  2  0
 23 22  1  0
 24 19  1  0
 24 23  2  0
 25 24  1  0
 26 25  1  0
 27 28  1  0
 27 26  2  0
 28 29  1  0
 29 25  2  0
  2 30  1  0
  3 31  1  0
  8 32  1  0
  9 33  1  0
 10 34  1  0
 12 35  1  0
 13 36  1  0
 14 37  1  0
 15 38  1  0
 20 39  1  0
 21 40  1  0
 22 41  1  0
 23 42  1  0
 26 43  1  0
 27 44  1  0
 28 45  1  0
M  ISO  8  30  14  31  14  32  14  33  14  34  14  35  14  36  14  37  14
M  ISO  8  38  14  39  14  40  14  41  14  42  14  43  14  44  14  45   9
M  END
>  <minimizedAffinity>  (1) 
-6.39163828

>  <minimizedRMSD>  (1) 
1.14594853

$$$$
