
     RDKit          3D

 41 44  0  0  0  0  0  0  0  0999 V2000
   37.1780   29.2070   39.6670 C   0  0  0  0  0  0  0  0  0  0  0  0
   36.1790   29.2970   38.6790 C   0  0  0  0  0  0  0  0  0  0  0  0
   36.3220   30.0710   37.5240 C   0  0  0  0  0  0  0  0  0  0  0  0
   37.4900   30.7440   37.4000 N   0  0  0  0  0  0  0  0  0  0  0  0
   38.4570   30.6810   38.3160 C   0  0  0  0  0  0  0  0  0  0  0  0
   38.2860   29.9330   39.4070 N   0  0  0  0  0  0  0  0  0  0  0  0
   37.2070   28.5000   40.8840 C   0  0  0  0  0  0  0  0  0  0  0  0
   37.4010   29.2870   42.0350 C   0  0  0  0  0  0  0  0  0  0  0  0
   37.4590   28.7810   43.3240 C   0  0  0  0  0  0  0  0  0  0  0  0
   37.3170   27.4080   43.4920 C   0  0  0  0  0  0  0  0  0  0  0  0
   37.1240   26.5850   42.4030 C   0  0  0  0  0  0  0  0  0  0  0  0
   36.9810   25.2400   42.5540 C   0  0  0  0  0  0  0  0  0  0  0  0
   36.7880   24.3860   41.5120 C   0  0  0  0  0  0  0  0  0  0  0  0
   36.7460   24.9890   40.2760 C   0  0  0  0  0  0  0  0  0  0  0  0
   36.8880   26.3390   40.1170 C   0  0  0  0  0  0  0  0  0  0  0  0
   37.0810   27.1840   41.1680 C   0  0  0  0  0  0  0  0  0  0  0  0
   39.6810   31.4500   38.0810 C   0  0  0  0  0  0  0  0  0  0  0  0
   39.7020   32.3550   37.1930 O   0  0  0  0  0  0  0  0  0  0  0  0
   40.9290   31.2780   38.7910 C   0  0  0  0  0  0  0  0  0  0  0  0
   41.0260   31.8020   40.0870 C   0  0  0  0  0  0  0  0  0  0  0  0
   42.2060   31.6650   40.8260 C   0  0  0  0  0  0  0  0  0  0  0  0
   43.3180   31.0040   40.2920 C   0  0  0  0  0  0  0  0  0  0  0  0
   43.2120   30.5010   39.0350 C   0  0  0  0  0  0  0  0  0  0  0  0
   42.0450   30.6430   38.3190 C   0  0  0  0  0  0  0  0  0  0  0  0
   42.0130   30.0910   36.9740 C   0  0  0  0  0  0  0  0  0  0  0  0
   42.6600   30.4380   35.9800 O   0  0  0  0  0  0  0  0  0  0  0  0
   41.1920   29.0320   36.6160 O   0  0  0  0  0  0  0  0  0  0  0  0
   35.2452   28.7336   38.8223 H   0  0  0  0  0  0  0  0  0  0  0  0
   35.5320   30.1298   36.7608 H   0  0  0  0  0  0  0  0  0  0  0  0
   37.5138   30.3732   41.9029 H   0  0  0  0  0  0  0  0  0  0  0  0
   37.6126   29.4450   44.1874 H   0  0  0  0  0  0  0  0  0  0  0  0
   37.3590   26.9749   44.5023 H   0  0  0  0  0  0  0  0  0  0  0  0
   37.0236   24.8216   43.5704 H   0  0  0  0  0  0  0  0  0  0  0  0
   36.6746   23.3002   41.6472 H   0  0  0  0  0  0  0  0  0  0  0  0
   36.5928   24.3627   39.3848 H   0  0  0  0  0  0  0  0  0  0  0  0
   36.8448   26.7594   39.1014 H   0  0  0  0  0  0  0  0  0  0  0  0
   40.1654   32.3265   40.5279 H   0  0  0  0  0  0  0  0  0  0  0  0
   42.2606   32.0831   41.8420 H   0  0  0  0  0  0  0  0  0  0  0  0
   44.2469   30.8955   40.8711 H   0  0  0  0  0  0  0  0  0  0  0  0
   44.0668   29.9751   38.5848 H   0  0  0  0  0  0  0  0  0  0  0  0
   41.2035   28.6887   35.6875 H   0  0  0  0  0  0  0  0  0  0  0  0
  1  7  1  0
  2  1  2  0
  3  2  1  0
  4  3  2  0
  4  5  1  0
  5  6  2  0
  6  1  1  0
  7 16  1  0
  7  8  2  0
  8  9  1  0
  9 10  2  0
 11 12  2  0
 11 10  1  0
 13 12  1  0
 14 13  2  0
 15 14  1  0
 15 16  2  0
 16 11  1  0
 17  5  1  0
 17 19  1  0
 18 17  2  0
 19 20  2  0
 20 21  1  0
 22 21  2  0
 23 22  1  0
 24 19  1  0
 24 23  2  0
 25 24  1  0
 26 25  2  0
 27 25  1  0
  2 28  1  0
  3 29  1  0
  8 30  1  0
  9 31  1  0
 10 32  1  0
 12 33  1  0
 13 34  1  0
 14 35  1  0
 15 36  1  0
 20 37  1  0
 21 38  1  0
 22 39  1  0
 23 40  1  0
 27 41  1  0
M  ISO  8  28  14  29  14  30  14  31  14  32  14  33  14  34  14  35  14
M  ISO  6  36  14  37  14  38  14  39  14  40  14  41   3
M  END
>  <minimizedAffinity>  (1) 
-6.02168655

>  <minimizedRMSD>  (1) 
1.122967

$$$$
