
     RDKit          3D

 40 43  0  0  0  0  0  0  0  0999 V2000
   37.0930   29.2540   39.6740 C   0  0  0  0  0  0  0  0  0  0  0  0
   36.0840   29.2730   38.6960 C   0  0  0  0  0  0  0  0  0  0  0  0
   36.1650   30.0490   37.5410 C   0  0  0  0  0  0  0  0  0  0  0  0
   37.2950   30.8020   37.4080 N   0  0  0  0  0  0  0  0  0  0  0  0
   38.2630   30.8040   38.3130 C   0  0  0  0  0  0  0  0  0  0  0  0
   38.1510   30.0510   39.4020 N   0  0  0  0  0  0  0  0  0  0  0  0
   37.1810   28.5540   40.8940 C   0  0  0  0  0  0  0  0  0  0  0  0
   37.4100   29.3500   42.0340 C   0  0  0  0  0  0  0  0  0  0  0  0
   37.5240   28.8510   43.3200 C   0  0  0  0  0  0  0  0  0  0  0  0
   37.4050   27.4730   43.5070 C   0  0  0  0  0  0  0  0  0  0  0  0
   37.1810   26.6490   42.4250 C   0  0  0  0  0  0  0  0  0  0  0  0
   37.0610   25.2990   42.5870 C   0  0  0  0  0  0  0  0  0  0  0  0
   36.8380   24.4340   41.5500 C   0  0  0  0  0  0  0  0  0  0  0  0
   36.7420   25.0350   40.3260 C   0  0  0  0  0  0  0  0  0  0  0  0
   36.8600   26.3830   40.1490 C   0  0  0  0  0  0  0  0  0  0  0  0
   37.0820   27.2270   41.1910 C   0  0  0  0  0  0  0  0  0  0  0  0
   39.4240   31.6530   38.0570 C   0  0  0  0  0  0  0  0  0  0  0  0
   39.7320   31.9920   36.8840 O   0  0  0  0  0  0  0  0  0  0  0  0
   40.3160   32.1830   39.0810 C   0  0  0  0  0  0  0  0  0  0  0  0
   40.0320   33.4310   39.6130 C   0  0  0  0  0  0  0  0  0  0  0  0
   40.8510   33.9940   40.6000 C   0  0  0  0  0  0  0  0  0  0  0  0
   41.9680   33.3240   41.0740 C   0  0  0  0  0  0  0  0  0  0  0  0
   42.2440   32.1020   40.5500 C   0  0  0  0  0  0  0  0  0  0  0  0
   41.4320   31.5670   39.5860 C   0  0  0  0  0  0  0  0  0  0  0  0
   41.7600   30.2500   39.0460 C   0  0  0  0  0  0  0  0  0  0  0  0
   42.5910   30.0560   38.1210 O   0  0  0  0  0  0  0  0  0  0  0  0
   35.1915   28.6483   38.8486 H   0  0  0  0  0  0  0  0  0  0  0  0
   35.3673   30.0540   36.7836 H   0  0  0  0  0  0  0  0  0  0  0  0
   37.5041   30.4369   41.8929 H   0  0  0  0  0  0  0  0  0  0  0  0
   37.7037   29.5228   44.1723 H   0  0  0  0  0  0  0  0  0  0  0  0
   37.4899   27.0450   44.5168 H   0  0  0  0  0  0  0  0  0  0  0  0
   37.1479   24.8853   43.6025 H   0  0  0  0  0  0  0  0  0  0  0  0
   36.7440   23.3470   41.6897 H   0  0  0  0  0  0  0  0  0  0  0  0
   36.5614   24.4034   39.4437 H   0  0  0  0  0  0  0  0  0  0  0  0
   36.7730   26.7983   39.1341 H   0  0  0  0  0  0  0  0  0  0  0  0
   39.1523   33.9863   39.2556 H   0  0  0  0  0  0  0  0  0  0  0  0
   40.6033   34.9857   41.0063 H   0  0  0  0  0  0  0  0  0  0  0  0
   42.6099   33.7677   41.8493 H   0  0  0  0  0  0  0  0  0  0  0  0
   43.1223   31.5404   40.9009 H   0  0  0  0  0  0  0  0  0  0  0  0
   41.2496   29.3745   39.4739 H   0  0  0  0  0  0  0  0  0  0  0  0
  1  7  1  0
  2  1  2  0
  3  2  1  0
  4  3  2  0
  4  5  1  0
  5  6  2  0
  6  1  1  0
  7 16  1  0
  7  8  2  0
  8  9  1  0
  9 10  2  0
 11 12  2  0
 11 10  1  0
 13 12  1  0
 14 13  2  0
 15 14  1  0
 15 16  2  0
 16 11  1  0
 17  5  1  0
 17 19  1  0
 18 17  2  0
 19 24  1  0
 19 20  2  0
 20 21  1  0
 21 22  2  0
 23 22  1  0
 24 23  2  0
 25 24  1  0
 26 25  2  0
  2 27  1  0
  3 28  1  0
  8 29  1  0
  9 30  1  0
 10 31  1  0
 12 32  1  0
 13 33  1  0
 14 34  1  0
 15 35  1  0
 20 36  1  0
 21 37  1  0
 22 38  1  0
 23 39  1  0
 25 40  1  0
M  ISO  8  27  14  28  14  29  14  30  14  31  14  32  14  33  14  34  14
M  ISO  6  35  14  36  14  37  14  38  14  39  14  40   6
M  END
>  <minimizedAffinity>  (1) 
-5.79291296

>  <minimizedRMSD>  (1) 
0.712879241

$$$$
