
     RDKit          3D

 35 39  0  0  0  0  0  0  0  0999 V2000
   40.0567   27.8681   43.1636 C   0  0  0  0  0  0  0  0  0  0  0  0
   39.1022   27.0626   43.8089 C   0  0  0  0  0  0  0  0  0  0  0  0
   37.7679   27.4141   43.6743 C   0  0  0  0  0  0  0  0  0  0  0  0
   37.4579   28.5207   42.9241 N   0  0  0  0  0  0  0  0  0  0  0  0
   38.4093   29.2736   42.3160 C   0  0  0  0  0  0  0  0  0  0  0  0
   39.7255   28.9597   42.4256 N   0  0  0  0  0  0  0  0  0  0  0  0
   37.9180   30.3843   41.5756 N   0  0  0  0  0  0  0  0  0  0  0  0
   36.6180   30.4170   41.2438 C   0  0  0  0  0  0  0  0  0  0  0  0
   36.4085   31.5595   40.5496 N   0  0  0  0  0  0  0  0  0  0  0  0
   37.5487   32.2509   40.4350 C   0  0  0  0  0  0  0  0  0  0  0  0
   38.0127   33.4229   39.8866 C   0  0  0  0  0  0  0  0  0  0  0  0
   39.2972   33.8142   39.9763 N   0  0  0  0  0  0  0  0  0  0  0  0
   40.1832   33.0312   40.6313 C   0  0  0  0  0  0  0  0  0  0  0  0
   39.7728   31.8757   41.1831 N   0  0  0  0  0  0  0  0  0  0  0  0
   38.5002   31.5026   41.0861 C   0  0  0  0  0  0  0  0  0  0  0  0
   41.1361   27.6576   43.2207 H   0  0  0  0  0  0  0  0  0  0  0  0
   39.4307   26.2066   44.3818 H   0  0  0  0  0  0  0  0  0  0  0  0
   37.0085   26.8335   44.1455 H   0  0  0  0  0  0  0  0  0  0  0  0
   35.7324   29.8060   41.3745 H   0  0  0  0  0  0  0  0  0  0  0  0
   37.2690   34.0398   39.3594 H   0  0  0  0  0  0  0  0  0  0  0  0
   41.5676   33.3473   40.7872 N   0  0  0  0  0  0  0  0  0  0  0  0
   42.3041   33.2727   41.9122 C   0  0  0  0  0  0  0  0  0  0  0  0
   43.5713   33.6522   41.6694 N   0  0  0  0  0  0  0  0  0  0  0  0
   43.6690   33.9809   40.3660 C   0  0  0  0  0  0  0  0  0  0  0  0
   44.7431   34.4265   39.6293 C   0  0  0  0  0  0  0  0  0  0  0  0
   45.8783   34.5913   40.1631 O   0  0  0  0  0  0  0  0  0  0  0  0
   44.6108   34.6982   38.3196 N   0  0  0  0  0  0  0  0  0  0  0  0
   43.3671   34.4901   37.8523 C   0  0  0  0  0  0  0  0  0  0  0  0
   43.0997   34.7426   36.4840 N   0  0  0  0  0  0  0  0  0  0  0  0
   42.2866   34.0574   38.5268 N   0  0  0  0  0  0  0  0  0  0  0  0
   42.4149   33.7827   39.8453 C   0  0  0  0  0  0  0  0  0  0  0  0
   41.9524   32.9520   42.9044 H   0  0  0  0  0  0  0  0  0  0  0  0
   45.3663   35.0375   37.6902 H   0  0  0  0  0  0  0  0  0  0  0  0
   43.3834   34.5487   35.4785 H   0  0  0  0  0  0  0  0  0  0  0  0
   42.8131   34.9978   35.5296 H   0  0  0  0  0  0  0  0  0  0  0  0
  1  2  2  0
  3  2  1  0
  4  3  2  0
  5  6  2  0
  5  4  1  0
  6  1  1  0
  7  5  1  0
  8  7  1  0
  9  8  2  0
 10  9  1  0
 10 15  2  0
 11 12  2  0
 11 10  1  0
 12 13  1  0
 13 14  2  0
 15 14  1  0
 15  7  1  0
  1 16  1  0
  2 17  1  0
  3 18  1  0
  8 19  1  0
 11 20  1  0
 21 22  1  0
 22 23  2  0
 23 24  1  0
 24 25  1  0
 25 26  2  0
 25 27  1  0
 27 28  1  0
 28 29  1  0
 28 30  2  0
 30 31  1  0
 31 21  1  0
 31 24  2  0
 22 32  1  0
 27 33  1  0
 29 34  1  0
 29 35  1  0
 13 21  1  0
M  END
>  <DihAtoms>  (1) 
11,12,20,21

>  <DihDeg>  (1) 
-106.26022218341616

$$$$
