
     RDKit          3D

 31 34  0  0  0  0  0  0  0  0999 V2000
   40.2120   27.8560   43.1750 C   0  0  0  0  0  0  0  0  0  0  0  0
   39.3220   26.9550   43.7890 C   0  0  0  0  0  0  0  0  0  0  0  0
   37.9640   27.1690   43.6280 C   0  0  0  0  0  0  0  0  0  0  0  0
   37.5390   28.2380   42.8840 N   0  0  0  0  0  0  0  0  0  0  0  0
   38.4200   29.0900   42.3040 C   0  0  0  0  0  0  0  0  0  0  0  0
   39.7480   28.8930   42.4530 N   0  0  0  0  0  0  0  0  0  0  0  0
   37.8250   30.1470   41.5660 N   0  0  0  0  0  0  0  0  0  0  0  0
   36.5350   30.0500   41.2130 C   0  0  0  0  0  0  0  0  0  0  0  0
   36.2210   31.1780   40.5270 N   0  0  0  0  0  0  0  0  0  0  0  0
   37.2890   31.9920   40.4370 C   0  0  0  0  0  0  0  0  0  0  0  0
   37.6290   33.2150   39.9050 C   0  0  0  0  0  0  0  0  0  0  0  0
   38.8700   33.7260   40.0270 N   0  0  0  0  0  0  0  0  0  0  0  0
   39.8210   33.0170   40.6940 C   0  0  0  0  0  0  0  0  0  0  0  0
   39.5200   31.8260   41.2210 N   0  0  0  0  0  0  0  0  0  0  0  0
   38.3000   31.3190   41.1040 C   0  0  0  0  0  0  0  0  0  0  0  0
   41.1580   33.5000   40.8610 N   0  0  0  0  0  0  0  0  0  0  0  0
   42.1230   32.6820   41.3590 C   0  0  0  0  0  0  0  0  0  0  0  0
   43.4190   33.1840   41.5100 C   0  0  0  0  0  0  0  0  0  0  0  0
   43.5970   34.4800   41.1320 C   0  0  0  0  0  0  0  0  0  0  0  0
   44.7810   34.9290   41.2720 O   0  0  0  0  0  0  0  0  0  0  0  0
   42.6680   35.3190   40.6350 N   0  0  0  0  0  0  0  0  0  0  0  0
   41.4380   34.7900   40.5090 C   0  0  0  0  0  0  0  0  0  0  0  0
   40.5000   35.5030   40.0520 O   0  0  0  0  0  0  0  0  0  0  0  0
   41.2968   27.7114   43.2862 H   0  0  0  0  0  0  0  0  0  0  0  0
   39.6949   26.1053   44.3798 H   0  0  0  0  0  0  0  0  0  0  0  0
   37.2346   26.4888   44.0920 H   0  0  0  0  0  0  0  0  0  0  0  0
   35.8579   29.2127   41.4375 H   0  0  0  0  0  0  0  0  0  0  0  0
   36.8649   33.7926   39.3641 H   0  0  0  0  0  0  0  0  0  0  0  0
   41.8883   31.6442   41.6380 H   0  0  0  0  0  0  0  0  0  0  0  0
   44.2415   32.5718   41.9083 H   0  0  0  0  0  0  0  0  0  0  0  0
   42.8831   36.2912   40.3716 H   0  0  0  0  0  0  0  0  0  0  0  0
  1  2  2  0
  3  2  1  0
  4  3  2  0
  5  6  2  0
  5  4  1  0
  6  1  1  0
  7  5  1  0
  8  7  1  0
  9  8  2  0
 10  9  1  0
 10 15  2  0
 11 12  2  0
 11 10  1  0
 12 13  1  0
 13 16  1  0
 13 14  2  0
 15 14  1  0
 15  7  1  0
 16 17  1  0
 17 18  2  0
 19 20  2  0
 19 18  1  0
 21 19  1  0
 22 21  1  0
 22 16  1  0
 23 22  2  0
  1 24  1  0
  2 25  1  0
  3 26  1  0
  8 27  1  0
 11 28  1  0
 17 29  1  0
 18 30  1  0
 21 31  1  0
M  ISO  8  24  14  25  14  26  14  27  14  28  14  29  14  30  14  31   9
M  END
>  <minimizedAffinity>  (1) 
-6.89126873

>  <minimizedRMSD>  (1) 
0.434059054

$$$$
