
     RDKit          3D

 28 30  0  0  0  0  0  0  0  0999 V2000
   39.8030   27.8610   43.1920 C   0  0  0  0  0  0  0  0  0  0  0  0
   38.7780   27.0770   43.7510 C   0  0  0  0  0  0  0  0  0  0  0  0
   37.4740   27.4850   43.5170 C   0  0  0  0  0  0  0  0  0  0  0  0
   37.2850   28.6090   42.7680 N   0  0  0  0  0  0  0  0  0  0  0  0
   38.2830   29.3390   42.2450 C   0  0  0  0  0  0  0  0  0  0  0  0
   39.5620   28.9700   42.4530 N   0  0  0  0  0  0  0  0  0  0  0  0
   37.8820   30.4770   41.4940 N   0  0  0  0  0  0  0  0  0  0  0  0
   36.6080   30.5500   41.0690 C   0  0  0  0  0  0  0  0  0  0  0  0
   36.4820   31.7250   40.3800 N   0  0  0  0  0  0  0  0  0  0  0  0
   37.6480   32.3800   40.3670 C   0  0  0  0  0  0  0  0  0  0  0  0
   38.1890   33.5490   39.8830 C   0  0  0  0  0  0  0  0  0  0  0  0
   39.4790   33.8950   40.0780 N   0  0  0  0  0  0  0  0  0  0  0  0
   40.2850   33.0660   40.7800 C   0  0  0  0  0  0  0  0  0  0  0  0
   39.7960   31.9160   41.2720 N   0  0  0  0  0  0  0  0  0  0  0  0
   38.5220   31.5820   41.0730 C   0  0  0  0  0  0  0  0  0  0  0  0
   41.6470   33.4190   40.9940 N   0  0  0  0  0  0  0  0  0  0  0  0
   42.0150   34.7920   41.0750 C   0  0  0  0  0  0  0  0  0  0  0  0
   41.0660   35.6300   41.2690 N   0  0  0  0  0  0  0  0  0  0  0  0
   43.3820   35.1860   40.9440 N   0  0  0  0  0  0  0  0  0  0  0  0
   41.2200   36.6570   41.3440 H   0  0  0  0  0  0  0  0  0  0  0  0
   40.8472   27.5600   43.3626 H   0  0  0  0  0  0  0  0  0  0  0  0
   39.0011   26.1800   44.3473 H   0  0  0  0  0  0  0  0  0  0  0  0
   36.6205   26.9213   43.9217 H   0  0  0  0  0  0  0  0  0  0  0  0
   35.8170   29.8056   41.2426 H   0  0  0  0  0  0  0  0  0  0  0  0
   37.5419   34.2313   39.3123 H   0  0  0  0  0  0  0  0  0  0  0  0
   42.3630   32.6848   41.0898 H   0  0  0  0  0  0  0  0  0  0  0  0
   43.6390   36.1816   41.0039 H   0  0  0  0  0  0  0  0  0  0  0  0
   44.1105   34.4744   40.7896 H   0  0  0  0  0  0  0  0  0  0  0  0
  1  2  2  0
  3  2  1  0
  4  3  2  0
  5  6  2  0
  5  4  1  0
  6  1  1  0
  7  5  1  0
  8  7  1  0
  9  8  2  0
 10  9  1  0
 10 15  2  0
 11 12  2  0
 11 10  1  0
 12 13  1  0
 13 16  1  0
 13 14  2  0
 15 14  1  0
 15  7  1  0
 16 17  1  0
 17 18  2  0
 18 20  1  0
 19 17  1  0
  1 21  1  0
  2 22  1  0
  3 23  1  0
  8 24  1  0
 11 25  1  0
 16 26  1  0
 19 27  1  0
 19 28  1  0
M  ISO  5  21  14  22  14  23  14  24  14  25  14
M  END
>  <minimizedAffinity>  (1) 
-6.29196548

>  <minimizedRMSD>  (1) 
0.251480341

$$$$
