
     RDKit          3D

 28 31  0  0  0  0  0  0  0  0999 V2000
   40.0470   27.8940   43.1750 C   0  0  0  0  0  0  0  0  0  0  0  0
   39.0940   27.0420   43.7890 C   0  0  0  0  0  0  0  0  0  0  0  0
   37.7370   27.3580   43.6170 C   0  0  0  0  0  0  0  0  0  0  0  0
   37.3960   28.4570   42.8740 N   0  0  0  0  0  0  0  0  0  0  0  0
   38.3470   29.2400   42.3060 C   0  0  0  0  0  0  0  0  0  0  0  0
   39.6690   28.9700   42.4490 N   0  0  0  0  0  0  0  0  0  0  0  0
   37.8540   30.3480   41.5620 N   0  0  0  0  0  0  0  0  0  0  0  0
   36.5440   30.3450   41.2060 C   0  0  0  0  0  0  0  0  0  0  0  0
   36.3010   31.4800   40.5130 N   0  0  0  0  0  0  0  0  0  0  0  0
   37.4250   32.2080   40.4190 C   0  0  0  0  0  0  0  0  0  0  0  0
   37.8570   33.4000   39.8800 C   0  0  0  0  0  0  0  0  0  0  0  0
   39.1320   33.8170   39.9980 N   0  0  0  0  0  0  0  0  0  0  0  0
   40.0320   33.0620   40.6600 C   0  0  0  0  0  0  0  0  0  0  0  0
   39.6510   31.8900   41.2020 N   0  0  0  0  0  0  0  0  0  0  0  0
   38.3840   31.4800   41.0830 C   0  0  0  0  0  0  0  0  0  0  0  0
   41.3730   33.5630   40.7500 N   0  0  0  0  0  0  0  0  0  0  0  0
   42.3800   32.6630   40.8440 C   0  0  0  0  0  0  0  0  0  0  0  0
   43.5720   33.3910   40.9190 C   0  0  0  0  0  0  0  0  0  0  0  0
   43.2490   34.6910   40.8680 N   0  0  0  0  0  0  0  0  0  0  0  0
   41.8970   34.8060   40.7640 C   0  0  0  0  0  0  0  0  0  0  0  0
   41.1185   27.6743   43.2921 H   0  0  0  0  0  0  0  0  0  0  0  0
   39.4062   26.1668   44.3777 H   0  0  0  0  0  0  0  0  0  0  0  0
   36.9571   26.7307   44.0733 H   0  0  0  0  0  0  0  0  0  0  0  0
   35.8108   29.5590   41.4398 H   0  0  0  0  0  0  0  0  0  0  0  0
   37.1382   34.0307   39.3364 H   0  0  0  0  0  0  0  0  0  0  0  0
   42.2798   31.5677   40.8586 H   0  0  0  0  0  0  0  0  0  0  0  0
   44.5864   32.9741   41.0041 H   0  0  0  0  0  0  0  0  0  0  0  0
   41.3309   35.7471   40.7022 H   0  0  0  0  0  0  0  0  0  0  0  0
  1  2  2  0
  3  2  1  0
  4  3  2  0
  5  6  2  0
  5  4  1  0
  6  1  1  0
  7  5  1  0
  8  7  1  0
  9  8  2  0
 10  9  1  0
 10 15  2  0
 11 12  2  0
 11 10  1  0
 12 13  1  0
 13 16  1  0
 13 14  2  0
 15 14  1  0
 15  7  1  0
 16 20  1  0
 16 17  1  0
 17 18  2  0
 19 18  1  0
 20 19  2  0
  1 21  1  0
  2 22  1  0
  3 23  1  0
  8 24  1  0
 11 25  1  0
 17 26  1  0
 18 27  1  0
 20 28  1  0
M  ISO  8  21  14  22  14  23  14  24  14  25  14  26  14  27  14  28  14
M  END
>  <minimizedAffinity>  (1) 
-5.84675312

>  <minimizedRMSD>  (1) 
0.150363028

$$$$
