
     RDKit          3D

 28 31  0  0  0  0  0  0  0  0999 V2000
   39.9650   27.8690   43.1790 C   0  0  0  0  0  0  0  0  0  0  0  0
   38.9520   27.0710   43.7710 C   0  0  0  0  0  0  0  0  0  0  0  0
   37.6140   27.4410   43.5820 C   0  0  0  0  0  0  0  0  0  0  0  0
   37.3580   28.5600   42.8310 N   0  0  0  0  0  0  0  0  0  0  0  0
   38.3390   29.2990   42.2800 C   0  0  0  0  0  0  0  0  0  0  0  0
   39.6350   28.9520   42.4560 N   0  0  0  0  0  0  0  0  0  0  0  0
   37.8910   30.4200   41.5360 N   0  0  0  0  0  0  0  0  0  0  0  0
   36.5990   30.4910   41.1700 C   0  0  0  0  0  0  0  0  0  0  0  0
   36.4320   31.6520   40.4740 N   0  0  0  0  0  0  0  0  0  0  0  0
   37.6030   32.3150   40.3980 C   0  0  0  0  0  0  0  0  0  0  0  0
   38.0940   33.4860   39.8630 C   0  0  0  0  0  0  0  0  0  0  0  0
   39.3890   33.8400   39.9920 N   0  0  0  0  0  0  0  0  0  0  0  0
   40.2360   33.0170   40.6690 C   0  0  0  0  0  0  0  0  0  0  0  0
   39.7900   31.8680   41.2020 N   0  0  0  0  0  0  0  0  0  0  0  0
   38.5110   31.5280   41.0700 C   0  0  0  0  0  0  0  0  0  0  0  0
   41.6280   33.3170   40.8510 N   0  0  0  0  0  0  0  0  0  0  0  0
   42.4530   32.8390   41.7760 N   0  0  0  0  0  0  0  0  0  0  0  0
   43.6780   33.3530   41.6260 C   0  0  0  0  0  0  0  0  0  0  0  0
   43.5870   34.1980   40.5400 C   0  0  0  0  0  0  0  0  0  0  0  0
   42.2940   34.1830   40.0440 C   0  0  0  0  0  0  0  0  0  0  0  0
   41.0232   27.6001   43.3125 H   0  0  0  0  0  0  0  0  0  0  0  0
   39.2113   26.1821   44.3648 H   0  0  0  0  0  0  0  0  0  0  0  0
   36.7950   26.8530   44.0218 H   0  0  0  0  0  0  0  0  0  0  0  0
   35.8188   29.7479   41.3916 H   0  0  0  0  0  0  0  0  0  0  0  0
   37.4103   34.1511   39.3151 H   0  0  0  0  0  0  0  0  0  0  0  0
   44.5683   33.1461   42.2381 H   0  0  0  0  0  0  0  0  0  0  0  0
   44.4158   34.7937   40.1298 H   0  0  0  0  0  0  0  0  0  0  0  0
   41.8954   34.7466   39.1876 H   0  0  0  0  0  0  0  0  0  0  0  0
  1  2  2  0
  3  2  1  0
  4  3  2  0
  5  6  2  0
  5  4  1  0
  6  1  1  0
  7  5  1  0
  8  7  1  0
  9  8  2  0
 10  9  1  0
 10 15  2  0
 11 12  2  0
 11 10  1  0
 12 13  1  0
 13 16  1  0
 13 14  2  0
 15 14  1  0
 15  7  1  0
 16 17  1  0
 18 17  2  0
 19 18  1  0
 20 19  2  0
 20 16  1  0
  1 21  1  0
  2 22  1  0
  3 23  1  0
  8 24  1  0
 11 25  1  0
 18 26  1  0
 19 27  1  0
 20 28  1  0
M  ISO  8  21  14  22  14  23  14  24  14  25  14  26  14  27  14  28  14
M  END
>  <minimizedAffinity>  (1) 
-5.83532429

>  <minimizedRMSD>  (1) 
0.116948329

$$$$
