
     RDKit          3D

 34 37  0  0  0  0  0  0  0  0999 V2000
   40.0960   27.9180   43.1400 C   0  0  0  0  0  0  0  0  0  0  0  0
   39.1020   27.1430   43.7870 C   0  0  0  0  0  0  0  0  0  0  0  0
   37.7790   27.5420   43.6410 C   0  0  0  0  0  0  0  0  0  0  0  0
   37.4880   28.6500   42.8890 N   0  0  0  0  0  0  0  0  0  0  0  0
   38.4710   29.3640   42.2860 C   0  0  0  0  0  0  0  0  0  0  0  0
   39.7740   29.0060   42.4050 N   0  0  0  0  0  0  0  0  0  0  0  0
   38.0090   30.4880   41.5420 N   0  0  0  0  0  0  0  0  0  0  0  0
   36.7140   30.5660   41.2090 C   0  0  0  0  0  0  0  0  0  0  0  0
   36.5320   31.7130   40.5140 N   0  0  0  0  0  0  0  0  0  0  0  0
   37.7080   32.3720   40.3960 C   0  0  0  0  0  0  0  0  0  0  0  0
   38.1820   33.5300   39.8380 C   0  0  0  0  0  0  0  0  0  0  0  0
   39.4880   33.8790   39.9290 N   0  0  0  0  0  0  0  0  0  0  0  0
   40.3400   33.0610   40.5850 C   0  0  0  0  0  0  0  0  0  0  0  0
   39.9130   31.9220   41.1420 N   0  0  0  0  0  0  0  0  0  0  0  0
   38.6240   31.5860   41.0500 C   0  0  0  0  0  0  0  0  0  0  0  0
   41.7820   33.4010   40.7100 C   0  0  0  0  0  0  0  0  0  0  0  0
   41.9290   34.8550   41.0360 C   0  0  0  0  0  0  0  0  0  0  0  0
   43.2940   34.9550   41.6850 C   0  0  0  0  0  0  0  0  0  0  0  0
   43.7360   33.5300   41.9660 C   0  0  0  0  0  0  0  0  0  0  0  0
   42.4540   32.6940   41.8580 C   0  0  0  0  0  0  0  0  0  0  0  0
   41.1526   27.6282   43.2378 H   0  0  0  0  0  0  0  0  0  0  0  0
   39.3679   26.2577   44.3832 H   0  0  0  0  0  0  0  0  0  0  0  0
   36.9717   26.9730   44.1252 H   0  0  0  0  0  0  0  0  0  0  0  0
   35.9362   29.8285   41.4565 H   0  0  0  0  0  0  0  0  0  0  0  0
   37.4854   34.1924   39.3032 H   0  0  0  0  0  0  0  0  0  0  0  0
   42.2371   33.1090   39.7521 H   0  0  0  0  0  0  0  0  0  0  0  0
   41.8860   35.4658   40.1222 H   0  0  0  0  0  0  0  0  0  0  0  0
   41.1243   35.2235   41.6892 H   0  0  0  0  0  0  0  0  0  0  0  0
   44.0044   35.4472   41.0045 H   0  0  0  0  0  0  0  0  0  0  0  0
   43.2556   35.5518   42.6083 H   0  0  0  0  0  0  0  0  0  0  0  0
   44.4773   33.2005   41.2231 H   0  0  0  0  0  0  0  0  0  0  0  0
   44.2152   33.4303   42.9511 H   0  0  0  0  0  0  0  0  0  0  0  0
   41.8533   32.7457   42.7781 H   0  0  0  0  0  0  0  0  0  0  0  0
   42.6131   31.6156   41.7109 H   0  0  0  0  0  0  0  0  0  0  0  0
  1  2  2  0
  3  2  1  0
  4  3  2  0
  5  6  2  0
  5  4  1  0
  6  1  1  0
  7  5  1  0
  8  7  1  0
  9  8  2  0
 10  9  1  0
 10 15  2  0
 11 12  2  0
 11 10  1  0
 12 13  1  0
 13 16  1  0
 13 14  2  0
 15 14  1  0
 15  7  1  0
 16 17  1  0
 16 20  1  0
 17 18  1  0
 18 19  1  0
 20 19  1  0
  1 21  1  0
  2 22  1  0
  3 23  1  0
  8 24  1  0
 11 25  1  0
 16 26  1  0
 17 27  1  0
 17 28  1  0
 18 29  1  0
 18 30  1  0
 19 31  1  0
 19 32  1  0
 20 33  1  0
 20 34  1  0
M  ISO  8  21  14  22  14  23  14  24  14  25  14  26  13  27  13  28  13
M  ISO  6  29  13  30  13  31  13  32  13  33  13  34  13
M  END
>  <minimizedAffinity>  (1) 
-5.62940359

>  <minimizedRMSD>  (1) 
0.440210938

$$$$
