
     RDKit          3D

 37 40  0  0  1  0  0  0  0  0999 V2000
   38.3170   30.6610   39.5130 C   0  0  1  0  0  0  0  0  0  0  0  0
   37.7240   30.8110   38.1040 C   0  0  0  0  0  0  0  0  0  0  0  0
   36.3210   30.2630   38.3140 C   0  0  0  0  0  0  0  0  0  0  0  0
   36.3860   29.3870   39.5440 C   0  0  0  0  0  0  0  0  0  0  0  0
   37.8760   29.2650   39.8420 C   0  0  2  0  0  0  0  0  0  0  0  0
   40.8440   35.4800   39.7250 C   0  0  0  0  0  0  0  0  0  0  0  0
   39.5530   35.9380   40.0730 C   0  0  0  0  0  0  0  0  0  0  0  0
   38.5710   34.9830   40.2770 C   0  0  0  0  0  0  0  0  0  0  0  0
   38.9130   33.6760   40.1310 N   0  0  0  0  0  0  0  0  0  0  0  0
   40.1210   33.2490   39.8040 C   0  0  0  0  0  0  0  0  0  0  0  0
   41.0930   34.1670   39.6000 N   0  0  0  0  0  0  0  0  0  0  0  0
   40.4960   31.8990   39.6340 N   0  0  0  0  0  0  0  0  0  0  0  0
   41.8090   31.6530   39.5890 N   0  0  0  0  0  0  0  0  0  0  0  0
   41.9860   30.3080   39.4060 C   0  0  0  0  0  0  0  0  0  0  0  0
   40.7000   29.7590   39.3440 C   0  0  0  0  0  0  0  0  0  0  0  0
   39.7750   30.7890   39.4900 C   0  0  0  0  0  0  0  0  0  0  0  0
   37.9770   28.9430   41.2550 N   0  0  0  0  0  0  0  0  0  0  0  0
   37.6220   29.6330   42.3250 N   0  0  0  0  0  0  0  0  0  0  0  0
   37.8980   28.9570   43.4560 C   0  0  0  0  0  0  0  0  0  0  0  0
   38.4680   27.7540   43.0470 C   0  0  0  0  0  0  0  0  0  0  0  0
   38.5120   27.7570   41.6690 C   0  0  0  0  0  0  0  0  0  0  0  0
   37.9948   31.4206   40.2405 H   0  0  0  0  0  0  0  0  0  0  0  0
   38.2827   30.2165   37.3661 H   0  0  0  0  0  0  0  0  0  0  0  0
   37.7534   31.8371   37.7087 H   0  0  0  0  0  0  0  0  0  0  0  0
   35.6099   31.0874   38.4710 H   0  0  0  0  0  0  0  0  0  0  0  0
   35.9789   29.6945   37.4366 H   0  0  0  0  0  0  0  0  0  0  0  0
   35.8576   29.8579   40.3860 H   0  0  0  0  0  0  0  0  0  0  0  0
   35.9072   28.4089   39.3888 H   0  0  0  0  0  0  0  0  0  0  0  0
   38.4660   28.5071   39.3059 H   0  0  0  0  0  0  0  0  0  0  0  0
   41.6523   36.2064   39.5550 H   0  0  0  0  0  0  0  0  0  0  0  0
   39.3366   37.0114   40.1778 H   0  0  0  0  0  0  0  0  0  0  0  0
   37.5455   35.2736   40.5489 H   0  0  0  0  0  0  0  0  0  0  0  0
   42.9418   29.7697   39.3245 H   0  0  0  0  0  0  0  0  0  0  0  0
   40.4609   28.6945   39.2037 H   0  0  0  0  0  0  0  0  0  0  0  0
   37.7119   29.2865   44.4889 H   0  0  0  0  0  0  0  0  0  0  0  0
   38.8200   26.9462   43.7054 H   0  0  0  0  0  0  0  0  0  0  0  0
   38.9038   26.9558   41.0252 H   0  0  0  0  0  0  0  0  0  0  0  0
  1  5  1  0
  2  3  1  0
  2  1  1  0
  3  4  1  0
  4  5  1  0
  5 17  1  0
  6  7  2  0
  7  8  1  0
  9  8  2  0
 10  9  1  0
 11  6  1  0
 11 10  2  0
 12 10  1  0
 13 12  1  0
 14 13  2  0
 15 14  1  0
 15 16  2  0
 16  1  1  0
 16 12  1  0
 17 21  1  0
 17 18  1  0
 18 19  2  0
 20 19  1  0
 21 20  2  0
  1 22  1  1
  2 23  1  0
  2 24  1  0
  3 25  1  0
  3 26  1  0
  4 27  1  0
  4 28  1  0
  5 29  1  6
  6 30  1  0
  7 31  1  0
  8 32  1  0
 14 33  1  0
 15 34  1  0
 19 35  1  0
 20 36  1  0
 21 37  1  0
M  ISO  8  22  13  23  13  24  13  25  13  26  13  27  13  28  13  29  13
M  ISO  8  30  14  31  14  32  14  33  14  34  14  35  14  36  14  37  14
M  END
>  <minimizedAffinity>  (1) 
-5.42187119

>  <minimizedRMSD>  (1) 
5.38151646

$$$$
