
     RDKit          3D

 29 32  0  0  0  0  0  0  0  0999 V2000
   39.8900   27.8010   43.1830 C   0  0  0  0  0  0  0  0  0  0  0  0
   38.8400   27.0750   43.8160 C   0  0  0  0  0  0  0  0  0  0  0  0
   37.5350   27.5420   43.6540 C   0  0  0  0  0  0  0  0  0  0  0  0
   37.3310   28.6690   42.8970 N   0  0  0  0  0  0  0  0  0  0  0  0
   38.3570   29.3310   42.3120 C   0  0  0  0  0  0  0  0  0  0  0  0
   39.6390   28.9090   42.4450 N   0  0  0  0  0  0  0  0  0  0  0  0
   37.9820   30.4810   41.5590 N   0  0  0  0  0  0  0  0  0  0  0  0
   36.6830   30.6160   41.1990 C   0  0  0  0  0  0  0  0  0  0  0  0
   36.5830   31.7730   40.5030 N   0  0  0  0  0  0  0  0  0  0  0  0
   37.7860   32.3730   40.4140 C   0  0  0  0  0  0  0  0  0  0  0  0
   38.3370   33.5100   39.8710 C   0  0  0  0  0  0  0  0  0  0  0  0
   39.6560   33.7930   39.9930 N   0  0  0  0  0  0  0  0  0  0  0  0
   40.4530   32.9340   40.6660 C   0  0  0  0  0  0  0  0  0  0  0  0
   39.9500   31.8180   41.2080 N   0  0  0  0  0  0  0  0  0  0  0  0
   38.6440   31.5410   41.0860 C   0  0  0  0  0  0  0  0  0  0  0  0
   41.8750   33.2400   40.7980 C   0  0  0  0  0  0  0  0  0  0  0  0
   42.5550   33.8010   39.7360 C   0  0  0  0  0  0  0  0  0  0  0  0
   43.9130   34.0740   39.9110 C   0  0  0  0  0  0  0  0  0  0  0  0
   44.5240   33.7930   41.0810 N   0  0  0  0  0  0  0  0  0  0  0  0
   43.8420   33.2440   42.1040 C   0  0  0  0  0  0  0  0  0  0  0  0
   42.5130   32.9680   41.9570 N   0  0  0  0  0  0  0  0  0  0  0  0
   40.9277   27.4540   43.2961 H   0  0  0  0  0  0  0  0  0  0  0  0
   39.0512   26.1756   44.4130 H   0  0  0  0  0  0  0  0  0  0  0  0
   36.6885   27.0187   44.1225 H   0  0  0  0  0  0  0  0  0  0  0  0
   35.8645   29.9179   41.4287 H   0  0  0  0  0  0  0  0  0  0  0  0
   37.6886   34.2090   39.3224 H   0  0  0  0  0  0  0  0  0  0  0  0
   42.0459   34.0247   38.7869 H   0  0  0  0  0  0  0  0  0  0  0  0
   44.4897   34.5219   39.0883 H   0  0  0  0  0  0  0  0  0  0  0  0
   44.3524   33.0193   43.0522 H   0  0  0  0  0  0  0  0  0  0  0  0
  1  2  2  0
  3  2  1  0
  4  3  2  0
  5  6  2  0
  5  4  1  0
  6  1  1  0
  7  5  1  0
  8  7  1  0
  9  8  2  0
 10  9  1  0
 10 15  2  0
 11 12  2  0
 11 10  1  0
 12 13  1  0
 13 16  1  0
 13 14  2  0
 15 14  1  0
 15  7  1  0
 16 21  2  0
 17 18  2  0
 17 16  1  0
 18 19  1  0
 19 20  2  0
 21 20  1  0
  1 22  1  0
  2 23  1  0
  3 24  1  0
  8 25  1  0
 11 26  1  0
 17 27  1  0
 18 28  1  0
 20 29  1  0
M  ISO  8  22  14  23  14  24  14  25  14  26  14  27  14  28  14  29  14
M  END
>  <minimizedAffinity>  (1) 
-5.57715797

>  <minimizedRMSD>  (1) 
0.385345995

$$$$
