
     RDKit          3D

 28 31  0  0  0  0  0  0  0  0999 V2000
   40.0960   27.8850   43.1690 C   0  0  0  0  0  0  0  0  0  0  0  0
   39.1400   27.0780   43.8090 C   0  0  0  0  0  0  0  0  0  0  0  0
   37.7870   27.4190   43.6670 C   0  0  0  0  0  0  0  0  0  0  0  0
   37.4780   28.5230   42.9100 N   0  0  0  0  0  0  0  0  0  0  0  0
   38.4170   29.2740   42.3120 C   0  0  0  0  0  0  0  0  0  0  0  0
   39.7120   28.9560   42.4400 N   0  0  0  0  0  0  0  0  0  0  0  0
   37.9070   30.3740   41.5720 N   0  0  0  0  0  0  0  0  0  0  0  0
   36.6080   30.4000   41.2460 C   0  0  0  0  0  0  0  0  0  0  0  0
   36.3730   31.5500   40.5450 N   0  0  0  0  0  0  0  0  0  0  0  0
   37.5110   32.2490   40.4240 C   0  0  0  0  0  0  0  0  0  0  0  0
   37.9630   33.4220   39.8740 C   0  0  0  0  0  0  0  0  0  0  0  0
   39.2490   33.8250   39.9560 N   0  0  0  0  0  0  0  0  0  0  0  0
   40.1460   33.0350   40.6140 C   0  0  0  0  0  0  0  0  0  0  0  0
   39.7500   31.8780   41.1690 N   0  0  0  0  0  0  0  0  0  0  0  0
   38.4800   31.4980   41.0780 C   0  0  0  0  0  0  0  0  0  0  0  0
   41.5660   33.3760   40.7630 C   0  0  0  0  0  0  0  0  0  0  0  0
   42.3570   34.2230   40.0170 C   0  0  0  0  0  0  0  0  0  0  0  0
   43.6020   34.1550   40.6090 C   0  0  0  0  0  0  0  0  0  0  0  0
   43.5020   33.2830   41.6700 C   0  0  0  0  0  0  0  0  0  0  0  0
   42.2830   32.8440   41.7280 O   0  0  0  0  0  0  0  0  0  0  0  0
   41.1650   27.6430   43.2622 H   0  0  0  0  0  0  0  0  0  0  0  0
   39.4440   26.2042   44.4041 H   0  0  0  0  0  0  0  0  0  0  0  0
   36.9980   26.8212   44.1467 H   0  0  0  0  0  0  0  0  0  0  0  0
   35.8621   29.6318   41.4978 H   0  0  0  0  0  0  0  0  0  0  0  0
   37.2449   34.0633   39.3420 H   0  0  0  0  0  0  0  0  0  0  0  0
   42.0613   34.8213   39.1426 H   0  0  0  0  0  0  0  0  0  0  0  0
   44.5056   34.6964   40.2923 H   0  0  0  0  0  0  0  0  0  0  0  0
   44.3183   33.0056   42.3531 H   0  0  0  0  0  0  0  0  0  0  0  0
  1  2  2  0
  3  2  1  0
  4  3  2  0
  5  6  2  0
  5  4  1  0
  6  1  1  0
  7  5  1  0
  8  7  1  0
  9  8  2  0
 10  9  1  0
 10 15  2  0
 11 12  2  0
 11 10  1  0
 12 13  1  0
 13 16  1  0
 13 14  2  0
 15 14  1  0
 15  7  1  0
 16 20  1  0
 17 18  1  0
 17 16  2  0
 18 19  2  0
 19 20  1  0
  1 21  1  0
  2 22  1  0
  3 23  1  0
  8 24  1  0
 11 25  1  0
 17 26  1  0
 18 27  1  0
 19 28  1  0
M  ISO  8  21  14  22  14  23  14  24  14  25  14  26  14  27  14  28  14
M  END
>  <minimizedAffinity>  (1) 
-5.53523731

>  <minimizedRMSD>  (1) 
0.0477572493

$$$$
