
     RDKit          3D

 24 26  0  0  0  0  0  0  0  0999 V2000
   40.5790   28.0800   43.0060 C   0  0  0  0  0  0  0  0  0  0  0  0
   39.7610   27.1770   43.7080 C   0  0  0  0  0  0  0  0  0  0  0  0
   38.3670   27.3610   43.6570 C   0  0  0  0  0  0  0  0  0  0  0  0
   37.8800   28.4140   42.9240 N   0  0  0  0  0  0  0  0  0  0  0  0
   38.7090   29.2650   42.2600 C   0  0  0  0  0  0  0  0  0  0  0  0
   40.0570   29.1050   42.2970 N   0  0  0  0  0  0  0  0  0  0  0  0
   38.0170   30.2950   41.5590 N   0  0  0  0  0  0  0  0  0  0  0  0
   36.7080   30.1580   41.3060 C   0  0  0  0  0  0  0  0  0  0  0  0
   36.3010   31.2820   40.6320 N   0  0  0  0  0  0  0  0  0  0  0  0
   37.3390   32.1030   40.4700 C   0  0  0  0  0  0  0  0  0  0  0  0
   37.6110   33.3250   39.9140 C   0  0  0  0  0  0  0  0  0  0  0  0
   38.8450   33.8890   39.9310 N   0  0  0  0  0  0  0  0  0  0  0  0
   39.8610   33.2170   40.5250 C   0  0  0  0  0  0  0  0  0  0  0  0
   39.6420   32.0220   41.0810 N   0  0  0  0  0  0  0  0  0  0  0  0
   38.4170   31.4850   41.0500 C   0  0  0  0  0  0  0  0  0  0  0  0
   41.2190   33.8080   40.5600 C   0  0  0  0  0  0  0  0  0  0  0  0
   42.0220   33.0830   41.4430 F   0  0  0  0  0  0  0  0  0  0  0  0
   41.7660   33.7530   39.2940 F   0  0  0  0  0  0  0  0  0  0  0  0
   41.1760   35.1280   40.9730 F   0  0  0  0  0  0  0  0  0  0  0  0
   41.6708   27.9487   43.0347 H   0  0  0  0  0  0  0  0  0  0  0  0
   40.1998   26.3478   44.2824 H   0  0  0  0  0  0  0  0  0  0  0  0
   37.6868   26.6801   44.1896 H   0  0  0  0  0  0  0  0  0  0  0  0
   36.0763   29.3024   41.5868 H   0  0  0  0  0  0  0  0  0  0  0  0
   36.7901   33.8752   39.4308 H   0  0  0  0  0  0  0  0  0  0  0  0
  1  2  2  0
  3  2  1  0
  4  3  2  0
  5  6  2  0
  5  4  1  0
  6  1  1  0
  7  5  1  0
  8  7  1  0
  9  8  2  0
 10  9  1  0
 10 15  2  0
 11 12  2  0
 11 10  1  0
 12 13  1  0
 13 16  1  0
 13 14  2  0
 15 14  1  0
 15  7  1  0
 16 19  1  0
 16 17  1  0
 18 16  1  0
  1 20  1  0
  2 21  1  0
  3 22  1  0
  8 23  1  0
 11 24  1  0
M  ISO  5  20  14  21  14  22  14  23  14  24  14
M  END
>  <minimizedAffinity>  (1) 
-5.3165946

>  <minimizedRMSD>  (1) 
0.548659444

$$$$
