
     RDKit          3D

 24 26  0  0  0  0  0  0  0  0999 V2000
   40.0420   27.8680   43.1720 C   0  0  0  0  0  0  0  0  0  0  0  0
   39.0930   27.0670   43.8340 C   0  0  0  0  0  0  0  0  0  0  0  0
   37.7630   27.4310   43.7020 C   0  0  0  0  0  0  0  0  0  0  0  0
   37.4440   28.5330   42.9450 N   0  0  0  0  0  0  0  0  0  0  0  0
   38.3980   29.2760   42.3230 C   0  0  0  0  0  0  0  0  0  0  0  0
   39.7000   28.9520   42.4310 N   0  0  0  0  0  0  0  0  0  0  0  0
   37.9040   30.3840   41.5780 N   0  0  0  0  0  0  0  0  0  0  0  0
   36.6020   30.4130   41.2480 C   0  0  0  0  0  0  0  0  0  0  0  0
   36.4000   31.5550   40.5520 N   0  0  0  0  0  0  0  0  0  0  0  0
   37.5350   32.2490   40.4320 C   0  0  0  0  0  0  0  0  0  0  0  0
   37.9900   33.4180   39.8770 C   0  0  0  0  0  0  0  0  0  0  0  0
   39.2840   33.8130   39.9640 N   0  0  0  0  0  0  0  0  0  0  0  0
   40.1640   33.0260   40.6230 C   0  0  0  0  0  0  0  0  0  0  0  0
   39.7640   31.8690   41.1830 N   0  0  0  0  0  0  0  0  0  0  0  0
   38.4810   31.5010   41.0840 C   0  0  0  0  0  0  0  0  0  0  0  0
   41.5680   33.5060   40.6890 C   0  0  0  0  0  0  0  0  0  0  0  0
   41.1063   27.6041   43.2590 H   0  0  0  0  0  0  0  0  0  0  0  0
   39.3936   26.1920   44.4290 H   0  0  0  0  0  0  0  0  0  0  0  0
   36.9731   26.8463   44.1961 H   0  0  0  0  0  0  0  0  0  0  0  0
   35.8456   29.6539   41.4962 H   0  0  0  0  0  0  0  0  0  0  0  0
   37.2766   34.0605   39.3400 H   0  0  0  0  0  0  0  0  0  0  0  0
   41.8710   33.6096   41.7414 H   0  0  0  0  0  0  0  0  0  0  0  0
   42.2270   32.7821   40.1873 H   0  0  0  0  0  0  0  0  0  0  0  0
   41.6459   34.4818   40.1873 H   0  0  0  0  0  0  0  0  0  0  0  0
  1  2  2  0
  3  2  1  0
  4  3  2  0
  5  6  2  0
  5  4  1  0
  6  1  1  0
  7  5  1  0
  8  7  1  0
  9  8  2  0
 10  9  1  0
 10 15  2  0
 11 12  2  0
 11 10  1  0
 12 13  1  0
 13 16  1  0
 13 14  2  0
 15 14  1  0
 15  7  1  0
  1 17  1  0
  2 18  1  0
  3 19  1  0
  8 20  1  0
 11 21  1  0
 16 22  1  0
 16 23  1  0
 16 24  1  0
M  ISO  8  17  14  18  14  19  14  20  14  21  14  22   8  23   8  24   8
M  END
>  <minimizedAffinity>  (1) 
-4.96075678

>  <minimizedRMSD>  (1) 
0.01948159

$$$$
