
     RDKit          3D

 27 30  0  0  0  0  0  0  0  0999 V2000
   40.2430   27.9200   43.1380 C   0  0  0  0  0  0  0  0  0  0  0  0
   39.3580   27.0370   43.7860 C   0  0  0  0  0  0  0  0  0  0  0  0
   37.9820   27.2740   43.6710 C   0  0  0  0  0  0  0  0  0  0  0  0
   37.5750   28.3570   42.9330 N   0  0  0  0  0  0  0  0  0  0  0  0
   38.4520   29.1780   42.3290 C   0  0  0  0  0  0  0  0  0  0  0  0
   39.7890   28.9750   42.4200 N   0  0  0  0  0  0  0  0  0  0  0  0
   37.8740   30.2590   41.5970 N   0  0  0  0  0  0  0  0  0  0  0  0
   36.5590   30.1890   41.2810 C   0  0  0  0  0  0  0  0  0  0  0  0
   36.2540   31.3180   40.5960 N   0  0  0  0  0  0  0  0  0  0  0  0
   37.3360   32.0960   40.4690 C   0  0  0  0  0  0  0  0  0  0  0  0
   37.6870   33.3030   39.9170 C   0  0  0  0  0  0  0  0  0  0  0  0
   38.9460   33.7990   39.9900 N   0  0  0  0  0  0  0  0  0  0  0  0
   39.8940   33.0790   40.6300 C   0  0  0  0  0  0  0  0  0  0  0  0
   39.5920   31.8910   41.1840 N   0  0  0  0  0  0  0  0  0  0  0  0
   38.3480   31.4160   41.1050 C   0  0  0  0  0  0  0  0  0  0  0  0
   41.2420   33.5290   40.7510 N   0  0  0  0  0  0  0  0  0  0  0  0
   41.9420   34.6160   40.3800 C   0  0  0  0  0  0  0  0  0  0  0  0
   43.2190   34.4910   40.7750 N   0  0  0  0  0  0  0  0  0  0  0  0
   43.3210   33.3140   41.3980 C   0  0  0  0  0  0  0  0  0  0  0  0
   42.1030   32.7190   41.3850 N   0  0  0  0  0  0  0  0  0  0  0  0
   41.3268   27.7493   43.2166 H   0  0  0  0  0  0  0  0  0  0  0  0
   39.7371   26.1835   44.3673 H   0  0  0  0  0  0  0  0  0  0  0  0
   37.2502   26.6122   44.1574 H   0  0  0  0  0  0  0  0  0  0  0  0
   35.8687   29.3704   41.5328 H   0  0  0  0  0  0  0  0  0  0  0  0
   36.9167   33.8900   39.3954 H   0  0  0  0  0  0  0  0  0  0  0  0
   41.5300   35.4780   39.8348 H   0  0  0  0  0  0  0  0  0  0  0  0
   44.2363   32.8987   41.8450 H   0  0  0  0  0  0  0  0  0  0  0  0
  1  2  2  0
  3  2  1  0
  4  3  2  0
  5  6  2  0
  5  4  1  0
  6  1  1  0
  7  5  1  0
  8  7  1  0
  9  8  2  0
 10  9  1  0
 10 15  2  0
 11 12  2  0
 11 10  1  0
 12 13  1  0
 13 16  1  0
 13 14  2  0
 15 14  1  0
 15  7  1  0
 16 20  1  0
 17 16  1  0
 17 18  2  0
 18 19  1  0
 20 19  2  0
  1 21  1  0
  2 22  1  0
  3 23  1  0
  8 24  1  0
 11 25  1  0
 17 26  1  0
 19 27  1  0
M  ISO  7  21  14  22  14  23  14  24  14  25  14  26  14  27  14
M  END
>  <minimizedAffinity>  (1) 
-5.89500046

>  <minimizedRMSD>  (1) 
0.295040131

$$$$
