
     RDKit          3D

 38 42  0  0  0  0  0  0  0  0999 V2000
   41.3180   28.0960   43.2580 C   0  0  0  0  0  0  0  0  0  0  0  0
   40.8880   26.9590   43.9930 C   0  0  0  0  0  0  0  0  0  0  0  0
   39.5270   26.6670   43.9980 C   0  0  0  0  0  0  0  0  0  0  0  0
   38.6810   27.4850   43.2970 N   0  0  0  0  0  0  0  0  0  0  0  0
   39.1260   28.5480   42.6160 C   0  0  0  0  0  0  0  0  0  0  0  0
   40.4430   28.8680   42.5850 N   0  0  0  0  0  0  0  0  0  0  0  0
   38.1130   29.2980   41.9390 N   0  0  0  0  0  0  0  0  0  0  0  0
   36.8920   28.7560   41.7960 C   0  0  0  0  0  0  0  0  0  0  0  0
   36.1280   29.6470   41.1350 N   0  0  0  0  0  0  0  0  0  0  0  0
   36.8300   30.7470   40.8510 C   0  0  0  0  0  0  0  0  0  0  0  0
   36.6630   31.9590   40.2350 C   0  0  0  0  0  0  0  0  0  0  0  0
   37.6470   32.8740   40.1280 N   0  0  0  0  0  0  0  0  0  0  0  0
   38.8650   32.5800   40.6580 C   0  0  0  0  0  0  0  0  0  0  0  0
   39.0650   31.4020   41.2700 N   0  0  0  0  0  0  0  0  0  0  0  0
   38.0870   30.5140   41.3660 C   0  0  0  0  0  0  0  0  0  0  0  0
   39.9620   33.4800   40.5940 N   0  0  0  0  0  0  0  0  0  0  0  0
   40.1700   34.7270   40.1290 C   0  0  0  0  0  0  0  0  0  0  0  0
   41.4460   35.0840   40.3440 N   0  0  0  0  0  0  0  0  0  0  0  0
   42.0330   34.0550   40.9450 C   0  0  0  0  0  0  0  0  0  0  0  0
   41.1230   33.0640   41.1020 N   0  0  0  0  0  0  0  0  0  0  0  0
   43.4080   33.9820   41.3700 N   0  0  0  0  0  0  0  0  0  0  0  0
   44.1950   32.9940   40.8790 C   0  0  0  0  0  0  0  0  0  0  0  0
   45.5060   32.9610   41.3110 C   0  0  0  0  0  0  0  0  0  0  0  0
   45.9580   33.9040   42.2000 C   0  0  0  0  0  0  0  0  0  0  0  0
   47.3230   33.7720   42.5750 N   0  0  0  0  0  0  0  0  0  0  0  0
   45.1480   34.8660   42.6630 N   0  0  0  0  0  0  0  0  0  0  0  0
   43.8690   34.9080   42.2480 C   0  0  0  0  0  0  0  0  0  0  0  0
   43.0540   35.7850   42.6420 O   0  0  0  0  0  0  0  0  0  0  0  0
   42.3878   28.3513   43.2380 H   0  0  0  0  0  0  0  0  0  0  0  0
   41.6063   26.3305   44.5398 H   0  0  0  0  0  0  0  0  0  0  0  0
   39.1398   25.7993   44.5522 H   0  0  0  0  0  0  0  0  0  0  0  0
   36.5742   27.7654   42.1535 H   0  0  0  0  0  0  0  0  0  0  0  0
   35.6781   32.1972   39.8069 H   0  0  0  0  0  0  0  0  0  0  0  0
   39.4090   35.3576   39.6460 H   0  0  0  0  0  0  0  0  0  0  0  0
   43.8063   32.2507   40.1673 H   0  0  0  0  0  0  0  0  0  0  0  0
   46.1875   32.1798   40.9431 H   0  0  0  0  0  0  0  0  0  0  0  0
   47.7416   34.4393   43.2386 H   0  0  0  0  0  0  0  0  0  0  0  0
   47.8933   33.0091   42.1831 H   0  0  0  0  0  0  0  0  0  0  0  0
  1  2  2  0
  2  3  1  0
  4  3  2  0
  5  4  1  0
  6  5  2  0
  6  1  1  0
  7  5  1  0
  8  7  1  0
  9  8  2  0
 10  9  1  0
 10 15  2  0
 11 10  1  0
 12 11  2  0
 12 13  1  0
 13 14  2  0
 14 15  1  0
 15  7  1  0
 16 13  1  0
 16 20  1  0
 17 18  2  0
 17 16  1  0
 18 19  1  0
 19 20  2  0
 19 21  1  0
 21 27  1  0
 22 23  2  0
 22 21  1  0
 23 24  1  0
 24 25  1  0
 24 26  2  0
 27 28  2  0
 27 26  1  0
  1 29  1  0
  2 30  1  0
  3 31  1  0
  8 32  1  0
 11 33  1  0
 17 34  1  0
 22 35  1  0
 23 36  1  0
 25 37  1  0
 25 38  1  0
M  ISO  8  29  14  30  14  31  14  32  14  33  14  34  14  35  14  36  14
M  END
>  <minimizedAffinity>  (1) 
-7.71031523

>  <minimizedRMSD>  (1) 
1.68312645

$$$$
