
     RDKit          3D

 24 26  0  0  0  0  0  0  0  0999 V2000
   38.1600   29.1210   43.3900 C   0  0  0  0  0  0  0  0  0  0  0  0
   37.4010   28.0640   43.9220 C   0  0  0  0  0  0  0  0  0  0  0  0
   36.4490   27.4500   43.0810 C   0  0  0  0  0  0  0  0  0  0  0  0
   36.3180   27.9140   41.8010 N   0  0  0  0  0  0  0  0  0  0  0  0
   37.0700   28.9320   41.3310 C   0  0  0  0  0  0  0  0  0  0  0  0
   37.9860   29.5370   42.1130 N   0  0  0  0  0  0  0  0  0  0  0  0
   36.7590   29.2400   39.9770 N   0  0  0  0  0  0  0  0  0  0  0  0
   36.9120   30.4840   39.4800 C   0  0  0  0  0  0  0  0  0  0  0  0
   36.5680   30.5580   38.2010 N   0  0  0  0  0  0  0  0  0  0  0  0
   36.1680   29.3150   37.8200 C   0  0  0  0  0  0  0  0  0  0  0  0
   35.7000   28.7190   36.6630 C   0  0  0  0  0  0  0  0  0  0  0  0
   35.5970   29.4730   35.6680 O   0  0  0  0  0  0  0  0  0  0  0  0
   35.3920   27.3920   36.6820 N   0  0  0  0  0  0  0  0  0  0  0  0
   35.5320   26.6490   37.7960 C   0  0  0  0  0  0  0  0  0  0  0  0
   35.1590   25.2890   37.6070 N   0  0  0  0  0  0  0  0  0  0  0  0
   35.9870   27.1960   38.9490 N   0  0  0  0  0  0  0  0  0  0  0  0
   36.2960   28.5190   38.9390 C   0  0  0  0  0  0  0  0  0  0  0  0
   38.9091   29.6194   44.0227 H   0  0  0  0  0  0  0  0  0  0  0  0
   37.5445   27.7269   44.9592 H   0  0  0  0  0  0  0  0  0  0  0  0
   35.8276   26.6188   43.4456 H   0  0  0  0  0  0  0  0  0  0  0  0
   37.2795   31.3385   40.0671 H   0  0  0  0  0  0  0  0  0  0  0  0
   35.0430   26.9456   35.8218 H   0  0  0  0  0  0  0  0  0  0  0  0
   35.2239   24.6235   38.3905 H   0  0  0  0  0  0  0  0  0  0  0  0
   34.8241   24.9700   36.6867 H   0  0  0  0  0  0  0  0  0  0  0  0
  1  2  2  0
  3  2  1  0
  4  3  2  0
  5  4  1  0
  5  6  2  0
  6  1  1  0
  7  5  1  0
  8  7  1  0
  9  8  2  0
 10  9  1  0
 10 17  2  0
 11 13  1  0
 11 10  1  0
 12 11  2  0
 13 14  1  0
 14 16  2  0
 15 14  1  0
 17 16  1  0
 17  7  1  0
  1 18  1  0
  2 19  1  0
  3 20  1  0
  8 21  1  0
 13 22  1  0
 15 23  1  0
 15 24  1  0
M  ISO  5  18  14  19  14  20  14  21  14  22   9
M  END
>  <minimizedAffinity>  (1) 
-4.35557938

>  <minimizedRMSD>  (1) 
1.13455462

$$$$
