
     RDKit          3D

 40 44  0  0  0  0  0  0  0  0999 V2000
   40.6030   28.1150   43.0690 C   0  0  0  0  0  0  0  0  0  0  0  0
   39.8190   27.1550   43.7610 C   0  0  0  0  0  0  0  0  0  0  0  0
   38.4250   27.2380   43.6880 C   0  0  0  0  0  0  0  0  0  0  0  0
   37.8990   28.2560   42.9440 N   0  0  0  0  0  0  0  0  0  0  0  0
   38.6720   29.1530   42.2980 C   0  0  0  0  0  0  0  0  0  0  0  0
   40.0170   29.1060   42.3440 N   0  0  0  0  0  0  0  0  0  0  0  0
   37.9440   30.1510   41.5670 N   0  0  0  0  0  0  0  0  0  0  0  0
   36.6480   29.9430   41.2750 C   0  0  0  0  0  0  0  0  0  0  0  0
   36.2080   31.0210   40.5920 N   0  0  0  0  0  0  0  0  0  0  0  0
   37.1870   31.9130   40.4390 C   0  0  0  0  0  0  0  0  0  0  0  0
   37.3870   33.1430   39.8730 C   0  0  0  0  0  0  0  0  0  0  0  0
   38.5790   33.7800   39.9150 N   0  0  0  0  0  0  0  0  0  0  0  0
   39.6130   33.1810   40.5360 C   0  0  0  0  0  0  0  0  0  0  0  0
   39.4620   31.9710   41.1060 N   0  0  0  0  0  0  0  0  0  0  0  0
   38.2690   31.3510   41.0560 C   0  0  0  0  0  0  0  0  0  0  0  0
   40.9030   33.7800   40.6270 N   0  0  0  0  0  0  0  0  0  0  0  0
   41.4620   34.9380   40.2250 C   0  0  0  0  0  0  0  0  0  0  0  0
   42.7490   34.9620   40.5960 N   0  0  0  0  0  0  0  0  0  0  0  0
   42.9950   33.8130   41.2330 C   0  0  0  0  0  0  0  0  0  0  0  0
   41.8640   33.0750   41.2580 N   0  0  0  0  0  0  0  0  0  0  0  0
   44.2540   33.4420   41.7900 N   0  0  0  0  0  0  0  0  0  0  0  0
   44.5020   33.8300   43.1860 C   0  0  0  0  0  0  0  0  0  0  0  0
   45.7640   33.1030   43.6070 C   0  0  0  0  0  0  0  0  0  0  0  0
   46.7490   33.5420   42.6930 O   0  0  0  0  0  0  0  0  0  0  0  0
   46.6220   32.8470   41.4970 C   0  0  0  0  0  0  0  0  0  0  0  0
   45.2260   32.7180   41.0010 C   0  0  0  0  0  0  0  0  0  0  0  0
   41.7003   28.0568   43.1197 H   0  0  0  0  0  0  0  0  0  0  0  0
   40.3009   26.3577   44.3459 H   0  0  0  0  0  0  0  0  0  0  0  0
   37.7795   26.5145   44.2075 H   0  0  0  0  0  0  0  0  0  0  0  0
   36.0548   29.0565   41.5436 H   0  0  0  0  0  0  0  0  0  0  0  0
   36.5442   33.6330   39.3635 H   0  0  0  0  0  0  0  0  0  0  0  0
   40.9428   35.7386   39.6777 H   0  0  0  0  0  0  0  0  0  0  0  0
   44.6456   34.9181   43.2600 H   0  0  0  0  0  0  0  0  0  0  0  0
   43.6521   33.5671   43.8330 H   0  0  0  0  0  0  0  0  0  0  0  0
   46.0421   33.3719   44.6367 H   0  0  0  0  0  0  0  0  0  0  0  0
   45.6402   32.0101   43.5945 H   0  0  0  0  0  0  0  0  0  0  0  0
   47.2112   33.3722   40.7308 H   0  0  0  0  0  0  0  0  0  0  0  0
   46.9795   31.8250   41.6909 H   0  0  0  0  0  0  0  0  0  0  0  0
   45.1883   33.0994   39.9699 H   0  0  0  0  0  0  0  0  0  0  0  0
   44.9610   31.6525   41.0674 H   0  0  0  0  0  0  0  0  0  0  0  0
  1  2  2  0
  3  2  1  0
  4  3  2  0
  5  6  2  0
  5  4  1  0
  6  1  1  0
  7  5  1  0
  8  7  1  0
  9  8  2  0
 10  9  1  0
 10 15  2  0
 11 12  2  0
 11 10  1  0
 12 13  1  0
 13 16  1  0
 13 14  2  0
 15 14  1  0
 15  7  1  0
 16 20  1  0
 17 18  2  0
 17 16  1  0
 18 19  1  0
 19 20  2  0
 19 21  1  0
 21 22  1  0
 22 23  1  0
 24 23  1  0
 25 24  1  0
 26 25  1  0
 26 21  1  0
  1 27  1  0
  2 28  1  0
  3 29  1  0
  8 30  1  0
 11 31  1  0
 17 32  1  0
 22 33  1  0
 22 34  1  0
 23 35  1  0
 23 36  1  0
 25 37  1  0
 25 38  1  0
 26 39  1  0
 26 40  1  0
M  ISO  8  27  14  28  14  29  14  30  14  31  14  32  14  33  13  34  13
M  ISO  6  35  13  36  13  37  13  38  13  39  13  40  13
M  END
>  <minimizedAffinity>  (1) 
-6.79332876

>  <minimizedRMSD>  (1) 
0.534566402

$$$$
