
     RDKit          3D

 37 41  0  0  0  0  0  0  0  0999 V2000
   40.5110   28.1400   43.1270 C   0  0  0  0  0  0  0  0  0  0  0  0
   39.7220   27.1500   43.7620 C   0  0  0  0  0  0  0  0  0  0  0  0
   38.3220   27.2040   43.6200 C   0  0  0  0  0  0  0  0  0  0  0  0
   37.8200   28.2260   42.8660 N   0  0  0  0  0  0  0  0  0  0  0  0
   38.5880   29.1530   42.2760 C   0  0  0  0  0  0  0  0  0  0  0  0
   39.9380   29.1230   42.3970 N   0  0  0  0  0  0  0  0  0  0  0  0
   37.8980   30.1500   41.5260 N   0  0  0  0  0  0  0  0  0  0  0  0
   36.6040   29.9260   41.1930 C   0  0  0  0  0  0  0  0  0  0  0  0
   36.1750   30.9950   40.4970 N   0  0  0  0  0  0  0  0  0  0  0  0
   37.1540   31.8960   40.3750 C   0  0  0  0  0  0  0  0  0  0  0  0
   37.3610   33.1230   39.8160 C   0  0  0  0  0  0  0  0  0  0  0  0
   38.5470   33.7770   39.8920 N   0  0  0  0  0  0  0  0  0  0  0  0
   39.5670   33.1810   40.5510 C   0  0  0  0  0  0  0  0  0  0  0  0
   39.4030   31.9700   41.1140 N   0  0  0  0  0  0  0  0  0  0  0  0
   38.2300   31.3460   41.0280 C   0  0  0  0  0  0  0  0  0  0  0  0
   40.8530   33.7880   40.6830 N   0  0  0  0  0  0  0  0  0  0  0  0
   41.4430   34.9060   40.2370 C   0  0  0  0  0  0  0  0  0  0  0  0
   42.7010   34.9550   40.6970 N   0  0  0  0  0  0  0  0  0  0  0  0
   42.8980   33.8700   41.4320 C   0  0  0  0  0  0  0  0  0  0  0  0
   41.7530   33.1470   41.4240 N   0  0  0  0  0  0  0  0  0  0  0  0
   44.1100   33.4780   42.1420 C   0  0  0  0  0  0  0  0  0  0  0  0
   44.1140   32.4370   43.0370 C   0  0  0  0  0  0  0  0  0  0  0  0
   45.2030   31.9900   43.7570 C   0  0  0  0  0  0  0  0  0  0  0  0
   46.3710   32.6670   43.5370 C   0  0  0  0  0  0  0  0  0  0  0  0
   46.4200   33.7340   42.6370 C   0  0  0  0  0  0  0  0  0  0  0  0
   45.2950   34.1490   41.9340 C   0  0  0  0  0  0  0  0  0  0  0  0
   41.6058   28.1086   43.2293 H   0  0  0  0  0  0  0  0  0  0  0  0
   40.1943   26.3533   44.3554 H   0  0  0  0  0  0  0  0  0  0  0  0
   37.6650   26.4595   44.0932 H   0  0  0  0  0  0  0  0  0  0  0  0
   36.0123   29.0337   41.4453 H   0  0  0  0  0  0  0  0  0  0  0  0
   36.5293   33.6034   39.2798 H   0  0  0  0  0  0  0  0  0  0  0  0
   40.9696   35.6634   39.5950 H   0  0  0  0  0  0  0  0  0  0  0  0
   43.1611   31.9106   43.1947 H   0  0  0  0  0  0  0  0  0  0  0  0
   45.1363   31.1466   44.4600 H   0  0  0  0  0  0  0  0  0  0  0  0
   47.2824   32.3676   44.0752 H   0  0  0  0  0  0  0  0  0  0  0  0
   47.3736   34.2595   42.4805 H   0  0  0  0  0  0  0  0  0  0  0  0
   45.3495   34.9919   41.2294 H   0  0  0  0  0  0  0  0  0  0  0  0
  1  2  2  0
  3  2  1  0
  4  3  2  0
  5  6  2  0
  5  4  1  0
  6  1  1  0
  7  5  1  0
  8  7  1  0
  9  8  2  0
 10  9  1  0
 10 15  2  0
 11 12  2  0
 11 10  1  0
 12 13  1  0
 13 16  1  0
 13 14  2  0
 15 14  1  0
 15  7  1  0
 16 20  1  0
 17 16  1  0
 17 18  2  0
 18 19  1  0
 19 21  1  0
 20 19  2  0
 21 22  2  0
 22 23  1  0
 24 23  2  0
 25 24  1  0
 26 21  1  0
 26 25  2  0
  1 27  1  0
  2 28  1  0
  3 29  1  0
  8 30  1  0
 11 31  1  0
 17 32  1  0
 22 33  1  0
 23 34  1  0
 24 35  1  0
 25 36  1  0
 26 37  1  0
M  ISO  8  27  14  28  14  29  14  30  14  31  14  32  14  33  14  34  14
M  ISO  3  35  14  36  14  37  14
M  END
>  <minimizedAffinity>  (1) 
-6.42428255

>  <minimizedRMSD>  (1) 
0.602698624

$$$$
