
     RDKit          3D

 35 39  0  0  0  0  0  0  0  0999 V2000
   40.4010   27.9910   43.1100 C   0  0  0  0  0  0  0  0  0  0  0  0
   39.6020   27.0660   43.7890 C   0  0  0  0  0  0  0  0  0  0  0  0
   38.2210   27.2050   43.6870 C   0  0  0  0  0  0  0  0  0  0  0  0
   37.7000   28.2320   42.9330 N   0  0  0  0  0  0  0  0  0  0  0  0
   38.5200   29.0990   42.2970 C   0  0  0  0  0  0  0  0  0  0  0  0
   39.8790   29.0040   42.3680 N   0  0  0  0  0  0  0  0  0  0  0  0
   37.8540   30.1260   41.5460 N   0  0  0  0  0  0  0  0  0  0  0  0
   36.5610   29.9370   41.2140 C   0  0  0  0  0  0  0  0  0  0  0  0
   36.1760   31.0270   40.5210 N   0  0  0  0  0  0  0  0  0  0  0  0
   37.1780   31.8970   40.4030 C   0  0  0  0  0  0  0  0  0  0  0  0
   37.4290   33.1270   39.8500 C   0  0  0  0  0  0  0  0  0  0  0  0
   38.6320   33.7330   39.9360 N   0  0  0  0  0  0  0  0  0  0  0  0
   39.6370   33.1060   40.5950 C   0  0  0  0  0  0  0  0  0  0  0  0
   39.4340   31.9000   41.1520 N   0  0  0  0  0  0  0  0  0  0  0  0
   38.2370   31.3110   41.0590 C   0  0  0  0  0  0  0  0  0  0  0  0
   40.9320   33.6730   40.7330 N   0  0  0  0  0  0  0  0  0  0  0  0
   41.5410   34.8100   40.3580 C   0  0  0  0  0  0  0  0  0  0  0  0
   42.8070   34.8010   40.7790 N   0  0  0  0  0  0  0  0  0  0  0  0
   42.9980   33.6510   41.4240 C   0  0  0  0  0  0  0  0  0  0  0  0
   41.8450   32.9560   41.3960 N   0  0  0  0  0  0  0  0  0  0  0  0
   44.2460   33.2120   42.0550 C   0  0  0  0  0  0  0  0  0  0  0  0
   45.0790   32.2540   41.5220 C   0  0  0  0  0  0  0  0  0  0  0  0
   46.2100   31.9820   42.2730 C   0  0  0  0  0  0  0  0  0  0  0  0
   46.4780   32.5940   43.4230 N   0  0  0  0  0  0  0  0  0  0  0  0
   45.6430   33.5270   43.9160 C   0  0  0  0  0  0  0  0  0  0  0  0
   44.5300   33.8330   43.2320 N   0  0  0  0  0  0  0  0  0  0  0  0
   41.4947   27.8955   43.1787 H   0  0  0  0  0  0  0  0  0  0  0  0
   40.0497   26.2560   44.3835 H   0  0  0  0  0  0  0  0  0  0  0  0
   37.5523   26.5010   44.2039 H   0  0  0  0  0  0  0  0  0  0  0  0
   35.9406   29.0628   41.4608 H   0  0  0  0  0  0  0  0  0  0  0  0
   36.6167   33.6404   39.3146 H   0  0  0  0  0  0  0  0  0  0  0  0
   41.0679   35.6247   39.7901 H   0  0  0  0  0  0  0  0  0  0  0  0
   44.8625   31.7436   40.5719 H   0  0  0  0  0  0  0  0  0  0  0  0
   46.9181   31.2264   41.9021 H   0  0  0  0  0  0  0  0  0  0  0  0
   45.8698   34.0318   44.8666 H   0  0  0  0  0  0  0  0  0  0  0  0
  1  2  2  0
  3  2  1  0
  4  3  2  0
  5  6  2  0
  5  4  1  0
  6  1  1  0
  7  5  1  0
  8  7  1  0
  9  8  2  0
 10  9  1  0
 10 15  2  0
 11 12  2  0
 11 10  1  0
 12 13  1  0
 13 16  1  0
 13 14  2  0
 15 14  1  0
 15  7  1  0
 16 20  1  0
 17 16  1  0
 17 18  2  0
 18 19  1  0
 19 21  1  0
 20 19  2  0
 21 26  1  0
 22 21  2  0
 22 23  1  0
 23 24  2  0
 24 25  1  0
 26 25  2  0
  1 27  1  0
  2 28  1  0
  3 29  1  0
  8 30  1  0
 11 31  1  0
 17 32  1  0
 22 33  1  0
 23 34  1  0
 25 35  1  0
M  ISO  8  27  14  28  14  29  14  30  14  31  14  32  14  33  14  34  14
M  ISO  1  35  14
M  END
>  <minimizedAffinity>  (1) 
-6.3992219

>  <minimizedRMSD>  (1) 
0.397516906

$$$$
