
     RDKit          3D

 32 36  0  0  0  0  0  0  0  0999 V2000
   40.4340   28.0450   43.1100 C   0  0  0  0  0  0  0  0  0  0  0  0
   39.6290   27.0810   43.7660 C   0  0  0  0  0  0  0  0  0  0  0  0
   38.2310   27.1720   43.6490 C   0  0  0  0  0  0  0  0  0  0  0  0
   37.7420   28.2010   42.8990 N   0  0  0  0  0  0  0  0  0  0  0  0
   38.5240   29.1040   42.2860 C   0  0  0  0  0  0  0  0  0  0  0  0
   39.8740   29.0420   42.3810 N   0  0  0  0  0  0  0  0  0  0  0  0
   37.8520   30.1160   41.5420 N   0  0  0  0  0  0  0  0  0  0  0  0
   36.5620   29.9210   41.2140 C   0  0  0  0  0  0  0  0  0  0  0  0
   36.1650   31.0080   40.5230 N   0  0  0  0  0  0  0  0  0  0  0  0
   37.1510   31.8910   40.3970 C   0  0  0  0  0  0  0  0  0  0  0  0
   37.3820   33.1150   39.8430 C   0  0  0  0  0  0  0  0  0  0  0  0
   38.5850   33.7400   39.9210 N   0  0  0  0  0  0  0  0  0  0  0  0
   39.5930   33.1220   40.5740 C   0  0  0  0  0  0  0  0  0  0  0  0
   39.4030   31.9140   41.1330 N   0  0  0  0  0  0  0  0  0  0  0  0
   38.2080   31.3140   41.0450 C   0  0  0  0  0  0  0  0  0  0  0  0
   40.8870   33.7000   40.7060 N   0  0  0  0  0  0  0  0  0  0  0  0
   41.4730   34.8480   40.3480 C   0  0  0  0  0  0  0  0  0  0  0  0
   42.7600   34.8500   40.7490 N   0  0  0  0  0  0  0  0  0  0  0  0
   42.9670   33.6920   41.3610 C   0  0  0  0  0  0  0  0  0  0  0  0
   41.8210   32.9770   41.3390 N   0  0  0  0  0  0  0  0  0  0  0  0
   44.1990   33.1880   41.9850 C   0  0  0  0  0  0  0  0  0  0  0  0
   45.4500   33.1230   41.4400 N   0  0  0  0  0  0  0  0  0  0  0  0
   46.2770   32.6120   42.3120 O   0  0  0  0  0  0  0  0  0  0  0  0
   45.6270   32.3320   43.4180 C   0  0  0  0  0  0  0  0  0  0  0  0
   44.3260   32.6870   43.2260 N   0  0  0  0  0  0  0  0  0  0  0  0
   41.5291   27.9838   43.1933 H   0  0  0  0  0  0  0  0  0  0  0  0
   40.0899   26.2755   44.3565 H   0  0  0  0  0  0  0  0  0  0  0  0
   37.5634   26.4479   44.1389 H   0  0  0  0  0  0  0  0  0  0  0  0
   35.9485   29.0424   41.4623 H   0  0  0  0  0  0  0  0  0  0  0  0
   36.5603   33.6169   39.3111 H   0  0  0  0  0  0  0  0  0  0  0  0
   40.9784   35.6682   39.8070 H   0  0  0  0  0  0  0  0  0  0  0  0
   46.0543   31.8919   44.3311 H   0  0  0  0  0  0  0  0  0  0  0  0
  1  2  2  0
  3  2  1  0
  4  3  2  0
  5  6  2  0
  5  4  1  0
  6  1  1  0
  7  5  1  0
  8  7  1  0
  9  8  2  0
 10  9  1  0
 10 15  2  0
 11 12  2  0
 11 10  1  0
 12 13  1  0
 13 16  1  0
 13 14  2  0
 15 14  1  0
 15  7  1  0
 16 20  1  0
 17 16  1  0
 17 18  2  0
 18 19  1  0
 19 21  1  0
 20 19  2  0
 21 25  1  0
 22 21  2  0
 22 23  1  0
 23 24  1  0
 25 24  2  0
  1 26  1  0
  2 27  1  0
  3 28  1  0
  8 29  1  0
 11 30  1  0
 17 31  1  0
 24 32  1  0
M  ISO  7  26  14  27  14  28  14  29  14  30  14  31  14  32  14
M  END
>  <minimizedAffinity>  (1) 
-6.18547678

>  <minimizedRMSD>  (1) 
0.418970525

$$$$
