
     RDKit          3D

 39 42  0  0  0  0  0  0  0  0999 V2000
   40.3530   28.0390   43.1440 C   0  0  0  0  0  0  0  0  0  0  0  0
   39.5240   27.0660   43.7570 C   0  0  0  0  0  0  0  0  0  0  0  0
   38.1270   27.1620   43.5890 C   0  0  0  0  0  0  0  0  0  0  0  0
   37.6780   28.2020   42.8330 N   0  0  0  0  0  0  0  0  0  0  0  0
   38.4750   29.1080   42.2640 C   0  0  0  0  0  0  0  0  0  0  0  0
   39.8260   29.0490   42.4040 N   0  0  0  0  0  0  0  0  0  0  0  0
   37.8270   30.1270   41.5070 N   0  0  0  0  0  0  0  0  0  0  0  0
   36.5370   29.9290   41.1340 C   0  0  0  0  0  0  0  0  0  0  0  0
   36.1650   31.0220   40.4410 N   0  0  0  0  0  0  0  0  0  0  0  0
   37.1570   31.9050   40.3560 C   0  0  0  0  0  0  0  0  0  0  0  0
   37.4140   33.1430   39.8210 C   0  0  0  0  0  0  0  0  0  0  0  0
   38.6020   33.7630   39.9420 N   0  0  0  0  0  0  0  0  0  0  0  0
   39.5920   33.1440   40.6220 C   0  0  0  0  0  0  0  0  0  0  0  0
   39.3860   31.9260   41.1650 N   0  0  0  0  0  0  0  0  0  0  0  0
   38.2030   31.3310   41.0320 C   0  0  0  0  0  0  0  0  0  0  0  0
   40.8770   33.7230   40.7990 N   0  0  0  0  0  0  0  0  0  0  0  0
   41.4650   34.8920   40.5090 C   0  0  0  0  0  0  0  0  0  0  0  0
   42.7410   34.8740   40.9280 N   0  0  0  0  0  0  0  0  0  0  0  0
   42.9530   33.6870   41.4840 C   0  0  0  0  0  0  0  0  0  0  0  0
   41.8080   32.9630   41.4110 N   0  0  0  0  0  0  0  0  0  0  0  0
   44.2200   33.1990   42.0920 C   0  0  0  0  0  0  0  0  0  0  0  0
   44.8720   34.3010   42.9290 C   0  0  0  0  0  0  0  0  0  0  0  0
   45.1830   32.6600   41.0600 C   0  0  0  0  0  0  0  0  0  0  0  0
   43.8600   32.0830   43.0510 C   0  0  0  0  0  0  0  0  0  0  0  0
   41.4439   27.9749   43.2700 H   0  0  0  0  0  0  0  0  0  0  0  0
   39.9621   26.2515   44.3525 H   0  0  0  0  0  0  0  0  0  0  0  0
   37.4372   26.4360   44.0441 H   0  0  0  0  0  0  0  0  0  0  0  0
   35.9167   29.0478   41.3547 H   0  0  0  0  0  0  0  0  0  0  0  0
   36.6111   33.6519   39.2675 H   0  0  0  0  0  0  0  0  0  0  0  0
   40.9764   35.7383   40.0041 H   0  0  0  0  0  0  0  0  0  0  0  0
   44.7393   34.0768   43.9977 H   0  0  0  0  0  0  0  0  0  0  0  0
   45.9457   34.3520   42.6956 H   0  0  0  0  0  0  0  0  0  0  0  0
   44.3998   35.2667   42.6956 H   0  0  0  0  0  0  0  0  0  0  0  0
   46.0348   32.1832   41.5671 H   0  0  0  0  0  0  0  0  0  0  0  0
   44.6690   31.9184   40.4308 H   0  0  0  0  0  0  0  0  0  0  0  0
   45.5463   33.4859   40.4308 H   0  0  0  0  0  0  0  0  0  0  0  0
   43.9744   32.4377   44.0859 H   0  0  0  0  0  0  0  0  0  0  0  0
   42.8173   31.7762   42.8817 H   0  0  0  0  0  0  0  0  0  0  0  0
   44.5269   31.2247   42.8817 H   0  0  0  0  0  0  0  0  0  0  0  0
  1  2  2  0
  3  2  1  0
  4  3  2  0
  5  6  2  0
  5  4  1  0
  6  1  1  0
  7  5  1  0
  8  7  1  0
  9  8  2  0
 10  9  1  0
 10 15  2  0
 11 12  2  0
 11 10  1  0
 12 13  1  0
 13 16  1  0
 13 14  2  0
 15 14  1  0
 15  7  1  0
 16 20  1  0
 17 16  1  0
 17 18  2  0
 18 19  1  0
 19 21  1  0
 20 19  2  0
 21 22  1  0
 21 24  1  0
 23 21  1  0
  1 25  1  0
  2 26  1  0
  3 27  1  0
  8 28  1  0
 11 29  1  0
 17 30  1  0
 22 31  1  0
 22 32  1  0
 22 33  1  0
 23 34  1  0
 23 35  1  0
 23 36  1  0
 24 37  1  0
 24 38  1  0
 24 39  1  0
M  ISO  8  25  14  26  14  27  14  28  14  29  14  30  14  31   8  32   8
M  ISO  7  33   8  34   8  35   8  36   8  37   8  38   8  39   8
M  END
>  <minimizedAffinity>  (1) 
-6.12178087

>  <minimizedRMSD>  (1) 
0.43025738

$$$$
