
     RDKit          3D

 30 33  0  0  0  0  0  0  0  0999 V2000
   40.2760   27.9910   43.1750 C   0  0  0  0  0  0  0  0  0  0  0  0
   39.4330   27.0100   43.7470 C   0  0  0  0  0  0  0  0  0  0  0  0
   38.0600   27.1100   43.5410 C   0  0  0  0  0  0  0  0  0  0  0  0
   37.6270   28.1610   42.7920 N   0  0  0  0  0  0  0  0  0  0  0  0
   38.4370   29.0800   42.2590 C   0  0  0  0  0  0  0  0  0  0  0  0
   39.7730   29.0130   42.4400 N   0  0  0  0  0  0  0  0  0  0  0  0
   37.8010   30.1110   41.5040 N   0  0  0  0  0  0  0  0  0  0  0  0
   36.5100   29.9440   41.1300 C   0  0  0  0  0  0  0  0  0  0  0  0
   36.1320   31.0350   40.4370 N   0  0  0  0  0  0  0  0  0  0  0  0
   37.1600   31.9030   40.3570 C   0  0  0  0  0  0  0  0  0  0  0  0
   37.4290   33.1410   39.8170 C   0  0  0  0  0  0  0  0  0  0  0  0
   38.6350   33.7260   39.9440 N   0  0  0  0  0  0  0  0  0  0  0  0
   39.6180   33.0920   40.6200 C   0  0  0  0  0  0  0  0  0  0  0  0
   39.3890   31.8790   41.1600 N   0  0  0  0  0  0  0  0  0  0  0  0
   38.1900   31.3020   41.0310 C   0  0  0  0  0  0  0  0  0  0  0  0
   40.9160   33.6460   40.7960 N   0  0  0  0  0  0  0  0  0  0  0  0
   41.5460   34.7690   40.4360 C   0  0  0  0  0  0  0  0  0  0  0  0
   42.8100   34.7530   40.8980 N   0  0  0  0  0  0  0  0  0  0  0  0
   42.9610   33.6080   41.5490 C   0  0  0  0  0  0  0  0  0  0  0  0
   41.8000   32.9280   41.4870 N   0  0  0  0  0  0  0  0  0  0  0  0
   44.1580   33.1080   42.2390 C   0  0  0  0  0  0  0  0  0  0  0  0
   45.1810   32.7190   41.6160 O   0  0  0  0  0  0  0  0  0  0  0  0
   44.2160   33.0400   43.6160 O   0  0  0  0  0  0  0  0  0  0  0  0
   41.3629   27.9233   43.3298 H   0  0  0  0  0  0  0  0  0  0  0  0
   39.8533   26.1857   44.3419 H   0  0  0  0  0  0  0  0  0  0  0  0
   37.3587   26.3752   43.9631 H   0  0  0  0  0  0  0  0  0  0  0  0
   35.8804   29.0701   41.3533 H   0  0  0  0  0  0  0  0  0  0  0  0
   36.6356   33.6671   39.2660 H   0  0  0  0  0  0  0  0  0  0  0  0
   41.0979   35.5846   39.8495 H   0  0  0  0  0  0  0  0  0  0  0  0
   45.0324   32.6998   44.0609 H   0  0  0  0  0  0  0  0  0  0  0  0
  1  2  2  0
  3  2  1  0
  4  3  2  0
  5  6  2  0
  5  4  1  0
  6  1  1  0
  7  5  1  0
  8  7  1  0
  9  8  2  0
 10  9  1  0
 10 15  2  0
 11 12  2  0
 11 10  1  0
 12 13  1  0
 13 16  1  0
 13 14  2  0
 15 14  1  0
 15  7  1  0
 16 20  1  0
 17 16  1  0
 17 18  2  0
 18 19  1  0
 19 21  1  0
 20 19  2  0
 21 23  1  0
 22 21  2  0
  1 24  1  0
  2 25  1  0
  3 26  1  0
  8 27  1  0
 11 28  1  0
 17 29  1  0
 23 30  1  0
M  ISO  7  24  14  25  14  26  14  27  14  28  14  29  14  30   3
M  END
>  <minimizedAffinity>  (1) 
-6.10322714

>  <minimizedRMSD>  (1) 
0.372018665

$$$$
