
     RDKit          3D

 33 36  0  0  0  0  0  0  0  0999 V2000
   40.3740   27.9440   43.1050 C   0  0  0  0  0  0  0  0  0  0  0  0
   39.5490   27.0240   43.8010 C   0  0  0  0  0  0  0  0  0  0  0  0
   38.1530   27.1930   43.7080 C   0  0  0  0  0  0  0  0  0  0  0  0
   37.6970   28.2310   42.9530 N   0  0  0  0  0  0  0  0  0  0  0  0
   38.5010   29.0810   42.3090 C   0  0  0  0  0  0  0  0  0  0  0  0
   39.8600   28.9610   42.3670 N   0  0  0  0  0  0  0  0  0  0  0  0
   37.8490   30.1110   41.5660 N   0  0  0  0  0  0  0  0  0  0  0  0
   36.5520   29.9530   41.2480 C   0  0  0  0  0  0  0  0  0  0  0  0
   36.1650   31.0420   40.5550 N   0  0  0  0  0  0  0  0  0  0  0  0
   37.1910   31.8980   40.4220 C   0  0  0  0  0  0  0  0  0  0  0  0
   37.4560   33.1190   39.8610 C   0  0  0  0  0  0  0  0  0  0  0  0
   38.6720   33.7060   39.9270 N   0  0  0  0  0  0  0  0  0  0  0  0
   39.6690   33.0600   40.5770 C   0  0  0  0  0  0  0  0  0  0  0  0
   39.4480   31.8600   41.1390 N   0  0  0  0  0  0  0  0  0  0  0  0
   38.2450   31.2960   41.0640 C   0  0  0  0  0  0  0  0  0  0  0  0
   40.9850   33.5970   40.7000 N   0  0  0  0  0  0  0  0  0  0  0  0
   41.6240   34.6930   40.2540 C   0  0  0  0  0  0  0  0  0  0  0  0
   42.8880   34.6870   40.6890 N   0  0  0  0  0  0  0  0  0  0  0  0
   43.0350   33.5740   41.4140 C   0  0  0  0  0  0  0  0  0  0  0  0
   41.8700   32.8970   41.4260 N   0  0  0  0  0  0  0  0  0  0  0  0
   44.3140   33.2010   42.0760 C   0  0  0  0  0  0  0  0  0  0  0  0
   44.6400   34.3570   43.0210 C   0  0  0  0  0  0  0  0  0  0  0  0
   41.4664   27.8298   43.1651 H   0  0  0  0  0  0  0  0  0  0  0  0
   39.9842   26.2059   44.3936 H   0  0  0  0  0  0  0  0  0  0  0  0
   37.4591   26.5136   44.2246 H   0  0  0  0  0  0  0  0  0  0  0  0
   35.9207   29.0902   41.5069 H   0  0  0  0  0  0  0  0  0  0  0  0
   36.6453   33.6441   39.3346 H   0  0  0  0  0  0  0  0  0  0  0  0
   41.1744   35.4762   39.6260 H   0  0  0  0  0  0  0  0  0  0  0  0
   44.1951   32.2648   42.6412 H   0  0  0  0  0  0  0  0  0  0  0  0
   45.1179   33.0347   41.3438 H   0  0  0  0  0  0  0  0  0  0  0  0
   44.5442   34.0171   44.0628 H   0  0  0  0  0  0  0  0  0  0  0  0
   45.6697   34.6992   42.8402 H   0  0  0  0  0  0  0  0  0  0  0  0
   43.9408   35.1867   42.8402 H   0  0  0  0  0  0  0  0  0  0  0  0
  1  2  2  0
  3  2  1  0
  4  3  2  0
  5  6  2  0
  5  4  1  0
  6  1  1  0
  7  5  1  0
  8  7  1  0
  9  8  2  0
 10  9  1  0
 10 15  2  0
 11 12  2  0
 11 10  1  0
 12 13  1  0
 13 16  1  0
 13 14  2  0
 15 14  1  0
 15  7  1  0
 16 20  1  0
 17 18  2  0
 17 16  1  0
 18 19  1  0
 19 20  2  0
 19 21  1  0
 21 22  1  0
  1 23  1  0
  2 24  1  0
  3 25  1  0
  8 26  1  0
 11 27  1  0
 17 28  1  0
 21 29  1  0
 21 30  1  0
 22 31  1  0
 22 32  1  0
 22 33  1  0
M  ISO  8  23  14  24  14  25  14  26  14  27  14  28  14  29   8  30   8
M  ISO  3  31   8  32   8  33   8
M  END
>  <minimizedAffinity>  (1) 
-5.89991426

>  <minimizedRMSD>  (1) 
0.281427413

$$$$
