
     RDKit          3D

 40 45  0  0  1  0  0  0  0  0999 V2000
   40.3560   27.9500   43.1250 C   0  0  0  0  0  0  0  0  0  0  0  0
   39.4230   27.1230   43.7600 C   0  0  0  0  0  0  0  0  0  0  0  0
   38.0610   27.4350   43.6440 C   0  0  0  0  0  0  0  0  0  0  0  0
   37.7690   28.5360   42.9090 N   0  0  0  0  0  0  0  0  0  0  0  0
   38.6550   29.3160   42.3100 C   0  0  0  0  0  0  0  0  0  0  0  0
   39.9790   29.0380   42.4050 N   0  0  0  0  0  0  0  0  0  0  0  0
   38.1450   30.4310   41.5840 N   0  0  0  0  0  0  0  0  0  0  0  0
   36.8500   30.4510   41.2430 C   0  0  0  0  0  0  0  0  0  0  0  0
   36.6200   31.5990   40.5750 N   0  0  0  0  0  0  0  0  0  0  0  0
   37.7410   32.3130   40.4820 C   0  0  0  0  0  0  0  0  0  0  0  0
   38.1680   33.5090   39.9560 C   0  0  0  0  0  0  0  0  0  0  0  0
   39.4470   33.9300   40.0590 N   0  0  0  0  0  0  0  0  0  0  0  0
   40.3410   33.1610   40.6930 C   0  0  0  0  0  0  0  0  0  0  0  0
   39.9560   31.9770   41.2250 N   0  0  0  0  0  0  0  0  0  0  0  0
   38.6970   31.5690   41.1220 C   0  0  0  0  0  0  0  0  0  0  0  0
   41.7020   33.5190   40.8350 N   0  0  0  0  0  0  0  0  0  0  0  0
   42.4960   34.5170   40.4070 C   0  0  0  0  0  0  0  0  0  0  0  0
   43.7510   34.3400   40.8480 N   0  0  0  0  0  0  0  0  0  0  0  0
   43.7410   33.2260   41.5570 C   0  0  0  0  0  0  0  0  0  0  0  0
   42.4850   32.6990   41.5660 N   0  0  0  0  0  0  0  0  0  0  0  0
   44.9060   32.5980   42.2300 C   0  0  1  0  0  0  0  0  0  0  0  0
   46.2960   32.9880   41.7930 C   0  0  0  0  0  0  0  0  0  0  0  0
   45.7200   33.4070   43.1960 C   0  0  1  0  0  0  0  0  0  0  0  0
   45.4740   34.7970   43.3820 N   0  0  0  0  0  0  0  0  0  0  0  0
   44.5950   35.3410   44.2400 C   0  0  0  0  0  0  0  0  0  0  0  0
   44.6430   36.6740   44.1340 N   0  0  0  0  0  0  0  0  0  0  0  0
   45.5560   36.9700   43.2070 C   0  0  0  0  0  0  0  0  0  0  0  0
   46.0740   35.8050   42.7390 N   0  0  0  0  0  0  0  0  0  0  0  0
   41.4264   27.7119   43.2115 H   0  0  0  0  0  0  0  0  0  0  0  0
   39.7511   26.2465   44.3380 H   0  0  0  0  0  0  0  0  0  0  0  0
   37.2788   26.8249   44.1194 H   0  0  0  0  0  0  0  0  0  0  0  0
   36.1076   29.6710   41.4676 H   0  0  0  0  0  0  0  0  0  0  0  0
   37.4410   34.1468   39.4318 H   0  0  0  0  0  0  0  0  0  0  0  0
   42.1633   35.3597   39.7832 H   0  0  0  0  0  0  0  0  0  0  0  0
   44.3724   31.6393   42.3078 H   0  0  0  0  0  0  0  0  0  0  0  0
   47.0891   32.2290   41.7230 H   0  0  0  0  0  0  0  0  0  0  0  0
   46.7328   33.5140   40.9313 H   0  0  0  0  0  0  0  0  0  0  0  0
   45.9836   33.2782   44.2562 H   0  0  0  0  0  0  0  0  0  0  0  0
   43.9395   34.7794   44.9218 H   0  0  0  0  0  0  0  0  0  0  0  0
   45.8396   37.9810   42.8791 H   0  0  0  0  0  0  0  0  0  0  0  0
  1  2  2  0
  3  2  1  0
  4  3  2  0
  5  6  2  0
  5  4  1  0
  6  1  1  0
  7  5  1  0
  8  7  1  0
  9  8  2  0
 10  9  1  0
 10 15  2  0
 11 12  2  0
 11 10  1  0
 12 13  1  0
 13 16  1  0
 13 14  2  0
 15 14  1  0
 15  7  1  0
 16 20  1  0
 17 16  1  0
 17 18  2  0
 18 19  1  0
 19 20  2  0
 19 21  1  0
 21 23  1  0
 22 21  1  0
 22 23  1  0
 23 24  1  0
 24 25  1  0
 26 25  2  0
 27 26  1  0
 28 27  2  0
 28 24  1  0
  1 29  1  0
  2 30  1  0
  3 31  1  0
  8 32  1  0
 11 33  1  0
 17 34  1  0
 21 35  1  1
 22 36  1  0
 22 37  1  0
 23 38  1  1
 25 39  1  0
 27 40  1  0
M  ISO  8  29  14  30  14  31  14  32  14  33  14  34  14  35  13  36  13
M  ISO  4  37  13  38  13  39  14  40  14
M  END
>  <minimizedAffinity>  (1) 
-6.80602741

>  <minimizedRMSD>  (1) 
2.47757673

$$$$
