
     RDKit          3D

 47 51  0  0  1  0  0  0  0  0999 V2000
   38.0700   30.5120   39.3860 C   0  0  1  0  0  0  0  0  0  0  0  0
   37.5380   30.5720   37.9320 C   0  0  0  0  0  0  0  0  0  0  0  0
   36.0920   30.1330   38.1470 C   0  0  0  0  0  0  0  0  0  0  0  0
   36.0540   29.3830   39.4560 C   0  0  0  0  0  0  0  0  0  0  0  0
   37.5170   29.2070   39.8300 C   0  0  2  0  0  0  0  0  0  0  0  0
   40.8920   35.1600   39.7570 C   0  0  0  0  0  0  0  0  0  0  0  0
   39.6150   35.6900   40.0880 C   0  0  0  0  0  0  0  0  0  0  0  0
   38.5770   34.7970   40.2460 C   0  0  0  0  0  0  0  0  0  0  0  0
   38.8370   33.4730   40.0770 N   0  0  0  0  0  0  0  0  0  0  0  0
   40.0200   32.9760   39.7700 C   0  0  0  0  0  0  0  0  0  0  0  0
   41.0650   33.8360   39.6070 N   0  0  0  0  0  0  0  0  0  0  0  0
   40.3330   31.6070   39.5740 N   0  0  0  0  0  0  0  0  0  0  0  0
   41.6180   31.2780   39.5450 N   0  0  0  0  0  0  0  0  0  0  0  0
   41.7100   29.9250   39.3320 C   0  0  0  0  0  0  0  0  0  0  0  0
   40.3920   29.4650   39.2350 C   0  0  0  0  0  0  0  0  0  0  0  0
   39.5350   30.5630   39.3950 C   0  0  0  0  0  0  0  0  0  0  0  0
   37.5720   28.9790   41.2490 N   0  0  0  0  0  0  0  0  0  0  0  0
   37.7700   29.8290   42.2210 N   0  0  0  0  0  0  0  0  0  0  0  0
   37.7570   29.2330   43.4290 C   0  0  0  0  0  0  0  0  0  0  0  0
   37.5300   27.8940   43.1700 C   0  0  0  0  0  0  0  0  0  0  0  0
   37.4170   27.7530   41.8040 C   0  0  0  0  0  0  0  0  0  0  0  0
   37.1750   26.4220   41.2670 C   0  0  0  0  0  0  0  0  0  0  0  0
   37.4310   25.3270   42.0960 C   0  0  0  0  0  0  0  0  0  0  0  0
   37.2580   24.0010   41.7670 C   0  0  0  0  0  0  0  0  0  0  0  0
   36.7890   23.7210   40.5060 C   0  0  0  0  0  0  0  0  0  0  0  0
   36.5230   24.7680   39.6520 C   0  0  0  0  0  0  0  0  0  0  0  0
   36.7070   26.0860   40.0140 C   0  0  0  0  0  0  0  0  0  0  0  0
   37.7764   31.3452   40.0414 H   0  0  0  0  0  0  0  0  0  0  0  0
   38.0794   29.8779   37.2724 H   0  0  0  0  0  0  0  0  0  0  0  0
   37.6522   31.5502   37.4419 H   0  0  0  0  0  0  0  0  0  0  0  0
   35.4325   31.0121   38.1950 H   0  0  0  0  0  0  0  0  0  0  0  0
   35.7448   29.4984   37.3183 H   0  0  0  0  0  0  0  0  0  0  0  0
   35.5228   29.9651   40.2235 H   0  0  0  0  0  0  0  0  0  0  0  0
   35.5222   28.4235   39.3756 H   0  0  0  0  0  0  0  0  0  0  0  0
   38.0715   28.3670   39.3862 H   0  0  0  0  0  0  0  0  0  0  0  0
   41.7461   35.8400   39.6225 H   0  0  0  0  0  0  0  0  0  0  0  0
   39.4611   36.7720   40.2133 H   0  0  0  0  0  0  0  0  0  0  0  0
   37.5657   35.1459   40.5019 H   0  0  0  0  0  0  0  0  0  0  0  0
   42.6295   29.3263   39.2538 H   0  0  0  0  0  0  0  0  0  0  0  0
   40.0823   28.4236   39.0632 H   0  0  0  0  0  0  0  0  0  0  0  0
   37.8969   29.7093   44.4106 H   0  0  0  0  0  0  0  0  0  0  0  0
   37.4537   27.0898   43.9166 H   0  0  0  0  0  0  0  0  0  0  0  0
   37.8062   25.5445   43.1069 H   0  0  0  0  0  0  0  0  0  0  0  0
   37.4859   23.1988   42.4843 H   0  0  0  0  0  0  0  0  0  0  0  0
   36.6292   22.6810   40.1851 H   0  0  0  0  0  0  0  0  0  0  0  0
   36.1493   24.5444   38.6419 H   0  0  0  0  0  0  0  0  0  0  0  0
   36.4766   26.8826   39.2912 H   0  0  0  0  0  0  0  0  0  0  0  0
  1 16  1  0
  1  5  1  0
  2  3  1  0
  2  1  1  0
  3  4  1  0
  4  5  1  0
  5 17  1  0
  6  7  2  0
  7  8  1  0
  9  8  2  0
 10  9  1  0
 11  6  1  0
 11 10  2  0
 12 10  1  0
 13 12  1  0
 14 13  2  0
 15 14  1  0
 15 16  2  0
 16 12  1  0
 17 21  1  0
 17 18  1  0
 18 19  2  0
 20 19  1  0
 21 20  2  0
 22 21  1  0
 22 23  2  0
 24 23  1  0
 25 24  2  0
 26 27  2  0
 26 25  1  0
 27 22  1  0
  1 28  1  1
  2 29  1  0
  2 30  1  0
  3 31  1  0
  3 32  1  0
  4 33  1  0
  4 34  1  0
  5 35  1  6
  6 36  1  0
  7 37  1  0
  8 38  1  0
 14 39  1  0
 15 40  1  0
 19 41  1  0
 20 42  1  0
 23 43  1  0
 24 44  1  0
 25 45  1  0
 26 46  1  0
 27 47  1  0
M  ISO  8  28  13  29  13  30  13  31  13  32  13  33  13  34  13  35  13
M  ISO  8  36  14  37  14  38  14  39  14  40  14  41  14  42  14  43  14
M  ISO  4  44  14  45  14  46  14  47  14
M  END
>  <minimizedAffinity>  (1) 
-6.86192179

>  <minimizedRMSD>  (1) 
1.35803747

$$$$
