
     RDKit          3D

 46 50  0  0  1  0  0  0  0  0999 V2000
   42.0670   28.3970   43.0280 C   0  0  0  0  0  0  0  0  0  0  0  0
   42.1520   27.3000   43.9120 C   0  0  0  0  0  0  0  0  0  0  0  0
   40.9690   26.6360   44.2430 C   0  0  0  0  0  0  0  0  0  0  0  0
   39.8210   27.1030   43.6810 N   0  0  0  0  0  0  0  0  0  0  0  0
   39.7640   28.1400   42.8480 C   0  0  0  0  0  0  0  0  0  0  0  0
   40.8850   28.8070   42.5040 N   0  0  0  0  0  0  0  0  0  0  0  0
   38.4720   28.4910   42.3570 N   0  0  0  0  0  0  0  0  0  0  0  0
   37.4680   27.6050   42.4690 C   0  0  0  0  0  0  0  0  0  0  0  0
   36.3730   28.1660   41.9410 N   0  0  0  0  0  0  0  0  0  0  0  0
   36.6310   29.3880   41.4890 C   0  0  0  0  0  0  0  0  0  0  0  0
   35.9820   30.4390   40.8720 C   0  0  0  0  0  0  0  0  0  0  0  0
   36.6150   31.5870   40.5530 N   0  0  0  0  0  0  0  0  0  0  0  0
   37.9340   31.7160   40.8450 C   0  0  0  0  0  0  0  0  0  0  0  0
   38.5980   30.7120   41.4450 N   0  0  0  0  0  0  0  0  0  0  0  0
   37.9650   29.5790   41.7590 C   0  0  0  0  0  0  0  0  0  0  0  0
   38.6560   32.8980   40.5460 N   0  0  0  0  0  0  0  0  0  0  0  0
   38.4160   34.0680   39.9410 C   0  0  0  0  0  0  0  0  0  0  0  0
   39.4990   34.8470   39.9590 N   0  0  0  0  0  0  0  0  0  0  0  0
   40.4330   34.1520   40.5840 C   0  0  0  0  0  0  0  0  0  0  0  0
   39.9260   32.9510   40.9490 N   0  0  0  0  0  0  0  0  0  0  0  0
   41.8300   34.5550   40.8670 C   0  0  1  0  0  0  0  0  0  0  0  0
   42.8440   33.5460   41.2850 C   0  0  0  0  0  0  0  0  0  0  0  0
   42.9290   34.2990   39.9350 C   0  0  1  0  0  0  0  0  0  0  0  0
   43.0790   33.5060   38.7420 C   0  0  0  0  0  0  0  0  0  0  0  0
   44.5570   33.6510   38.2820 C   0  0  0  0  0  0  0  0  0  0  0  0
   42.3300   34.1010   37.5690 C   0  0  0  0  0  0  0  0  0  0  0  0
   42.8580   32.0320   38.8300 C   0  0  0  0  0  0  0  0  0  0  0  0
   42.9868   28.9355   42.7559 H   0  0  0  0  0  0  0  0  0  0  0  0
   43.1188   26.9785   44.3268 H   0  0  0  0  0  0  0  0  0  0  0  0
   40.9652   25.7745   44.9270 H   0  0  0  0  0  0  0  0  0  0  0  0
   37.5338   26.6011   42.9137 H   0  0  0  0  0  0  0  0  0  0  0  0
   34.9132   30.3369   40.6326 H   0  0  0  0  0  0  0  0  0  0  0  0
   37.4535   34.3497   39.4890 H   0  0  0  0  0  0  0  0  0  0  0  0
   41.4299   35.4762   41.3156 H   0  0  0  0  0  0  0  0  0  0  0  0
   43.5538   33.7724   42.0943 H   0  0  0  0  0  0  0  0  0  0  0  0
   42.8288   32.4938   41.6053 H   0  0  0  0  0  0  0  0  0  0  0  0
   43.5212   35.0266   39.3606 H   0  0  0  0  0  0  0  0  0  0  0  0
   45.2110   33.7152   39.1642 H   0  0  0  0  0  0  0  0  0  0  0  0
   44.8406   32.7764   37.6782 H   0  0  0  0  0  0  0  0  0  0  0  0
   44.6652   34.5641   37.6782 H   0  0  0  0  0  0  0  0  0  0  0  0
   41.5192   34.7451   37.9403 H   0  0  0  0  0  0  0  0  0  0  0  0
   43.0219   34.6984   36.9571 H   0  0  0  0  0  0  0  0  0  0  0  0
   41.9046   33.2919   36.9571 H   0  0  0  0  0  0  0  0  0  0  0  0
   42.8128   31.7305   39.8869 H   0  0  0  0  0  0  0  0  0  0  0  0
   41.9110   31.7730   38.3340 H   0  0  0  0  0  0  0  0  0  0  0  0
   43.6874   31.5066   38.3340 H   0  0  0  0  0  0  0  0  0  0  0  0
  1  2  2  0
  2  3  1  0
  4  3  2  0
  5  4  1  0
  6  5  2  0
  6  1  1  0
  7  8  1  0
  7  5  1  0
  9  8  2  0
 10 15  2  0
 10  9  1  0
 11 10  1  0
 12 13  1  0
 12 11  2  0
 13 14  2  0
 14 15  1  0
 15  7  1  0
 16 13  1  0
 16 20  1  0
 17 18  2  0
 17 16  1  0
 18 19  1  0
 19 21  1  0
 19 20  2  0
 21 22  1  0
 23 21  1  0
 23 22  1  0
 24 27  1  0
 24 23  1  0
 25 24  1  0
 26 24  1  0
  1 28  1  0
  2 29  1  0
  3 30  1  0
  8 31  1  0
 11 32  1  0
 17 33  1  0
 21 34  1  1
 22 35  1  0
 22 36  1  0
 23 37  1  1
 25 38  1  0
 25 39  1  0
 25 40  1  0
 26 41  1  0
 26 42  1  0
 26 43  1  0
 27 44  1  0
 27 45  1  0
 27 46  1  0
M  ISO  8  28  14  29  14  30  14  31  14  32  14  33  14  34  13  35  13
M  ISO  8  36  13  37  13  38   8  39   8  40   8  41   8  42   8  43   8
M  ISO  3  44   8  45   8  46   8
M  END
>  <minimizedAffinity>  (1) 
-6.66886234

>  <minimizedRMSD>  (1) 
3.75222349

$$$$
