
     RDKit          3D

 35 39  0  0  1  0  0  0  0  0999 V2000
   40.2640   27.8950   43.1680 C   0  0  0  0  0  0  0  0  0  0  0  0
   39.4220   26.9620   43.7850 C   0  0  0  0  0  0  0  0  0  0  0  0
   38.0620   27.1480   43.6310 C   0  0  0  0  0  0  0  0  0  0  0  0
   37.6400   28.2150   42.8960 N   0  0  0  0  0  0  0  0  0  0  0  0
   38.4600   29.0940   42.3140 C   0  0  0  0  0  0  0  0  0  0  0  0
   39.7900   28.9400   42.4460 N   0  0  0  0  0  0  0  0  0  0  0  0
   37.8730   30.1540   41.5810 N   0  0  0  0  0  0  0  0  0  0  0  0
   36.5790   30.0520   41.2360 C   0  0  0  0  0  0  0  0  0  0  0  0
   36.2590   31.1620   40.5600 N   0  0  0  0  0  0  0  0  0  0  0  0
   37.3030   31.9760   40.4570 C   0  0  0  0  0  0  0  0  0  0  0  0
   37.6300   33.2000   39.9170 C   0  0  0  0  0  0  0  0  0  0  0  0
   38.8640   33.7270   40.0190 N   0  0  0  0  0  0  0  0  0  0  0  0
   39.8200   33.0480   40.6640 C   0  0  0  0  0  0  0  0  0  0  0  0
   39.5460   31.8450   41.2100 N   0  0  0  0  0  0  0  0  0  0  0  0
   38.3200   31.3300   41.1060 C   0  0  0  0  0  0  0  0  0  0  0  0
   41.1550   33.5040   40.8080 N   0  0  0  0  0  0  0  0  0  0  0  0
   41.8520   34.5660   40.3440 C   0  0  0  0  0  0  0  0  0  0  0  0
   43.1250   34.4910   40.7850 N   0  0  0  0  0  0  0  0  0  0  0  0
   43.2040   33.3930   41.5130 C   0  0  0  0  0  0  0  0  0  0  0  0
   42.0050   32.7670   41.5430 N   0  0  0  0  0  0  0  0  0  0  0  0
   44.4160   32.8670   42.1830 C   0  0  1  0  0  0  0  0  0  0  0  0
   44.8600   33.4720   43.4900 C   0  0  0  0  0  0  0  0  0  0  0  0
   44.2640   32.0220   43.4220 C   0  0  1  0  0  0  0  0  0  0  0  0
   43.0400   31.8930   44.0250 O   0  0  0  0  0  0  0  0  0  0  0  0
   41.3524   27.7755   43.2731 H   0  0  0  0  0  0  0  0  0  0  0  0
   39.8251   26.1193   44.3659 H   0  0  0  0  0  0  0  0  0  0  0  0
   37.3406   26.4549   44.0884 H   0  0  0  0  0  0  0  0  0  0  0  0
   35.9070   29.2122   41.4663 H   0  0  0  0  0  0  0  0  0  0  0  0
   36.8540   33.7677   39.3827 H   0  0  0  0  0  0  0  0  0  0  0  0
   41.4451   35.3653   39.7072 H   0  0  0  0  0  0  0  0  0  0  0  0
   44.9068   32.7130   41.2107 H   0  0  0  0  0  0  0  0  0  0  0  0
   45.9302   33.6217   43.6957 H   0  0  0  0  0  0  0  0  0  0  0  0
   44.6294   34.3909   44.0490 H   0  0  0  0  0  0  0  0  0  0  0  0
   44.5686   30.9950   43.6721 H   0  0  0  0  0  0  0  0  0  0  0  0
   43.1537   31.9050   45.0084 H   0  0  0  0  0  0  0  0  0  0  0  0
  1  2  2  0
  3  2  1  0
  4  3  2  0
  5  6  2  0
  5  4  1  0
  6  1  1  0
  7  5  1  0
  8  7  1  0
  9  8  2  0
 10  9  1  0
 10 15  2  0
 11 12  2  0
 11 10  1  0
 12 13  1  0
 13 16  1  0
 13 14  2  0
 15 14  1  0
 15  7  1  0
 16 20  1  0
 17 18  2  0
 17 16  1  0
 18 19  1  0
 19 20  2  0
 19 21  1  0
 21 23  1  0
 21 22  1  0
 23 22  1  0
 23 24  1  0
  1 25  1  0
  2 26  1  0
  3 27  1  0
  8 28  1  0
 11 29  1  0
 17 30  1  0
 21 31  1  6
 22 32  1  0
 22 33  1  0
 23 34  1  6
 24 35  1  0
M  ISO  8  25  14  26  14  27  14  28  14  29  14  30  14  31  13  32  13
M  ISO  3  33  13  34  13  35   3
M  END
>  <minimizedAffinity>  (1) 
-6.47469044

>  <minimizedRMSD>  (1) 
0.104057729

$$$$
