
     RDKit          3D

 44 49  0  0  1  0  0  0  0  0999 V2000
   40.4810   28.0390   43.0670 C   0  0  0  0  0  0  0  0  0  0  0  0
   39.7200   27.0870   43.7540 C   0  0  0  0  0  0  0  0  0  0  0  0
   38.3330   27.1950   43.6820 C   0  0  0  0  0  0  0  0  0  0  0  0
   37.8290   28.2210   42.9500 N   0  0  0  0  0  0  0  0  0  0  0  0
   38.5720   29.1220   42.3000 C   0  0  0  0  0  0  0  0  0  0  0  0
   39.9160   29.0430   42.3510 N   0  0  0  0  0  0  0  0  0  0  0  0
   37.8850   30.1330   41.5800 N   0  0  0  0  0  0  0  0  0  0  0  0
   36.5810   29.9520   41.3020 C   0  0  0  0  0  0  0  0  0  0  0  0
   36.1610   31.0270   40.6240 N   0  0  0  0  0  0  0  0  0  0  0  0
   37.1540   31.9010   40.4550 C   0  0  0  0  0  0  0  0  0  0  0  0
   37.3820   33.1300   39.8820 C   0  0  0  0  0  0  0  0  0  0  0  0
   38.5930   33.7300   39.9150 N   0  0  0  0  0  0  0  0  0  0  0  0
   39.6140   33.1160   40.5230 C   0  0  0  0  0  0  0  0  0  0  0  0
   39.4330   31.9040   41.1000 N   0  0  0  0  0  0  0  0  0  0  0  0
   38.2390   31.3200   41.0650 C   0  0  0  0  0  0  0  0  0  0  0  0
   40.9210   33.6600   40.5990 N   0  0  0  0  0  0  0  0  0  0  0  0
   41.5260   34.7760   40.1330 C   0  0  0  0  0  0  0  0  0  0  0  0
   42.8040   34.7870   40.4960 N   0  0  0  0  0  0  0  0  0  0  0  0
   43.0090   33.6800   41.1930 C   0  0  0  0  0  0  0  0  0  0  0  0
   41.8520   32.9690   41.2660 N   0  0  0  0  0  0  0  0  0  0  0  0
   44.2810   33.2190   41.8070 C   0  0  1  0  0  0  0  0  0  0  0  0
   44.5030   31.7540   42.0270 C   0  0  0  0  0  0  0  0  0  0  0  0
   45.2860   32.5030   40.9310 C   0  0  1  0  0  0  0  0  0  0  0  0
   44.9630   32.1460   39.5430 C   0  0  0  0  0  0  0  0  0  0  0  0
   44.2940   31.0160   39.1320 C   0  0  0  0  0  0  0  0  0  0  0  0
   44.0000   30.7140   37.8210 C   0  0  0  0  0  0  0  0  0  0  0  0
   44.3910   31.5810   36.8440 C   0  0  0  0  0  0  0  0  0  0  0  0
   45.0670   32.7340   37.1900 C   0  0  0  0  0  0  0  0  0  0  0  0
   45.3420   33.0000   38.5200 C   0  0  0  0  0  0  0  0  0  0  0  0
   41.5781   27.9708   43.1091 H   0  0  0  0  0  0  0  0  0  0  0  0
   40.1997   26.2821   44.3303 H   0  0  0  0  0  0  0  0  0  0  0  0
   37.6745   26.4795   44.1963 H   0  0  0  0  0  0  0  0  0  0  0  0
   35.9714   29.0799   41.5810 H   0  0  0  0  0  0  0  0  0  0  0  0
   36.5493   33.6433   39.3788 H   0  0  0  0  0  0  0  0  0  0  0  0
   41.0322   35.5600   39.5401 H   0  0  0  0  0  0  0  0  0  0  0  0
   44.3149   34.1024   42.4615 H   0  0  0  0  0  0  0  0  0  0  0  0
   45.0204   31.4052   42.9329 H   0  0  0  0  0  0  0  0  0  0  0  0
   43.8582   30.8632   42.0538 H   0  0  0  0  0  0  0  0  0  0  0  0
   46.3371   32.6962   40.6703 H   0  0  0  0  0  0  0  0  0  0  0  0
   43.9712   30.3035   39.9054 H   0  0  0  0  0  0  0  0  0  0  0  0
   43.4596   29.7903   37.5667 H   0  0  0  0  0  0  0  0  0  0  0  0
   44.1696   31.3636   35.7887 H   0  0  0  0  0  0  0  0  0  0  0  0
   45.3866   33.4403   36.4096 H   0  0  0  0  0  0  0  0  0  0  0  0
   45.8817   33.9241   38.7744 H   0  0  0  0  0  0  0  0  0  0  0  0
  1  2  2  0
  3  2  1  0
  4  3  2  0
  5  6  2  0
  5  4  1  0
  6  1  1  0
  7  5  1  0
  8  7  1  0
  9  8  2  0
 10  9  1  0
 10 15  2  0
 11 12  2  0
 11 10  1  0
 12 13  1  0
 13 16  1  0
 13 14  2  0
 15 14  1  0
 15  7  1  0
 16 20  1  0
 17 18  2  0
 17 16  1  0
 18 19  1  0
 19 20  2  0
 19 21  1  0
 21 22  1  0
 23 21  1  0
 23 22  1  0
 24 23  1  0
 25 24  2  0
 26 25  1  0
 27 28  1  0
 27 26  2  0
 28 29  2  0
 29 24  1  0
  1 30  1  0
  2 31  1  0
  3 32  1  0
  8 33  1  0
 11 34  1  0
 17 35  1  0
 21 36  1  1
 22 37  1  0
 22 38  1  0
 23 39  1  1
 25 40  1  0
 26 41  1  0
 27 42  1  0
 28 43  1  0
 29 44  1  0
M  ISO  8  30  14  31  14  32  14  33  14  34  14  35  14  36  13  37  13
M  ISO  7  38  13  39  13  40  14  41  14  42  14  43  14  44  14
M  END
>  <minimizedAffinity>  (1) 
-6.44047403

>  <minimizedRMSD>  (1) 
3.51331377

$$$$
