
     RDKit          3D

 40 44  0  0  1  0  0  0  0  0999 V2000
   40.9340   28.0310   43.1240 C   0  0  0  0  0  0  0  0  0  0  0  0
   40.3670   26.9850   43.8440 C   0  0  0  0  0  0  0  0  0  0  0  0
   38.9870   26.8870   43.8210 C   0  0  0  0  0  0  0  0  0  0  0  0
   38.2910   27.8130   43.1010 N   0  0  0  0  0  0  0  0  0  0  0  0
   38.8680   28.8060   42.4190 C   0  0  0  0  0  0  0  0  0  0  0  0
   40.2080   28.9370   42.4150 N   0  0  0  0  0  0  0  0  0  0  0  0
   38.0030   29.6950   41.7160 N   0  0  0  0  0  0  0  0  0  0  0  0
   36.7320   29.3160   41.4930 C   0  0  0  0  0  0  0  0  0  0  0  0
   36.1340   30.3110   40.8270 N   0  0  0  0  0  0  0  0  0  0  0  0
   36.9750   31.3170   40.6150 C   0  0  0  0  0  0  0  0  0  0  0  0
   36.9860   32.5600   40.0210 C   0  0  0  0  0  0  0  0  0  0  0  0
   38.0950   33.3340   39.9990 N   0  0  0  0  0  0  0  0  0  0  0  0
   39.2260   32.8850   40.5710 C   0  0  0  0  0  0  0  0  0  0  0  0
   39.2510   31.6750   41.1620 N   0  0  0  0  0  0  0  0  0  0  0  0
   38.1540   30.9180   41.1790 C   0  0  0  0  0  0  0  0  0  0  0  0
   40.4340   33.6180   40.5710 N   0  0  0  0  0  0  0  0  0  0  0  0
   40.8580   34.7850   40.0370 C   0  0  0  0  0  0  0  0  0  0  0  0
   42.1440   34.9870   40.3400 N   0  0  0  0  0  0  0  0  0  0  0  0
   42.5250   33.9500   41.0650 C   0  0  0  0  0  0  0  0  0  0  0  0
   41.4870   33.0930   41.2200 N   0  0  0  0  0  0  0  0  0  0  0  0
   43.8850   33.7010   41.6120 C   0  0  1  0  0  0  0  0  0  0  0  0
   44.9550   34.7460   41.4130 C   0  0  0  0  0  0  0  0  0  0  0  0
   44.3290   34.4790   42.8230 C   0  0  2  0  0  0  0  0  0  0  0  0
   45.1430   33.6640   43.7930 C   0  0  0  0  0  0  0  0  0  0  0  0
   45.4850   34.4310   45.0410 C   0  0  0  0  0  0  0  0  0  0  0  0
   42.0294   28.1312   43.1280 H   0  0  0  0  0  0  0  0  0  0  0  0
   40.9861   26.2696   44.4051 H   0  0  0  0  0  0  0  0  0  0  0  0
   38.4668   26.0862   44.3671 H   0  0  0  0  0  0  0  0  0  0  0  0
   36.2704   28.3661   41.8004 H   0  0  0  0  0  0  0  0  0  0  0  0
   36.0649   32.9343   39.5503 H   0  0  0  0  0  0  0  0  0  0  0  0
   40.2358   35.4684   39.4404 H   0  0  0  0  0  0  0  0  0  0  0  0
   43.8155   32.6291   41.3751 H   0  0  0  0  0  0  0  0  0  0  0  0
   45.9913   34.4441   41.2010 H   0  0  0  0  0  0  0  0  0  0  0  0
   45.0840   35.6249   40.7642 H   0  0  0  0  0  0  0  0  0  0  0  0
   43.8636   35.1186   43.5874 H   0  0  0  0  0  0  0  0  0  0  0  0
   44.5665   32.7705   44.0744 H   0  0  0  0  0  0  0  0  0  0  0  0
   46.0865   33.3949   43.2957 H   0  0  0  0  0  0  0  0  0  0  0  0
   45.2180   33.8321   45.9242 H   0  0  0  0  0  0  0  0  0  0  0  0
   46.5639   34.6451   45.0557 H   0  0  0  0  0  0  0  0  0  0  0  0
   44.9233   35.3766   45.0557 H   0  0  0  0  0  0  0  0  0  0  0  0
  1  2  2  0
  3  2  1  0
  4  3  2  0
  5  4  1  0
  6  5  2  0
  6  1  1  0
  7  5  1  0
  8  7  1  0
  9  8  2  0
 10  9  1  0
 10 15  2  0
 11 10  1  0
 12 11  2  0
 12 13  1  0
 13 14  2  0
 14 15  1  0
 15  7  1  0
 16 13  1  0
 16 20  1  0
 17 18  2  0
 17 16  1  0
 18 19  1  0
 19 20  2  0
 19 21  1  0
 21 23  1  0
 22 21  1  0
 22 23  1  0
 23 24  1  0
 24 25  1  0
  1 26  1  0
  2 27  1  0
  3 28  1  0
  8 29  1  0
 11 30  1  0
 17 31  1  0
 21 32  1  1
 22 33  1  0
 22 34  1  0
 23 35  1  1
 24 36  1  0
 24 37  1  0
 25 38  1  0
 25 39  1  0
 25 40  1  0
M  ISO  8  26  14  27  14  28  14  29  14  30  14  31  14  32  13  33  13
M  ISO  7  34  13  35  13  36   8  37   8  38   8  39   8  40   8
M  END
>  <minimizedAffinity>  (1) 
-6.30824041

>  <minimizedRMSD>  (1) 
1.42121232

$$$$
