
     RDKit          3D

 38 41  0  0  1  0  0  0  0  0999 V2000
   39.4200   26.9500   43.9160 C   0  0  0  0  0  0  0  0  0  0  0  0
   39.6990   25.6920   43.3620 C   0  0  0  0  0  0  0  0  0  0  0  0
   39.0970   25.3740   42.1470 C   0  0  0  0  0  0  0  0  0  0  0  0
   38.2740   26.2880   41.5610 N   0  0  0  0  0  0  0  0  0  0  0  0
   38.0240   27.4950   42.1220 C   0  0  0  0  0  0  0  0  0  0  0  0
   38.6060   27.8050   43.2980 N   0  0  0  0  0  0  0  0  0  0  0  0
   37.1490   28.3820   41.4290 N   0  0  0  0  0  0  0  0  0  0  0  0
   36.3210   27.8340   40.3830 C   0  0  0  0  0  0  0  0  0  0  0  0
   35.4570   28.8630   39.7370 C   0  0  0  0  0  0  0  0  0  0  0  0
   34.9950   29.7480   40.7730 N   0  0  0  0  0  0  0  0  0  0  0  0
   36.1280   30.5880   41.1410 C   0  0  0  0  0  0  0  0  0  0  0  0
   37.1830   29.7980   41.8630 C   0  0  2  0  0  0  0  0  0  0  0  0
   38.4950   30.2830   41.3410 C   0  0  0  0  0  0  0  0  0  0  0  0
   39.6360   30.2580   42.0710 N   0  0  0  0  0  0  0  0  0  0  0  0
   40.8030   30.6890   41.6080 C   0  0  0  0  0  0  0  0  0  0  0  0
   40.9550   31.1940   40.3570 N   0  0  0  0  0  0  0  0  0  0  0  0
   39.8540   31.2510   39.5670 C   0  0  0  0  0  0  0  0  0  0  0  0
   39.9630   31.7580   38.2900 C   0  0  0  0  0  0  0  0  0  0  0  0
   38.8730   31.8340   37.4550 C   0  0  0  0  0  0  0  0  0  0  0  0
   37.6620   31.3830   37.9450 C   0  0  0  0  0  0  0  0  0  0  0  0
   37.5860   30.8810   39.2310 C   0  0  0  0  0  0  0  0  0  0  0  0
   38.6590   30.7950   40.0810 C   0  0  0  0  0  0  0  0  0  0  0  0
   39.8796   27.2347   44.8740 H   0  0  0  0  0  0  0  0  0  0  0  0
   40.3692   24.9821   43.8689 H   0  0  0  0  0  0  0  0  0  0  0  0
   39.2829   24.4011   41.6685 H   0  0  0  0  0  0  0  0  0  0  0  0
   36.9714   27.3882   39.6160 H   0  0  0  0  0  0  0  0  0  0  0  0
   35.6597   27.0834   40.8405 H   0  0  0  0  0  0  0  0  0  0  0  0
   36.0370   29.4269   38.9916 H   0  0  0  0  0  0  0  0  0  0  0  0
   34.6075   28.3899   39.2226 H   0  0  0  0  0  0  0  0  0  0  0  0
   34.2202   30.3298   40.4237 H   0  0  0  0  0  0  0  0  0  0  0  0
   36.5653   31.0193   40.2285 H   0  0  0  0  0  0  0  0  0  0  0  0
   35.7679   31.3809   41.8130 H   0  0  0  0  0  0  0  0  0  0  0  0
   37.0344   29.8998   42.9482 H   0  0  0  0  0  0  0  0  0  0  0  0
   41.6834   30.6347   42.2652 H   0  0  0  0  0  0  0  0  0  0  0  0
   40.9419   32.1090   37.9314 H   0  0  0  0  0  0  0  0  0  0  0  0
   38.9616   32.2384   36.4359 H   0  0  0  0  0  0  0  0  0  0  0  0
   36.7618   31.4233   37.3141 H   0  0  0  0  0  0  0  0  0  0  0  0
   36.6084   30.5303   39.5934 H   0  0  0  0  0  0  0  0  0  0  0  0
  2  1  2  0
  3  2  1  0
  4  5  1  0
  4  3  2  0
  5  6  2  0
  6  1  1  0
  7 12  1  0
  7  5  1  0
  8  7  1  0
  9  8  1  0
  9 10  1  0
 10 11  1  0
 11 12  1  0
 13 12  1  0
 13 14  2  0
 15 14  1  0
 16 15  2  0
 17 22  2  0
 17 16  1  0
 18 17  1  0
 19 20  1  0
 19 18  2  0
 20 21  2  0
 21 22  1  0
 22 13  1  0
  1 23  1  0
  2 24  1  0
  3 25  1  0
  8 26  1  0
  8 27  1  0
  9 28  1  0
  9 29  1  0
 10 30  1  0
 11 31  1  0
 11 32  1  0
 12 33  1  1
 15 34  1  0
 18 35  1  0
 19 36  1  0
 20 37  1  0
 21 38  1  0
M  ISO  8  23  14  24  14  25  14  26  13  27  13  28  13  29  13  30   5
M  ISO  8  31  13  32  13  33  13  34  14  35  14  36  14  37  14  38  14
M  END
>  <minimizedAffinity>  (1) 
-5.85762405

>  <minimizedRMSD>  (1) 
1.27497375

$$$$
