
     RDKit          3D

 34 36  0  0  1  0  0  0  0  0999 V2000
   39.6320   26.9310   43.8390 C   0  0  0  0  0  0  0  0  0  0  0  0
   39.6910   25.5920   43.3700 C   0  0  0  0  0  0  0  0  0  0  0  0
   38.9270   25.2630   42.2500 C   0  0  0  0  0  0  0  0  0  0  0  0
   38.1780   26.2340   41.6770 N   0  0  0  0  0  0  0  0  0  0  0  0
   38.1380   27.5070   42.1450 C   0  0  0  0  0  0  0  0  0  0  0  0
   38.8730   27.8520   43.2330 N   0  0  0  0  0  0  0  0  0  0  0  0
   37.3150   28.4490   41.4680 N   0  0  0  0  0  0  0  0  0  0  0  0
   36.3790   27.9390   40.4950 C   0  0  0  0  0  0  0  0  0  0  0  0
   35.3820   28.9340   40.0180 C   0  0  0  0  0  0  0  0  0  0  0  0
   35.2130   29.9800   40.9880 N   0  0  0  0  0  0  0  0  0  0  0  0
   36.4810   30.7180   41.0780 C   0  0  0  0  0  0  0  0  0  0  0  0
   37.4670   29.8560   41.8000 C   0  0  2  0  0  0  0  0  0  0  0  0
   38.8190   30.3240   41.7100 N   0  0  0  0  0  0  0  0  0  0  0  0
   39.6450   30.7050   42.6790 C   0  0  0  0  0  0  0  0  0  0  0  0
   40.9320   31.1350   42.4240 C   0  0  0  0  0  0  0  0  0  0  0  0
   41.3940   31.1780   41.1230 C   0  0  0  0  0  0  0  0  0  0  0  0
   42.5740   31.5690   40.8560 O   0  0  0  0  0  0  0  0  0  0  0  0
   40.5380   30.7860   40.1510 N   0  0  0  0  0  0  0  0  0  0  0  0
   39.2800   30.3680   40.4290 C   0  0  0  0  0  0  0  0  0  0  0  0
   38.6400   30.0450   39.3780 O   0  0  0  0  0  0  0  0  0  0  0  0
   40.2237   27.2180   44.7207 H   0  0  0  0  0  0  0  0  0  0  0  0
   40.3174   24.8402   43.8724 H   0  0  0  0  0  0  0  0  0  0  0  0
   38.9331   24.2410   41.8431 H   0  0  0  0  0  0  0  0  0  0  0  0
   36.9489   27.5797   39.6255 H   0  0  0  0  0  0  0  0  0  0  0  0
   35.8103   27.1416   40.9959 H   0  0  0  0  0  0  0  0  0  0  0  0
   35.7312   29.3712   39.0710 H   0  0  0  0  0  0  0  0  0  0  0  0
   34.4170   28.4277   39.8682 H   0  0  0  0  0  0  0  0  0  0  0  0
   34.4583   30.6149   40.6909 H   0  0  0  0  0  0  0  0  0  0  0  0
   36.8531   30.9454   40.0681 H   0  0  0  0  0  0  0  0  0  0  0  0
   36.3344   31.6653   41.6176 H   0  0  0  0  0  0  0  0  0  0  0  0
   37.2196   29.9458   42.8681 H   0  0  0  0  0  0  0  0  0  0  0  0
   39.2911   30.6768   43.7201 H   0  0  0  0  0  0  0  0  0  0  0  0
   41.5865   31.4419   43.2531 H   0  0  0  0  0  0  0  0  0  0  0  0
   40.8525   30.8061   39.1704 H   0  0  0  0  0  0  0  0  0  0  0  0
  2  1  2  0
  3  2  1  0
  4  5  1  0
  4  3  2  0
  5  6  2  0
  6  1  1  0
  7 12  1  0
  7  5  1  0
  8  7  1  0
  9  8  1  0
  9 10  1  0
 10 11  1  0
 11 12  1  0
 13 12  1  0
 13 14  1  0
 15 14  2  0
 16 15  1  0
 17 16  2  0
 18 19  1  0
 18 16  1  0
 19 13  1  0
 20 19  2  0
  1 21  1  0
  2 22  1  0
  3 23  1  0
  8 24  1  0
  8 25  1  0
  9 26  1  0
  9 27  1  0
 10 28  1  0
 11 29  1  0
 11 30  1  0
 12 31  1  1
 14 32  1  0
 15 33  1  0
 18 34  1  0
M  ISO  8  21  14  22  14  23  14  24  13  25  13  26  13  27  13  28   5
M  ISO  6  29  13  30  13  31  13  32  14  33  14  34   9
M  END
>  <minimizedAffinity>  (1) 
-5.42367744

>  <minimizedRMSD>  (1) 
1.11064589

$$$$
