
     RDKit          3D

 35 38  0  0  1  0  0  0  0  0999 V2000
   42.1020   27.3370   40.6980 C   0  0  0  0  0  0  0  0  0  0  0  0
   42.4940   28.0100   39.5310 C   0  0  0  0  0  0  0  0  0  0  0  0
   41.6860   29.0520   39.0680 C   0  0  0  0  0  0  0  0  0  0  0  0
   40.5660   29.3410   39.7910 N   0  0  0  0  0  0  0  0  0  0  0  0
   40.2150   28.6830   40.9020 C   0  0  0  0  0  0  0  0  0  0  0  0
   41.0010   27.6660   41.3560 N   0  0  0  0  0  0  0  0  0  0  0  0
   39.0170   29.0560   41.5950 N   0  0  0  0  0  0  0  0  0  0  0  0
   38.1370   29.9800   40.8810 C   0  0  0  0  0  0  0  0  0  0  0  0
   36.8400   30.1850   41.5850 C   0  0  0  0  0  0  0  0  0  0  0  0
   36.4820   29.0040   42.2920 N   0  0  0  0  0  0  0  0  0  0  0  0
   37.4000   28.8520   43.4120 C   0  0  0  0  0  0  0  0  0  0  0  0
   38.7800   28.4970   42.9240 C   0  0  1  0  0  0  0  0  0  0  0  0
   39.0380   27.0770   42.9890 N   0  0  0  0  0  0  0  0  0  0  0  0
   39.9090   26.3950   43.7610 C   0  0  0  0  0  0  0  0  0  0  0  0
   39.8630   25.0730   43.5390 N   0  0  0  0  0  0  0  0  0  0  0  0
   38.9320   24.8520   42.5880 C   0  0  0  0  0  0  0  0  0  0  0  0
   38.3980   23.7530   41.9120 C   0  0  0  0  0  0  0  0  0  0  0  0
   37.4470   23.9320   40.9950 N   0  0  0  0  0  0  0  0  0  0  0  0
   36.9740   25.1520   40.6900 C   0  0  0  0  0  0  0  0  0  0  0  0
   37.4710   26.2510   41.3280 N   0  0  0  0  0  0  0  0  0  0  0  0
   38.4430   26.0930   42.2690 C   0  0  0  0  0  0  0  0  0  0  0  0
   42.7260   26.5140   41.0765 H   0  0  0  0  0  0  0  0  0  0  0  0
   43.4117   27.7254   38.9954 H   0  0  0  0  0  0  0  0  0  0  0  0
   41.9424   29.6155   38.1587 H   0  0  0  0  0  0  0  0  0  0  0  0
   37.9351   29.5731   39.8792 H   0  0  0  0  0  0  0  0  0  0  0  0
   38.6463   30.9533   40.8246 H   0  0  0  0  0  0  0  0  0  0  0  0
   36.9380   31.0196   42.2948 H   0  0  0  0  0  0  0  0  0  0  0  0
   36.0588   30.4159   40.8458 H   0  0  0  0  0  0  0  0  0  0  0  0
   35.5162   29.0849   42.6406 H   0  0  0  0  0  0  0  0  0  0  0  0
   37.4469   29.7979   43.9715 H   0  0  0  0  0  0  0  0  0  0  0  0
   37.0351   28.0426   44.0614 H   0  0  0  0  0  0  0  0  0  0  0  0
   39.5079   28.9582   43.6078 H   0  0  0  0  0  0  0  0  0  0  0  0
   40.5815   26.8697   44.4907 H   0  0  0  0  0  0  0  0  0  0  0  0
   38.7621   22.7395   42.1361 H   0  0  0  0  0  0  0  0  0  0  0  0
   36.1885   25.2645   39.9283 H   0  0  0  0  0  0  0  0  0  0  0  0
  1  6  2  0
  2  1  1  0
  3  2  2  0
  3  4  1  0
  4  5  2  0
  5  6  1  0
  5  7  1  0
  7 12  1  0
  8  9  1  0
  8  7  1  0
  9 10  1  0
 10 11  1  0
 12 13  1  0
 12 11  1  0
 13 14  1  0
 15 14  2  0
 16 15  1  0
 17 16  2  0
 18 17  1  0
 19 18  2  0
 19 20  1  0
 20 21  2  0
 21 16  1  0
 21 13  1  0
  1 22  1  0
  2 23  1  0
  3 24  1  0
  8 25  1  0
  8 26  1  0
  9 27  1  0
  9 28  1  0
 10 29  1  0
 11 30  1  0
 11 31  1  0
 12 32  1  1
 14 33  1  0
 17 34  1  0
 19 35  1  0
M  ISO  8  22  14  23  14  24  14  25  13  26  13  27  13  28  13  29   5
M  ISO  6  30  13  31  13  32  13  33  14  34  14  35  14
M  END
>  <minimizedAffinity>  (1) 
-4.79204941

>  <minimizedRMSD>  (1) 
5.12950897

$$$$
