
     RDKit          3D

 31 33  0  0  1  0  0  0  0  0999 V2000
   37.3090   24.1430   41.1940 C   0  0  0  0  0  0  0  0  0  0  0  0
   36.8410   23.5960   39.9880 C   0  0  0  0  0  0  0  0  0  0  0  0
   36.3110   24.4620   39.0370 C   0  0  0  0  0  0  0  0  0  0  0  0
   36.2740   25.7960   39.3270 N   0  0  0  0  0  0  0  0  0  0  0  0
   36.7280   26.3010   40.4890 C   0  0  0  0  0  0  0  0  0  0  0  0
   37.2380   25.4500   41.3980 N   0  0  0  0  0  0  0  0  0  0  0  0
   36.6560   27.6970   40.7160 N   0  0  0  0  0  0  0  0  0  0  0  0
   35.8670   28.4710   39.7600 C   0  0  0  0  0  0  0  0  0  0  0  0
   35.7350   29.9010   40.1200 C   0  0  0  0  0  0  0  0  0  0  0  0
   35.8210   30.0610   41.5420 N   0  0  0  0  0  0  0  0  0  0  0  0
   37.2020   29.7470   41.9110 C   0  0  0  0  0  0  0  0  0  0  0  0
   37.3670   28.2470   41.8740 C   0  0  1  0  0  0  0  0  0  0  0  0
   36.9560   27.5800   43.1420 C   0  0  0  0  0  0  0  0  0  0  0  0
   36.9750   28.2210   44.4690 C   0  0  0  0  0  0  0  0  0  0  0  0
   38.1060   27.3090   44.1080 C   0  0  0  0  0  0  0  0  0  0  0  0
   37.7339   23.4870   41.9681 H   0  0  0  0  0  0  0  0  0  0  0  0
   36.8921   22.5133   39.8007 H   0  0  0  0  0  0  0  0  0  0  0  0
   35.9317   24.0823   38.0768 H   0  0  0  0  0  0  0  0  0  0  0  0
   34.8599   28.0321   39.7044 H   0  0  0  0  0  0  0  0  0  0  0  0
   36.3959   28.4286   38.7964 H   0  0  0  0  0  0  0  0  0  0  0  0
   36.5427   30.4731   39.6400 H   0  0  0  0  0  0  0  0  0  0  0  0
   34.7582   30.2705   39.7745 H   0  0  0  0  0  0  0  0  0  0  0  0
   35.5935   31.0303   41.8057 H   0  0  0  0  0  0  0  0  0  0  0  0
   37.8948   30.2162   41.1969 H   0  0  0  0  0  0  0  0  0  0  0  0
   37.4244   30.1305   42.9177 H   0  0  0  0  0  0  0  0  0  0  0  0
   38.4414   28.0358   41.7687 H   0  0  0  0  0  0  0  0  0  0  0  0
   36.1551   27.0383   42.6174 H   0  0  0  0  0  0  0  0  0  0  0  0
   37.1522   29.3037   44.5487 H   0  0  0  0  0  0  0  0  0  0  0  0
   36.2655   28.2680   45.3083 H   0  0  0  0  0  0  0  0  0  0  0  0
   38.2027   26.3266   44.5933 H   0  0  0  0  0  0  0  0  0  0  0  0
   39.2023   27.3910   44.0699 H   0  0  0  0  0  0  0  0  0  0  0  0
  1  6  2  0
  2  1  1  0
  3  4  1  0
  3  2  2  0
  4  5  2  0
  5  7  1  0
  5  6  1  0
  7 12  1  0
  8  9  1  0
  8  7  1  0
  9 10  1  0
 10 11  1  0
 12 11  1  0
 12 13  1  0
 13 15  1  0
 13 14  1  0
 15 14  1  0
  1 16  1  0
  2 17  1  0
  3 18  1  0
  8 19  1  0
  8 20  1  0
  9 21  1  0
  9 22  1  0
 10 23  1  0
 11 24  1  0
 11 25  1  0
 12 26  1  6
 13 27  1  0
 14 28  1  0
 14 29  1  0
 15 30  1  0
 15 31  1  0
M  ISO  8  16  14  17  14  18  14  19  13  20  13  21  13  22  13  23   5
M  ISO  8  24  13  25  13  26  13  27  13  28  13  29  13  30  13  31  13
M  END
>  <minimizedAffinity>  (1) 
-4.76995373

>  <minimizedRMSD>  (1) 
3.10832119

$$$$
