
     RDKit          3D

 31 33  0  0  1  0  0  0  0  0999 V2000
   38.0620   29.4540   42.9050 C   0  0  0  0  0  0  0  0  0  0  0  0
   37.5160   28.3980   43.6530 C   0  0  0  0  0  0  0  0  0  0  0  0
   36.7610   27.4530   42.9680 C   0  0  0  0  0  0  0  0  0  0  0  0
   36.6150   27.6300   41.6330 N   0  0  0  0  0  0  0  0  0  0  0  0
   37.1450   28.6490   40.9270 C   0  0  0  0  0  0  0  0  0  0  0  0
   37.8850   29.5760   41.5960 N   0  0  0  0  0  0  0  0  0  0  0  0
   36.9080   28.7050   39.5250 N   0  0  0  0  0  0  0  0  0  0  0  0
   35.8230   27.8790   39.0030 C   0  0  0  0  0  0  0  0  0  0  0  0
   35.6350   28.0850   37.5320 C   0  0  0  0  0  0  0  0  0  0  0  0
   35.8450   29.4820   37.2490 N   0  0  0  0  0  0  0  0  0  0  0  0
   37.2660   29.7410   37.3420 C   0  0  0  0  0  0  0  0  0  0  0  0
   37.7760   29.5860   38.7440 C   0  0  1  0  0  0  0  0  0  0  0  0
   38.0340   30.8710   39.4190 C   0  0  0  0  0  0  0  0  0  0  0  0
   37.0860   31.8810   39.5980 C   0  0  0  0  0  0  0  0  0  0  0  0
   37.6610   32.9440   40.2660 C   0  0  0  0  0  0  0  0  0  0  0  0
   38.9650   32.5270   40.4700 C   0  0  0  0  0  0  0  0  0  0  0  0
   39.1170   31.3450   39.9690 O   0  0  0  0  0  0  0  0  0  0  0  0
   38.6627   30.2131   43.4275 H   0  0  0  0  0  0  0  0  0  0  0  0
   37.6794   28.3218   44.7381 H   0  0  0  0  0  0  0  0  0  0  0  0
   36.3021   26.5988   43.4874 H   0  0  0  0  0  0  0  0  0  0  0  0
   36.0586   26.8206   39.1884 H   0  0  0  0  0  0  0  0  0  0  0  0
   34.8927   28.1685   39.5136 H   0  0  0  0  0  0  0  0  0  0  0  0
   36.3624   27.4773   36.9737 H   0  0  0  0  0  0  0  0  0  0  0  0
   34.6220   27.7813   37.2294 H   0  0  0  0  0  0  0  0  0  0  0  0
   35.3376   30.0590   37.9349 H   0  0  0  0  0  0  0  0  0  0  0  0
   37.7992   29.0333   36.6901 H   0  0  0  0  0  0  0  0  0  0  0  0
   37.4424   30.7809   37.0298 H   0  0  0  0  0  0  0  0  0  0  0  0
   38.7610   29.1020   38.6699 H   0  0  0  0  0  0  0  0  0  0  0  0
   36.0406   31.8364   39.2586 H   0  0  0  0  0  0  0  0  0  0  0  0
   37.1945   33.8944   40.5645 H   0  0  0  0  0  0  0  0  0  0  0  0
   39.7480   33.1092   40.9780 H   0  0  0  0  0  0  0  0  0  0  0  0
  1  2  2  0
  3  2  1  0
  4  3  2  0
  5  6  2  0
  5  4  1  0
  6  1  1  0
  7  5  1  0
  8  7  1  0
  9  8  1  0
 10 11  1  0
 10  9  1  0
 11 12  1  0
 12 13  1  0
 12  7  1  0
 13 14  2  0
 13 17  1  0
 14 15  1  0
 15 16  2  0
 17 16  1  0
  1 18  1  0
  2 19  1  0
  3 20  1  0
  8 21  1  0
  8 22  1  0
  9 23  1  0
  9 24  1  0
 10 25  1  0
 11 26  1  0
 11 27  1  0
 12 28  1  6
 14 29  1  0
 15 30  1  0
 16 31  1  0
M  ISO  8  18  14  19  14  20  14  21  13  22  13  23  13  24  13  25   5
M  ISO  6  26  13  27  13  28  13  29  14  30  14  31  14
M  END
>  <minimizedAffinity>  (1) 
-4.56324482

>  <minimizedRMSD>  (1) 
3.27600598

$$$$
