
     RDKit          3D

 36 38  0  0  1  0  0  0  0  0999 V2000
   40.0840   24.7880   40.1330 C   0  0  0  0  0  0  0  0  0  0  0  0
   39.5200   24.0840   39.0580 C   0  0  0  0  0  0  0  0  0  0  0  0
   38.3430   24.5770   38.5070 C   0  0  0  0  0  0  0  0  0  0  0  0
   37.8220   25.7070   39.0500 N   0  0  0  0  0  0  0  0  0  0  0  0
   38.3810   26.3750   40.0910 C   0  0  0  0  0  0  0  0  0  0  0  0
   39.5170   25.8950   40.6190 N   0  0  0  0  0  0  0  0  0  0  0  0
   37.7430   27.5470   40.5720 N   0  0  0  0  0  0  0  0  0  0  0  0
   36.3640   27.7720   40.1570 C   0  0  0  0  0  0  0  0  0  0  0  0
   35.7460   28.9580   40.8220 C   0  0  0  0  0  0  0  0  0  0  0  0
   36.2640   29.0550   42.1570 N   0  0  0  0  0  0  0  0  0  0  0  0
   37.6640   29.4980   42.0480 C   0  0  0  0  0  0  0  0  0  0  0  0
   38.5150   28.4280   41.4410 C   0  0  1  0  0  0  0  0  0  0  0  0
   39.3200   27.7000   42.3380 N   0  0  0  0  0  0  0  0  0  0  0  0
   38.7130   27.1960   43.5130 C   0  0  0  0  0  0  0  0  0  0  0  0
   39.8910   26.4430   44.1460 C   0  0  0  0  0  0  0  0  0  0  0  0
   41.0690   27.3070   43.7560 C   0  0  0  0  0  0  0  0  0  0  0  0
   40.6310   28.1740   42.6000 C   0  0  0  0  0  0  0  0  0  0  0  0
   41.0158   24.4190   40.5863 H   0  0  0  0  0  0  0  0  0  0  0  0
   39.9936   23.1724   38.6646 H   0  0  0  0  0  0  0  0  0  0  0  0
   37.8521   24.0707   37.6628 H   0  0  0  0  0  0  0  0  0  0  0  0
   36.3458   27.9301   39.0686 H   0  0  0  0  0  0  0  0  0  0  0  0
   35.7810   26.8865   40.4503 H   0  0  0  0  0  0  0  0  0  0  0  0
   35.9959   29.8701   40.2602 H   0  0  0  0  0  0  0  0  0  0  0  0
   34.6521   28.8459   40.8502 H   0  0  0  0  0  0  0  0  0  0  0  0
   35.7180   29.7400   42.6988 H   0  0  0  0  0  0  0  0  0  0  0  0
   37.7094   30.3968   41.4155 H   0  0  0  0  0  0  0  0  0  0  0  0
   38.0429   29.7194   43.0567 H   0  0  0  0  0  0  0  0  0  0  0  0
   39.2380   28.9852   40.8271 H   0  0  0  0  0  0  0  0  0  0  0  0
   38.3549   28.0075   44.1636 H   0  0  0  0  0  0  0  0  0  0  0  0
   37.8206   26.5779   43.3351 H   0  0  0  0  0  0  0  0  0  0  0  0
   39.7849   26.3832   45.2392 H   0  0  0  0  0  0  0  0  0  0  0  0
   39.9790   25.3990   43.8109 H   0  0  0  0  0  0  0  0  0  0  0  0
   41.3703   27.9374   44.6056 H   0  0  0  0  0  0  0  0  0  0  0  0
   41.9292   26.6840   43.4697 H   0  0  0  0  0  0  0  0  0  0  0  0
   41.2860   28.0334   41.7275 H   0  0  0  0  0  0  0  0  0  0  0  0
   40.6712   29.2509   42.8206 H   0  0  0  0  0  0  0  0  0  0  0  0
  1  6  2  0
  2  1  1  0
  3  4  1  0
  3  2  2  0
  4  5  2  0
  5  7  1  0
  5  6  1  0
  7 12  1  0
  8  7  1  0
  8  9  1  0
  9 10  1  0
 11 10  1  0
 12 11  1  0
 12 13  1  0
 13 17  1  0
 13 14  1  0
 14 15  1  0
 16 15  1  0
 17 16  1  0
  1 18  1  0
  2 19  1  0
  3 20  1  0
  8 21  1  0
  8 22  1  0
  9 23  1  0
  9 24  1  0
 10 25  1  0
 11 26  1  0
 11 27  1  0
 12 28  1  6
 14 29  1  0
 14 30  1  0
 15 31  1  0
 15 32  1  0
 16 33  1  0
 16 34  1  0
 17 35  1  0
 17 36  1  0
M  ISO  8  18  14  19  14  20  14  21  13  22  13  23  13  24  13  25   5
M  ISO  8  26  13  27  13  28  13  29  13  30  13  31  13  32  13  33  13
M  ISO  3  34  13  35  13  36  13
M  END
>  <minimizedAffinity>  (1) 
-4.25268459

>  <minimizedRMSD>  (1) 
3.32398009

$$$$
