
     RDKit          3D

 31 33  0  0  1  0  0  0  0  0999 V2000
   40.8890   28.3510   42.6740 C   0  0  0  0  0  0  0  0  0  0  0  0
   40.6520   27.3390   43.6190 C   0  0  0  0  0  0  0  0  0  0  0  0
   39.3580   26.8370   43.7080 C   0  0  0  0  0  0  0  0  0  0  0  0
   38.3980   27.3500   42.8800 N   0  0  0  0  0  0  0  0  0  0  0  0
   38.6640   28.3300   41.9770 C   0  0  0  0  0  0  0  0  0  0  0  0
   39.9240   28.8220   41.8870 N   0  0  0  0  0  0  0  0  0  0  0  0
   37.5880   28.7860   41.1680 N   0  0  0  0  0  0  0  0  0  0  0  0
   36.2470   28.4770   41.6000 C   0  0  0  0  0  0  0  0  0  0  0  0
   35.2040   29.0300   40.6740 C   0  0  0  0  0  0  0  0  0  0  0  0
   35.6630   30.3130   40.2110 N   0  0  0  0  0  0  0  0  0  0  0  0
   36.7470   30.0640   39.2510 C   0  0  0  0  0  0  0  0  0  0  0  0
   37.9620   29.5400   39.9530 C   0  0  1  0  0  0  0  0  0  0  0  0
   38.9450   30.5990   40.2860 C   0  0  0  0  0  0  0  0  0  0  0  0
   40.1250   30.8620   39.6180 C   0  0  0  0  0  0  0  0  0  0  0  0
   40.7410   31.8960   40.2200 N   0  0  0  0  0  0  0  0  0  0  0  0
   39.9790   32.3100   41.2720 C   0  0  0  0  0  0  0  0  0  0  0  0
   38.9000   31.5130   41.2930 N   0  0  0  0  0  0  0  0  0  0  0  0
   41.9031   28.7671   42.5814 H   0  0  0  0  0  0  0  0  0  0  0  0
   41.4582   26.9585   44.2633 H   0  0  0  0  0  0  0  0  0  0  0  0
   39.1118   26.0439   44.4293 H   0  0  0  0  0  0  0  0  0  0  0  0
   36.1342   27.3838   41.6460 H   0  0  0  0  0  0  0  0  0  0  0  0
   36.0982   28.9405   42.5864 H   0  0  0  0  0  0  0  0  0  0  0  0
   35.0647   28.3516   39.8194 H   0  0  0  0  0  0  0  0  0  0  0  0
   34.2413   29.1317   41.1963 H   0  0  0  0  0  0  0  0  0  0  0  0
   34.8927   30.8186   39.7507 H   0  0  0  0  0  0  0  0  0  0  0  0
   37.0016   31.0048   38.7410 H   0  0  0  0  0  0  0  0  0  0  0  0
   36.4087   29.3148   38.5201 H   0  0  0  0  0  0  0  0  0  0  0  0
   38.4549   28.8596   39.2430 H   0  0  0  0  0  0  0  0  0  0  0  0
   40.4993   30.3165   38.7392 H   0  0  0  0  0  0  0  0  0  0  0  0
   40.2041   33.1336   41.9656 H   0  0  0  0  0  0  0  0  0  0  0  0
   38.1372   31.5837   41.9815 H   0  0  0  0  0  0  0  0  0  0  0  0
  1  2  2  0
  2  3  1  0
  4  3  2  0
  5  4  1  0
  6  5  2  0
  6  1  1  0
  7  8  1  0
  7  5  1  0
  9  8  1  0
 10  9  1  0
 11 12  1  0
 11 10  1  0
 12 13  1  0
 12  7  1  0
 13 17  1  0
 14 15  1  0
 14 13  2  0
 15 16  2  0
 16 17  1  0
  1 18  1  0
  2 19  1  0
  3 20  1  0
  8 21  1  0
  8 22  1  0
  9 23  1  0
  9 24  1  0
 10 25  1  0
 11 26  1  0
 11 27  1  0
 12 28  1  6
 14 29  1  0
 16 30  1  0
 17 31  1  0
M  ISO  8  18  14  19  14  20  14  21  13  22  13  23  13  24  13  25   5
M  ISO  6  26  13  27  13  28  13  29  14  30  14  31   9
M  END
>  <minimizedAffinity>  (1) 
-4.15325975

>  <minimizedRMSD>  (1) 
2.19189382

$$$$
