
     RDKit          3D

 46 50  0  0  1  0  0  0  0  0999 V2000
   38.1190   30.5370   39.5010 C   0  0  1  0  0  0  0  0  0  0  0  0
   37.5940   30.6330   38.0410 C   0  0  0  0  0  0  0  0  0  0  0  0
   36.1430   30.2090   38.2460 C   0  0  0  0  0  0  0  0  0  0  0  0
   36.0890   29.4120   39.5230 C   0  0  0  0  0  0  0  0  0  0  0  0
   37.5580   29.2210   39.9030 C   0  0  2  0  0  0  0  0  0  0  0  0
   40.9400   35.1910   39.7860 C   0  0  0  0  0  0  0  0  0  0  0  0
   39.6620   35.7330   40.0890 C   0  0  0  0  0  0  0  0  0  0  0  0
   38.6170   34.8440   40.2590 C   0  0  0  0  0  0  0  0  0  0  0  0
   38.8750   33.5170   40.1250 N   0  0  0  0  0  0  0  0  0  0  0  0
   40.0600   33.0140   39.8430 C   0  0  0  0  0  0  0  0  0  0  0  0
   41.1090   33.8640   39.6700 N   0  0  0  0  0  0  0  0  0  0  0  0
   40.3710   31.6350   39.6870 N   0  0  0  0  0  0  0  0  0  0  0  0
   41.6550   31.3020   39.6820 N   0  0  0  0  0  0  0  0  0  0  0  0
   41.7470   29.9460   39.5070 C   0  0  0  0  0  0  0  0  0  0  0  0
   40.4330   29.5020   39.4090 C   0  0  0  0  0  0  0  0  0  0  0  0
   39.5720   30.5890   39.5270 C   0  0  0  0  0  0  0  0  0  0  0  0
   37.6070   28.9410   41.3100 N   0  0  0  0  0  0  0  0  0  0  0  0
   37.8360   29.7840   42.3110 N   0  0  0  0  0  0  0  0  0  0  0  0
   37.8040   29.1660   43.5040 C   0  0  0  0  0  0  0  0  0  0  0  0
   37.5340   27.8470   43.2200 C   0  0  0  0  0  0  0  0  0  0  0  0
   37.4120   27.7160   41.8380 C   0  0  0  0  0  0  0  0  0  0  0  0
   37.1110   26.4190   41.2520 C   0  0  0  0  0  0  0  0  0  0  0  0
   37.2560   25.2510   41.9660 C   0  0  0  0  0  0  0  0  0  0  0  0
   36.9940   23.9870   41.4910 C   0  0  0  0  0  0  0  0  0  0  0  0
   36.5520   23.8290   40.2090 C   0  0  0  0  0  0  0  0  0  0  0  0
   36.4030   24.9800   39.4910 C   0  0  0  0  0  0  0  0  0  0  0  0
   36.6740   26.1580   40.0140 N   0  0  0  0  0  0  0  0  0  0  0  0
   37.8246   31.3542   40.1759 H   0  0  0  0  0  0  0  0  0  0  0  0
   38.1285   29.9445   37.3700 H   0  0  0  0  0  0  0  0  0  0  0  0
   37.7240   31.6177   37.5683 H   0  0  0  0  0  0  0  0  0  0  0  0
   35.4988   31.0968   38.3281 H   0  0  0  0  0  0  0  0  0  0  0  0
   35.7872   29.6090   37.3955 H   0  0  0  0  0  0  0  0  0  0  0  0
   35.5513   29.9656   40.3068 H   0  0  0  0  0  0  0  0  0  0  0  0
   35.5552   28.4576   39.4039 H   0  0  0  0  0  0  0  0  0  0  0  0
   38.1141   28.3949   39.4358 H   0  0  0  0  0  0  0  0  0  0  0  0
   41.7984   35.8643   39.6452 H   0  0  0  0  0  0  0  0  0  0  0  0
   39.5099   36.8182   40.1846 H   0  0  0  0  0  0  0  0  0  0  0  0
   37.6041   35.2015   40.4963 H   0  0  0  0  0  0  0  0  0  0  0  0
   42.6631   29.3394   39.4552 H   0  0  0  0  0  0  0  0  0  0  0  0
   40.1231   28.4569   39.2615 H   0  0  0  0  0  0  0  0  0  0  0  0
   37.9601   29.6177   44.4948 H   0  0  0  0  0  0  0  0  0  0  0  0
   37.4321   27.0363   43.9564 H   0  0  0  0  0  0  0  0  0  0  0  0
   37.6112   25.3356   43.0036 H   0  0  0  0  0  0  0  0  0  0  0  0
   37.1395   23.1102   42.1391 H   0  0  0  0  0  0  0  0  0  0  0  0
   36.3306   22.8393   39.7829 H   0  0  0  0  0  0  0  0  0  0  0  0
   36.0483   24.9225   38.4513 H   0  0  0  0  0  0  0  0  0  0  0  0
  1 16  1  0
  1  5  1  0
  2  3  1  0
  2  1  1  0
  3  4  1  0
  4  5  1  0
  5 17  1  0
  6  7  2  0
  7  8  1  0
  9  8  2  0
 10  9  1  0
 11  6  1  0
 11 10  2  0
 12 10  1  0
 13 12  1  0
 14 13  2  0
 15 14  1  0
 15 16  2  0
 16 12  1  0
 17 21  1  0
 17 18  1  0
 18 19  2  0
 20 19  1  0
 21 20  2  0
 22 21  1  0
 22 23  2  0
 24 23  1  0
 25 24  2  0
 26 27  2  0
 26 25  1  0
 27 22  1  0
  1 28  1  1
  2 29  1  0
  2 30  1  0
  3 31  1  0
  3 32  1  0
  4 33  1  0
  4 34  1  0
  5 35  1  6
  6 36  1  0
  7 37  1  0
  8 38  1  0
 14 39  1  0
 15 40  1  0
 19 41  1  0
 20 42  1  0
 23 43  1  0
 24 44  1  0
 25 45  1  0
 26 46  1  0
M  ISO  8  28  13  29  13  30  13  31  13  32  13  33  13  34  13  35  13
M  ISO  8  36  14  37  14  38  14  39  14  40  14  41  14  42  14  43  14
M  ISO  3  44  14  45  14  46  14
M  END
>  <minimizedAffinity>  (1) 
-6.67476797

>  <minimizedRMSD>  (1) 
1.41001678

$$$$
