
     RDKit          3D

 42 45  0  0  1  0  0  0  0  0999 V2000
   38.6060   30.1770   42.5270 C   0  0  0  0  0  0  0  0  0  0  0  0
   38.1970   29.0940   43.3320 C   0  0  0  0  0  0  0  0  0  0  0  0
   37.5390   28.0500   42.7050 C   0  0  0  0  0  0  0  0  0  0  0  0
   37.3360   28.1430   41.3690 N   0  0  0  0  0  0  0  0  0  0  0  0
   37.7320   29.1830   40.6120 C   0  0  0  0  0  0  0  0  0  0  0  0
   38.3730   30.2030   41.2230 N   0  0  0  0  0  0  0  0  0  0  0  0
   37.4620   29.1700   39.2190 N   0  0  0  0  0  0  0  0  0  0  0  0
   36.4560   28.2200   38.7600 C   0  0  0  0  0  0  0  0  0  0  0  0
   36.3340   28.2430   37.2610 C   0  0  0  0  0  0  0  0  0  0  0  0
   36.2900   29.6490   36.9170 N   0  0  0  0  0  0  0  0  0  0  0  0
   37.6740   30.1260   36.9770 C   0  0  0  0  0  0  0  0  0  0  0  0
   38.2030   30.0930   38.3810 C   0  0  1  0  0  0  0  0  0  0  0  0
   38.2730   31.4420   38.9930 C   0  0  0  0  0  0  0  0  0  0  0  0
   37.1830   32.3240   39.1190 C   0  0  0  0  0  0  0  0  0  0  0  0
   37.3140   33.5660   39.6990 C   0  0  0  0  0  0  0  0  0  0  0  0
   38.5180   33.9550   40.1640 N   0  0  0  0  0  0  0  0  0  0  0  0
   39.5710   33.1320   40.0560 C   0  0  0  0  0  0  0  0  0  0  0  0
   39.4320   31.9390   39.4950 N   0  0  0  0  0  0  0  0  0  0  0  0
   40.8650   33.5100   40.5380 N   0  0  0  0  0  0  0  0  0  0  0  0
   41.8520   32.7290   40.9970 C   0  0  0  0  0  0  0  0  0  0  0  0
   43.0240   33.3260   41.4120 C   0  0  0  0  0  0  0  0  0  0  0  0
   43.1930   34.6930   41.3620 C   0  0  0  0  0  0  0  0  0  0  0  0
   44.2630   35.2120   41.7410 O   0  0  0  0  0  0  0  0  0  0  0  0
   42.1750   35.4430   40.8920 N   0  0  0  0  0  0  0  0  0  0  0  0
   41.0270   34.8640   40.4860 C   0  0  0  0  0  0  0  0  0  0  0  0
   40.1750   35.6960   40.0750 O   0  0  0  0  0  0  0  0  0  0  0  0
   39.1324   31.0225   42.9939 H   0  0  0  0  0  0  0  0  0  0  0  0
   38.3929   29.0794   44.4143 H   0  0  0  0  0  0  0  0  0  0  0  0
   37.1925   27.1739   43.2728 H   0  0  0  0  0  0  0  0  0  0  0  0
   36.7440   27.2083   39.0816 H   0  0  0  0  0  0  0  0  0  0  0  0
   35.4853   28.5018   39.1940 H   0  0  0  0  0  0  0  0  0  0  0  0
   37.2028   27.7564   36.7936 H   0  0  0  0  0  0  0  0  0  0  0  0
   35.4450   27.7002   36.9075 H   0  0  0  0  0  0  0  0  0  0  0  0
   35.7051   30.1636   37.5907 H   0  0  0  0  0  0  0  0  0  0  0  0
   38.3021   29.4834   36.3425 H   0  0  0  0  0  0  0  0  0  0  0  0
   37.6976   31.1669   36.6220 H   0  0  0  0  0  0  0  0  0  0  0  0
   39.2354   29.7196   38.3115 H   0  0  0  0  0  0  0  0  0  0  0  0
   36.1975   32.0118   38.7430 H   0  0  0  0  0  0  0  0  0  0  0  0
   36.4444   34.2344   39.7821 H   0  0  0  0  0  0  0  0  0  0  0  0
   41.7305   31.6367   41.0419 H   0  0  0  0  0  0  0  0  0  0  0  0
   43.8426   32.6968   41.7916 H   0  0  0  0  0  0  0  0  0  0  0  0
   42.2756   36.4669   40.8429 H   0  0  0  0  0  0  0  0  0  0  0  0
  1  2  2  0
  3  2  1  0
  4  3  2  0
  5  6  2  0
  5  4  1  0
  6  1  1  0
  7  5  1  0
  8  7  1  0
  9  8  1  0
 10 11  1  0
 10  9  1  0
 11 12  1  0
 12 13  1  0
 12  7  1  0
 13 14  2  0
 13 18  1  0
 14 15  1  0
 15 16  2  0
 17 16  1  0
 17 19  1  0
 18 17  2  0
 19 20  1  0
 20 21  2  0
 22 21  1  0
 22 23  2  0
 24 22  1  0
 25 19  1  0
 25 24  1  0
 26 25  2  0
  1 27  1  0
  2 28  1  0
  3 29  1  0
  8 30  1  0
  8 31  1  0
  9 32  1  0
  9 33  1  0
 10 34  1  0
 11 35  1  0
 11 36  1  0
 12 37  1  6
 14 38  1  0
 15 39  1  0
 20 40  1  0
 21 41  1  0
 24 42  1  0
M  ISO  8  27  14  28  14  29  14  30  13  31  13  32  13  33  13  34   5
M  ISO  8  35  13  36  13  37  13  38  14  39  14  40  14  41  14  42   9
M  END
>  <minimizedAffinity>  (1) 
-6.82998037

>  <minimizedRMSD>  (1) 
1.2520963

$$$$
