
     RDKit          3D

 45 49  0  0  1  0  0  0  0  0999 V2000
   38.7410   29.9700   42.3600 C   0  0  0  0  0  0  0  0  0  0  0  0
   38.3510   29.0160   43.3110 C   0  0  0  0  0  0  0  0  0  0  0  0
   37.4650   28.0360   42.9040 C   0  0  0  0  0  0  0  0  0  0  0  0
   37.0350   28.0690   41.6170 N   0  0  0  0  0  0  0  0  0  0  0  0
   37.4290   29.0040   40.7200 C   0  0  0  0  0  0  0  0  0  0  0  0
   38.2850   29.9470   41.1140 N   0  0  0  0  0  0  0  0  0  0  0  0
   36.9090   28.9330   39.3970 N   0  0  0  0  0  0  0  0  0  0  0  0
   35.7220   28.0990   39.1930 C   0  0  0  0  0  0  0  0  0  0  0  0
   35.3150   28.0750   37.7430 C   0  0  0  0  0  0  0  0  0  0  0  0
   35.4290   29.4250   37.2800 N   0  0  0  0  0  0  0  0  0  0  0  0
   36.8420   29.7010   37.0730 C   0  0  0  0  0  0  0  0  0  0  0  0
   37.5900   29.6870   38.3630 C   0  0  1  0  0  0  0  0  0  0  0  0
   37.9570   31.0440   38.8340 C   0  0  0  0  0  0  0  0  0  0  0  0
   37.0810   31.9360   39.4580 C   0  0  0  0  0  0  0  0  0  0  0  0
   37.4780   33.1890   39.8750 C   0  0  0  0  0  0  0  0  0  0  0  0
   38.7690   33.5660   39.6720 N   0  0  0  0  0  0  0  0  0  0  0  0
   39.6230   32.7330   39.0800 C   0  0  0  0  0  0  0  0  0  0  0  0
   39.2200   31.5440   38.6900 N   0  0  0  0  0  0  0  0  0  0  0  0
   41.0080   33.0420   38.8200 N   0  0  0  0  0  0  0  0  0  0  0  0
   41.5720   33.0140   37.5790 C   0  0  0  0  0  0  0  0  0  0  0  0
   42.8810   33.3540   37.6900 N   0  0  0  0  0  0  0  0  0  0  0  0
   43.1280   33.5900   38.9700 C   0  0  0  0  0  0  0  0  0  0  0  0
   44.2400   33.9660   39.6980 C   0  0  0  0  0  0  0  0  0  0  0  0
   44.1900   34.1390   41.0500 N   0  0  0  0  0  0  0  0  0  0  0  0
   43.0180   33.9380   41.7170 C   0  0  0  0  0  0  0  0  0  0  0  0
   41.9270   33.5730   41.0310 N   0  0  0  0  0  0  0  0  0  0  0  0
   41.9740   33.4040   39.7100 C   0  0  0  0  0  0  0  0  0  0  0  0
   45.4830   34.1870   39.0420 N   0  0  0  0  0  0  0  0  0  0  0  0
   39.4459   30.7610   42.6557 H   0  0  0  0  0  0  0  0  0  0  0  0
   38.7353   29.0463   44.3412 H   0  0  0  0  0  0  0  0  0  0  0  0
   37.1203   27.2563   43.5992 H   0  0  0  0  0  0  0  0  0  0  0  0
   35.9443   27.0726   39.5202 H   0  0  0  0  0  0  0  0  0  0  0  0
   34.8938   28.5228   39.7800 H   0  0  0  0  0  0  0  0  0  0  0  0
   35.9832   27.4162   37.1691 H   0  0  0  0  0  0  0  0  0  0  0  0
   34.2921   27.6904   37.6174 H   0  0  0  0  0  0  0  0  0  0  0  0
   34.9158   29.5370   36.3940 H   0  0  0  0  0  0  0  0  0  0  0  0
   37.2631   28.9344   36.4060 H   0  0  0  0  0  0  0  0  0  0  0  0
   36.9391   30.7011   36.6255 H   0  0  0  0  0  0  0  0  0  0  0  0
   38.5315   29.1608   38.1472 H   0  0  0  0  0  0  0  0  0  0  0  0
   36.0379   31.6278   39.6224 H   0  0  0  0  0  0  0  0  0  0  0  0
   36.7648   33.8701   40.3622 H   0  0  0  0  0  0  0  0  0  0  0  0
   41.0525   32.7584   36.6437 H   0  0  0  0  0  0  0  0  0  0  0  0
   42.9689   34.0742   42.8074 H   0  0  0  0  0  0  0  0  0  0  0  0
   46.3105   34.4673   39.5875 H   0  0  0  0  0  0  0  0  0  0  0  0
   45.5554   34.0667   38.0216 H   0  0  0  0  0  0  0  0  0  0  0  0
  1  2  2  0
  3  2  1  0
  4  3  2  0
  5  6  2  0
  5  4  1  0
  6  1  1  0
  7  5  1  0
  8  7  1  0
  9  8  1  0
 10  9  1  0
 11 10  1  0
 11 12  1  0
 12 13  1  0
 12  7  1  0
 13 14  2  0
 14 15  1  0
 16 15  2  0
 17 16  1  0
 18 13  1  0
 18 17  2  0
 19 17  1  0
 19 27  1  0
 20 21  2  0
 20 19  1  0
 21 22  1  0
 22 23  1  0
 22 27  2  0
 23 24  2  0
 24 25  1  0
 26 25  2  0
 27 26  1  0
 28 23  1  0
  1 29  1  0
  2 30  1  0
  3 31  1  0
  8 32  1  0
  8 33  1  0
  9 34  1  0
  9 35  1  0
 10 36  1  0
 11 37  1  0
 11 38  1  0
 12 39  1  6
 14 40  1  0
 15 41  1  0
 20 42  1  0
 25 43  1  0
 28 44  1  0
 28 45  1  0
M  ISO  8  29  14  30  14  31  14  32  13  33  13  34  13  35  13  36   5
M  ISO  7  37  13  38  13  39  13  40  14  41  14  42  14  43  14
M  END
>  <minimizedAffinity>  (1) 
-6.6758132

>  <minimizedRMSD>  (1) 
1.98851931

$$$$
