
     RDKit          3D

 45 48  0  0  1  0  0  0  0  0999 V2000
   38.7350   30.2530   42.4190 C   0  0  0  0  0  0  0  0  0  0  0  0
   38.3780   29.1900   43.2620 C   0  0  0  0  0  0  0  0  0  0  0  0
   37.6830   28.1290   42.6900 C   0  0  0  0  0  0  0  0  0  0  0  0
   37.4030   28.1980   41.3690 N   0  0  0  0  0  0  0  0  0  0  0  0
   37.7550   29.2330   40.5670 C   0  0  0  0  0  0  0  0  0  0  0  0
   38.4280   30.2560   41.1320 N   0  0  0  0  0  0  0  0  0  0  0  0
   37.4070   29.1990   39.1880 N   0  0  0  0  0  0  0  0  0  0  0  0
   36.3740   28.2420   38.8130 C   0  0  0  0  0  0  0  0  0  0  0  0
   36.1670   28.2500   37.3150 C   0  0  0  0  0  0  0  0  0  0  0  0
   36.1010   29.6530   36.9610 N   0  0  0  0  0  0  0  0  0  0  0  0
   37.4860   30.1210   36.9350 C   0  0  0  0  0  0  0  0  0  0  0  0
   38.1040   30.1100   38.3010 C   0  0  1  0  0  0  0  0  0  0  0  0
   38.2060   31.4640   38.8890 C   0  0  0  0  0  0  0  0  0  0  0  0
   37.1170   32.3010   39.1940 C   0  0  0  0  0  0  0  0  0  0  0  0
   37.2950   33.5530   39.7410 C   0  0  0  0  0  0  0  0  0  0  0  0
   38.5540   33.9970   39.9950 N   0  0  0  0  0  0  0  0  0  0  0  0
   39.5970   33.2180   39.7130 C   0  0  0  0  0  0  0  0  0  0  0  0
   39.4070   32.0210   39.1890 N   0  0  0  0  0  0  0  0  0  0  0  0
   40.9440   33.6100   39.9490 N   0  0  0  0  0  0  0  0  0  0  0  0
   41.8300   32.6090   39.7190 C   0  0  0  0  0  0  0  0  0  0  0  0
   43.1800   32.8340   39.9050 C   0  0  0  0  0  0  0  0  0  0  0  0
   44.1960   31.7740   39.6690 C   0  0  0  0  0  0  0  0  0  0  0  0
   43.5580   34.0790   40.3160 C   0  0  0  0  0  0  0  0  0  0  0  0
   44.7650   34.3770   40.5120 O   0  0  0  0  0  0  0  0  0  0  0  0
   42.6730   35.0760   40.5450 N   0  0  0  0  0  0  0  0  0  0  0  0
   41.3470   34.8270   40.3530 C   0  0  0  0  0  0  0  0  0  0  0  0
   40.4310   35.6680   40.5320 O   0  0  0  0  0  0  0  0  0  0  0  0
   39.2853   31.1076   42.8396 H   0  0  0  0  0  0  0  0  0  0  0  0
   38.6369   29.1951   44.3311 H   0  0  0  0  0  0  0  0  0  0  0  0
   37.3717   27.2629   43.2924 H   0  0  0  0  0  0  0  0  0  0  0  0
   36.6804   27.2346   39.1312 H   0  0  0  0  0  0  0  0  0  0  0  0
   35.4313   28.5233   39.3051 H   0  0  0  0  0  0  0  0  0  0  0  0
   37.0092   27.7602   36.8043 H   0  0  0  0  0  0  0  0  0  0  0  0
   35.2609   27.7022   37.0169 H   0  0  0  0  0  0  0  0  0  0  0  0
   35.6653   29.7695   36.0350 H   0  0  0  0  0  0  0  0  0  0  0  0
   38.0712   29.4645   36.2743 H   0  0  0  0  0  0  0  0  0  0  0  0
   37.4894   31.1576   36.5669 H   0  0  0  0  0  0  0  0  0  0  0  0
   39.1335   29.7425   38.1785 H   0  0  0  0  0  0  0  0  0  0  0  0
   36.0959   31.9463   38.9903 H   0  0  0  0  0  0  0  0  0  0  0  0
   36.4260   34.1873   39.9700 H   0  0  0  0  0  0  0  0  0  0  0  0
   41.4750   31.6226   39.3859 H   0  0  0  0  0  0  0  0  0  0  0  0
   44.5604   31.3938   40.6348 H   0  0  0  0  0  0  0  0  0  0  0  0
   43.7412   30.9506   39.0988 H   0  0  0  0  0  0  0  0  0  0  0  0
   45.0380   32.1935   39.0988 H   0  0  0  0  0  0  0  0  0  0  0  0
   42.9943   36.0033   40.8577 H   0  0  0  0  0  0  0  0  0  0  0  0
  1  2  2  0
  3  2  1  0
  4  3  2  0
  5  6  2  0
  5  4  1  0
  6  1  1  0
  7  5  1  0
  8  7  1  0
  9  8  1  0
 10  9  1  0
 11 10  1  0
 11 12  1  0
 12 13  1  0
 12  7  1  0
 13 18  1  0
 13 14  2  0
 14 15  1  0
 15 16  2  0
 17 19  1  0
 17 16  1  0
 18 17  2  0
 19 26  1  0
 20 21  2  0
 20 19  1  0
 21 23  1  0
 22 21  1  0
 23 24  2  0
 23 25  1  0
 26 27  2  0
 26 25  1  0
  1 28  1  0
  2 29  1  0
  3 30  1  0
  8 31  1  0
  8 32  1  0
  9 33  1  0
  9 34  1  0
 10 35  1  0
 11 36  1  0
 11 37  1  0
 12 38  1  6
 14 39  1  0
 15 40  1  0
 20 41  1  0
 22 42  1  0
 22 43  1  0
 22 44  1  0
 25 45  1  0
M  ISO  8  28  14  29  14  30  14  31  13  32  13  33  13  34  13  35   5
M  ISO  8  36  13  37  13  38  13  39  14  40  14  41  14  42   8  43   8
M  ISO  2  44   8  45   9
M  END
>  <minimizedAffinity>  (1) 
-6.67051935

>  <minimizedRMSD>  (1) 
1.50987184

$$$$
