
     RDKit          3D

 48 52  0  0  1  0  0  0  0  0999 V2000
   37.9600   29.2110   43.1530 C   0  0  0  0  0  0  0  0  0  0  0  0
   37.3140   28.1910   43.8630 C   0  0  0  0  0  0  0  0  0  0  0  0
   36.6060   27.2510   43.1300 C   0  0  0  0  0  0  0  0  0  0  0  0
   36.5870   27.3840   41.7850 N   0  0  0  0  0  0  0  0  0  0  0  0
   37.2200   28.3800   41.1180 C   0  0  0  0  0  0  0  0  0  0  0  0
   37.9030   29.2850   41.8220 N   0  0  0  0  0  0  0  0  0  0  0  0
   37.1230   28.4080   39.7000 N   0  0  0  0  0  0  0  0  0  0  0  0
   36.0750   27.5980   39.0840 C   0  0  0  0  0  0  0  0  0  0  0  0
   36.1440   27.6860   37.5740 C   0  0  0  0  0  0  0  0  0  0  0  0
   36.3470   29.0830   37.2740 N   0  0  0  0  0  0  0  0  0  0  0  0
   37.7700   29.3360   37.5260 C   0  0  0  0  0  0  0  0  0  0  0  0
   38.0750   29.2390   38.9900 C   0  0  1  0  0  0  0  0  0  0  0  0
   38.2310   30.5680   39.6420 C   0  0  0  0  0  0  0  0  0  0  0  0
   37.2990   31.5930   39.6290 C   0  0  0  0  0  0  0  0  0  0  0  0
   37.5550   32.7780   40.2660 C   0  0  0  0  0  0  0  0  0  0  0  0
   38.7120   32.9620   40.9120 N   0  0  0  0  0  0  0  0  0  0  0  0
   39.6340   32.0100   40.9520 C   0  0  0  0  0  0  0  0  0  0  0  0
   39.3400   30.9040   40.3300 N   0  0  0  0  0  0  0  0  0  0  0  0
   40.9610   31.9650   41.5820 C   0  0  0  0  0  0  0  0  0  0  0  0
   41.2400   31.2280   42.7400 C   0  0  0  0  0  0  0  0  0  0  0  0
   42.4740   31.1820   43.3310 C   0  0  0  0  0  0  0  0  0  0  0  0
   43.5250   31.8710   42.8040 C   0  0  0  0  0  0  0  0  0  0  0  0
   43.3110   32.6130   41.6650 C   0  0  0  0  0  0  0  0  0  0  0  0
   44.4010   33.2950   41.1660 C   0  0  0  0  0  0  0  0  0  0  0  0
   44.2700   34.0610   40.0280 C   0  0  0  0  0  0  0  0  0  0  0  0
   43.0060   34.1040   39.4310 C   0  0  0  0  0  0  0  0  0  0  0  0
   41.9620   33.3970   39.9850 C   0  0  0  0  0  0  0  0  0  0  0  0
   42.0670   32.6290   41.1140 C   0  0  0  0  0  0  0  0  0  0  0  0
   38.5295   29.9714   43.7075 H   0  0  0  0  0  0  0  0  0  0  0  0
   37.3664   28.1378   44.9605 H   0  0  0  0  0  0  0  0  0  0  0  0
   36.0771   26.4242   43.6266 H   0  0  0  0  0  0  0  0  0  0  0  0
   36.2031   26.5493   39.3902 H   0  0  0  0  0  0  0  0  0  0  0  0
   35.0967   27.9771   39.4146 H   0  0  0  0  0  0  0  0  0  0  0  0
   36.9832   27.0858   37.1926 H   0  0  0  0  0  0  0  0  0  0  0  0
   35.2294   27.2978   37.1021 H   0  0  0  0  0  0  0  0  0  0  0  0
   35.7631   29.6710   37.8858 H   0  0  0  0  0  0  0  0  0  0  0  0
   38.3707   28.5921   36.9821 H   0  0  0  0  0  0  0  0  0  0  0  0
   38.0149   30.3513   37.1806 H   0  0  0  0  0  0  0  0  0  0  0  0
   39.0538   28.7412   39.0536 H   0  0  0  0  0  0  0  0  0  0  0  0
   36.3437   31.4536   39.1017 H   0  0  0  0  0  0  0  0  0  0  0  0
   36.8054   33.5828   40.2464 H   0  0  0  0  0  0  0  0  0  0  0  0
   40.4220   30.6542   43.2001 H   0  0  0  0  0  0  0  0  0  0  0  0
   42.6188   30.5821   44.2416 H   0  0  0  0  0  0  0  0  0  0  0  0
   44.5178   31.8350   43.2764 H   0  0  0  0  0  0  0  0  0  0  0  0
   45.3735   33.2276   41.6757 H   0  0  0  0  0  0  0  0  0  0  0  0
   45.1225   34.6145   39.6075 H   0  0  0  0  0  0  0  0  0  0  0  0
   42.8461   34.7011   38.5211 H   0  0  0  0  0  0  0  0  0  0  0  0
   40.9816   33.4527   39.4892 H   0  0  0  0  0  0  0  0  0  0  0  0
  1  2  2  0
  3  2  1  0
  4  3  2  0
  5  4  1  0
  5  6  2  0
  6  1  1  0
  7  5  1  0
  8  7  1  0
  9  8  1  0
 10 11  1  0
 10  9  1  0
 11 12  1  0
 12 13  1  0
 12  7  1  0
 13 18  1  0
 14 13  2  0
 14 15  1  0
 15 16  2  0
 16 17  1  0
 17 19  1  0
 18 17  2  0
 19 20  2  0
 20 21  1  0
 22 21  2  0
 23 22  1  0
 24 23  2  0
 25 24  1  0
 26 27  1  0
 26 25  2  0
 27 28  2  0
 28 19  1  0
 28 23  1  0
  1 29  1  0
  2 30  1  0
  3 31  1  0
  8 32  1  0
  8 33  1  0
  9 34  1  0
  9 35  1  0
 10 36  1  0
 11 37  1  0
 11 38  1  0
 12 39  1  6
 14 40  1  0
 15 41  1  0
 20 42  1  0
 21 43  1  0
 22 44  1  0
 24 45  1  0
 25 46  1  0
 26 47  1  0
 27 48  1  0
M  ISO  8  29  14  30  14  31  14  32  13  33  13  34  13  35  13  36   5
M  ISO  8  37  13  38  13  39  13  40  14  41  14  42  14  43  14  44  14
M  ISO  4  45  14  46  14  47  14  48  14
M  END
>  <minimizedAffinity>  (1) 
-6.3726058

>  <minimizedRMSD>  (1) 
0.946019232

$$$$
