
     RDKit          3D

 39 41  0  0  1  0  0  0  0  0999 V2000
   38.2860   29.7910   42.5600 C   0  0  0  0  0  0  0  0  0  0  0  0
   37.7640   28.8000   43.4050 C   0  0  0  0  0  0  0  0  0  0  0  0
   36.9600   27.8290   42.8230 C   0  0  0  0  0  0  0  0  0  0  0  0
   36.7410   27.9100   41.4920 N   0  0  0  0  0  0  0  0  0  0  0  0
   37.2550   28.8780   40.6890 C   0  0  0  0  0  0  0  0  0  0  0  0
   38.0280   29.8090   41.2560 N   0  0  0  0  0  0  0  0  0  0  0  0
   36.9470   28.8520   39.2950 N   0  0  0  0  0  0  0  0  0  0  0  0
   35.8100   28.0160   38.8950 C   0  0  0  0  0  0  0  0  0  0  0  0
   35.6410   28.0540   37.3900 C   0  0  0  0  0  0  0  0  0  0  0  0
   35.7880   29.4300   37.0250 N   0  0  0  0  0  0  0  0  0  0  0  0
   37.2250   29.7040   37.0300 C   0  0  0  0  0  0  0  0  0  0  0  0
   37.7930   29.6550   38.4170 C   0  0  1  0  0  0  0  0  0  0  0  0
   38.0380   30.9940   38.9880 C   0  0  0  0  0  0  0  0  0  0  0  0
   37.0670   31.9490   39.2880 C   0  0  0  0  0  0  0  0  0  0  0  0
   37.3900   33.1770   39.8200 C   0  0  0  0  0  0  0  0  0  0  0  0
   38.6800   33.4690   40.0580 N   0  0  0  0  0  0  0  0  0  0  0  0
   39.6480   32.5710   39.7800 C   0  0  0  0  0  0  0  0  0  0  0  0
   39.2890   31.4180   39.2760 N   0  0  0  0  0  0  0  0  0  0  0  0
   40.9890   32.9520   40.0640 N   0  0  0  0  0  0  0  0  0  0  0  0
   41.2900   34.3170   40.3110 C   0  0  0  0  0  0  0  0  0  0  0  0
   40.4870   35.0470   41.0050 N   0  0  0  0  0  0  0  0  0  0  0  0
   42.4960   34.9020   39.7910 N   0  0  0  0  0  0  0  0  0  0  0  0
   39.6090   34.7070   41.4140 H   0  0  0  0  0  0  0  0  0  0  0  0
   38.9270   30.5754   42.9887 H   0  0  0  0  0  0  0  0  0  0  0  0
   37.9825   28.7926   44.4831 H   0  0  0  0  0  0  0  0  0  0  0  0
   36.5167   27.0218   43.4246 H   0  0  0  0  0  0  0  0  0  0  0  0
   35.9903   26.9791   39.2150 H   0  0  0  0  0  0  0  0  0  0  0  0
   34.8954   28.4002   39.3702 H   0  0  0  0  0  0  0  0  0  0  0  0
   36.4127   27.4416   36.9006 H   0  0  0  0  0  0  0  0  0  0  0  0
   34.6667   27.6501   37.0777 H   0  0  0  0  0  0  0  0  0  0  0  0
   35.3074   30.0335   37.7074 H   0  0  0  0  0  0  0  0  0  0  0  0
   37.7337   28.9516   36.4094 H   0  0  0  0  0  0  0  0  0  0  0  0
   37.3830   30.7164   36.6298 H   0  0  0  0  0  0  0  0  0  0  0  0
   38.7775   29.1707   38.3383 H   0  0  0  0  0  0  0  0  0  0  0  0
   36.0102   31.7138   39.0935 H   0  0  0  0  0  0  0  0  0  0  0  0
   36.6020   33.9100   40.0474 H   0  0  0  0  0  0  0  0  0  0  0  0
   41.7356   32.2429   40.0902 H   0  0  0  0  0  0  0  0  0  0  0  0
   42.7081   35.8932   39.9741 H   0  0  0  0  0  0  0  0  0  0  0  0
   43.1479   34.3299   39.2354 H   0  0  0  0  0  0  0  0  0  0  0  0
  1  2  2  0
  3  2  1  0
  4  3  2  0
  5  6  2  0
  5  4  1  0
  6  1  1  0
  7  5  1  0
  8  7  1  0
  9  8  1  0
 10 11  1  0
 10  9  1  0
 11 12  1  0
 12 13  1  0
 12  7  1  0
 13 18  1  0
 13 14  2  0
 14 15  1  0
 15 16  2  0
 17 16  1  0
 17 19  1  0
 18 17  2  0
 19 20  1  0
 20 21  2  0
 21 23  1  0
 22 20  1  0
  1 24  1  0
  2 25  1  0
  3 26  1  0
  8 27  1  0
  8 28  1  0
  9 29  1  0
  9 30  1  0
 10 31  1  0
 11 32  1  0
 11 33  1  0
 12 34  1  6
 14 35  1  0
 15 36  1  0
 19 37  1  0
 22 38  1  0
 22 39  1  0
M  ISO  8  24  14  25  14  26  14  27  13  28  13  29  13  30  13  31   5
M  ISO  5  32  13  33  13  34  13  35  14  36  14
M  END
>  <minimizedAffinity>  (1) 
-5.99522448

>  <minimizedRMSD>  (1) 
0.770652771

$$$$
