
     RDKit          3D

 38 41  0  0  1  0  0  0  0  0999 V2000
   38.0210   29.3920   43.0310 C   0  0  0  0  0  0  0  0  0  0  0  0
   37.4180   28.3700   43.7860 C   0  0  0  0  0  0  0  0  0  0  0  0
   36.7230   27.3880   43.0950 C   0  0  0  0  0  0  0  0  0  0  0  0
   36.6730   27.4800   41.7440 N   0  0  0  0  0  0  0  0  0  0  0  0
   37.2610   28.4730   41.0320 C   0  0  0  0  0  0  0  0  0  0  0  0
   37.9300   29.4200   41.7060 N   0  0  0  0  0  0  0  0  0  0  0  0
   37.1350   28.4590   39.6190 N   0  0  0  0  0  0  0  0  0  0  0  0
   36.1070   27.5940   39.0540 C   0  0  0  0  0  0  0  0  0  0  0  0
   36.1190   27.6480   37.5580 C   0  0  0  0  0  0  0  0  0  0  0  0
   36.2870   29.0250   37.1940 N   0  0  0  0  0  0  0  0  0  0  0  0
   37.6880   29.3710   37.4090 C   0  0  0  0  0  0  0  0  0  0  0  0
   38.0420   29.3050   38.8660 C   0  0  1  0  0  0  0  0  0  0  0  0
   38.2010   30.6340   39.4790 C   0  0  0  0  0  0  0  0  0  0  0  0
   37.1690   31.5780   39.6000 C   0  0  0  0  0  0  0  0  0  0  0  0
   37.3650   32.8120   40.1810 C   0  0  0  0  0  0  0  0  0  0  0  0
   38.5900   33.1300   40.6510 N   0  0  0  0  0  0  0  0  0  0  0  0
   39.5980   32.2420   40.5480 C   0  0  0  0  0  0  0  0  0  0  0  0
   39.3820   31.0710   39.9890 N   0  0  0  0  0  0  0  0  0  0  0  0
   40.8970   32.5540   41.0360 N   0  0  0  0  0  0  0  0  0  0  0  0
   41.5490   33.7220   40.8010 C   0  0  0  0  0  0  0  0  0  0  0  0
   42.7580   33.7270   41.3910 N   0  0  0  0  0  0  0  0  0  0  0  0
   42.8560   32.5330   42.0050 C   0  0  0  0  0  0  0  0  0  0  0  0
   41.7190   31.8350   41.7790 N   0  0  0  0  0  0  0  0  0  0  0  0
   38.5800   30.1853   43.5489 H   0  0  0  0  0  0  0  0  0  0  0  0
   37.4946   28.3500   44.8832 H   0  0  0  0  0  0  0  0  0  0  0  0
   36.2286   26.5616   43.6266 H   0  0  0  0  0  0  0  0  0  0  0  0
   36.2910   26.5589   39.3775 H   0  0  0  0  0  0  0  0  0  0  0  0
   35.1251   27.9413   39.4081 H   0  0  0  0  0  0  0  0  0  0  0  0
   36.9525   27.0479   37.1642 H   0  0  0  0  0  0  0  0  0  0  0  0
   35.1861   27.2407   37.1410 H   0  0  0  0  0  0  0  0  0  0  0  0
   35.6845   29.6194   37.7810 H   0  0  0  0  0  0  0  0  0  0  0  0
   38.3221   28.6651   36.8526 H   0  0  0  0  0  0  0  0  0  0  0  0
   37.8528   30.3994   37.0551 H   0  0  0  0  0  0  0  0  0  0  0  0
   39.0316   28.8270   38.9126 H   0  0  0  0  0  0  0  0  0  0  0  0
   36.1693   31.3238   39.2178 H   0  0  0  0  0  0  0  0  0  0  0  0
   36.5343   33.5286   40.2608 H   0  0  0  0  0  0  0  0  0  0  0  0
   41.1424   34.5537   40.2069 H   0  0  0  0  0  0  0  0  0  0  0  0
   43.7173   32.1829   42.5928 H   0  0  0  0  0  0  0  0  0  0  0  0
  1  2  2  0
  3  2  1  0
  4  3  2  0
  5  6  2  0
  5  4  1  0
  6  1  1  0
  7  5  1  0
  8  7  1  0
  9  8  1  0
 10 11  1  0
 10  9  1  0
 11 12  1  0
 12 13  1  0
 12  7  1  0
 13 14  2  0
 13 18  1  0
 14 15  1  0
 15 16  2  0
 17 16  1  0
 17 19  1  0
 18 17  2  0
 19 23  1  0
 20 19  1  0
 20 21  2  0
 21 22  1  0
 23 22  2  0
  1 24  1  0
  2 25  1  0
  3 26  1  0
  8 27  1  0
  8 28  1  0
  9 29  1  0
  9 30  1  0
 10 31  1  0
 11 32  1  0
 11 33  1  0
 12 34  1  6
 14 35  1  0
 15 36  1  0
 20 37  1  0
 22 38  1  0
M  ISO  8  24  14  25  14  26  14  27  13  28  13  29  13  30  13  31   5
M  ISO  7  32  13  33  13  34  13  35  14  36  14  37  14  38  14
M  END
>  <minimizedAffinity>  (1) 
-5.7273078

>  <minimizedRMSD>  (1) 
0.498557746

$$$$
