
     RDKit          3D

 44 47  0  0  1  0  0  0  0  0999 V2000
   38.2040   29.5430   42.7740 C   0  0  0  0  0  0  0  0  0  0  0  0
   37.5910   28.5880   43.5930 C   0  0  0  0  0  0  0  0  0  0  0  0
   36.7050   27.7010   42.9920 C   0  0  0  0  0  0  0  0  0  0  0  0
   36.4990   27.8260   41.6560 N   0  0  0  0  0  0  0  0  0  0  0  0
   37.1050   28.7600   40.8850 C   0  0  0  0  0  0  0  0  0  0  0  0
   37.9570   29.6140   41.4660 N   0  0  0  0  0  0  0  0  0  0  0  0
   36.8010   28.7890   39.4850 N   0  0  0  0  0  0  0  0  0  0  0  0
   35.5950   28.0640   39.0710 C   0  0  0  0  0  0  0  0  0  0  0  0
   35.4350   28.1470   37.5720 C   0  0  0  0  0  0  0  0  0  0  0  0
   35.6940   29.5260   37.2300 N   0  0  0  0  0  0  0  0  0  0  0  0
   37.1550   29.6620   37.2410 C   0  0  0  0  0  0  0  0  0  0  0  0
   37.7120   29.5260   38.6280 C   0  0  1  0  0  0  0  0  0  0  0  0
   38.0850   30.8270   39.2240 C   0  0  0  0  0  0  0  0  0  0  0  0
   37.1810   31.8310   39.6140 C   0  0  0  0  0  0  0  0  0  0  0  0
   37.6090   33.0190   40.1620 C   0  0  0  0  0  0  0  0  0  0  0  0
   38.9410   33.2370   40.3360 N   0  0  0  0  0  0  0  0  0  0  0  0
   39.8030   32.2920   39.9700 C   0  0  0  0  0  0  0  0  0  0  0  0
   39.3760   31.1640   39.4480 N   0  0  0  0  0  0  0  0  0  0  0  0
   41.1950   32.5260   40.1540 N   0  0  0  0  0  0  0  0  0  0  0  0
   41.9780   32.5020   41.3760 C   0  0  0  0  0  0  0  0  0  0  0  0
   42.6250   33.8690   41.2960 C   0  0  0  0  0  0  0  0  0  0  0  0
   43.1400   33.8540   39.8720 C   0  0  0  0  0  0  0  0  0  0  0  0
   42.2340   32.8520   39.1970 C   0  0  0  0  0  0  0  0  0  0  0  0
   38.9108   30.2563   43.2230 H   0  0  0  0  0  0  0  0  0  0  0  0
   37.8022   28.5409   44.6715 H   0  0  0  0  0  0  0  0  0  0  0  0
   36.1895   26.9258   43.5779 H   0  0  0  0  0  0  0  0  0  0  0  0
   35.6826   27.0092   39.3707 H   0  0  0  0  0  0  0  0  0  0  0  0
   34.7166   28.5161   39.5547 H   0  0  0  0  0  0  0  0  0  0  0  0
   36.1570   27.4850   37.0715 H   0  0  0  0  0  0  0  0  0  0  0  0
   34.4318   27.8294   37.2513 H   0  0  0  0  0  0  0  0  0  0  0  0
   35.2681   30.1558   37.9249 H   0  0  0  0  0  0  0  0  0  0  0  0
   37.5912   28.8794   36.6028 H   0  0  0  0  0  0  0  0  0  0  0  0
   37.4102   30.6635   36.8644 H   0  0  0  0  0  0  0  0  0  0  0  0
   38.6441   28.9482   38.5416 H   0  0  0  0  0  0  0  0  0  0  0  0
   36.1026   31.6625   39.4775 H   0  0  0  0  0  0  0  0  0  0  0  0
   36.8791   33.7871   40.4573 H   0  0  0  0  0  0  0  0  0  0  0  0
   41.3415   32.4025   42.2676 H   0  0  0  0  0  0  0  0  0  0  0  0
   42.6803   31.6597   41.4616 H   0  0  0  0  0  0  0  0  0  0  0  0
   41.8920   34.6740   41.4533 H   0  0  0  0  0  0  0  0  0  0  0  0
   43.3963   34.0540   42.0582 H   0  0  0  0  0  0  0  0  0  0  0  0
   43.0481   34.8468   39.4073 H   0  0  0  0  0  0  0  0  0  0  0  0
   44.2064   33.5947   39.7981 H   0  0  0  0  0  0  0  0  0  0  0  0
   41.7915   33.2903   38.2903 H   0  0  0  0  0  0  0  0  0  0  0  0
   42.7911   31.9534   38.8934 H   0  0  0  0  0  0  0  0  0  0  0  0
  1  2  2  0
  3  2  1  0
  4  3  2  0
  5  6  2  0
  5  4  1  0
  6  1  1  0
  7  5  1  0
  8  7  1  0
  9  8  1  0
 10 11  1  0
 10  9  1  0
 11 12  1  0
 12 13  1  0
 12  7  1  0
 13 18  1  0
 13 14  2  0
 14 15  1  0
 15 16  2  0
 17 19  1  0
 17 16  1  0
 18 17  2  0
 19 20  1  0
 21 20  1  0
 22 21  1  0
 23 22  1  0
 23 19  1  0
  1 24  1  0
  2 25  1  0
  3 26  1  0
  8 27  1  0
  8 28  1  0
  9 29  1  0
  9 30  1  0
 10 31  1  0
 11 32  1  0
 11 33  1  0
 12 34  1  6
 14 35  1  0
 15 36  1  0
 20 37  1  0
 20 38  1  0
 21 39  1  0
 21 40  1  0
 22 41  1  0
 22 42  1  0
 23 43  1  0
 23 44  1  0
M  ISO  8  24  14  25  14  26  14  27  13  28  13  29  13  30  13  31   5
M  ISO  8  32  13  33  13  34  13  35  14  36  14  37  13  38  13  39  13
M  ISO  5  40  13  41  13  42  13  43  13  44  13
M  END
>  <minimizedAffinity>  (1) 
-5.65509272

>  <minimizedRMSD>  (1) 
0.533630908

$$$$
