
     RDKit          3D

 39 42  0  0  1  0  0  0  0  0999 V2000
   38.0050   29.3190   43.0330 C   0  0  0  0  0  0  0  0  0  0  0  0
   37.3900   28.3180   43.7920 C   0  0  0  0  0  0  0  0  0  0  0  0
   36.6620   27.3540   43.1080 C   0  0  0  0  0  0  0  0  0  0  0  0
   36.5970   27.4480   41.7590 N   0  0  0  0  0  0  0  0  0  0  0  0
   37.2010   28.4290   41.0400 C   0  0  0  0  0  0  0  0  0  0  0  0
   37.9030   29.3580   41.7050 N   0  0  0  0  0  0  0  0  0  0  0  0
   37.0630   28.4270   39.6240 N   0  0  0  0  0  0  0  0  0  0  0  0
   36.0010   27.5930   39.0730 C   0  0  0  0  0  0  0  0  0  0  0  0
   35.9860   27.6500   37.5700 C   0  0  0  0  0  0  0  0  0  0  0  0
   36.1850   29.0230   37.2260 N   0  0  0  0  0  0  0  0  0  0  0  0
   37.5970   29.3260   37.4180 C   0  0  0  0  0  0  0  0  0  0  0  0
   37.9810   29.2500   38.8630 C   0  0  1  0  0  0  0  0  0  0  0  0
   38.1630   30.5840   39.4810 C   0  0  0  0  0  0  0  0  0  0  0  0
   37.1650   31.5720   39.5590 C   0  0  0  0  0  0  0  0  0  0  0  0
   37.4220   32.7910   40.1560 C   0  0  0  0  0  0  0  0  0  0  0  0
   38.6370   33.0490   40.6710 N   0  0  0  0  0  0  0  0  0  0  0  0
   39.5960   32.1230   40.6060 C   0  0  0  0  0  0  0  0  0  0  0  0
   39.3360   30.9670   40.0360 N   0  0  0  0  0  0  0  0  0  0  0  0
   40.9040   32.4300   41.1740 C   0  0  0  0  0  0  0  0  0  0  0  0
   41.9780   33.2230   40.9030 C   0  0  0  0  0  0  0  0  0  0  0  0
   42.9120   32.9960   41.9170 C   0  0  0  0  0  0  0  0  0  0  0  0
   42.3750   32.0720   42.7670 N   0  0  0  0  0  0  0  0  0  0  0  0
   41.1710   31.7370   42.3150 N   0  0  0  0  0  0  0  0  0  0  0  0
   38.5895   30.0962   43.5470 H   0  0  0  0  0  0  0  0  0  0  0  0
   37.4797   28.2955   44.8881 H   0  0  0  0  0  0  0  0  0  0  0  0
   36.1540   26.5395   43.6451 H   0  0  0  0  0  0  0  0  0  0  0  0
   36.1615   26.5521   39.3906 H   0  0  0  0  0  0  0  0  0  0  0  0
   35.0362   27.9687   39.4445 H   0  0  0  0  0  0  0  0  0  0  0  0
   36.7955   27.0310   37.1559 H   0  0  0  0  0  0  0  0  0  0  0  0
   35.0399   27.2653   37.1616 H   0  0  0  0  0  0  0  0  0  0  0  0
   35.6111   29.6241   37.8344 H   0  0  0  0  0  0  0  0  0  0  0  0
   38.1989   28.6019   36.8493 H   0  0  0  0  0  0  0  0  0  0  0  0
   37.7821   30.3510   37.0643 H   0  0  0  0  0  0  0  0  0  0  0  0
   38.9647   28.7587   38.8922 H   0  0  0  0  0  0  0  0  0  0  0  0
   36.1680   31.3717   39.1397 H   0  0  0  0  0  0  0  0  0  0  0  0
   36.6304   33.5528   40.2102 H   0  0  0  0  0  0  0  0  0  0  0  0
   42.0885   33.9094   40.0506 H   0  0  0  0  0  0  0  0  0  0  0  0
   43.8982   33.4736   42.0129 H   0  0  0  0  0  0  0  0  0  0  0  0
   42.8262   31.6983   43.6142 H   0  0  0  0  0  0  0  0  0  0  0  0
  1  2  2  0
  3  2  1  0
  4  3  2  0
  5  6  2  0
  5  4  1  0
  6  1  1  0
  7  5  1  0
  8  7  1  0
  9  8  1  0
 10 11  1  0
 10  9  1  0
 11 12  1  0
 12 13  1  0
 12  7  1  0
 13 14  2  0
 13 18  1  0
 14 15  1  0
 15 16  2  0
 17 16  1  0
 17 19  1  0
 18 17  2  0
 19 23  2  0
 20 19  1  0
 20 21  2  0
 21 22  1  0
 23 22  1  0
  1 24  1  0
  2 25  1  0
  3 26  1  0
  8 27  1  0
  8 28  1  0
  9 29  1  0
  9 30  1  0
 10 31  1  0
 11 32  1  0
 11 33  1  0
 12 34  1  6
 14 35  1  0
 15 36  1  0
 20 37  1  0
 21 38  1  0
 22 39  1  0
M  ISO  8  24  14  25  14  26  14  27  13  28  13  29  13  30  13  31   5
M  ISO  8  32  13  33  13  34  13  35  14  36  14  37  14  38  14  39   9
M  END
>  <minimizedAffinity>  (1) 
-5.58095074

>  <minimizedRMSD>  (1) 
0.483043134

$$$$
