
     RDKit          3D

 39 42  0  0  1  0  0  0  0  0999 V2000
   38.0400   29.3810   43.0160 C   0  0  0  0  0  0  0  0  0  0  0  0
   37.4260   28.3580   43.7710 C   0  0  0  0  0  0  0  0  0  0  0  0
   36.7170   27.3830   43.0790 C   0  0  0  0  0  0  0  0  0  0  0  0
   36.6670   27.4850   41.7350 N   0  0  0  0  0  0  0  0  0  0  0  0
   37.2600   28.4720   41.0240 C   0  0  0  0  0  0  0  0  0  0  0  0
   37.9370   29.4020   41.6910 N   0  0  0  0  0  0  0  0  0  0  0  0
   37.1300   28.4670   39.6040 N   0  0  0  0  0  0  0  0  0  0  0  0
   36.0760   27.6180   39.0420 C   0  0  0  0  0  0  0  0  0  0  0  0
   36.0700   27.6730   37.5420 C   0  0  0  0  0  0  0  0  0  0  0  0
   36.2630   29.0560   37.1930 N   0  0  0  0  0  0  0  0  0  0  0  0
   37.6610   29.3730   37.3960 C   0  0  0  0  0  0  0  0  0  0  0  0
   38.0460   29.2960   38.8430 C   0  0  1  0  0  0  0  0  0  0  0  0
   38.2120   30.6300   39.4610 C   0  0  0  0  0  0  0  0  0  0  0  0
   37.1860   31.5630   39.6430 C   0  0  0  0  0  0  0  0  0  0  0  0
   37.4220   32.7900   40.2300 C   0  0  0  0  0  0  0  0  0  0  0  0
   38.6620   33.1090   40.6380 N   0  0  0  0  0  0  0  0  0  0  0  0
   39.6680   32.2280   40.4730 C   0  0  0  0  0  0  0  0  0  0  0  0
   39.4170   31.0660   39.9120 N   0  0  0  0  0  0  0  0  0  0  0  0
   41.0250   32.5640   40.9150 C   0  0  0  0  0  0  0  0  0  0  0  0
   41.9200   33.3620   40.2020 C   0  0  0  0  0  0  0  0  0  0  0  0
   43.0600   33.4390   40.9330 N   0  0  0  0  0  0  0  0  0  0  0  0
   42.8740   32.7130   42.0560 C   0  0  0  0  0  0  0  0  0  0  0  0
   41.6240   32.1720   42.0520 N   0  0  0  0  0  0  0  0  0  0  0  0
   38.6098   30.1692   43.5299 H   0  0  0  0  0  0  0  0  0  0  0  0
   37.5059   28.3334   44.8678 H   0  0  0  0  0  0  0  0  0  0  0  0
   36.2155   26.5590   43.6077 H   0  0  0  0  0  0  0  0  0  0  0  0
   36.2450   26.5790   39.3614 H   0  0  0  0  0  0  0  0  0  0  0  0
   35.1050   27.9851   39.4058 H   0  0  0  0  0  0  0  0  0  0  0  0
   36.8863   27.0587   37.1341 H   0  0  0  0  0  0  0  0  0  0  0  0
   35.1285   27.2817   37.1291 H   0  0  0  0  0  0  0  0  0  0  0  0
   35.6774   29.6539   37.7935 H   0  0  0  0  0  0  0  0  0  0  0  0
   38.2741   28.6593   36.8262 H   0  0  0  0  0  0  0  0  0  0  0  0
   37.8309   30.4039   37.0518 H   0  0  0  0  0  0  0  0  0  0  0  0
   39.0327   28.8106   38.8722 H   0  0  0  0  0  0  0  0  0  0  0  0
   36.1675   31.3133   39.3107 H   0  0  0  0  0  0  0  0  0  0  0  0
   36.5968   33.5050   40.3635 H   0  0  0  0  0  0  0  0  0  0  0  0
   41.7356   33.8397   39.2285 H   0  0  0  0  0  0  0  0  0  0  0  0
   43.6194   32.5787   42.8537 H   0  0  0  0  0  0  0  0  0  0  0  0
   41.2144   31.5741   42.7839 H   0  0  0  0  0  0  0  0  0  0  0  0
  1  2  2  0
  3  2  1  0
  4  3  2  0
  5  6  2  0
  5  4  1  0
  6  1  1  0
  7  5  1  0
  8  7  1  0
  9  8  1  0
 10 11  1  0
 10  9  1  0
 11 12  1  0
 12 13  1  0
 12  7  1  0
 13 14  2  0
 13 18  1  0
 14 15  1  0
 15 16  2  0
 17 16  1  0
 17 19  1  0
 18 17  2  0
 19 23  1  0
 20 19  2  0
 20 21  1  0
 21 22  2  0
 23 22  1  0
  1 24  1  0
  2 25  1  0
  3 26  1  0
  8 27  1  0
  8 28  1  0
  9 29  1  0
  9 30  1  0
 10 31  1  0
 11 32  1  0
 11 33  1  0
 12 34  1  6
 14 35  1  0
 15 36  1  0
 20 37  1  0
 22 38  1  0
 23 39  1  0
M  ISO  8  24  14  25  14  26  14  27  13  28  13  29  13  30  13  31   5
M  ISO  8  32  13  33  13  34  13  35  14  36  14  37  14  38  14  39   9
M  END
>  <minimizedAffinity>  (1) 
-5.57745123

>  <minimizedRMSD>  (1) 
0.439487159

$$$$
