
     RDKit          3D

 41 43  0  0  1  0  0  0  0  0999 V2000
   38.1670   29.3810   42.9760 C   0  0  0  0  0  0  0  0  0  0  0  0
   37.5160   28.4050   43.7410 C   0  0  0  0  0  0  0  0  0  0  0  0
   36.6460   27.5430   43.0790 C   0  0  0  0  0  0  0  0  0  0  0  0
   36.4920   27.7110   41.7460 N   0  0  0  0  0  0  0  0  0  0  0  0
   37.1320   28.6630   41.0270 C   0  0  0  0  0  0  0  0  0  0  0  0
   37.9660   29.4870   41.6650 N   0  0  0  0  0  0  0  0  0  0  0  0
   36.8820   28.7340   39.6240 N   0  0  0  0  0  0  0  0  0  0  0  0
   35.6970   28.0370   39.1300 C   0  0  0  0  0  0  0  0  0  0  0  0
   35.5900   28.1590   37.6370 C   0  0  0  0  0  0  0  0  0  0  0  0
   35.8760   29.5500   37.3340 N   0  0  0  0  0  0  0  0  0  0  0  0
   37.3390   29.6680   37.4090 C   0  0  0  0  0  0  0  0  0  0  0  0
   37.8230   29.4890   38.8180 C   0  0  1  0  0  0  0  0  0  0  0  0
   38.1970   30.7610   39.4640 C   0  0  0  0  0  0  0  0  0  0  0  0
   37.3200   31.8130   39.7510 C   0  0  0  0  0  0  0  0  0  0  0  0
   37.7350   32.9770   40.3560 C   0  0  0  0  0  0  0  0  0  0  0  0
   39.0320   33.1270   40.6910 N   0  0  0  0  0  0  0  0  0  0  0  0
   39.9000   32.1310   40.4270 C   0  0  0  0  0  0  0  0  0  0  0  0
   39.4660   31.0310   39.8460 N   0  0  0  0  0  0  0  0  0  0  0  0
   41.3530   32.2670   40.7870 C   0  0  0  0  0  0  0  0  0  0  0  0
   41.6120   33.7640   40.7770 C   0  0  0  0  0  0  0  0  0  0  0  0
   41.6660   31.6270   42.0960 C   0  0  0  0  0  0  0  0  0  0  0  0
   38.8610   30.0764   43.4708 H   0  0  0  0  0  0  0  0  0  0  0  0
   37.6858   28.3226   44.8247 H   0  0  0  0  0  0  0  0  0  0  0  0
   36.1036   26.7540   43.6205 H   0  0  0  0  0  0  0  0  0  0  0  0
   35.7653   26.9731   39.4009 H   0  0  0  0  0  0  0  0  0  0  0  0
   34.8050   28.4917   39.5857 H   0  0  0  0  0  0  0  0  0  0  0  0
   36.3217   27.5012   37.1452 H   0  0  0  0  0  0  0  0  0  0  0  0
   34.5943   27.8617   37.2761 H   0  0  0  0  0  0  0  0  0  0  0  0
   35.4279   30.1695   38.0241 H   0  0  0  0  0  0  0  0  0  0  0  0
   37.7950   28.8962   36.7715 H   0  0  0  0  0  0  0  0  0  0  0  0
   37.6270   30.6724   37.0652 H   0  0  0  0  0  0  0  0  0  0  0  0
   38.7463   28.8953   38.7478 H   0  0  0  0  0  0  0  0  0  0  0  0
   36.2587   31.7053   39.4828 H   0  0  0  0  0  0  0  0  0  0  0  0
   37.0129   33.7801   40.5650 H   0  0  0  0  0  0  0  0  0  0  0  0
   42.0111   31.7445   40.0772 H   0  0  0  0  0  0  0  0  0  0  0  0
   41.6757   34.1320   41.8117 H   0  0  0  0  0  0  0  0  0  0  0  0
   42.5589   33.9688   40.2561 H   0  0  0  0  0  0  0  0  0  0  0  0
   40.7889   34.2750   40.2561 H   0  0  0  0  0  0  0  0  0  0  0  0
   41.3428   32.2878   42.9138 H   0  0  0  0  0  0  0  0  0  0  0  0
   41.1363   30.6658   42.1702 H   0  0  0  0  0  0  0  0  0  0  0  0
   42.7499   31.4550   42.1702 H   0  0  0  0  0  0  0  0  0  0  0  0
  1  2  2  0
  3  2  1  0
  4  3  2  0
  5  6  2  0
  5  4  1  0
  6  1  1  0
  7  5  1  0
  8  7  1  0
  9  8  1  0
 10 11  1  0
 10  9  1  0
 11 12  1  0
 12 13  1  0
 12  7  1  0
 13 14  2  0
 13 18  1  0
 14 15  1  0
 15 16  2  0
 17 16  1  0
 17 19  1  0
 18 17  2  0
 19 21  1  0
 20 19  1  0
  1 22  1  0
  2 23  1  0
  3 24  1  0
  8 25  1  0
  8 26  1  0
  9 27  1  0
  9 28  1  0
 10 29  1  0
 11 30  1  0
 11 31  1  0
 12 32  1  6
 14 33  1  0
 15 34  1  0
 19 35  1  0
 20 36  1  0
 20 37  1  0
 20 38  1  0
 21 39  1  0
 21 40  1  0
 21 41  1  0
M  ISO  8  22  14  23  14  24  14  25  13  26  13  27  13  28  13  29   5
M  ISO  8  30  13  31  13  32  13  33  14  34  14  35   8  36   8  37   8
M  ISO  4  38   8  39   8  40   8  41   8
M  END
>  <minimizedAffinity>  (1) 
-5.04983044

>  <minimizedRMSD>  (1) 
0.297898382

$$$$
