
     RDKit          3D

 51 55  0  0  1  0  0  0  0  0999 V2000
   37.8980   30.1350   39.5610 C   0  0  1  0  0  0  0  0  0  0  0  0
   37.3110   30.1500   38.1270 C   0  0  0  0  0  0  0  0  0  0  0  0
   35.8760   29.6940   38.4150 C   0  0  0  0  0  0  0  0  0  0  0  0
   35.9220   28.9590   39.7270 C   0  0  0  0  0  0  0  0  0  0  0  0
   37.4010   28.8180   40.0540 C   0  0  2  0  0  0  0  0  0  0  0  0
   40.6560   34.8350   39.7220 C   0  0  0  0  0  0  0  0  0  0  0  0
   39.3930   35.3550   40.0870 C   0  0  0  0  0  0  0  0  0  0  0  0
   38.3680   34.4480   40.3080 C   0  0  0  0  0  0  0  0  0  0  0  0
   38.6440   33.1260   40.1590 N   0  0  0  0  0  0  0  0  0  0  0  0
   39.8270   32.6440   39.8170 C   0  0  0  0  0  0  0  0  0  0  0  0
   40.8390   33.5170   39.5980 N   0  0  0  0  0  0  0  0  0  0  0  0
   40.1470   31.2750   39.6390 N   0  0  0  0  0  0  0  0  0  0  0  0
   41.4370   30.9660   39.5660 N   0  0  0  0  0  0  0  0  0  0  0  0
   41.5460   29.6100   39.3750 C   0  0  0  0  0  0  0  0  0  0  0  0
   40.2400   29.1370   39.3400 C   0  0  0  0  0  0  0  0  0  0  0  0
   39.3650   30.2110   39.5100 C   0  0  0  0  0  0  0  0  0  0  0  0
   37.5110   28.6330   41.4740 N   0  0  0  0  0  0  0  0  0  0  0  0
   37.4950   29.5110   42.4440 N   0  0  0  0  0  0  0  0  0  0  0  0
   37.6210   28.9480   43.6540 C   0  0  0  0  0  0  0  0  0  0  0  0
   37.7240   27.5830   43.3940 C   0  0  0  0  0  0  0  0  0  0  0  0
   37.6520   27.4010   42.0210 C   0  0  0  0  0  0  0  0  0  0  0  0
   37.7530   26.0510   41.5930 N   0  0  0  0  0  0  0  0  0  0  0  0
   38.7820   25.3240   42.2780 C   0  0  0  0  0  0  0  0  0  0  0  0
   39.0220   24.0650   41.4270 C   0  0  0  0  0  0  0  0  0  0  0  0
   37.8360   23.2800   41.3100 N   0  0  0  0  0  0  0  0  0  0  0  0
   36.6260   24.0160   41.0680 C   0  0  0  0  0  0  0  0  0  0  0  0
   36.9540   25.4030   40.5650 C   0  0  0  0  0  0  0  0  0  0  0  0
   37.6050   30.9766   40.2059 H   0  0  0  0  0  0  0  0  0  0  0  0
   37.8366   29.4465   37.4645 H   0  0  0  0  0  0  0  0  0  0  0  0
   37.3920   31.1153   37.6059 H   0  0  0  0  0  0  0  0  0  0  0  0
   35.2074   30.5643   38.4892 H   0  0  0  0  0  0  0  0  0  0  0  0
   35.4915   29.0509   37.6096 H   0  0  0  0  0  0  0  0  0  0  0  0
   35.4071   29.5350   40.5100 H   0  0  0  0  0  0  0  0  0  0  0  0
   35.4190   27.9824   39.6688 H   0  0  0  0  0  0  0  0  0  0  0  0
   37.9588   27.9780   39.6144 H   0  0  0  0  0  0  0  0  0  0  0  0
   41.4957   35.5215   39.5384 H   0  0  0  0  0  0  0  0  0  0  0  0
   39.2298   36.4378   40.1916 H   0  0  0  0  0  0  0  0  0  0  0  0
   37.3621   34.7882   40.5952 H   0  0  0  0  0  0  0  0  0  0  0  0
   42.4707   29.0233   39.2717 H   0  0  0  0  0  0  0  0  0  0  0  0
   39.9438   28.0868   39.2009 H   0  0  0  0  0  0  0  0  0  0  0  0
   37.6390   29.4506   44.6323 H   0  0  0  0  0  0  0  0  0  0  0  0
   37.8418   26.7889   44.1460 H   0  0  0  0  0  0  0  0  0  0  0  0
   39.7005   25.9256   42.3441 H   0  0  0  0  0  0  0  0  0  0  0  0
   38.4915   25.0738   43.3090 H   0  0  0  0  0  0  0  0  0  0  0  0
   39.3497   24.3697   40.4221 H   0  0  0  0  0  0  0  0  0  0  0  0
   39.7925   23.4553   41.9216 H   0  0  0  0  0  0  0  0  0  0  0  0
   37.9677   22.6212   40.5293 H   0  0  0  0  0  0  0  0  0  0  0  0
   36.0238   23.4883   40.3137 H   0  0  0  0  0  0  0  0  0  0  0  0
   36.0603   24.0981   42.0078 H   0  0  0  0  0  0  0  0  0  0  0  0
   37.5251   25.3393   39.6270 H   0  0  0  0  0  0  0  0  0  0  0  0
   36.0359   25.9744   40.3634 H   0  0  0  0  0  0  0  0  0  0  0  0
  1  5  1  0
  2  3  1  0
  2  1  1  0
  3  4  1  0
  4  5  1  0
  5 17  1  0
  6  7  2  0
  7  8  1  0
  9  8  2  0
 10  9  1  0
 11  6  1  0
 11 10  2  0
 12 10  1  0
 13 12  1  0
 14 13  2  0
 15 14  1  0
 15 16  2  0
 16  1  1  0
 16 12  1  0
 17 21  1  0
 17 18  1  0
 18 19  2  0
 20 19  1  0
 21 20  2  0
 22 21  1  0
 22 23  1  0
 24 23  1  0
 25 24  1  0
 26 25  1  0
 27 26  1  0
 27 22  1  0
  1 28  1  1
  2 29  1  0
  2 30  1  0
  3 31  1  0
  3 32  1  0
  4 33  1  0
  4 34  1  0
  5 35  1  6
  6 36  1  0
  7 37  1  0
  8 38  1  0
 14 39  1  0
 15 40  1  0
 19 41  1  0
 20 42  1  0
 23 43  1  0
 23 44  1  0
 24 45  1  0
 24 46  1  0
 25 47  1  0
 26 48  1  0
 26 49  1  0
 27 50  1  0
 27 51  1  0
M  ISO  8  28  13  29  13  30  13  31  13  32  13  33  13  34  13  35  13
M  ISO  8  36  14  37  14  38  14  39  14  40  14  41  14  42  14  43  13
M  ISO  8  44  13  45  13  46  13  47   5  48  13  49  13  50  13  51  13
M  END
>  <minimizedAffinity>  (1) 
-6.47052479

>  <minimizedRMSD>  (1) 
1.13731503

$$$$
