
     RDKit          3D

 38 40  0  0  1  0  0  0  0  0999 V2000
   38.1170   29.3300   43.1170 C   0  0  0  0  0  0  0  0  0  0  0  0
   37.4370   28.3460   43.8530 C   0  0  0  0  0  0  0  0  0  0  0  0
   36.5890   27.4950   43.1500 C   0  0  0  0  0  0  0  0  0  0  0  0
   36.4780   27.6720   41.8140 N   0  0  0  0  0  0  0  0  0  0  0  0
   37.1470   28.6320   41.1170 C   0  0  0  0  0  0  0  0  0  0  0  0
   37.9620   29.4500   41.7960 N   0  0  0  0  0  0  0  0  0  0  0  0
   36.9480   28.7200   39.7130 N   0  0  0  0  0  0  0  0  0  0  0  0
   35.7810   28.0310   39.1730 C   0  0  0  0  0  0  0  0  0  0  0  0
   35.6980   28.1870   37.6800 C   0  0  0  0  0  0  0  0  0  0  0  0
   36.0100   29.5760   37.4050 N   0  0  0  0  0  0  0  0  0  0  0  0
   37.4620   29.6860   37.5330 C   0  0  0  0  0  0  0  0  0  0  0  0
   37.9150   29.4820   38.9470 C   0  0  1  0  0  0  0  0  0  0  0  0
   38.2650   30.7480   39.6220 C   0  0  0  0  0  0  0  0  0  0  0  0
   37.4030   31.8500   39.7870 C   0  0  0  0  0  0  0  0  0  0  0  0
   37.8010   33.0010   40.4290 C   0  0  0  0  0  0  0  0  0  0  0  0
   39.0560   33.0800   40.9160 N   0  0  0  0  0  0  0  0  0  0  0  0
   39.9010   32.0540   40.7770 C   0  0  0  0  0  0  0  0  0  0  0  0
   39.4930   30.9620   40.1580 N   0  0  0  0  0  0  0  0  0  0  0  0
   41.2930   32.0700   41.2870 C   0  0  0  0  0  0  0  0  0  0  0  0
   41.3730   31.2300   42.5320 C   0  0  0  0  0  0  0  0  0  0  0  0
   38.7945   30.0194   43.6420 H   0  0  0  0  0  0  0  0  0  0  0  0
   37.5692   28.2516   44.9409 H   0  0  0  0  0  0  0  0  0  0  0  0
   36.0264   26.7027   43.6655 H   0  0  0  0  0  0  0  0  0  0  0  0
   35.8511   26.9610   39.4183 H   0  0  0  0  0  0  0  0  0  0  0  0
   34.8785   28.4738   39.6195 H   0  0  0  0  0  0  0  0  0  0  0  0
   36.4259   27.5267   37.1857 H   0  0  0  0  0  0  0  0  0  0  0  0
   34.7015   27.9155   37.3015 H   0  0  0  0  0  0  0  0  0  0  0  0
   35.5415   30.1912   38.0854 H   0  0  0  0  0  0  0  0  0  0  0  0
   37.9340   28.9244   36.8949 H   0  0  0  0  0  0  0  0  0  0  0  0
   37.7559   30.6999   37.2236 H   0  0  0  0  0  0  0  0  0  0  0  0
   38.8408   28.8904   38.8940 H   0  0  0  0  0  0  0  0  0  0  0  0
   36.3789   31.7888   39.3901 H   0  0  0  0  0  0  0  0  0  0  0  0
   37.1046   33.8448   40.5432 H   0  0  0  0  0  0  0  0  0  0  0  0
   41.9697   31.6603   40.5226 H   0  0  0  0  0  0  0  0  0  0  0  0
   41.5899   33.1035   41.5187 H   0  0  0  0  0  0  0  0  0  0  0  0
   41.3111   31.8798   43.4174 H   0  0  0  0  0  0  0  0  0  0  0  0
   40.5391   30.5127   42.5446 H   0  0  0  0  0  0  0  0  0  0  0  0
   42.3273   30.6831   42.5446 H   0  0  0  0  0  0  0  0  0  0  0  0
  1  2  2  0
  3  2  1  0
  4  3  2  0
  5  6  2  0
  5  4  1  0
  6  1  1  0
  7  5  1  0
  8  7  1  0
  9  8  1  0
 10 11  1  0
 10  9  1  0
 11 12  1  0
 12 13  1  0
 12  7  1  0
 13 14  2  0
 13 18  1  0
 14 15  1  0
 15 16  2  0
 17 16  1  0
 17 19  1  0
 18 17  2  0
 19 20  1  0
  1 21  1  0
  2 22  1  0
  3 23  1  0
  8 24  1  0
  8 25  1  0
  9 26  1  0
  9 27  1  0
 10 28  1  0
 11 29  1  0
 11 30  1  0
 12 31  1  6
 14 32  1  0
 15 33  1  0
 19 34  1  0
 19 35  1  0
 20 36  1  0
 20 37  1  0
 20 38  1  0
M  ISO  8  21  14  22  14  23  14  24  13  25  13  26  13  27  13  28   5
M  ISO  8  29  13  30  13  31  13  32  14  33  14  34   8  35   8  36   8
M  ISO  2  37   8  38   8
M  END
>  <minimizedAffinity>  (1) 
-4.91959906

>  <minimizedRMSD>  (1) 
0.193518877

$$$$
