
     RDKit          3D

 48 51  0  0  1  0  0  0  0  0999 V2000
   38.4030   29.7430   42.5580 C   0  0  0  0  0  0  0  0  0  0  0  0
   37.8600   28.8180   43.4620 C   0  0  0  0  0  0  0  0  0  0  0  0
   36.9370   27.9180   42.9820 C   0  0  0  0  0  0  0  0  0  0  0  0
   36.6150   27.9840   41.6750 N   0  0  0  0  0  0  0  0  0  0  0  0
   37.1430   28.8800   40.8070 C   0  0  0  0  0  0  0  0  0  0  0  0
   38.0460   29.7610   41.2720 N   0  0  0  0  0  0  0  0  0  0  0  0
   36.7220   28.8510   39.4460 N   0  0  0  0  0  0  0  0  0  0  0  0
   35.5010   28.1010   39.1560 C   0  0  0  0  0  0  0  0  0  0  0  0
   35.1820   28.1440   37.6740 C   0  0  0  0  0  0  0  0  0  0  0  0
   35.4140   29.4960   37.2560 N   0  0  0  0  0  0  0  0  0  0  0  0
   36.8580   29.6540   37.1340 C   0  0  0  0  0  0  0  0  0  0  0  0
   37.5320   29.5590   38.4790 C   0  0  1  0  0  0  0  0  0  0  0  0
   37.9730   30.8780   38.9850 C   0  0  0  0  0  0  0  0  0  0  0  0
   37.0960   31.8870   39.4310 C   0  0  0  0  0  0  0  0  0  0  0  0
   37.5560   33.0960   39.8920 C   0  0  0  0  0  0  0  0  0  0  0  0
   38.8700   33.3370   39.9240 N   0  0  0  0  0  0  0  0  0  0  0  0
   39.7210   32.3930   39.5040 C   0  0  0  0  0  0  0  0  0  0  0  0
   39.2690   31.2390   39.0640 N   0  0  0  0  0  0  0  0  0  0  0  0
   41.2180   32.5740   39.5030 C   0  0  0  0  0  0  0  0  0  0  0  0
   41.7320   32.0940   40.7930 N   0  0  0  0  0  0  0  0  0  0  0  0
   41.6320   30.8260   41.2270 C   0  0  0  0  0  0  0  0  0  0  0  0
   42.1530   30.4930   42.4600 C   0  0  0  0  0  0  0  0  0  0  0  0
   42.0620   29.1060   42.9720 C   0  0  0  0  0  0  0  0  0  0  0  0
   42.7690   31.4160   43.2530 C   0  0  0  0  0  0  0  0  0  0  0  0
   43.2750   31.2100   44.3900 O   0  0  0  0  0  0  0  0  0  0  0  0
   42.8730   32.7020   42.8200 N   0  0  0  0  0  0  0  0  0  0  0  0
   42.3510   32.9930   41.6060 C   0  0  0  0  0  0  0  0  0  0  0  0
   42.4500   34.1810   41.2090 O   0  0  0  0  0  0  0  0  0  0  0  0
   39.1427   30.4730   42.9185 H   0  0  0  0  0  0  0  0  0  0  0  0
   38.1622   28.8125   44.5196 H   0  0  0  0  0  0  0  0  0  0  0  0
   36.4768   27.1690   43.6433 H   0  0  0  0  0  0  0  0  0  0  0  0
   35.6387   27.0543   39.4651 H   0  0  0  0  0  0  0  0  0  0  0  0
   34.6671   28.5571   39.7096 H   0  0  0  0  0  0  0  0  0  0  0  0
   35.8390   27.4557   37.1220 H   0  0  0  0  0  0  0  0  0  0  0  0
   34.1448   27.8350   37.4772 H   0  0  0  0  0  0  0  0  0  0  0  0
   34.9598   29.6699   36.3481 H   0  0  0  0  0  0  0  0  0  0  0  0
   37.2515   28.8629   36.4787 H   0  0  0  0  0  0  0  0  0  0  0  0
   37.0652   30.6475   36.7098 H   0  0  0  0  0  0  0  0  0  0  0  0
   38.4432   28.9617   38.3272 H   0  0  0  0  0  0  0  0  0  0  0  0
   36.0121   31.7008   39.4092 H   0  0  0  0  0  0  0  0  0  0  0  0
   36.8455   33.8631   40.2336 H   0  0  0  0  0  0  0  0  0  0  0  0
   41.6642   31.9921   38.6831 H   0  0  0  0  0  0  0  0  0  0  0  0
   41.4757   33.6336   39.3583 H   0  0  0  0  0  0  0  0  0  0  0  0
   41.1404   30.0626   40.6061 H   0  0  0  0  0  0  0  0  0  0  0  0
   42.0629   29.1204   44.0719 H   0  0  0  0  0  0  0  0  0  0  0  0
   41.1315   28.6426   42.6122 H   0  0  0  0  0  0  0  0  0  0  0  0
   42.9240   28.5250   42.6122 H   0  0  0  0  0  0  0  0  0  0  0  0
   43.3307   33.4249   43.3934 H   0  0  0  0  0  0  0  0  0  0  0  0
  1  2  2  0
  3  2  1  0
  4  3  2  0
  5  6  2  0
  5  4  1  0
  6  1  1  0
  7  5  1  0
  8  7  1  0
  9  8  1  0
 10  9  1  0
 11 10  1  0
 11 12  1  0
 12 13  1  0
 12  7  1  0
 13 18  1  0
 13 14  2  0
 14 15  1  0
 15 16  2  0
 17 16  1  0
 18 17  2  0
 19 17  1  0
 19 20  1  0
 20 21  1  0
 20 27  1  0
 21 22  2  0
 22 23  1  0
 22 24  1  0
 24 25  2  0
 26 24  1  0
 27 26  1  0
 28 27  2  0
  1 29  1  0
  2 30  1  0
  3 31  1  0
  8 32  1  0
  8 33  1  0
  9 34  1  0
  9 35  1  0
 10 36  1  0
 11 37  1  0
 11 38  1  0
 12 39  1  6
 14 40  1  0
 15 41  1  0
 19 42  1  0
 19 43  1  0
 21 44  1  0
 23 45  1  0
 23 46  1  0
 23 47  1  0
 26 48  1  0
M  ISO  8  29  14  30  14  31  14  32  13  33  13  34  13  35  13  36   5
M  ISO  8  37  13  38  13  39  13  40  14  41  14  42   8  43   8  44  14
M  ISO  4  45   8  46   8  47   8  48   9
M  END
>  <minimizedAffinity>  (1) 
-6.16509533

>  <minimizedRMSD>  (1) 
1.12026703

$$$$
