
     RDKit          3D

 44 47  0  0  1  0  0  0  0  0999 V2000
   38.1030   29.4450   42.9090 C   0  0  0  0  0  0  0  0  0  0  0  0
   37.4850   28.4290   43.6510 C   0  0  0  0  0  0  0  0  0  0  0  0
   36.6990   27.5220   42.9550 C   0  0  0  0  0  0  0  0  0  0  0  0
   36.5820   27.6780   41.6160 N   0  0  0  0  0  0  0  0  0  0  0  0
   37.1870   28.6670   40.9160 C   0  0  0  0  0  0  0  0  0  0  0  0
   37.9540   29.5520   41.5900 N   0  0  0  0  0  0  0  0  0  0  0  0
   36.9960   28.7390   39.5050 N   0  0  0  0  0  0  0  0  0  0  0  0
   35.8740   27.9540   38.9660 C   0  0  0  0  0  0  0  0  0  0  0  0
   35.7930   28.1030   37.4680 C   0  0  0  0  0  0  0  0  0  0  0  0
   36.0090   29.5030   37.1910 N   0  0  0  0  0  0  0  0  0  0  0  0
   37.4460   29.7280   37.3160 C   0  0  0  0  0  0  0  0  0  0  0  0
   37.8980   29.5600   38.7350 C   0  0  1  0  0  0  0  0  0  0  0  0
   38.1860   30.8460   39.4040 C   0  0  0  0  0  0  0  0  0  0  0  0
   37.2250   31.8550   39.6180 C   0  0  0  0  0  0  0  0  0  0  0  0
   37.5370   33.0420   40.2470 C   0  0  0  0  0  0  0  0  0  0  0  0
   38.7930   33.2480   40.6720 N   0  0  0  0  0  0  0  0  0  0  0  0
   39.7230   32.3050   40.4810 C   0  0  0  0  0  0  0  0  0  0  0  0
   39.3980   31.1840   39.8780 N   0  0  0  0  0  0  0  0  0  0  0  0
   41.1490   32.4510   40.9220 C   0  0  0  0  0  0  0  0  0  0  0  0
   41.9200   33.0560   39.7890 C   0  0  0  0  0  0  0  0  0  0  0  0
   41.3660   33.3060   38.5550 C   0  0  0  0  0  0  0  0  0  0  0  0
   42.1110   33.8650   37.5360 C   0  0  0  0  0  0  0  0  0  0  0  0
   43.4250   34.1610   37.8050 C   0  0  0  0  0  0  0  0  0  0  0  0
   43.9860   33.9080   39.0520 C   0  0  0  0  0  0  0  0  0  0  0  0
   43.2230   33.3620   40.0180 N   0  0  0  0  0  0  0  0  0  0  0  0
   38.7323   30.1787   43.4340 H   0  0  0  0  0  0  0  0  0  0  0  0
   37.6177   28.3539   44.7404 H   0  0  0  0  0  0  0  0  0  0  0  0
   36.1861   26.7003   43.4763 H   0  0  0  0  0  0  0  0  0  0  0  0
   36.0220   26.8931   39.2162 H   0  0  0  0  0  0  0  0  0  0  0  0
   34.9377   28.3229   39.4101 H   0  0  0  0  0  0  0  0  0  0  0  0
   36.5690   27.4938   36.9816 H   0  0  0  0  0  0  0  0  0  0  0  0
   34.8201   27.7634   37.0831 H   0  0  0  0  0  0  0  0  0  0  0  0
   35.4966   30.0841   37.8697 H   0  0  0  0  0  0  0  0  0  0  0  0
   37.9792   29.0049   36.6813 H   0  0  0  0  0  0  0  0  0  0  0  0
   37.6668   30.7579   36.9991 H   0  0  0  0  0  0  0  0  0  0  0  0
   38.8550   29.0201   38.6832 H   0  0  0  0  0  0  0  0  0  0  0  0
   36.1938   31.6903   39.2724 H   0  0  0  0  0  0  0  0  0  0  0  0
   36.7652   33.8110   40.3985 H   0  0  0  0  0  0  0  0  0  0  0  0
   41.2027   33.1070   41.8034 H   0  0  0  0  0  0  0  0  0  0  0  0
   41.5694   31.4711   41.1924 H   0  0  0  0  0  0  0  0  0  0  0  0
   40.3097   33.0559   38.3768 H   0  0  0  0  0  0  0  0  0  0  0  0
   41.6700   34.0653   36.5484 H   0  0  0  0  0  0  0  0  0  0  0  0
   44.0476   34.6083   37.0162 H   0  0  0  0  0  0  0  0  0  0  0  0
   45.0409   34.1511   39.2471 H   0  0  0  0  0  0  0  0  0  0  0  0
  1  2  2  0
  3  2  1  0
  4  3  2  0
  5  6  2  0
  5  4  1  0
  6  1  1  0
  7  5  1  0
  8  7  1  0
  9  8  1  0
 10 11  1  0
 10  9  1  0
 11 12  1  0
 12 13  1  0
 12  7  1  0
 13 14  2  0
 13 18  1  0
 14 15  1  0
 15 16  2  0
 17 16  1  0
 17 19  1  0
 18 17  2  0
 20 25  1  0
 20 19  1  0
 21 20  2  0
 22 23  2  0
 22 21  1  0
 23 24  1  0
 24 25  2  0
  1 26  1  0
  2 27  1  0
  3 28  1  0
  8 29  1  0
  8 30  1  0
  9 31  1  0
  9 32  1  0
 10 33  1  0
 11 34  1  0
 11 35  1  0
 12 36  1  6
 14 37  1  0
 15 38  1  0
 19 39  1  0
 19 40  1  0
 21 41  1  0
 22 42  1  0
 23 43  1  0
 24 44  1  0
M  ISO  8  26  14  27  14  28  14  29  13  30  13  31  13  32  13  33   5
M  ISO  8  34  13  35  13  36  13  37  14  38  14  39   8  40   8  41  14
M  ISO  3  42  14  43  14  44  14
M  END
>  <minimizedAffinity>  (1) 
-5.71582222

>  <minimizedRMSD>  (1) 
0.161460042

$$$$
