
     RDKit          3D

 45 48  0  0  1  0  0  0  0  0999 V2000
   38.1340   29.4530   42.9180 C   0  0  0  0  0  0  0  0  0  0  0  0
   37.5170   28.4410   43.6810 C   0  0  0  0  0  0  0  0  0  0  0  0
   36.6970   27.5480   43.0200 C   0  0  0  0  0  0  0  0  0  0  0  0
   36.5440   27.7040   41.6900 N   0  0  0  0  0  0  0  0  0  0  0  0
   37.1410   28.6770   40.9710 C   0  0  0  0  0  0  0  0  0  0  0  0
   37.9430   29.5520   41.6120 N   0  0  0  0  0  0  0  0  0  0  0  0
   36.9070   28.7490   39.5660 N   0  0  0  0  0  0  0  0  0  0  0  0
   35.7560   27.9880   39.0630 C   0  0  0  0  0  0  0  0  0  0  0  0
   35.6500   28.1090   37.5680 C   0  0  0  0  0  0  0  0  0  0  0  0
   35.8650   29.5040   37.2740 N   0  0  0  0  0  0  0  0  0  0  0  0
   37.3100   29.7170   37.3620 C   0  0  0  0  0  0  0  0  0  0  0  0
   37.8060   29.5500   38.7650 C   0  0  1  0  0  0  0  0  0  0  0  0
   38.1350   30.8260   39.4140 C   0  0  0  0  0  0  0  0  0  0  0  0
   37.2080   31.8640   39.6380 C   0  0  0  0  0  0  0  0  0  0  0  0
   37.5570   33.0500   40.2520 C   0  0  0  0  0  0  0  0  0  0  0  0
   38.8270   33.2270   40.6540 N   0  0  0  0  0  0  0  0  0  0  0  0
   39.7220   32.2700   40.4570 C   0  0  0  0  0  0  0  0  0  0  0  0
   39.3610   31.1380   39.8640 N   0  0  0  0  0  0  0  0  0  0  0  0
   41.1700   32.3580   40.8640 C   0  0  0  0  0  0  0  0  0  0  0  0
   41.9780   32.9770   39.7710 C   0  0  0  0  0  0  0  0  0  0  0  0
   41.3860   33.1100   38.5290 C   0  0  0  0  0  0  0  0  0  0  0  0
   42.1000   33.6840   37.4720 C   0  0  0  0  0  0  0  0  0  0  0  0
   43.4090   34.1130   37.7010 C   0  0  0  0  0  0  0  0  0  0  0  0
   43.9920   33.9700   38.9630 C   0  0  0  0  0  0  0  0  0  0  0  0
   43.2810   33.4090   39.9800 C   0  0  0  0  0  0  0  0  0  0  0  0
   38.7906   30.1785   43.4205 H   0  0  0  0  0  0  0  0  0  0  0  0
   37.6830   28.3652   44.7658 H   0  0  0  0  0  0  0  0  0  0  0  0
   36.1863   26.7373   43.5603 H   0  0  0  0  0  0  0  0  0  0  0  0
   35.8787   26.9284   39.3315 H   0  0  0  0  0  0  0  0  0  0  0  0
   34.8393   28.3933   39.5161 H   0  0  0  0  0  0  0  0  0  0  0  0
   36.4166   27.4910   37.0777 H   0  0  0  0  0  0  0  0  0  0  0  0
   34.6729   27.7622   37.2006 H   0  0  0  0  0  0  0  0  0  0  0  0
   35.3738   30.0942   37.9605 H   0  0  0  0  0  0  0  0  0  0  0  0
   37.8187   28.9880   36.7141 H   0  0  0  0  0  0  0  0  0  0  0  0
   37.5269   30.7462   37.0400 H   0  0  0  0  0  0  0  0  0  0  0  0
   38.7532   28.9960   38.6886 H   0  0  0  0  0  0  0  0  0  0  0  0
   36.1671   31.7236   39.3111 H   0  0  0  0  0  0  0  0  0  0  0  0
   36.8066   33.8386   40.4099 H   0  0  0  0  0  0  0  0  0  0  0  0
   41.2552   32.9735   41.7717 H   0  0  0  0  0  0  0  0  0  0  0  0
   41.5493   31.3442   41.0597 H   0  0  0  0  0  0  0  0  0  0  0  0
   40.3536   32.7645   38.3719 H   0  0  0  0  0  0  0  0  0  0  0  0
   41.6392   33.7953   36.4794 H   0  0  0  0  0  0  0  0  0  0  0  0
   43.9857   34.5670   36.8817 H   0  0  0  0  0  0  0  0  0  0  0  0
   45.0239   34.3102   39.1347 H   0  0  0  0  0  0  0  0  0  0  0  0
   43.7415   33.2974   40.9727 H   0  0  0  0  0  0  0  0  0  0  0  0
  1  2  2  0
  3  2  1  0
  4  3  2  0
  5  6  2  0
  5  4  1  0
  6  1  1  0
  7  5  1  0
  8  7  1  0
  9  8  1  0
 10 11  1  0
 10  9  1  0
 11 12  1  0
 12 13  1  0
 12  7  1  0
 13 14  2  0
 13 18  1  0
 14 15  1  0
 15 16  2  0
 17 16  1  0
 17 19  1  0
 18 17  2  0
 20 25  1  0
 20 19  1  0
 21 20  2  0
 22 23  2  0
 22 21  1  0
 23 24  1  0
 24 25  2  0
  1 26  1  0
  2 27  1  0
  3 28  1  0
  8 29  1  0
  8 30  1  0
  9 31  1  0
  9 32  1  0
 10 33  1  0
 11 34  1  0
 11 35  1  0
 12 36  1  6
 14 37  1  0
 15 38  1  0
 19 39  1  0
 19 40  1  0
 21 41  1  0
 22 42  1  0
 23 43  1  0
 24 44  1  0
 25 45  1  0
M  ISO  8  26  14  27  14  28  14  29  13  30  13  31  13  32  13  33   5
M  ISO  8  34  13  35  13  36  13  37  14  38  14  39   8  40   8  41  14
M  ISO  4  42  14  43  14  44  14  45  14
M  END
>  <minimizedAffinity>  (1) 
-5.70555639

>  <minimizedRMSD>  (1) 
0.174726948

$$$$
