
     RDKit          3D

 48 51  0  0  1  0  0  0  0  0999 V2000
   38.0810   29.1610   43.2820 C   0  0  0  0  0  0  0  0  0  0  0  0
   37.3210   28.2050   43.9710 C   0  0  0  0  0  0  0  0  0  0  0  0
   36.4590   27.4180   43.2230 C   0  0  0  0  0  0  0  0  0  0  0  0
   36.4120   27.6260   41.8990 N   0  0  0  0  0  0  0  0  0  0  0  0
   37.1530   28.5550   41.2450 C   0  0  0  0  0  0  0  0  0  0  0  0
   37.9890   29.3180   41.9660 N   0  0  0  0  0  0  0  0  0  0  0  0
   37.0180   28.6850   39.8360 N   0  0  0  0  0  0  0  0  0  0  0  0
   35.8260   28.0610   39.2370 C   0  0  0  0  0  0  0  0  0  0  0  0
   35.8240   28.2450   37.7430 C   0  0  0  0  0  0  0  0  0  0  0  0
   36.2060   29.6220   37.5100 N   0  0  0  0  0  0  0  0  0  0  0  0
   37.6620   29.6680   37.6860 C   0  0  0  0  0  0  0  0  0  0  0  0
   38.0500   29.4070   39.1210 C   0  0  1  0  0  0  0  0  0  0  0  0
   38.4590   30.6340   39.8320 C   0  0  0  0  0  0  0  0  0  0  0  0
   37.7110   31.8320   39.8480 C   0  0  0  0  0  0  0  0  0  0  0  0
   38.1370   32.9520   40.5290 C   0  0  0  0  0  0  0  0  0  0  0  0
   39.3070   32.9040   41.2010 N   0  0  0  0  0  0  0  0  0  0  0  0
   40.0290   31.7830   41.2000 C   0  0  0  0  0  0  0  0  0  0  0  0
   39.6050   30.7190   40.5420 N   0  0  0  0  0  0  0  0  0  0  0  0
   41.3290   31.6580   41.9210 C   0  0  0  0  0  0  0  0  0  0  0  0
   44.3420   33.4410   39.4290 C   0  0  0  0  0  0  0  0  0  0  0  0
   43.8810   32.1580   39.1730 C   0  0  0  0  0  0  0  0  0  0  0  0
   42.9020   31.6510   40.0290 C   0  0  0  0  0  0  0  0  0  0  0  0
   42.3750   32.3650   41.1110 C   0  0  0  0  0  0  0  0  0  0  0  0
   42.8660   33.6390   41.3260 C   0  0  0  0  0  0  0  0  0  0  0  0
   43.8310   34.1500   40.4900 C   0  0  0  0  0  0  0  0  0  0  0  0
   45.5680   34.0770   38.3580 S   0  0  0  0  0  0  0  0  0  0  0  0
   45.4340   33.3610   37.0320 O   0  0  0  0  0  0  0  0  0  0  0  0
   46.9600   33.8920   38.9100 O   0  0  0  0  0  0  0  0  0  0  0  0
   38.7743   29.8003   43.8482 H   0  0  0  0  0  0  0  0  0  0  0  0
   37.4054   28.0844   45.0611 H   0  0  0  0  0  0  0  0  0  0  0  0
   35.8342   26.6484   43.6998 H   0  0  0  0  0  0  0  0  0  0  0  0
   35.8263   26.9856   39.4685 H   0  0  0  0  0  0  0  0  0  0  0  0
   34.9281   28.5405   39.6539 H   0  0  0  0  0  0  0  0  0  0  0  0
   36.5476   27.5628   37.2729 H   0  0  0  0  0  0  0  0  0  0  0  0
   34.8373   28.0220   37.3109 H   0  0  0  0  0  0  0  0  0  0  0  0
   35.7428   30.2426   38.1891 H   0  0  0  0  0  0  0  0  0  0  0  0
   38.1246   28.9031   37.0450 H   0  0  0  0  0  0  0  0  0  0  0  0
   38.0134   30.6728   37.4088 H   0  0  0  0  0  0  0  0  0  0  0  0
   38.9380   28.7585   39.0894 H   0  0  0  0  0  0  0  0  0  0  0  0
   36.7583   31.8724   39.2996 H   0  0  0  0  0  0  0  0  0  0  0  0
   37.5328   33.8712   40.5251 H   0  0  0  0  0  0  0  0  0  0  0  0
   41.2506   32.1207   42.9159 H   0  0  0  0  0  0  0  0  0  0  0  0
   41.5954   30.5986   42.0501 H   0  0  0  0  0  0  0  0  0  0  0  0
   44.2702   31.5657   38.3317 H   0  0  0  0  0  0  0  0  0  0  0  0
   42.5241   30.6348   39.8429 H   0  0  0  0  0  0  0  0  0  0  0  0
   42.4859   34.2425   42.1635 H   0  0  0  0  0  0  0  0  0  0  0  0
   44.2088   35.1659   40.6777 H   0  0  0  0  0  0  0  0  0  0  0  0
   45.3817   35.4266   38.2143 H   0  0  0  0  0  0  0  0  0  0  0  0
  1  2  2  0
  3  2  1  0
  4  3  2  0
  5  4  1  0
  5  6  2  0
  6  1  1  0
  7  5  1  0
  8  7  1  0
  9  8  1  0
 10 11  1  0
 10  9  1  0
 11 12  1  0
 12 13  1  0
 12  7  1  0
 13 14  2  0
 13 18  1  0
 14 15  1  0
 15 16  2  0
 17 16  1  0
 17 19  1  0
 18 17  2  0
 20 25  2  0
 21 20  1  0
 21 22  2  0
 22 23  1  0
 23 24  2  0
 23 19  1  0
 25 24  1  0
 26 28  2  0
 26 20  1  0
 27 26  2  0
  1 29  1  0
  2 30  1  0
  3 31  1  0
  8 32  1  0
  8 33  1  0
  9 34  1  0
  9 35  1  0
 10 36  1  0
 11 37  1  0
 11 38  1  0
 12 39  1  6
 14 40  1  0
 15 41  1  0
 19 42  1  0
 19 43  1  0
 21 44  1  0
 22 45  1  0
 24 46  1  0
 25 47  1  0
 26 48  1  0
M  ISO  8  29  14  30  14  31  14  32  13  33  13  34  13  35  13  36   5
M  ISO  8  37  13  38  13  39  13  40  14  41  14  42   8  43   8  44  14
M  ISO  4  45  14  46  14  47  14  48  11
M  END
>  <minimizedAffinity>  (1) 
-5.67617273

>  <minimizedRMSD>  (1) 
1.63242233

$$$$
