
     RDKit          3D

 42 45  0  0  1  0  0  0  0  0999 V2000
   38.1830   29.5050   42.8730 C   0  0  0  0  0  0  0  0  0  0  0  0
   37.5820   28.5030   43.6540 C   0  0  0  0  0  0  0  0  0  0  0  0
   36.7580   27.6000   43.0190 C   0  0  0  0  0  0  0  0  0  0  0  0
   36.5800   27.7360   41.6920 N   0  0  0  0  0  0  0  0  0  0  0  0
   37.1620   28.7040   40.9350 C   0  0  0  0  0  0  0  0  0  0  0  0
   37.9710   29.5880   41.5680 N   0  0  0  0  0  0  0  0  0  0  0  0
   36.9010   28.7510   39.5350 N   0  0  0  0  0  0  0  0  0  0  0  0
   35.7420   27.9750   39.0690 C   0  0  0  0  0  0  0  0  0  0  0  0
   35.6170   28.0770   37.5650 C   0  0  0  0  0  0  0  0  0  0  0  0
   35.8370   29.4590   37.2490 N   0  0  0  0  0  0  0  0  0  0  0  0
   37.2800   29.6850   37.3090 C   0  0  0  0  0  0  0  0  0  0  0  0
   37.7850   29.5440   38.7210 C   0  0  1  0  0  0  0  0  0  0  0  0
   38.1110   30.8410   39.3440 C   0  0  0  0  0  0  0  0  0  0  0  0
   37.1670   31.8320   39.6520 C   0  0  0  0  0  0  0  0  0  0  0  0
   37.5080   33.0230   40.2300 C   0  0  0  0  0  0  0  0  0  0  0  0
   38.8110   33.2570   40.5200 N   0  0  0  0  0  0  0  0  0  0  0  0
   39.7270   32.3430   40.2420 C   0  0  0  0  0  0  0  0  0  0  0  0
   39.3620   31.2030   39.6830 N   0  0  0  0  0  0  0  0  0  0  0  0
   41.1790   32.5330   40.5320 C   0  0  0  0  0  0  0  0  0  0  0  0
   41.8720   33.2200   39.4760 N   0  0  0  0  0  0  0  0  0  0  0  0
   41.5060   33.6430   38.2650 C   0  0  0  0  0  0  0  0  0  0  0  0
   42.5430   34.2660   37.5990 C   0  0  0  0  0  0  0  0  0  0  0  0
   43.5830   34.2090   38.4640 N   0  0  0  0  0  0  0  0  0  0  0  0
   43.1630   33.5830   39.5750 C   0  0  0  0  0  0  0  0  0  0  0  0
   38.8453   30.2379   43.3569 H   0  0  0  0  0  0  0  0  0  0  0  0
   37.7637   28.4418   44.7372 H   0  0  0  0  0  0  0  0  0  0  0  0
   36.2614   26.7936   43.5786 H   0  0  0  0  0  0  0  0  0  0  0  0
   35.8731   26.9202   39.3522 H   0  0  0  0  0  0  0  0  0  0  0  0
   34.8297   28.3774   39.5336 H   0  0  0  0  0  0  0  0  0  0  0  0
   36.3728   27.4464   37.0739 H   0  0  0  0  0  0  0  0  0  0  0  0
   34.6324   27.7328   37.2156 H   0  0  0  0  0  0  0  0  0  0  0  0
   35.3558   30.0596   37.9336 H   0  0  0  0  0  0  0  0  0  0  0  0
   37.7874   28.9480   36.6692 H   0  0  0  0  0  0  0  0  0  0  0  0
   37.4919   30.7061   36.9590 H   0  0  0  0  0  0  0  0  0  0  0  0
   38.7351   28.9935   38.6555 H   0  0  0  0  0  0  0  0  0  0  0  0
   36.1088   31.6429   39.4188 H   0  0  0  0  0  0  0  0  0  0  0  0
   36.7395   33.7770   40.4554 H   0  0  0  0  0  0  0  0  0  0  0  0
   41.2790   33.1190   41.4576 H   0  0  0  0  0  0  0  0  0  0  0  0
   41.6308   31.5349   40.6306 H   0  0  0  0  0  0  0  0  0  0  0  0
   40.4974   33.5111   37.8464 H   0  0  0  0  0  0  0  0  0  0  0  0
   42.5275   34.7089   36.5922 H   0  0  0  0  0  0  0  0  0  0  0  0
   43.7949   33.3913   40.4548 H   0  0  0  0  0  0  0  0  0  0  0  0
  1  2  2  0
  3  2  1  0
  4  3  2  0
  5  6  2  0
  5  4  1  0
  6  1  1  0
  7  5  1  0
  8  7  1  0
  9  8  1  0
 10 11  1  0
 10  9  1  0
 11 12  1  0
 12 13  1  0
 12  7  1  0
 13 14  2  0
 13 18  1  0
 14 15  1  0
 15 16  2  0
 17 16  1  0
 17 19  1  0
 18 17  2  0
 20 24  1  0
 20 19  1  0
 21 20  1  0
 22 21  2  0
 22 23  1  0
 23 24  2  0
  1 25  1  0
  2 26  1  0
  3 27  1  0
  8 28  1  0
  8 29  1  0
  9 30  1  0
  9 31  1  0
 10 32  1  0
 11 33  1  0
 11 34  1  0
 12 35  1  6
 14 36  1  0
 15 37  1  0
 19 38  1  0
 19 39  1  0
 21 40  1  0
 22 41  1  0
 24 42  1  0
M  ISO  8  25  14  26  14  27  14  28  13  29  13  30  13  31  13  32   5
M  ISO  8  33  13  34  13  35  13  36  14  37  14  38   8  39   8  40  14
M  ISO  2  41  14  42  14
M  END
>  <minimizedAffinity>  (1) 
-5.52271986

>  <minimizedRMSD>  (1) 
0.379382074

$$$$
