
     RDKit          3D

 40 43  0  0  1  0  0  0  0  0999 V2000
   38.1860   29.5060   42.8700 C   0  0  0  0  0  0  0  0  0  0  0  0
   37.5820   28.5140   43.6550 C   0  0  0  0  0  0  0  0  0  0  0  0
   36.7500   27.6080   43.0200 C   0  0  0  0  0  0  0  0  0  0  0  0
   36.5790   27.7460   41.6890 N   0  0  0  0  0  0  0  0  0  0  0  0
   37.1680   28.7110   40.9300 C   0  0  0  0  0  0  0  0  0  0  0  0
   37.9800   29.5910   41.5590 N   0  0  0  0  0  0  0  0  0  0  0  0
   36.9100   28.7500   39.5390 N   0  0  0  0  0  0  0  0  0  0  0  0
   35.7620   27.9690   39.0630 C   0  0  0  0  0  0  0  0  0  0  0  0
   35.6300   28.0860   37.5610 C   0  0  0  0  0  0  0  0  0  0  0  0
   35.8390   29.4650   37.2490 N   0  0  0  0  0  0  0  0  0  0  0  0
   37.2820   29.6970   37.3110 C   0  0  0  0  0  0  0  0  0  0  0  0
   37.7880   29.5490   38.7170 C   0  0  1  0  0  0  0  0  0  0  0  0
   38.1210   30.8400   39.3420 C   0  0  0  0  0  0  0  0  0  0  0  0
   37.1780   31.8340   39.6430 C   0  0  0  0  0  0  0  0  0  0  0  0
   37.5280   33.0300   40.2290 C   0  0  0  0  0  0  0  0  0  0  0  0
   38.8160   33.2620   40.5250 N   0  0  0  0  0  0  0  0  0  0  0  0
   39.7370   32.3360   40.2510 C   0  0  0  0  0  0  0  0  0  0  0  0
   39.3760   31.1960   39.6890 N   0  0  0  0  0  0  0  0  0  0  0  0
   41.1920   32.5070   40.5470 C   0  0  0  0  0  0  0  0  0  0  0  0
   41.8610   33.2470   39.4380 C   0  0  0  0  0  0  0  0  0  0  0  0
   43.1400   33.6700   39.5390 N   0  0  0  0  0  0  0  0  0  0  0  0
   43.5030   34.2790   38.4730 O   0  0  0  0  0  0  0  0  0  0  0  0
   42.4740   34.2750   37.6370 C   0  0  0  0  0  0  0  0  0  0  0  0
   41.4320   33.6310   38.2250 N   0  0  0  0  0  0  0  0  0  0  0  0
   38.8510   30.2368   43.3535 H   0  0  0  0  0  0  0  0  0  0  0  0
   37.7630   28.4574   44.7385 H   0  0  0  0  0  0  0  0  0  0  0  0
   36.2472   26.8056   43.5797 H   0  0  0  0  0  0  0  0  0  0  0  0
   35.9058   26.9123   39.3328 H   0  0  0  0  0  0  0  0  0  0  0  0
   34.8467   28.3583   39.5327 H   0  0  0  0  0  0  0  0  0  0  0  0
   36.3869   27.4631   37.0619 H   0  0  0  0  0  0  0  0  0  0  0  0
   34.6433   27.7421   37.2171 H   0  0  0  0  0  0  0  0  0  0  0  0
   35.3540   30.0614   37.9346 H   0  0  0  0  0  0  0  0  0  0  0  0
   37.7923   28.9668   36.6657 H   0  0  0  0  0  0  0  0  0  0  0  0
   37.4885   30.7219   36.9690 H   0  0  0  0  0  0  0  0  0  0  0  0
   38.7344   28.9935   38.6414 H   0  0  0  0  0  0  0  0  0  0  0  0
   36.1203   31.6514   39.4021 H   0  0  0  0  0  0  0  0  0  0  0  0
   36.7608   33.7862   40.4518 H   0  0  0  0  0  0  0  0  0  0  0  0
   41.3081   33.0729   41.4831 H   0  0  0  0  0  0  0  0  0  0  0  0
   41.6564   31.5149   40.6472 H   0  0  0  0  0  0  0  0  0  0  0  0
   42.4652   34.7204   36.6313 H   0  0  0  0  0  0  0  0  0  0  0  0
  1  2  2  0
  3  2  1  0
  4  3  2  0
  5  6  2  0
  5  4  1  0
  6  1  1  0
  7  5  1  0
  8  7  1  0
  9  8  1  0
 10 11  1  0
 10  9  1  0
 11 12  1  0
 12 13  1  0
 12  7  1  0
 13 14  2  0
 13 18  1  0
 14 15  1  0
 15 16  2  0
 17 16  1  0
 17 19  1  0
 18 17  2  0
 20 21  2  0
 20 19  1  0
 22 21  1  0
 23 24  2  0
 23 22  1  0
 24 20  1  0
  1 25  1  0
  2 26  1  0
  3 27  1  0
  8 28  1  0
  8 29  1  0
  9 30  1  0
  9 31  1  0
 10 32  1  0
 11 33  1  0
 11 34  1  0
 12 35  1  6
 14 36  1  0
 15 37  1  0
 19 38  1  0
 19 39  1  0
 23 40  1  0
M  ISO  8  25  14  26  14  27  14  28  13  29  13  30  13  31  13  32   5
M  ISO  8  33  13  34  13  35  13  36  14  37  14  38   8  39   8  40  14
M  END
>  <minimizedAffinity>  (1) 
-5.51489353

>  <minimizedRMSD>  (1) 
0.288540751

$$$$
