
     RDKit          3D

 32 33  0  0  1  0  0  0  0  0999 V2000
   36.0590   29.8500   40.3800 C   0  0  2  0  0  0  0  0  0  0  0  0
   37.8810   28.8810   43.3970 C   0  0  0  0  0  0  0  0  0  0  0  0
   37.7680   27.4640   43.3470 C   0  0  0  0  0  0  0  0  0  0  0  0
   37.0780   26.8690   42.2700 C   0  0  0  0  0  0  0  0  0  0  0  0
   36.5590   27.7010   41.3360 N   0  0  0  0  0  0  0  0  0  0  0  0
   36.6890   29.0580   41.4220 C   0  0  0  0  0  0  0  0  0  0  0  0
   37.3290   29.6440   42.4180 N   0  0  0  0  0  0  0  0  0  0  0  0
   34.7300   29.1920   39.9860 C   0  0  0  0  0  0  0  0  0  0  0  0
   36.8610   30.1360   39.1790 C   0  0  0  0  0  0  0  0  0  0  0  0
   39.0270   33.7440   39.8980 C   0  0  0  0  0  0  0  0  0  0  0  0
   39.7330   32.5910   39.7570 C   0  0  0  0  0  0  0  0  0  0  0  0
   39.1310   31.3740   39.5170 C   0  0  0  0  0  0  0  0  0  0  0  0
   37.7550   31.2840   39.4070 C   0  0  0  0  0  0  0  0  0  0  0  0
   37.0530   32.4870   39.5550 C   0  0  0  0  0  0  0  0  0  0  0  0
   37.6580   33.7030   39.7950 C   0  0  0  0  0  0  0  0  0  0  0  0
   39.8360   35.2650   40.2030 S   0  0  0  0  0  0  0  0  0  0  0  0
   38.9150   36.4320   39.9070 O   0  0  0  0  0  0  0  0  0  0  0  0
   41.0710   35.4310   39.3510 O   0  0  0  0  0  0  0  0  0  0  0  0
   35.9160   30.8425   40.8321 H   0  0  0  0  0  0  0  0  0  0  0  0
   38.4164   29.3599   44.2300 H   0  0  0  0  0  0  0  0  0  0  0  0
   38.2124   26.8409   44.1371 H   0  0  0  0  0  0  0  0  0  0  0  0
   36.9665   25.7774   42.1923 H   0  0  0  0  0  0  0  0  0  0  0  0
   34.1738   28.9166   40.8942 H   0  0  0  0  0  0  0  0  0  0  0  0
   34.1332   29.8987   39.3907 H   0  0  0  0  0  0  0  0  0  0  0  0
   34.9303   28.2889   39.3907 H   0  0  0  0  0  0  0  0  0  0  0  0
   36.1862   30.3655   38.3412 H   0  0  0  0  0  0  0  0  0  0  0  0
   37.4742   29.2529   38.9466 H   0  0  0  0  0  0  0  0  0  0  0  0
   40.8293   32.6305   39.8377 H   0  0  0  0  0  0  0  0  0  0  0  0
   39.7484   30.4696   39.4124 H   0  0  0  0  0  0  0  0  0  0  0  0
   35.9562   32.4604   39.4752 H   0  0  0  0  0  0  0  0  0  0  0  0
   37.0580   34.6188   39.9015 H   0  0  0  0  0  0  0  0  0  0  0  0
   40.1927   35.2502   41.5257 H   0  0  0  0  0  0  0  0  0  0  0  0
  1  6  1  0
  3  2  2  0
  4  3  1  0
  5  6  1  0
  5  4  2  0
  6  7  2  0
  7  2  1  0
  8  1  1  0
  9 13  1  0
  9  1  1  0
 10 16  1  0
 11 10  2  0
 12 11  1  0
 13 12  2  0
 13 14  1  0
 14 15  2  0
 15 10  1  0
 17 16  2  0
 18 16  2  0
  1 19  1  1
  2 20  1  0
  3 21  1  0
  4 22  1  0
  8 23  1  0
  8 24  1  0
  8 25  1  0
  9 26  1  0
  9 27  1  0
 11 28  1  0
 12 29  1  0
 14 30  1  0
 15 31  1  0
 16 32  1  0
M  ISO  8  19   8  20  14  21  14  22  14  23   8  24   8  25   8  26   8
M  ISO  6  27   8  28  14  29  14  30  14  31  14  32  11
M  END
>  <minimizedAffinity>  (1) 
-5.38932991

>  <minimizedRMSD>  (1) 
1.18549204

$$$$
