
     RDKit          3D

 35 37  0  0  1  0  0  0  0  0999 V2000
   35.9800   30.0110   40.4900 C   0  0  2  0  0  0  0  0  0  0  0  0
   38.2610   29.1390   43.2560 C   0  0  0  0  0  0  0  0  0  0  0  0
   37.8610   27.8070   43.5540 C   0  0  0  0  0  0  0  0  0  0  0  0
   36.8080   27.2340   42.7910 C   0  0  0  0  0  0  0  0  0  0  0  0
   36.2550   28.0110   41.8220 N   0  0  0  0  0  0  0  0  0  0  0  0
   36.6690   29.2700   41.5790 C   0  0  0  0  0  0  0  0  0  0  0  0
   37.6530   29.8250   42.2810 N   0  0  0  0  0  0  0  0  0  0  0  0
   34.7710   29.2240   40.0640 C   0  0  0  0  0  0  0  0  0  0  0  0
   36.8540   30.3250   39.3100 C   0  0  0  0  0  0  0  0  0  0  0  0
   37.7340   31.4920   39.4800 C   0  0  0  0  0  0  0  0  0  0  0  0
   37.1440   32.7410   39.7180 C   0  0  0  0  0  0  0  0  0  0  0  0
   37.8180   33.9390   39.8830 C   0  0  0  0  0  0  0  0  0  0  0  0
   39.1910   33.8960   39.8050 C   0  0  0  0  0  0  0  0  0  0  0  0
   39.8220   32.6990   39.5730 C   0  0  0  0  0  0  0  0  0  0  0  0
   41.2090   32.6610   39.5010 C   0  0  0  0  0  0  0  0  0  0  0  0
   41.8410   31.4670   39.2750 C   0  0  0  0  0  0  0  0  0  0  0  0
   41.1140   30.2860   39.1170 C   0  0  0  0  0  0  0  0  0  0  0  0
   39.7360   30.3270   39.1890 C   0  0  0  0  0  0  0  0  0  0  0  0
   39.1090   31.5340   39.4160 C   0  0  0  0  0  0  0  0  0  0  0  0
   35.6884   30.9910   40.8957 H   0  0  0  0  0  0  0  0  0  0  0  0
   39.0741   29.6076   43.8298 H   0  0  0  0  0  0  0  0  0  0  0  0
   38.3539   27.2354   44.3542 H   0  0  0  0  0  0  0  0  0  0  0  0
   36.4562   26.2083   42.9760 H   0  0  0  0  0  0  0  0  0  0  0  0
   34.2301   28.8719   40.9548 H   0  0  0  0  0  0  0  0  0  0  0  0
   34.1094   29.8650   39.4628 H   0  0  0  0  0  0  0  0  0  0  0  0
   35.0893   28.3596   39.4628 H   0  0  0  0  0  0  0  0  0  0  0  0
   36.2028   30.5122   38.4435 H   0  0  0  0  0  0  0  0  0  0  0  0
   37.5169   29.4570   39.1793 H   0  0  0  0  0  0  0  0  0  0  0  0
   36.0461   32.7721   39.7792 H   0  0  0  0  0  0  0  0  0  0  0  0
   37.2810   34.8811   40.0678 H   0  0  0  0  0  0  0  0  0  0  0  0
   39.7805   34.8166   39.9280 H   0  0  0  0  0  0  0  0  0  0  0  0
   41.7955   33.5834   39.6246 H   0  0  0  0  0  0  0  0  0  0  0  0
   42.9391   31.4384   39.2171 H   0  0  0  0  0  0  0  0  0  0  0  0
   41.6333   29.3331   38.9371 H   0  0  0  0  0  0  0  0  0  0  0  0
   39.1449   29.4074   39.0667 H   0  0  0  0  0  0  0  0  0  0  0  0
  1  6  1  0
  2  3  2  0
  4  3  1  0
  5  4  2  0
  6  5  1  0
  6  7  2  0
  7  2  1  0
  8  1  1  0
  9 10  1  0
  9  1  1  0
 10 11  2  0
 11 12  1  0
 13 12  2  0
 14 13  1  0
 15 14  2  0
 16 15  1  0
 17 18  1  0
 17 16  2  0
 18 19  2  0
 19 10  1  0
 19 14  1  0
  1 20  1  1
  2 21  1  0
  3 22  1  0
  4 23  1  0
  8 24  1  0
  8 25  1  0
  8 26  1  0
  9 27  1  0
  9 28  1  0
 11 29  1  0
 12 30  1  0
 13 31  1  0
 15 32  1  0
 16 33  1  0
 17 34  1  0
 18 35  1  0
M  ISO  8  20   8  21  14  22  14  23  14  24   8  25   8  26   8  27   8
M  ISO  8  28   8  29  14  30  14  31  14  32  14  33  14  34  14  35  14
M  END
>  <minimizedAffinity>  (1) 
-5.24003077

>  <minimizedRMSD>  (1) 
0.669034183

$$$$
