
     RDKit          3D

 29 30  0  0  1  0  0  0  0  0999 V2000
   36.0770   30.0760   40.5940 C   0  0  2  0  0  0  0  0  0  0  0  0
   38.3520   29.0460   43.2980 C   0  0  0  0  0  0  0  0  0  0  0  0
   37.8650   27.7440   43.6000 C   0  0  0  0  0  0  0  0  0  0  0  0
   36.7640   27.2540   42.8520 C   0  0  0  0  0  0  0  0  0  0  0  0
   36.2450   28.0580   41.8950 N   0  0  0  0  0  0  0  0  0  0  0  0
   36.7500   29.3030   41.6430 C   0  0  0  0  0  0  0  0  0  0  0  0
   37.7790   29.7900   42.3250 N   0  0  0  0  0  0  0  0  0  0  0  0
   34.9070   29.2850   40.0610 C   0  0  0  0  0  0  0  0  0  0  0  0
   36.9560   30.4970   39.4600 C   0  0  0  0  0  0  0  0  0  0  0  0
   37.7080   31.7250   39.6170 C   0  0  0  0  0  0  0  0  0  0  0  0
   37.3100   33.0090   39.9270 C   0  0  0  0  0  0  0  0  0  0  0  0
   38.2010   34.0570   40.0180 C   0  0  0  0  0  0  0  0  0  0  0  0
   39.5490   33.8670   39.8020 C   0  0  0  0  0  0  0  0  0  0  0  0
   39.9880   32.5930   39.4890 C   0  0  0  0  0  0  0  0  0  0  0  0
   39.0770   31.5570   39.4020 C   0  0  0  0  0  0  0  0  0  0  0  0
   35.7476   31.0091   41.0744 H   0  0  0  0  0  0  0  0  0  0  0  0
   39.2044   29.4522   43.8624 H   0  0  0  0  0  0  0  0  0  0  0  0
   38.3286   27.1352   44.3902 H   0  0  0  0  0  0  0  0  0  0  0  0
   36.3462   26.2546   43.0432 H   0  0  0  0  0  0  0  0  0  0  0  0
   34.3194   28.8878   40.9018 H   0  0  0  0  0  0  0  0  0  0  0  0
   34.2715   29.9395   39.4464 H   0  0  0  0  0  0  0  0  0  0  0  0
   35.2775   28.4514   39.4464 H   0  0  0  0  0  0  0  0  0  0  0  0
   36.3162   30.6136   38.5729 H   0  0  0  0  0  0  0  0  0  0  0  0
   37.7193   29.7081   39.3892 H   0  0  0  0  0  0  0  0  0  0  0  0
   36.2426   33.2037   40.1082 H   0  0  0  0  0  0  0  0  0  0  0  0
   37.8298   35.0620   40.2673 H   0  0  0  0  0  0  0  0  0  0  0  0
   40.2567   34.7058   39.8765 H   0  0  0  0  0  0  0  0  0  0  0  0
   41.0570   32.4053   39.3102 H   0  0  0  0  0  0  0  0  0  0  0  0
   39.4485   30.5524   39.1514 H   0  0  0  0  0  0  0  0  0  0  0  0
  1  6  1  0
  2  3  2  0
  4  3  1  0
  5  4  2  0
  6  5  1  0
  6  7  2  0
  7  2  1  0
  8  1  1  0
  9 10  1  0
  9  1  1  0
 10 11  2  0
 11 12  1  0
 13 12  2  0
 14 13  1  0
 15 14  2  0
 15 10  1  0
  1 16  1  1
  2 17  1  0
  3 18  1  0
  4 19  1  0
  8 20  1  0
  8 21  1  0
  8 22  1  0
  9 23  1  0
  9 24  1  0
 11 25  1  0
 12 26  1  0
 13 27  1  0
 14 28  1  0
 15 29  1  0
M  ISO  8  16   8  17  14  18  14  19  14  20   8  21   8  22   8  23   8
M  ISO  6  24   8  25  14  26  14  27  14  28  14  29  14
M  END
>  <minimizedAffinity>  (1) 
-4.66990805

>  <minimizedRMSD>  (1) 
0.66443646

$$$$
