
     RDKit          3D

 26 27  0  0  1  0  0  0  0  0999 V2000
   35.9920   30.0720   40.5560 C   0  0  2  0  0  0  0  0  0  0  0  0
   38.3550   29.1580   43.2170 C   0  0  0  0  0  0  0  0  0  0  0  0
   37.9170   27.8490   43.5610 C   0  0  0  0  0  0  0  0  0  0  0  0
   36.8120   27.3050   42.8560 C   0  0  0  0  0  0  0  0  0  0  0  0
   36.2380   28.0750   41.8880 N   0  0  0  0  0  0  0  0  0  0  0  0
   36.7040   29.3270   41.6020 C   0  0  0  0  0  0  0  0  0  0  0  0
   37.7360   29.8690   42.2420 N   0  0  0  0  0  0  0  0  0  0  0  0
   34.7920   29.2760   40.1030 C   0  0  0  0  0  0  0  0  0  0  0  0
   36.8390   30.5170   39.4050 C   0  0  0  0  0  0  0  0  0  0  0  0
   37.4560   31.8350   39.6240 C   0  0  0  0  0  0  0  0  0  0  0  0
   38.8120   32.0770   39.4190 C   0  0  0  0  0  0  0  0  0  0  0  0
   39.0700   33.3790   39.6900 N   0  0  0  0  0  0  0  0  0  0  0  0
   37.9040   33.9810   40.0640 C   0  0  0  0  0  0  0  0  0  0  0  0
   36.9860   33.0200   40.0070 N   0  0  0  0  0  0  0  0  0  0  0  0
   35.6640   31.0172   41.0133 H   0  0  0  0  0  0  0  0  0  0  0  0
   39.2093   29.6005   43.7503 H   0  0  0  0  0  0  0  0  0  0  0  0
   38.4211   27.2742   44.3519 H   0  0  0  0  0  0  0  0  0  0  0  0
   36.4320   26.2979   43.0824 H   0  0  0  0  0  0  0  0  0  0  0  0
   34.2412   28.9106   40.9823 H   0  0  0  0  0  0  0  0  0  0  0  0
   34.1337   29.9171   39.4983 H   0  0  0  0  0  0  0  0  0  0  0  0
   35.1267   28.4202   39.4983 H   0  0  0  0  0  0  0  0  0  0  0  0
   36.2086   30.5697   38.5051 H   0  0  0  0  0  0  0  0  0  0  0  0
   37.6532   29.7860   39.2922 H   0  0  0  0  0  0  0  0  0  0  0  0
   39.5525   31.3327   39.0907 H   0  0  0  0  0  0  0  0  0  0  0  0
   37.7554   35.0326   40.3504 H   0  0  0  0  0  0  0  0  0  0  0  0
   35.9953   33.1794   40.2396 H   0  0  0  0  0  0  0  0  0  0  0  0
  1  6  1  0
  2  3  2  0
  4  3  1  0
  5  4  2  0
  6  5  1  0
  6  7  2  0
  7  2  1  0
  8  1  1  0
  9 10  1  0
  9  1  1  0
 10 14  1  0
 11 10  2  0
 11 12  1  0
 12 13  2  0
 14 13  1  0
  1 15  1  1
  2 16  1  0
  3 17  1  0
  4 18  1  0
  8 19  1  0
  8 20  1  0
  8 21  1  0
  9 22  1  0
  9 23  1  0
 11 24  1  0
 13 25  1  0
 14 26  1  0
M  ISO  8  15   8  16  14  17  14  18  14  19   8  20   8  21   8  22   8
M  ISO  4  23   8  24  14  25  14  26   9
M  END
>  <minimizedAffinity>  (1) 
-4.63807535

>  <minimizedRMSD>  (1) 
0.651674271

$$$$
