
     RDKit          3D

 20 20  0  0  1  0  0  0  0  0999 V2000
   36.0760   30.0700   40.4300 C   0  0  2  0  0  0  0  0  0  0  0  0
   38.3630   29.2080   43.1800 C   0  0  0  0  0  0  0  0  0  0  0  0
   37.8690   27.9340   43.5860 C   0  0  0  0  0  0  0  0  0  0  0  0
   36.7490   27.3970   42.8980 C   0  0  0  0  0  0  0  0  0  0  0  0
   36.2060   28.1360   41.8820 N   0  0  0  0  0  0  0  0  0  0  0  0
   36.7320   29.3490   41.5470 C   0  0  0  0  0  0  0  0  0  0  0  0
   37.7860   29.8770   42.1780 N   0  0  0  0  0  0  0  0  0  0  0  0
   34.9060   29.2660   39.9550 C   0  0  0  0  0  0  0  0  0  0  0  0
   37.0080   30.4600   39.3120 C   0  0  0  0  0  0  0  0  0  0  0  0
   37.1920   32.2830   39.3960 S   0  0  0  0  0  0  0  0  0  0  0  0
   35.7226   31.0372   40.8168 H   0  0  0  0  0  0  0  0  0  0  0  0
   39.2294   29.6453   43.6978 H   0  0  0  0  0  0  0  0  0  0  0  0
   38.3430   27.3814   44.4106 H   0  0  0  0  0  0  0  0  0  0  0  0
   36.3307   26.4175   43.1730 H   0  0  0  0  0  0  0  0  0  0  0  0
   34.3482   28.8827   40.8222 H   0  0  0  0  0  0  0  0  0  0  0  0
   34.2464   29.9025   39.3469 H   0  0  0  0  0  0  0  0  0  0  0  0
   35.2637   28.4220   39.3469 H   0  0  0  0  0  0  0  0  0  0  0  0
   36.5811   30.1658   38.3418 H   0  0  0  0  0  0  0  0  0  0  0  0
   37.9814   29.9577   39.4132 H   0  0  0  0  0  0  0  0  0  0  0  0
   37.2319   32.6780   40.7072 H   0  0  0  0  0  0  0  0  0  0  0  0
  1  6  1  0
  2  3  2  0
  4  3  1  0
  5  4  2  0
  6  5  1  0
  6  7  2  0
  7  2  1  0
  8  1  1  0
  9 10  1  0
  9  1  1  0
  1 11  1  1
  2 12  1  0
  3 13  1  0
  4 14  1  0
  8 15  1  0
  8 16  1  0
  8 17  1  0
  9 18  1  0
  9 19  1  0
 10 20  1  0
M  ISO  8  11   8  12  14  13  14  14  14  15   8  16   8  17   8  18   8
M  ISO  2  19   8  20  11
M  END
>  <minimizedAffinity>  (1) 
-3.36749983

>  <minimizedRMSD>  (1) 
0.416384727

$$$$
