
     RDKit          3D

 26 27  0  0  1  0  0  0  0  0999 V2000
   36.0810   29.9300   40.5850 C   0  0  2  0  0  0  0  0  0  0  0  0
   37.9400   28.6220   43.4740 C   0  0  0  0  0  0  0  0  0  0  0  0
   37.8360   27.2150   43.2770 C   0  0  0  0  0  0  0  0  0  0  0  0
   37.1400   26.7570   42.1550 C   0  0  0  0  0  0  0  0  0  0  0  0
   36.5970   27.6900   41.3130 N   0  0  0  0  0  0  0  0  0  0  0  0
   36.7260   29.0290   41.5490 C   0  0  0  0  0  0  0  0  0  0  0  0
   37.3810   29.5010   42.6040 N   0  0  0  0  0  0  0  0  0  0  0  0
   34.8750   29.2550   39.9930 C   0  0  0  0  0  0  0  0  0  0  0  0
   37.0100   30.4610   39.5230 C   0  0  0  0  0  0  0  0  0  0  0  0
   37.5790   31.7440   39.8760 N   0  0  0  0  0  0  0  0  0  0  0  0
   38.5130   32.1130   40.7040 N   0  0  0  0  0  0  0  0  0  0  0  0
   38.7360   33.4200   40.7280 C   0  0  0  0  0  0  0  0  0  0  0  0
   37.8710   34.0070   39.8290 C   0  0  0  0  0  0  0  0  0  0  0  0
   37.1760   32.9280   39.3280 C   0  0  0  0  0  0  0  0  0  0  0  0
   35.7622   30.8239   41.1411 H   0  0  0  0  0  0  0  0  0  0  0  0
   38.4849   29.0041   44.3498 H   0  0  0  0  0  0  0  0  0  0  0  0
   38.2906   26.5092   43.9877 H   0  0  0  0  0  0  0  0  0  0  0  0
   37.0319   25.6808   41.9547 H   0  0  0  0  0  0  0  0  0  0  0  0
   34.2246   28.8909   40.8019 H   0  0  0  0  0  0  0  0  0  0  0  0
   34.3204   29.9738   39.3720 H   0  0  0  0  0  0  0  0  0  0  0  0
   35.1977   28.4064   39.3720 H   0  0  0  0  0  0  0  0  0  0  0  0
   36.4469   30.5710   38.5845 H   0  0  0  0  0  0  0  0  0  0  0  0
   37.8388   29.7458   39.4157 H   0  0  0  0  0  0  0  0  0  0  0  0
   39.4768   33.9413   41.3520 H   0  0  0  0  0  0  0  0  0  0  0  0
   37.7627   35.0718   39.5750 H   0  0  0  0  0  0  0  0  0  0  0  0
   36.3834   33.0112   38.5698 H   0  0  0  0  0  0  0  0  0  0  0  0
  1  6  1  0
  3  2  2  0
  4  3  1  0
  5  6  1  0
  5  4  2  0
  6  7  2  0
  7  2  1  0
  8  1  1  0
  9 10  1  0
  9  1  1  0
 10 11  1  0
 11 12  2  0
 13 12  1  0
 14 13  2  0
 14 10  1  0
  1 15  1  1
  2 16  1  0
  3 17  1  0
  4 18  1  0
  8 19  1  0
  8 20  1  0
  8 21  1  0
  9 22  1  0
  9 23  1  0
 12 24  1  0
 13 25  1  0
 14 26  1  0
M  ISO  8  15   8  16  14  17  14  18  14  19   8  20   8  21   8  22   8
M  ISO  4  23   8  24  14  25  14  26  14
M  END
>  <minimizedAffinity>  (1) 
-4.17765808

>  <minimizedRMSD>  (1) 
0.68335712

$$$$
