
     RDKit          3D

 44 48  0  0  1  0  0  0  0  0999 V2000
   37.7590   30.0080   39.4640 C   0  0  1  0  0  0  0  0  0  0  0  0
   37.1020   30.0180   38.0560 C   0  0  0  0  0  0  0  0  0  0  0  0
   35.6700   29.6190   38.4230 C   0  0  0  0  0  0  0  0  0  0  0  0
   35.7480   28.8950   39.7360 C   0  0  0  0  0  0  0  0  0  0  0  0
   37.2250   28.7380   40.0090 C   0  0  2  0  0  0  0  0  0  0  0  0
   40.6440   34.6220   39.6810 C   0  0  0  0  0  0  0  0  0  0  0  0
   39.4220   35.1550   40.1220 C   0  0  0  0  0  0  0  0  0  0  0  0
   38.3830   34.2740   40.3580 C   0  0  0  0  0  0  0  0  0  0  0  0
   38.6130   32.9520   40.1480 N   0  0  0  0  0  0  0  0  0  0  0  0
   39.7550   32.4480   39.7360 C   0  0  0  0  0  0  0  0  0  0  0  0
   40.7950   33.2960   39.4960 N   0  0  0  0  0  0  0  0  0  0  0  0
   40.0370   31.0780   39.4870 N   0  0  0  0  0  0  0  0  0  0  0  0
   41.3120   30.7400   39.3450 N   0  0  0  0  0  0  0  0  0  0  0  0
   41.3660   29.3890   39.0970 C   0  0  0  0  0  0  0  0  0  0  0  0
   40.0360   28.9420   39.0990 C   0  0  0  0  0  0  0  0  0  0  0  0
   39.2110   30.0460   39.3540 C   0  0  0  0  0  0  0  0  0  0  0  0
   37.3960   28.5630   41.4260 N   0  0  0  0  0  0  0  0  0  0  0  0
   37.5040   29.4800   42.3610 N   0  0  0  0  0  0  0  0  0  0  0  0
   37.6540   28.9250   43.5830 C   0  0  0  0  0  0  0  0  0  0  0  0
   37.6350   27.5460   43.3710 C   0  0  0  0  0  0  0  0  0  0  0  0
   37.4750   27.3460   42.0280 C   0  0  0  0  0  0  0  0  0  0  0  0
   37.4180   26.0290   41.4900 N   0  0  0  0  0  0  0  0  0  0  0  0
   36.7510   25.4490   40.4960 N   0  0  0  0  0  0  0  0  0  0  0  0
   37.0590   24.1630   40.4000 C   0  0  0  0  0  0  0  0  0  0  0  0
   37.9840   23.8790   41.3890 C   0  0  0  0  0  0  0  0  0  0  0  0
   38.1900   25.0670   42.0560 C   0  0  0  0  0  0  0  0  0  0  0  0
   37.5353   30.8719   40.1071 H   0  0  0  0  0  0  0  0  0  0  0  0
   37.5696   29.2844   37.3829 H   0  0  0  0  0  0  0  0  0  0  0  0
   37.1909   30.9698   37.5118 H   0  0  0  0  0  0  0  0  0  0  0  0
   35.0398   30.5153   38.5209 H   0  0  0  0  0  0  0  0  0  0  0  0
   35.2247   28.9815   37.6450 H   0  0  0  0  0  0  0  0  0  0  0  0
   35.2684   29.4842   40.5314 H   0  0  0  0  0  0  0  0  0  0  0  0
   35.2284   27.9259   39.7048 H   0  0  0  0  0  0  0  0  0  0  0  0
   37.7378   27.8747   39.5598 H   0  0  0  0  0  0  0  0  0  0  0  0
   41.4901   35.2967   39.4838 H   0  0  0  0  0  0  0  0  0  0  0  0
   39.2957   36.2370   40.2745 H   0  0  0  0  0  0  0  0  0  0  0  0
   37.4023   34.6320   40.7045 H   0  0  0  0  0  0  0  0  0  0  0  0
   42.2682   28.7820   38.9308 H   0  0  0  0  0  0  0  0  0  0  0  0
   39.7002   27.9082   38.9303 H   0  0  0  0  0  0  0  0  0  0  0  0
   37.7673   29.4496   44.5432 H   0  0  0  0  0  0  0  0  0  0  0  0
   37.7308   26.7658   44.1404 H   0  0  0  0  0  0  0  0  0  0  0  0
   36.6527   23.4508   39.6668 H   0  0  0  0  0  0  0  0  0  0  0  0
   38.4562   22.9079   41.5989 H   0  0  0  0  0  0  0  0  0  0  0  0
   38.8697   25.2121   42.9086 H   0  0  0  0  0  0  0  0  0  0  0  0
  1  5  1  0
  2  3  1  0
  2  1  1  0
  3  4  1  0
  4  5  1  0
  5 17  1  0
  6  7  2  0
  7  8  1  0
  9  8  2  0
 10  9  1  0
 11  6  1  0
 11 10  2  0
 12 10  1  0
 13 12  1  0
 14 15  1  0
 14 13  2  0
 15 16  2  0
 16  1  1  0
 16 12  1  0
 17 21  1  0
 17 18  1  0
 18 19  2  0
 20 19  1  0
 21 20  2  0
 22 21  1  0
 22 26  1  0
 23 22  1  0
 24 23  2  0
 24 25  1  0
 25 26  2  0
  1 27  1  1
  2 28  1  0
  2 29  1  0
  3 30  1  0
  3 31  1  0
  4 32  1  0
  4 33  1  0
  5 34  1  6
  6 35  1  0
  7 36  1  0
  8 37  1  0
 14 38  1  0
 15 39  1  0
 19 40  1  0
 20 41  1  0
 24 42  1  0
 25 43  1  0
 26 44  1  0
M  ISO  8  27  13  28  13  29  13  30  13  31  13  32  13  33  13  34  13
M  ISO  8  35  14  36  14  37  14  38  14  39  14  40  14  41  14  42  14
M  ISO  2  43  14  44  14
M  END
>  <minimizedAffinity>  (1) 
-6.12334585

>  <minimizedRMSD>  (1) 
1.48725891

$$$$
