
     RDKit          3D

 29 30  0  0  1  0  0  0  0  0999 V2000
   37.4760   32.5130   40.3170 C   0  0  2  0  0  0  0  0  0  0  0  0
   37.7350   29.2070   41.9150 C   0  0  0  0  0  0  0  0  0  0  0  0
   36.4910   28.6010   41.5280 C   0  0  0  0  0  0  0  0  0  0  0  0
   35.6010   29.3470   40.7310 C   0  0  0  0  0  0  0  0  0  0  0  0
   35.9850   30.6150   40.3760 N   0  0  0  0  0  0  0  0  0  0  0  0
   37.1930   31.1370   40.7810 C   0  0  0  0  0  0  0  0  0  0  0  0
   38.0530   30.4670   41.5280 N   0  0  0  0  0  0  0  0  0  0  0  0
   37.5880   32.5340   38.8350 C   0  0  0  0  0  0  0  0  0  0  0  0
   38.6770   33.1440   41.0140 C   0  0  0  0  0  0  0  0  0  0  0  0
   39.8010   33.2980   40.1150 N   0  0  0  0  0  0  0  0  0  0  0  0
   40.5710   32.4490   39.5010 N   0  0  0  0  0  0  0  0  0  0  0  0
   41.5120   32.9970   38.7450 C   0  0  0  0  0  0  0  0  0  0  0  0
   41.3780   34.3600   38.8450 C   0  0  0  0  0  0  0  0  0  0  0  0
   40.2990   34.4990   39.7080 C   0  0  0  0  0  0  0  0  0  0  0  0
   39.7740   35.8500   40.1220 C   0  0  0  0  0  0  0  0  0  0  0  0
   39.9650   36.1070   41.4500 F   0  0  0  0  0  0  0  0  0  0  0  0
   40.5170   36.8240   39.4420 F   0  0  0  0  0  0  0  0  0  0  0  0
   38.4610   35.9160   39.7470 F   0  0  0  0  0  0  0  0  0  0  0  0
   36.6256   33.1491   40.6038 H   0  0  0  0  0  0  0  0  0  0  0  0
   38.4423   28.6384   42.5366 H   0  0  0  0  0  0  0  0  0  0  0  0
   36.2397   27.5786   41.8466 H   0  0  0  0  0  0  0  0  0  0  0  0
   34.6366   28.9294   40.4063 H   0  0  0  0  0  0  0  0  0  0  0  0
   38.6320   32.7297   38.5489 H   0  0  0  0  0  0  0  0  0  0  0  0
   37.2730   31.5611   38.4297 H   0  0  0  0  0  0  0  0  0  0  0  0
   36.9419   33.3267   38.4297 H   0  0  0  0  0  0  0  0  0  0  0  0
   38.3876   34.1345   41.3950 H   0  0  0  0  0  0  0  0  0  0  0  0
   38.9843   32.4789   41.8345 H   0  0  0  0  0  0  0  0  0  0  0  0
   42.2624   32.4587   38.1473 H   0  0  0  0  0  0  0  0  0  0  0  0
   41.9765   35.1462   38.3617 H   0  0  0  0  0  0  0  0  0  0  0  0
  1  6  1  0
  1  9  1  0
  3  2  2  0
  4  3  1  0
  5  4  2  0
  5  6  1  0
  6  7  2  0
  7  2  1  0
  8  1  1  0
 10  9  1  0
 11 10  1  0
 12 13  1  0
 12 11  2  0
 13 14  2  0
 14 10  1  0
 14 15  1  0
 15 16  1  0
 17 15  1  0
 18 15  1  0
  1 19  1  6
  2 20  1  0
  3 21  1  0
  4 22  1  0
  8 23  1  0
  8 24  1  0
  8 25  1  0
  9 26  1  0
  9 27  1  0
 12 28  1  0
 13 29  1  0
M  ISO  8  19   8  20  14  21  14  22  14  23   8  24   8  25   8  26   8
M  ISO  3  27   8  28  14  29  14
M  END
>  <minimizedAffinity>  (1) 
-5.06453419

>  <minimizedRMSD>  (1) 
3.71446347

$$$$
