
     RDKit          3D

 39 41  0  0  1  0  0  0  0  0999 V2000
   37.4540   29.1700   42.5680 C   0  0  0  0  0  0  0  0  0  0  0  0
   38.6050   30.0090   42.3010 N   0  0  0  0  0  0  0  0  0  0  0  0
   39.6240   30.4080   42.9910 N   0  0  0  0  0  0  0  0  0  0  0  0
   40.4810   31.1860   42.3660 C   0  0  0  0  0  0  0  0  0  0  0  0
   39.9960   31.3410   41.0930 C   0  0  0  0  0  0  0  0  0  0  0  0
   38.8240   30.5920   41.0870 C   0  0  0  0  0  0  0  0  0  0  0  0
   38.0710   30.5730   39.8510 N   0  0  0  0  0  0  0  0  0  0  0  0
   37.8240   29.4020   39.0530 C   0  0  0  0  0  0  0  0  0  0  0  0
   38.2410   29.7630   37.6290 C   0  0  0  0  0  0  0  0  0  0  0  0
   37.2570   30.6780   37.2180 O   0  0  0  0  0  0  0  0  0  0  0  0
   37.3530   31.8780   37.8780 C   0  0  0  0  0  0  0  0  0  0  0  0
   37.5070   31.8060   39.3560 C   0  0  0  0  0  0  0  0  0  0  0  0
   37.7460   28.1520   43.6580 C   0  0  2  0  0  0  0  0  0  0  0  0
   39.4070   24.9760   42.7840 C   0  0  0  0  0  0  0  0  0  0  0  0
   38.3720   24.2720   42.1210 C   0  0  0  0  0  0  0  0  0  0  0  0
   37.1470   24.8960   41.9910 C   0  0  0  0  0  0  0  0  0  0  0  0
   37.0160   26.1550   42.5120 N   0  0  0  0  0  0  0  0  0  0  0  0
   38.0390   26.7990   43.1470 C   0  0  0  0  0  0  0  0  0  0  0  0
   39.2120   26.2230   43.2800 N   0  0  0  0  0  0  0  0  0  0  0  0
   36.6630   28.0690   44.6750 C   0  0  0  0  0  0  0  0  0  0  0  0
   37.1789   28.6370   41.6459 H   0  0  0  0  0  0  0  0  0  0  0  0
   36.6301   29.8138   42.9096 H   0  0  0  0  0  0  0  0  0  0  0  0
   41.4009   31.6238   42.7809 H   0  0  0  0  0  0  0  0  0  0  0  0
   40.4325   31.9228   40.2678 H   0  0  0  0  0  0  0  0  0  0  0  0
   38.4213   28.5555   39.4225 H   0  0  0  0  0  0  0  0  0  0  0  0
   36.7668   29.1014   39.0977 H   0  0  0  0  0  0  0  0  0  0  0  0
   39.2382   30.2273   37.6176 H   0  0  0  0  0  0  0  0  0  0  0  0
   38.3111   28.8858   36.9690 H   0  0  0  0  0  0  0  0  0  0  0  0
   38.2258   32.4131   37.4756 H   0  0  0  0  0  0  0  0  0  0  0  0
   36.3917   32.3848   37.7072 H   0  0  0  0  0  0  0  0  0  0  0  0
   38.1618   32.6317   39.6715 H   0  0  0  0  0  0  0  0  0  0  0  0
   36.4917   31.8695   39.7744 H   0  0  0  0  0  0  0  0  0  0  0  0
   38.6583   28.5350   44.1386 H   0  0  0  0  0  0  0  0  0  0  0  0
   40.3920   24.5001   42.8992 H   0  0  0  0  0  0  0  0  0  0  0  0
   38.5387   23.2604   41.7224 H   0  0  0  0  0  0  0  0  0  0  0  0
   36.3057   24.3986   41.4863 H   0  0  0  0  0  0  0  0  0  0  0  0
   37.1029   28.1027   45.6827 H   0  0  0  0  0  0  0  0  0  0  0  0
   35.9741   28.9170   44.5471 H   0  0  0  0  0  0  0  0  0  0  0  0
   36.1114   27.1259   44.5471 H   0  0  0  0  0  0  0  0  0  0  0  0
  1 13  1  0
  2  1  1  0
  2  3  1  0
  4  3  2  0
  5  4  1  0
  6  5  2  0
  6  2  1  0
  7  6  1  0
  8  7  1  0
  9  8  1  0
 10  9  1  0
 10 11  1  0
 11 12  1  0
 12  7  1  0
 13 20  1  0
 14 19  2  0
 15 14  1  0
 16 15  2  0
 16 17  1  0
 17 18  2  0
 18 19  1  0
 18 13  1  0
  1 21  1  0
  1 22  1  0
  4 23  1  0
  5 24  1  0
  8 25  1  0
  8 26  1  0
  9 27  1  0
  9 28  1  0
 11 29  1  0
 11 30  1  0
 12 31  1  0
 12 32  1  0
 13 33  1  1
 14 34  1  0
 15 35  1  0
 16 36  1  0
 20 37  1  0
 20 38  1  0
 20 39  1  0
M  ISO  8  21   8  22   8  23  14  24  14  25  13  26  13  27  13  28  13
M  ISO  8  29  13  30  13  31  13  32  13  33   8  34  14  35  14  36  14
M  ISO  3  37   8  38   8  39   8
M  END
>  <minimizedAffinity>  (1) 
-4.92250681

>  <minimizedRMSD>  (1) 
3.59809208

$$$$
