
     RDKit          3D

 42 46  0  0  1  0  0  0  0  0999 V2000
   37.5290   29.8420   39.5490 C   0  0  1  0  0  0  0  0  0  0  0  0
   36.7520   29.8030   38.2060 C   0  0  0  0  0  0  0  0  0  0  0  0
   35.3540   29.4480   38.7100 C   0  0  0  0  0  0  0  0  0  0  0  0
   35.5370   28.7850   40.0540 C   0  0  0  0  0  0  0  0  0  0  0  0
   37.0310   28.6060   40.1930 C   0  0  2  0  0  0  0  0  0  0  0  0
   40.5420   34.3830   39.5770 C   0  0  0  0  0  0  0  0  0  0  0  0
   39.3680   34.9410   40.1390 C   0  0  0  0  0  0  0  0  0  0  0  0
   38.3420   34.0780   40.4450 C   0  0  0  0  0  0  0  0  0  0  0  0
   38.5170   32.7550   40.1920 N   0  0  0  0  0  0  0  0  0  0  0  0
   39.6050   32.2300   39.6710 C   0  0  0  0  0  0  0  0  0  0  0  0
   40.6390   33.0590   39.3570 N   0  0  0  0  0  0  0  0  0  0  0  0
   39.8280   30.8600   39.3780 N   0  0  0  0  0  0  0  0  0  0  0  0
   41.0740   30.4890   39.1150 N   0  0  0  0  0  0  0  0  0  0  0  0
   41.0760   29.1450   38.8450 C   0  0  0  0  0  0  0  0  0  0  0  0
   39.7430   28.7320   38.9630 C   0  0  0  0  0  0  0  0  0  0  0  0
   38.9710   29.8500   39.3070 C   0  0  0  0  0  0  0  0  0  0  0  0
   37.3280   28.4860   41.5940 N   0  0  0  0  0  0  0  0  0  0  0  0
   37.3650   29.4200   42.5100 N   0  0  0  0  0  0  0  0  0  0  0  0
   37.6820   28.9210   43.7220 C   0  0  0  0  0  0  0  0  0  0  0  0
   37.8550   27.5570   43.5270 C   0  0  0  0  0  0  0  0  0  0  0  0
   37.6310   27.3050   42.2000 C   0  0  0  0  0  0  0  0  0  0  0  0
   37.7340   25.9530   41.6620 C   0  0  0  0  0  0  0  0  0  0  0  0
   36.9490   25.0040   42.1860 N   0  0  0  0  0  0  0  0  0  0  0  0
   37.1770   23.8840   41.5910 O   0  0  0  0  0  0  0  0  0  0  0  0
   38.0950   24.0670   40.6820 C   0  0  0  0  0  0  0  0  0  0  0  0
   38.4780   25.3520   40.6880 N   0  0  0  0  0  0  0  0  0  0  0  0
   37.3732   30.7354   40.1716 H   0  0  0  0  0  0  0  0  0  0  0  0
   37.1484   29.0322   37.5287 H   0  0  0  0  0  0  0  0  0  0  0  0
   36.8071   30.7291   37.6150 H   0  0  0  0  0  0  0  0  0  0  0  0
   34.7457   30.3584   38.8153 H   0  0  0  0  0  0  0  0  0  0  0  0
   34.8351   28.7813   38.0055 H   0  0  0  0  0  0  0  0  0  0  0  0
   35.1465   29.4252   40.8588 H   0  0  0  0  0  0  0  0  0  0  0  0
   34.9951   27.8304   40.1244 H   0  0  0  0  0  0  0  0  0  0  0  0
   37.4868   27.7158   39.7349 H   0  0  0  0  0  0  0  0  0  0  0  0
   41.3851   35.0400   39.3171 H   0  0  0  0  0  0  0  0  0  0  0  0
   39.2803   36.0219   40.3234 H   0  0  0  0  0  0  0  0  0  0  0  0
   37.4039   34.4495   40.8833 H   0  0  0  0  0  0  0  0  0  0  0  0
   41.9445   28.5204   38.5888 H   0  0  0  0  0  0  0  0  0  0  0  0
   39.3676   27.7091   38.8121 H   0  0  0  0  0  0  0  0  0  0  0  0
   37.7824   29.4770   44.6658 H   0  0  0  0  0  0  0  0  0  0  0  0
   38.1222   26.8168   44.2956 H   0  0  0  0  0  0  0  0  0  0  0  0
   38.4928   23.2883   40.0146 H   0  0  0  0  0  0  0  0  0  0  0  0
  1  5  1  0
  2  3  1  0
  2  1  1  0
  3  4  1  0
  4  5  1  0
  5 17  1  0
  6  7  2  0
  7  8  1  0
  9  8  2  0
 10  9  1  0
 11  6  1  0
 11 10  2  0
 12 10  1  0
 13 12  1  0
 14 15  1  0
 14 13  2  0
 15 16  2  0
 16 12  1  0
 16  1  1  0
 17 21  1  0
 17 18  1  0
 18 19  2  0
 20 19  1  0
 21 20  2  0
 22 23  2  0
 22 21  1  0
 24 23  1  0
 25 26  2  0
 25 24  1  0
 26 22  1  0
  1 27  1  1
  2 28  1  0
  2 29  1  0
  3 30  1  0
  3 31  1  0
  4 32  1  0
  4 33  1  0
  5 34  1  6
  6 35  1  0
  7 36  1  0
  8 37  1  0
 14 38  1  0
 15 39  1  0
 19 40  1  0
 20 41  1  0
 25 42  1  0
M  ISO  8  27  13  28  13  29  13  30  13  31  13  32  13  33  13  34  13
M  ISO  8  35  14  36  14  37  14  38  14  39  14  40  14  41  14  42  14
M  END
>  <minimizedAffinity>  (1) 
-6.04294014

>  <minimizedRMSD>  (1) 
1.56304955

$$$$
