
     RDKit          3D

 29 30  0  0  1  0  0  0  0  0999 V2000
   36.3350   29.8680   40.6640 C   0  0  2  0  0  0  0  0  0  0  0  0
   37.7260   28.1990   43.6340 C   0  0  0  0  0  0  0  0  0  0  0  0
   37.6880   26.8230   43.2270 C   0  0  0  0  0  0  0  0  0  0  0  0
   37.1860   26.5000   41.9500 C   0  0  0  0  0  0  0  0  0  0  0  0
   36.7640   27.5510   41.1790 N   0  0  0  0  0  0  0  0  0  0  0  0
   36.8220   28.8460   41.6160 C   0  0  0  0  0  0  0  0  0  0  0  0
   37.2880   29.1740   42.8090 N   0  0  0  0  0  0  0  0  0  0  0  0
   35.0500   29.4260   40.0620 C   0  0  0  0  0  0  0  0  0  0  0  0
   37.3810   30.2440   39.6180 C   0  0  0  0  0  0  0  0  0  0  0  0
   38.3650   31.1720   40.1570 N   0  0  0  0  0  0  0  0  0  0  0  0
   39.4810   31.0000   40.8010 N   0  0  0  0  0  0  0  0  0  0  0  0
   40.1030   32.1250   41.1270 C   0  0  0  0  0  0  0  0  0  0  0  0
   39.3350   33.1740   40.6590 C   0  0  0  0  0  0  0  0  0  0  0  0
   38.2640   32.5380   40.0630 C   0  0  0  0  0  0  0  0  0  0  0  0
   37.1540   33.3200   39.4070 C   0  0  0  0  0  0  0  0  0  0  0  0
   36.1473   30.7965   41.2231 H   0  0  0  0  0  0  0  0  0  0  0  0
   38.1160   28.4619   44.6284 H   0  0  0  0  0  0  0  0  0  0  0  0
   38.0456   26.0316   43.9022 H   0  0  0  0  0  0  0  0  0  0  0  0
   37.1358   25.4611   41.5921 H   0  0  0  0  0  0  0  0  0  0  0  0
   34.3358   29.1803   40.8617 H   0  0  0  0  0  0  0  0  0  0  0  0
   34.6395   30.2346   39.4394 H   0  0  0  0  0  0  0  0  0  0  0  0
   35.2237   28.5360   39.4394 H   0  0  0  0  0  0  0  0  0  0  0  0
   36.8767   30.7154   38.7616 H   0  0  0  0  0  0  0  0  0  0  0  0
   37.9044   29.3274   39.3083 H   0  0  0  0  0  0  0  0  0  0  0  0
   41.0558   32.2079   41.6704 H   0  0  0  0  0  0  0  0  0  0  0  0
   39.5295   34.2535   40.7412 H   0  0  0  0  0  0  0  0  0  0  0  0
   36.5153   33.7700   40.1813 H   0  0  0  0  0  0  0  0  0  0  0  0
   37.5858   34.1145   38.7806 H   0  0  0  0  0  0  0  0  0  0  0  0
   36.5512   32.6460   38.7806 H   0  0  0  0  0  0  0  0  0  0  0  0
  1  6  1  0
  3  2  2  0
  4  3  1  0
  5  6  1  0
  5  4  2  0
  6  7  2  0
  7  2  1  0
  8  1  1  0
  9 10  1  0
  9  1  1  0
 10 11  1  0
 11 12  2  0
 13 12  1  0
 14 10  1  0
 14 13  2  0
 15 14  1  0
  1 16  1  1
  2 17  1  0
  3 18  1  0
  4 19  1  0
  8 20  1  0
  8 21  1  0
  8 22  1  0
  9 23  1  0
  9 24  1  0
 12 25  1  0
 13 26  1  0
 15 27  1  0
 15 28  1  0
 15 29  1  0
M  ISO  8  16   8  17  14  18  14  19  14  20   8  21   8  22   8  23   8
M  ISO  6  24   8  25  14  26  14  27   8  28   8  29   8
M  END
>  <minimizedAffinity>  (1) 
-4.05053711

>  <minimizedRMSD>  (1) 
1.02842355

$$$$
