
     RDKit          3D

 46 49  0  0  1  0  0  0  0  0999 V2000
   37.9460   30.3280   39.4310 N   0  0  0  0  0  0  0  0  0  0  0  0
   38.8350   29.3810   39.2150 N   0  0  0  0  0  0  0  0  0  0  0  0
   40.0840   29.7140   39.5390 C   0  0  0  0  0  0  0  0  0  0  0  0
   40.0530   30.9910   40.0140 C   0  0  0  0  0  0  0  0  0  0  0  0
   38.6960   31.3290   39.9260 C   0  0  0  0  0  0  0  0  0  0  0  0
   41.1670   31.7590   40.4790 C   0  0  0  0  0  0  0  0  0  0  0  0
   41.6530   31.7680   41.7710 C   0  0  0  0  0  0  0  0  0  0  0  0
   42.7390   32.5480   42.1200 C   0  0  0  0  0  0  0  0  0  0  0  0
   43.3920   33.3520   41.2070 C   0  0  0  0  0  0  0  0  0  0  0  0
   42.9010   33.3380   39.9200 C   0  0  0  0  0  0  0  0  0  0  0  0
   43.5730   34.1580   39.0120 C   0  0  0  0  0  0  0  0  0  0  0  0
   43.1010   34.1610   37.7160 C   0  0  0  0  0  0  0  0  0  0  0  0
   42.0120   33.4080   37.2670 C   0  0  0  0  0  0  0  0  0  0  0  0
   41.4050   32.6260   38.2300 C   0  0  0  0  0  0  0  0  0  0  0  0
   41.8170   32.5660   39.5530 C   0  0  0  0  0  0  0  0  0  0  0  0
   38.2320   32.6290   40.3390 C   0  0  0  0  0  0  0  0  0  0  0  0
   38.7830   33.3710   41.1960 O   0  0  0  0  0  0  0  0  0  0  0  0
   37.0670   33.2780   39.8370 N   0  0  0  0  0  0  0  0  0  0  0  0
   36.5240   30.3440   39.2110 C   0  0  0  0  0  0  0  0  0  0  0  0
   35.7340   29.9030   40.4640 C   0  0  2  0  0  0  0  0  0  0  0  0
   37.9920   28.8700   43.1690 C   0  0  0  0  0  0  0  0  0  0  0  0
   38.0460   27.4490   42.9730 C   0  0  0  0  0  0  0  0  0  0  0  0
   37.3120   26.8930   41.9260 C   0  0  0  0  0  0  0  0  0  0  0  0
   36.5800   27.7540   41.1480 N   0  0  0  0  0  0  0  0  0  0  0  0
   36.5740   29.1120   41.3960 C   0  0  0  0  0  0  0  0  0  0  0  0
   37.2490   29.6850   42.3690 N   0  0  0  0  0  0  0  0  0  0  0  0
   34.5080   29.1910   40.1190 C   0  0  0  0  0  0  0  0  0  0  0  0
   40.9749   29.0763   39.4412 H   0  0  0  0  0  0  0  0  0  0  0  0
   41.1676   31.1437   42.5356 H   0  0  0  0  0  0  0  0  0  0  0  0
   43.0953   32.5277   43.1605 H   0  0  0  0  0  0  0  0  0  0  0  0
   44.2566   33.9696   41.4916 H   0  0  0  0  0  0  0  0  0  0  0  0
   44.4351   34.7706   39.3146 H   0  0  0  0  0  0  0  0  0  0  0  0
   43.6173   34.8003   36.9848 H   0  0  0  0  0  0  0  0  0  0  0  0
   41.6643   33.4363   36.2238 H   0  0  0  0  0  0  0  0  0  0  0  0
   40.5422   32.0134   37.9294 H   0  0  0  0  0  0  0  0  0  0  0  0
   36.8056   34.2106   40.1875 H   0  0  0  0  0  0  0  0  0  0  0  0
   36.4863   32.8145   39.1236 H   0  0  0  0  0  0  0  0  0  0  0  0
   36.2188   31.3658   38.9414 H   0  0  0  0  0  0  0  0  0  0  0  0
   36.2995   29.6325   38.4027 H   0  0  0  0  0  0  0  0  0  0  0  0
   35.4372   30.8236   40.9879 H   0  0  0  0  0  0  0  0  0  0  0  0
   38.5696   29.3156   43.9923 H   0  0  0  0  0  0  0  0  0  0  0  0
   38.6529   26.8129   43.6341 H   0  0  0  0  0  0  0  0  0  0  0  0
   37.3195   25.8103   41.7320 H   0  0  0  0  0  0  0  0  0  0  0  0
   33.9879   28.8889   41.0400 H   0  0  0  0  0  0  0  0  0  0  0  0
   33.8549   29.8503   39.5285 H   0  0  0  0  0  0  0  0  0  0  0  0
   34.7570   28.2970   39.5285 H   0  0  0  0  0  0  0  0  0  0  0  0
  1  5  1  0
  2  1  1  0
  2  3  2  0
  3  4  1  0
  4  6  1  0
  5  4  2  0
  5 16  1  0
  6  7  2  0
  7  8  1  0
  9  8  2  0
 10  9  1  0
 11 10  2  0
 12 11  1  0
 13 12  2  0
 13 14  1  0
 14 15  2  0
 15 10  1  0
 15  6  1  0
 16 17  2  0
 18 16  1  0
 19  1  1  0
 19 20  1  0
 20 25  1  0
 22 21  2  0
 23 22  1  0
 24 25  1  0
 24 23  2  0
 25 26  2  0
 26 21  1  0
 27 20  1  0
  3 28  1  0
  7 29  1  0
  8 30  1  0
  9 31  1  0
 11 32  1  0
 12 33  1  0
 13 34  1  0
 14 35  1  0
 18 36  1  0
 18 37  1  0
 19 38  1  0
 19 39  1  0
 20 40  1  1
 21 41  1  0
 22 42  1  0
 23 43  1  0
 27 44  1  0
 27 45  1  0
 27 46  1  0
M  ISO  8  28  14  29  14  30  14  31  14  32  14  33  14  34  14  35  14
M  ISO  8  38   8  39   8  40   8  41  14  42  14  43  14  44   8  45   8
M  ISO  1  46   8
M  END
>  <minimizedAffinity>  (1) 
-5.93556166

>  <minimizedRMSD>  (1) 
0.609722495

$$$$
