
     RDKit          3D

 43 45  0  0  1  0  0  0  0  0999 V2000
   38.1440   30.4490   39.4970 N   0  0  0  0  0  0  0  0  0  0  0  0
   39.1000   29.5670   39.3170 N   0  0  0  0  0  0  0  0  0  0  0  0
   40.3070   30.0060   39.6670 C   0  0  0  0  0  0  0  0  0  0  0  0
   40.1640   31.2830   40.1220 C   0  0  0  0  0  0  0  0  0  0  0  0
   38.7910   31.5090   39.9940 C   0  0  0  0  0  0  0  0  0  0  0  0
   43.4020   33.7750   41.2640 C   0  0  0  0  0  0  0  0  0  0  0  0
   42.9480   32.8270   42.1720 C   0  0  0  0  0  0  0  0  0  0  0  0
   41.8950   32.0120   41.8110 C   0  0  0  0  0  0  0  0  0  0  0  0
   41.2620   32.0830   40.5900 C   0  0  0  0  0  0  0  0  0  0  0  0
   41.7510   33.0480   39.7110 C   0  0  0  0  0  0  0  0  0  0  0  0
   42.7940   33.8720   40.0380 C   0  0  0  0  0  0  0  0  0  0  0  0
   44.7500   34.7600   41.8290 S   0  0  0  0  0  0  0  0  0  0  0  0
   45.6490   35.0290   40.6720 O   0  0  0  0  0  0  0  0  0  0  0  0
   44.1530   36.0250   42.3820 O   0  0  0  0  0  0  0  0  0  0  0  0
   38.2130   32.7720   40.3760 C   0  0  0  0  0  0  0  0  0  0  0  0
   38.6880   33.5690   41.2360 O   0  0  0  0  0  0  0  0  0  0  0  0
   37.0160   33.3230   39.8450 N   0  0  0  0  0  0  0  0  0  0  0  0
   36.7200   30.3450   39.2360 C   0  0  0  0  0  0  0  0  0  0  0  0
   35.9280   29.9270   40.4980 C   0  0  2  0  0  0  0  0  0  0  0  0
   38.0770   28.7580   43.2340 C   0  0  0  0  0  0  0  0  0  0  0  0
   38.1640   27.3470   42.9320 C   0  0  0  0  0  0  0  0  0  0  0  0
   37.4910   26.8440   41.8110 C   0  0  0  0  0  0  0  0  0  0  0  0
   36.7810   27.7520   41.0650 N   0  0  0  0  0  0  0  0  0  0  0  0
   36.7390   29.0960   41.4140 C   0  0  0  0  0  0  0  0  0  0  0  0
   37.3560   29.6060   42.4540 N   0  0  0  0  0  0  0  0  0  0  0  0
   34.6640   29.2800   40.1630 C   0  0  0  0  0  0  0  0  0  0  0  0
   41.2485   29.4410   39.6010 H   0  0  0  0  0  0  0  0  0  0  0  0
   43.4194   32.7279   43.1609 H   0  0  0  0  0  0  0  0  0  0  0  0
   41.5420   31.2653   42.5375 H   0  0  0  0  0  0  0  0  0  0  0  0
   41.2828   33.1509   38.7209 H   0  0  0  0  0  0  0  0  0  0  0  0
   43.1477   34.6184   39.3115 H   0  0  0  0  0  0  0  0  0  0  0  0
   45.4935   34.1437   42.8007 H   0  0  0  0  0  0  0  0  0  0  0  0
   36.6768   34.2363   40.1794 H   0  0  0  0  0  0  0  0  0  0  0  0
   36.4874   32.8092   39.1257 H   0  0  0  0  0  0  0  0  0  0  0  0
   36.3498   31.3220   38.8919 H   0  0  0  0  0  0  0  0  0  0  0  0
   36.5709   29.5703   38.4694 H   0  0  0  0  0  0  0  0  0  0  0  0
   35.6834   30.8551   41.0355 H   0  0  0  0  0  0  0  0  0  0  0  0
   38.6055   29.1538   44.1138 H   0  0  0  0  0  0  0  0  0  0  0  0
   38.7520   26.6758   43.5752 H   0  0  0  0  0  0  0  0  0  0  0  0
   37.5294   25.7779   41.5427 H   0  0  0  0  0  0  0  0  0  0  0  0
   34.1344   29.0089   41.0882 H   0  0  0  0  0  0  0  0  0  0  0  0
   34.0431   29.9711   39.5741 H   0  0  0  0  0  0  0  0  0  0  0  0
   34.8616   28.3722   39.5741 H   0  0  0  0  0  0  0  0  0  0  0  0
  1  5  1  0
  2  1  1  0
  2  3  2  0
  3  4  1  0
  4  9  1  0
  5  4  2  0
  5 15  1  0
  6 12  1  0
  6  7  2  0
  8  7  1  0
  9  8  2  0
 10 11  2  0
 10  9  1  0
 11  6  1  0
 12 14  2  0
 13 12  2  0
 15 16  2  0
 17 15  1  0
 18  1  1  0
 18 19  1  0
 19 24  1  0
 21 20  2  0
 22 21  1  0
 23 24  1  0
 23 22  2  0
 24 25  2  0
 25 20  1  0
 26 19  1  0
  3 27  1  0
  7 28  1  0
  8 29  1  0
 10 30  1  0
 11 31  1  0
 12 32  1  0
 17 33  1  0
 17 34  1  0
 18 35  1  0
 18 36  1  0
 19 37  1  1
 20 38  1  0
 21 39  1  0
 22 40  1  0
 26 41  1  0
 26 42  1  0
 26 43  1  0
M  ISO  8  27  14  28  14  29  14  30  14  31  14  32  11  35   8  36   8
M  ISO  7  37   8  38  14  39  14  40  14  41   8  42   8  43   8
M  END
>  <minimizedAffinity>  (1) 
-5.57834148

>  <minimizedRMSD>  (1) 
0.538839698

$$$$
