
     RDKit          3D

 37 39  0  0  1  0  0  0  0  0999 V2000
   37.1860   30.2650   39.3870 C   0  0  0  0  0  0  0  0  0  0  0  0
   38.5420   30.6320   39.7390 N   0  0  0  0  0  0  0  0  0  0  0  0
   39.6130   29.8840   39.8100 N   0  0  0  0  0  0  0  0  0  0  0  0
   40.7030   30.5570   40.1610 C   0  0  0  0  0  0  0  0  0  0  0  0
   40.3440   31.8740   40.3430 C   0  0  0  0  0  0  0  0  0  0  0  0
   38.9970   31.8530   40.0690 C   0  0  0  0  0  0  0  0  0  0  0  0
   41.3800   32.8050   40.7310 C   0  0  0  0  0  0  0  0  0  0  0  0
   41.9160   33.8300   39.9440 C   0  0  0  0  0  0  0  0  0  0  0  0
   42.8780   34.4980   40.5540 N   0  0  0  0  0  0  0  0  0  0  0  0
   43.0300   33.9530   41.7740 C   0  0  0  0  0  0  0  0  0  0  0  0
   42.1270   32.9660   41.8230 N   0  0  0  0  0  0  0  0  0  0  0  0
   38.2030   33.0520   40.1550 C   0  0  0  0  0  0  0  0  0  0  0  0
   38.4210   34.0640   40.8560 O   0  0  0  0  0  0  0  0  0  0  0  0
   36.9880   33.3030   39.4340 N   0  0  0  0  0  0  0  0  0  0  0  0
   36.3250   29.9580   40.6340 C   0  0  2  0  0  0  0  0  0  0  0  0
   38.1420   28.5510   43.5070 C   0  0  0  0  0  0  0  0  0  0  0  0
   38.2240   27.1610   43.1390 C   0  0  0  0  0  0  0  0  0  0  0  0
   37.6550   26.7450   41.9150 C   0  0  0  0  0  0  0  0  0  0  0  0
   37.0510   27.7260   41.1550 N   0  0  0  0  0  0  0  0  0  0  0  0
   37.0090   29.0390   41.5700 C   0  0  0  0  0  0  0  0  0  0  0  0
   37.5310   29.4630   42.7080 N   0  0  0  0  0  0  0  0  0  0  0  0
   34.9900   29.4610   40.2870 C   0  0  0  0  0  0  0  0  0  0  0  0
   36.7255   31.0969   38.8339 H   0  0  0  0  0  0  0  0  0  0  0  0
   37.2300   29.3536   38.7726 H   0  0  0  0  0  0  0  0  0  0  0  0
   41.7123   30.1373   40.2843 H   0  0  0  0  0  0  0  0  0  0  0  0
   41.5721   34.0558   38.9238 H   0  0  0  0  0  0  0  0  0  0  0  0
   43.7401   34.2524   42.5589 H   0  0  0  0  0  0  0  0  0  0  0  0
   42.0162   32.3675   42.6539 H   0  0  0  0  0  0  0  0  0  0  0  0
   36.4882   34.1945   39.5617 H   0  0  0  0  0  0  0  0  0  0  0  0
   36.6157   32.5917   38.7888 H   0  0  0  0  0  0  0  0  0  0  0  0
   36.1879   30.9188   41.1518 H   0  0  0  0  0  0  0  0  0  0  0  0
   38.5849   28.8816   44.4580 H   0  0  0  0  0  0  0  0  0  0  0  0
   38.7213   26.4357   43.7999 H   0  0  0  0  0  0  0  0  0  0  0  0
   37.6913   25.6962   41.5854 H   0  0  0  0  0  0  0  0  0  0  0  0
   34.4261   29.2511   41.2078 H   0  0  0  0  0  0  0  0  0  0  0  0
   34.4578   30.2212   39.6964 H   0  0  0  0  0  0  0  0  0  0  0  0
   35.0845   28.5378   39.6964 H   0  0  0  0  0  0  0  0  0  0  0  0
  1  2  1  0
  1 15  1  0
  2  3  1  0
  2  6  1  0
  3  4  2  0
  4  5  1  0
  5  7  1  0
  6 12  1  0
  6  5  2  0
  7 11  1  0
  8  9  1  0
  8  7  2  0
  9 10  2  0
 10 11  1  0
 12 13  2  0
 14 12  1  0
 15 20  1  0
 17 16  2  0
 18 17  1  0
 19 20  1  0
 19 18  2  0
 20 21  2  0
 21 16  1  0
 22 15  1  0
  1 23  1  0
  1 24  1  0
  4 25  1  0
  8 26  1  0
 10 27  1  0
 11 28  1  0
 14 29  1  0
 14 30  1  0
 15 31  1  1
 16 32  1  0
 17 33  1  0
 18 34  1  0
 22 35  1  0
 22 36  1  0
 22 37  1  0
M  ISO  8  23   8  24   8  25  14  26  14  27  14  28   9  31   8  32  14
M  ISO  5  33  14  34  14  35   8  36   8  37   8
M  END
>  <minimizedAffinity>  (1) 
-5.12884569

>  <minimizedRMSD>  (1) 
0.392388195

$$$$
