
     RDKit          3D

 37 39  0  0  1  0  0  0  0  0999 V2000
   37.0970   29.3310   39.0260 C   0  0  0  0  0  0  0  0  0  0  0  0
   38.4150   29.8850   39.1930 N   0  0  0  0  0  0  0  0  0  0  0  0
   39.5880   29.2930   39.2230 N   0  0  0  0  0  0  0  0  0  0  0  0
   40.6170   30.1210   39.3930 C   0  0  0  0  0  0  0  0  0  0  0  0
   40.1170   31.3860   39.4870 C   0  0  0  0  0  0  0  0  0  0  0  0
   38.7360   31.1820   39.3560 C   0  0  0  0  0  0  0  0  0  0  0  0
   40.8010   32.5960   39.6700 N   0  0  0  0  0  0  0  0  0  0  0  0
   40.8250   33.4580   38.6710 N   0  0  0  0  0  0  0  0  0  0  0  0
   41.5280   34.5660   39.0260 C   0  0  0  0  0  0  0  0  0  0  0  0
   41.9520   34.3500   40.3220 C   0  0  0  0  0  0  0  0  0  0  0  0
   41.4820   33.0950   40.7160 C   0  0  0  0  0  0  0  0  0  0  0  0
   37.8160   32.2920   39.4010 C   0  0  0  0  0  0  0  0  0  0  0  0
   37.2640   32.7430   40.4440 O   0  0  0  0  0  0  0  0  0  0  0  0
   37.3890   33.0500   38.2740 N   0  0  0  0  0  0  0  0  0  0  0  0
   36.2150   29.5380   40.2830 C   0  0  2  0  0  0  0  0  0  0  0  0
   37.9200   28.9240   43.4770 C   0  0  0  0  0  0  0  0  0  0  0  0
   37.8060   27.4950   43.5910 C   0  0  0  0  0  0  0  0  0  0  0  0
   37.1550   26.7940   42.5770 C   0  0  0  0  0  0  0  0  0  0  0  0
   36.6590   27.5260   41.5260 N   0  0  0  0  0  0  0  0  0  0  0  0
   36.8050   28.8980   41.4840 C   0  0  0  0  0  0  0  0  0  0  0  0
   37.4100   29.6060   42.4130 N   0  0  0  0  0  0  0  0  0  0  0  0
   34.8390   29.1030   40.0670 C   0  0  0  0  0  0  0  0  0  0  0  0
   36.6125   29.8202   38.1681 H   0  0  0  0  0  0  0  0  0  0  0  0
   37.2026   28.2487   38.8604 H   0  0  0  0  0  0  0  0  0  0  0  0
   41.6780   29.8361   39.4477 H   0  0  0  0  0  0  0  0  0  0  0  0
   41.7201   35.4544   38.4064 H   0  0  0  0  0  0  0  0  0  0  0  0
   42.5512   35.0408   40.9334 H   0  0  0  0  0  0  0  0  0  0  0  0
   41.6385   32.6102   41.6909 H   0  0  0  0  0  0  0  0  0  0  0  0
   36.7270   33.8292   38.3983 H   0  0  0  0  0  0  0  0  0  0  0  0
   37.7421   32.8191   37.3344 H   0  0  0  0  0  0  0  0  0  0  0  0
   36.1849   30.6214   40.4708 H   0  0  0  0  0  0  0  0  0  0  0  0
   38.4342   29.4833   44.2724 H   0  0  0  0  0  0  0  0  0  0  0  0
   38.2238   26.9660   44.4603 H   0  0  0  0  0  0  0  0  0  0  0  0
   37.0432   25.7004   42.6169 H   0  0  0  0  0  0  0  0  0  0  0  0
   34.3469   28.9474   41.0384 H   0  0  0  0  0  0  0  0  0  0  0  0
   34.2957   29.8732   39.4999 H   0  0  0  0  0  0  0  0  0  0  0  0
   34.8372   28.1605   39.4999 H   0  0  0  0  0  0  0  0  0  0  0  0
  1  2  1  0
  1 15  1  0
  2  3  1  0
  2  6  1  0
  3  4  2  0
  4  5  1  0
  5  7  1  0
  6 12  1  0
  6  5  2  0
  7 11  1  0
  8  9  2  0
  8  7  1  0
  9 10  1  0
 10 11  2  0
 12 13  2  0
 14 12  1  0
 15 20  1  0
 16 17  2  0
 18 17  1  0
 19 18  2  0
 20 19  1  0
 20 21  2  0
 21 16  1  0
 22 15  1  0
  1 23  1  0
  1 24  1  0
  4 25  1  0
  9 26  1  0
 10 27  1  0
 11 28  1  0
 14 29  1  0
 14 30  1  0
 15 31  1  1
 16 32  1  0
 17 33  1  0
 18 34  1  0
 22 35  1  0
 22 36  1  0
 22 37  1  0
M  ISO  8  23   8  24   8  25  14  26  14  27  14  28  14  31   8  32  14
M  ISO  5  33  14  34  14  35   8  36   8  37   8
M  END
>  <minimizedAffinity>  (1) 
-4.990448

>  <minimizedRMSD>  (1) 
1.06862831

$$$$
