
     RDKit          3D

 36 38  0  0  1  0  0  0  0  0999 V2000
   37.2040   29.4470   39.0000 C   0  0  0  0  0  0  0  0  0  0  0  0
   38.5220   30.0100   39.2220 N   0  0  0  0  0  0  0  0  0  0  0  0
   39.6770   29.3980   39.2910 N   0  0  0  0  0  0  0  0  0  0  0  0
   40.6950   30.2360   39.5060 C   0  0  0  0  0  0  0  0  0  0  0  0
   40.1880   31.5120   39.5890 C   0  0  0  0  0  0  0  0  0  0  0  0
   38.8350   31.3090   39.4040 C   0  0  0  0  0  0  0  0  0  0  0  0
   41.0040   32.7180   39.8150 C   0  0  0  0  0  0  0  0  0  0  0  0
   41.8240   32.8110   41.0030 C   0  0  0  0  0  0  0  0  0  0  0  0
   42.5840   34.4390   40.7840 S   0  0  0  0  0  0  0  0  0  0  0  0
   41.6930   34.7510   39.1390 C   0  0  0  0  0  0  0  0  0  0  0  0
   41.0490   33.7620   38.9910 N   0  0  0  0  0  0  0  0  0  0  0  0
   37.9020   32.4050   39.4110 C   0  0  0  0  0  0  0  0  0  0  0  0
   37.4300   32.9830   40.4150 O   0  0  0  0  0  0  0  0  0  0  0  0
   37.3390   33.0350   38.2510 N   0  0  0  0  0  0  0  0  0  0  0  0
   36.2840   29.6150   40.2330 C   0  0  2  0  0  0  0  0  0  0  0  0
   37.9190   28.9510   43.4590 C   0  0  0  0  0  0  0  0  0  0  0  0
   37.8000   27.5160   43.5500 C   0  0  0  0  0  0  0  0  0  0  0  0
   37.1670   26.8200   42.5080 C   0  0  0  0  0  0  0  0  0  0  0  0
   36.6960   27.5800   41.4550 N   0  0  0  0  0  0  0  0  0  0  0  0
   36.8460   28.9540   41.4370 C   0  0  0  0  0  0  0  0  0  0  0  0
   37.4360   29.6490   42.3950 N   0  0  0  0  0  0  0  0  0  0  0  0
   34.9170   29.1580   39.9820 C   0  0  0  0  0  0  0  0  0  0  0  0
   36.7416   29.9546   38.1406 H   0  0  0  0  0  0  0  0  0  0  0  0
   37.3232   28.3700   38.8105 H   0  0  0  0  0  0  0  0  0  0  0  0
   41.7542   29.9546   39.6002 H   0  0  0  0  0  0  0  0  0  0  0  0
   41.9515   32.0863   41.8206 H   0  0  0  0  0  0  0  0  0  0  0  0
   41.7563   35.6313   38.4824 H   0  0  0  0  0  0  0  0  0  0  0  0
   36.6764   33.8161   38.3597 H   0  0  0  0  0  0  0  0  0  0  0  0
   37.5975   32.7061   37.3098 H   0  0  0  0  0  0  0  0  0  0  0  0
   36.2355   30.6963   40.4290 H   0  0  0  0  0  0  0  0  0  0  0  0
   38.4152   29.4977   44.2744 H   0  0  0  0  0  0  0  0  0  0  0  0
   38.1987   26.9761   44.4215 H   0  0  0  0  0  0  0  0  0  0  0  0
   37.0520   25.7262   42.5290 H   0  0  0  0  0  0  0  0  0  0  0  0
   34.4057   28.9871   40.9408 H   0  0  0  0  0  0  0  0  0  0  0  0
   34.3740   29.9235   39.4082 H   0  0  0  0  0  0  0  0  0  0  0  0
   34.9435   28.2199   39.4082 H   0  0  0  0  0  0  0  0  0  0  0  0
  1  2  1  0
  1 15  1  0
  2  3  1  0
  2  6  1  0
  3  4  2  0
  4  5  1  0
  5  7  1  0
  6 12  1  0
  6  5  2  0
  7  8  2  0
  9  8  1  0
 10  9  1  0
 11 10  2  0
 11  7  1  0
 12 13  2  0
 14 12  1  0
 15 20  1  0
 16 17  2  0
 18 17  1  0
 19 18  2  0
 20 19  1  0
 20 21  2  0
 21 16  1  0
 22 15  1  0
  1 23  1  0
  1 24  1  0
  4 25  1  0
  8 26  1  0
 10 27  1  0
 14 28  1  0
 14 29  1  0
 15 30  1  1
 16 31  1  0
 17 32  1  0
 18 33  1  0
 22 34  1  0
 22 35  1  0
 22 36  1  0
M  ISO  8  23   8  24   8  25  14  26  14  27  14  30   8  31  14  32  14
M  ISO  4  33  14  34   8  35   8  36   8
M  END
>  <minimizedAffinity>  (1) 
-4.97521353

>  <minimizedRMSD>  (1) 
0.952203631

$$$$
