
     RDKit          3D

 33 34  0  0  1  0  0  0  0  0999 V2000
   37.0730   30.1880   39.3220 C   0  0  0  0  0  0  0  0  0  0  0  0
   38.4330   30.5170   39.7270 N   0  0  0  0  0  0  0  0  0  0  0  0
   39.4990   29.7570   39.7990 N   0  0  0  0  0  0  0  0  0  0  0  0
   40.5940   30.3880   40.2090 C   0  0  0  0  0  0  0  0  0  0  0  0
   40.2370   31.6770   40.4310 C   0  0  0  0  0  0  0  0  0  0  0  0
   38.8850   31.7160   40.1190 C   0  0  0  0  0  0  0  0  0  0  0  0
   38.1140   32.9290   40.2250 C   0  0  0  0  0  0  0  0  0  0  0  0
   38.3200   33.8680   41.0440 O   0  0  0  0  0  0  0  0  0  0  0  0
   36.9890   33.2620   39.4170 N   0  0  0  0  0  0  0  0  0  0  0  0
   41.1900   32.6760   40.8940 C   0  0  0  0  0  0  0  0  0  0  0  0
   42.3070   32.4180   41.3930 O   0  0  0  0  0  0  0  0  0  0  0  0
   41.0500   34.0520   40.8730 O   0  0  0  0  0  0  0  0  0  0  0  0
   36.1650   29.8930   40.5400 C   0  0  2  0  0  0  0  0  0  0  0  0
   37.9710   28.6310   43.4680 C   0  0  0  0  0  0  0  0  0  0  0  0
   37.9980   27.2180   43.2090 C   0  0  0  0  0  0  0  0  0  0  0  0
   37.3890   26.7440   42.0310 C   0  0  0  0  0  0  0  0  0  0  0  0
   36.8150   27.6870   41.2190 N   0  0  0  0  0  0  0  0  0  0  0  0
   36.8270   29.0180   41.5290 C   0  0  0  0  0  0  0  0  0  0  0  0
   37.3850   29.5080   42.6220 N   0  0  0  0  0  0  0  0  0  0  0  0
   34.8700   29.3580   40.1300 C   0  0  0  0  0  0  0  0  0  0  0  0
   36.6531   31.0369   38.7624 H   0  0  0  0  0  0  0  0  0  0  0  0
   37.1120   29.2830   38.6980 H   0  0  0  0  0  0  0  0  0  0  0  0
   41.5943   29.9503   40.3422 H   0  0  0  0  0  0  0  0  0  0  0  0
   36.4961   34.1545   39.5632 H   0  0  0  0  0  0  0  0  0  0  0  0
   36.6685   32.6103   38.6866 H   0  0  0  0  0  0  0  0  0  0  0  0
   41.7760   34.6288   41.2200 H   0  0  0  0  0  0  0  0  0  0  0  0
   35.9797   30.8556   41.0391 H   0  0  0  0  0  0  0  0  0  0  0  0
   38.4430   29.0122   44.3855 H   0  0  0  0  0  0  0  0  0  0  0  0
   38.4818   26.5245   43.9126 H   0  0  0  0  0  0  0  0  0  0  0  0
   37.3748   25.6740   41.7762 H   0  0  0  0  0  0  0  0  0  0  0  0
   34.2756   29.1124   41.0224 H   0  0  0  0  0  0  0  0  0  0  0  0
   34.3364   30.1093   39.5293 H   0  0  0  0  0  0  0  0  0  0  0  0
   35.0223   28.4491   39.5293 H   0  0  0  0  0  0  0  0  0  0  0  0
  1  2  1  0
  1 13  1  0
  2  3  1  0
  2  6  1  0
  3  4  2  0
  4  5  1  0
  5 10  1  0
  6  7  1  0
  6  5  2  0
  7  8  2  0
  9  7  1  0
 10 11  2  0
 12 10  1  0
 13 18  1  0
 15 14  2  0
 16 15  1  0
 17 18  1  0
 17 16  2  0
 18 19  2  0
 19 14  1  0
 20 13  1  0
  1 21  1  0
  1 22  1  0
  4 23  1  0
  9 24  1  0
  9 25  1  0
 12 26  1  0
 13 27  1  1
 14 28  1  0
 15 29  1  0
 16 30  1  0
 20 31  1  0
 20 32  1  0
 20 33  1  0
M  ISO  8  21   8  22   8  23  14  26   3  27   8  28  14  29  14  30  14
M  ISO  3  31   8  32   8  33   8
M  END
>  <minimizedAffinity>  (1) 
-4.64141369

>  <minimizedRMSD>  (1) 
0.217917651

$$$$
