
     RDKit          3D

 39 40  0  0  1  0  0  0  0  0999 V2000
   36.8530   30.4680   39.2750 C   0  0  0  0  0  0  0  0  0  0  0  0
   38.2600   30.6910   39.5120 N   0  0  0  0  0  0  0  0  0  0  0  0
   39.2870   29.8850   39.3600 N   0  0  0  0  0  0  0  0  0  0  0  0
   40.4610   30.4290   39.6770 C   0  0  0  0  0  0  0  0  0  0  0  0
   40.2220   31.7090   40.0790 C   0  0  0  0  0  0  0  0  0  0  0  0
   38.8320   31.8220   39.9570 C   0  0  0  0  0  0  0  0  0  0  0  0
   38.1580   33.0500   40.2910 C   0  0  0  0  0  0  0  0  0  0  0  0
   38.5460   33.8940   41.1490 O   0  0  0  0  0  0  0  0  0  0  0  0
   36.9430   33.5070   39.7020 N   0  0  0  0  0  0  0  0  0  0  0  0
   41.2260   32.6720   40.5160 C   0  0  0  0  0  0  0  0  0  0  0  0
   41.9920   32.0460   41.6810 C   0  0  0  0  0  0  0  0  0  0  0  0
   42.2290   32.8740   39.3980 C   0  0  0  0  0  0  0  0  0  0  0  0
   36.1050   30.0450   40.5610 C   0  0  2  0  0  0  0  0  0  0  0  0
   38.3360   28.8360   43.2130 C   0  0  0  0  0  0  0  0  0  0  0  0
   38.4280   27.4380   42.8940 C   0  0  0  0  0  0  0  0  0  0  0  0
   37.7280   26.9560   41.7880 C   0  0  0  0  0  0  0  0  0  0  0  0
   36.9900   27.8690   41.0750 N   0  0  0  0  0  0  0  0  0  0  0  0
   36.9460   29.1930   41.4360 C   0  0  0  0  0  0  0  0  0  0  0  0
   37.5880   29.6970   42.4690 N   0  0  0  0  0  0  0  0  0  0  0  0
   34.8330   29.3990   40.2560 C   0  0  0  0  0  0  0  0  0  0  0  0
   36.4058   31.3982   38.8946 H   0  0  0  0  0  0  0  0  0  0  0  0
   36.7584   29.6511   38.5445 H   0  0  0  0  0  0  0  0  0  0  0  0
   41.4428   29.9357   39.6240 H   0  0  0  0  0  0  0  0  0  0  0  0
   36.5295   34.4012   40.0024 H   0  0  0  0  0  0  0  0  0  0  0  0
   36.4786   32.9430   38.9760 H   0  0  0  0  0  0  0  0  0  0  0  0
   40.7452   33.6212   40.7948 H   0  0  0  0  0  0  0  0  0  0  0  0
   41.5636   32.3961   42.6318 H   0  0  0  0  0  0  0  0  0  0  0  0
   41.9135   30.9502   41.6249 H   0  0  0  0  0  0  0  0  0  0  0  0
   43.0502   32.3411   41.6249 H   0  0  0  0  0  0  0  0  0  0  0  0
   43.2217   33.0739   39.8277 H   0  0  0  0  0  0  0  0  0  0  0  0
   42.2740   31.9669   38.7774 H   0  0  0  0  0  0  0  0  0  0  0  0
   41.9193   33.7278   38.7774 H   0  0  0  0  0  0  0  0  0  0  0  0
   35.8834   30.9667   41.1191 H   0  0  0  0  0  0  0  0  0  0  0  0
   38.8860   29.2221   44.0839 H   0  0  0  0  0  0  0  0  0  0  0  0
   39.0384   26.7612   43.5099 H   0  0  0  0  0  0  0  0  0  0  0  0
   37.7652   25.8949   41.5004 H   0  0  0  0  0  0  0  0  0  0  0  0
   34.3200   29.1385   41.1935 H   0  0  0  0  0  0  0  0  0  0  0  0
   34.2033   30.0865   39.6723 H   0  0  0  0  0  0  0  0  0  0  0  0
   35.0167   28.4849   39.6723 H   0  0  0  0  0  0  0  0  0  0  0  0
  1  2  1  0
  1 13  1  0
  2  6  1  0
  3  2  1  0
  3  4  2  0
  4  5  1  0
  5 10  1  0
  6  5  2  0
  6  7  1  0
  7  8  2  0
  9  7  1  0
 10 11  1  0
 12 10  1  0
 13 18  1  0
 15 14  2  0
 16 15  1  0
 17 18  1  0
 17 16  2  0
 18 19  2  0
 19 14  1  0
 20 13  1  0
  1 21  1  0
  1 22  1  0
  4 23  1  0
  9 24  1  0
  9 25  1  0
 10 26  1  0
 11 27  1  0
 11 28  1  0
 11 29  1  0
 12 30  1  0
 12 31  1  0
 12 32  1  0
 13 33  1  1
 14 34  1  0
 15 35  1  0
 16 36  1  0
 20 37  1  0
 20 38  1  0
 20 39  1  0
M  ISO  8  21   8  22   8  23  14  26   8  27   8  28   8  29   8  30   8
M  ISO  8  31   8  32   8  33   8  34  14  35  14  36  14  37   8  38   8
M  ISO  1  39   8
M  END
>  <minimizedAffinity>  (1) 
-4.61976624

>  <minimizedRMSD>  (1) 
0.470646441

$$$$
