
     RDKit          3D

 36 37  0  0  1  0  0  0  0  0999 V2000
   36.8450   30.4820   39.2770 C   0  0  0  0  0  0  0  0  0  0  0  0
   38.2530   30.6760   39.5070 N   0  0  0  0  0  0  0  0  0  0  0  0
   39.2680   29.8620   39.3560 N   0  0  0  0  0  0  0  0  0  0  0  0
   40.4470   30.4060   39.6730 C   0  0  0  0  0  0  0  0  0  0  0  0
   40.2160   31.6900   40.0730 C   0  0  0  0  0  0  0  0  0  0  0  0
   38.8260   31.8090   39.9500 C   0  0  0  0  0  0  0  0  0  0  0  0
   38.1540   33.0440   40.2880 C   0  0  0  0  0  0  0  0  0  0  0  0
   38.5460   33.8890   41.1540 O   0  0  0  0  0  0  0  0  0  0  0  0
   36.9520   33.5120   39.7100 N   0  0  0  0  0  0  0  0  0  0  0  0
   41.2200   32.6630   40.5020 C   0  0  0  0  0  0  0  0  0  0  0  0
   41.9730   32.0470   41.6910 C   0  0  0  0  0  0  0  0  0  0  0  0
   36.0910   30.0390   40.5550 C   0  0  2  0  0  0  0  0  0  0  0  0
   38.3260   28.8810   43.2090 C   0  0  0  0  0  0  0  0  0  0  0  0
   38.4280   27.4580   42.9140 C   0  0  0  0  0  0  0  0  0  0  0  0
   37.7110   26.9690   41.8000 C   0  0  0  0  0  0  0  0  0  0  0  0
   36.9790   27.8660   41.0870 N   0  0  0  0  0  0  0  0  0  0  0  0
   36.9270   29.2130   41.4260 C   0  0  0  0  0  0  0  0  0  0  0  0
   37.5800   29.7150   42.4580 N   0  0  0  0  0  0  0  0  0  0  0  0
   34.8210   29.3860   40.2510 C   0  0  0  0  0  0  0  0  0  0  0  0
   36.4118   31.4288   38.9221 H   0  0  0  0  0  0  0  0  0  0  0  0
   36.7354   29.6820   38.5300 H   0  0  0  0  0  0  0  0  0  0  0  0
   41.4267   29.9085   39.6209 H   0  0  0  0  0  0  0  0  0  0  0  0
   36.5476   34.4081   40.0172 H   0  0  0  0  0  0  0  0  0  0  0  0
   36.4805   32.9570   38.9816 H   0  0  0  0  0  0  0  0  0  0  0  0
   41.9201   32.8695   39.6790 H   0  0  0  0  0  0  0  0  0  0  0  0
   40.7447   33.6120   40.7910 H   0  0  0  0  0  0  0  0  0  0  0  0
   41.5315   32.4082   42.6315 H   0  0  0  0  0  0  0  0  0  0  0  0
   41.8947   30.9507   41.6464 H   0  0  0  0  0  0  0  0  0  0  0  0
   43.0320   32.3410   41.6464 H   0  0  0  0  0  0  0  0  0  0  0  0
   35.8522   30.9583   41.1098 H   0  0  0  0  0  0  0  0  0  0  0  0
   38.8749   29.2872   44.0714 H   0  0  0  0  0  0  0  0  0  0  0  0
   39.0409   26.7891   43.5361 H   0  0  0  0  0  0  0  0  0  0  0  0
   37.7434   25.9056   41.5204 H   0  0  0  0  0  0  0  0  0  0  0  0
   34.3100   29.1233   41.1890 H   0  0  0  0  0  0  0  0  0  0  0  0
   34.1874   30.0701   39.6675 H   0  0  0  0  0  0  0  0  0  0  0  0
   35.0088   28.4726   39.6675 H   0  0  0  0  0  0  0  0  0  0  0  0
  1  2  1  0
  1 12  1  0
  2  6  1  0
  3  2  1  0
  3  4  2  0
  4  5  1  0
  5 10  1  0
  6  5  2  0
  6  7  1  0
  7  8  2  0
  9  7  1  0
 10 11  1  0
 12 17  1  0
 14 13  2  0
 15 14  1  0
 16 17  1  0
 16 15  2  0
 17 18  2  0
 18 13  1  0
 19 12  1  0
  1 20  1  0
  1 21  1  0
  4 22  1  0
  9 23  1  0
  9 24  1  0
 10 25  1  0
 10 26  1  0
 11 27  1  0
 11 28  1  0
 11 29  1  0
 12 30  1  1
 13 31  1  0
 14 32  1  0
 15 33  1  0
 19 34  1  0
 19 35  1  0
 19 36  1  0
M  ISO  8  20   8  21   8  22  14  25   8  26   8  27   8  28   8  29   8
M  ISO  7  30   8  31  14  32  14  33  14  34   8  35   8  36   8
M  END
>  <minimizedAffinity>  (1) 
-4.48972893

>  <minimizedRMSD>  (1) 
0.405417472

$$$$
