
     RDKit          3D

 31 32  0  0  1  0  0  0  0  0999 V2000
   37.0700   29.3830   39.0260 C   0  0  0  0  0  0  0  0  0  0  0  0
   38.4300   29.8570   39.2000 N   0  0  0  0  0  0  0  0  0  0  0  0
   39.5550   29.1880   39.2730 N   0  0  0  0  0  0  0  0  0  0  0  0
   40.6310   29.9580   39.4370 C   0  0  0  0  0  0  0  0  0  0  0  0
   40.2100   31.2540   39.4780 C   0  0  0  0  0  0  0  0  0  0  0  0
   38.8240   31.1330   39.3260 C   0  0  0  0  0  0  0  0  0  0  0  0
   37.9710   32.3020   39.3160 C   0  0  0  0  0  0  0  0  0  0  0  0
   37.5910   32.9330   40.3430 O   0  0  0  0  0  0  0  0  0  0  0  0
   37.4330   32.9150   38.1520 N   0  0  0  0  0  0  0  0  0  0  0  0
   41.1540   32.7570   39.6760 S   0  0  0  0  0  0  0  0  0  0  0  0
   36.2120   29.5980   40.2940 C   0  0  2  0  0  0  0  0  0  0  0  0
   37.9440   28.9480   43.4600 C   0  0  0  0  0  0  0  0  0  0  0  0
   37.8060   27.5230   43.5710 C   0  0  0  0  0  0  0  0  0  0  0  0
   37.1310   26.8340   42.5650 C   0  0  0  0  0  0  0  0  0  0  0  0
   36.6330   27.5750   41.5200 N   0  0  0  0  0  0  0  0  0  0  0  0
   36.8040   28.9490   41.4830 C   0  0  0  0  0  0  0  0  0  0  0  0
   37.4330   29.6410   42.4070 N   0  0  0  0  0  0  0  0  0  0  0  0
   34.8260   29.1880   40.0890 C   0  0  0  0  0  0  0  0  0  0  0  0
   36.6088   29.9280   38.1892 H   0  0  0  0  0  0  0  0  0  0  0  0
   37.1113   28.3024   38.8244 H   0  0  0  0  0  0  0  0  0  0  0  0
   41.6710   29.6103   39.5236 H   0  0  0  0  0  0  0  0  0  0  0  0
   36.8329   33.7476   38.2390 H   0  0  0  0  0  0  0  0  0  0  0  0
   37.6433   32.5267   37.2215 H   0  0  0  0  0  0  0  0  0  0  0  0
   41.3192   33.0201   41.0103 H   0  0  0  0  0  0  0  0  0  0  0  0
   36.2044   30.6802   40.4909 H   0  0  0  0  0  0  0  0  0  0  0  0
   38.4789   29.4955   44.2500 H   0  0  0  0  0  0  0  0  0  0  0  0
   38.2253   26.9851   44.4341 H   0  0  0  0  0  0  0  0  0  0  0  0
   37.0021   25.7423   42.6056 H   0  0  0  0  0  0  0  0  0  0  0  0
   34.3382   29.0437   41.0643 H   0  0  0  0  0  0  0  0  0  0  0  0
   34.2929   29.9669   39.5241 H   0  0  0  0  0  0  0  0  0  0  0  0
   34.8025   28.2444   39.5241 H   0  0  0  0  0  0  0  0  0  0  0  0
  1  2  1  0
  1 11  1  0
  2  3  1  0
  2  6  1  0
  3  4  2  0
  4  5  1  0
  5 10  1  0
  6  5  2  0
  7  6  1  0
  7  8  2  0
  9  7  1  0
 11 16  1  0
 12 13  2  0
 14 13  1  0
 15 14  2  0
 16 15  1  0
 16 17  2  0
 17 12  1  0
 18 11  1  0
  1 19  1  0
  1 20  1  0
  4 21  1  0
  9 22  1  0
  9 23  1  0
 10 24  1  0
 11 25  1  1
 12 26  1  0
 13 27  1  0
 14 28  1  0
 18 29  1  0
 18 30  1  0
 18 31  1  0
M  ISO  8  19   8  20   8  21  14  24  11  25   8  26  14  27  14  28  14
M  ISO  3  29   8  30   8  31   8
M  END
>  <minimizedAffinity>  (1) 
-4.37271881

>  <minimizedRMSD>  (1) 
0.746572733

$$$$
