
     RDKit          3D

 33 34  0  0  1  0  0  0  0  0999 V2000
   37.0610   29.3630   39.0200 C   0  0  0  0  0  0  0  0  0  0  0  0
   38.4220   29.8360   39.1830 N   0  0  0  0  0  0  0  0  0  0  0  0
   39.5470   29.1630   39.2530 N   0  0  0  0  0  0  0  0  0  0  0  0
   40.6260   29.9290   39.4050 C   0  0  0  0  0  0  0  0  0  0  0  0
   40.2060   31.2230   39.4430 C   0  0  0  0  0  0  0  0  0  0  0  0
   38.8290   31.1070   39.3010 C   0  0  0  0  0  0  0  0  0  0  0  0
   37.9750   32.2790   39.2900 C   0  0  0  0  0  0  0  0  0  0  0  0
   37.5920   32.9090   40.3200 O   0  0  0  0  0  0  0  0  0  0  0  0
   37.4370   32.9010   38.1310 N   0  0  0  0  0  0  0  0  0  0  0  0
   41.0010   32.4710   39.5980 C   0  0  0  0  0  0  0  0  0  0  0  0
   36.2080   29.5940   40.2920 C   0  0  2  0  0  0  0  0  0  0  0  0
   37.9530   28.9560   43.4570 C   0  0  0  0  0  0  0  0  0  0  0  0
   37.8090   27.5210   43.5690 C   0  0  0  0  0  0  0  0  0  0  0  0
   37.1250   26.8250   42.5670 C   0  0  0  0  0  0  0  0  0  0  0  0
   36.6320   27.5760   41.5290 N   0  0  0  0  0  0  0  0  0  0  0  0
   36.8050   28.9530   41.4840 C   0  0  0  0  0  0  0  0  0  0  0  0
   37.4390   29.6460   42.4010 N   0  0  0  0  0  0  0  0  0  0  0  0
   34.8200   29.1890   40.1010 C   0  0  0  0  0  0  0  0  0  0  0  0
   36.5971   29.8999   38.1794 H   0  0  0  0  0  0  0  0  0  0  0  0
   37.0990   28.2803   38.8295 H   0  0  0  0  0  0  0  0  0  0  0  0
   41.6660   29.5797   39.4851 H   0  0  0  0  0  0  0  0  0  0  0  0
   36.8378   33.7335   38.2245 H   0  0  0  0  0  0  0  0  0  0  0  0
   37.6463   32.5193   37.1975 H   0  0  0  0  0  0  0  0  0  0  0  0
   41.1389   32.6874   40.6676 H   0  0  0  0  0  0  0  0  0  0  0  0
   41.9835   32.3416   39.1205 H   0  0  0  0  0  0  0  0  0  0  0  0
   40.4684   33.3067   39.1205 H   0  0  0  0  0  0  0  0  0  0  0  0
   36.2047   30.6784   40.4766 H   0  0  0  0  0  0  0  0  0  0  0  0
   38.4912   29.5039   44.2445 H   0  0  0  0  0  0  0  0  0  0  0  0
   38.2319   26.9842   44.4309 H   0  0  0  0  0  0  0  0  0  0  0  0
   36.9894   25.7342   42.6085 H   0  0  0  0  0  0  0  0  0  0  0  0
   34.3407   29.0491   41.0811 H   0  0  0  0  0  0  0  0  0  0  0  0
   34.2847   29.9684   39.5389 H   0  0  0  0  0  0  0  0  0  0  0  0
   34.7878   28.2440   39.5389 H   0  0  0  0  0  0  0  0  0  0  0  0
  1  2  1  0
  1 11  1  0
  2  3  1  0
  2  6  1  0
  3  4  2  0
  4  5  1  0
  5 10  1  0
  6  5  2  0
  7  6  1  0
  7  8  2  0
  9  7  1  0
 11 16  1  0
 12 13  2  0
 14 13  1  0
 15 14  2  0
 16 15  1  0
 16 17  2  0
 17 12  1  0
 18 11  1  0
  1 19  1  0
  1 20  1  0
  4 21  1  0
  9 22  1  0
  9 23  1  0
 10 24  1  0
 10 25  1  0
 10 26  1  0
 11 27  1  1
 12 28  1  0
 13 29  1  0
 14 30  1  0
 18 31  1  0
 18 32  1  0
 18 33  1  0
M  ISO  8  19   8  20   8  21  14  24   8  25   8  26   8  27   8  28  14
M  ISO  5  29  14  30  14  31   8  32   8  33   8
M  END
>  <minimizedAffinity>  (1) 
-4.3593235

>  <minimizedRMSD>  (1) 
0.764275074

$$$$
