
     RDKit          3D

 32 33  0  0  1  0  0  0  0  0999 V2000
   37.0680   29.3300   39.0280 C   0  0  0  0  0  0  0  0  0  0  0  0
   38.4170   29.8370   39.1850 N   0  0  0  0  0  0  0  0  0  0  0  0
   39.5590   29.1910   39.2680 N   0  0  0  0  0  0  0  0  0  0  0  0
   40.6220   29.9860   39.4130 C   0  0  0  0  0  0  0  0  0  0  0  0
   40.1630   31.2610   39.4300 C   0  0  0  0  0  0  0  0  0  0  0  0
   38.7860   31.1210   39.2850 C   0  0  0  0  0  0  0  0  0  0  0  0
   37.9230   32.2700   39.2520 C   0  0  0  0  0  0  0  0  0  0  0  0
   37.4950   32.9070   40.2530 O   0  0  0  0  0  0  0  0  0  0  0  0
   37.4090   32.8790   38.0590 N   0  0  0  0  0  0  0  0  0  0  0  0
   40.9320   32.4920   39.5660 C   0  0  0  0  0  0  0  0  0  0  0  0
   41.0540   33.0020   40.7270 O   0  0  0  0  0  0  0  0  0  0  0  0
   36.2090   29.5710   40.2930 C   0  0  2  0  0  0  0  0  0  0  0  0
   37.9400   28.9560   43.4710 C   0  0  0  0  0  0  0  0  0  0  0  0
   37.7950   27.5280   43.6050 C   0  0  0  0  0  0  0  0  0  0  0  0
   37.1110   26.8310   42.6070 C   0  0  0  0  0  0  0  0  0  0  0  0
   36.6190   27.5620   41.5560 N   0  0  0  0  0  0  0  0  0  0  0  0
   36.7950   28.9280   41.4930 C   0  0  0  0  0  0  0  0  0  0  0  0
   37.4320   29.6290   42.4070 N   0  0  0  0  0  0  0  0  0  0  0  0
   34.8210   29.1630   40.0990 C   0  0  0  0  0  0  0  0  0  0  0  0
   36.5945   29.8377   38.1748 H   0  0  0  0  0  0  0  0  0  0  0  0
   37.1295   28.2447   38.8598 H   0  0  0  0  0  0  0  0  0  0  0  0
   41.6709   29.6667   39.5018 H   0  0  0  0  0  0  0  0  0  0  0  0
   36.7945   33.7029   38.1250 H   0  0  0  0  0  0  0  0  0  0  0  0
   37.6545   32.4923   37.1365 H   0  0  0  0  0  0  0  0  0  0  0  0
   41.3948   32.9681   38.6890 H   0  0  0  0  0  0  0  0  0  0  0  0
   36.2098   30.6569   40.4686 H   0  0  0  0  0  0  0  0  0  0  0  0
   38.4765   29.5152   44.2516 H   0  0  0  0  0  0  0  0  0  0  0  0
   38.2138   26.9993   44.4740 H   0  0  0  0  0  0  0  0  0  0  0  0
   36.9725   25.7411   42.6615 H   0  0  0  0  0  0  0  0  0  0  0  0
   34.3401   29.0216   41.0782 H   0  0  0  0  0  0  0  0  0  0  0  0
   34.2852   29.9416   39.5363 H   0  0  0  0  0  0  0  0  0  0  0  0
   34.7917   28.2183   39.5363 H   0  0  0  0  0  0  0  0  0  0  0  0
  1  2  1  0
  1 12  1  0
  2  3  1  0
  2  6  1  0
  3  4  2  0
  4  5  1  0
  5 10  1  0
  6  5  2  0
  7  6  1  0
  7  8  2  0
  9  7  1  0
 10 11  2  0
 12 17  1  0
 13 14  2  0
 15 14  1  0
 16 15  2  0
 17 16  1  0
 17 18  2  0
 18 13  1  0
 19 12  1  0
  1 20  1  0
  1 21  1  0
  4 22  1  0
  9 23  1  0
  9 24  1  0
 10 25  1  0
 12 26  1  1
 13 27  1  0
 14 28  1  0
 15 29  1  0
 19 30  1  0
 19 31  1  0
 19 32  1  0
M  ISO  8  20   8  21   8  22  14  25   6  26   8  27  14  28  14  29  14
M  ISO  3  30   8  31   8  32   8
M  END
>  <minimizedAffinity>  (1) 
-4.33911133

>  <minimizedRMSD>  (1) 
0.841200173

$$$$
