
     RDKit          3D

 42 44  0  0  1  0  0  0  0  0999 V2000
   39.8150   31.1220   39.9060 C   0  0  1  0  0  0  0  0  0  0  0  0
   43.1060   30.4380   38.4600 C   0  0  0  0  0  0  0  0  0  0  0  0
   43.9700   30.6480   39.5900 C   0  0  0  0  0  0  0  0  0  0  0  0
   43.3880   31.0160   40.8060 C   0  0  0  0  0  0  0  0  0  0  0  0
   42.0290   31.1450   40.8090 N   0  0  0  0  0  0  0  0  0  0  0  0
   41.2590   30.9330   39.7000 C   0  0  0  0  0  0  0  0  0  0  0  0
   41.7690   30.5830   38.5300 N   0  0  0  0  0  0  0  0  0  0  0  0
   39.4700   31.3350   41.4090 C   0  0  0  0  0  0  0  0  0  0  0  0
   38.9880   30.1220   42.0390 N   0  0  0  0  0  0  0  0  0  0  0  0
   39.6080   29.3330   42.8840 N   0  0  0  0  0  0  0  0  0  0  0  0
   38.8720   28.2860   43.2800 C   0  0  0  0  0  0  0  0  0  0  0  0
   37.6750   28.3900   42.6460 C   0  0  0  0  0  0  0  0  0  0  0  0
   37.7980   29.5510   41.8840 C   0  0  0  0  0  0  0  0  0  0  0  0
   36.7220   29.9980   41.0620 C   0  0  0  0  0  0  0  0  0  0  0  0
   36.4950   29.6630   39.8740 O   0  0  0  0  0  0  0  0  0  0  0  0
   35.7030   30.9270   41.4780 N   0  0  0  0  0  0  0  0  0  0  0  0
   36.5320   27.4930   42.7440 C   0  0  0  0  0  0  0  0  0  0  0  0
   36.7490   26.2290   42.7130 O   0  0  0  0  0  0  0  0  0  0  0  0
   39.2660   32.1710   39.0730 C   0  0  0  0  0  0  0  0  0  0  0  0
   39.6870   33.5350   39.4010 C   0  0  0  0  0  0  0  0  0  0  0  0
   38.7210   34.3620   39.9860 C   0  0  0  0  0  0  0  0  0  0  0  0
   38.9820   35.6760   40.3140 C   0  0  0  0  0  0  0  0  0  0  0  0
   40.2180   36.2370   40.0760 C   0  0  0  0  0  0  0  0  0  0  0  0
   41.1990   35.4590   39.4990 C   0  0  0  0  0  0  0  0  0  0  0  0
   40.8990   34.1520   39.1870 C   0  0  0  0  0  0  0  0  0  0  0  0
   39.3295   30.1878   39.5873 H   0  0  0  0  0  0  0  0  0  0  0  0
   43.5555   30.1470   37.4991 H   0  0  0  0  0  0  0  0  0  0  0  0
   45.0591   30.5224   39.4998 H   0  0  0  0  0  0  0  0  0  0  0  0
   43.9906   31.1917   41.7093 H   0  0  0  0  0  0  0  0  0  0  0  0
   40.3751   31.6717   41.9356 H   0  0  0  0  0  0  0  0  0  0  0  0
   38.6688   32.0864   41.4676 H   0  0  0  0  0  0  0  0  0  0  0  0
   39.1774   27.4960   43.9818 H   0  0  0  0  0  0  0  0  0  0  0  0
   34.9570   31.2007   40.8226 H   0  0  0  0  0  0  0  0  0  0  0  0
   35.7202   31.3177   42.4309 H   0  0  0  0  0  0  0  0  0  0  0  0
   35.5103   27.8885   42.8420 H   0  0  0  0  0  0  0  0  0  0  0  0
   38.1699   32.1277   39.1552 H   0  0  0  0  0  0  0  0  0  0  0  0
   39.6482   31.9772   38.0599 H   0  0  0  0  0  0  0  0  0  0  0  0
   37.7215   33.9507   40.1907 H   0  0  0  0  0  0  0  0  0  0  0  0
   38.1904   36.2863   40.7732 H   0  0  0  0  0  0  0  0  0  0  0  0
   40.4180   37.2856   40.3414 H   0  0  0  0  0  0  0  0  0  0  0  0
   42.1973   35.8725   39.2929 H   0  0  0  0  0  0  0  0  0  0  0  0
   41.6960   33.5491   38.7273 H   0  0  0  0  0  0  0  0  0  0  0  0
  1  8  1  0
  2  7  2  0
  2  3  1  0
  3  4  2  0
  4  5  1  0
  6  1  1  0
  6  5  2  0
  7  6  1  0
  8  9  1  0
  9 10  1  0
 10 11  2  0
 12 17  1  0
 12 11  1  0
 13  9  1  0
 13 12  2  0
 14 16  1  0
 14 13  1  0
 15 14  2  0
 18 17  2  0
 19 20  1  0
 19  1  1  0
 20 21  2  0
 21 22  1  0
 23 22  2  0
 24 23  1  0
 25 20  1  0
 25 24  2  0
  1 26  1  6
  2 27  1  0
  3 28  1  0
  4 29  1  0
  8 30  1  0
  8 31  1  0
 11 32  1  0
 16 33  1  0
 16 34  1  0
 17 35  1  0
 19 36  1  0
 19 37  1  0
 21 38  1  0
 22 39  1  0
 23 40  1  0
 24 41  1  0
 25 42  1  0
M  ISO  8  26   8  27  14  28  14  29  14  30   8  31   8  32  14  35   6
M  ISO  7  36   8  37   8  38  14  39  14  40  14  41  14  42  14
M  END
>  <minimizedAffinity>  (1) 
-5.27091265

>  <minimizedRMSD>  (1) 
7.04248333

$$$$
