
     RDKit          3D

 46 48  0  0  1  0  0  0  0  0999 V2000
   37.8320   29.3110   39.9360 C   0  0  1  0  0  0  0  0  0  0  0  0
   37.5780   28.8610   43.5960 C   0  0  0  0  0  0  0  0  0  0  0  0
   37.1730   27.4850   43.6830 C   0  0  0  0  0  0  0  0  0  0  0  0
   37.0000   26.7680   42.5110 C   0  0  0  0  0  0  0  0  0  0  0  0
   37.2300   27.4260   41.3290 N   0  0  0  0  0  0  0  0  0  0  0  0
   37.6190   28.7550   41.3130 C   0  0  0  0  0  0  0  0  0  0  0  0
   37.7950   29.4730   42.4170 N   0  0  0  0  0  0  0  0  0  0  0  0
   39.3170   29.4490   39.6120 C   0  0  0  0  0  0  0  0  0  0  0  0
   39.8530   30.7560   39.9920 N   0  0  0  0  0  0  0  0  0  0  0  0
   40.6190   31.0640   41.0090 N   0  0  0  0  0  0  0  0  0  0  0  0
   40.9380   32.3620   41.0600 C   0  0  0  0  0  0  0  0  0  0  0  0
   40.3410   32.9470   40.0030 C   0  0  0  0  0  0  0  0  0  0  0  0
   39.6770   31.9180   39.3650 C   0  0  0  0  0  0  0  0  0  0  0  0
   38.9210   32.1390   38.1730 C   0  0  0  0  0  0  0  0  0  0  0  0
   37.6700   32.3170   38.1070 O   0  0  0  0  0  0  0  0  0  0  0  0
   39.4580   32.1950   36.8420 N   0  0  0  0  0  0  0  0  0  0  0  0
   40.3870   34.3620   39.6110 C   0  0  0  0  0  0  0  0  0  0  0  0
   39.4340   35.1240   40.0080 O   0  0  0  0  0  0  0  0  0  0  0  0
   37.0650   28.5600   38.9740 C   0  0  0  0  0  0  0  0  0  0  0  0
   36.0140   29.2810   38.3040 N   0  0  0  0  0  0  0  0  0  0  0  0
   34.8150   28.4520   38.5100 C   0  0  0  0  0  0  0  0  0  0  0  0
   33.6590   28.9390   37.7060 C   0  0  0  0  0  0  0  0  0  0  0  0
   33.9580   28.9830   36.2860 N   0  0  0  0  0  0  0  0  0  0  0  0
   35.2970   28.5380   36.0970 C   0  0  0  0  0  0  0  0  0  0  0  0
   36.2480   29.4220   36.8710 C   0  0  0  0  0  0  0  0  0  0  0  0
   37.4479   30.3406   39.8869 H   0  0  0  0  0  0  0  0  0  0  0  0
   37.7154   29.4339   44.5249 H   0  0  0  0  0  0  0  0  0  0  0  0
   37.0038   27.0107   44.6610 H   0  0  0  0  0  0  0  0  0  0  0  0
   36.6904   25.7126   42.5269 H   0  0  0  0  0  0  0  0  0  0  0  0
   39.8707   28.6689   40.1550 H   0  0  0  0  0  0  0  0  0  0  0  0
   39.4333   29.3431   38.5233 H   0  0  0  0  0  0  0  0  0  0  0  0
   41.5652   32.8555   41.8170 H   0  0  0  0  0  0  0  0  0  0  0  0
   38.8322   32.3598   36.0407 H   0  0  0  0  0  0  0  0  0  0  0  0
   40.4689   32.0703   36.6888 H   0  0  0  0  0  0  0  0  0  0  0  0
   41.2110   34.7552   38.9975 H   0  0  0  0  0  0  0  0  0  0  0  0
   37.7596   28.1872   38.2068 H   0  0  0  0  0  0  0  0  0  0  0  0
   36.5621   27.7681   39.5485 H   0  0  0  0  0  0  0  0  0  0  0  0
   35.0429   27.4172   38.2148 H   0  0  0  0  0  0  0  0  0  0  0  0
   34.5393   28.5090   39.5734 H   0  0  0  0  0  0  0  0  0  0  0  0
   32.8057   28.2639   37.8675 H   0  0  0  0  0  0  0  0  0  0  0  0
   33.4271   29.9630   38.0340 H   0  0  0  0  0  0  0  0  0  0  0  0
   33.3106   28.3664   35.7745 H   0  0  0  0  0  0  0  0  0  0  0  0
   35.3905   27.5017   36.4537 H   0  0  0  0  0  0  0  0  0  0  0  0
   35.5470   28.5874   35.0269 H   0  0  0  0  0  0  0  0  0  0  0  0
   37.2835   29.1302   36.6415 H   0  0  0  0  0  0  0  0  0  0  0  0
   36.0800   30.4698   36.5814 H   0  0  0  0  0  0  0  0  0  0  0  0
  1  6  1  0
  2  3  2  0
  4  3  1  0
  5  4  2  0
  6  5  1  0
  6  7  2  0
  7  2  1  0
  8  1  1  0
  8  9  1  0
  9 10  1  0
 10 11  2  0
 12 11  1  0
 13  9  1  0
 13 12  2  0
 14 13  1  0
 15 14  2  0
 16 14  1  0
 17 12  1  0
 17 18  2  0
 19  1  1  0
 20 21  1  0
 20 19  1  0
 22 21  1  0
 23 22  1  0
 24 23  1  0
 24 25  1  0
 25 20  1  0
  1 26  1  1
  2 27  1  0
  3 28  1  0
  4 29  1  0
  8 30  1  0
  8 31  1  0
 11 32  1  0
 16 33  1  0
 16 34  1  0
 17 35  1  0
 19 36  1  0
 19 37  1  0
 21 38  1  0
 21 39  1  0
 22 40  1  0
 22 41  1  0
 23 42  1  0
 24 43  1  0
 24 44  1  0
 25 45  1  0
 25 46  1  0
M  ISO  8  26   8  27  14  28  14  29  14  30   8  31   8  32  14  35   6
M  ISO  8  36   8  37   8  38  13  39  13  40  13  41  13  42   5  43  13
M  ISO  3  44  13  45  13  46  13
M  END
>  <minimizedAffinity>  (1) 
-4.93645763

>  <minimizedRMSD>  (1) 
1.84433067

$$$$
