
     RDKit          3D

 45 47  0  0  1  0  0  0  0  0999 V2000
   37.9050   29.2770   39.9050 C   0  0  1  0  0  0  0  0  0  0  0  0
   37.5650   28.8640   43.5550 C   0  0  0  0  0  0  0  0  0  0  0  0
   37.1680   27.4710   43.6460 C   0  0  0  0  0  0  0  0  0  0  0  0
   37.0330   26.7370   42.4660 C   0  0  0  0  0  0  0  0  0  0  0  0
   37.2900   27.3910   41.2870 N   0  0  0  0  0  0  0  0  0  0  0  0
   37.6650   28.7210   41.2720 C   0  0  0  0  0  0  0  0  0  0  0  0
   37.8050   29.4590   42.3670 N   0  0  0  0  0  0  0  0  0  0  0  0
   39.3990   29.4560   39.6150 C   0  0  0  0  0  0  0  0  0  0  0  0
   39.8990   30.7620   40.0440 N   0  0  0  0  0  0  0  0  0  0  0  0
   40.6240   31.1090   41.0650 N   0  0  0  0  0  0  0  0  0  0  0  0
   40.8960   32.4160   41.1200 C   0  0  0  0  0  0  0  0  0  0  0  0
   40.3010   32.9980   40.0410 C   0  0  0  0  0  0  0  0  0  0  0  0
   39.6920   31.9240   39.4010 C   0  0  0  0  0  0  0  0  0  0  0  0
   38.9400   32.1320   38.1830 C   0  0  0  0  0  0  0  0  0  0  0  0
   37.6950   32.2710   38.1000 O   0  0  0  0  0  0  0  0  0  0  0  0
   39.5040   32.2120   36.8780 N   0  0  0  0  0  0  0  0  0  0  0  0
   40.3050   34.3960   39.6600 C   0  0  0  0  0  0  0  0  0  0  0  0
   39.3600   35.1430   40.1050 O   0  0  0  0  0  0  0  0  0  0  0  0
   37.2220   28.4780   38.9110 C   0  0  0  0  0  0  0  0  0  0  0  0
   36.1130   29.0100   38.2360 N   0  0  0  0  0  0  0  0  0  0  0  0
   36.2170   29.3670   36.8710 C   0  0  0  0  0  0  0  0  0  0  0  0
   35.0770   28.7080   36.0500 C   0  0  0  0  0  0  0  0  0  0  0  0
   33.8950   29.2240   36.5560 O   0  0  0  0  0  0  0  0  0  0  0  0
   33.6930   28.8960   37.8780 C   0  0  0  0  0  0  0  0  0  0  0  0
   34.9120   28.3030   38.5580 C   0  0  0  0  0  0  0  0  0  0  0  0
   37.4760   30.2888   39.8574 H   0  0  0  0  0  0  0  0  0  0  0  0
   37.6733   29.4510   44.4790 H   0  0  0  0  0  0  0  0  0  0  0  0
   36.9776   27.0036   44.6234 H   0  0  0  0  0  0  0  0  0  0  0  0
   36.7332   25.6787   42.4806 H   0  0  0  0  0  0  0  0  0  0  0  0
   39.9582   28.6719   40.1465 H   0  0  0  0  0  0  0  0  0  0  0  0
   39.5397   29.3847   38.5264 H   0  0  0  0  0  0  0  0  0  0  0  0
   41.4896   32.9270   41.8923 H   0  0  0  0  0  0  0  0  0  0  0  0
   38.8941   32.3624   36.0617 H   0  0  0  0  0  0  0  0  0  0  0  0
   40.5219   32.1194   36.7503 H   0  0  0  0  0  0  0  0  0  0  0  0
   41.0928   34.8046   39.0100 H   0  0  0  0  0  0  0  0  0  0  0  0
   37.9667   28.2162   38.1449 H   0  0  0  0  0  0  0  0  0  0  0  0
   36.7941   27.6506   39.4961 H   0  0  0  0  0  0  0  0  0  0  0  0
   36.1462   30.4606   36.7762 H   0  0  0  0  0  0  0  0  0  0  0  0
   37.1845   29.0153   36.4834 H   0  0  0  0  0  0  0  0  0  0  0  0
   35.1003   27.6151   36.1724 H   0  0  0  0  0  0  0  0  0  0  0  0
   35.1810   28.9180   34.9752 H   0  0  0  0  0  0  0  0  0  0  0  0
   33.4033   29.8079   38.4206 H   0  0  0  0  0  0  0  0  0  0  0  0
   32.9092   28.1245   37.8990 H   0  0  0  0  0  0  0  0  0  0  0  0
   35.0213   27.2564   38.2376 H   0  0  0  0  0  0  0  0  0  0  0  0
   34.7597   28.3775   39.6448 H   0  0  0  0  0  0  0  0  0  0  0  0
  1  6  1  0
  2  3  2  0
  4  3  1  0
  5  4  2  0
  6  5  1  0
  6  7  2  0
  7  2  1  0
  8  1  1  0
  8  9  1  0
  9 10  1  0
 10 11  2  0
 12 11  1  0
 13 12  2  0
 13  9  1  0
 14 13  1  0
 15 14  2  0
 16 14  1  0
 17 12  1  0
 17 18  2  0
 19  1  1  0
 20 25  1  0
 20 19  1  0
 21 20  1  0
 22 23  1  0
 22 21  1  0
 23 24  1  0
 24 25  1  0
  1 26  1  1
  2 27  1  0
  3 28  1  0
  4 29  1  0
  8 30  1  0
  8 31  1  0
 11 32  1  0
 16 33  1  0
 16 34  1  0
 17 35  1  0
 19 36  1  0
 19 37  1  0
 21 38  1  0
 21 39  1  0
 22 40  1  0
 22 41  1  0
 24 42  1  0
 24 43  1  0
 25 44  1  0
 25 45  1  0
M  ISO  8  26   8  27  14  28  14  29  14  30   8  31   8  32  14  35   6
M  ISO  8  36   8  37   8  38  13  39  13  40  13  41  13  42  13  43  13
M  ISO  2  44  13  45  13
M  END
>  <minimizedAffinity>  (1) 
-4.91558695

>  <minimizedRMSD>  (1) 
1.92659998

$$$$
