
     RDKit          3D

 44 46  0  0  1  0  0  0  0  0999 V2000
   37.2690   29.5020   40.1510 C   0  0  1  0  0  0  0  0  0  0  0  0
   37.6510   28.8750   43.7610 C   0  0  0  0  0  0  0  0  0  0  0  0
   37.2120   27.5150   43.8570 C   0  0  0  0  0  0  0  0  0  0  0  0
   36.8060   26.8730   42.7010 C   0  0  0  0  0  0  0  0  0  0  0  0
   36.8520   27.5840   41.5360 N   0  0  0  0  0  0  0  0  0  0  0  0
   37.2810   28.8830   41.5060 C   0  0  0  0  0  0  0  0  0  0  0  0
   37.6760   29.5350   42.5800 N   0  0  0  0  0  0  0  0  0  0  0  0
   38.6150   29.3800   39.4370 C   0  0  0  0  0  0  0  0  0  0  0  0
   39.4910   30.5160   39.7050 N   0  0  0  0  0  0  0  0  0  0  0  0
   40.4630   30.6440   40.5910 N   0  0  0  0  0  0  0  0  0  0  0  0
   41.0650   31.8310   40.5560 C   0  0  0  0  0  0  0  0  0  0  0  0
   40.4520   32.5530   39.5750 C   0  0  0  0  0  0  0  0  0  0  0  0
   39.4760   31.6920   39.0720 C   0  0  0  0  0  0  0  0  0  0  0  0
   38.6110   32.0960   38.0120 C   0  0  0  0  0  0  0  0  0  0  0  0
   37.4010   32.4070   38.1310 O   0  0  0  0  0  0  0  0  0  0  0  0
   39.0040   32.2100   36.6310 N   0  0  0  0  0  0  0  0  0  0  0  0
   40.7560   33.9080   39.1620 C   0  0  0  0  0  0  0  0  0  0  0  0
   40.1310   34.8730   39.7290 O   0  0  0  0  0  0  0  0  0  0  0  0
   36.1410   29.0310   39.3710 C   0  0  0  0  0  0  0  0  0  0  0  0
   36.4000   28.5250   38.0270 N   0  0  0  0  0  0  0  0  0  0  0  0
   35.5100   27.3440   37.8920 C   0  0  0  0  0  0  0  0  0  0  0  0
   35.6060   27.1850   36.3850 C   0  0  0  0  0  0  0  0  0  0  0  0
   35.1150   28.5830   35.9970 C   0  0  0  0  0  0  0  0  0  0  0  0
   35.8100   29.4240   37.0340 C   0  0  0  0  0  0  0  0  0  0  0  0
   37.1228   30.5849   40.2771 H   0  0  0  0  0  0  0  0  0  0  0  0
   37.9768   29.3974   44.6726 H   0  0  0  0  0  0  0  0  0  0  0  0
   37.1981   26.9941   44.8258 H   0  0  0  0  0  0  0  0  0  0  0  0
   36.4592   25.8293   42.7194 H   0  0  0  0  0  0  0  0  0  0  0  0
   38.4360   29.3197   38.3533 H   0  0  0  0  0  0  0  0  0  0  0  0
   39.1141   28.4750   39.8137 H   0  0  0  0  0  0  0  0  0  0  0  0
   41.8960   32.1647   41.1948 H   0  0  0  0  0  0  0  0  0  0  0  0
   39.9707   31.9912   36.3509 H   0  0  0  0  0  0  0  0  0  0  0  0
   38.3183   32.5104   35.9235 H   0  0  0  0  0  0  0  0  0  0  0  0
   41.5051   34.1040   38.3807 H   0  0  0  0  0  0  0  0  0  0  0  0
   35.6663   28.2184   39.9404 H   0  0  0  0  0  0  0  0  0  0  0  0
   35.5236   29.9275   39.2124 H   0  0  0  0  0  0  0  0  0  0  0  0
   35.8969   26.4660   38.4300 H   0  0  0  0  0  0  0  0  0  0  0  0
   34.4959   27.4516   38.3044 H   0  0  0  0  0  0  0  0  0  0  0  0
   36.6366   26.9965   36.0499 H   0  0  0  0  0  0  0  0  0  0  0  0
   35.0530   26.3391   35.9506 H   0  0  0  0  0  0  0  0  0  0  0  0
   35.4296   28.8543   34.9785 H   0  0  0  0  0  0  0  0  0  0  0  0
   34.0206   28.6929   35.9803 H   0  0  0  0  0  0  0  0  0  0  0  0
   36.5996   30.0247   36.5590 H   0  0  0  0  0  0  0  0  0  0  0  0
   35.0931   30.1057   37.5151 H   0  0  0  0  0  0  0  0  0  0  0  0
  1  6  1  0
  2  3  2  0
  4  3  1  0
  5  4  2  0
  6  5  1  0
  6  7  2  0
  7  2  1  0
  8  9  1  0
  8  1  1  0
  9 10  1  0
 11 10  2  0
 12 11  1  0
 13 12  2  0
 13  9  1  0
 14 15  2  0
 14 13  1  0
 16 14  1  0
 17 12  1  0
 17 18  2  0
 19  1  1  0
 20 19  1  0
 21 20  1  0
 22 21  1  0
 23 22  1  0
 23 24  1  0
 24 20  1  0
  1 25  1  1
  2 26  1  0
  3 27  1  0
  4 28  1  0
  8 29  1  0
  8 30  1  0
 11 31  1  0
 16 32  1  0
 16 33  1  0
 17 34  1  0
 19 35  1  0
 19 36  1  0
 21 37  1  0
 21 38  1  0
 22 39  1  0
 22 40  1  0
 23 41  1  0
 23 42  1  0
 24 43  1  0
 24 44  1  0
M  ISO  8  25   8  26  14  27  14  28  14  29   8  30   8  31  14  34   6
M  ISO  8  35   8  36   8  37  13  38  13  39  13  40  13  41  13  42  13
M  ISO  2  43  13  44  13
M  END
>  <minimizedAffinity>  (1) 
-4.61903906

>  <minimizedRMSD>  (1) 
1.8298924

$$$$
