
     RDKit          3D

 45 47  0  0  1  0  0  0  0  0999 V2000
   38.4200   29.7110   38.6240 C   0  0  1  0  0  0  0  0  0  0  0  0
   41.0260   27.4350   37.4000 C   0  0  0  0  0  0  0  0  0  0  0  0
   40.2710   26.5630   36.5460 C   0  0  0  0  0  0  0  0  0  0  0  0
   38.8980   26.7890   36.4230 C   0  0  0  0  0  0  0  0  0  0  0  0
   38.3850   27.8360   37.1360 N   0  0  0  0  0  0  0  0  0  0  0  0
   39.1570   28.6270   37.9300 C   0  0  0  0  0  0  0  0  0  0  0  0
   40.4550   28.4480   38.0740 N   0  0  0  0  0  0  0  0  0  0  0  0
   38.3170   30.9900   37.7550 C   0  0  0  0  0  0  0  0  0  0  0  0
   39.3800   31.9270   38.0340 N   0  0  0  0  0  0  0  0  0  0  0  0
   40.4660   32.1990   37.3420 N   0  0  0  0  0  0  0  0  0  0  0  0
   41.2430   33.1300   37.8970 C   0  0  0  0  0  0  0  0  0  0  0  0
   40.6370   33.5170   39.0500 C   0  0  0  0  0  0  0  0  0  0  0  0
   39.4820   32.7360   39.0830 C   0  0  0  0  0  0  0  0  0  0  0  0
   38.5600   32.8610   40.1780 C   0  0  0  0  0  0  0  0  0  0  0  0
   38.6790   32.3560   41.3310 O   0  0  0  0  0  0  0  0  0  0  0  0
   37.3220   33.6110   40.1120 N   0  0  0  0  0  0  0  0  0  0  0  0
   41.0880   34.5100   40.0140 C   0  0  0  0  0  0  0  0  0  0  0  0
   41.8460   34.1320   40.9600 O   0  0  0  0  0  0  0  0  0  0  0  0
   37.1010   29.2740   39.0830 C   0  0  0  0  0  0  0  0  0  0  0  0
   37.0850   28.5430   40.3750 C   0  0  0  0  0  0  0  0  0  0  0  0
   36.7910   27.2500   40.7490 C   0  0  0  0  0  0  0  0  0  0  0  0
   36.9350   27.0750   42.1140 C   0  0  0  0  0  0  0  0  0  0  0  0
   37.3190   28.2860   42.5460 N   0  0  0  0  0  0  0  0  0  0  0  0
   37.4070   29.1390   41.5460 N   0  0  0  0  0  0  0  0  0  0  0  0
   37.5960   28.5850   43.9590 C   0  0  0  0  0  0  0  0  0  0  0  0
   36.4880   27.9890   44.8370 C   0  0  0  0  0  0  0  0  0  0  0  0
   39.0085   29.9662   39.5176 H   0  0  0  0  0  0  0  0  0  0  0  0
   42.1081   27.2687   37.5065 H   0  0  0  0  0  0  0  0  0  0  0  0
   40.7596   25.7401   36.0037 H   0  0  0  0  0  0  0  0  0  0  0  0
   38.2626   26.1569   35.7852 H   0  0  0  0  0  0  0  0  0  0  0  0
   37.3523   31.4785   37.9568 H   0  0  0  0  0  0  0  0  0  0  0  0
   38.4008   30.6890   36.7003 H   0  0  0  0  0  0  0  0  0  0  0  0
   42.1939   33.5121   37.4973 H   0  0  0  0  0  0  0  0  0  0  0  0
   36.7052   33.6602   40.9354 H   0  0  0  0  0  0  0  0  0  0  0  0
   37.0588   34.0949   39.2417 H   0  0  0  0  0  0  0  0  0  0  0  0
   40.7797   35.5622   39.9252 H   0  0  0  0  0  0  0  0  0  0  0  0
   36.4665   30.1661   39.1902 H   0  0  0  0  0  0  0  0  0  0  0  0
   36.7387   28.5612   38.3276 H   0  0  0  0  0  0  0  0  0  0  0  0
   36.4813   26.4578   40.0515 H   0  0  0  0  0  0  0  0  0  0  0  0
   36.7732   26.1610   42.7043 H   0  0  0  0  0  0  0  0  0  0  0  0
   38.5641   28.1467   44.2432 H   0  0  0  0  0  0  0  0  0  0  0  0
   37.6296   29.6751   44.1023 H   0  0  0  0  0  0  0  0  0  0  0  0
   36.7459   28.1277   45.8973 H   0  0  0  0  0  0  0  0  0  0  0  0
   35.5364   28.4970   44.6216 H   0  0  0  0  0  0  0  0  0  0  0  0
   36.3873   26.9150   44.6216 H   0  0  0  0  0  0  0  0  0  0  0  0
  1 19  1  0
  2  7  2  0
  3  2  1  0
  4  3  2  0
  4  5  1  0
  5  6  2  0
  6  7  1  0
  6  1  1  0
  8  9  1  0
  8  1  1  0
  9 13  1  0
 10 11  2  0
 10  9  1  0
 11 12  1  0
 12 13  2  0
 12 17  1  0
 13 14  1  0
 14 15  2  0
 16 14  1  0
 17 18  2  0
 19 20  1  0
 20 21  1  0
 20 24  2  0
 21 22  2  0
 22 23  1  0
 23 25  1  0
 24 23  1  0
 25 26  1  0
  1 27  1  1
  2 28  1  0
  3 29  1  0
  4 30  1  0
  8 31  1  0
  8 32  1  0
 11 33  1  0
 16 34  1  0
 16 35  1  0
 17 36  1  0
 19 37  1  0
 19 38  1  0
 21 39  1  0
 22 40  1  0
 25 41  1  0
 25 42  1  0
 26 43  1  0
 26 44  1  0
 26 45  1  0
M  ISO  8  27   8  28  14  29  14  30  14  31   8  32   8  33  14  36   6
M  ISO  8  37   8  38   8  39  14  40  14  41   8  42   8  43   8  44   8
M  ISO  1  45   8
M  END
>  <minimizedAffinity>  (1) 
-4.92004395

>  <minimizedRMSD>  (1) 
1.78063762

$$$$
