
     RDKit          3D

 49 52  0  0  1  0  0  0  0  0999 V2000
   39.3470   29.3000   41.1280 C   0  0  1  0  0  0  0  0  0  0  0  0
   39.2120   26.9390   43.9370 C   0  0  0  0  0  0  0  0  0  0  0  0
   40.2300   25.9920   43.5620 C   0  0  0  0  0  0  0  0  0  0  0  0
   40.9150   26.1990   42.3730 C   0  0  0  0  0  0  0  0  0  0  0  0
   40.5600   27.2980   41.6480 N   0  0  0  0  0  0  0  0  0  0  0  0
   39.5910   28.1640   42.0440 C   0  0  0  0  0  0  0  0  0  0  0  0
   38.9140   28.0060   43.1690 N   0  0  0  0  0  0  0  0  0  0  0  0
   39.9200   29.0300   39.7140 C   0  0  0  0  0  0  0  0  0  0  0  0
   40.8190   30.0780   39.2740 N   0  0  0  0  0  0  0  0  0  0  0  0
   42.1250   30.1770   39.3930 N   0  0  0  0  0  0  0  0  0  0  0  0
   42.6370   31.2890   38.8680 C   0  0  0  0  0  0  0  0  0  0  0  0
   41.5930   31.9960   38.3570 C   0  0  0  0  0  0  0  0  0  0  0  0
   40.4860   31.1960   38.6380 C   0  0  0  0  0  0  0  0  0  0  0  0
   39.1770   31.6190   38.2430 C   0  0  0  0  0  0  0  0  0  0  0  0
   38.4420   32.4640   38.8310 O   0  0  0  0  0  0  0  0  0  0  0  0
   38.4890   31.1170   37.0670 N   0  0  0  0  0  0  0  0  0  0  0  0
   41.6380   33.2830   37.6800 C   0  0  0  0  0  0  0  0  0  0  0  0
   41.5760   34.3400   38.3860 O   0  0  0  0  0  0  0  0  0  0  0  0
   37.9300   29.6620   41.0620 C   0  0  0  0  0  0  0  0  0  0  0  0
   37.1070   28.8590   40.1280 C   0  0  0  0  0  0  0  0  0  0  0  0
   36.7410   27.5400   40.0330 C   0  0  0  0  0  0  0  0  0  0  0  0
   35.9370   27.3110   38.9390 C   0  0  0  0  0  0  0  0  0  0  0  0
   35.8250   28.5310   38.3700 N   0  0  0  0  0  0  0  0  0  0  0  0
   36.4960   29.4310   39.0460 N   0  0  0  0  0  0  0  0  0  0  0  0
   35.0890   28.8450   37.1920 C   0  0  0  0  0  0  0  0  0  0  0  0
   35.5620   29.1170   35.9230 C   0  0  0  0  0  0  0  0  0  0  0  0
   34.6750   29.4010   34.9080 C   0  0  0  0  0  0  0  0  0  0  0  0
   33.3150   29.4210   35.1360 C   0  0  0  0  0  0  0  0  0  0  0  0
   32.8150   29.1500   36.4090 C   0  0  0  0  0  0  0  0  0  0  0  0
   33.7260   28.8630   37.4280 C   0  0  0  0  0  0  0  0  0  0  0  0
   39.8848   30.1626   41.5484 H   0  0  0  0  0  0  0  0  0  0  0  0
   38.6617   26.7873   44.8773 H   0  0  0  0  0  0  0  0  0  0  0  0
   40.4588   25.1268   44.2016 H   0  0  0  0  0  0  0  0  0  0  0  0
   41.7038   25.5119   42.0329 H   0  0  0  0  0  0  0  0  0  0  0  0
   40.4694   28.0772   39.7313 H   0  0  0  0  0  0  0  0  0  0  0  0
   39.0752   28.9948   39.0104 H   0  0  0  0  0  0  0  0  0  0  0  0
   43.6979   31.5793   38.8509 H   0  0  0  0  0  0  0  0  0  0  0  0
   37.5463   31.4614   36.8357 H   0  0  0  0  0  0  0  0  0  0  0  0
   38.9437   30.4165   36.4641 H   0  0  0  0  0  0  0  0  0  0  0  0
   41.7235   33.3410   36.5849 H   0  0  0  0  0  0  0  0  0  0  0  0
   37.5047   29.5496   42.0702 H   0  0  0  0  0  0  0  0  0  0  0  0
   37.9003   30.6928   40.6792 H   0  0  0  0  0  0  0  0  0  0  0  0
   37.0520   26.7606   40.7442 H   0  0  0  0  0  0  0  0  0  0  0  0
   35.4920   26.3612   38.6074 H   0  0  0  0  0  0  0  0  0  0  0  0
   36.6437   29.1069   35.7235 H   0  0  0  0  0  0  0  0  0  0  0  0
   35.0577   29.6153   33.8992 H   0  0  0  0  0  0  0  0  0  0  0  0
   32.6235   29.6512   34.3121 H   0  0  0  0  0  0  0  0  0  0  0  0
   31.7327   29.1619   36.6054 H   0  0  0  0  0  0  0  0  0  0  0  0
   33.3518   28.6467   38.4395 H   0  0  0  0  0  0  0  0  0  0  0  0
  1  6  1  0
  3  2  2  0
  4  3  1  0
  5  6  1  0
  5  4  2  0
  6  7  2  0
  7  2  1  0
  8  1  1  0
  9 10  1  0
  9  8  1  0
 11 10  2  0
 12 13  2  0
 12 11  1  0
 13  9  1  0
 14 13  1  0
 14 15  2  0
 16 14  1  0
 17 12  1  0
 17 18  2  0
 19  1  1  0
 20 19  1  0
 21 20  1  0
 22 21  2  0
 23 22  1  0
 23 24  1  0
 24 20  2  0
 25 30  1  0
 25 23  1  0
 26 25  2  0
 27 28  2  0
 27 26  1  0
 28 29  1  0
 29 30  2  0
  1 31  1  1
  2 32  1  0
  3 33  1  0
  4 34  1  0
  8 35  1  0
  8 36  1  0
 11 37  1  0
 16 38  1  0
 16 39  1  0
 17 40  1  0
 19 41  1  0
 19 42  1  0
 21 43  1  0
 22 44  1  0
 26 45  1  0
 27 46  1  0
 28 47  1  0
 29 48  1  0
 30 49  1  0
M  ISO  8  31   8  32  14  33  14  34  14  35   8  36   8  37  14  40   6
M  ISO  8  41   8  42   8  43  14  44  14  45  14  46  14  47  14  48  14
M  ISO  1  49  14
M  END
>  <minimizedAffinity>  (1) 
-4.72309875

>  <minimizedRMSD>  (1) 
5.51208591

$$$$
