
     RDKit          3D

 42 44  0  0  1  0  0  0  0  0999 V2000
   38.5690   29.6790   39.5410 C   0  0  1  0  0  0  0  0  0  0  0  0
   41.9420   28.6920   40.5910 C   0  0  0  0  0  0  0  0  0  0  0  0
   42.3270   27.8070   39.5200 C   0  0  0  0  0  0  0  0  0  0  0  0
   41.4240   27.5870   38.4940 C   0  0  0  0  0  0  0  0  0  0  0  0
   40.2250   28.2370   38.5840 N   0  0  0  0  0  0  0  0  0  0  0  0
   39.9090   29.0620   39.6130 C   0  0  0  0  0  0  0  0  0  0  0  0
   40.7400   29.3010   40.6140 N   0  0  0  0  0  0  0  0  0  0  0  0
   38.4420   30.6180   38.3140 C   0  0  0  0  0  0  0  0  0  0  0  0
   39.4180   31.6860   38.3360 N   0  0  0  0  0  0  0  0  0  0  0  0
   40.4640   31.8960   37.5600 N   0  0  0  0  0  0  0  0  0  0  0  0
   41.1550   32.9850   37.8590 C   0  0  0  0  0  0  0  0  0  0  0  0
   40.5370   33.5640   38.9170 C   0  0  0  0  0  0  0  0  0  0  0  0
   39.4590   32.7180   39.1780 C   0  0  0  0  0  0  0  0  0  0  0  0
   38.5530   33.0040   40.2480 C   0  0  0  0  0  0  0  0  0  0  0  0
   38.7300   32.7700   41.4760 O   0  0  0  0  0  0  0  0  0  0  0  0
   37.2560   33.6280   40.0600 N   0  0  0  0  0  0  0  0  0  0  0  0
   40.9120   34.7900   39.6190 C   0  0  0  0  0  0  0  0  0  0  0  0
   41.6470   34.6890   40.6490 O   0  0  0  0  0  0  0  0  0  0  0  0
   37.4960   28.6850   39.5540 C   0  0  0  0  0  0  0  0  0  0  0  0
   37.3390   27.9320   40.8220 C   0  0  0  0  0  0  0  0  0  0  0  0
   37.3160   26.6030   41.1840 C   0  0  0  0  0  0  0  0  0  0  0  0
   37.1420   26.4430   42.5400 C   0  0  0  0  0  0  0  0  0  0  0  0
   37.0590   27.7050   42.9920 N   0  0  0  0  0  0  0  0  0  0  0  0
   37.1690   28.5760   42.0190 N   0  0  0  0  0  0  0  0  0  0  0  0
   36.8680   28.0290   44.4130 C   0  0  0  0  0  0  0  0  0  0  0  0
   38.4553   30.2879   40.4500 H   0  0  0  0  0  0  0  0  0  0  0  0
   42.6496   28.8754   41.4130 H   0  0  0  0  0  0  0  0  0  0  0  0
   43.3129   27.3191   39.5181 H   0  0  0  0  0  0  0  0  0  0  0  0
   41.6594   26.9229   37.6493 H   0  0  0  0  0  0  0  0  0  0  0  0
   37.4345   31.0596   38.3094 H   0  0  0  0  0  0  0  0  0  0  0  0
   38.6215   30.0169   37.4104 H   0  0  0  0  0  0  0  0  0  0  0  0
   42.0576   33.3498   37.3469 H   0  0  0  0  0  0  0  0  0  0  0  0
   36.6485   33.8080   40.8721 H   0  0  0  0  0  0  0  0  0  0  0  0
   36.9431   33.8908   39.1145 H   0  0  0  0  0  0  0  0  0  0  0  0
   40.5670   35.7726   39.2647 H   0  0  0  0  0  0  0  0  0  0  0  0
   36.5489   29.2059   39.3496 H   0  0  0  0  0  0  0  0  0  0  0  0
   37.7654   27.9396   38.7913 H   0  0  0  0  0  0  0  0  0  0  0  0
   37.4238   25.7695   40.4743 H   0  0  0  0  0  0  0  0  0  0  0  0
   37.0847   25.5070   43.1150 H   0  0  0  0  0  0  0  0  0  0  0  0
   37.3295   27.2462   45.0328 H   0  0  0  0  0  0  0  0  0  0  0  0
   37.3395   28.9978   44.6348 H   0  0  0  0  0  0  0  0  0  0  0  0
   35.7921   28.0855   44.6348 H   0  0  0  0  0  0  0  0  0  0  0  0
  1 19  1  0
  1  6  1  0
  2  7  2  0
  3  2  1  0
  4  5  1  0
  4  3  2  0
  5  6  2  0
  6  7  1  0
  8  9  1  0
  8  1  1  0
  9 13  1  0
 10 11  2  0
 10  9  1  0
 11 12  1  0
 12 13  2  0
 12 17  1  0
 13 14  1  0
 14 15  2  0
 16 14  1  0
 17 18  2  0
 19 20  1  0
 20 21  1  0
 20 24  2  0
 21 22  2  0
 22 23  1  0
 23 25  1  0
 24 23  1  0
  1 26  1  1
  2 27  1  0
  3 28  1  0
  4 29  1  0
  8 30  1  0
  8 31  1  0
 11 32  1  0
 16 33  1  0
 16 34  1  0
 17 35  1  0
 19 36  1  0
 19 37  1  0
 21 38  1  0
 22 39  1  0
 25 40  1  0
 25 41  1  0
 25 42  1  0
M  ISO  8  26   8  27  14  28  14  29  14  30   8  31   8  32  14  35   6
M  ISO  7  36   8  37   8  38  14  39  14  40   8  41   8  42   8
M  END
>  <minimizedAffinity>  (1) 
-4.54102993

>  <minimizedRMSD>  (1) 
0.764505506

$$$$
