
     RDKit          3D

 17 17  0  0  0  0  0  0  0  0999 V2000
   39.2030   31.8660   40.3400 C   0  0  0  0  0  0  0  0  0  0  0  0
   38.7020   31.0020   41.3290 C   0  0  0  0  0  0  0  0  0  0  0  0
   37.3350   30.6990   41.3120 C   0  0  0  0  0  0  0  0  0  0  0  0
   36.5620   31.2590   40.3350 N   0  0  0  0  0  0  0  0  0  0  0  0
   37.0710   32.0880   39.3960 C   0  0  0  0  0  0  0  0  0  0  0  0
   38.3830   32.3820   39.4090 N   0  0  0  0  0  0  0  0  0  0  0  0
   36.7180   29.8300   42.2730 N   0  0  0  0  0  0  0  0  0  0  0  0
   37.4610   28.9670   43.1190 C   0  0  0  0  0  0  0  0  0  0  0  0
   38.5570   28.5040   42.6230 N   0  0  0  0  0  0  0  0  0  0  0  0
   36.9350   28.7000   44.4170 N   0  0  0  0  0  0  0  0  0  0  0  0
   39.1210   27.8680   43.2270 H   0  0  0  0  0  0  0  0  0  0  0  0
   40.2729   32.1213   40.3281 H   0  0  0  0  0  0  0  0  0  0  0  0
   39.3657   30.5755   42.0955 H   0  0  0  0  0  0  0  0  0  0  0  0
   36.4153   32.5197   38.6255 H   0  0  0  0  0  0  0  0  0  0  0  0
   35.6910   29.8330   42.3519 H   0  0  0  0  0  0  0  0  0  0  0  0
   37.4445   28.0785   45.0613 H   0  0  0  0  0  0  0  0  0  0  0  0
   36.0455   29.1286   44.7104 H   0  0  0  0  0  0  0  0  0  0  0  0
  1  2  2  0
  3  2  1  0
  3  7  1  0
  4  3  2  0
  5  6  2  0
  5  4  1  0
  6  1  1  0
  7  8  1  0
  8 10  1  0
  9  8  2  0
  9 11  1  0
  1 12  1  0
  2 13  1  0
  5 14  1  0
  7 15  1  0
 10 16  1  0
 10 17  1  0
M  ISO  3  12  14  13  14  14  14
M  END
>  <minimizedAffinity>  (1) 
-3.85619426

>  <minimizedRMSD>  (1) 
3.89656997

$$$$
