
     RDKit          3D

 24 25  0  0  0  0  0  0  0  0999 V2000
   39.6960   30.7340   41.2880 C   0  0  0  0  0  0  0  0  0  0  0  0
   38.9350   30.0400   42.2430 C   0  0  0  0  0  0  0  0  0  0  0  0
   37.5790   29.8480   42.0150 C   0  0  0  0  0  0  0  0  0  0  0  0
   37.0660   30.3580   40.8510 N   0  0  0  0  0  0  0  0  0  0  0  0
   37.7990   31.0190   39.9420 C   0  0  0  0  0  0  0  0  0  0  0  0
   39.1040   31.2030   40.1650 N   0  0  0  0  0  0  0  0  0  0  0  0
   36.7410   29.1600   42.9410 N   0  0  0  0  0  0  0  0  0  0  0  0
   37.2340   28.3290   43.9720 C   0  0  0  0  0  0  0  0  0  0  0  0
   38.3260   27.6840   43.6840 N   0  0  0  0  0  0  0  0  0  0  0  0
   36.4800   28.3000   45.1940 N   0  0  0  0  0  0  0  0  0  0  0  0
   38.7140   27.1040   44.4730 H   0  0  0  0  0  0  0  0  0  0  0  0
   37.1050   31.5100   38.7320 C   0  0  0  0  0  0  0  0  0  0  0  0
   37.8290   31.7240   37.4590 C   0  0  0  0  0  0  0  0  0  0  0  0
   37.0160   30.4660   37.6080 C   0  0  0  0  0  0  0  0  0  0  0  0
   40.7715   30.8961   41.4526 H   0  0  0  0  0  0  0  0  0  0  0  0
   39.4067   29.6540   43.1587 H   0  0  0  0  0  0  0  0  0  0  0  0
   35.7212   29.2750   42.8537 H   0  0  0  0  0  0  0  0  0  0  0  0
   36.7937   27.7114   45.9789 H   0  0  0  0  0  0  0  0  0  0  0  0
   35.6255   28.8678   45.2855 H   0  0  0  0  0  0  0  0  0  0  0  0
   36.4310   32.1587   39.3107 H   0  0  0  0  0  0  0  0  0  0  0  0
   38.9272   31.6636   37.4404 H   0  0  0  0  0  0  0  0  0  0  0  0
   37.8533   32.5373   36.7188 H   0  0  0  0  0  0  0  0  0  0  0  0
   36.0817   30.3388   37.0416 H   0  0  0  0  0  0  0  0  0  0  0  0
   37.2098   29.3870   37.5174 H   0  0  0  0  0  0  0  0  0  0  0  0
  1  2  2  0
  3  2  1  0
  3  7  1  0
  4  3  2  0
  5  6  2  0
  5  4  1  0
  6  1  1  0
  7  8  1  0
  8 10  1  0
  9  8  2  0
  9 11  1  0
 12  5  1  0
 13 14  1  0
 13 12  1  0
 14 12  1  0
  1 15  1  0
  2 16  1  0
  7 17  1  0
 10 18  1  0
 10 19  1  0
 12 20  1  0
 13 21  1  0
 13 22  1  0
 14 23  1  0
 14 24  1  0
M  ISO  7  15  14  16  14  20  13  21  13  22  13  23  13  24  13
M  END
>  <minimizedAffinity>  (1) 
-4.80981827

>  <minimizedRMSD>  (1) 
1.72310138

$$$$
