
     RDKit          3D

 23 23  0  0  0  0  0  0  0  0999 V2000
   39.8540   30.9190   41.6650 C   0  0  0  0  0  0  0  0  0  0  0  0
   39.0400   30.1340   42.5100 C   0  0  0  0  0  0  0  0  0  0  0  0
   37.6910   30.0040   42.1980 C   0  0  0  0  0  0  0  0  0  0  0  0
   37.2430   30.6480   41.0910 N   0  0  0  0  0  0  0  0  0  0  0  0
   38.0150   31.3940   40.2880 C   0  0  0  0  0  0  0  0  0  0  0  0
   39.3300   31.5200   40.5920 N   0  0  0  0  0  0  0  0  0  0  0  0
   36.7980   29.2320   43.0010 N   0  0  0  0  0  0  0  0  0  0  0  0
   37.2290   28.2680   43.9360 C   0  0  0  0  0  0  0  0  0  0  0  0
   38.3230   27.6640   43.6740 N   0  0  0  0  0  0  0  0  0  0  0  0
   36.4300   28.0520   45.0770 N   0  0  0  0  0  0  0  0  0  0  0  0
   38.6740   26.9370   44.3350 H   0  0  0  0  0  0  0  0  0  0  0  0
   37.4740   32.0820   39.0820 C   0  0  0  0  0  0  0  0  0  0  0  0
   37.2750   33.5310   39.4690 C   0  0  0  0  0  0  0  0  0  0  0  0
   40.9242   31.0367   41.8905 H   0  0  0  0  0  0  0  0  0  0  0  0
   39.4631   29.6364   43.3951 H   0  0  0  0  0  0  0  0  0  0  0  0
   35.7856   29.3872   42.8918 H   0  0  0  0  0  0  0  0  0  0  0  0
   36.7144   27.3556   45.7805 H   0  0  0  0  0  0  0  0  0  0  0  0
   35.5618   28.5906   45.2072 H   0  0  0  0  0  0  0  0  0  0  0  0
   36.5148   31.6323   38.7859 H   0  0  0  0  0  0  0  0  0  0  0  0
   38.1611   31.9884   38.2281 H   0  0  0  0  0  0  0  0  0  0  0  0
   37.2629   33.6194   40.5654 H   0  0  0  0  0  0  0  0  0  0  0  0
   38.0985   34.1358   39.0615 H   0  0  0  0  0  0  0  0  0  0  0  0
   36.3189   33.8914   39.0615 H   0  0  0  0  0  0  0  0  0  0  0  0
  1  2  2  0
  3  2  1  0
  3  7  1  0
  4  3  2  0
  5  6  2  0
  5  4  1  0
  6  1  1  0
  7  8  1  0
  8 10  1  0
  9  8  2  0
  9 11  1  0
 12 13  1  0
 12  5  1  0
  1 14  1  0
  2 15  1  0
  7 16  1  0
 10 17  1  0
 10 18  1  0
 12 19  1  0
 12 20  1  0
 13 21  1  0
 13 22  1  0
 13 23  1  0
M  ISO  7  14  14  15  14  19   8  20   8  21   8  22   8  23   8
M  END
>  <minimizedAffinity>  (1) 
-4.57504702

>  <minimizedRMSD>  (1) 
1.41549921

$$$$
