
     RDKit          3D

 36 38  0  0  0  0  0  0  0  0999 V2000
   37.6250   31.6780   38.8310 C   0  0  0  0  0  0  0  0  0  0  0  0
   38.8950   28.4240   40.0750 C   0  0  0  0  0  0  0  0  0  0  0  0
   38.2930   28.3300   41.3580 C   0  0  0  0  0  0  0  0  0  0  0  0
   37.4720   29.3540   41.7840 C   0  0  0  0  0  0  0  0  0  0  0  0
   37.3100   30.3850   40.9210 N   0  0  0  0  0  0  0  0  0  0  0  0
   37.8640   30.4930   39.7180 C   0  0  0  0  0  0  0  0  0  0  0  0
   38.6640   29.4940   39.3020 N   0  0  0  0  0  0  0  0  0  0  0  0
   36.8460   29.3150   43.0560 N   0  0  0  0  0  0  0  0  0  0  0  0
   36.6370   28.1410   43.7970 C   0  0  0  0  0  0  0  0  0  0  0  0
   36.5130   27.0590   43.1540 N   0  0  0  0  0  0  0  0  0  0  0  0
   36.5820   28.2690   45.2000 N   0  0  0  0  0  0  0  0  0  0  0  0
   36.4090   26.1570   43.6780 H   0  0  0  0  0  0  0  0  0  0  0  0
   37.6380   32.8910   39.7530 C   0  0  0  0  0  0  0  0  0  0  0  0
   38.9590   33.2590   40.1490 N   0  0  0  0  0  0  0  0  0  0  0  0
   40.0100   32.5010   40.5200 C   0  0  0  0  0  0  0  0  0  0  0  0
   41.0750   33.2920   40.8140 N   0  0  0  0  0  0  0  0  0  0  0  0
   40.7130   34.5690   40.6350 C   0  0  0  0  0  0  0  0  0  0  0  0
   41.4380   35.7320   40.8040 C   0  0  0  0  0  0  0  0  0  0  0  0
   40.7630   36.8780   40.5330 N   0  0  0  0  0  0  0  0  0  0  0  0
   39.4890   36.8860   40.1320 C   0  0  0  0  0  0  0  0  0  0  0  0
   38.7930   35.7280   39.9720 N   0  0  0  0  0  0  0  0  0  0  0  0
   39.3960   34.5430   40.2220 C   0  0  0  0  0  0  0  0  0  0  0  0
   42.7990   35.7400   41.2320 N   0  0  0  0  0  0  0  0  0  0  0  0
   38.4221   31.7602   38.0774 H   0  0  0  0  0  0  0  0  0  0  0  0
   36.6736   31.5922   38.2856 H   0  0  0  0  0  0  0  0  0  0  0  0
   39.5514   27.6178   39.7156 H   0  0  0  0  0  0  0  0  0  0  0  0
   38.4779   27.4565   42.0005 H   0  0  0  0  0  0  0  0  0  0  0  0
   36.5240   30.2051   43.4622 H   0  0  0  0  0  0  0  0  0  0  0  0
   36.4306   27.4367   45.7875 H   0  0  0  0  0  0  0  0  0  0  0  0
   36.6933   29.1948   45.6374 H   0  0  0  0  0  0  0  0  0  0  0  0
   37.1776   33.7400   39.2264 H   0  0  0  0  0  0  0  0  0  0  0  0
   37.0764   32.6279   40.6615 H   0  0  0  0  0  0  0  0  0  0  0  0
   40.0061   31.4025   40.5765 H   0  0  0  0  0  0  0  0  0  0  0  0
   38.9934   37.8465   39.9274 H   0  0  0  0  0  0  0  0  0  0  0  0
   43.2985   36.6338   41.3437 H   0  0  0  0  0  0  0  0  0  0  0  0
   43.2821   34.8519   41.4293 H   0  0  0  0  0  0  0  0  0  0  0  0
  1  6  1  0
  1 13  1  0
  2  3  2  0
  3  4  1  0
  4  8  1  0
  5  4  2  0
  6  5  1  0
  7  6  2  0
  7  2  1  0
  8  9  1  0
  9 11  1  0
 10 12  1  0
 10  9  2  0
 13 14  1  0
 14 22  1  0
 14 15  1  0
 15 16  2  0
 17 18  2  0
 17 16  1  0
 18 23  1  0
 19 18  1  0
 20 19  2  0
 21 20  1  0
 21 22  2  0
 22 17  1  0
  1 24  1  0
  1 25  1  0
  2 26  1  0
  3 27  1  0
  8 28  1  0
 11 29  1  0
 11 30  1  0
 13 31  1  0
 13 32  1  0
 15 33  1  0
 20 34  1  0
 23 35  1  0
 23 36  1  0
M  ISO  8  24   8  25   8  26  14  27  14  31   8  32   8  33  14  34  14
M  END
>  <minimizedAffinity>  (1) 
-6.5546813

>  <minimizedRMSD>  (1) 
1.53389263

$$$$
