
     RDKit          3D

 34 35  0  0  0  0  0  0  0  0999 V2000
   40.4760   29.5860   41.7070 C   0  0  0  0  0  0  0  0  0  0  0  0
   39.4400   29.2150   42.6080 C   0  0  0  0  0  0  0  0  0  0  0  0
   38.1390   29.5820   42.3300 C   0  0  0  0  0  0  0  0  0  0  0  0
   37.9390   30.2900   41.1850 N   0  0  0  0  0  0  0  0  0  0  0  0
   38.9030   30.6440   40.3330 C   0  0  0  0  0  0  0  0  0  0  0  0
   40.1830   30.2800   40.6100 N   0  0  0  0  0  0  0  0  0  0  0  0
   37.0820   29.2290   43.2070 N   0  0  0  0  0  0  0  0  0  0  0  0
   37.1350   28.1830   44.1400 C   0  0  0  0  0  0  0  0  0  0  0  0
   37.9000   27.1890   43.8580 N   0  0  0  0  0  0  0  0  0  0  0  0
   36.3380   28.3330   45.3000 N   0  0  0  0  0  0  0  0  0  0  0  0
   37.9990   26.4430   44.5940 H   0  0  0  0  0  0  0  0  0  0  0  0
   38.5930   31.4250   39.0930 C   0  0  0  0  0  0  0  0  0  0  0  0
   39.8590   32.1780   38.7520 C   0  0  0  0  0  0  0  0  0  0  0  0
   39.9240   33.4950   39.3150 N   0  0  0  0  0  0  0  0  0  0  0  0
   38.9200   34.0500   40.0330 C   0  0  0  0  0  0  0  0  0  0  0  0
   39.1040   35.3320   40.5240 C   0  0  0  0  0  0  0  0  0  0  0  0
   40.2550   36.0640   40.3160 C   0  0  0  0  0  0  0  0  0  0  0  0
   40.4140   37.3780   40.8340 N   0  0  0  0  0  0  0  0  0  0  0  0
   41.2460   35.4770   39.5900 N   0  0  0  0  0  0  0  0  0  0  0  0
   41.0450   34.2160   39.1160 C   0  0  0  0  0  0  0  0  0  0  0  0
   42.0640   33.8150   38.4600 O   0  0  0  0  0  0  0  0  0  0  0  0
   41.5173   29.2999   41.9165 H   0  0  0  0  0  0  0  0  0  0  0  0
   39.6733   28.6414   43.5171 H   0  0  0  0  0  0  0  0  0  0  0  0
   36.2133   29.7800   43.1552 H   0  0  0  0  0  0  0  0  0  0  0  0
   36.3351   27.5979   46.0215 H   0  0  0  0  0  0  0  0  0  0  0  0
   35.7609   29.1773   45.4227 H   0  0  0  0  0  0  0  0  0  0  0  0
   38.3181   30.7466   38.2719 H   0  0  0  0  0  0  0  0  0  0  0  0
   37.7449   32.1084   39.2469 H   0  0  0  0  0  0  0  0  0  0  0  0
   40.7168   31.5995   39.1255 H   0  0  0  0  0  0  0  0  0  0  0  0
   39.8729   32.2983   37.6587 H   0  0  0  0  0  0  0  0  0  0  0  0
   37.9863   33.4997   40.2209 H   0  0  0  0  0  0  0  0  0  0  0  0
   38.2923   35.7893   41.1088 H   0  0  0  0  0  0  0  0  0  0  0  0
   41.2861   37.8979   40.6607 H   0  0  0  0  0  0  0  0  0  0  0  0
   39.6571   37.8104   41.3827 H   0  0  0  0  0  0  0  0  0  0  0  0
  1  2  2  0
  3  2  1  0
  3  7  1  0
  4  3  2  0
  5  6  2  0
  5  4  1  0
  6  1  1  0
  7  8  1  0
  8 10  1  0
  9  8  2  0
  9 11  1  0
 12  5  1  0
 13 12  1  0
 13 14  1  0
 14 15  1  0
 15 16  2  0
 17 16  1  0
 17 18  1  0
 19 17  2  0
 20 14  1  0
 20 19  1  0
 21 20  2  0
  1 22  1  0
  2 23  1  0
  7 24  1  0
 10 25  1  0
 10 26  1  0
 12 27  1  0
 12 28  1  0
 13 29  1  0
 13 30  1  0
 15 31  1  0
 16 32  1  0
 18 33  1  0
 18 34  1  0
M  ISO  8  22  14  23  14  27   8  28   8  29   8  30   8  31  14  32  14
M  END
>  <minimizedAffinity>  (1) 
-6.10157156

>  <minimizedRMSD>  (1) 
3.61941934

$$$$
