
     RDKit          3D

 38 39  0  0  0  0  0  0  0  0999 V2000
   40.8230   29.3280   41.9010 C   0  0  0  0  0  0  0  0  0  0  0  0
   39.6970   29.0100   42.6980 C   0  0  0  0  0  0  0  0  0  0  0  0
   38.4830   29.6000   42.4170 C   0  0  0  0  0  0  0  0  0  0  0  0
   38.4630   30.4670   41.3640 N   0  0  0  0  0  0  0  0  0  0  0  0
   39.5300   30.7720   40.6070 C   0  0  0  0  0  0  0  0  0  0  0  0
   40.7020   30.1890   40.8970 N   0  0  0  0  0  0  0  0  0  0  0  0
   37.3140   29.3350   43.1700 N   0  0  0  0  0  0  0  0  0  0  0  0
   37.1740   28.2190   44.0340 C   0  0  0  0  0  0  0  0  0  0  0  0
   37.7970   27.1650   43.7030 N   0  0  0  0  0  0  0  0  0  0  0  0
   36.3630   28.3620   45.1780 N   0  0  0  0  0  0  0  0  0  0  0  0
   37.7460   26.3340   44.3310 H   0  0  0  0  0  0  0  0  0  0  0  0
   39.4060   31.7420   39.4700 C   0  0  0  0  0  0  0  0  0  0  0  0
   38.7730   32.9920   40.0650 C   0  0  0  0  0  0  0  0  0  0  0  0
   39.5710   34.1900   39.8270 N   0  0  0  0  0  0  0  0  0  0  0  0
   40.8410   34.0530   40.5330 C   0  0  0  0  0  0  0  0  0  0  0  0
   41.5620   35.3190   40.7020 C   0  0  0  0  0  0  0  0  0  0  0  0
   40.8770   36.5930   40.4130 C   0  0  0  0  0  0  0  0  0  0  0  0
   39.4610   36.5540   39.9850 C   0  0  0  0  0  0  0  0  0  0  0  0
   38.8150   35.2900   40.4190 C   0  0  0  0  0  0  0  0  0  0  0  0
   41.7969   28.8626   42.1130 H   0  0  0  0  0  0  0  0  0  0  0  0
   39.7897   28.2996   43.5327 H   0  0  0  0  0  0  0  0  0  0  0  0
   36.5220   29.9881   43.0859 H   0  0  0  0  0  0  0  0  0  0  0  0
   36.2412   27.5700   45.8252 H   0  0  0  0  0  0  0  0  0  0  0  0
   35.8922   29.2585   45.3668 H   0  0  0  0  0  0  0  0  0  0  0  0
   38.7647   31.3263   38.6789 H   0  0  0  0  0  0  0  0  0  0  0  0
   40.3823   31.9589   39.0120 H   0  0  0  0  0  0  0  0  0  0  0  0
   37.7802   33.1339   39.6130 H   0  0  0  0  0  0  0  0  0  0  0  0
   38.7050   32.8465   41.1532 H   0  0  0  0  0  0  0  0  0  0  0  0
   40.6407   33.6319   41.5293 H   0  0  0  0  0  0  0  0  0  0  0  0
   41.4796   33.3989   39.9211 H   0  0  0  0  0  0  0  0  0  0  0  0
   41.8883   35.3629   41.7516 H   0  0  0  0  0  0  0  0  0  0  0  0
   42.3488   35.2708   39.9347 H   0  0  0  0  0  0  0  0  0  0  0  0
   40.9224   37.2007   41.3287 H   0  0  0  0  0  0  0  0  0  0  0  0
   41.4110   36.9925   39.5382 H   0  0  0  0  0  0  0  0  0  0  0  0
   38.9255   37.4048   40.4316 H   0  0  0  0  0  0  0  0  0  0  0  0
   39.4222   36.6115   38.8872 H   0  0  0  0  0  0  0  0  0  0  0  0
   37.7723   35.2610   40.0697 H   0  0  0  0  0  0  0  0  0  0  0  0
   38.8095   35.2124   41.5162 H   0  0  0  0  0  0  0  0  0  0  0  0
  1  2  2  0
  3  2  1  0
  3  7  1  0
  4  3  2  0
  5  6  2  0
  5  4  1  0
  6  1  1  0
  7  8  1  0
  8 10  1  0
  9  8  2  0
  9 11  1  0
 12 13  1  0
 12  5  1  0
 14 13  1  0
 14 19  1  0
 14 15  1  0
 15 16  1  0
 17 16  1  0
 18 17  1  0
 18 19  1  0
  1 20  1  0
  2 21  1  0
  7 22  1  0
 10 23  1  0
 10 24  1  0
 12 25  1  0
 12 26  1  0
 13 27  1  0
 13 28  1  0
 15 29  1  0
 15 30  1  0
 16 31  1  0
 16 32  1  0
 17 33  1  0
 17 34  1  0
 18 35  1  0
 18 36  1  0
 19 37  1  0
 19 38  1  0
M  ISO  8  20  14  21  14  25   8  26   8  27   8  28   8  29  13  30  13
M  ISO  8  31  13  32  13  33  13  34  13  35  13  36  13  37  13  38  13
M  END
>  <minimizedAffinity>  (1) 
-5.65210152

>  <minimizedRMSD>  (1) 
1.4083817

$$$$
