
     RDKit          3D

 36 37  0  0  0  0  0  0  0  0999 V2000
   40.7610   29.6590   41.9660 C   0  0  0  0  0  0  0  0  0  0  0  0
   39.6560   29.2030   42.6990 C   0  0  0  0  0  0  0  0  0  0  0  0
   38.4190   29.7830   42.5080 C   0  0  0  0  0  0  0  0  0  0  0  0
   38.3770   30.7850   41.5920 N   0  0  0  0  0  0  0  0  0  0  0  0
   39.4110   31.2350   40.8860 C   0  0  0  0  0  0  0  0  0  0  0  0
   40.6120   30.6600   41.0820 N   0  0  0  0  0  0  0  0  0  0  0  0
   37.2640   29.3680   43.2220 N   0  0  0  0  0  0  0  0  0  0  0  0
   37.1470   28.1260   43.8740 C   0  0  0  0  0  0  0  0  0  0  0  0
   37.8050   27.1630   43.3830 N   0  0  0  0  0  0  0  0  0  0  0  0
   36.3050   28.0690   45.0140 N   0  0  0  0  0  0  0  0  0  0  0  0
   37.8210   26.2470   43.9070 H   0  0  0  0  0  0  0  0  0  0  0  0
   39.2670   32.3510   39.8980 C   0  0  0  0  0  0  0  0  0  0  0  0
   39.3680   33.6340   40.6930 C   0  0  0  0  0  0  0  0  0  0  0  0
   39.9320   34.7080   39.8020 C   0  0  0  0  0  0  0  0  0  0  0  0
   41.3920   34.8930   40.1460 C   0  0  0  0  0  0  0  0  0  0  0  0
   41.3440   36.0000   41.1720 C   0  0  0  0  0  0  0  0  0  0  0  0
   40.4050   36.9800   40.4720 C   0  0  0  0  0  0  0  0  0  0  0  0
   39.2820   36.0520   40.0460 C   0  0  0  0  0  0  0  0  0  0  0  0
   41.7486   29.1979   42.1145 H   0  0  0  0  0  0  0  0  0  0  0  0
   39.7752   28.3848   43.4245 H   0  0  0  0  0  0  0  0  0  0  0  0
   36.4635   30.0147   43.2655 H   0  0  0  0  0  0  0  0  0  0  0  0
   36.1880   27.1818   45.5240 H   0  0  0  0  0  0  0  0  0  0  0  0
   35.8105   28.9148   45.3318 H   0  0  0  0  0  0  0  0  0  0  0  0
   38.2911   32.2905   39.3940 H   0  0  0  0  0  0  0  0  0  0  0  0
   40.0424   32.2997   39.1195 H   0  0  0  0  0  0  0  0  0  0  0  0
   38.3692   33.9313   41.0451 H   0  0  0  0  0  0  0  0  0  0  0  0
   40.0234   33.4858   41.5639 H   0  0  0  0  0  0  0  0  0  0  0  0
   39.7607   34.3928   38.7621 H   0  0  0  0  0  0  0  0  0  0  0  0
   41.8204   33.9737   40.5718 H   0  0  0  0  0  0  0  0  0  0  0  0
   42.0231   35.1265   39.2758 H   0  0  0  0  0  0  0  0  0  0  0  0
   40.9282   35.6506   42.1286 H   0  0  0  0  0  0  0  0  0  0  0  0
   42.3244   36.4172   41.4456 H   0  0  0  0  0  0  0  0  0  0  0  0
   40.0462   37.7582   41.1617 H   0  0  0  0  0  0  0  0  0  0  0  0
   40.8680   37.5400   39.6462 H   0  0  0  0  0  0  0  0  0  0  0  0
   38.8077   36.4215   39.1249 H   0  0  0  0  0  0  0  0  0  0  0  0
   38.4947   35.9892   40.8116 H   0  0  0  0  0  0  0  0  0  0  0  0
  1  2  2  0
  3  2  1  0
  3  7  1  0
  4  3  2  0
  5  6  2  0
  5  4  1  0
  6  1  1  0
  7  8  1  0
  8 10  1  0
  9  8  2  0
  9 11  1  0
 12 13  1  0
 12  5  1  0
 14 18  1  0
 14 15  1  0
 14 13  1  0
 15 16  1  0
 17 16  1  0
 18 17  1  0
  1 19  1  0
  2 20  1  0
  7 21  1  0
 10 22  1  0
 10 23  1  0
 12 24  1  0
 12 25  1  0
 13 26  1  0
 13 27  1  0
 14 28  1  0
 15 29  1  0
 15 30  1  0
 16 31  1  0
 16 32  1  0
 17 33  1  0
 17 34  1  0
 18 35  1  0
 18 36  1  0
M  ISO  8  19  14  20  14  24   8  25   8  26   8  27   8  28  13  29  13
M  ISO  7  30  13  31  13  32  13  33  13  34  13  35  13  36  13
M  END
>  <minimizedAffinity>  (1) 
-5.50891304

>  <minimizedRMSD>  (1) 
2.69246864

$$$$
