
     RDKit          3D

 25 25  0  0  0  0  0  0  0  0999 V2000
   39.9090   30.8530   41.7600 C   0  0  0  0  0  0  0  0  0  0  0  0
   39.0490   30.0950   42.5800 C   0  0  0  0  0  0  0  0  0  0  0  0
   37.7200   29.9710   42.2300 C   0  0  0  0  0  0  0  0  0  0  0  0
   37.3470   30.6090   41.0960 N   0  0  0  0  0  0  0  0  0  0  0  0
   38.1400   31.3290   40.3070 C   0  0  0  0  0  0  0  0  0  0  0  0
   39.4350   31.4430   40.6570 N   0  0  0  0  0  0  0  0  0  0  0  0
   36.8020   29.2260   43.0160 N   0  0  0  0  0  0  0  0  0  0  0  0
   37.1840   28.2480   43.9470 C   0  0  0  0  0  0  0  0  0  0  0  0
   38.2600   27.6190   43.7160 N   0  0  0  0  0  0  0  0  0  0  0  0
   36.3290   28.0510   45.0630 N   0  0  0  0  0  0  0  0  0  0  0  0
   38.5960   26.9240   44.4240 H   0  0  0  0  0  0  0  0  0  0  0  0
   37.6330   32.0030   39.0660 C   0  0  0  0  0  0  0  0  0  0  0  0
   37.2560   33.4130   39.4880 C   0  0  0  0  0  0  0  0  0  0  0  0
   38.4380   34.2380   39.6650 N   0  0  0  0  0  0  0  0  0  0  0  0
   40.9707   30.9595   42.0272 H   0  0  0  0  0  0  0  0  0  0  0  0
   39.4328   29.6079   43.4885 H   0  0  0  0  0  0  0  0  0  0  0  0
   35.7965   29.4144   42.8958 H   0  0  0  0  0  0  0  0  0  0  0  0
   36.5654   27.3448   45.7746 H   0  0  0  0  0  0  0  0  0  0  0  0
   35.4723   28.6143   45.1612 H   0  0  0  0  0  0  0  0  0  0  0  0
   36.7532   31.4721   38.6735 H   0  0  0  0  0  0  0  0  0  0  0  0
   38.3903   32.0070   38.2682 H   0  0  0  0  0  0  0  0  0  0  0  0
   36.6173   33.8616   38.7129 H   0  0  0  0  0  0  0  0  0  0  0  0
   36.7196   33.3597   40.4469 H   0  0  0  0  0  0  0  0  0  0  0  0
   38.6204   34.3653   40.6707 H   0  0  0  0  0  0  0  0  0  0  0  0
   39.2473   33.7773   39.2249 H   0  0  0  0  0  0  0  0  0  0  0  0
  1  2  2  0
  3  2  1  0
  3  7  1  0
  4  3  2  0
  5  6  2  0
  5  4  1  0
  6  1  1  0
  7  8  1  0
  8 10  1  0
  9  8  2  0
  9 11  1  0
 12 13  1  0
 12  5  1  0
 13 14  1  0
  1 15  1  0
  2 16  1  0
  7 17  1  0
 10 18  1  0
 10 19  1  0
 12 20  1  0
 12 21  1  0
 13 22  1  0
 13 23  1  0
 14 24  1  0
 14 25  1  0
M  ISO  8  15  14  16  14  20   8  21   8  22   8  23   8  24   5  25   5
M  END
>  <minimizedAffinity>  (1) 
-4.68181324

>  <minimizedRMSD>  (1) 
0.122485697

$$$$
