
     RDKit          3D

 26 27  0  0  1  0  0  0  0  0999 V2000
   39.9120   32.3060   40.9840 C   0  0  0  0  0  0  0  0  0  0  0  0
   39.3400   31.1620   41.5990 C   0  0  0  0  0  0  0  0  0  0  0  0
   37.9900   30.9340   41.4170 C   0  0  0  0  0  0  0  0  0  0  0  0
   37.2590   31.8180   40.6520 N   0  0  0  0  0  0  0  0  0  0  0  0
   37.8430   32.8850   40.0900 C   0  0  0  0  0  0  0  0  0  0  0  0
   39.1550   33.1470   40.2420 N   0  0  0  0  0  0  0  0  0  0  0  0
   37.0120   33.7570   39.3080 N   0  0  0  0  0  0  0  0  0  0  0  0
   37.3730   29.7610   42.0400 C   0  0  2  0  0  0  0  0  0  0  0  0
   38.2060   29.1650   43.1410 C   0  0  0  0  0  0  0  0  0  0  0  0
   37.2780   28.2970   43.9570 C   0  0  0  0  0  0  0  0  0  0  0  0
   36.6460   27.2610   43.1070 C   0  0  0  0  0  0  0  0  0  0  0  0
   36.8500   27.3330   41.6480 C   0  0  0  0  0  0  0  0  0  0  0  0
   37.0730   28.6630   41.0550 C   0  0  0  0  0  0  0  0  0  0  0  0
   40.9850   32.5117   41.1122 H   0  0  0  0  0  0  0  0  0  0  0  0
   39.9536   30.4772   42.2027 H   0  0  0  0  0  0  0  0  0  0  0  0
   36.0093   33.5496   39.1965 H   0  0  0  0  0  0  0  0  0  0  0  0
   37.4187   34.5898   38.8586 H   0  0  0  0  0  0  0  0  0  0  0  0
   36.4352   30.1536   42.4601 H   0  0  0  0  0  0  0  0  0  0  0  0
   39.0192   28.5580   42.7165 H   0  0  0  0  0  0  0  0  0  0  0  0
   38.6664   29.9485   43.7608 H   0  0  0  0  0  0  0  0  0  0  0  0
   37.8525   27.8066   44.7567 H   0  0  0  0  0  0  0  0  0  0  0  0
   36.4886   28.9308   44.3872 H   0  0  0  0  0  0  0  0  0  0  0  0
   37.0304   26.2862   43.4418 H   0  0  0  0  0  0  0  0  0  0  0  0
   35.5661   27.4241   43.2383 H   0  0  0  0  0  0  0  0  0  0  0  0
   36.8361   26.4264   41.0252 H   0  0  0  0  0  0  0  0  0  0  0  0
   37.0238   28.8409   39.9706 H   0  0  0  0  0  0  0  0  0  0  0  0
  1  2  2  0
  3  2  1  0
  4  3  2  0
  5  6  2  0
  5  4  1  0
  6  1  1  0
  7  5  1  0
  8  3  1  0
  8  9  1  0
  9 10  1  0
 11 10  1  0
 12 11  1  0
 13 12  2  0
 13  8  1  0
  1 14  1  0
  2 15  1  0
  7 16  1  0
  7 17  1  0
  8 18  1  1
  9 19  1  0
  9 20  1  0
 10 21  1  0
 10 22  1  0
 11 23  1  0
 11 24  1  0
 12 25  1  0
 13 26  1  0
M  ISO  8  14  14  15  14  18  13  19  13  20  13  21  13  22  13  23  13
M  ISO  3  24  13  25  13  26  13
M  END
>  <minimizedAffinity>  (1) 
-4.87891245

>  <minimizedRMSD>  (1) 
4.11799192

$$$$
