
     RDKit          3D

 32 35  0  0  0  0  0  0  0  0999 V2000
   39.4650   34.2370   40.1500 N   0  0  0  0  0  0  0  0  0  0  0  0
   39.2290   35.5100   40.4750 C   0  0  0  0  0  0  0  0  0  0  0  0
   40.3860   36.0520   40.8950 N   0  0  0  0  0  0  0  0  0  0  0  0
   41.3520   35.1140   40.8330 C   0  0  0  0  0  0  0  0  0  0  0  0
   40.7280   34.0180   40.3680 N   0  0  0  0  0  0  0  0  0  0  0  0
   42.7990   35.0430   41.1340 C   0  0  0  0  0  0  0  0  0  0  0  0
   43.6670   34.2250   40.4020 C   0  0  0  0  0  0  0  0  0  0  0  0
   45.0060   34.1700   40.6950 C   0  0  0  0  0  0  0  0  0  0  0  0
   45.5540   34.8980   41.7000 C   0  0  0  0  0  0  0  0  0  0  0  0
   44.7430   35.7030   42.4350 C   0  0  0  0  0  0  0  0  0  0  0  0
   45.3070   36.4370   43.4530 C   0  0  0  0  0  0  0  0  0  0  0  0
   44.5530   37.2760   44.2430 C   0  0  0  0  0  0  0  0  0  0  0  0
   43.1870   37.3460   43.9600 C   0  0  0  0  0  0  0  0  0  0  0  0
   42.6600   36.5950   42.9320 C   0  0  0  0  0  0  0  0  0  0  0  0
   43.4040   35.7550   42.1390 C   0  0  0  0  0  0  0  0  0  0  0  0
   38.7540   33.0960   39.6530 C   0  0  0  0  0  0  0  0  0  0  0  0
   37.4680   32.7300   40.0770 C   0  0  0  0  0  0  0  0  0  0  0  0
   36.9090   31.5800   39.5020 C   0  0  0  0  0  0  0  0  0  0  0  0
   37.6400   30.8950   38.5800 N   0  0  0  0  0  0  0  0  0  0  0  0
   38.8630   31.2810   38.2080 C   0  0  0  0  0  0  0  0  0  0  0  0
   39.4270   32.3760   38.7360 N   0  0  0  0  0  0  0  0  0  0  0  0
   38.2591   36.0250   40.4106 H   0  0  0  0  0  0  0  0  0  0  0  0
   43.2687   33.6156   39.5774 H   0  0  0  0  0  0  0  0  0  0  0  0
   45.6558   33.5149   40.0962 H   0  0  0  0  0  0  0  0  0  0  0  0
   46.6311   34.8379   41.9151 H   0  0  0  0  0  0  0  0  0  0  0  0
   46.3875   36.3515   43.6406 H   0  0  0  0  0  0  0  0  0  0  0  0
   45.0044   37.8623   45.0570 H   0  0  0  0  0  0  0  0  0  0  0  0
   42.5333   37.9993   44.5566 H   0  0  0  0  0  0  0  0  0  0  0  0
   41.5806   36.6724   42.7346 H   0  0  0  0  0  0  0  0  0  0  0  0
   36.9218   33.3196   40.8280 H   0  0  0  0  0  0  0  0  0  0  0  0
   35.9033   31.2391   39.7891 H   0  0  0  0  0  0  0  0  0  0  0  0
   39.4141   30.6931   37.4592 H   0  0  0  0  0  0  0  0  0  0  0  0
  1  5  1  0
  1  2  1  0
  2  3  2  0
  4  3  1  0
  4  6  1  0
  5  4  2  0
  6 15  2  0
  7  8  2  0
  7  6  1  0
  8  9  1  0
  9 10  2  0
 10 11  1  0
 11 12  2  0
 13 12  1  0
 14 13  2  0
 15 10  1  0
 15 14  1  0
 16 17  2  0
 16  1  1  0
 18 17  1  0
 19 18  2  0
 20 19  1  0
 20 21  2  0
 21 16  1  0
  2 22  1  0
  7 23  1  0
  8 24  1  0
  9 25  1  0
 11 26  1  0
 12 27  1  0
 13 28  1  0
 14 29  1  0
 17 30  1  0
 18 31  1  0
 20 32  1  0
M  ISO  8  22  14  23  14  24  14  25  14  26  14  27  14  28  14  29  14
M  ISO  3  30  14  31  14  32  14
M  END
>  <minimizedAffinity>  (1) 
-6.56168175

>  <minimizedRMSD>  (1) 
2.93204093

$$$$
