
     RDKit          3D

 27 30  0  0  0  0  0  0  0  0999 V2000
   39.6860   34.2460   40.0610 N   0  0  0  0  0  0  0  0  0  0  0  0
   39.5920   35.5880   40.1530 C   0  0  0  0  0  0  0  0  0  0  0  0
   40.7730   36.0580   40.6270 N   0  0  0  0  0  0  0  0  0  0  0  0
   41.5850   34.9820   40.8200 C   0  0  0  0  0  0  0  0  0  0  0  0
   40.8840   33.8740   40.4610 N   0  0  0  0  0  0  0  0  0  0  0  0
   42.9400   35.0390   41.3180 N   0  0  0  0  0  0  0  0  0  0  0  0
   43.9870   34.3390   40.8200 C   0  0  0  0  0  0  0  0  0  0  0  0
   45.0970   34.6340   41.5210 N   0  0  0  0  0  0  0  0  0  0  0  0
   44.7400   35.5340   42.4770 C   0  0  0  0  0  0  0  0  0  0  0  0
   45.3780   36.2200   43.4940 C   0  0  0  0  0  0  0  0  0  0  0  0
   44.7040   37.0620   44.2810 N   0  0  0  0  0  0  0  0  0  0  0  0
   43.3840   37.2950   44.1370 C   0  0  0  0  0  0  0  0  0  0  0  0
   42.7220   36.6330   43.1430 N   0  0  0  0  0  0  0  0  0  0  0  0
   43.3710   35.7870   42.3440 C   0  0  0  0  0  0  0  0  0  0  0  0
   38.8700   33.1510   39.6610 C   0  0  0  0  0  0  0  0  0  0  0  0
   37.5700   32.9210   40.1880 C   0  0  0  0  0  0  0  0  0  0  0  0
   36.8790   31.7970   39.6960 C   0  0  0  0  0  0  0  0  0  0  0  0
   37.4800   31.0190   38.7740 N   0  0  0  0  0  0  0  0  0  0  0  0
   38.7150   31.2740   38.3010 C   0  0  0  0  0  0  0  0  0  0  0  0
   39.4200   32.3390   38.7390 N   0  0  0  0  0  0  0  0  0  0  0  0
   38.7128   36.1946   39.8901 H   0  0  0  0  0  0  0  0  0  0  0  0
   43.9376   33.6380   39.9737 H   0  0  0  0  0  0  0  0  0  0  0  0
   46.4555   36.0700   43.6569 H   0  0  0  0  0  0  0  0  0  0  0  0
   42.8565   37.9968   44.7998 H   0  0  0  0  0  0  0  0  0  0  0  0
   37.1261   33.5875   40.9422 H   0  0  0  0  0  0  0  0  0  0  0  0
   35.8678   31.5584   40.0573 H   0  0  0  0  0  0  0  0  0  0  0  0
   39.1556   30.6051   37.5471 H   0  0  0  0  0  0  0  0  0  0  0  0
  1  2  1  0
  1  5  1  0
  2  3  2  0
  3  4  1  0
  4  6  1  0
  5  4  2  0
  6 14  1  0
  7  6  1  0
  7  8  2  0
  8  9  1  0
  9 10  2  0
 10 11  1  0
 12 11  2  0
 13 12  1  0
 14  9  1  0
 14 13  2  0
 15  1  1  0
 15 16  2  0
 17 16  1  0
 18 17  2  0
 19 20  2  0
 19 18  1  0
 20 15  1  0
  2 21  1  0
  7 22  1  0
 10 23  1  0
 12 24  1  0
 16 25  1  0
 17 26  1  0
 19 27  1  0
M  ISO  7  21  14  22  14  23  14  24  14  25  14  26  14  27  14
M  END
>  <minimizedAffinity>  (1) 
-6.15444326

>  <minimizedRMSD>  (1) 
3.03966331

$$$$
