
     RDKit          3D

 30 33  0  0  0  0  0  0  0  0999 V2000
   39.4540   34.7150   40.1330 N   0  0  0  0  0  0  0  0  0  0  0  0
   39.3130   36.0320   39.9050 C   0  0  0  0  0  0  0  0  0  0  0  0
   40.3330   36.6670   40.5400 N   0  0  0  0  0  0  0  0  0  0  0  0
   41.0950   35.7320   41.1540 C   0  0  0  0  0  0  0  0  0  0  0  0
   40.5300   34.5420   40.8860 N   0  0  0  0  0  0  0  0  0  0  0  0
   42.2650   35.9990   41.9280 N   0  0  0  0  0  0  0  0  0  0  0  0
   42.3470   36.7740   43.0250 C   0  0  0  0  0  0  0  0  0  0  0  0
   43.6250   36.7560   43.4440 N   0  0  0  0  0  0  0  0  0  0  0  0
   44.3780   35.9860   42.6430 C   0  0  0  0  0  0  0  0  0  0  0  0
   45.7110   35.5890   42.5560 C   0  0  0  0  0  0  0  0  0  0  0  0
   46.4920   36.0360   43.4430 O   0  0  0  0  0  0  0  0  0  0  0  0
   46.1190   34.7620   41.5570 N   0  0  0  0  0  0  0  0  0  0  0  0
   45.2210   34.3160   40.6310 C   0  0  0  0  0  0  0  0  0  0  0  0
   45.6780   33.4520   39.5980 N   0  0  0  0  0  0  0  0  0  0  0  0
   43.9170   34.6910   40.6970 N   0  0  0  0  0  0  0  0  0  0  0  0
   43.4920   35.5090   41.6770 C   0  0  0  0  0  0  0  0  0  0  0  0
   38.7910   33.4940   39.8000 C   0  0  0  0  0  0  0  0  0  0  0  0
   37.3970   33.3710   39.6860 C   0  0  0  0  0  0  0  0  0  0  0  0
   36.8900   32.1110   39.3530 C   0  0  0  0  0  0  0  0  0  0  0  0
   37.7640   31.0980   39.1640 N   0  0  0  0  0  0  0  0  0  0  0  0
   39.0930   31.2460   39.2800 C   0  0  0  0  0  0  0  0  0  0  0  0
   39.6090   32.4470   39.5990 N   0  0  0  0  0  0  0  0  0  0  0  0
   38.5178   36.5085   39.3130 H   0  0  0  0  0  0  0  0  0  0  0  0
   41.5179   37.3235   43.4947 H   0  0  0  0  0  0  0  0  0  0  0  0
   47.1057   34.4721   41.4990 H   0  0  0  0  0  0  0  0  0  0  0  0
   46.6693   33.1751   39.5591 H   0  0  0  0  0  0  0  0  0  0  0  0
   45.0177   33.1031   38.8887 H   0  0  0  0  0  0  0  0  0  0  0  0
   36.7310   34.2306   39.8518 H   0  0  0  0  0  0  0  0  0  0  0  0
   35.8072   31.9487   39.2476 H   0  0  0  0  0  0  0  0  0  0  0  0
   39.7594   30.3866   39.1145 H   0  0  0  0  0  0  0  0  0  0  0  0
  1  5  1  0
  2  1  1  0
  2  3  2  0
  3  4  1  0
  4  6  1  0
  5  4  2  0
  6  7  1  0
  7  8  2  0
  9  8  1  0
 10  9  1  0
 10 11  2  0
 12 10  1  0
 13 15  2  0
 13 12  1  0
 14 13  1  0
 15 16  1  0
 16  6  1  0
 16  9  2  0
 17  1  1  0
 18 17  2  0
 19 18  1  0
 20 21  1  0
 20 19  2  0
 21 22  2  0
 22 17  1  0
  2 23  1  0
  7 24  1  0
 12 25  1  0
 14 26  1  0
 14 27  1  0
 18 28  1  0
 19 29  1  0
 21 30  1  0
M  ISO  6  23  14  24  14  25   9  28  14  29  14  30  14
M  END
>  <minimizedAffinity>  (1) 
-6.09449244

>  <minimizedRMSD>  (1) 
2.46598768

$$$$
