
     RDKit          3D

 28 30  0  0  0  0  0  0  0  0999 V2000
   37.4750   31.1820   40.6940 N   0  0  0  0  0  0  0  0  0  0  0  0
   36.7740   31.7230   39.6910 C   0  0  0  0  0  0  0  0  0  0  0  0
   37.3460   32.9010   39.3620 N   0  0  0  0  0  0  0  0  0  0  0  0
   38.4270   33.0800   40.1890 C   0  0  0  0  0  0  0  0  0  0  0  0
   38.4670   32.0020   40.9890 N   0  0  0  0  0  0  0  0  0  0  0  0
   39.3180   34.1990   40.1840 N   0  0  0  0  0  0  0  0  0  0  0  0
   38.9200   35.5900   40.1070 C   0  0  0  0  0  0  0  0  0  0  0  0
   40.2250   36.3450   40.1350 C   0  0  0  0  0  0  0  0  0  0  0  0
   41.1510   35.3520   39.4550 C   0  0  0  0  0  0  0  0  0  0  0  0
   40.7600   34.1030   40.2550 C   0  0  0  0  0  0  0  0  0  0  0  0
   37.4500   30.0040   41.5070 C   0  0  0  0  0  0  0  0  0  0  0  0
   36.4710   29.0040   41.3990 C   0  0  0  0  0  0  0  0  0  0  0  0
   36.5660   27.9040   42.2570 C   0  0  0  0  0  0  0  0  0  0  0  0
   37.6050   27.8800   43.1380 N   0  0  0  0  0  0  0  0  0  0  0  0
   38.5210   28.8490   43.2160 C   0  0  0  0  0  0  0  0  0  0  0  0
   38.4530   29.9160   42.4050 N   0  0  0  0  0  0  0  0  0  0  0  0
   35.8845   31.2836   39.2160 H   0  0  0  0  0  0  0  0  0  0  0  0
   38.2908   35.8648   40.9664 H   0  0  0  0  0  0  0  0  0  0  0  0
   38.3226   35.8104   39.2100 H   0  0  0  0  0  0  0  0  0  0  0  0
   40.1586   37.2869   39.5707 H   0  0  0  0  0  0  0  0  0  0  0  0
   40.5494   36.6513   41.1405 H   0  0  0  0  0  0  0  0  0  0  0  0
   40.9302   35.2448   38.3827 H   0  0  0  0  0  0  0  0  0  0  0  0
   42.2201   35.6107   39.4604 H   0  0  0  0  0  0  0  0  0  0  0  0
   41.1217   34.1533   41.2926 H   0  0  0  0  0  0  0  0  0  0  0  0
   41.1803   33.1599   39.8756 H   0  0  0  0  0  0  0  0  0  0  0  0
   35.6564   29.0830   40.6641 H   0  0  0  0  0  0  0  0  0  0  0  0
   35.8290   27.0881   42.2220 H   0  0  0  0  0  0  0  0  0  0  0  0
   39.3366   28.7719   43.9500 H   0  0  0  0  0  0  0  0  0  0  0  0
  1  5  1  0
  1 11  1  0
  2  1  1  0
  3  2  2  0
  3  4  1  0
  4  5  2  0
  6  4  1  0
  6 10  1  0
  7  8  1  0
  7  6  1  0
  9  8  1  0
  9 10  1  0
 11 16  1  0
 12 11  2  0
 12 13  1  0
 13 14  2  0
 14 15  1  0
 16 15  2  0
  2 17  1  0
  7 18  1  0
  7 19  1  0
  8 20  1  0
  8 21  1  0
  9 22  1  0
  9 23  1  0
 10 24  1  0
 10 25  1  0
 12 26  1  0
 13 27  1  0
 15 28  1  0
M  ISO  8  17  14  18  13  19  13  20  13  21  13  22  13  23  13  24  13
M  ISO  4  25  13  26  14  27  14  28  14
M  END
>  <minimizedAffinity>  (1) 
-5.28472519

>  <minimizedRMSD>  (1) 
2.45774484

$$$$
