
     RDKit          3D

 23 25  0  0  0  0  0  0  0  0999 V2000
   37.6190   31.5700   40.7130 N   0  0  0  0  0  0  0  0  0  0  0  0
   36.9370   32.1380   39.7090 C   0  0  0  0  0  0  0  0  0  0  0  0
   37.4700   33.3660   39.4900 N   0  0  0  0  0  0  0  0  0  0  0  0
   38.4870   33.5410   40.3680 C   0  0  0  0  0  0  0  0  0  0  0  0
   38.5560   32.4170   41.1100 N   0  0  0  0  0  0  0  0  0  0  0  0
   37.6210   30.3430   41.4510 C   0  0  0  0  0  0  0  0  0  0  0  0
   36.6130   29.3720   41.3620 C   0  0  0  0  0  0  0  0  0  0  0  0
   36.7490   28.2260   42.1410 C   0  0  0  0  0  0  0  0  0  0  0  0
   37.8550   28.1190   42.9430 N   0  0  0  0  0  0  0  0  0  0  0  0
   38.7960   29.0680   43.0010 C   0  0  0  0  0  0  0  0  0  0  0  0
   38.6910   30.1860   42.2610 N   0  0  0  0  0  0  0  0  0  0  0  0
   39.3530   34.7340   40.4910 C   0  0  0  0  0  0  0  0  0  0  0  0
   39.0290   35.9740   40.0160 C   0  0  0  0  0  0  0  0  0  0  0  0
   40.0770   36.7950   40.3220 N   0  0  0  0  0  0  0  0  0  0  0  0
   41.0290   36.0710   40.9740 C   0  0  0  0  0  0  0  0  0  0  0  0
   40.5590   34.8120   41.0640 N   0  0  0  0  0  0  0  0  0  0  0  0
   36.0957   31.6889   39.1607 H   0  0  0  0  0  0  0  0  0  0  0  0
   35.7455   29.5109   40.7001 H   0  0  0  0  0  0  0  0  0  0  0  0
   35.9907   27.4296   42.1135 H   0  0  0  0  0  0  0  0  0  0  0  0
   39.6653   28.9324   43.6613 H   0  0  0  0  0  0  0  0  0  0  0  0
   38.1049   36.2558   39.4901 H   0  0  0  0  0  0  0  0  0  0  0  0
   41.9928   36.4419   41.3528 H   0  0  0  0  0  0  0  0  0  0  0  0
   41.0547   34.0260   41.5082 H   0  0  0  0  0  0  0  0  0  0  0  0
  1  5  1  0
  1  6  1  0
  2  1  1  0
  3  2  2  0
  3  4  1  0
  4 12  1  0
  4  5  2  0
  6 11  1  0
  7  6  2  0
  7  8  1  0
  8  9  2  0
  9 10  1  0
 11 10  2  0
 12 16  1  0
 13 14  1  0
 13 12  2  0
 14 15  2  0
 15 16  1  0
  2 17  1  0
  7 18  1  0
  8 19  1  0
 10 20  1  0
 13 21  1  0
 15 22  1  0
 16 23  1  0
M  ISO  7  17  14  18  14  19  14  20  14  21  14  22  14  23   9
M  END
>  <minimizedAffinity>  (1) 
-5.08463526

>  <minimizedRMSD>  (1) 
2.20292735

$$$$
