
     RDKit          3D

 23 25  0  0  0  0  0  0  0  0999 V2000
   37.5450   31.3350   40.7600 N   0  0  0  0  0  0  0  0  0  0  0  0
   36.8750   31.9540   39.7830 C   0  0  0  0  0  0  0  0  0  0  0  0
   37.4980   33.1330   39.5290 N   0  0  0  0  0  0  0  0  0  0  0  0
   38.5620   33.2210   40.3690 C   0  0  0  0  0  0  0  0  0  0  0  0
   38.5690   32.0930   41.1210 N   0  0  0  0  0  0  0  0  0  0  0  0
   37.4810   30.1200   41.5100 C   0  0  0  0  0  0  0  0  0  0  0  0
   36.4810   29.1480   41.3500 C   0  0  0  0  0  0  0  0  0  0  0  0
   36.5600   28.0100   42.1650 C   0  0  0  0  0  0  0  0  0  0  0  0
   37.5780   27.9060   43.0520 N   0  0  0  0  0  0  0  0  0  0  0  0
   38.5210   28.8600   43.1770 C   0  0  0  0  0  0  0  0  0  0  0  0
   38.4830   29.9660   42.4160 N   0  0  0  0  0  0  0  0  0  0  0  0
   39.4870   34.3570   40.3980 C   0  0  0  0  0  0  0  0  0  0  0  0
   38.9660   35.6240   40.1150 C   0  0  0  0  0  0  0  0  0  0  0  0
   40.0560   36.4860   40.2150 C   0  0  0  0  0  0  0  0  0  0  0  0
   41.1590   35.7040   40.5470 C   0  0  0  0  0  0  0  0  0  0  0  0
   40.7710   34.4660   40.6420 O   0  0  0  0  0  0  0  0  0  0  0  0
   35.9766   31.5747   39.2742 H   0  0  0  0  0  0  0  0  0  0  0  0
   35.6705   29.2737   40.6170 H   0  0  0  0  0  0  0  0  0  0  0  0
   35.8060   27.2131   42.0851 H   0  0  0  0  0  0  0  0  0  0  0  0
   39.3308   28.7317   43.9103 H   0  0  0  0  0  0  0  0  0  0  0  0
   37.9257   35.8826   39.8681 H   0  0  0  0  0  0  0  0  0  0  0  0
   40.0469   37.5752   40.0612 H   0  0  0  0  0  0  0  0  0  0  0  0
   42.1843   36.0707   40.7025 H   0  0  0  0  0  0  0  0  0  0  0  0
  1  5  1  0
  1  6  1  0
  2  1  1  0
  3  2  2  0
  3  4  1  0
  4 12  1  0
  4  5  2  0
  6 11  1  0
  7  6  2  0
  7  8  1  0
  8  9  2  0
  9 10  1  0
 11 10  2  0
 12 16  1  0
 13 14  1  0
 13 12  2  0
 14 15  2  0
 15 16  1  0
  2 17  1  0
  7 18  1  0
  8 19  1  0
 10 20  1  0
 13 21  1  0
 14 22  1  0
 15 23  1  0
M  ISO  7  17  14  18  14  19  14  20  14  21  14  22  14  23  14
M  END
>  <minimizedAffinity>  (1) 
-5.04729033

>  <minimizedRMSD>  (1) 
2.34318328

$$$$
