
     RDKit          3D

 19 20  0  0  0  0  0  0  0  0999 V2000
   37.8690   32.0370   40.7030 N   0  0  0  0  0  0  0  0  0  0  0  0
   37.0270   32.5080   39.7760 C   0  0  0  0  0  0  0  0  0  0  0  0
   37.4040   33.7700   39.4600 N   0  0  0  0  0  0  0  0  0  0  0  0
   38.5020   34.0680   40.2150 C   0  0  0  0  0  0  0  0  0  0  0  0
   38.7620   32.9790   40.9720 N   0  0  0  0  0  0  0  0  0  0  0  0
   38.0710   30.8470   41.4620 C   0  0  0  0  0  0  0  0  0  0  0  0
   37.0470   29.9160   41.7410 C   0  0  0  0  0  0  0  0  0  0  0  0
   37.3710   28.7910   42.4920 C   0  0  0  0  0  0  0  0  0  0  0  0
   38.6550   28.6580   42.9120 N   0  0  0  0  0  0  0  0  0  0  0  0
   39.6040   29.5550   42.6330 C   0  0  0  0  0  0  0  0  0  0  0  0
   39.3270   30.6600   41.9060 N   0  0  0  0  0  0  0  0  0  0  0  0
   39.2520   35.3720   40.1840 C   0  0  0  0  0  0  0  0  0  0  0  0
   40.3500   35.2630   39.3780 F   0  0  0  0  0  0  0  0  0  0  0  0
   38.3590   36.3150   39.6640 F   0  0  0  0  0  0  0  0  0  0  0  0
   39.6110   35.7020   41.4560 F   0  0  0  0  0  0  0  0  0  0  0  0
   36.1743   31.9634   39.3443 H   0  0  0  0  0  0  0  0  0  0  0  0
   36.0221   30.0758   41.3749 H   0  0  0  0  0  0  0  0  0  0  0  0
   36.6117   28.0339   42.7375 H   0  0  0  0  0  0  0  0  0  0  0  0
   40.6278   29.3919   43.0009 H   0  0  0  0  0  0  0  0  0  0  0  0
  1  5  1  0
  1  6  1  0
  2  1  1  0
  3  2  2  0
  3  4  1  0
  4  5  2  0
  6  7  2  0
  6 11  1  0
  7  8  1  0
  8  9  2  0
 10  9  1  0
 11 10  2  0
 12  4  1  0
 12 15  1  0
 13 12  1  0
 14 12  1  0
  2 16  1  0
  7 17  1  0
  8 18  1  0
 10 19  1  0
M  ISO  4  16  14  17  14  18  14  19  14
M  END
>  <minimizedAffinity>  (1) 
-4.64859819

>  <minimizedRMSD>  (1) 
2.20594692

$$$$
