
     RDKit          3D

 26 28  0  0  0  0  0  0  0  0999 V2000
   37.6010   33.2460   39.7840 N   0  0  0  0  0  0  0  0  0  0  0  0
   37.2890   34.5070   39.4250 C   0  0  0  0  0  0  0  0  0  0  0  0
   38.3150   35.3140   39.7880 N   0  0  0  0  0  0  0  0  0  0  0  0
   39.2630   34.5190   40.3760 C   0  0  0  0  0  0  0  0  0  0  0  0
   38.7890   33.2450   40.3580 N   0  0  0  0  0  0  0  0  0  0  0  0
   37.0160   31.9490   39.7160 C   0  0  0  0  0  0  0  0  0  0  0  0
   36.5080   31.2600   40.8400 C   0  0  0  0  0  0  0  0  0  0  0  0
   35.9600   29.9830   40.6160 C   0  0  0  0  0  0  0  0  0  0  0  0
   35.9580   29.5010   39.3450 N   0  0  0  0  0  0  0  0  0  0  0  0
   36.4500   30.1860   38.3060 C   0  0  0  0  0  0  0  0  0  0  0  0
   36.9810   31.4120   38.4880 N   0  0  0  0  0  0  0  0  0  0  0  0
   40.5570   34.9860   40.9250 C   0  0  0  0  0  0  0  0  0  0  0  0
   40.5640   36.2700   41.4300 C   0  0  0  0  0  0  0  0  0  0  0  0
   41.7560   36.7490   41.9540 C   0  0  0  0  0  0  0  0  0  0  0  0
   42.8910   35.9630   41.9650 C   0  0  0  0  0  0  0  0  0  0  0  0
   42.8640   34.6640   41.4470 C   0  0  0  0  0  0  0  0  0  0  0  0
   41.6770   34.1580   40.9150 C   0  0  0  0  0  0  0  0  0  0  0  0
   36.3627   34.8255   38.9245 H   0  0  0  0  0  0  0  0  0  0  0  0
   36.5394   31.7024   41.8466 H   0  0  0  0  0  0  0  0  0  0  0  0
   35.5452   29.3919   41.4458 H   0  0  0  0  0  0  0  0  0  0  0  0
   36.4211   29.7465   37.2980 H   0  0  0  0  0  0  0  0  0  0  0  0
   39.6567   36.8918   41.4176 H   0  0  0  0  0  0  0  0  0  0  0  0
   41.7973   37.7681   42.3660 H   0  0  0  0  0  0  0  0  0  0  0  0
   43.8258   36.3623   42.3853 H   0  0  0  0  0  0  0  0  0  0  0  0
   43.7731   34.0448   41.4588 H   0  0  0  0  0  0  0  0  0  0  0  0
   41.6277   33.1398   40.5018 H   0  0  0  0  0  0  0  0  0  0  0  0
  1  5  1  0
  2  1  1  0
  2  3  2  0
  3  4  1  0
  4 12  1  0
  5  4  2  0
  6  1  1  0
  6  7  2  0
  8  7  1  0
  9  8  2  0
 10 11  2  0
 10  9  1  0
 11  6  1  0
 12 13  2  0
 13 14  1  0
 14 15  2  0
 16 15  1  0
 17 12  1  0
 17 16  2  0
  2 18  1  0
  7 19  1  0
  8 20  1  0
 10 21  1  0
 13 22  1  0
 14 23  1  0
 15 24  1  0
 16 25  1  0
 17 26  1  0
M  ISO  8  18  14  19  14  20  14  21  14  22  14  23  14  24  14  25  14
M  ISO  1  26  14
M  END
>  <minimizedAffinity>  (1) 
-4.55238581

>  <minimizedRMSD>  (1) 
0.937398791

$$$$
