
     RDKit          3D

 31 34  0  0  0  0  0  0  0  0999 V2000
   38.7660   33.6340   39.9330 N   0  0  0  0  0  0  0  0  0  0  0  0
   38.6280   34.9520   40.1510 C   0  0  0  0  0  0  0  0  0  0  0  0
   39.8370   35.4590   40.4530 N   0  0  0  0  0  0  0  0  0  0  0  0
   40.7250   34.4450   40.4200 C   0  0  0  0  0  0  0  0  0  0  0  0
   40.0440   33.3050   40.0930 N   0  0  0  0  0  0  0  0  0  0  0  0
   42.1720   34.5450   40.6920 C   0  0  0  0  0  0  0  0  0  0  0  0
   43.1910   34.0940   39.8720 C   0  0  0  0  0  0  0  0  0  0  0  0
   44.4930   34.2580   40.2800 C   0  0  0  0  0  0  0  0  0  0  0  0
   44.7890   34.8470   41.4520 N   0  0  0  0  0  0  0  0  0  0  0  0
   43.7980   35.2810   42.2420 C   0  0  0  0  0  0  0  0  0  0  0  0
   42.4980   35.1430   41.8860 N   0  0  0  0  0  0  0  0  0  0  0  0
   44.0390   35.9140   43.4970 N   0  0  0  0  0  0  0  0  0  0  0  0
   44.6060   35.3350   44.5610 N   0  0  0  0  0  0  0  0  0  0  0  0
   44.6750   36.2270   45.5710 C   0  0  0  0  0  0  0  0  0  0  0  0
   44.1220   37.3990   45.0920 C   0  0  0  0  0  0  0  0  0  0  0  0
   43.7180   37.2040   43.7800 C   0  0  0  0  0  0  0  0  0  0  0  0
   37.9510   32.5150   39.5870 C   0  0  0  0  0  0  0  0  0  0  0  0
   37.0890   31.8690   40.5070 C   0  0  0  0  0  0  0  0  0  0  0  0
   36.3510   30.7820   40.0180 C   0  0  0  0  0  0  0  0  0  0  0  0
   36.5060   30.4220   38.7190 N   0  0  0  0  0  0  0  0  0  0  0  0
   37.3380   31.0660   37.8820 C   0  0  0  0  0  0  0  0  0  0  0  0
   38.0630   32.1110   38.3030 N   0  0  0  0  0  0  0  0  0  0  0  0
   37.6876   35.5197   40.0926 H   0  0  0  0  0  0  0  0  0  0  0  0
   42.9629   33.6123   38.9098 H   0  0  0  0  0  0  0  0  0  0  0  0
   45.3092   33.9004   39.6351 H   0  0  0  0  0  0  0  0  0  0  0  0
   45.0890   36.0553   46.5755 H   0  0  0  0  0  0  0  0  0  0  0  0
   44.0189   38.3355   45.6597 H   0  0  0  0  0  0  0  0  0  0  0  0
   43.2404   37.9359   43.1119 H   0  0  0  0  0  0  0  0  0  0  0  0
   37.0031   32.2031   41.5515 H   0  0  0  0  0  0  0  0  0  0  0  0
   35.6603   30.2321   40.6741 H   0  0  0  0  0  0  0  0  0  0  0  0
   37.4246   30.7306   36.8380 H   0  0  0  0  0  0  0  0  0  0  0  0
  1  5  1  0
  1  2  1  0
  2  3  2  0
  4  3  1  0
  4  6  1  0
  5  4  2  0
  6 11  2  0
  7  8  2  0
  7  6  1  0
  8  9  1  0
  9 10  2  0
 10 12  1  0
 11 10  1  0
 12 16  1  0
 12 13  1  0
 13 14  2  0
 15 14  1  0
 16 15  2  0
 17  1  1  0
 17 18  2  0
 19 18  1  0
 20 19  2  0
 21 22  2  0
 21 20  1  0
 22 17  1  0
  2 23  1  0
  7 24  1  0
  8 25  1  0
 14 26  1  0
 15 27  1  0
 16 28  1  0
 18 29  1  0
 19 30  1  0
 21 31  1  0
M  ISO  8  23  14  24  14  25  14  26  14  27  14  28  14  29  14  30  14
M  ISO  1  31  14
M  END
>  <minimizedAffinity>  (1) 
-6.20168781

>  <minimizedRMSD>  (1) 
2.19633698

$$$$
