
     RDKit          3D

 31 34  0  0  0  0  0  0  0  0999 V2000
   38.3530   33.2690   39.8790 N   0  0  0  0  0  0  0  0  0  0  0  0
   38.2150   34.6030   39.9510 C   0  0  0  0  0  0  0  0  0  0  0  0
   39.4250   35.1560   40.1620 N   0  0  0  0  0  0  0  0  0  0  0  0
   40.3250   34.1390   40.2190 C   0  0  0  0  0  0  0  0  0  0  0  0
   39.6340   32.9750   40.0390 N   0  0  0  0  0  0  0  0  0  0  0  0
   37.5350   32.1270   39.6830 C   0  0  0  0  0  0  0  0  0  0  0  0
   36.8110   31.5080   40.7150 C   0  0  0  0  0  0  0  0  0  0  0  0
   36.0420   30.3910   40.4120 C   0  0  0  0  0  0  0  0  0  0  0  0
   36.0440   29.9670   39.1070 N   0  0  0  0  0  0  0  0  0  0  0  0
   36.7460   30.5790   38.1470 C   0  0  0  0  0  0  0  0  0  0  0  0
   37.5030   31.6630   38.4010 N   0  0  0  0  0  0  0  0  0  0  0  0
   41.7810   34.2700   40.4350 C   0  0  0  0  0  0  0  0  0  0  0  0
   42.7670   33.8400   39.5850 C   0  0  0  0  0  0  0  0  0  0  0  0
   44.0820   34.0440   39.9410 C   0  0  0  0  0  0  0  0  0  0  0  0
   44.4100   34.6470   41.0880 N   0  0  0  0  0  0  0  0  0  0  0  0
   43.4370   35.0760   41.9370 C   0  0  0  0  0  0  0  0  0  0  0  0
   42.1340   34.8860   41.6060 N   0  0  0  0  0  0  0  0  0  0  0  0
   43.7590   35.7380   43.1980 C   0  0  0  0  0  0  0  0  0  0  0  0
   43.2360   36.9430   43.6190 C   0  0  0  0  0  0  0  0  0  0  0  0
   43.7550   37.2430   44.8240 N   0  0  0  0  0  0  0  0  0  0  0  0
   44.6100   36.2410   45.1850 C   0  0  0  0  0  0  0  0  0  0  0  0
   44.5880   35.3500   44.1790 N   0  0  0  0  0  0  0  0  0  0  0  0
   37.2681   35.1542   39.8535 H   0  0  0  0  0  0  0  0  0  0  0  0
   36.8519   31.8994   41.7422 H   0  0  0  0  0  0  0  0  0  0  0  0
   35.4574   29.8696   41.1843 H   0  0  0  0  0  0  0  0  0  0  0  0
   36.7036   30.1854   37.1207 H   0  0  0  0  0  0  0  0  0  0  0  0
   42.5131   33.3420   38.6376 H   0  0  0  0  0  0  0  0  0  0  0  0
   44.8806   33.7028   39.2658 H   0  0  0  0  0  0  0  0  0  0  0  0
   42.5137   37.5575   43.0616 H   0  0  0  0  0  0  0  0  0  0  0  0
   45.1981   36.1763   46.1123 H   0  0  0  0  0  0  0  0  0  0  0  0
   45.1381   34.4793   44.1631 H   0  0  0  0  0  0  0  0  0  0  0  0
  1  2  1  0
  1  5  1  0
  2  3  2  0
  3  4  1  0
  4 12  1  0
  5  4  2  0
  6  1  1  0
  6  7  2  0
  8  7  1  0
  9  8  2  0
 10 11  2  0
 10  9  1  0
 11  6  1  0
 12 17  2  0
 13 14  2  0
 13 12  1  0
 14 15  1  0
 15 16  2  0
 16 18  1  0
 17 16  1  0
 18 19  2  0
 18 22  1  0
 19 20  1  0
 20 21  2  0
 22 21  1  0
  2 23  1  0
  7 24  1  0
  8 25  1  0
 10 26  1  0
 13 27  1  0
 14 28  1  0
 19 29  1  0
 21 30  1  0
 22 31  1  0
M  ISO  8  23  14  24  14  25  14  26  14  27  14  28  14  29  14  30  14
M  ISO  1  31   9
M  END
>  <minimizedAffinity>  (1) 
-6.00308084

>  <minimizedRMSD>  (1) 
2.07401371

$$$$
