
     RDKit          3D

 26 28  0  0  0  0  0  0  0  0999 V2000
   39.9750   35.0900   40.2720 N   0  0  0  0  0  0  0  0  0  0  0  0
   39.9030   36.4300   40.3060 C   0  0  0  0  0  0  0  0  0  0  0  0
   40.9670   36.9010   40.9880 N   0  0  0  0  0  0  0  0  0  0  0  0
   41.7030   35.8400   41.3790 C   0  0  0  0  0  0  0  0  0  0  0  0
   41.0610   34.7320   40.9190 N   0  0  0  0  0  0  0  0  0  0  0  0
   39.2320   33.9980   39.7520 C   0  0  0  0  0  0  0  0  0  0  0  0
   37.8260   33.8960   39.8510 C   0  0  0  0  0  0  0  0  0  0  0  0
   37.2110   32.7800   39.3060 C   0  0  0  0  0  0  0  0  0  0  0  0
   38.0180   31.8430   38.7030 N   0  0  0  0  0  0  0  0  0  0  0  0
   39.3430   31.9680   38.6250 C   0  0  0  0  0  0  0  0  0  0  0  0
   39.9750   33.0450   39.1470 N   0  0  0  0  0  0  0  0  0  0  0  0
   42.9620   35.8730   42.1550 C   0  0  0  0  0  0  0  0  0  0  0  0
   44.0740   35.1110   41.9380 C   0  0  0  0  0  0  0  0  0  0  0  0
   45.1560   35.2760   42.7620 C   0  0  0  0  0  0  0  0  0  0  0  0
   45.1470   36.1620   43.7710 N   0  0  0  0  0  0  0  0  0  0  0  0
   44.0430   36.9240   43.9940 C   0  0  0  0  0  0  0  0  0  0  0  0
   42.9620   36.7770   43.1880 N   0  0  0  0  0  0  0  0  0  0  0  0
   44.0600   37.8790   45.0950 C   0  0  0  0  0  0  0  0  0  0  0  0
   44.6480   38.9720   44.8920 O   0  0  0  0  0  0  0  0  0  0  0  0
   39.1088   37.0418   39.8532 H   0  0  0  0  0  0  0  0  0  0  0  0
   37.2360   34.6808   40.3470 H   0  0  0  0  0  0  0  0  0  0  0  0
   36.1199   32.6485   39.3537 H   0  0  0  0  0  0  0  0  0  0  0  0
   39.9322   31.1831   38.1283 H   0  0  0  0  0  0  0  0  0  0  0  0
   44.1006   34.3788   41.1175 H   0  0  0  0  0  0  0  0  0  0  0  0
   46.0559   34.6666   42.5926 H   0  0  0  0  0  0  0  0  0  0  0  0
   43.5806   37.6540   46.0591 H   0  0  0  0  0  0  0  0  0  0  0  0
  1  2  1  0
  1  5  1  0
  2  3  2  0
  3  4  1  0
  4 12  1  0
  5  4  2  0
  6  7  2  0
  6  1  1  0
  8  7  1  0
  9  8  2  0
 10  9  1  0
 10 11  2  0
 11  6  1  0
 12 17  1  0
 13 12  2  0
 13 14  1  0
 14 15  2  0
 15 16  1  0
 16 18  1  0
 17 16  2  0
 19 18  2  0
  2 20  1  0
  7 21  1  0
  8 22  1  0
 10 23  1  0
 13 24  1  0
 14 25  1  0
 18 26  1  0
M  ISO  7  20  14  21  14  22  14  23  14  24  14  25  14  26   6
M  END
>  <minimizedAffinity>  (1) 
-5.754107

>  <minimizedRMSD>  (1) 
2.75895643

$$$$
