
     RDKit          3D

 25 27  0  0  0  0  0  0  0  0999 V2000
   38.9180   33.9000   39.9770 N   0  0  0  0  0  0  0  0  0  0  0  0
   38.7800   35.2320   40.0750 C   0  0  0  0  0  0  0  0  0  0  0  0
   39.9600   35.7620   40.4620 N   0  0  0  0  0  0  0  0  0  0  0  0
   40.8320   34.7330   40.6020 C   0  0  0  0  0  0  0  0  0  0  0  0
   40.1710   33.5910   40.2990 N   0  0  0  0  0  0  0  0  0  0  0  0
   38.1290   32.7720   39.6380 C   0  0  0  0  0  0  0  0  0  0  0  0
   37.2820   32.1140   40.5630 C   0  0  0  0  0  0  0  0  0  0  0  0
   36.5640   31.0140   40.0900 C   0  0  0  0  0  0  0  0  0  0  0  0
   36.7160   30.6420   38.7860 N   0  0  0  0  0  0  0  0  0  0  0  0
   37.5330   31.2980   37.9470 C   0  0  0  0  0  0  0  0  0  0  0  0
   38.2450   32.3640   38.3550 N   0  0  0  0  0  0  0  0  0  0  0  0
   42.2480   34.8530   41.0140 C   0  0  0  0  0  0  0  0  0  0  0  0
   43.3120   34.2130   40.4180 C   0  0  0  0  0  0  0  0  0  0  0  0
   44.5760   34.4330   40.9270 C   0  0  0  0  0  0  0  0  0  0  0  0
   44.7810   35.2450   41.9720 N   0  0  0  0  0  0  0  0  0  0  0  0
   43.7300   35.8760   42.5590 C   0  0  0  0  0  0  0  0  0  0  0  0
   42.4730   35.6780   42.0810 N   0  0  0  0  0  0  0  0  0  0  0  0
   43.9340   36.9710   43.9570 S   0  0  0  0  0  0  0  0  0  0  0  0
   37.8584   35.7977   39.8734 H   0  0  0  0  0  0  0  0  0  0  0  0
   37.1940   32.4538   41.6055 H   0  0  0  0  0  0  0  0  0  0  0  0
   35.8883   30.4575   40.7562 H   0  0  0  0  0  0  0  0  0  0  0  0
   37.6221   30.9571   36.9050 H   0  0  0  0  0  0  0  0  0  0  0  0
   43.1584   33.5438   39.5586 H   0  0  0  0  0  0  0  0  0  0  0  0
   45.4364   33.9288   40.4627 H   0  0  0  0  0  0  0  0  0  0  0  0
   43.8011   36.2576   45.1190 H   0  0  0  0  0  0  0  0  0  0  0  0
  1  2  1  0
  1  5  1  0
  2  3  2  0
  3  4  1  0
  4 12  1  0
  5  4  2  0
  6  1  1  0
  6  7  2  0
  8  7  1  0
  9  8  2  0
 10 11  2  0
 10  9  1  0
 11  6  1  0
 12 17  2  0
 13 14  2  0
 13 12  1  0
 14 15  1  0
 15 16  2  0
 16 18  1  0
 17 16  1  0
  2 19  1  0
  7 20  1  0
  8 21  1  0
 10 22  1  0
 13 23  1  0
 14 24  1  0
 18 25  1  0
M  ISO  7  19  14  20  14  21  14  22  14  23  14  24  14  25  11
M  END
>  <minimizedAffinity>  (1) 
-5.0441227

>  <minimizedRMSD>  (1) 
1.47933269

$$$$
