
     RDKit          3D

 26 28  0  0  0  0  0  0  0  0999 V2000
   37.9020   33.3690   39.8180 N   0  0  0  0  0  0  0  0  0  0  0  0
   37.6620   34.6750   39.6280 C   0  0  0  0  0  0  0  0  0  0  0  0
   38.7630   35.3640   39.9970 N   0  0  0  0  0  0  0  0  0  0  0  0
   39.6920   34.4620   40.4200 C   0  0  0  0  0  0  0  0  0  0  0  0
   39.1350   33.2290   40.3000 N   0  0  0  0  0  0  0  0  0  0  0  0
   41.0440   34.7870   40.9130 C   0  0  0  0  0  0  0  0  0  0  0  0
   42.1760   34.0260   40.6720 C   0  0  0  0  0  0  0  0  0  0  0  0
   43.3620   34.4920   41.2200 C   0  0  0  0  0  0  0  0  0  0  0  0
   43.4360   35.6130   41.9430 N   0  0  0  0  0  0  0  0  0  0  0  0
   42.3220   36.3390   42.1650 C   0  0  0  0  0  0  0  0  0  0  0  0
   41.1270   35.9370   41.6570 N   0  0  0  0  0  0  0  0  0  0  0  0
   42.3010   37.5380   42.9170 N   0  0  0  0  0  0  0  0  0  0  0  0
   37.2280   32.1200   39.6550 C   0  0  0  0  0  0  0  0  0  0  0  0
   36.5980   31.4310   40.6940 C   0  0  0  0  0  0  0  0  0  0  0  0
   35.9750   30.2210   40.4080 C   0  0  0  0  0  0  0  0  0  0  0  0
   36.0170   29.7770   39.1200 N   0  0  0  0  0  0  0  0  0  0  0  0
   36.6280   30.4580   38.1460 C   0  0  0  0  0  0  0  0  0  0  0  0
   37.2450   31.6380   38.3860 N   0  0  0  0  0  0  0  0  0  0  0  0
   36.7294   35.1095   39.2388 H   0  0  0  0  0  0  0  0  0  0  0  0
   42.1365   33.1013   40.0776 H   0  0  0  0  0  0  0  0  0  0  0  0
   44.2821   33.9131   41.0519 H   0  0  0  0  0  0  0  0  0  0  0  0
   41.4154   38.0468   43.0504 H   0  0  0  0  0  0  0  0  0  0  0  0
   43.1713   37.9017   43.3308 H   0  0  0  0  0  0  0  0  0  0  0  0
   36.5947   31.8368   41.7164 H   0  0  0  0  0  0  0  0  0  0  0  0
   35.4663   29.6427   41.1934 H   0  0  0  0  0  0  0  0  0  0  0  0
   36.6294   30.0495   37.1247 H   0  0  0  0  0  0  0  0  0  0  0  0
  1  5  1  0
  2  1  1  0
  2  3  2  0
  3  4  1  0
  4  6  1  0
  5  4  2  0
  6 11  1  0
  7  6  2  0
  7  8  1  0
  8  9  2  0
  9 10  1  0
 10 12  1  0
 11 10  2  0
 13  1  1  0
 13 14  2  0
 15 14  1  0
 16 15  2  0
 17 18  2  0
 17 16  1  0
 18 13  1  0
  2 19  1  0
  7 20  1  0
  8 21  1  0
 12 22  1  0
 12 23  1  0
 14 24  1  0
 15 25  1  0
 17 26  1  0
M  ISO  6  19  14  20  14  21  14  24  14  25  14  26  14
M  END
>  <minimizedAffinity>  (1) 
-4.77035761

>  <minimizedRMSD>  (1) 
0.324555635

$$$$
