
     RDKit          3D

 37 41  0  0  0  0  0  0  0  0999 V2000
   37.0580   30.5890   40.6900 C   0  0  0  0  0  0  0  0  0  0  0  0
   35.7700   30.1630   40.3450 C   0  0  0  0  0  0  0  0  0  0  0  0
   35.3690   28.8830   40.7130 C   0  0  0  0  0  0  0  0  0  0  0  0
   36.2680   28.1260   41.3920 N   0  0  0  0  0  0  0  0  0  0  0  0
   37.4890   28.5550   41.7090 C   0  0  0  0  0  0  0  0  0  0  0  0
   37.9150   29.7920   41.3670 N   0  0  0  0  0  0  0  0  0  0  0  0
   38.3730   27.6960   42.4220 N   0  0  0  0  0  0  0  0  0  0  0  0
   38.4560   27.4930   43.7500 C   0  0  0  0  0  0  0  0  0  0  0  0
   39.4200   26.6040   44.0570 N   0  0  0  0  0  0  0  0  0  0  0  0
   39.9740   26.2210   42.9070 C   0  0  0  0  0  0  0  0  0  0  0  0
   40.9800   25.3560   42.5540 C   0  0  0  0  0  0  0  0  0  0  0  0
   41.2970   25.2000   41.2460 N   0  0  0  0  0  0  0  0  0  0  0  0
   40.6400   25.8810   40.2890 C   0  0  0  0  0  0  0  0  0  0  0  0
   39.6410   26.7440   40.5790 N   0  0  0  0  0  0  0  0  0  0  0  0
   39.3210   26.9020   41.8960 C   0  0  0  0  0  0  0  0  0  0  0  0
   37.5670   31.8810   40.3610 N   0  0  0  0  0  0  0  0  0  0  0  0
   37.1770   32.9790   39.7120 C   0  0  0  0  0  0  0  0  0  0  0  0
   38.1660   33.8890   39.7640 N   0  0  0  0  0  0  0  0  0  0  0  0
   39.1900   33.3350   40.4640 C   0  0  0  0  0  0  0  0  0  0  0  0
   38.7880   32.0910   40.8190 N   0  0  0  0  0  0  0  0  0  0  0  0
   40.4780   33.9850   40.7630 C   0  0  0  0  0  0  0  0  0  0  0  0
   41.6830   33.3360   40.8990 C   0  0  0  0  0  0  0  0  0  0  0  0
   42.7950   34.0980   41.1800 C   0  0  0  0  0  0  0  0  0  0  0  0
   42.7250   35.4350   41.3210 N   0  0  0  0  0  0  0  0  0  0  0  0
   41.5460   36.0560   41.1850 C   0  0  0  0  0  0  0  0  0  0  0  0
   40.4250   35.3400   40.9080 N   0  0  0  0  0  0  0  0  0  0  0  0
   41.3750   37.4630   41.3160 N   0  0  0  0  0  0  0  0  0  0  0  0
   35.0884   30.8275   39.7937 H   0  0  0  0  0  0  0  0  0  0  0  0
   34.3677   28.5011   40.4648 H   0  0  0  0  0  0  0  0  0  0  0  0
   37.8157   27.9915   44.4927 H   0  0  0  0  0  0  0  0  0  0  0  0
   41.5244   24.7940   43.3271 H   0  0  0  0  0  0  0  0  0  0  0  0
   40.9251   25.7305   39.2373 H   0  0  0  0  0  0  0  0  0  0  0  0
   36.2053   33.1176   39.2154 H   0  0  0  0  0  0  0  0  0  0  0  0
   41.7560   32.2442   40.7870 H   0  0  0  0  0  0  0  0  0  0  0  0
   43.7691   33.5996   41.2926 H   0  0  0  0  0  0  0  0  0  0  0  0
   40.4410   37.8813   41.1998 H   0  0  0  0  0  0  0  0  0  0  0  0
   42.1853   38.0628   41.5270 H   0  0  0  0  0  0  0  0  0  0  0  0
  1  6  1  0
  2  1  2  0
  2  3  1  0
  3  4  2  0
  4  5  1  0
  5  7  1  0
  6  5  2  0
  7  8  1  0
  8  9  2  0
 10  9  1  0
 11 10  2  0
 12 11  1  0
 13 14  1  0
 13 12  2  0
 14 15  2  0
 15  7  1  0
 15 10  1  0
 16  1  1  0
 16 20  1  0
 17 18  2  0
 17 16  1  0
 18 19  1  0
 19 21  1  0
 19 20  2  0
 21 22  2  0
 21 26  1  0
 22 23  1  0
 23 24  2  0
 25 27  1  0
 25 24  1  0
 26 25  2  0
  2 28  1  0
  3 29  1  0
  8 30  1  0
 11 31  1  0
 13 32  1  0
 17 33  1  0
 22 34  1  0
 23 35  1  0
 27 36  1  0
 27 37  1  0
M  ISO  8  28  14  29  14  30  14  31  14  32  14  33  14  34  14  35  14
M  END
>  <minimizedAffinity>  (1) 
-6.83426714

>  <minimizedRMSD>  (1) 
5.59263277

$$$$
