
     RDKit          3D

 29 31  0  0  0  0  0  0  0  0999 V2000
   37.4500   31.9400   40.4220 N   0  0  0  0  0  0  0  0  0  0  0  0
   37.0930   33.0120   39.7130 C   0  0  0  0  0  0  0  0  0  0  0  0
   38.1060   33.9050   39.7330 N   0  0  0  0  0  0  0  0  0  0  0  0
   39.1090   33.3560   40.4780 C   0  0  0  0  0  0  0  0  0  0  0  0
   38.6740   32.1440   40.8900 N   0  0  0  0  0  0  0  0  0  0  0  0
   40.4070   33.9990   40.7570 C   0  0  0  0  0  0  0  0  0  0  0  0
   41.6070   33.3170   40.8740 C   0  0  0  0  0  0  0  0  0  0  0  0
   42.7320   34.0770   41.1390 C   0  0  0  0  0  0  0  0  0  0  0  0
   42.6830   35.4070   41.2790 N   0  0  0  0  0  0  0  0  0  0  0  0
   41.5120   36.0430   41.1620 C   0  0  0  0  0  0  0  0  0  0  0  0
   40.3750   35.3630   40.9040 N   0  0  0  0  0  0  0  0  0  0  0  0
   41.3660   37.4530   41.2960 N   0  0  0  0  0  0  0  0  0  0  0  0
   36.9020   30.6910   40.8000 C   0  0  0  0  0  0  0  0  0  0  0  0
   35.8220   30.0890   40.1340 C   0  0  0  0  0  0  0  0  0  0  0  0
   35.3500   28.8620   40.5750 C   0  0  0  0  0  0  0  0  0  0  0  0
   35.9840   28.3080   41.6520 N   0  0  0  0  0  0  0  0  0  0  0  0
   37.0110   28.9020   42.2680 C   0  0  0  0  0  0  0  0  0  0  0  0
   37.4920   30.1010   41.8590 N   0  0  0  0  0  0  0  0  0  0  0  0
   37.6660   28.2520   43.4420 C   0  0  0  0  0  0  0  0  0  0  0  0
   37.0590   28.6180   44.6140 F   0  0  0  0  0  0  0  0  0  0  0  0
   38.9970   28.6150   43.5070 F   0  0  0  0  0  0  0  0  0  0  0  0
   37.5940   26.8800   43.2310 F   0  0  0  0  0  0  0  0  0  0  0  0
   36.1311   33.1466   39.1966 H   0  0  0  0  0  0  0  0  0  0  0  0
   41.6626   32.2242   40.7616 H   0  0  0  0  0  0  0  0  0  0  0  0
   43.7028   33.5694   41.2383 H   0  0  0  0  0  0  0  0  0  0  0  0
   40.4371   37.8865   41.1953 H   0  0  0  0  0  0  0  0  0  0  0  0
   42.1893   38.0395   41.4937 H   0  0  0  0  0  0  0  0  0  0  0  0
   35.3551   30.5860   39.2709 H   0  0  0  0  0  0  0  0  0  0  0  0
   34.5056   28.3584   40.0817 H   0  0  0  0  0  0  0  0  0  0  0  0
  1 13  1  0
  1  5  1  0
  2  3  2  0
  2  1  1  0
  3  4  1  0
  4  6  1  0
  4  5  2  0
  6  7  2  0
  6 11  1  0
  7  8  1  0
  8  9  2  0
 10  9  1  0
 10 12  1  0
 11 10  2  0
 13 18  2  0
 14 15  2  0
 14 13  1  0
 15 16  1  0
 16 17  2  0
 17 19  1  0
 18 17  1  0
 19 21  1  0
 19 20  1  0
 22 19  1  0
  2 23  1  0
  7 24  1  0
  8 25  1  0
 12 26  1  0
 12 27  1  0
 14 28  1  0
 15 29  1  0
M  ISO  5  23  14  24  14  25  14  28  14  29  14
M  END
>  <minimizedAffinity>  (1) 
-6.40035343

>  <minimizedRMSD>  (1) 
3.75738978

$$$$
