
     RDKit          3D

 40 44  0  0  0  0  0  0  0  0999 V2000
   36.9420   31.6930   39.8180 C   0  0  0  0  0  0  0  0  0  0  0  0
   36.4270   31.0220   40.9040 C   0  0  0  0  0  0  0  0  0  0  0  0
   35.8150   29.7910   40.6650 C   0  0  0  0  0  0  0  0  0  0  0  0
   35.7620   29.3250   39.3940 N   0  0  0  0  0  0  0  0  0  0  0  0
   36.2720   29.9930   38.3400 C   0  0  0  0  0  0  0  0  0  0  0  0
   36.8430   31.1570   38.6130 N   0  0  0  0  0  0  0  0  0  0  0  0
   36.0870   29.2830   37.0880 C   0  0  0  0  0  0  0  0  0  0  0  0
   37.1120   28.9010   36.3080 N   0  0  0  0  0  0  0  0  0  0  0  0
   36.9980   28.2470   35.1470 C   0  0  0  0  0  0  0  0  0  0  0  0
   35.8060   27.9050   34.6480 N   0  0  0  0  0  0  0  0  0  0  0  0
   34.7120   28.2430   35.3530 C   0  0  0  0  0  0  0  0  0  0  0  0
   33.4730   27.8990   34.8540 C   0  0  0  0  0  0  0  0  0  0  0  0
   32.3190   28.2210   35.5380 C   0  0  0  0  0  0  0  0  0  0  0  0
   32.4620   28.9050   36.7490 C   0  0  0  0  0  0  0  0  0  0  0  0
   33.7210   29.2210   37.1970 C   0  0  0  0  0  0  0  0  0  0  0  0
   34.8850   28.9130   36.5360 C   0  0  0  0  0  0  0  0  0  0  0  0
   37.5960   32.9560   39.8620 N   0  0  0  0  0  0  0  0  0  0  0  0
   37.3280   34.2460   39.5690 C   0  0  0  0  0  0  0  0  0  0  0  0
   38.4130   34.9820   39.8620 N   0  0  0  0  0  0  0  0  0  0  0  0
   39.3620   34.1450   40.3390 C   0  0  0  0  0  0  0  0  0  0  0  0
   38.8370   32.8810   40.3330 N   0  0  0  0  0  0  0  0  0  0  0  0
   40.7260   34.5180   40.7920 C   0  0  0  0  0  0  0  0  0  0  0  0
   41.8550   33.7460   40.6520 C   0  0  0  0  0  0  0  0  0  0  0  0
   43.0270   34.2820   41.1480 C   0  0  0  0  0  0  0  0  0  0  0  0
   43.0930   35.4710   41.7320 N   0  0  0  0  0  0  0  0  0  0  0  0
   41.9750   36.2210   41.8620 C   0  0  0  0  0  0  0  0  0  0  0  0
   40.7920   35.7550   41.3980 N   0  0  0  0  0  0  0  0  0  0  0  0
   41.9420   37.5080   42.4710 N   0  0  0  0  0  0  0  0  0  0  0  0
   36.4952   31.4395   41.9194 H   0  0  0  0  0  0  0  0  0  0  0  0
   35.3836   29.2097   41.4932 H   0  0  0  0  0  0  0  0  0  0  0  0
   37.9084   27.9838   34.5885 H   0  0  0  0  0  0  0  0  0  0  0  0
   33.4041   27.3604   33.8974 H   0  0  0  0  0  0  0  0  0  0  0  0
   31.3271   27.9507   35.1467 H   0  0  0  0  0  0  0  0  0  0  0  0
   31.5757   29.1869   37.3364 H   0  0  0  0  0  0  0  0  0  0  0  0
   33.8032   29.7589   38.1530 H   0  0  0  0  0  0  0  0  0  0  0  0
   36.3818   34.6296   39.1598 H   0  0  0  0  0  0  0  0  0  0  0  0
   41.8263   32.7568   40.1718 H   0  0  0  0  0  0  0  0  0  0  0  0
   43.9517   33.6937   41.0541 H   0  0  0  0  0  0  0  0  0  0  0  0
   41.0531   38.0243   42.5361 H   0  0  0  0  0  0  0  0  0  0  0  0
   42.8070   37.9225   42.8463 H   0  0  0  0  0  0  0  0  0  0  0  0
  1 17  1  0
  1  2  2  0
  3  2  1  0
  4  3  2  0
  5  6  2  0
  5  4  1  0
  6  1  1  0
  7  5  1  0
  8  7  2  0
  9  8  1  0
 10  9  2  0
 10 11  1  0
 11 16  2  0
 12 11  1  0
 12 13  2  0
 13 14  1  0
 14 15  2  0
 16  7  1  0
 16 15  1  0
 17 21  1  0
 18 17  1  0
 18 19  2  0
 19 20  1  0
 20 22  1  0
 21 20  2  0
 22 27  1  0
 23 22  2  0
 23 24  1  0
 24 25  2  0
 25 26  1  0
 26 28  1  0
 27 26  2  0
  2 29  1  0
  3 30  1  0
  9 31  1  0
 12 32  1  0
 13 33  1  0
 14 34  1  0
 15 35  1  0
 18 36  1  0
 23 37  1  0
 24 38  1  0
 28 39  1  0
 28 40  1  0
M  ISO  8  29  14  30  14  31  14  32  14  33  14  34  14  35  14  36  14
M  ISO  2  37  14  38  14
M  END
>  <minimizedAffinity>  (1) 
-6.23404837

>  <minimizedRMSD>  (1) 
0.685675144

$$$$
