
     RDKit          3D

 25 26  0  0  0  0  0  0  0  0999 V2000
   38.9270   28.8610   42.9990 C   0  0  0  0  0  0  0  0  0  0  0  0
   38.6630   27.4730   42.8080 C   0  0  0  0  0  0  0  0  0  0  0  0
   37.4820   27.1130   42.1750 C   0  0  0  0  0  0  0  0  0  0  0  0
   36.6300   28.0960   41.7670 N   0  0  0  0  0  0  0  0  0  0  0  0
   36.9010   29.4040   41.9580 C   0  0  0  0  0  0  0  0  0  0  0  0
   38.0450   29.7790   42.5710 N   0  0  0  0  0  0  0  0  0  0  0  0
   35.9530   30.3730   41.4970 N   0  0  0  0  0  0  0  0  0  0  0  0
   37.0840   25.7280   41.9150 C   0  0  0  0  0  0  0  0  0  0  0  0
   38.1810   24.7120   42.1390 C   0  0  0  0  0  0  0  0  0  0  0  0
   37.7270   23.4950   41.3240 C   0  0  0  0  0  0  0  0  0  0  0  0
   36.6100   23.9760   40.4230 C   0  0  0  0  0  0  0  0  0  0  0  0
   36.7750   25.4820   40.4500 C   0  0  0  0  0  0  0  0  0  0  0  0
   39.8541   29.1804   43.4975 H   0  0  0  0  0  0  0  0  0  0  0  0
   39.3755   26.7091   43.1527 H   0  0  0  0  0  0  0  0  0  0  0  0
   36.1368   31.3776   41.6309 H   0  0  0  0  0  0  0  0  0  0  0  0
   35.0872   30.0655   41.0314 H   0  0  0  0  0  0  0  0  0  0  0  0
   36.2327   25.6082   42.6012 H   0  0  0  0  0  0  0  0  0  0  0  0
   39.1464   25.0908   41.7722 H   0  0  0  0  0  0  0  0  0  0  0  0
   38.3323   24.4780   43.2031 H   0  0  0  0  0  0  0  0  0  0  0  0
   38.5618   23.1079   40.7213 H   0  0  0  0  0  0  0  0  0  0  0  0
   37.3869   22.6802   41.9802 H   0  0  0  0  0  0  0  0  0  0  0  0
   35.6274   23.6788   40.8183 H   0  0  0  0  0  0  0  0  0  0  0  0
   36.6583   23.5527   39.4089 H   0  0  0  0  0  0  0  0  0  0  0  0
   37.6045   25.8067   39.8046 H   0  0  0  0  0  0  0  0  0  0  0  0
   35.9000   26.0351   40.0779 H   0  0  0  0  0  0  0  0  0  0  0  0
  2  1  2  0
  3  2  1  0
  4  5  1  0
  4  3  2  0
  5  6  2  0
  6  1  1  0
  7  5  1  0
  8  9  1  0
  8  3  1  0
 10  9  1  0
 11 12  1  0
 11 10  1  0
 12  8  1  0
  1 13  1  0
  2 14  1  0
  7 15  1  0
  7 16  1  0
  8 17  1  0
  9 18  1  0
  9 19  1  0
 10 20  1  0
 10 21  1  0
 11 22  1  0
 11 23  1  0
 12 24  1  0
 12 25  1  0
M  ISO  8  13  14  14  14  17  13  18  13  19  13  20  13  21  13  22  13
M  ISO  3  23  13  24  13  25  13
M  END
>  <minimizedAffinity>  (1) 
-4.37141991

>  <minimizedRMSD>  (1) 
1.45676327

$$$$
