
     RDKit          3D

 32 35  0  0  0  0  0  0  0  0999 V2000
   37.5830   32.9560   39.7980 N   0  0  0  0  0  0  0  0  0  0  0  0
   37.3170   34.2360   39.5370 C   0  0  0  0  0  0  0  0  0  0  0  0
   38.3950   34.9860   39.8510 N   0  0  0  0  0  0  0  0  0  0  0  0
   39.3500   34.1320   40.3180 C   0  0  0  0  0  0  0  0  0  0  0  0
   38.8160   32.8830   40.2720 N   0  0  0  0  0  0  0  0  0  0  0  0
   36.9350   31.6980   39.7090 C   0  0  0  0  0  0  0  0  0  0  0  0
   36.3720   31.0360   40.8160 C   0  0  0  0  0  0  0  0  0  0  0  0
   35.7600   29.8080   40.6240 C   0  0  0  0  0  0  0  0  0  0  0  0
   35.7400   29.3080   39.3490 N   0  0  0  0  0  0  0  0  0  0  0  0
   36.2880   29.9660   38.3120 C   0  0  0  0  0  0  0  0  0  0  0  0
   36.8960   31.1700   38.4620 N   0  0  0  0  0  0  0  0  0  0  0  0
   36.2420   29.4030   37.0000 N   0  0  0  0  0  0  0  0  0  0  0  0
   35.1330   29.0940   36.2870 C   0  0  0  0  0  0  0  0  0  0  0  0
   35.5040   28.5830   35.0920 N   0  0  0  0  0  0  0  0  0  0  0  0
   36.8550   28.5720   35.0590 C   0  0  0  0  0  0  0  0  0  0  0  0
   37.2760   29.0830   36.2510 N   0  0  0  0  0  0  0  0  0  0  0  0
   40.7000   34.5080   40.7810 C   0  0  0  0  0  0  0  0  0  0  0  0
   41.8270   33.7310   40.6530 C   0  0  0  0  0  0  0  0  0  0  0  0
   43.0090   34.2570   41.1510 C   0  0  0  0  0  0  0  0  0  0  0  0
   43.0680   35.4690   41.7350 N   0  0  0  0  0  0  0  0  0  0  0  0
   41.9560   36.2140   41.8500 C   0  0  0  0  0  0  0  0  0  0  0  0
   40.7770   35.7420   41.3780 N   0  0  0  0  0  0  0  0  0  0  0  0
   41.9300   37.4940   42.4480 N   0  0  0  0  0  0  0  0  0  0  0  0
   36.3698   34.6201   39.1304 H   0  0  0  0  0  0  0  0  0  0  0  0
   36.4172   31.4867   41.8184 H   0  0  0  0  0  0  0  0  0  0  0  0
   35.3083   29.2567   41.4619 H   0  0  0  0  0  0  0  0  0  0  0  0
   34.0963   29.2361   36.6261 H   0  0  0  0  0  0  0  0  0  0  0  0
   37.4902   28.2200   34.2328 H   0  0  0  0  0  0  0  0  0  0  0  0
   41.7924   32.7394   40.1781 H   0  0  0  0  0  0  0  0  0  0  0  0
   43.9312   33.6634   41.0661 H   0  0  0  0  0  0  0  0  0  0  0  0
   41.0447   38.0172   42.5066 H   0  0  0  0  0  0  0  0  0  0  0  0
   42.7963   37.9038   42.8253 H   0  0  0  0  0  0  0  0  0  0  0  0
  1  5  1  0
  2  1  1  0
  2  3  2  0
  3  4  1  0
  4 17  1  0
  5  4  2  0
  6  1  1  0
  6  7  2  0
  8  7  1  0
  9  8  2  0
 10 11  2  0
 10  9  1  0
 11  6  1  0
 12 10  1  0
 13 12  1  0
 14 13  2  0
 15 14  1  0
 15 16  2  0
 16 12  1  0
 17 22  1  0
 18 17  2  0
 18 19  1  0
 19 20  2  0
 20 21  1  0
 21 23  1  0
 22 21  2  0
  2 24  1  0
  7 25  1  0
  8 26  1  0
 13 27  1  0
 15 28  1  0
 18 29  1  0
 19 30  1  0
 23 31  1  0
 23 32  1  0
M  ISO  7  24  14  25  14  26  14  27  14  28  14  29  14  30  14
M  END
>  <minimizedAffinity>  (1) 
-5.71549034

>  <minimizedRMSD>  (1) 
0.579727948

$$$$
