
     RDKit          3D

 33 36  0  0  0  0  0  0  0  0999 V2000
   37.6100   33.0080   39.7950 N   0  0  0  0  0  0  0  0  0  0  0  0
   37.3480   34.2920   39.5470 C   0  0  0  0  0  0  0  0  0  0  0  0
   38.4340   35.0300   39.8730 N   0  0  0  0  0  0  0  0  0  0  0  0
   39.3790   34.1640   40.3330 C   0  0  0  0  0  0  0  0  0  0  0  0
   38.8510   32.9200   40.2770 N   0  0  0  0  0  0  0  0  0  0  0  0
   40.7280   34.5430   40.8020 C   0  0  0  0  0  0  0  0  0  0  0  0
   41.8540   33.7580   40.6710 C   0  0  0  0  0  0  0  0  0  0  0  0
   43.0360   34.2890   41.1740 C   0  0  0  0  0  0  0  0  0  0  0  0
   43.0950   35.5000   41.7610 N   0  0  0  0  0  0  0  0  0  0  0  0
   41.9900   36.2440   41.8770 C   0  0  0  0  0  0  0  0  0  0  0  0
   40.8080   35.7650   41.3980 N   0  0  0  0  0  0  0  0  0  0  0  0
   41.9690   37.5070   42.4860 N   0  0  0  0  0  0  0  0  0  0  0  0
   36.9620   31.7460   39.6960 C   0  0  0  0  0  0  0  0  0  0  0  0
   36.3970   31.0720   40.7690 C   0  0  0  0  0  0  0  0  0  0  0  0
   35.7870   29.8410   40.5610 C   0  0  0  0  0  0  0  0  0  0  0  0
   35.7780   29.3600   39.2970 N   0  0  0  0  0  0  0  0  0  0  0  0
   36.3300   30.0280   38.2770 C   0  0  0  0  0  0  0  0  0  0  0  0
   36.9340   31.2280   38.4320 N   0  0  0  0  0  0  0  0  0  0  0  0
   36.2410   29.3850   36.9800 C   0  0  0  0  0  0  0  0  0  0  0  0
   36.5960   29.7620   35.7220 C   0  0  0  0  0  0  0  0  0  0  0  0
   36.4010   28.9520   34.6560 C   0  0  0  0  0  0  0  0  0  0  0  0
   35.7770   27.6560   35.0120 C   0  0  0  0  0  0  0  0  0  0  0  0
   35.5630   27.8110   36.8870 S   0  0  0  0  0  0  0  0  0  0  0  0
   36.4037   34.6863   39.1435 H   0  0  0  0  0  0  0  0  0  0  0  0
   41.8188   32.7669   40.1950 H   0  0  0  0  0  0  0  0  0  0  0  0
   43.9593   33.6972   41.0894 H   0  0  0  0  0  0  0  0  0  0  0  0
   41.0867   38.0350   42.5465 H   0  0  0  0  0  0  0  0  0  0  0  0
   42.8359   37.9067   42.8728 H   0  0  0  0  0  0  0  0  0  0  0  0
   36.4317   31.5093   41.7778 H   0  0  0  0  0  0  0  0  0  0  0  0
   35.3303   29.2808   41.3902 H   0  0  0  0  0  0  0  0  0  0  0  0
   37.0532   30.7505   35.5676 H   0  0  0  0  0  0  0  0  0  0  0  0
   36.6780   29.2279   33.6278 H   0  0  0  0  0  0  0  0  0  0  0  0
   35.5067   26.8169   34.3541 H   0  0  0  0  0  0  0  0  0  0  0  0
  1  5  1  0
  2  1  1  0
  2  3  2  0
  3  4  1  0
  4  6  1  0
  5  4  2  0
  6 11  1  0
  7  6  2  0
  7  8  1  0
  8  9  2  0
  9 10  1  0
 10 12  1  0
 11 10  2  0
 13  1  1  0
 13 14  2  0
 15 14  1  0
 16 15  2  0
 17 18  2  0
 17 16  1  0
 18 13  1  0
 19 17  1  0
 20 19  2  0
 21 22  2  0
 21 20  1  0
 22 23  1  0
 23 19  1  0
  2 24  1  0
  7 25  1  0
  8 26  1  0
 12 27  1  0
 12 28  1  0
 14 29  1  0
 15 30  1  0
 20 31  1  0
 21 32  1  0
 22 33  1  0
M  ISO  8  24  14  25  14  26  14  29  14  30  14  31  14  32  14  33  14
M  END
>  <minimizedAffinity>  (1) 
-5.47408867

>  <minimizedRMSD>  (1) 
0.527449191

$$$$
