
     RDKit          3D

 29 31  0  0  0  0  0  0  0  0999 V2000
   37.9380   33.3830   39.8210 N   0  0  0  0  0  0  0  0  0  0  0  0
   37.6980   34.6810   39.6370 C   0  0  0  0  0  0  0  0  0  0  0  0
   38.7950   35.3740   40.0070 N   0  0  0  0  0  0  0  0  0  0  0  0
   39.7280   34.4640   40.4300 C   0  0  0  0  0  0  0  0  0  0  0  0
   39.1700   33.2350   40.3030 N   0  0  0  0  0  0  0  0  0  0  0  0
   41.0780   34.7940   40.9230 C   0  0  0  0  0  0  0  0  0  0  0  0
   42.2060   34.0470   40.6690 C   0  0  0  0  0  0  0  0  0  0  0  0
   43.3950   34.5050   41.2120 C   0  0  0  0  0  0  0  0  0  0  0  0
   43.4670   35.6240   41.9560 N   0  0  0  0  0  0  0  0  0  0  0  0
   42.3500   36.3390   42.1920 C   0  0  0  0  0  0  0  0  0  0  0  0
   41.1540   35.9280   41.6780 N   0  0  0  0  0  0  0  0  0  0  0  0
   42.3270   37.5240   42.9590 N   0  0  0  0  0  0  0  0  0  0  0  0
   37.2610   32.1370   39.6500 C   0  0  0  0  0  0  0  0  0  0  0  0
   36.6030   31.4680   40.6780 C   0  0  0  0  0  0  0  0  0  0  0  0
   35.9790   30.2570   40.3840 C   0  0  0  0  0  0  0  0  0  0  0  0
   36.0480   29.7930   39.1130 N   0  0  0  0  0  0  0  0  0  0  0  0
   36.6920   30.4640   38.1470 C   0  0  0  0  0  0  0  0  0  0  0  0
   37.3060   31.6350   38.3870 N   0  0  0  0  0  0  0  0  0  0  0  0
   36.7530   29.9320   36.7500 C   0  0  0  0  0  0  0  0  0  0  0  0
   36.7640   35.1139   39.2493 H   0  0  0  0  0  0  0  0  0  0  0  0
   42.1650   33.1296   40.0634 H   0  0  0  0  0  0  0  0  0  0  0  0
   44.3158   33.9320   41.0280 H   0  0  0  0  0  0  0  0  0  0  0  0
   41.4397   38.0266   43.1039 H   0  0  0  0  0  0  0  0  0  0  0  0
   43.1975   37.8860   43.3737 H   0  0  0  0  0  0  0  0  0  0  0  0
   36.5762   31.8842   41.6959 H   0  0  0  0  0  0  0  0  0  0  0  0
   35.4449   29.6931   41.1629 H   0  0  0  0  0  0  0  0  0  0  0  0
   36.8783   28.8395   36.7788 H   0  0  0  0  0  0  0  0  0  0  0  0
   35.8205   30.1803   36.2220 H   0  0  0  0  0  0  0  0  0  0  0  0
   37.6051   30.3850   36.2220 H   0  0  0  0  0  0  0  0  0  0  0  0
  1  5  1  0
  2  1  1  0
  2  3  2  0
  3  4  1  0
  4  6  1  0
  5  4  2  0
  6 11  1  0
  7  6  2  0
  7  8  1  0
  8  9  2  0
  9 10  1  0
 10 12  1  0
 11 10  2  0
 13  1  1  0
 13 14  2  0
 15 14  1  0
 16 15  2  0
 17 18  2  0
 17 16  1  0
 18 13  1  0
 19 17  1  0
  2 20  1  0
  7 21  1  0
  8 22  1  0
 12 23  1  0
 12 24  1  0
 14 25  1  0
 15 26  1  0
 19 27  1  0
 19 28  1  0
 19 29  1  0
M  ISO  8  20  14  21  14  22  14  25  14  26  14  27   8  28   8  29   8
M  END
>  <minimizedAffinity>  (1) 
-5.03112078

>  <minimizedRMSD>  (1) 
0.0408545546

$$$$
