
     RDKit          3D

 27 29  0  0  0  0  0  0  0  0999 V2000
   37.9090   33.3570   39.8160 N   0  0  0  0  0  0  0  0  0  0  0  0
   37.6730   34.6570   39.6380 C   0  0  0  0  0  0  0  0  0  0  0  0
   38.7620   35.3560   40.0070 N   0  0  0  0  0  0  0  0  0  0  0  0
   39.7000   34.4450   40.4290 C   0  0  0  0  0  0  0  0  0  0  0  0
   39.1380   33.2270   40.2970 N   0  0  0  0  0  0  0  0  0  0  0  0
   41.0450   34.7810   40.9220 C   0  0  0  0  0  0  0  0  0  0  0  0
   42.1770   34.0150   40.6840 C   0  0  0  0  0  0  0  0  0  0  0  0
   43.3630   34.4990   41.2360 C   0  0  0  0  0  0  0  0  0  0  0  0
   43.4230   35.6360   41.9540 N   0  0  0  0  0  0  0  0  0  0  0  0
   42.3120   36.3520   42.1650 C   0  0  0  0  0  0  0  0  0  0  0  0
   41.1220   35.9460   41.6610 N   0  0  0  0  0  0  0  0  0  0  0  0
   42.3030   37.5460   42.9050 N   0  0  0  0  0  0  0  0  0  0  0  0
   37.2410   32.1140   39.6450 C   0  0  0  0  0  0  0  0  0  0  0  0
   36.5810   31.4360   40.6740 C   0  0  0  0  0  0  0  0  0  0  0  0
   35.9640   30.2300   40.3900 C   0  0  0  0  0  0  0  0  0  0  0  0
   36.0340   29.7720   39.1180 N   0  0  0  0  0  0  0  0  0  0  0  0
   36.6720   30.4390   38.1480 C   0  0  0  0  0  0  0  0  0  0  0  0
   37.2950   31.6290   38.3760 N   0  0  0  0  0  0  0  0  0  0  0  0
   36.6560   29.6730   36.5300 S   0  0  0  0  0  0  0  0  0  0  0  0
   36.7381   35.0889   39.2515 H   0  0  0  0  0  0  0  0  0  0  0  0
   42.1415   33.0852   40.0973 H   0  0  0  0  0  0  0  0  0  0  0  0
   44.2891   33.9269   41.0778 H   0  0  0  0  0  0  0  0  0  0  0  0
   41.4216   38.0617   43.0399 H   0  0  0  0  0  0  0  0  0  0  0  0
   43.1778   37.9058   43.3127 H   0  0  0  0  0  0  0  0  0  0  0  0
   36.5525   31.8535   41.6913 H   0  0  0  0  0  0  0  0  0  0  0  0
   35.4352   29.6635   41.1706 H   0  0  0  0  0  0  0  0  0  0  0  0
   36.6275   28.3105   36.6701 H   0  0  0  0  0  0  0  0  0  0  0  0
  1  5  1  0
  2  1  1  0
  2  3  2  0
  3  4  1  0
  4  6  1  0
  5  4  2  0
  6 11  1  0
  7  6  2  0
  7  8  1  0
  8  9  2  0
  9 10  1  0
 10 12  1  0
 11 10  2  0
 13  1  1  0
 13 14  2  0
 15 14  1  0
 16 15  2  0
 17 18  2  0
 17 16  1  0
 18 13  1  0
 19 17  1  0
  2 20  1  0
  7 21  1  0
  8 22  1  0
 12 23  1  0
 12 24  1  0
 14 25  1  0
 15 26  1  0
 19 27  1  0
M  ISO  6  20  14  21  14  22  14  25  14  26  14  27  11
M  END
>  <minimizedAffinity>  (1) 
-4.97117996

>  <minimizedRMSD>  (1) 
0.0318607353

$$$$
