
     RDKit          3D

 28 30  0  0  0  0  0  0  0  0999 V2000
   37.4840   32.8170   39.8020 N   0  0  0  0  0  0  0  0  0  0  0  0
   37.2100   34.0910   39.4950 C   0  0  0  0  0  0  0  0  0  0  0  0
   38.2910   34.8380   39.7920 N   0  0  0  0  0  0  0  0  0  0  0  0
   39.2410   34.0090   40.2880 C   0  0  0  0  0  0  0  0  0  0  0  0
   38.7250   32.7460   40.2900 N   0  0  0  0  0  0  0  0  0  0  0  0
   40.5910   34.3990   40.7460 C   0  0  0  0  0  0  0  0  0  0  0  0
   41.7240   33.6020   40.6710 C   0  0  0  0  0  0  0  0  0  0  0  0
   42.8990   34.1510   41.1540 C   0  0  0  0  0  0  0  0  0  0  0  0
   42.9630   35.3770   41.6680 N   0  0  0  0  0  0  0  0  0  0  0  0
   41.8580   36.1370   41.7340 C   0  0  0  0  0  0  0  0  0  0  0  0
   40.6650   35.6690   41.2790 N   0  0  0  0  0  0  0  0  0  0  0  0
   41.8270   37.4540   42.2640 N   0  0  0  0  0  0  0  0  0  0  0  0
   36.8420   31.5390   39.7570 C   0  0  0  0  0  0  0  0  0  0  0  0
   36.3440   30.8790   40.8720 C   0  0  0  0  0  0  0  0  0  0  0  0
   35.7390   29.6390   40.6990 C   0  0  0  0  0  0  0  0  0  0  0  0
   35.6720   29.1430   39.4250 N   0  0  0  0  0  0  0  0  0  0  0  0
   36.1600   29.8010   38.3770 C   0  0  0  0  0  0  0  0  0  0  0  0
   36.7470   31.0020   38.5250 N   0  0  0  0  0  0  0  0  0  0  0  0
   36.0560   29.2130   37.0320 C   0  0  0  0  0  0  0  0  0  0  0  0
   36.6140   29.8790   36.1210 O   0  0  0  0  0  0  0  0  0  0  0  0
   36.2650   34.4636   39.0730 H   0  0  0  0  0  0  0  0  0  0  0  0
   41.6902   32.5865   40.2496 H   0  0  0  0  0  0  0  0  0  0  0  0
   43.8186   33.5488   41.1113 H   0  0  0  0  0  0  0  0  0  0  0  0
   40.9420   37.9806   42.2834 H   0  0  0  0  0  0  0  0  0  0  0  0
   42.6895   37.8827   42.6290 H   0  0  0  0  0  0  0  0  0  0  0  0
   36.4263   31.3281   41.8728 H   0  0  0  0  0  0  0  0  0  0  0  0
   35.3302   29.0785   41.5527 H   0  0  0  0  0  0  0  0  0  0  0  0
   35.5317   28.2657   36.8378 H   0  0  0  0  0  0  0  0  0  0  0  0
  1  5  1  0
  2  3  2  0
  2  1  1  0
  3  4  1  0
  4  5  2  0
  4  6  1  0
  6 11  1  0
  7  6  2  0
  7  8  1  0
  8  9  2  0
  9 10  1  0
 10 12  1  0
 11 10  2  0
 13  1  1  0
 13 14  2  0
 15 14  1  0
 16 15  2  0
 17 18  2  0
 17 16  1  0
 18 13  1  0
 19 17  1  0
 20 19  2  0
  2 21  1  0
  7 22  1  0
  8 23  1  0
 12 24  1  0
 12 25  1  0
 14 26  1  0
 15 27  1  0
 19 28  1  0
M  ISO  6  21  14  22  14  23  14  26  14  27  14  28   6
M  END
>  <minimizedAffinity>  (1) 
-4.96677542

>  <minimizedRMSD>  (1) 
0.730171084

$$$$
