
     RDKit          3D

 13 13  0  0  0  0  0  0  0  0999 V2000
   38.3380   29.0480   43.2970 C   0  0  0  0  0  0  0  0  0  0  0  0
   37.8750   27.7810   43.6860 C   0  0  0  0  0  0  0  0  0  0  0  0
   36.7920   27.2440   42.9930 C   0  0  0  0  0  0  0  0  0  0  0  0
   36.2360   27.9610   41.9820 N   0  0  0  0  0  0  0  0  0  0  0  0
   36.7050   29.1740   41.6360 C   0  0  0  0  0  0  0  0  0  0  0  0
   37.7530   29.7200   42.2890 N   0  0  0  0  0  0  0  0  0  0  0  0
   35.9340   29.7570   40.5060 C   0  0  0  0  0  0  0  0  0  0  0  0
   36.5710   29.5200   39.2970 F   0  0  0  0  0  0  0  0  0  0  0  0
   35.8040   31.1220   40.6830 F   0  0  0  0  0  0  0  0  0  0  0  0
   34.6490   29.2420   40.4830 F   0  0  0  0  0  0  0  0  0  0  0  0
   39.1920   29.4981   43.8244 H   0  0  0  0  0  0  0  0  0  0  0  0
   38.3514   27.2304   44.5106 H   0  0  0  0  0  0  0  0  0  0  0  0
   36.3932   26.2543   43.2606 H   0  0  0  0  0  0  0  0  0  0  0  0
  1  2  2  0
  3  2  1  0
  4  3  2  0
  5  4  1  0
  5  6  2  0
  6  1  1  0
  7  9  1  0
  7  5  1  0
  8  7  1  0
 10  7  1  0
  1 11  1  0
  2 12  1  0
  3 13  1  0
M  ISO  3  11  14  12  14  13  14
M  END
>  <minimizedAffinity>  (1) 
-3.47035718

>  <minimizedRMSD>  (1) 
0.489544302

$$$$
