
     RDKit          3D

 20 20  0  0  0  0  0  0  0  0999 V2000
   39.9980   29.8910   41.0290 C   0  0  0  0  0  0  0  0  0  0  0  0
   39.3600   29.5420   42.2180 C   0  0  0  0  0  0  0  0  0  0  0  0
   37.9870   29.7440   42.2960 C   0  0  0  0  0  0  0  0  0  0  0  0
   37.3280   30.2680   41.2200 N   0  0  0  0  0  0  0  0  0  0  0  0
   37.9790   30.5880   40.1000 C   0  0  0  0  0  0  0  0  0  0  0  0
   39.3210   30.4000   39.9980 N   0  0  0  0  0  0  0  0  0  0  0  0
   37.2420   29.4120   43.4880 N   0  0  0  0  0  0  0  0  0  0  0  0
   37.2210   28.0580   43.9860 C   0  0  0  0  0  0  0  0  0  0  0  0
   38.2830   27.3520   43.7240 N   0  0  0  0  0  0  0  0  0  0  0  0
   36.0150   27.7220   44.6950 N   0  0  0  0  0  0  0  0  0  0  0  0
   38.4170   26.3650   44.0140 H   0  0  0  0  0  0  0  0  0  0  0  0
   37.0770   31.1420   39.0490 C   0  0  0  0  0  0  0  0  0  0  0  0
   37.7010   31.1790   37.8220 F   0  0  0  0  0  0  0  0  0  0  0  0
   36.6580   32.4120   39.4060 F   0  0  0  0  0  0  0  0  0  0  0  0
   35.9220   30.3630   38.9870 F   0  0  0  0  0  0  0  0  0  0  0  0
   41.0843   29.7435   40.9385 H   0  0  0  0  0  0  0  0  0  0  0  0
   39.9229   29.1217   43.0644 H   0  0  0  0  0  0  0  0  0  0  0  0
   36.7215   30.1478   43.9866 H   0  0  0  0  0  0  0  0  0  0  0  0
   35.8969   26.7791   45.0923 H   0  0  0  0  0  0  0  0  0  0  0  0
   35.2698   28.4244   44.8053 H   0  0  0  0  0  0  0  0  0  0  0  0
  1  2  2  0
  2  3  1  0
  3  7  1  0
  4  3  2  0
  5  4  1  0
  6  5  2  0
  6  1  1  0
  7  8  1  0
  8 10  1  0
  9  8  2  0
  9 11  1  0
 12 14  1  0
 12  5  1  0
 13 12  1  0
 15 12  1  0
  1 16  1  0
  2 17  1  0
  7 18  1  0
 10 19  1  0
 10 20  1  0
M  ISO  2  16  14  17  14
M  END
>  <minimizedAffinity>  (1) 
-4.77977657

>  <minimizedRMSD>  (1) 
2.88507748

$$$$
