
     RDKit          3D

 16 16  0  0  0  0  0  0  0  0999 V2000
   39.4080   30.5980   42.2630 C   0  0  0  0  0  0  0  0  0  0  0  0
   38.9690   29.6230   43.1790 C   0  0  0  0  0  0  0  0  0  0  0  0
   37.7350   29.0390   42.9450 C   0  0  0  0  0  0  0  0  0  0  0  0
   36.9950   29.4160   41.8570 N   0  0  0  0  0  0  0  0  0  0  0  0
   37.4550   30.3590   41.0010 C   0  0  0  0  0  0  0  0  0  0  0  0
   38.6550   30.9460   41.2030 N   0  0  0  0  0  0  0  0  0  0  0  0
   36.4830   30.5960   39.9080 C   0  0  0  0  0  0  0  0  0  0  0  0
   36.8530   29.9200   38.7610 F   0  0  0  0  0  0  0  0  0  0  0  0
   36.4290   31.9590   39.6350 F   0  0  0  0  0  0  0  0  0  0  0  0
   35.2030   30.2520   40.3070 F   0  0  0  0  0  0  0  0  0  0  0  0
   37.2470   27.9970   43.9080 C   0  0  0  0  0  0  0  0  0  0  0  0
   38.3040   27.1530   44.2490 F   0  0  0  0  0  0  0  0  0  0  0  0
   36.7650   28.5870   45.0510 F   0  0  0  0  0  0  0  0  0  0  0  0
   36.2290   27.2760   43.3030 F   0  0  0  0  0  0  0  0  0  0  0  0
   40.3830   31.0836   42.4163 H   0  0  0  0  0  0  0  0  0  0  0  0
   39.5819   29.3363   44.0463 H   0  0  0  0  0  0  0  0  0  0  0  0
  1  2  2  0
  3  2  1  0
  3 11  1  0
  4  3  2  0
  5  6  2  0
  5  4  1  0
  6  1  1  0
  7 10  1  0
  7  5  1  0
  8  7  1  0
  9  7  1  0
 11 12  1  0
 11 13  1  0
 14 11  1  0
  1 15  1  0
  2 16  1  0
M  ISO  2  15  14  16  14
M  END
>  <minimizedAffinity>  (1) 
-4.70845509

>  <minimizedRMSD>  (1) 
1.94914472

$$$$
