
     RDKit          3D

 20 21  0  0  0  0  0  0  0  0999 V2000
   39.9560   31.8080   41.3970 C   0  0  0  0  0  0  0  0  0  0  0  0
   39.4000   30.7750   42.1520 C   0  0  0  0  0  0  0  0  0  0  0  0
   38.2220   30.1840   41.6860 C   0  0  0  0  0  0  0  0  0  0  0  0
   37.6850   30.6500   40.5210 N   0  0  0  0  0  0  0  0  0  0  0  0
   38.2450   31.6450   39.8200 C   0  0  0  0  0  0  0  0  0  0  0  0
   39.3760   32.2160   40.2640 N   0  0  0  0  0  0  0  0  0  0  0  0
   37.5850   29.1090   42.4090 N   0  0  0  0  0  0  0  0  0  0  0  0
   37.8600   28.9760   43.7160 N   0  0  0  0  0  0  0  0  0  0  0  0
   37.1550   27.9070   44.1900 C   0  0  0  0  0  0  0  0  0  0  0  0
   36.4280   27.3800   43.1270 C   0  0  0  0  0  0  0  0  0  0  0  0
   36.7150   28.1570   42.0080 C   0  0  0  0  0  0  0  0  0  0  0  0
   37.4640   31.9640   38.5930 C   0  0  0  0  0  0  0  0  0  0  0  0
   38.2860   31.9230   37.4670 F   0  0  0  0  0  0  0  0  0  0  0  0
   36.9060   33.2130   38.7060 F   0  0  0  0  0  0  0  0  0  0  0  0
   36.4140   31.0590   38.4510 F   0  0  0  0  0  0  0  0  0  0  0  0
   40.8827   32.2925   41.7382 H   0  0  0  0  0  0  0  0  0  0  0  0
   39.8739   30.4361   43.0850 H   0  0  0  0  0  0  0  0  0  0  0  0
   37.1607   27.5310   45.2237 H   0  0  0  0  0  0  0  0  0  0  0  0
   35.7531   26.5122   43.1639 H   0  0  0  0  0  0  0  0  0  0  0  0
   36.3113   28.0217   40.9937 H   0  0  0  0  0  0  0  0  0  0  0  0
  1  2  2  0
  3  2  1  0
  3  7  1  0
  4  3  2  0
  5  6  2  0
  5  4  1  0
  6  1  1  0
  7  8  1  0
  8  9  2  0
 10  9  1  0
 11  7  1  0
 11 10  2  0
 12 14  1  0
 12  5  1  0
 13 12  1  0
 15 12  1  0
  1 16  1  0
  2 17  1  0
  9 18  1  0
 10 19  1  0
 11 20  1  0
M  ISO  5  16  14  17  14  18  14  19  14  20  14
M  END
>  <minimizedAffinity>  (1) 
-4.70469332

>  <minimizedRMSD>  (1) 
3.52377725

$$$$
