
     RDKit          3D

 21 22  0  0  0  0  0  0  0  0999 V2000
   37.9540   28.2180   43.4610 C   0  0  0  0  0  0  0  0  0  0  0  0
   37.9200   26.9220   42.9190 C   0  0  0  0  0  0  0  0  0  0  0  0
   37.2930   26.7550   41.6970 C   0  0  0  0  0  0  0  0  0  0  0  0
   36.7470   27.8210   41.0780 N   0  0  0  0  0  0  0  0  0  0  0  0
   36.7950   29.0530   41.6210 C   0  0  0  0  0  0  0  0  0  0  0  0
   37.3970   29.2670   42.8160 N   0  0  0  0  0  0  0  0  0  0  0  0
   37.2520   25.4110   41.1240 C   0  0  0  0  0  0  0  0  0  0  0  0
   37.9490   24.3670   41.6960 C   0  0  0  0  0  0  0  0  0  0  0  0
   37.8110   23.1670   41.0410 C   0  0  0  0  0  0  0  0  0  0  0  0
   37.0730   22.9680   39.9360 N   0  0  0  0  0  0  0  0  0  0  0  0
   36.4110   24.0160   39.4120 C   0  0  0  0  0  0  0  0  0  0  0  0
   36.5070   25.2370   40.0170 N   0  0  0  0  0  0  0  0  0  0  0  0
   36.1320   30.0660   40.7630 C   0  0  0  0  0  0  0  0  0  0  0  0
   36.8830   30.3380   39.6290 F   0  0  0  0  0  0  0  0  0  0  0  0
   35.9390   31.2330   41.4690 F   0  0  0  0  0  0  0  0  0  0  0  0
   34.8670   29.6210   40.3930 F   0  0  0  0  0  0  0  0  0  0  0  0
   38.4448   28.3824   44.4316 H   0  0  0  0  0  0  0  0  0  0  0  0
   38.3753   26.0712   43.4470 H   0  0  0  0  0  0  0  0  0  0  0  0
   38.5637   24.4852   42.6005 H   0  0  0  0  0  0  0  0  0  0  0  0
   38.3475   22.3002   41.4542 H   0  0  0  0  0  0  0  0  0  0  0  0
   35.7993   23.8908   38.5064 H   0  0  0  0  0  0  0  0  0  0  0  0
  2  1  2  0
  3  2  1  0
  4  5  1  0
  4  3  2  0
  5  6  2  0
  6  1  1  0
  7  8  2  0
  7  3  1  0
  9  8  1  0
 10  9  2  0
 11 10  1  0
 11 12  2  0
 12  7  1  0
 13 15  1  0
 13  5  1  0
 14 13  1  0
 16 13  1  0
  1 17  1  0
  2 18  1  0
  8 19  1  0
  9 20  1  0
 11 21  1  0
M  ISO  5  17  14  18  14  19  14  20  14  21  14
M  END
>  <minimizedAffinity>  (1) 
-4.42469692

>  <minimizedRMSD>  (1) 
2.51213837

$$$$
