
     RDKit          3D

 29 30  0  0  0  0  0  0  0  0999 V2000
   38.9830   29.9010   42.7250 C   0  0  0  0  0  0  0  0  0  0  0  0
   38.5940   28.5580   42.5250 C   0  0  0  0  0  0  0  0  0  0  0  0
   37.8390   28.2630   41.4020 C   0  0  0  0  0  0  0  0  0  0  0  0
   37.5010   29.2610   40.5410 N   0  0  0  0  0  0  0  0  0  0  0  0
   37.8850   30.5250   40.7570 C   0  0  0  0  0  0  0  0  0  0  0  0
   38.6220   30.8410   41.8430 N   0  0  0  0  0  0  0  0  0  0  0  0
   37.4250   26.8520   41.1830 C   0  0  0  0  0  0  0  0  0  0  0  0
   38.4720   26.1560   40.3560 C   0  0  0  0  0  0  0  0  0  0  0  0
   38.2940   24.6680   40.3080 C   0  0  0  0  0  0  0  0  0  0  0  0
   37.9390   24.0520   41.6170 C   0  0  0  0  0  0  0  0  0  0  0  0
   36.7160   24.7620   42.2060 C   0  0  0  0  0  0  0  0  0  0  0  0
   37.1750   26.1780   42.5030 C   0  0  0  0  0  0  0  0  0  0  0  0
   37.4070   31.4450   39.6950 C   0  0  0  0  0  0  0  0  0  0  0  0
   38.4220   31.7200   38.7810 F   0  0  0  0  0  0  0  0  0  0  0  0
   36.9740   32.6250   40.2440 F   0  0  0  0  0  0  0  0  0  0  0  0
   36.3250   30.8770   39.0320 F   0  0  0  0  0  0  0  0  0  0  0  0
   39.5827   30.1745   43.6057 H   0  0  0  0  0  0  0  0  0  0  0  0
   38.8815   27.7715   43.2383 H   0  0  0  0  0  0  0  0  0  0  0  0
   36.4780   26.8073   40.6251 H   0  0  0  0  0  0  0  0  0  0  0  0
   38.4234   26.5472   39.3291 H   0  0  0  0  0  0  0  0  0  0  0  0
   39.4458   26.3536   40.8278 H   0  0  0  0  0  0  0  0  0  0  0  0
   37.4919   24.4397   39.5907 H   0  0  0  0  0  0  0  0  0  0  0  0
   39.2647   24.2434   40.0122 H   0  0  0  0  0  0  0  0  0  0  0  0
   37.7077   22.9868   41.4693 H   0  0  0  0  0  0  0  0  0  0  0  0
   38.7877   24.1527   42.3095 H   0  0  0  0  0  0  0  0  0  0  0  0
   35.8892   24.7698   41.4805 H   0  0  0  0  0  0  0  0  0  0  0  0
   36.3445   24.2550   43.1087 H   0  0  0  0  0  0  0  0  0  0  0  0
   38.1009   26.1571   43.0965 H   0  0  0  0  0  0  0  0  0  0  0  0
   36.4127   26.7219   43.0802 H   0  0  0  0  0  0  0  0  0  0  0  0
  2  1  2  0
  3  2  1  0
  4  5  1  0
  4  3  2  0
  5  6  2  0
  6  1  1  0
  7  3  1  0
  7 12  1  0
  8  7  1  0
  9  8  1  0
  9 10  1  0
 10 11  1  0
 11 12  1  0
 13 15  1  0
 13  5  1  0
 14 13  1  0
 16 13  1  0
  1 17  1  0
  2 18  1  0
  7 19  1  0
  8 20  1  0
  8 21  1  0
  9 22  1  0
  9 23  1  0
 10 24  1  0
 10 25  1  0
 11 26  1  0
 11 27  1  0
 12 28  1  0
 12 29  1  0
M  ISO  8  17  14  18  14  19  13  20  13  21  13  22  13  23  13  24  13
M  ISO  5  25  13  26  13  27  13  28  13  29  13
M  END
>  <minimizedAffinity>  (1) 
-4.38820505

>  <minimizedRMSD>  (1) 
2.56338978

$$$$
