
     RDKit          3D

 19 19  0  0  0  0  0  0  0  0999 V2000
   39.6830   29.6650   42.4190 C   0  0  0  0  0  0  0  0  0  0  0  0
   38.9370   28.7340   43.1480 C   0  0  0  0  0  0  0  0  0  0  0  0
   37.5600   28.6600   42.9250 C   0  0  0  0  0  0  0  0  0  0  0  0
   37.0100   29.4980   42.0130 N   0  0  0  0  0  0  0  0  0  0  0  0
   37.7570   30.3860   41.3260 C   0  0  0  0  0  0  0  0  0  0  0  0
   39.0950   30.4810   41.5180 N   0  0  0  0  0  0  0  0  0  0  0  0
   36.9170   31.1880   40.3840 C   0  0  0  0  0  0  0  0  0  0  0  0
   37.3100   30.9460   39.0710 F   0  0  0  0  0  0  0  0  0  0  0  0
   37.0610   32.5280   40.6490 F   0  0  0  0  0  0  0  0  0  0  0  0
   35.5850   30.9000   40.5540 F   0  0  0  0  0  0  0  0  0  0  0  0
   36.7630   27.6790   43.6910 C   0  0  0  0  0  0  0  0  0  0  0  0
   36.4950   28.1260   45.1110 C   0  0  0  0  0  0  0  0  0  0  0  0
   40.7686   29.7340   42.5824 H   0  0  0  0  0  0  0  0  0  0  0  0
   39.4238   28.0741   43.8812 H   0  0  0  0  0  0  0  0  0  0  0  0
   35.7997   27.5327   43.1804 H   0  0  0  0  0  0  0  0  0  0  0  0
   37.3431   26.7457   43.7404 H   0  0  0  0  0  0  0  0  0  0  0  0
   36.9307   27.3993   45.8125 H   0  0  0  0  0  0  0  0  0  0  0  0
   36.9500   29.1137   45.2765 H   0  0  0  0  0  0  0  0  0  0  0  0
   35.4094   28.1900   45.2765 H   0  0  0  0  0  0  0  0  0  0  0  0
  1  2  2  0
  3  2  1  0
  3 11  1  0
  4  3  2  0
  5  6  2  0
  5  4  1  0
  6  1  1  0
  7 10  1  0
  7  9  1  0
  7  5  1  0
  8  7  1  0
 11 12  1  0
  1 13  1  0
  2 14  1  0
 11 15  1  0
 11 16  1  0
 12 17  1  0
 12 18  1  0
 12 19  1  0
M  ISO  7  13  14  14  14  15   8  16   8  17   8  18   8  19   8
M  END
>  <minimizedAffinity>  (1) 
-4.09720755

>  <minimizedRMSD>  (1) 
1.80008459

$$$$
