
     RDKit          3D

 24 24  0  0  0  0  0  0  0  0999 V2000
   40.3900   27.3610   43.4720 C   0  0  0  0  0  0  0  0  0  0  0  0
   40.6020   28.6660   42.9920 C   0  0  0  0  0  0  0  0  0  0  0  0
   39.5020   29.4430   42.6650 C   0  0  0  0  0  0  0  0  0  0  0  0
   38.2610   28.9270   42.8150 N   0  0  0  0  0  0  0  0  0  0  0  0
   38.0780   27.6670   43.2790 C   0  0  0  0  0  0  0  0  0  0  0  0
   39.1280   26.8720   43.6120 N   0  0  0  0  0  0  0  0  0  0  0  0
   36.6280   27.3370   43.3540 C   0  0  0  0  0  0  0  0  0  0  0  0
   36.1480   27.6130   44.6400 F   0  0  0  0  0  0  0  0  0  0  0  0
   36.4250   26.0100   43.0960 F   0  0  0  0  0  0  0  0  0  0  0  0
   35.9080   28.0530   42.4320 F   0  0  0  0  0  0  0  0  0  0  0  0
   39.7300   30.7960   42.1670 C   0  0  0  0  0  0  0  0  0  0  0  0
   38.9150   31.2230   41.0150 C   0  0  0  0  0  0  0  0  0  0  0  0
   39.2660   32.5210   40.5070 N   0  0  0  0  0  0  0  0  0  0  0  0
   38.6180   33.7780   40.6430 C   0  0  0  0  0  0  0  0  0  0  0  0
   37.7600   34.1160   39.7900 O   0  0  0  0  0  0  0  0  0  0  0  0
   38.8150   34.7170   41.6300 O   0  0  0  0  0  0  0  0  0  0  0  0
   41.2517   26.7305   43.7364 H   0  0  0  0  0  0  0  0  0  0  0  0
   41.6218   29.0624   42.8783 H   0  0  0  0  0  0  0  0  0  0  0  0
   39.5302   31.4937   42.9937 H   0  0  0  0  0  0  0  0  0  0  0  0
   40.7684   30.7996   41.8040 H   0  0  0  0  0  0  0  0  0  0  0  0
   39.0438   30.4876   40.2071 H   0  0  0  0  0  0  0  0  0  0  0  0
   37.8738   31.2858   41.3641 H   0  0  0  0  0  0  0  0  0  0  0  0
   40.1328   32.5436   39.9511 H   0  0  0  0  0  0  0  0  0  0  0  0
   38.3001   35.5625   41.6187 H   0  0  0  0  0  0  0  0  0  0  0  0
  1  6  2  0
  2  1  1  0
  3  4  1  0
  3  2  2  0
  4  5  2  0
  5  7  1  0
  5  6  1  0
  7  8  1  0
  9  7  1  0
 10  7  1  0
 11  3  1  0
 12 11  1  0
 13 14  1  0
 13 12  1  0
 14 16  1  0
 15 14  2  0
  1 17  1  0
  2 18  1  0
 11 19  1  0
 11 20  1  0
 12 21  1  0
 12 22  1  0
 13 23  1  0
 16 24  1  0
M  ISO  7  17  14  18  14  19   8  20   8  21   8  22   8  24   3
M  END
>  <minimizedAffinity>  (1) 
-5.1301403

>  <minimizedRMSD>  (1) 
5.59086084

$$$$
