
     RDKit          3D

 30 30  0  0  0  0  0  0  0  0999 V2000
   39.7140   31.2130   39.2570 C   0  0  0  0  0  0  0  0  0  0  0  0
   38.6320   30.5790   39.8680 C   0  0  0  0  0  0  0  0  0  0  0  0
   37.6860   31.3390   40.5350 C   0  0  0  0  0  0  0  0  0  0  0  0
   37.8480   32.6860   40.5690 N   0  0  0  0  0  0  0  0  0  0  0  0
   38.8910   33.2860   39.9780 C   0  0  0  0  0  0  0  0  0  0  0  0
   39.8430   32.5660   39.3120 N   0  0  0  0  0  0  0  0  0  0  0  0
   38.8460   34.7680   40.1490 C   0  0  0  0  0  0  0  0  0  0  0  0
   39.9630   35.3440   39.5330 F   0  0  0  0  0  0  0  0  0  0  0  0
   38.8540   35.1040   41.4700 F   0  0  0  0  0  0  0  0  0  0  0  0
   37.6950   35.2780   39.5950 F   0  0  0  0  0  0  0  0  0  0  0  0
   36.5620   30.6460   41.1700 C   0  0  0  0  0  0  0  0  0  0  0  0
   36.8680   29.3480   41.7970 C   0  0  0  0  0  0  0  0  0  0  0  0
   37.2910   29.4420   43.1810 N   0  0  0  0  0  0  0  0  0  0  0  0
   37.2890   28.1750   43.8540 C   0  0  0  0  0  0  0  0  0  0  0  0
   36.4900   28.1180   45.1120 C   0  0  0  0  0  0  0  0  0  0  0  0
   36.7540   27.1310   42.9060 C   0  0  0  0  0  0  0  0  0  0  0  0
   40.4689   30.6140   38.7265 H   0  0  0  0  0  0  0  0  0  0  0  0
   38.5312   29.4847   39.8203 H   0  0  0  0  0  0  0  0  0  0  0  0
   36.1568   31.3080   41.9495 H   0  0  0  0  0  0  0  0  0  0  0  0
   35.8574   30.4207   40.3559 H   0  0  0  0  0  0  0  0  0  0  0  0
   35.9642   28.7224   41.7541 H   0  0  0  0  0  0  0  0  0  0  0  0
   37.7111   28.9171   41.2371 H   0  0  0  0  0  0  0  0  0  0  0  0
   38.2463   29.8262   43.2071 H   0  0  0  0  0  0  0  0  0  0  0  0
   38.3325   27.9957   44.1523 H   0  0  0  0  0  0  0  0  0  0  0  0
   37.1661   28.1662   45.9783 H   0  0  0  0  0  0  0  0  0  0  0  0
   35.7934   28.9687   45.1428 H   0  0  0  0  0  0  0  0  0  0  0  0
   35.9212   27.1770   45.1428 H   0  0  0  0  0  0  0  0  0  0  0  0
   36.3267   26.2971   43.4822 H   0  0  0  0  0  0  0  0  0  0  0  0
   35.9733   27.5769   42.2722 H   0  0  0  0  0  0  0  0  0  0  0  0
   37.5719   26.7576   42.2722 H   0  0  0  0  0  0  0  0  0  0  0  0
  1  6  2  0
  1  2  1  0
  2  3  2  0
  3  4  1  0
  3 11  1  0
  5  7  1  0
  5  4  2  0
  6  5  1  0
  7  9  1  0
  8  7  1  0
 10  7  1  0
 11 12  1  0
 12 13  1  0
 13 14  1  0
 14 15  1  0
 16 14  1  0
  1 17  1  0
  2 18  1  0
 11 19  1  0
 11 20  1  0
 12 21  1  0
 12 22  1  0
 13 23  1  0
 14 24  1  0
 15 25  1  0
 15 26  1  0
 15 27  1  0
 16 28  1  0
 16 29  1  0
 16 30  1  0
M  ISO  8  17  14  18  14  19   8  20   8  21   8  22   8  23   5  24   8
M  ISO  6  25   8  26   8  27   8  28   8  29   8  30   8
M  END
>  <minimizedAffinity>  (1) 
-5.00193024

>  <minimizedRMSD>  (1) 
2.74497294

$$$$
