
     RDKit          3D

 28 29  0  0  0  0  0  0  0  0999 V2000
   39.3070   30.9600   39.9070 C   0  0  0  0  0  0  0  0  0  0  0  0
   41.6420   33.1470   38.0040 C   0  0  0  0  0  0  0  0  0  0  0  0
   40.9320   32.0130   38.4370 C   0  0  0  0  0  0  0  0  0  0  0  0
   40.0380   32.1490   39.4840 C   0  0  0  0  0  0  0  0  0  0  0  0
   39.8720   33.3640   40.0620 N   0  0  0  0  0  0  0  0  0  0  0  0
   40.5660   34.4380   39.6290 C   0  0  0  0  0  0  0  0  0  0  0  0
   41.4620   34.3570   38.5960 N   0  0  0  0  0  0  0  0  0  0  0  0
   40.2240   35.6580   40.4180 C   0  0  0  0  0  0  0  0  0  0  0  0
   39.9720   36.7260   39.5780 F   0  0  0  0  0  0  0  0  0  0  0  0
   41.2960   35.9880   41.2350 F   0  0  0  0  0  0  0  0  0  0  0  0
   39.1760   35.4100   41.2610 F   0  0  0  0  0  0  0  0  0  0  0  0
   38.6790   30.9970   41.2380 C   0  0  0  0  0  0  0  0  0  0  0  0
   37.4100   30.2620   41.2700 N   0  0  0  0  0  0  0  0  0  0  0  0
   37.2310   29.2230   42.2270 C   0  0  0  0  0  0  0  0  0  0  0  0
   36.5220   28.0460   42.0590 C   0  0  0  0  0  0  0  0  0  0  0  0
   36.5740   27.2780   43.2260 C   0  0  0  0  0  0  0  0  0  0  0  0
   37.3480   28.0710   44.0720 C   0  0  0  0  0  0  0  0  0  0  0  0
   37.6980   29.1760   43.4450 O   0  0  0  0  0  0  0  0  0  0  0  0
   40.0126   30.1162   39.8969 H   0  0  0  0  0  0  0  0  0  0  0  0
   38.4692   30.8743   39.1994 H   0  0  0  0  0  0  0  0  0  0  0  0
   42.3553   33.0531   37.1719 H   0  0  0  0  0  0  0  0  0  0  0  0
   41.0844   31.0371   37.9528 H   0  0  0  0  0  0  0  0  0  0  0  0
   39.3680   30.5470   41.9679 H   0  0  0  0  0  0  0  0  0  0  0  0
   38.4679   32.0482   41.4838 H   0  0  0  0  0  0  0  0  0  0  0  0
   36.6566   30.4949   40.6074 H   0  0  0  0  0  0  0  0  0  0  0  0
   35.9933   27.7564   41.1389 H   0  0  0  0  0  0  0  0  0  0  0  0
   36.1193   26.2965   43.4261 H   0  0  0  0  0  0  0  0  0  0  0  0
   37.6244   27.8136   45.1051 H   0  0  0  0  0  0  0  0  0  0  0  0
  1 12  1  0
  2  3  2  0
  2  7  1  0
  3  4  1  0
  4  1  1  0
  4  5  2  0
  6  5  1  0
  6  8  1  0
  7  6  2  0
  8 10  1  0
  8 11  1  0
  9  8  1  0
 12 13  1  0
 13 14  1  0
 14 18  1  0
 15 14  2  0
 15 16  1  0
 16 17  2  0
 18 17  1  0
  1 19  1  0
  1 20  1  0
  2 21  1  0
  3 22  1  0
 12 23  1  0
 12 24  1  0
 13 25  1  0
 15 26  1  0
 16 27  1  0
 17 28  1  0
M  ISO  8  19   8  20   8  21  14  22  14  23   8  24   8  26  14  27  14
M  ISO  1  28  14
M  END
>  <minimizedAffinity>  (1) 
-4.7844224

>  <minimizedRMSD>  (1) 
4.38559151

$$$$
