
     RDKit          3D

 21 21  0  0  0  0  0  0  0  0999 V2000
   39.3850   30.7730   41.8110 C   0  0  0  0  0  0  0  0  0  0  0  0
   39.2210   29.6700   42.7060 C   0  0  0  0  0  0  0  0  0  0  0  0
   37.9580   29.1290   42.8700 C   0  0  0  0  0  0  0  0  0  0  0  0
   36.9090   29.6750   42.1630 N   0  0  0  0  0  0  0  0  0  0  0  0
   37.0970   30.7080   41.3340 C   0  0  0  0  0  0  0  0  0  0  0  0
   38.3050   31.2630   41.1460 N   0  0  0  0  0  0  0  0  0  0  0  0
   35.9480   31.2240   40.6300 N   0  0  0  0  0  0  0  0  0  0  0  0
   37.8040   28.0020   43.7860 C   0  0  0  0  0  0  0  0  0  0  0  0
   36.4900   27.2920   43.5560 C   0  0  0  0  0  0  0  0  0  0  0  0
   38.9240   26.9790   43.6240 C   0  0  0  0  0  0  0  0  0  0  0  0
   40.3780   31.2220   41.6615 H   0  0  0  0  0  0  0  0  0  0  0  0
   40.0822   29.2595   43.2536 H   0  0  0  0  0  0  0  0  0  0  0  0
   36.0543   32.0186   39.9834 H   0  0  0  0  0  0  0  0  0  0  0  0
   35.0215   30.7977   40.7741 H   0  0  0  0  0  0  0  0  0  0  0  0
   37.8383   28.4246   44.8010 H   0  0  0  0  0  0  0  0  0  0  0  0
   36.0323   27.0447   44.5252 H   0  0  0  0  0  0  0  0  0  0  0  0
   35.8136   27.9474   42.9877 H   0  0  0  0  0  0  0  0  0  0  0  0
   36.6676   26.3671   42.9877 H   0  0  0  0  0  0  0  0  0  0  0  0
   39.2745   26.6588   44.6163 H   0  0  0  0  0  0  0  0  0  0  0  0
   38.5468   26.1071   43.0694 H   0  0  0  0  0  0  0  0  0  0  0  0
   39.7583   27.4334   43.0694 H   0  0  0  0  0  0  0  0  0  0  0  0
  1  2  2  0
  2  3  1  0
  3  8  1  0
  4  3  2  0
  5  4  1  0
  6  5  2  0
  6  1  1  0
  7  5  1  0
  9  8  1  0
 10  8  1  0
  1 11  1  0
  2 12  1  0
  7 13  1  0
  7 14  1  0
  8 15  1  0
  9 16  1  0
  9 17  1  0
  9 18  1  0
 10 19  1  0
 10 20  1  0
 10 21  1  0
M  ISO  8  11  14  12  14  15   8  16   8  17   8  18   8  19   8  20   8
M  ISO  1  21   8
M  END
>  <minimizedAffinity>  (1) 
-3.99643517

>  <minimizedRMSD>  (1) 
2.26559186

$$$$
