
     RDKit          3D

 38 40  0  0  0  0  0  0  0  0999 V2000
   36.9290   31.6340   39.7910 C   0  0  0  0  0  0  0  0  0  0  0  0
   37.2130   33.0690   39.8290 C   0  0  0  0  0  0  0  0  0  0  0  0
   40.8380   32.9670   40.6730 C   0  0  0  0  0  0  0  0  0  0  0  0
   39.5030   32.5730   40.4340 C   0  0  0  0  0  0  0  0  0  0  0  0
   38.5680   33.5110   40.0740 C   0  0  0  0  0  0  0  0  0  0  0  0
   38.9640   34.7960   39.9640 N   0  0  0  0  0  0  0  0  0  0  0  0
   40.2330   35.1730   40.1930 C   0  0  0  0  0  0  0  0  0  0  0  0
   41.1870   34.2780   40.5480 N   0  0  0  0  0  0  0  0  0  0  0  0
   40.4200   36.6380   40.0220 C   0  0  0  0  0  0  0  0  0  0  0  0
   41.1030   36.9300   38.8710 F   0  0  0  0  0  0  0  0  0  0  0  0
   41.1220   37.1490   41.1240 F   0  0  0  0  0  0  0  0  0  0  0  0
   39.1990   37.2930   40.0830 F   0  0  0  0  0  0  0  0  0  0  0  0
   36.1570   31.1830   41.0090 N   0  0  0  0  0  0  0  0  0  0  0  0
   36.6720   29.5580   41.2500 S   0  0  0  0  0  0  0  0  0  0  0  0
   35.4920   28.6530   40.9470 O   0  0  0  0  0  0  0  0  0  0  0  0
   37.7670   29.2220   40.2640 O   0  0  0  0  0  0  0  0  0  0  0  0
   37.2730   29.1720   42.8490 C   0  0  0  0  0  0  0  0  0  0  0  0
   37.7370   27.7550   42.7550 N   0  0  0  0  0  0  0  0  0  0  0  0
   36.9300   26.7360   42.4180 C   0  0  0  0  0  0  0  0  0  0  0  0
   37.6670   25.5860   42.4270 N   0  0  0  0  0  0  0  0  0  0  0  0
   38.9270   25.9210   42.7720 C   0  0  0  0  0  0  0  0  0  0  0  0
   40.1090   25.2210   42.9500 C   0  0  0  0  0  0  0  0  0  0  0  0
   41.2570   25.8610   43.3130 N   0  0  0  0  0  0  0  0  0  0  0  0
   41.2730   27.2070   43.5100 C   0  0  0  0  0  0  0  0  0  0  0  0
   40.1220   27.9130   43.3410 N   0  0  0  0  0  0  0  0  0  0  0  0
   38.9800   27.2930   42.9820 C   0  0  0  0  0  0  0  0  0  0  0  0
   36.3364   31.4119   38.8913 H   0  0  0  0  0  0  0  0  0  0  0  0
   37.8881   31.0957   39.7751 H   0  0  0  0  0  0  0  0  0  0  0  0
   36.9103   33.4830   38.8559 H   0  0  0  0  0  0  0  0  0  0  0  0
   36.6574   33.4238   40.7096 H   0  0  0  0  0  0  0  0  0  0  0  0
   41.5923   32.2191   40.9587 H   0  0  0  0  0  0  0  0  0  0  0  0
   39.2133   31.5168   40.5361 H   0  0  0  0  0  0  0  0  0  0  0  0
   36.3891   31.7656   41.8260 H   0  0  0  0  0  0  0  0  0  0  0  0
   38.1080   29.8353   43.1189 H   0  0  0  0  0  0  0  0  0  0  0  0
   36.5030   29.3045   43.6233 H   0  0  0  0  0  0  0  0  0  0  0  0
   35.8597   26.8140   42.1763 H   0  0  0  0  0  0  0  0  0  0  0  0
   40.1217   24.1319   42.7961 H   0  0  0  0  0  0  0  0  0  0  0  0
   42.2028   27.7172   43.8017 H   0  0  0  0  0  0  0  0  0  0  0  0
  1  2  1  0
  1 13  1  0
  2  5  1  0
  4  3  2  0
  5  4  1  0
  6  5  2  0
  6  7  1  0
  7  8  2  0
  8  3  1  0
  9 12  1  0
  9  7  1  0
  9 11  1  0
 10  9  1  0
 13 14  1  0
 14 17  1  0
 15 14  2  0
 16 14  2  0
 18 17  1  0
 18 26  1  0
 19 20  2  0
 19 18  1  0
 20 21  1  0
 21 22  1  0
 21 26  2  0
 22 23  2  0
 23 24  1  0
 25 24  2  0
 26 25  1  0
  1 27  1  0
  1 28  1  0
  2 29  1  0
  2 30  1  0
  3 31  1  0
  4 32  1  0
 13 33  1  0
 17 34  1  0
 17 35  1  0
 19 36  1  0
 22 37  1  0
 24 38  1  0
M  ISO  8  27   8  28   8  29   8  30   8  31  14  32  14  33   5  34   8
M  ISO  4  35   8  36  14  37  14  38  14
M  END
>  <minimizedAffinity>  (1) 
-6.27105379

>  <minimizedRMSD>  (1) 
2.23285437

$$$$
