
     RDKit          3D

 37 38  0  0  0  0  0  0  0  0999 V2000
   37.0280   30.5970   40.5320 C   0  0  0  0  0  0  0  0  0  0  0  0
   37.1260   32.0540   40.4740 C   0  0  0  0  0  0  0  0  0  0  0  0
   40.8100   32.4560   40.8360 C   0  0  0  0  0  0  0  0  0  0  0  0
   39.5200   31.8830   40.7910 C   0  0  0  0  0  0  0  0  0  0  0  0
   38.4320   32.6760   40.5300 C   0  0  0  0  0  0  0  0  0  0  0  0
   38.6480   33.9890   40.3290 N   0  0  0  0  0  0  0  0  0  0  0  0
   39.8610   34.5410   40.3700 C   0  0  0  0  0  0  0  0  0  0  0  0
   40.9620   33.7930   40.6220 N   0  0  0  0  0  0  0  0  0  0  0  0
   39.8270   36.0070   40.1250 C   0  0  0  0  0  0  0  0  0  0  0  0
   40.7500   36.3850   39.1850 F   0  0  0  0  0  0  0  0  0  0  0  0
   40.0830   36.6850   41.3250 F   0  0  0  0  0  0  0  0  0  0  0  0
   38.5460   36.4130   39.7840 F   0  0  0  0  0  0  0  0  0  0  0  0
   36.3430   30.1200   41.7880 N   0  0  0  0  0  0  0  0  0  0  0  0
   37.4180   28.9220   42.4180 S   0  0  0  0  0  0  0  0  0  0  0  0
   38.4130   29.6400   43.3070 O   0  0  0  0  0  0  0  0  0  0  0  0
   36.6480   27.9590   43.2920 O   0  0  0  0  0  0  0  0  0  0  0  0
   38.2860   27.9710   41.2400 C   0  0  0  0  0  0  0  0  0  0  0  0
   38.7070   26.6660   41.9230 C   0  0  0  0  0  0  0  0  0  0  0  0
   39.7810   26.6980   42.8100 C   0  0  0  0  0  0  0  0  0  0  0  0
   40.2180   25.5590   43.4650 C   0  0  0  0  0  0  0  0  0  0  0  0
   39.5380   24.3940   43.1950 C   0  0  0  0  0  0  0  0  0  0  0  0
   38.4750   24.3480   42.3210 C   0  0  0  0  0  0  0  0  0  0  0  0
   38.0400   25.4860   41.6680 C   0  0  0  0  0  0  0  0  0  0  0  0
   38.0422   30.1725   40.4990 H   0  0  0  0  0  0  0  0  0  0  0  0
   36.4260   30.2653   39.6731 H   0  0  0  0  0  0  0  0  0  0  0  0
   36.5450   32.4493   41.3203 H   0  0  0  0  0  0  0  0  0  0  0  0
   36.7611   32.3012   39.4662 H   0  0  0  0  0  0  0  0  0  0  0  0
   41.6877   31.8260   41.0428 H   0  0  0  0  0  0  0  0  0  0  0  0
   39.3884   30.8048   40.9646 H   0  0  0  0  0  0  0  0  0  0  0  0
   36.2241   30.8940   42.4571 H   0  0  0  0  0  0  0  0  0  0  0  0
   39.1756   28.5192   40.8963 H   0  0  0  0  0  0  0  0  0  0  0  0
   37.6518   27.7639   40.3654 H   0  0  0  0  0  0  0  0  0  0  0  0
   40.2951   27.6528   42.9947 H   0  0  0  0  0  0  0  0  0  0  0  0
   41.0657   25.5844   44.1655 H   0  0  0  0  0  0  0  0  0  0  0  0
   39.8546   23.4667   43.6949 H   0  0  0  0  0  0  0  0  0  0  0  0
   37.9641   23.3909   42.1396 H   0  0  0  0  0  0  0  0  0  0  0  0
   37.1912   25.4517   40.9691 H   0  0  0  0  0  0  0  0  0  0  0  0
  1 13  1  0
  2  5  1  0
  2  1  1  0
  4  3  2  0
  5  4  1  0
  6  7  1  0
  6  5  2  0
  7  8  2  0
  8  3  1  0
  9  7  1  0
  9 11  1  0
 10  9  1  0
 12  9  1  0
 13 14  1  0
 14 16  2  0
 14 15  2  0
 17 18  1  0
 17 14  1  0
 18 19  2  0
 19 20  1  0
 21 20  2  0
 22 21  1  0
 23 18  1  0
 23 22  2  0
  1 24  1  0
  1 25  1  0
  2 26  1  0
  2 27  1  0
  3 28  1  0
  4 29  1  0
 13 30  1  0
 17 31  1  0
 17 32  1  0
 19 33  1  0
 20 34  1  0
 21 35  1  0
 22 36  1  0
 23 37  1  0
M  ISO  8  24   8  25   8  26   8  27   8  28  14  29  14  30   5  31   8
M  ISO  6  32   8  33  14  34  14  35  14  36  14  37  14
M  END
>  <minimizedAffinity>  (1) 
-5.90653706

>  <minimizedRMSD>  (1) 
0.763059855

$$$$
