
     RDKit          3D

 42 43  0  0  0  0  0  0  0  0999 V2000
   36.9660   30.7410   40.3730 C   0  0  0  0  0  0  0  0  0  0  0  0
   37.0900   32.1960   40.2980 C   0  0  0  0  0  0  0  0  0  0  0  0
   40.7650   32.5340   40.7800 C   0  0  0  0  0  0  0  0  0  0  0  0
   39.4670   31.9850   40.6820 C   0  0  0  0  0  0  0  0  0  0  0  0
   38.4000   32.7990   40.4010 C   0  0  0  0  0  0  0  0  0  0  0  0
   38.6300   34.1150   40.2260 N   0  0  0  0  0  0  0  0  0  0  0  0
   39.8630   34.6430   40.3200 C   0  0  0  0  0  0  0  0  0  0  0  0
   40.9460   33.8720   40.5950 N   0  0  0  0  0  0  0  0  0  0  0  0
   39.8620   36.1120   40.1050 C   0  0  0  0  0  0  0  0  0  0  0  0
   40.7950   36.4880   39.1750 F   0  0  0  0  0  0  0  0  0  0  0  0
   40.1270   36.7590   41.3210 F   0  0  0  0  0  0  0  0  0  0  0  0
   38.5880   36.5540   39.7740 F   0  0  0  0  0  0  0  0  0  0  0  0
   36.3590   30.2880   41.6700 N   0  0  0  0  0  0  0  0  0  0  0  0
   37.3650   28.9770   42.1790 S   0  0  0  0  0  0  0  0  0  0  0  0
   38.0520   29.4160   43.4530 O   0  0  0  0  0  0  0  0  0  0  0  0
   36.4960   27.7860   42.5230 O   0  0  0  0  0  0  0  0  0  0  0  0
   38.5480   28.4380   41.0190 C   0  0  0  0  0  0  0  0  0  0  0  0
   39.2670   27.2530   41.5670 N   0  0  0  0  0  0  0  0  0  0  0  0
   38.4120   26.1430   41.4410 C   0  0  0  0  0  0  0  0  0  0  0  0
   38.5590   25.0780   42.4950 C   0  0  0  0  0  0  0  0  0  0  0  0
   39.8000   25.2420   43.3270 C   0  0  0  0  0  0  0  0  0  0  0  0
   39.7420   26.6190   43.9210 C   0  0  0  0  0  0  0  0  0  0  0  0
   39.6930   27.6510   42.8590 C   0  0  0  0  0  0  0  0  0  0  0  0
   37.9668   30.2950   40.2757 H   0  0  0  0  0  0  0  0  0  0  0  0
   36.3015   30.4169   39.5585 H   0  0  0  0  0  0  0  0  0  0  0  0
   36.6694   32.5048   39.3296 H   0  0  0  0  0  0  0  0  0  0  0  0
   36.5679   32.5496   41.1993 H   0  0  0  0  0  0  0  0  0  0  0  0
   41.6246   31.8853   41.0043 H   0  0  0  0  0  0  0  0  0  0  0  0
   39.3126   30.9061   40.8309 H   0  0  0  0  0  0  0  0  0  0  0  0
   36.3723   31.0487   42.3643 H   0  0  0  0  0  0  0  0  0  0  0  0
   39.2673   29.2471   40.8240 H   0  0  0  0  0  0  0  0  0  0  0  0
   38.0461   28.1638   40.0794 H   0  0  0  0  0  0  0  0  0  0  0  0
   37.3756   26.5101   41.4748 H   0  0  0  0  0  0  0  0  0  0  0  0
   38.6863   25.6618   40.4906 H   0  0  0  0  0  0  0  0  0  0  0  0
   37.6835   25.1195   43.1596 H   0  0  0  0  0  0  0  0  0  0  0  0
   38.6359   24.1108   41.9768 H   0  0  0  0  0  0  0  0  0  0  0  0
   39.8240   24.4855   44.1252 H   0  0  0  0  0  0  0  0  0  0  0  0
   40.7058   25.1123   42.7164 H   0  0  0  0  0  0  0  0  0  0  0  0
   38.8416   26.7035   44.5472 H   0  0  0  0  0  0  0  0  0  0  0  0
   40.6468   26.7794   44.5257 H   0  0  0  0  0  0  0  0  0  0  0  0
   40.7073   28.0643   42.7567 H   0  0  0  0  0  0  0  0  0  0  0  0
   38.9224   28.3592   43.1977 H   0  0  0  0  0  0  0  0  0  0  0  0
  1 13  1  0
  2  1  1  0
  2  5  1  0
  4  3  2  0
  5  4  1  0
  6  7  1  0
  6  5  2  0
  7  8  2  0
  8  3  1  0
  9  7  1  0
  9 11  1  0
 10  9  1  0
 12  9  1  0
 13 14  1  0
 14 16  2  0
 14 15  2  0
 17 18  1  0
 17 14  1  0
 18 23  1  0
 19 18  1  0
 19 20  1  0
 20 21  1  0
 21 22  1  0
 23 22  1  0
  1 24  1  0
  1 25  1  0
  2 26  1  0
  2 27  1  0
  3 28  1  0
  4 29  1  0
 13 30  1  0
 17 31  1  0
 17 32  1  0
 19 33  1  0
 19 34  1  0
 20 35  1  0
 20 36  1  0
 21 37  1  0
 21 38  1  0
 22 39  1  0
 22 40  1  0
 23 41  1  0
 23 42  1  0
M  ISO  8  24   8  25   8  26   8  27   8  28  14  29  14  30   5  31   8
M  ISO  8  32   8  33  13  34  13  35  13  36  13  37  13  38  13  39  13
M  ISO  3  40  13  41  13  42  13
M  END
>  <minimizedAffinity>  (1) 
-5.84181881

>  <minimizedRMSD>  (1) 
0.64227879

$$$$
