
     RDKit          3D

 37 38  0  0  0  0  0  0  0  0999 V2000
   37.2860   30.4370   40.6250 C   0  0  0  0  0  0  0  0  0  0  0  0
   37.2850   31.9070   40.5500 C   0  0  0  0  0  0  0  0  0  0  0  0
   40.9570   32.4160   40.9220 C   0  0  0  0  0  0  0  0  0  0  0  0
   39.6870   31.8050   40.8780 C   0  0  0  0  0  0  0  0  0  0  0  0
   38.5740   32.5600   40.5920 C   0  0  0  0  0  0  0  0  0  0  0  0
   38.7210   33.8810   40.3580 N   0  0  0  0  0  0  0  0  0  0  0  0
   39.9360   34.4650   40.4020 C   0  0  0  0  0  0  0  0  0  0  0  0
   41.0670   33.7530   40.6810 N   0  0  0  0  0  0  0  0  0  0  0  0
   39.8520   35.9240   40.1260 C   0  0  0  0  0  0  0  0  0  0  0  0
   40.7740   36.3080   39.1890 F   0  0  0  0  0  0  0  0  0  0  0  0
   40.0980   36.6350   41.3080 F   0  0  0  0  0  0  0  0  0  0  0  0
   38.5660   36.2800   39.7840 F   0  0  0  0  0  0  0  0  0  0  0  0
   36.3230   29.9430   41.6530 N   0  0  0  0  0  0  0  0  0  0  0  0
   37.2230   28.7000   42.5530 S   0  0  0  0  0  0  0  0  0  0  0  0
   37.7840   29.2270   43.7780 O   0  0  0  0  0  0  0  0  0  0  0  0
   36.1740   27.6230   42.9000 O   0  0  0  0  0  0  0  0  0  0  0  0
   38.3650   27.9050   41.4900 C   0  0  0  0  0  0  0  0  0  0  0  0
   39.5230   27.5670   42.3820 N   0  0  0  0  0  0  0  0  0  0  0  0
   40.5160   28.4410   42.6260 C   0  0  0  0  0  0  0  0  0  0  0  0
   41.5340   28.0220   43.4640 C   0  0  0  0  0  0  0  0  0  0  0  0
   41.5300   26.7520   44.0280 C   0  0  0  0  0  0  0  0  0  0  0  0
   42.4820   26.4180   44.7870 O   0  0  0  0  0  0  0  0  0  0  0  0
   40.5140   25.8960   43.7620 N   0  0  0  0  0  0  0  0  0  0  0  0
   39.5500   26.3550   42.9400 C   0  0  0  0  0  0  0  0  0  0  0  0
   38.6100   25.5450   42.7010 O   0  0  0  0  0  0  0  0  0  0  0  0
   38.2973   30.0928   40.8874 H   0  0  0  0  0  0  0  0  0  0  0  0
   36.9803   30.0404   39.6456 H   0  0  0  0  0  0  0  0  0  0  0  0
   36.6928   32.2836   41.3971 H   0  0  0  0  0  0  0  0  0  0  0  0
   36.8722   32.1456   39.5587 H   0  0  0  0  0  0  0  0  0  0  0  0
   41.8521   31.8183   41.1491 H   0  0  0  0  0  0  0  0  0  0  0  0
   39.5869   30.7269   41.0720 H   0  0  0  0  0  0  0  0  0  0  0  0
   36.0357   30.7085   42.2793 H   0  0  0  0  0  0  0  0  0  0  0  0
   38.6799   28.5800   40.6806 H   0  0  0  0  0  0  0  0  0  0  0  0
   37.9376   27.0180   40.9996 H   0  0  0  0  0  0  0  0  0  0  0  0
   40.5185   29.4458   42.1784 H   0  0  0  0  0  0  0  0  0  0  0  0
   42.3637   28.7084   43.6885 H   0  0  0  0  0  0  0  0  0  0  0  0
   40.4804   24.9487   44.1650 H   0  0  0  0  0  0  0  0  0  0  0  0
  1 13  1  0
  2  5  1  0
  2  1  1  0
  4  3  2  0
  5  4  1  0
  6  7  1  0
  6  5  2  0
  7  8  2  0
  8  3  1  0
  9  7  1  0
  9 11  1  0
 10  9  1  0
 12  9  1  0
 13 14  1  0
 14 16  2  0
 14 15  2  0
 17 18  1  0
 17 14  1  0
 18 19  1  0
 18 24  1  0
 19 20  2  0
 20 21  1  0
 21 22  2  0
 23 21  1  0
 24 23  1  0
 25 24  2  0
  1 26  1  0
  1 27  1  0
  2 28  1  0
  2 29  1  0
  3 30  1  0
  4 31  1  0
 13 32  1  0
 17 33  1  0
 17 34  1  0
 19 35  1  0
 20 36  1  0
 23 37  1  0
M  ISO  8  26   8  27   8  28   8  29   8  30  14  31  14  32   5  33   8
M  ISO  4  34   8  35  14  36  14  37   9
M  END
>  <minimizedAffinity>  (1) 
-5.77849197

>  <minimizedRMSD>  (1) 
1.32686603

$$$$
