
     RDKit          3D

 35 36  0  0  0  0  0  0  0  0999 V2000
   36.9540   30.4330   40.5470 C   0  0  0  0  0  0  0  0  0  0  0  0
   37.0210   31.9030   40.5180 C   0  0  0  0  0  0  0  0  0  0  0  0
   40.7110   32.2390   40.9060 C   0  0  0  0  0  0  0  0  0  0  0  0
   39.4150   31.6860   40.8540 C   0  0  0  0  0  0  0  0  0  0  0  0
   38.3400   32.4940   40.5720 C   0  0  0  0  0  0  0  0  0  0  0  0
   38.5470   33.8090   40.3510 N   0  0  0  0  0  0  0  0  0  0  0  0
   39.7920   34.3340   40.4030 C   0  0  0  0  0  0  0  0  0  0  0  0
   40.8850   33.5680   40.6780 N   0  0  0  0  0  0  0  0  0  0  0  0
   39.7770   35.7970   40.1380 C   0  0  0  0  0  0  0  0  0  0  0  0
   40.7370   36.1480   39.2240 F   0  0  0  0  0  0  0  0  0  0  0  0
   40.0240   36.4880   41.3290 F   0  0  0  0  0  0  0  0  0  0  0  0
   38.5160   36.2100   39.7640 F   0  0  0  0  0  0  0  0  0  0  0  0
   36.2540   29.9330   41.7650 N   0  0  0  0  0  0  0  0  0  0  0  0
   37.4120   28.7950   42.5030 S   0  0  0  0  0  0  0  0  0  0  0  0
   38.2490   29.4500   43.4810 O   0  0  0  0  0  0  0  0  0  0  0  0
   36.5240   27.7480   43.2140 O   0  0  0  0  0  0  0  0  0  0  0  0
   38.2520   27.9050   41.2540 C   0  0  0  0  0  0  0  0  0  0  0  0
   38.7490   26.6490   41.9870 C   0  0  0  0  0  0  0  0  0  0  0  0
   39.7950   26.7070   42.8920 C   0  0  0  0  0  0  0  0  0  0  0  0
   40.1950   25.5440   43.5180 C   0  0  0  0  0  0  0  0  0  0  0  0
   39.5560   24.3950   43.2270 N   0  0  0  0  0  0  0  0  0  0  0  0
   38.5270   24.3680   42.3310 C   0  0  0  0  0  0  0  0  0  0  0  0
   38.1360   25.5010   41.7190 N   0  0  0  0  0  0  0  0  0  0  0  0
   37.9774   30.0299   40.5341 H   0  0  0  0  0  0  0  0  0  0  0  0
   36.3859   30.0998   39.6660 H   0  0  0  0  0  0  0  0  0  0  0  0
   36.5425   32.2402   39.5867 H   0  0  0  0  0  0  0  0  0  0  0  0
   36.5180   32.2337   41.4387 H   0  0  0  0  0  0  0  0  0  0  0  0
   41.5768   31.5985   41.1299 H   0  0  0  0  0  0  0  0  0  0  0  0
   39.2651   30.6120   41.0385 H   0  0  0  0  0  0  0  0  0  0  0  0
   36.0438   30.7087   42.4093 H   0  0  0  0  0  0  0  0  0  0  0  0
   39.0953   28.4875   40.8546 H   0  0  0  0  0  0  0  0  0  0  0  0
   37.6145   27.6736   40.3880 H   0  0  0  0  0  0  0  0  0  0  0  0
   40.2975   27.6614   43.1079 H   0  0  0  0  0  0  0  0  0  0  0  0
   41.0223   25.5554   44.2429 H   0  0  0  0  0  0  0  0  0  0  0  0
   38.0167   23.4192   42.1088 H   0  0  0  0  0  0  0  0  0  0  0  0
  1 13  1  0
  2  1  1  0
  2  5  1  0
  4  3  2  0
  5  4  1  0
  6  7  1  0
  6  5  2  0
  7  8  2  0
  8  3  1  0
  9  7  1  0
  9 11  1  0
 10  9  1  0
 12  9  1  0
 13 14  1  0
 14 16  2  0
 14 15  2  0
 17 18  1  0
 17 14  1  0
 18 19  2  0
 19 20  1  0
 21 20  2  0
 22 21  1  0
 23 18  1  0
 23 22  2  0
  1 24  1  0
  1 25  1  0
  2 26  1  0
  2 27  1  0
  3 28  1  0
  4 29  1  0
 13 30  1  0
 17 31  1  0
 17 32  1  0
 19 33  1  0
 20 34  1  0
 22 35  1  0
M  ISO  8  24   8  25   8  26   8  27   8  28  14  29  14  30   5  31   8
M  ISO  4  32   8  33  14  34  14  35  14
M  END
>  <minimizedAffinity>  (1) 
-5.65615511

>  <minimizedRMSD>  (1) 
0.762332022

$$$$
