
     RDKit          3D

 40 41  0  0  0  0  0  0  0  0999 V2000
   36.9110   30.3710   40.7490 C   0  0  0  0  0  0  0  0  0  0  0  0
   36.9680   31.8250   40.5290 C   0  0  0  0  0  0  0  0  0  0  0  0
   40.5560   32.1020   39.6370 C   0  0  0  0  0  0  0  0  0  0  0  0
   39.3040   31.5640   39.9020 C   0  0  0  0  0  0  0  0  0  0  0  0
   38.2590   32.3980   40.2250 C   0  0  0  0  0  0  0  0  0  0  0  0
   38.4720   33.7280   40.2750 N   0  0  0  0  0  0  0  0  0  0  0  0
   39.6900   34.2490   40.0160 C   0  0  0  0  0  0  0  0  0  0  0  0
   40.7440   33.4550   39.6950 N   0  0  0  0  0  0  0  0  0  0  0  0
   39.6830   35.7350   40.1120 C   0  0  0  0  0  0  0  0  0  0  0  0
   40.6840   36.2740   39.3140 F   0  0  0  0  0  0  0  0  0  0  0  0
   39.8970   36.1150   41.4170 F   0  0  0  0  0  0  0  0  0  0  0  0
   38.4430   36.2380   39.7560 F   0  0  0  0  0  0  0  0  0  0  0  0
   36.4610   30.0250   42.1400 N   0  0  0  0  0  0  0  0  0  0  0  0
   37.8150   29.0880   42.8250 S   0  0  0  0  0  0  0  0  0  0  0  0
   38.9570   29.9340   43.0370 O   0  0  0  0  0  0  0  0  0  0  0  0
   37.2720   28.5990   44.1920 O   0  0  0  0  0  0  0  0  0  0  0  0
   38.0810   27.6470   41.8860 C   0  0  0  0  0  0  0  0  0  0  0  0
   38.0770   26.4430   42.7620 N   0  0  0  0  0  0  0  0  0  0  0  0
   39.3460   25.8670   42.9800 C   0  0  0  0  0  0  0  0  0  0  0  0
   39.8660   25.1210   41.7440 C   0  0  0  0  0  0  0  0  0  0  0  0
   38.9890   24.0180   41.6090 O   0  0  0  0  0  0  0  0  0  0  0  0
   37.7980   24.6000   41.1570 C   0  0  0  0  0  0  0  0  0  0  0  0
   37.1660   25.5210   42.1710 C   0  0  0  0  0  0  0  0  0  0  0  0
   37.9133   29.9484   40.5855 H   0  0  0  0  0  0  0  0  0  0  0  0
   36.1795   29.9509   40.0430 H   0  0  0  0  0  0  0  0  0  0  0  0
   36.2965   32.0590   39.6898 H   0  0  0  0  0  0  0  0  0  0  0  0
   36.6818   32.2686   41.4940 H   0  0  0  0  0  0  0  0  0  0  0  0
   41.3963   31.4401   39.3805 H   0  0  0  0  0  0  0  0  0  0  0  0
   39.1484   30.4761   39.8539 H   0  0  0  0  0  0  0  0  0  0  0  0
   36.2928   30.8785   42.6914 H   0  0  0  0  0  0  0  0  0  0  0  0
   39.0537   27.7211   41.3777 H   0  0  0  0  0  0  0  0  0  0  0  0
   37.2720   27.5507   41.1469 H   0  0  0  0  0  0  0  0  0  0  0  0
   40.0577   26.6655   43.2369 H   0  0  0  0  0  0  0  0  0  0  0  0
   39.2490   25.1376   43.7977 H   0  0  0  0  0  0  0  0  0  0  0  0
   39.8230   25.7648   40.8531 H   0  0  0  0  0  0  0  0  0  0  0  0
   40.9168   24.8131   41.8491 H   0  0  0  0  0  0  0  0  0  0  0  0
   38.0146   25.1780   40.2465 H   0  0  0  0  0  0  0  0  0  0  0  0
   37.0858   23.7834   40.9675 H   0  0  0  0  0  0  0  0  0  0  0  0
   36.3706   26.0929   41.6707 H   0  0  0  0  0  0  0  0  0  0  0  0
   36.7834   24.8859   42.9835 H   0  0  0  0  0  0  0  0  0  0  0  0
  1 13  1  0
  2  1  1  0
  3  8  2  0
  3  4  1  0
  4  5  2  0
  5  6  1  0
  5  2  1  0
  7  9  1  0
  7  6  2  0
  8  7  1  0
  9 11  1  0
 10  9  1  0
 12  9  1  0
 13 14  1  0
 14 15  2  0
 14 16  2  0
 17 18  1  0
 17 14  1  0
 18 19  1  0
 20 19  1  0
 21 20  1  0
 22 21  1  0
 22 23  1  0
 23 18  1  0
  1 24  1  0
  1 25  1  0
  2 26  1  0
  2 27  1  0
  3 28  1  0
  4 29  1  0
 13 30  1  0
 17 31  1  0
 17 32  1  0
 19 33  1  0
 19 34  1  0
 20 35  1  0
 20 36  1  0
 22 37  1  0
 22 38  1  0
 23 39  1  0
 23 40  1  0
M  ISO  8  24   8  25   8  26   8  27   8  28  14  29  14  30   5  31   8
M  ISO  8  32   8  33  13  34  13  35  13  36  13  37  13  38  13  39  13
M  ISO  1  40  13
M  END
>  <minimizedAffinity>  (1) 
-5.51184893

>  <minimizedRMSD>  (1) 
1.43094397

$$$$
