
     RDKit          3D

 17 18  0  0  0  0  0  0  0  0999 V2000
   39.2370   27.9380   43.1840 C   0  0  0  0  0  0  0  0  0  0  0  0
   38.2410   26.9510   43.3190 C   0  0  0  0  0  0  0  0  0  0  0  0
   36.9710   27.2230   42.7730 C   0  0  0  0  0  0  0  0  0  0  0  0
   36.7830   28.4150   42.1520 N   0  0  0  0  0  0  0  0  0  0  0  0
   37.7540   29.3400   42.0390 C   0  0  0  0  0  0  0  0  0  0  0  0
   38.9870   29.1010   42.5570 N   0  0  0  0  0  0  0  0  0  0  0  0
   37.4930   30.6130   41.3580 C   0  0  0  0  0  0  0  0  0  0  0  0
   38.5540   31.4590   41.0170 C   0  0  0  0  0  0  0  0  0  0  0  0
   37.9870   32.5640   40.3950 C   0  0  0  0  0  0  0  0  0  0  0  0
   36.6470   32.3700   40.3730 N   0  0  0  0  0  0  0  0  0  0  0  0
   36.3720   31.2040   40.9500 N   0  0  0  0  0  0  0  0  0  0  0  0
   40.2387   27.7538   43.5996 H   0  0  0  0  0  0  0  0  0  0  0  0
   38.4477   26.0007   43.8330 H   0  0  0  0  0  0  0  0  0  0  0  0
   36.1546   26.4896   42.8480 H   0  0  0  0  0  0  0  0  0  0  0  0
   39.6237   31.2840   41.2042 H   0  0  0  0  0  0  0  0  0  0  0  0
   38.5264   33.4350   39.9946 H   0  0  0  0  0  0  0  0  0  0  0  0
   35.9540   33.0195   39.9744 H   0  0  0  0  0  0  0  0  0  0  0  0
  1  2  2  0
  3  2  1  0
  4  3  2  0
  5  4  1  0
  5  6  2  0
  6  1  1  0
  7  5  1  0
  8  7  1  0
  9  8  2  0
 10  9  1  0
 10 11  1  0
 11  7  2  0
  1 12  1  0
  2 13  1  0
  3 14  1  0
  8 15  1  0
  9 16  1  0
 10 17  1  0
M  ISO  6  12  14  13  14  14  14  15  14  16  14  17   9
M  END
>  <minimizedAffinity>  (1) 
-3.87090302

>  <minimizedRMSD>  (1) 
1.87045288

$$$$
