
     RDKit          3D

 34 35  0  0  0  0  0  0  0  0999 V2000
   37.0760   30.6620   40.4650 C   0  0  0  0  0  0  0  0  0  0  0  0
   37.1710   32.1210   40.3770 C   0  0  0  0  0  0  0  0  0  0  0  0
   40.8710   32.5040   40.4640 C   0  0  0  0  0  0  0  0  0  0  0  0
   39.5780   31.9330   40.4820 C   0  0  0  0  0  0  0  0  0  0  0  0
   38.4760   32.7400   40.3660 C   0  0  0  0  0  0  0  0  0  0  0  0
   38.6700   34.0640   40.2390 N   0  0  0  0  0  0  0  0  0  0  0  0
   39.8880   34.6180   40.2230 C   0  0  0  0  0  0  0  0  0  0  0  0
   41.0150   33.8480   40.3340 N   0  0  0  0  0  0  0  0  0  0  0  0
   39.8470   36.0940   40.0900 C   0  0  0  0  0  0  0  0  0  0  0  0
   40.7730   36.5470   39.1900 F   0  0  0  0  0  0  0  0  0  0  0  0
   40.0970   36.6790   41.3370 F   0  0  0  0  0  0  0  0  0  0  0  0
   38.5640   36.5120   39.7820 F   0  0  0  0  0  0  0  0  0  0  0  0
   36.4830   30.2210   41.7730 N   0  0  0  0  0  0  0  0  0  0  0  0
   37.6330   29.1140   42.4050 S   0  0  0  0  0  0  0  0  0  0  0  0
   38.6980   29.9060   43.1350 O   0  0  0  0  0  0  0  0  0  0  0  0
   36.9380   28.2260   43.4370 O   0  0  0  0  0  0  0  0  0  0  0  0
   38.4250   28.0550   41.2570 C   0  0  0  0  0  0  0  0  0  0  0  0
   38.0940   26.6290   41.3540 C   0  0  0  0  0  0  0  0  0  0  0  0
   36.9830   25.9680   40.6570 C   0  0  0  0  0  0  0  0  0  0  0  0
   36.8000   24.6540   40.8860 C   0  0  0  0  0  0  0  0  0  0  0  0
   37.6200   23.9570   41.7360 C   0  0  0  0  0  0  0  0  0  0  0  0
   38.8020   25.1750   42.3310 S   0  0  0  0  0  0  0  0  0  0  0  0
   38.0841   30.2328   40.3680 H   0  0  0  0  0  0  0  0  0  0  0  0
   36.4186   30.3120   39.6555 H   0  0  0  0  0  0  0  0  0  0  0  0
   36.6644   32.4212   39.4479 H   0  0  0  0  0  0  0  0  0  0  0  0
   36.7218   32.4710   41.3181 H   0  0  0  0  0  0  0  0  0  0  0  0
   41.7588   31.8609   40.5551 H   0  0  0  0  0  0  0  0  0  0  0  0
   39.4566   30.8449   40.5887 H   0  0  0  0  0  0  0  0  0  0  0  0
   36.3610   31.0230   42.4076 H   0  0  0  0  0  0  0  0  0  0  0  0
   39.5108   28.1577   41.3999 H   0  0  0  0  0  0  0  0  0  0  0  0
   38.0656   28.3733   40.2673 H   0  0  0  0  0  0  0  0  0  0  0  0
   36.3254   26.5254   39.9738 H   0  0  0  0  0  0  0  0  0  0  0  0
   35.9759   24.1287   40.3810 H   0  0  0  0  0  0  0  0  0  0  0  0
   37.5666   22.8896   41.9962 H   0  0  0  0  0  0  0  0  0  0  0  0
  1 13  1  0
  2  1  1  0
  3  4  2  0
  5  2  1  0
  5  4  1  0
  6  5  2  0
  7  6  1  0
  7  8  2  0
  8  3  1  0
  9  7  1  0
  9 11  1  0
 10  9  1  0
 12  9  1  0
 13 14  1  0
 14 15  2  0
 14 16  2  0
 17 18  1  0
 17 14  1  0
 18 22  1  0
 19 20  1  0
 19 18  2  0
 20 21  2  0
 21 22  1  0
  1 23  1  0
  1 24  1  0
  2 25  1  0
  2 26  1  0
  3 27  1  0
  4 28  1  0
 13 29  1  0
 17 30  1  0
 17 31  1  0
 19 32  1  0
 20 33  1  0
 21 34  1  0
M  ISO  8  23   8  24   8  25   8  26   8  27  14  28  14  29   5  30   8
M  ISO  4  31   8  32  14  33  14  34  14
M  END
>  <minimizedAffinity>  (1) 
-5.48355579

>  <minimizedRMSD>  (1) 
1.73586667

$$$$
