
     RDKit          3D

 34 35  0  0  0  0  0  0  0  0999 V2000
   37.1450   30.5310   40.5560 C   0  0  0  0  0  0  0  0  0  0  0  0
   37.1800   32.0030   40.4930 C   0  0  0  0  0  0  0  0  0  0  0  0
   40.8840   32.3910   40.3730 C   0  0  0  0  0  0  0  0  0  0  0  0
   39.6010   31.8130   40.4570 C   0  0  0  0  0  0  0  0  0  0  0  0
   38.4870   32.6170   40.4150 C   0  0  0  0  0  0  0  0  0  0  0  0
   38.6460   33.9500   40.2960 N   0  0  0  0  0  0  0  0  0  0  0  0
   39.8740   34.5030   40.2170 C   0  0  0  0  0  0  0  0  0  0  0  0
   41.0080   33.7410   40.2540 N   0  0  0  0  0  0  0  0  0  0  0  0
   39.8040   35.9820   40.1010 C   0  0  0  0  0  0  0  0  0  0  0  0
   40.7400   36.4580   39.2190 F   0  0  0  0  0  0  0  0  0  0  0  0
   40.0370   36.5580   41.3550 F   0  0  0  0  0  0  0  0  0  0  0  0
   38.5230   36.3840   39.7810 F   0  0  0  0  0  0  0  0  0  0  0  0
   36.5070   30.0540   41.8240 N   0  0  0  0  0  0  0  0  0  0  0  0
   37.7990   29.1300   42.6390 S   0  0  0  0  0  0  0  0  0  0  0  0
   38.7800   30.0040   43.2340 O   0  0  0  0  0  0  0  0  0  0  0  0
   37.0720   28.3530   43.7580 O   0  0  0  0  0  0  0  0  0  0  0  0
   38.4280   27.9080   41.5570 C   0  0  0  0  0  0  0  0  0  0  0  0
   39.1800   26.9580   42.4420 N   0  0  0  0  0  0  0  0  0  0  0  0
   40.3050   27.2500   43.1380 C   0  0  0  0  0  0  0  0  0  0  0  0
   40.6950   26.1210   43.8300 C   0  0  0  0  0  0  0  0  0  0  0  0
   39.7890   25.1670   43.5340 N   0  0  0  0  0  0  0  0  0  0  0  0
   38.8620   25.6590   42.6920 C   0  0  0  0  0  0  0  0  0  0  0  0
   38.1742   30.1460   40.5062 H   0  0  0  0  0  0  0  0  0  0  0  0
   36.5491   30.1620   39.7082 H   0  0  0  0  0  0  0  0  0  0  0  0
   36.6123   32.3125   39.6031 H   0  0  0  0  0  0  0  0  0  0  0  0
   36.7559   32.3443   41.4488 H   0  0  0  0  0  0  0  0  0  0  0  0
   41.7803   31.7541   40.4035 H   0  0  0  0  0  0  0  0  0  0  0  0
   39.4918   30.7229   40.5558 H   0  0  0  0  0  0  0  0  0  0  0  0
   36.2052   30.8501   42.4037 H   0  0  0  0  0  0  0  0  0  0  0  0
   39.1013   28.3592   40.8133 H   0  0  0  0  0  0  0  0  0  0  0  0
   37.6294   27.4040   40.9929 H   0  0  0  0  0  0  0  0  0  0  0  0
   40.8202   28.2218   43.1497 H   0  0  0  0  0  0  0  0  0  0  0  0
   41.5691   26.0199   44.4901 H   0  0  0  0  0  0  0  0  0  0  0  0
   38.0023   25.1101   42.2801 H   0  0  0  0  0  0  0  0  0  0  0  0
  1 13  1  0
  2  1  1  0
  3  4  2  0
  5  4  1  0
  5  2  1  0
  6  5  2  0
  7  8  2  0
  7  6  1  0
  8  3  1  0
  9  7  1  0
  9 11  1  0
 10  9  1  0
 12  9  1  0
 13 14  1  0
 14 15  2  0
 14 16  2  0
 17 18  1  0
 17 14  1  0
 18 22  1  0
 18 19  1  0
 19 20  2  0
 21 20  1  0
 22 21  2  0
  1 23  1  0
  1 24  1  0
  2 25  1  0
  2 26  1  0
  3 27  1  0
  4 28  1  0
 13 29  1  0
 17 30  1  0
 17 31  1  0
 19 32  1  0
 20 33  1  0
 22 34  1  0
M  ISO  8  23   8  24   8  25   8  26   8  27  14  28  14  29   5  30   8
M  ISO  4  31   8  32  14  33  14  34  14
M  END
>  <minimizedAffinity>  (1) 
-5.36021757

>  <minimizedRMSD>  (1) 
0.696058393

$$$$
