
     RDKit          3D

 33 34  0  0  0  0  0  0  0  0999 V2000
   37.0910   30.5860   40.4910 C   0  0  0  0  0  0  0  0  0  0  0  0
   37.1610   32.0700   40.4530 C   0  0  0  0  0  0  0  0  0  0  0  0
   40.8420   32.4910   40.8190 C   0  0  0  0  0  0  0  0  0  0  0  0
   39.5610   31.9030   40.7680 C   0  0  0  0  0  0  0  0  0  0  0  0
   38.4660   32.6830   40.5080 C   0  0  0  0  0  0  0  0  0  0  0  0
   38.6530   34.0050   40.3070 N   0  0  0  0  0  0  0  0  0  0  0  0
   39.8640   34.5700   40.3560 C   0  0  0  0  0  0  0  0  0  0  0  0
   40.9800   33.8320   40.6110 N   0  0  0  0  0  0  0  0  0  0  0  0
   39.8230   36.0310   40.1200 C   0  0  0  0  0  0  0  0  0  0  0  0
   40.7460   36.4220   39.1850 F   0  0  0  0  0  0  0  0  0  0  0  0
   40.0800   36.7050   41.3200 F   0  0  0  0  0  0  0  0  0  0  0  0
   38.5390   36.4230   39.7810 F   0  0  0  0  0  0  0  0  0  0  0  0
   36.3990   30.1340   41.7630 N   0  0  0  0  0  0  0  0  0  0  0  0
   37.4750   28.9630   42.4100 S   0  0  0  0  0  0  0  0  0  0  0  0
   38.4840   29.6770   43.2830 O   0  0  0  0  0  0  0  0  0  0  0  0
   36.7000   28.0170   43.3270 O   0  0  0  0  0  0  0  0  0  0  0  0
   38.3350   27.9650   41.2750 C   0  0  0  0  0  0  0  0  0  0  0  0
   37.8970   26.5110   41.2700 C   0  0  0  0  0  0  0  0  0  0  0  0
   36.8660   25.9260   40.4780 C   0  0  0  0  0  0  0  0  0  0  0  0
   36.8320   24.1760   40.9760 S   0  0  0  0  0  0  0  0  0  0  0  0
   38.2350   24.4780   42.2010 C   0  0  0  0  0  0  0  0  0  0  0  0
   38.4310   25.5890   42.0500 N   0  0  0  0  0  0  0  0  0  0  0  0
   38.1097   30.1720   40.4632 H   0  0  0  0  0  0  0  0  0  0  0  0
   36.5202   30.2281   39.6215 H   0  0  0  0  0  0  0  0  0  0  0  0
   36.6838   32.3972   39.5175 H   0  0  0  0  0  0  0  0  0  0  0  0
   36.6628   32.3949   41.3784 H   0  0  0  0  0  0  0  0  0  0  0  0
   41.7264   31.8705   41.0257 H   0  0  0  0  0  0  0  0  0  0  0  0
   39.4421   30.8225   40.9364 H   0  0  0  0  0  0  0  0  0  0  0  0
   36.2765   30.9216   42.4153 H   0  0  0  0  0  0  0  0  0  0  0  0
   38.1791   28.3760   40.2666 H   0  0  0  0  0  0  0  0  0  0  0  0
   39.3917   27.9764   41.5804 H   0  0  0  0  0  0  0  0  0  0  0  0
   36.2307   26.4232   39.7302 H   0  0  0  0  0  0  0  0  0  0  0  0
   38.7313   23.7692   42.8802 H   0  0  0  0  0  0  0  0  0  0  0  0
  1 13  1  0
  2  1  1  0
  2  5  1  0
  4  3  2  0
  5  4  1  0
  6  7  1  0
  6  5  2  0
  7  8  2  0
  8  3  1  0
  9  7  1  0
  9 11  1  0
 10  9  1  0
 12  9  1  0
 13 14  1  0
 14 15  2  0
 14 16  2  0
 17 14  1  0
 18 17  1  0
 18 22  1  0
 19 20  1  0
 19 18  2  0
 20 21  1  0
 22 21  2  0
  1 23  1  0
  1 24  1  0
  2 25  1  0
  2 26  1  0
  3 27  1  0
  4 28  1  0
 13 29  1  0
 17 30  1  0
 17 31  1  0
 19 32  1  0
 21 33  1  0
M  ISO  8  23   8  24   8  25   8  26   8  27  14  28  14  29   5  30   8
M  ISO  3  31   8  32  14  33  14
M  END
>  <minimizedAffinity>  (1) 
-5.34346962

>  <minimizedRMSD>  (1) 
1.51078296

$$$$
