
     RDKit          3D

 34 35  0  0  0  0  0  0  0  0999 V2000
   36.9930   31.8470   40.4870 C   0  0  0  0  0  0  0  0  0  0  0  0
   40.5960   32.1660   39.6130 C   0  0  0  0  0  0  0  0  0  0  0  0
   39.3240   31.6180   39.9000 C   0  0  0  0  0  0  0  0  0  0  0  0
   38.2770   32.4440   40.2130 C   0  0  0  0  0  0  0  0  0  0  0  0
   38.4990   33.7700   40.2400 N   0  0  0  0  0  0  0  0  0  0  0  0
   39.6970   34.3050   39.9730 C   0  0  0  0  0  0  0  0  0  0  0  0
   40.7720   33.5140   39.6530 N   0  0  0  0  0  0  0  0  0  0  0  0
   39.7130   35.7790   40.0770 C   0  0  0  0  0  0  0  0  0  0  0  0
   40.6980   36.3390   39.3080 F   0  0  0  0  0  0  0  0  0  0  0  0
   39.9040   36.1500   41.4160 F   0  0  0  0  0  0  0  0  0  0  0  0
   38.4590   36.2890   39.7750 F   0  0  0  0  0  0  0  0  0  0  0  0
   36.9250   30.3950   40.7250 C   0  0  0  0  0  0  0  0  0  0  0  0
   36.4470   30.1090   42.1430 N   0  0  0  0  0  0  0  0  0  0  0  0
   37.6910   29.0940   42.7770 S   0  0  0  0  0  0  0  0  0  0  0  0
   38.9220   29.9470   42.9710 O   0  0  0  0  0  0  0  0  0  0  0  0
   37.2770   28.5730   44.1430 O   0  0  0  0  0  0  0  0  0  0  0  0
   38.1200   27.6940   41.8160 C   0  0  0  0  0  0  0  0  0  0  0  0
   36.9900   26.7240   41.5690 C   0  0  0  0  0  0  0  0  0  0  0  0
   37.1750   25.3180   42.1720 C   0  0  0  0  0  0  0  0  0  0  0  0
   37.1900   25.4670   40.7210 C   0  0  0  0  0  0  0  0  0  0  0  0
   36.3442   32.0648   39.6258 H   0  0  0  0  0  0  0  0  0  0  0  0
   36.6919   32.2898   41.4479 H   0  0  0  0  0  0  0  0  0  0  0  0
   41.4382   31.5056   39.3589 H   0  0  0  0  0  0  0  0  0  0  0  0
   39.1755   30.5284   39.8719 H   0  0  0  0  0  0  0  0  0  0  0  0
   36.2234   29.9431   40.0084 H   0  0  0  0  0  0  0  0  0  0  0  0
   37.9292   29.9655   40.5945 H   0  0  0  0  0  0  0  0  0  0  0  0
   36.3655   30.9789   42.6884 H   0  0  0  0  0  0  0  0  0  0  0  0
   38.4864   28.0477   40.8410 H   0  0  0  0  0  0  0  0  0  0  0  0
   38.8789   27.1443   42.3921 H   0  0  0  0  0  0  0  0  0  0  0  0
   36.2473   27.5354   41.5686 H   0  0  0  0  0  0  0  0  0  0  0  0
   38.1044   25.0701   42.7056 H   0  0  0  0  0  0  0  0  0  0  0  0
   36.5996   24.7003   42.8772 H   0  0  0  0  0  0  0  0  0  0  0  0
   36.3533   25.0738   40.1248 H   0  0  0  0  0  0  0  0  0  0  0  0
   37.8987   25.1822   39.9294 H   0  0  0  0  0  0  0  0  0  0  0  0
  1 12  1  0
  2  7  2  0
  2  3  1  0
  3  4  2  0
  4  5  1  0
  4  1  1  0
  6  8  1  0
  6  5  2  0
  7  6  1  0
  8 10  1  0
  9  8  1  0
 11  8  1  0
 12 13  1  0
 13 14  1  0
 14 15  2  0
 14 16  2  0
 17 14  1  0
 18 17  1  0
 18 19  1  0
 20 18  1  0
 20 19  1  0
  1 21  1  0
  1 22  1  0
  2 23  1  0
  3 24  1  0
 12 25  1  0
 12 26  1  0
 13 27  1  0
 17 28  1  0
 17 29  1  0
 18 30  1  0
 19 31  1  0
 19 32  1  0
 20 33  1  0
 20 34  1  0
M  ISO  8  21   8  22   8  23  14  24  14  25   8  26   8  27   5  28   8
M  ISO  6  29   8  30  13  31  13  32  13  33  13  34  13
M  END
>  <minimizedAffinity>  (1) 
-5.2528429

>  <minimizedRMSD>  (1) 
1.12911916

$$$$
