
     RDKit          3D

 28 28  0  0  0  0  0  0  0  0999 V2000
   36.9780   31.9670   40.4740 C   0  0  0  0  0  0  0  0  0  0  0  0
   40.6660   32.2610   40.8840 C   0  0  0  0  0  0  0  0  0  0  0  0
   39.3580   31.7280   40.8220 C   0  0  0  0  0  0  0  0  0  0  0  0
   38.2970   32.5520   40.5420 C   0  0  0  0  0  0  0  0  0  0  0  0
   38.5540   33.8560   40.3370 N   0  0  0  0  0  0  0  0  0  0  0  0
   39.7820   34.3700   40.3940 C   0  0  0  0  0  0  0  0  0  0  0  0
   40.8590   33.5900   40.6660 N   0  0  0  0  0  0  0  0  0  0  0  0
   39.7940   35.8360   40.1410 C   0  0  0  0  0  0  0  0  0  0  0  0
   40.7510   36.1820   39.2220 F   0  0  0  0  0  0  0  0  0  0  0  0
   40.0390   36.5140   41.3430 F   0  0  0  0  0  0  0  0  0  0  0  0
   38.5340   36.2770   39.7670 F   0  0  0  0  0  0  0  0  0  0  0  0
   36.8380   30.5120   40.5410 C   0  0  0  0  0  0  0  0  0  0  0  0
   36.2580   30.0660   41.8660 N   0  0  0  0  0  0  0  0  0  0  0  0
   37.2960   28.7870   42.3690 S   0  0  0  0  0  0  0  0  0  0  0  0
   38.2460   29.3360   43.4100 O   0  0  0  0  0  0  0  0  0  0  0  0
   36.4720   27.6900   43.0130 O   0  0  0  0  0  0  0  0  0  0  0  0
   38.2360   28.0370   41.0870 C   0  0  0  0  0  0  0  0  0  0  0  0
   37.6790   26.7880   40.7580 O   0  0  0  0  0  0  0  0  0  0  0  0
   36.5323   32.2892   39.5214 H   0  0  0  0  0  0  0  0  0  0  0  0
   36.4878   32.3196   41.3935 H   0  0  0  0  0  0  0  0  0  0  0  0
   41.5212   31.6061   41.1068 H   0  0  0  0  0  0  0  0  0  0  0  0
   39.1912   30.6550   40.9978 H   0  0  0  0  0  0  0  0  0  0  0  0
   36.1722   30.1802   39.7306 H   0  0  0  0  0  0  0  0  0  0  0  0
   37.8381   30.0660   40.4369 H   0  0  0  0  0  0  0  0  0  0  0  0
   36.2704   30.8371   42.5488 H   0  0  0  0  0  0  0  0  0  0  0  0
   38.2269   28.6865   40.1993 H   0  0  0  0  0  0  0  0  0  0  0  0
   39.2712   27.8946   41.4305 H   0  0  0  0  0  0  0  0  0  0  0  0
   37.4594   26.2956   41.5883 H   0  0  0  0  0  0  0  0  0  0  0  0
  1 12  1  0
  1  4  1  0
  3  2  2  0
  4  3  1  0
  5  6  1  0
  5  4  2  0
  6  7  2  0
  7  2  1  0
  8  6  1  0
  8 10  1  0
  9  8  1  0
 11  8  1  0
 12 13  1  0
 13 14  1  0
 14 16  2  0
 14 15  2  0
 17 14  1  0
 18 17  1  0
  1 19  1  0
  1 20  1  0
  2 21  1  0
  3 22  1  0
 12 23  1  0
 12 24  1  0
 13 25  1  0
 17 26  1  0
 17 27  1  0
 18 28  1  0
M  ISO  8  19   8  20   8  21  14  22  14  23   8  24   8  25   5  26   8
M  ISO  2  27   8  28   3
M  END
>  <minimizedAffinity>  (1) 
-4.77521563

>  <minimizedRMSD>  (1) 
0.261314481

$$$$
