
     RDKit          3D

 15 15  0  0  0  0  0  0  0  0999 V2000
   38.5400   28.9410   43.0590 C   0  0  0  0  0  0  0  0  0  0  0  0
   38.3840   27.5230   43.0260 C   0  0  0  0  0  0  0  0  0  0  0  0
   37.3090   26.9780   42.3410 C   0  0  0  0  0  0  0  0  0  0  0  0
   36.4470   27.8420   41.7280 N   0  0  0  0  0  0  0  0  0  0  0  0
   36.6020   29.1760   41.7640 C   0  0  0  0  0  0  0  0  0  0  0  0
   37.6460   29.7360   42.4270 N   0  0  0  0  0  0  0  0  0  0  0  0
   35.6470   30.0030   41.0890 N   0  0  0  0  0  0  0  0  0  0  0  0
   37.0710   25.5190   42.2570 C   0  0  0  0  0  0  0  0  0  0  0  0
   39.3878   29.3882   43.5987 H   0  0  0  0  0  0  0  0  0  0  0  0
   39.1073   26.8708   43.5374 H   0  0  0  0  0  0  0  0  0  0  0  0
   35.7500   31.0277   41.1060 H   0  0  0  0  0  0  0  0  0  0  0  0
   34.8573   29.5730   40.5866 H   0  0  0  0  0  0  0  0  0  0  0  0
   37.0026   25.0996   43.2716 H   0  0  0  0  0  0  0  0  0  0  0  0
   36.1304   25.3313   41.7185 H   0  0  0  0  0  0  0  0  0  0  0  0
   37.9032   25.0421   41.7185 H   0  0  0  0  0  0  0  0  0  0  0  0
  2  1  2  0
  3  2  1  0
  4  5  1  0
  4  3  2  0
  5  6  2  0
  6  1  1  0
  7  5  1  0
  8  3  1  0
  1  9  1  0
  2 10  1  0
  7 11  1  0
  7 12  1  0
  8 13  1  0
  8 14  1  0
  8 15  1  0
M  ISO  5   9  14  10  14  13   8  14   8  15   8
M  END
>  <minimizedAffinity>  (1) 
-3.26407313

>  <minimizedRMSD>  (1) 
0.719148099

$$$$
