
     RDKit          3D

 37 40  0  0  1  0  0  0  0  0999 V2000
   37.7700   27.2130   40.9840 C   0  0  1  0  0  0  0  0  0  0  0  0
   37.4420   26.8000   42.4370 C   0  0  0  0  0  0  0  0  0  0  0  0
   37.0020   25.3820   42.3060 C   0  0  0  0  0  0  0  0  0  0  0  0
   36.9550   25.0590   40.8090 C   0  0  0  0  0  0  0  0  0  0  0  0
   36.7240   26.4680   40.2800 C   0  0  2  0  0  0  0  0  0  0  0  0
   36.5190   26.5910   38.8660 C   0  0  0  0  0  0  0  0  0  0  0  0
   37.1980   25.8150   37.9060 C   0  0  0  0  0  0  0  0  0  0  0  0
   36.8070   26.1390   36.6900 N   0  0  0  0  0  0  0  0  0  0  0  0
   35.8750   27.1190   36.7090 C   0  0  0  0  0  0  0  0  0  0  0  0
   35.1630   27.7990   35.7610 C   0  0  0  0  0  0  0  0  0  0  0  0
   34.2600   28.7730   36.1330 C   0  0  0  0  0  0  0  0  0  0  0  0
   34.0930   29.0410   37.4740 C   0  0  0  0  0  0  0  0  0  0  0  0
   34.8150   28.3470   38.4040 C   0  0  0  0  0  0  0  0  0  0  0  0
   35.7190   27.3730   38.0570 C   0  0  0  0  0  0  0  0  0  0  0  0
   37.6980   28.6630   40.8900 C   0  0  0  0  0  0  0  0  0  0  0  0
   36.5480   29.3010   41.3820 C   0  0  0  0  0  0  0  0  0  0  0  0
   36.4120   30.7040   41.3210 C   0  0  0  0  0  0  0  0  0  0  0  0
   37.4710   31.3810   40.7540 N   0  0  0  0  0  0  0  0  0  0  0  0
   38.5660   30.7290   40.2890 C   0  0  0  0  0  0  0  0  0  0  0  0
   38.6750   29.3800   40.3580 N   0  0  0  0  0  0  0  0  0  0  0  0
   38.7681   26.9872   40.5804 H   0  0  0  0  0  0  0  0  0  0  0  0
   38.3325   26.8775   43.0781 H   0  0  0  0  0  0  0  0  0  0  0  0
   36.6809   27.4429   42.9032 H   0  0  0  0  0  0  0  0  0  0  0  0
   37.7169   24.7171   42.8128 H   0  0  0  0  0  0  0  0  0  0  0  0
   36.0148   25.2350   42.7685 H   0  0  0  0  0  0  0  0  0  0  0  0
   37.9016   24.6309   40.4477 H   0  0  0  0  0  0  0  0  0  0  0  0
   36.2110   24.3076   40.5060 H   0  0  0  0  0  0  0  0  0  0  0  0
   35.7429   26.9170   40.4942 H   0  0  0  0  0  0  0  0  0  0  0  0
   37.9494   25.0462   38.1389 H   0  0  0  0  0  0  0  0  0  0  0  0
   37.1669   25.6999   35.8306 H   0  0  0  0  0  0  0  0  0  0  0  0
   35.3109   27.5683   34.6957 H   0  0  0  0  0  0  0  0  0  0  0  0
   33.6850   29.3245   35.3745 H   0  0  0  0  0  0  0  0  0  0  0  0
   33.3789   29.8132   37.7960 H   0  0  0  0  0  0  0  0  0  0  0  0
   34.6667   28.5769   39.4694 H   0  0  0  0  0  0  0  0  0  0  0  0
   35.7404   28.6975   41.8219 H   0  0  0  0  0  0  0  0  0  0  0  0
   35.5199   31.2236   41.7008 H   0  0  0  0  0  0  0  0  0  0  0  0
   39.3870   31.3106   39.8443 H   0  0  0  0  0  0  0  0  0  0  0  0
  1  2  1  0
  3  2  1  0
  4  3  1  0
  5  4  1  0
  5  1  1  0
  6  5  1  0
  7  6  2  0
  8  9  1  0
  8  7  1  0
  9 14  2  0
 10 11  2  0
 10  9  1  0
 11 12  1  0
 12 13  2  0
 14 13  1  0
 14  6  1  0
 15  1  1  0
 15 16  2  0
 17 16  1  0
 18 17  2  0
 19 20  2  0
 19 18  1  0
 20 15  1  0
  1 21  1  6
  2 22  1  0
  2 23  1  0
  3 24  1  0
  3 25  1  0
  4 26  1  0
  4 27  1  0
  5 28  1  1
  7 29  1  0
  8 30  1  0
 10 31  1  0
 11 32  1  0
 12 33  1  0
 13 34  1  0
 16 35  1  0
 17 36  1  0
 19 37  1  0
M  ISO  8  21  13  22  13  23  13  24  13  25  13  26  13  27  13  28  13
M  ISO  8  29  14  30   9  31  14  32  14  33  14  34  14  35  14  36  14
M  ISO  1  37  14
M  END
>  <minimizedAffinity>  (1) 
-4.7262578

>  <minimizedRMSD>  (1) 
2.42565942

$$$$
