
     RDKit          3D

 37 40  0  0  1  0  0  0  0  0999 V2000
   37.7500   26.6780   40.8340 C   0  0  1  0  0  0  0  0  0  0  0  0
   37.4180   26.0180   42.1790 C   0  0  0  0  0  0  0  0  0  0  0  0
   36.8470   24.6870   41.7640 C   0  0  0  0  0  0  0  0  0  0  0  0
   36.7110   24.6940   40.2600 C   0  0  0  0  0  0  0  0  0  0  0  0
   36.6190   26.2030   39.9850 C   0  0  2  0  0  0  0  0  0  0  0  0
   36.9110   26.4960   38.6080 C   0  0  0  0  0  0  0  0  0  0  0  0
   38.0010   25.9660   37.9850 N   0  0  0  0  0  0  0  0  0  0  0  0
   38.2980   26.2220   36.7000 C   0  0  0  0  0  0  0  0  0  0  0  0
   37.5320   27.0300   35.9250 N   0  0  0  0  0  0  0  0  0  0  0  0
   36.4280   27.5930   36.4820 C   0  0  0  0  0  0  0  0  0  0  0  0
   35.6400   28.4170   35.7020 C   0  0  0  0  0  0  0  0  0  0  0  0
   34.5060   28.9990   36.2620 C   0  0  0  0  0  0  0  0  0  0  0  0
   34.2150   28.7270   37.5820 C   0  0  0  0  0  0  0  0  0  0  0  0
   35.0340   27.8980   38.3130 C   0  0  0  0  0  0  0  0  0  0  0  0
   36.1760   27.3000   37.7820 C   0  0  0  0  0  0  0  0  0  0  0  0
   37.8460   28.1180   41.0040 C   0  0  0  0  0  0  0  0  0  0  0  0
   36.6840   28.8060   41.4230 C   0  0  0  0  0  0  0  0  0  0  0  0
   36.7120   30.1960   41.6140 C   0  0  0  0  0  0  0  0  0  0  0  0
   37.9310   30.8050   41.3680 N   0  0  0  0  0  0  0  0  0  0  0  0
   39.0120   30.1190   40.9730 C   0  0  0  0  0  0  0  0  0  0  0  0
   38.9780   28.7750   40.7890 N   0  0  0  0  0  0  0  0  0  0  0  0
   38.7187   26.4195   40.3815 H   0  0  0  0  0  0  0  0  0  0  0  0
   38.3228   25.8878   42.7908 H   0  0  0  0  0  0  0  0  0  0  0  0
   36.7312   26.6130   42.7990 H   0  0  0  0  0  0  0  0  0  0  0  0
   37.5222   23.8763   42.0752 H   0  0  0  0  0  0  0  0  0  0  0  0
   35.8682   24.5232   42.2384 H   0  0  0  0  0  0  0  0  0  0  0  0
   37.5896   24.2466   39.7722 H   0  0  0  0  0  0  0  0  0  0  0  0
   35.8616   24.1092   39.8773 H   0  0  0  0  0  0  0  0  0  0  0  0
   35.6331   26.6470   40.1874 H   0  0  0  0  0  0  0  0  0  0  0  0
   39.1943   25.7599   36.2606 H   0  0  0  0  0  0  0  0  0  0  0  0
   35.9050   28.6108   34.6521 H   0  0  0  0  0  0  0  0  0  0  0  0
   33.8585   29.6592   35.6663 H   0  0  0  0  0  0  0  0  0  0  0  0
   33.3262   29.1738   38.0515 H   0  0  0  0  0  0  0  0  0  0  0  0
   34.7763   27.6980   39.3635 H   0  0  0  0  0  0  0  0  0  0  0  0
   35.7525   28.2484   41.6003 H   0  0  0  0  0  0  0  0  0  0  0  0
   35.8264   30.7628   41.9370 H   0  0  0  0  0  0  0  0  0  0  0  0
   39.9527   30.6600   40.7930 H   0  0  0  0  0  0  0  0  0  0  0  0
  1 16  1  0
  1  2  1  0
  3  2  1  0
  4  3  1  0
  5  4  1  0
  5  1  1  0
  6  5  1  0
  7  6  2  0
  8  7  1  0
  9 10  1  0
  9  8  2  0
 10 15  2  0
 11 12  2  0
 11 10  1  0
 12 13  1  0
 13 14  2  0
 15 14  1  0
 15  6  1  0
 16 17  2  0
 17 18  1  0
 19 18  2  0
 20 19  1  0
 21 20  2  0
 21 16  1  0
  1 22  1  6
  2 23  1  0
  2 24  1  0
  3 25  1  0
  3 26  1  0
  4 27  1  0
  4 28  1  0
  5 29  1  1
  8 30  1  0
 11 31  1  0
 12 32  1  0
 13 33  1  0
 14 34  1  0
 17 35  1  0
 18 36  1  0
 20 37  1  0
M  ISO  8  22  13  23  13  24  13  25  13  26  13  27  13  28  13  29  13
M  ISO  8  30  14  31  14  32  14  33  14  34  14  35  14  36  14  37  14
M  END
>  <minimizedAffinity>  (1) 
-4.64860821

>  <minimizedRMSD>  (1) 
2.66347456

$$$$
