
     RDKit          3D

 33 35  0  0  1  0  0  0  0  0999 V2000
   37.5360   26.7900   41.1450 C   0  0  1  0  0  0  0  0  0  0  0  0
   37.0560   26.2070   42.4860 C   0  0  0  0  0  0  0  0  0  0  0  0
   36.9490   24.7460   42.1780 C   0  0  0  0  0  0  0  0  0  0  0  0
   37.0140   24.5770   40.6870 C   0  0  0  0  0  0  0  0  0  0  0  0
   36.7340   26.0030   40.1840 C   0  0  2  0  0  0  0  0  0  0  0  0
   37.3100   28.2300   41.1390 C   0  0  0  0  0  0  0  0  0  0  0  0
   35.9970   28.6740   40.8140 C   0  0  0  0  0  0  0  0  0  0  0  0
   35.7640   30.0660   40.8130 C   0  0  0  0  0  0  0  0  0  0  0  0
   36.8190   30.8970   41.1260 N   0  0  0  0  0  0  0  0  0  0  0  0
   38.0470   30.4050   41.4280 C   0  0  0  0  0  0  0  0  0  0  0  0
   38.2900   29.0800   41.4330 N   0  0  0  0  0  0  0  0  0  0  0  0
   37.2450   26.0180   38.7890 C   0  0  0  0  0  0  0  0  0  0  0  0
   38.5470   25.5570   38.6600 C   0  0  0  0  0  0  0  0  0  0  0  0
   39.1110   25.5340   37.3960 C   0  0  0  0  0  0  0  0  0  0  0  0
   38.3400   25.9760   36.3210 C   0  0  0  0  0  0  0  0  0  0  0  0
   37.0490   26.4240   36.5070 C   0  0  0  0  0  0  0  0  0  0  0  0
   36.4680   26.4540   37.7690 C   0  0  0  0  0  0  0  0  0  0  0  0
   38.6084   26.7084   40.9142 H   0  0  0  0  0  0  0  0  0  0  0  0
   37.7877   26.3930   43.2861 H   0  0  0  0  0  0  0  0  0  0  0  0
   36.1171   26.6508   42.8486 H   0  0  0  0  0  0  0  0  0  0  0  0
   37.7806   24.2034   42.6513 H   0  0  0  0  0  0  0  0  0  0  0  0
   36.0018   24.3433   42.5660 H   0  0  0  0  0  0  0  0  0  0  0  0
   38.0080   24.2300   40.3682 H   0  0  0  0  0  0  0  0  0  0  0  0
   36.3109   23.8261   40.2974 H   0  0  0  0  0  0  0  0  0  0  0  0
   35.6997   26.3756   40.1471 H   0  0  0  0  0  0  0  0  0  0  0  0
   35.1955   27.9602   40.5731 H   0  0  0  0  0  0  0  0  0  0  0  0
   34.7722   30.4751   40.5702 H   0  0  0  0  0  0  0  0  0  0  0  0
   38.8611   31.1027   41.6739 H   0  0  0  0  0  0  0  0  0  0  0  0
   39.1160   25.2188   39.5385 H   0  0  0  0  0  0  0  0  0  0  0  0
   40.1401   25.1766   37.2434 H   0  0  0  0  0  0  0  0  0  0  0  0
   38.7688   25.9671   35.3080 H   0  0  0  0  0  0  0  0  0  0  0  0
   36.4669   26.7648   35.6381 H   0  0  0  0  0  0  0  0  0  0  0  0
   35.4397   26.8101   37.9297 H   0  0  0  0  0  0  0  0  0  0  0  0
  1  2  1  0
  3  2  1  0
  4  3  1  0
  5  4  1  0
  5  1  1  0
  6  1  1  0
  6 11  1  0
  7  6  2  0
  8  7  1  0
  8  9  2  0
  9 10  1  0
 10 11  2  0
 12  5  1  0
 13 12  2  0
 14 13  1  0
 15 16  1  0
 15 14  2  0
 16 17  2  0
 17 12  1  0
  1 18  1  6
  2 19  1  0
  2 20  1  0
  3 21  1  0
  3 22  1  0
  4 23  1  0
  4 24  1  0
  5 25  1  6
  7 26  1  0
  8 27  1  0
 10 28  1  0
 13 29  1  0
 14 30  1  0
 15 31  1  0
 16 32  1  0
 17 33  1  0
M  ISO  8  18  13  19  13  20  13  21  13  22  13  23  13  24  13  25  13
M  ISO  8  26  14  27  14  28  14  29  14  30  14  31  14  32  14  33  14
M  END
>  <minimizedAffinity>  (1) 
-4.12619209

>  <minimizedRMSD>  (1) 
0.272881389

$$$$
