
     RDKit          3D

 39 41  0  0  1  0  0  0  0  0999 V2000
   37.6250   26.8080   41.1090 C   0  0  1  0  0  0  0  0  0  0  0  0
   37.1130   26.3120   42.4710 C   0  0  0  0  0  0  0  0  0  0  0  0
   36.8210   24.8680   42.2080 C   0  0  0  0  0  0  0  0  0  0  0  0
   36.9950   24.6290   40.7130 C   0  0  0  0  0  0  0  0  0  0  0  0
   36.7380   26.0480   40.1900 C   0  0  2  0  0  0  0  0  0  0  0  0
   37.4860   28.2630   41.0370 C   0  0  0  0  0  0  0  0  0  0  0  0
   36.1740   28.8080   41.1380 C   0  0  0  0  0  0  0  0  0  0  0  0
   36.0600   30.2150   41.0790 C   0  0  0  0  0  0  0  0  0  0  0  0
   37.2290   30.9420   40.9290 N   0  0  0  0  0  0  0  0  0  0  0  0
   38.4330   30.3740   40.8390 C   0  0  0  0  0  0  0  0  0  0  0  0
   38.5710   29.0350   40.8920 N   0  0  0  0  0  0  0  0  0  0  0  0
   37.0510   26.1760   38.7320 C   0  0  0  0  0  0  0  0  0  0  0  0
   38.5540   26.2390   38.6000 C   0  0  0  0  0  0  0  0  0  0  0  0
   38.9110   27.4120   37.6980 C   0  0  0  0  0  0  0  0  0  0  0  0
   38.2550   27.1360   36.3700 C   0  0  0  0  0  0  0  0  0  0  0  0
   36.7690   27.2210   36.5630 C   0  0  0  0  0  0  0  0  0  0  0  0
   36.3750   27.3020   38.0270 C   0  0  0  0  0  0  0  0  0  0  0  0
   38.6885   26.6417   40.8823 H   0  0  0  0  0  0  0  0  0  0  0  0
   37.8823   26.4256   43.2490 H   0  0  0  0  0  0  0  0  0  0  0  0
   36.2416   26.8729   42.8399 H   0  0  0  0  0  0  0  0  0  0  0  0
   37.5205   24.2346   42.7733 H   0  0  0  0  0  0  0  0  0  0  0  0
   35.7977   24.6165   42.5235 H   0  0  0  0  0  0  0  0  0  0  0  0
   38.0097   24.2809   40.4698 H   0  0  0  0  0  0  0  0  0  0  0  0
   36.3439   23.8513   40.2873 H   0  0  0  0  0  0  0  0  0  0  0  0
   35.6957   26.3993   40.2059 H   0  0  0  0  0  0  0  0  0  0  0  0
   35.2905   28.1634   41.2564 H   0  0  0  0  0  0  0  0  0  0  0  0
   35.0817   30.7130   41.1494 H   0  0  0  0  0  0  0  0  0  0  0  0
   39.3245   31.0073   40.7200 H   0  0  0  0  0  0  0  0  0  0  0  0
   36.6388   25.2943   38.2194 H   0  0  0  0  0  0  0  0  0  0  0  0
   39.0079   26.3820   39.5917 H   0  0  0  0  0  0  0  0  0  0  0  0
   38.9339   25.3017   38.1674 H   0  0  0  0  0  0  0  0  0  0  0  0
   38.5285   28.3511   38.1244 H   0  0  0  0  0  0  0  0  0  0  0  0
   40.0006   27.5192   37.5922 H   0  0  0  0  0  0  0  0  0  0  0  0
   38.5294   26.1301   36.0195 H   0  0  0  0  0  0  0  0  0  0  0  0
   38.5864   27.8686   35.6193 H   0  0  0  0  0  0  0  0  0  0  0  0
   36.3974   28.1191   36.0478 H   0  0  0  0  0  0  0  0  0  0  0  0
   36.3258   26.3035   36.1486 H   0  0  0  0  0  0  0  0  0  0  0  0
   36.7019   28.2625   38.4520 H   0  0  0  0  0  0  0  0  0  0  0  0
   35.2831   27.2324   38.1404 H   0  0  0  0  0  0  0  0  0  0  0  0
  1  2  1  0
  3  2  1  0
  4  3  1  0
  5  4  1  0
  5  1  1  0
  6  1  1  0
  6  7  2  0
  8  7  1  0
  9  8  2  0
 10 11  2  0
 10  9  1  0
 11  6  1  0
 12  5  1  0
 13 12  1  0
 14 13  1  0
 15 16  1  0
 15 14  1  0
 16 17  1  0
 17 12  1  0
  1 18  1  6
  2 19  1  0
  2 20  1  0
  3 21  1  0
  3 22  1  0
  4 23  1  0
  4 24  1  0
  5 25  1  6
  7 26  1  0
  8 27  1  0
 10 28  1  0
 12 29  1  0
 13 30  1  0
 13 31  1  0
 14 32  1  0
 14 33  1  0
 15 34  1  0
 15 35  1  0
 16 36  1  0
 16 37  1  0
 17 38  1  0
 17 39  1  0
M  ISO  8  18  13  19  13  20  13  21  13  22  13  23  13  24  13  25  13
M  ISO  8  26  14  27  14  28  14  29  13  30  13  31  13  32  13  33  13
M  ISO  6  34  13  35  13  36  13  37  13  38  13  39  13
M  END
>  <minimizedAffinity>  (1) 
-4.08070087

>  <minimizedRMSD>  (1) 
0.500840902

$$$$
