
     RDKit          3D

 14 14  0  0  0  0  0  0  0  0999 V2000
   38.8860   28.8390   43.0080 C   0  0  0  0  0  0  0  0  0  0  0  0
   38.5590   27.4630   42.9750 C   0  0  0  0  0  0  0  0  0  0  0  0
   37.3370   27.1050   42.4310 C   0  0  0  0  0  0  0  0  0  0  0  0
   36.5110   28.0930   41.9550 N   0  0  0  0  0  0  0  0  0  0  0  0
   36.8580   29.3860   42.0050 C   0  0  0  0  0  0  0  0  0  0  0  0
   38.0500   29.7760   42.5320 N   0  0  0  0  0  0  0  0  0  0  0  0
   35.9460   30.3620   41.4890 N   0  0  0  0  0  0  0  0  0  0  0  0
   36.9730   25.7340   42.3810 N   0  0  0  0  0  0  0  0  0  0  0  0
   39.8509   29.1497   43.4350 H   0  0  0  0  0  0  0  0  0  0  0  0
   39.2514   26.7039   43.3678 H   0  0  0  0  0  0  0  0  0  0  0  0
   36.1916   31.3619   41.5169 H   0  0  0  0  0  0  0  0  0  0  0  0
   35.0444   30.0641   41.0899 H   0  0  0  0  0  0  0  0  0  0  0  0
   36.0665   25.4562   41.9785 H   0  0  0  0  0  0  0  0  0  0  0  0
   37.6154   25.0169   42.7472 H   0  0  0  0  0  0  0  0  0  0  0  0
  2  1  2  0
  3  2  1  0
  4  5  1  0
  4  3  2  0
  5  6  2  0
  6  1  1  0
  7  5  1  0
  8  3  1  0
  1  9  1  0
  2 10  1  0
  7 11  1  0
  7 12  1  0
  8 13  1  0
  8 14  1  0
M  ISO  2   9  14  10  14
M  END
>  <minimizedAffinity>  (1) 
-3.16073012

>  <minimizedRMSD>  (1) 
0.783029079

$$$$
