
     RDKit          3D

 36 38  0  0  1  0  0  0  0  0999 V2000
   37.5290   26.8100   41.1830 C   0  0  1  0  0  0  0  0  0  0  0  0
   37.0610   26.2470   42.5280 C   0  0  0  0  0  0  0  0  0  0  0  0
   36.8890   24.7740   42.2630 C   0  0  0  0  0  0  0  0  0  0  0  0
   37.1700   24.5590   40.7770 C   0  0  0  0  0  0  0  0  0  0  0  0
   36.8180   25.9300   40.2250 C   0  0  2  0  0  0  0  0  0  0  0  0
   37.2230   28.2300   41.1060 C   0  0  0  0  0  0  0  0  0  0  0  0
   35.9090   28.5900   40.7610 C   0  0  0  0  0  0  0  0  0  0  0  0
   35.5590   29.9490   40.6820 C   0  0  0  0  0  0  0  0  0  0  0  0
   36.5550   30.8540   40.9550 N   0  0  0  0  0  0  0  0  0  0  0  0
   37.8090   30.4640   41.2840 C   0  0  0  0  0  0  0  0  0  0  0  0
   38.1410   29.1500   41.3580 N   0  0  0  0  0  0  0  0  0  0  0  0
   37.3260   26.1650   38.8490 C   0  0  0  0  0  0  0  0  0  0  0  0
   36.2710   25.9580   37.7590 C   0  0  0  0  0  0  0  0  0  0  0  0
   37.1470   26.2470   36.5390 C   0  0  0  0  0  0  0  0  0  0  0  0
   38.5350   25.7380   36.9140 C   0  0  0  0  0  0  0  0  0  0  0  0
   38.3910   25.2380   38.3640 C   0  0  0  0  0  0  0  0  0  0  0  0
   38.6115   26.7938   40.9882 H   0  0  0  0  0  0  0  0  0  0  0  0
   37.8167   26.4187   43.3086 H   0  0  0  0  0  0  0  0  0  0  0  0
   36.1382   26.7239   42.8899 H   0  0  0  0  0  0  0  0  0  0  0  0
   37.5992   24.1941   42.8708 H   0  0  0  0  0  0  0  0  0  0  0  0
   35.8741   24.4408   42.5258 H   0  0  0  0  0  0  0  0  0  0  0  0
   38.2254   24.3075   40.5959 H   0  0  0  0  0  0  0  0  0  0  0  0
   36.6139   23.7261   40.3221 H   0  0  0  0  0  0  0  0  0  0  0  0
   35.7324   26.0852   40.1392 H   0  0  0  0  0  0  0  0  0  0  0  0
   35.1588   27.8126   40.5540 H   0  0  0  0  0  0  0  0  0  0  0  0
   34.5413   30.2705   40.4156 H   0  0  0  0  0  0  0  0  0  0  0  0
   38.5732   31.2264   41.4953 H   0  0  0  0  0  0  0  0  0  0  0  0
   37.6847   27.1974   38.9738 H   0  0  0  0  0  0  0  0  0  0  0  0
   35.8773   24.9309   37.7528 H   0  0  0  0  0  0  0  0  0  0  0  0
   35.3622   26.5709   37.8509 H   0  0  0  0  0  0  0  0  0  0  0  0
   37.1752   27.3269   36.3314 H   0  0  0  0  0  0  0  0  0  0  0  0
   36.7616   25.7596   35.6313 H   0  0  0  0  0  0  0  0  0  0  0  0
   38.8394   24.9163   36.2490 H   0  0  0  0  0  0  0  0  0  0  0  0
   39.3040   26.5186   36.8179 H   0  0  0  0  0  0  0  0  0  0  0  0
   38.0679   24.1873   38.4040 H   0  0  0  0  0  0  0  0  0  0  0  0
   39.3197   25.2478   38.9535 H   0  0  0  0  0  0  0  0  0  0  0  0
  1  2  1  0
  3  2  1  0
  4  3  1  0
  5  4  1  0
  5  1  1  0
  6  1  1  0
  6 11  1  0
  7  6  2  0
  8  7  1  0
  8  9  2  0
  9 10  1  0
 10 11  2  0
 12  5  1  0
 13 12  1  0
 14 15  1  0
 14 13  1  0
 15 16  1  0
 16 12  1  0
  1 17  1  1
  2 18  1  0
  2 19  1  0
  3 20  1  0
  3 21  1  0
  4 22  1  0
  4 23  1  0
  5 24  1  6
  7 25  1  0
  8 26  1  0
 10 27  1  0
 12 28  1  0
 13 29  1  0
 13 30  1  0
 14 31  1  0
 14 32  1  0
 15 33  1  0
 15 34  1  0
 16 35  1  0
 16 36  1  0
M  ISO  8  17  13  18  13  19  13  20  13  21  13  22  13  23  13  24  13
M  ISO  8  25  14  26  14  27  14  28  13  29  13  30  13  31  13  32  13
M  ISO  4  33  13  34  13  35  13  36  13
M  END
>  <minimizedAffinity>  (1) 
-3.93134665

>  <minimizedRMSD>  (1) 
0.116314754

$$$$
