
     RDKit          3D

 29 31  0  0  1  0  0  0  0  0999 V2000
   37.5390   26.7970   41.1390 C   0  0  1  0  0  0  0  0  0  0  0  0
   37.0560   26.2300   42.4850 C   0  0  0  0  0  0  0  0  0  0  0  0
   36.9240   24.7590   42.2100 C   0  0  0  0  0  0  0  0  0  0  0  0
   37.2110   24.5600   40.7220 C   0  0  0  0  0  0  0  0  0  0  0  0
   36.7970   25.9400   40.1840 C   0  0  2  0  0  0  0  0  0  0  0  0
   37.2340   28.2150   41.0850 C   0  0  0  0  0  0  0  0  0  0  0  0
   35.9230   28.5920   40.7480 C   0  0  0  0  0  0  0  0  0  0  0  0
   35.5470   29.9480   40.6820 C   0  0  0  0  0  0  0  0  0  0  0  0
   36.5520   30.8540   40.9720 N   0  0  0  0  0  0  0  0  0  0  0  0
   37.8050   30.4540   41.2930 C   0  0  0  0  0  0  0  0  0  0  0  0
   38.1330   29.1550   41.3470 N   0  0  0  0  0  0  0  0  0  0  0  0
   37.2530   26.0450   38.7740 C   0  0  0  0  0  0  0  0  0  0  0  0
   38.6010   25.8120   38.3430 C   0  0  0  0  0  0  0  0  0  0  0  0
   38.4410   26.1200   36.4780 S   0  0  0  0  0  0  0  0  0  0  0  0
   36.5940   26.4940   36.6900 C   0  0  0  0  0  0  0  0  0  0  0  0
   36.3580   26.3780   37.8440 N   0  0  0  0  0  0  0  0  0  0  0  0
   38.6194   26.7652   40.9350 H   0  0  0  0  0  0  0  0  0  0  0  0
   37.7930   26.4182   43.2796 H   0  0  0  0  0  0  0  0  0  0  0  0
   36.1199   26.6891   42.8356 H   0  0  0  0  0  0  0  0  0  0  0  0
   37.6492   24.1943   42.8143 H   0  0  0  0  0  0  0  0  0  0  0  0
   35.9179   24.3979   42.4695 H   0  0  0  0  0  0  0  0  0  0  0  0
   38.2748   24.3514   40.5356 H   0  0  0  0  0  0  0  0  0  0  0  0
   36.6919   23.7074   40.2597 H   0  0  0  0  0  0  0  0  0  0  0  0
   35.7261   26.1871   40.1392 H   0  0  0  0  0  0  0  0  0  0  0  0
   35.1763   27.8137   40.5317 H   0  0  0  0  0  0  0  0  0  0  0  0
   34.5269   30.2642   40.4186 H   0  0  0  0  0  0  0  0  0  0  0  0
   38.5711   31.2117   41.5145 H   0  0  0  0  0  0  0  0  0  0  0  0
   39.4860   25.5313   38.9329 H   0  0  0  0  0  0  0  0  0  0  0  0
   35.8821   26.7654   35.8966 H   0  0  0  0  0  0  0  0  0  0  0  0
  1  2  1  0
  3  2  1  0
  4  3  1  0
  5  4  1  0
  5  1  1  0
  6  1  1  0
  6 11  1  0
  7  6  2  0
  8  7  1  0
  8  9  2  0
  9 10  1  0
 10 11  2  0
 12  5  1  0
 13 12  2  0
 14 15  1  0
 14 13  1  0
 15 16  2  0
 16 12  1  0
  1 17  1  6
  2 18  1  0
  2 19  1  0
  3 20  1  0
  3 21  1  0
  4 22  1  0
  4 23  1  0
  5 24  1  6
  7 25  1  0
  8 26  1  0
 10 27  1  0
 13 28  1  0
 15 29  1  0
M  ISO  8  17  13  18  13  19  13  20  13  21  13  22  13  23  13  24  13
M  ISO  5  25  14  26  14  27  14  28  14  29  14
M  END
>  <minimizedAffinity>  (1) 
-3.92246199

>  <minimizedRMSD>  (1) 
0.112016737

$$$$
