
     RDKit          3D

 36 38  0  0  1  0  0  0  0  0999 V2000
   37.5700   26.8070   41.1620 C   0  0  1  0  0  0  0  0  0  0  0  0
   37.0410   26.2200   42.4810 C   0  0  0  0  0  0  0  0  0  0  0  0
   36.9710   24.7510   42.1860 C   0  0  0  0  0  0  0  0  0  0  0  0
   37.2870   24.5760   40.7040 C   0  0  0  0  0  0  0  0  0  0  0  0
   36.8410   25.9470   40.1880 C   0  0  2  0  0  0  0  0  0  0  0  0
   37.2430   28.2220   41.1030 C   0  0  0  0  0  0  0  0  0  0  0  0
   35.9210   28.5870   40.7510 C   0  0  0  0  0  0  0  0  0  0  0  0
   35.5470   29.9400   40.6850 C   0  0  0  0  0  0  0  0  0  0  0  0
   36.5390   30.8470   40.9790 N   0  0  0  0  0  0  0  0  0  0  0  0
   37.7930   30.4680   41.3120 C   0  0  0  0  0  0  0  0  0  0  0  0
   38.1340   29.1650   41.3700 N   0  0  0  0  0  0  0  0  0  0  0  0
   37.1470   26.1490   38.8140 N   0  0  0  0  0  0  0  0  0  0  0  0
   36.1220   25.5320   37.9950 C   0  0  0  0  0  0  0  0  0  0  0  0
   36.3520   26.0870   36.5910 C   0  0  0  0  0  0  0  0  0  0  0  0
   37.6090   25.7290   36.1500 O   0  0  0  0  0  0  0  0  0  0  0  0
   38.6430   26.1440   36.9750 C   0  0  0  0  0  0  0  0  0  0  0  0
   38.4540   25.7010   38.4130 C   0  0  0  0  0  0  0  0  0  0  0  0
   38.6570   26.7921   40.9941 H   0  0  0  0  0  0  0  0  0  0  0  0
   37.7326   26.4249   43.3115 H   0  0  0  0  0  0  0  0  0  0  0  0
   36.0769   26.6482   42.7928 H   0  0  0  0  0  0  0  0  0  0  0  0
   37.7082   24.2081   42.7957 H   0  0  0  0  0  0  0  0  0  0  0  0
   35.9744   24.3508   42.4239 H   0  0  0  0  0  0  0  0  0  0  0  0
   38.3591   24.4010   40.5307 H   0  0  0  0  0  0  0  0  0  0  0  0
   36.8045   23.7137   40.2206 H   0  0  0  0  0  0  0  0  0  0  0  0
   35.7581   26.1385   40.1613 H   0  0  0  0  0  0  0  0  0  0  0  0
   35.1805   27.8049   40.5273 H   0  0  0  0  0  0  0  0  0  0  0  0
   34.5276   30.2535   40.4158 H   0  0  0  0  0  0  0  0  0  0  0  0
   38.5476   31.2353   41.5394 H   0  0  0  0  0  0  0  0  0  0  0  0
   36.2294   24.4373   38.0006 H   0  0  0  0  0  0  0  0  0  0  0  0
   35.1095   25.7506   38.3654 H   0  0  0  0  0  0  0  0  0  0  0  0
   35.5941   25.6773   35.9071 H   0  0  0  0  0  0  0  0  0  0  0  0
   36.2730   27.1839   36.6153 H   0  0  0  0  0  0  0  0  0  0  0  0
   39.5862   25.7224   36.5973 H   0  0  0  0  0  0  0  0  0  0  0  0
   38.6577   27.2438   36.9639 H   0  0  0  0  0  0  0  0  0  0  0  0
   38.5176   24.6051   38.4838 H   0  0  0  0  0  0  0  0  0  0  0  0
   39.2343   26.1231   39.0634 H   0  0  0  0  0  0  0  0  0  0  0  0
  1  2  1  0
  3  2  1  0
  4  3  1  0
  5  4  1  0
  5  1  1  0
  6  1  1  0
  6 11  1  0
  7  6  2  0
  8  7  1  0
  8  9  2  0
  9 10  1  0
 10 11  2  0
 12  5  1  0
 13 12  1  0
 14 13  1  0
 15 14  1  0
 15 16  1  0
 16 17  1  0
 17 12  1  0
  1 18  1  1
  2 19  1  0
  2 20  1  0
  3 21  1  0
  3 22  1  0
  4 23  1  0
  4 24  1  0
  5 25  1  6
  7 26  1  0
  8 27  1  0
 10 28  1  0
 13 29  1  0
 13 30  1  0
 14 31  1  0
 14 32  1  0
 16 33  1  0
 16 34  1  0
 17 35  1  0
 17 36  1  0
M  ISO  8  18  13  19  13  20  13  21  13  22  13  23  13  24  13  25  13
M  ISO  8  26  14  27  14  28  14  29  13  30  13  31  13  32  13  33  13
M  ISO  3  34  13  35  13  36  13
M  END
>  <minimizedAffinity>  (1) 
-3.87243152

>  <minimizedRMSD>  (1) 
0.193401575

$$$$
