
     RDKit          3D

 30 32  0  0  1  0  0  0  0  0999 V2000
   37.5610   26.7790   41.1750 C   0  0  1  0  0  0  0  0  0  0  0  0
   37.0280   26.1830   42.4890 C   0  0  0  0  0  0  0  0  0  0  0  0
   36.8890   24.7200   42.1990 C   0  0  0  0  0  0  0  0  0  0  0  0
   37.3180   24.5280   40.7480 C   0  0  0  0  0  0  0  0  0  0  0  0
   36.9110   25.9040   40.1700 C   0  0  2  0  0  0  0  0  0  0  0  0
   37.2140   28.1910   41.1170 C   0  0  0  0  0  0  0  0  0  0  0  0
   35.9100   28.5250   40.6820 C   0  0  0  0  0  0  0  0  0  0  0  0
   35.5330   29.8770   40.6200 C   0  0  0  0  0  0  0  0  0  0  0  0
   36.4820   30.8050   40.9960 N   0  0  0  0  0  0  0  0  0  0  0  0
   37.7200   30.4330   41.4060 C   0  0  0  0  0  0  0  0  0  0  0  0
   38.0790   29.1330   41.4640 N   0  0  0  0  0  0  0  0  0  0  0  0
   37.5120   25.9920   38.8130 C   0  0  0  0  0  0  0  0  0  0  0  0
   37.0530   26.5490   37.6330 C   0  0  0  0  0  0  0  0  0  0  0  0
   38.0360   26.3340   36.6780 C   0  0  0  0  0  0  0  0  0  0  0  0
   39.0460   25.6740   37.2580 N   0  0  0  0  0  0  0  0  0  0  0  0
   38.7350   25.4720   38.5220 N   0  0  0  0  0  0  0  0  0  0  0  0
   38.6513   26.7868   41.0295 H   0  0  0  0  0  0  0  0  0  0  0  0
   37.7393   26.3520   43.3109 H   0  0  0  0  0  0  0  0  0  0  0  0
   36.0797   26.6418   42.8057 H   0  0  0  0  0  0  0  0  0  0  0  0
   37.5376   24.1358   42.8683 H   0  0  0  0  0  0  0  0  0  0  0  0
   35.8561   24.3773   42.3590 H   0  0  0  0  0  0  0  0  0  0  0  0
   38.4003   24.3515   40.6611 H   0  0  0  0  0  0  0  0  0  0  0  0
   36.8716   23.6596   40.2414 H   0  0  0  0  0  0  0  0  0  0  0  0
   35.8440   26.1357   40.0361 H   0  0  0  0  0  0  0  0  0  0  0  0
   35.1996   27.7355   40.3957 H   0  0  0  0  0  0  0  0  0  0  0  0
   34.5294   30.1810   40.2876 H   0  0  0  0  0  0  0  0  0  0  0  0
   38.4463   31.2062   41.6972 H   0  0  0  0  0  0  0  0  0  0  0  0
   36.0928   27.0637   37.4810 H   0  0  0  0  0  0  0  0  0  0  0  0
   37.9929   26.6512   35.6256 H   0  0  0  0  0  0  0  0  0  0  0  0
   39.9165   25.3755   36.7955 H   0  0  0  0  0  0  0  0  0  0  0  0
  1  2  1  0
  3  2  1  0
  4  3  1  0
  5  4  1  0
  5  1  1  0
  6  1  1  0
  6 11  1  0
  7  6  2  0
  8  7  1  0
  8  9  2  0
  9 10  1  0
 10 11  2  0
 12  5  1  0
 13 12  1  0
 14 15  1  0
 14 13  2  0
 15 16  1  0
 16 12  2  0
  1 17  1  1
  2 18  1  0
  2 19  1  0
  3 20  1  0
  3 21  1  0
  4 22  1  0
  4 23  1  0
  5 24  1  6
  7 25  1  0
  8 26  1  0
 10 27  1  0
 13 28  1  0
 14 29  1  0
 15 30  1  0
M  ISO  8  17  13  18  13  19  13  20  13  21  13  22  13  23  13  24  13
M  ISO  6  25  14  26  14  27  14  28  14  29  14  30   9
M  END
>  <minimizedAffinity>  (1) 
-3.86072969

>  <minimizedRMSD>  (1) 
0.227547884

$$$$
