
     RDKit          3D

 29 31  0  0  1  0  0  0  0  0999 V2000
   37.5770   26.7970   41.1500 C   0  0  1  0  0  0  0  0  0  0  0  0
   37.0660   26.2440   42.4920 C   0  0  0  0  0  0  0  0  0  0  0  0
   36.8630   24.7900   42.2090 C   0  0  0  0  0  0  0  0  0  0  0  0
   37.1050   24.5820   40.7130 C   0  0  0  0  0  0  0  0  0  0  0  0
   36.7690   25.9930   40.1920 C   0  0  2  0  0  0  0  0  0  0  0  0
   37.3560   28.2330   41.1120 C   0  0  0  0  0  0  0  0  0  0  0  0
   36.0180   28.6840   40.9090 C   0  0  0  0  0  0  0  0  0  0  0  0
   35.7580   30.0670   40.8730 C   0  0  0  0  0  0  0  0  0  0  0  0
   36.8370   30.9060   41.0410 N   0  0  0  0  0  0  0  0  0  0  0  0
   38.0930   30.4270   41.2320 C   0  0  0  0  0  0  0  0  0  0  0  0
   38.3440   29.1050   41.2660 N   0  0  0  0  0  0  0  0  0  0  0  0
   37.1310   26.1650   38.8250 N   0  0  0  0  0  0  0  0  0  0  0  0
   38.3180   26.0820   38.2070 C   0  0  0  0  0  0  0  0  0  0  0  0
   38.1700   26.3270   36.8850 N   0  0  0  0  0  0  0  0  0  0  0  0
   36.8790   26.5610   36.6960 C   0  0  0  0  0  0  0  0  0  0  0  0
   36.2260   26.4640   37.8900 N   0  0  0  0  0  0  0  0  0  0  0  0
   38.6523   26.7041   40.9379 H   0  0  0  0  0  0  0  0  0  0  0  0
   37.8110   26.3904   43.2880 H   0  0  0  0  0  0  0  0  0  0  0  0
   36.1530   26.7457   42.8450 H   0  0  0  0  0  0  0  0  0  0  0  0
   37.5757   24.1893   42.7931 H   0  0  0  0  0  0  0  0  0  0  0  0
   35.8460   24.4764   42.4872 H   0  0  0  0  0  0  0  0  0  0  0  0
   38.1488   24.3063   40.5023 H   0  0  0  0  0  0  0  0  0  0  0  0
   36.5227   23.7677   40.2571 H   0  0  0  0  0  0  0  0  0  0  0  0
   35.7024   26.2608   40.1690 H   0  0  0  0  0  0  0  0  0  0  0  0
   35.1996   27.9601   40.7822 H   0  0  0  0  0  0  0  0  0  0  0  0
   34.7418   30.4587   40.7181 H   0  0  0  0  0  0  0  0  0  0  0  0
   38.9244   31.1354   41.3619 H   0  0  0  0  0  0  0  0  0  0  0  0
   39.2721   25.8489   38.7024 H   0  0  0  0  0  0  0  0  0  0  0  0
   36.4088   26.7961   35.7298 H   0  0  0  0  0  0  0  0  0  0  0  0
  1  2  1  0
  3  2  1  0
  4  3  1  0
  5  4  1  0
  5  1  1  0
  6  1  1  0
  6 11  1  0
  7  6  2  0
  8  7  1  0
  8  9  2  0
  9 10  1  0
 10 11  2  0
 12  5  1  0
 13 12  1  0
 14 13  2  0
 15 14  1  0
 15 16  2  0
 16 12  1  0
  1 17  1  6
  2 18  1  0
  2 19  1  0
  3 20  1  0
  3 21  1  0
  4 22  1  0
  4 23  1  0
  5 24  1  6
  7 25  1  0
  8 26  1  0
 10 27  1  0
 13 28  1  0
 15 29  1  0
M  ISO  8  17  13  18  13  19  13  20  13  21  13  22  13  23  13  24  13
M  ISO  5  25  14  26  14  27  14  28  14  29  14
M  END
>  <minimizedAffinity>  (1) 
-3.73481822

>  <minimizedRMSD>  (1) 
0.52055788

$$$$
