
     RDKit          3D

 25 26  0  0  1  0  0  0  0  0999 V2000
   37.5240   26.7840   41.2020 C   0  0  1  0  0  0  0  0  0  0  0  0
   37.0110   26.1960   42.5250 C   0  0  0  0  0  0  0  0  0  0  0  0
   36.8740   24.7350   42.2440 C   0  0  0  0  0  0  0  0  0  0  0  0
   37.1790   24.5310   40.7790 C   0  0  0  0  0  0  0  0  0  0  0  0
   36.8680   25.9180   40.1980 C   0  0  2  0  0  0  0  0  0  0  0  0
   37.1940   28.2000   41.1290 C   0  0  0  0  0  0  0  0  0  0  0  0
   35.9070   28.5480   40.6830 C   0  0  0  0  0  0  0  0  0  0  0  0
   35.5420   29.9060   40.6090 C   0  0  0  0  0  0  0  0  0  0  0  0
   36.4980   30.8170   40.9910 N   0  0  0  0  0  0  0  0  0  0  0  0
   37.7270   30.4340   41.4150 C   0  0  0  0  0  0  0  0  0  0  0  0
   38.0710   29.1300   41.4830 N   0  0  0  0  0  0  0  0  0  0  0  0
   37.6900   25.9890   38.9430 C   0  0  0  0  0  0  0  0  0  0  0  0
   38.8970   25.8550   39.0070 O   0  0  0  0  0  0  0  0  0  0  0  0
   38.6145   26.7792   41.0581 H   0  0  0  0  0  0  0  0  0  0  0  0
   37.7325   26.3718   43.3365 H   0  0  0  0  0  0  0  0  0  0  0  0
   36.0661   26.6538   42.8529 H   0  0  0  0  0  0  0  0  0  0  0  0
   37.5849   24.1646   42.8599 H   0  0  0  0  0  0  0  0  0  0  0  0
   35.8591   24.3849   42.4838 H   0  0  0  0  0  0  0  0  0  0  0  0
   38.2333   24.2587   40.6234 H   0  0  0  0  0  0  0  0  0  0  0  0
   36.6070   23.7145   40.3141 H   0  0  0  0  0  0  0  0  0  0  0  0
   35.8124   26.1573   40.0021 H   0  0  0  0  0  0  0  0  0  0  0  0
   35.1903   27.7652   40.3939 H   0  0  0  0  0  0  0  0  0  0  0  0
   34.5460   30.2208   40.2642 H   0  0  0  0  0  0  0  0  0  0  0  0
   38.4588   31.2006   41.7096 H   0  0  0  0  0  0  0  0  0  0  0  0
   37.2032   26.1612   37.9717 H   0  0  0  0  0  0  0  0  0  0  0  0
  1  2  1  0
  3  2  1  0
  4  3  1  0
  5  4  1  0
  5  1  1  0
  6  1  1  0
  6 11  1  0
  7  6  2  0
  8  7  1  0
  8  9  2  0
  9 10  1  0
 10 11  2  0
 12 13  2  0
 12  5  1  0
  1 14  1  1
  2 15  1  0
  2 16  1  0
  3 17  1  0
  3 18  1  0
  4 19  1  0
  4 20  1  0
  5 21  1  6
  7 22  1  0
  8 23  1  0
 10 24  1  0
 12 25  1  0
M  ISO  8  14  13  15  13  16  13  17  13  18  13  19  13  20  13  21  13
M  ISO  4  22  14  23  14  24  14  25   6
M  END
>  <minimizedAffinity>  (1) 
-3.63674068

>  <minimizedRMSD>  (1) 
0.422825158

$$$$
