
     RDKit          3D

 24 25  0  0  1  0  0  0  0  0999 V2000
   37.5670   26.7860   41.2010 C   0  0  1  0  0  0  0  0  0  0  0  0
   37.0080   26.1820   42.4960 C   0  0  0  0  0  0  0  0  0  0  0  0
   36.9590   24.7050   42.1950 C   0  0  0  0  0  0  0  0  0  0  0  0
   37.2860   24.5310   40.7400 C   0  0  0  0  0  0  0  0  0  0  0  0
   36.9340   25.9150   40.1700 C   0  0  2  0  0  0  0  0  0  0  0  0
   37.2190   28.1980   41.1350 C   0  0  0  0  0  0  0  0  0  0  0  0
   35.9260   28.5300   40.6990 C   0  0  0  0  0  0  0  0  0  0  0  0
   35.5320   29.8770   40.6190 C   0  0  0  0  0  0  0  0  0  0  0  0
   36.4810   30.8080   40.9870 N   0  0  0  0  0  0  0  0  0  0  0  0
   37.7190   30.4420   41.4010 C   0  0  0  0  0  0  0  0  0  0  0  0
   38.0910   29.1370   41.4760 N   0  0  0  0  0  0  0  0  0  0  0  0
   37.8270   26.1930   38.6140 S   0  0  0  0  0  0  0  0  0  0  0  0
   38.6611   26.7945   41.0871 H   0  0  0  0  0  0  0  0  0  0  0  0
   37.6734   26.3891   43.3471 H   0  0  0  0  0  0  0  0  0  0  0  0
   36.0292   26.5972   42.7780 H   0  0  0  0  0  0  0  0  0  0  0  0
   37.6964   24.1710   42.8123 H   0  0  0  0  0  0  0  0  0  0  0  0
   35.9630   24.2960   42.4203 H   0  0  0  0  0  0  0  0  0  0  0  0
   38.3509   24.2969   40.5942 H   0  0  0  0  0  0  0  0  0  0  0  0
   36.7474   23.7013   40.2588 H   0  0  0  0  0  0  0  0  0  0  0  0
   35.8617   26.0673   39.9779 H   0  0  0  0  0  0  0  0  0  0  0  0
   35.2199   27.7342   40.4195 H   0  0  0  0  0  0  0  0  0  0  0  0
   34.5267   30.1711   40.2829 H   0  0  0  0  0  0  0  0  0  0  0  0
   38.4414   31.2219   41.6837 H   0  0  0  0  0  0  0  0  0  0  0  0
   39.1086   26.5920   38.8880 H   0  0  0  0  0  0  0  0  0  0  0  0
  1  2  1  0
  3  2  1  0
  4  3  1  0
  5  4  1  0
  5  1  1  0
  6  1  1  0
  6 11  1  0
  7  6  2  0
  8  7  1  0
  8  9  2  0
  9 10  1  0
 10 11  2  0
 12  5  1  0
  1 13  1  1
  2 14  1  0
  2 15  1  0
  3 16  1  0
  3 17  1  0
  4 18  1  0
  4 19  1  0
  5 20  1  6
  7 21  1  0
  8 22  1  0
 10 23  1  0
 12 24  1  0
M  ISO  8  13  13  14  13  15  13  16  13  17  13  18  13  19  13  20  13
M  ISO  4  21  14  22  14  23  14  24  11
M  END
>  <minimizedAffinity>  (1) 
-3.61775637

>  <minimizedRMSD>  (1) 
0.0896249712

$$$$
