
     RDKit          3D

 33 35  0  0  1  0  0  0  0  0999 V2000
   37.5940   26.7730   41.2050 C   0  0  1  0  0  0  0  0  0  0  0  0
   37.0040   26.1850   42.5160 C   0  0  0  0  0  0  0  0  0  0  0  0
   36.9490   24.7310   42.1950 C   0  0  0  0  0  0  0  0  0  0  0  0
   37.1980   24.5610   40.7060 C   0  0  0  0  0  0  0  0  0  0  0  0
   36.8860   25.9830   40.1750 C   0  0  2  0  0  0  0  0  0  0  0  0
   37.3710   28.2040   41.1900 C   0  0  0  0  0  0  0  0  0  0  0  0
   36.0430   28.6460   40.8850 C   0  0  0  0  0  0  0  0  0  0  0  0
   35.7650   30.0210   40.8630 C   0  0  0  0  0  0  0  0  0  0  0  0
   36.8220   30.8690   41.1460 N   0  0  0  0  0  0  0  0  0  0  0  0
   38.0530   30.4020   41.4260 C   0  0  0  0  0  0  0  0  0  0  0  0
   38.3280   29.0700   41.4490 N   0  0  0  0  0  0  0  0  0  0  0  0
   37.5190   26.0560   38.8880 N   0  0  0  0  0  0  0  0  0  0  0  0
   37.1330   26.8320   37.7890 C   0  0  0  0  0  0  0  0  0  0  0  0
   35.8360   27.1960   37.4970 C   0  0  0  0  0  0  0  0  0  0  0  0
   35.4770   27.9570   36.4040 C   0  0  0  0  0  0  0  0  0  0  0  0
   36.4270   28.3850   35.5560 N   0  0  0  0  0  0  0  0  0  0  0  0
   37.6990   28.0350   35.8320 C   0  0  0  0  0  0  0  0  0  0  0  0
   38.0230   27.2980   36.8950 N   0  0  0  0  0  0  0  0  0  0  0  0
   38.6811   26.6923   41.0578 H   0  0  0  0  0  0  0  0  0  0  0  0
   37.6617   26.3816   43.3755 H   0  0  0  0  0  0  0  0  0  0  0  0
   36.0337   26.6167   42.8028 H   0  0  0  0  0  0  0  0  0  0  0  0
   37.7221   24.1949   42.7649 H   0  0  0  0  0  0  0  0  0  0  0  0
   35.9644   24.3207   42.4637 H   0  0  0  0  0  0  0  0  0  0  0  0
   38.2410   24.2764   40.5031 H   0  0  0  0  0  0  0  0  0  0  0  0
   36.5972   23.7666   40.2391 H   0  0  0  0  0  0  0  0  0  0  0  0
   35.8392   26.2935   40.0414 H   0  0  0  0  0  0  0  0  0  0  0  0
   35.2495   27.9150   40.6703 H   0  0  0  0  0  0  0  0  0  0  0  0
   34.7602   30.4050   40.6330 H   0  0  0  0  0  0  0  0  0  0  0  0
   38.8596   31.1179   41.6424 H   0  0  0  0  0  0  0  0  0  0  0  0
   38.3550   25.4685   38.7585 H   0  0  0  0  0  0  0  0  0  0  0  0
   35.0392   26.8593   38.1766 H   0  0  0  0  0  0  0  0  0  0  0  0
   34.4214   28.2114   36.2281 H   0  0  0  0  0  0  0  0  0  0  0  0
   38.4992   28.3696   35.1555 H   0  0  0  0  0  0  0  0  0  0  0  0
  1  2  1  0
  3  2  1  0
  4  3  1  0
  5  4  1  0
  5  1  1  0
  6  1  1  0
  6 11  1  0
  7  6  2  0
  8  7  1  0
  8  9  2  0
  9 10  1  0
 10 11  2  0
 12  5  1  0
 13 12  1  0
 14 13  2  0
 15 14  1  0
 16 17  1  0
 16 15  2  0
 17 18  2  0
 18 13  1  0
  1 19  1  1
  2 20  1  0
  2 21  1  0
  3 22  1  0
  3 23  1  0
  4 24  1  0
  4 25  1  0
  5 26  1  6
  7 27  1  0
  8 28  1  0
 10 29  1  0
 12 30  1  0
 14 31  1  0
 15 32  1  0
 17 33  1  0
M  ISO  8  19  13  20  13  21  13  22  13  23  13  24  13  25  13  26  13
M  ISO  6  27  14  28  14  29  14  31  14  32  14  33  14
M  END
>  <minimizedAffinity>  (1) 
-4.03933287

>  <minimizedRMSD>  (1) 
1.81940472

$$$$
