
     RDKit          3D

 30 32  0  0  1  0  0  0  0  0999 V2000
   37.5460   26.8750   41.1040 C   0  0  1  0  0  0  0  0  0  0  0  0
   37.1250   26.3390   42.4970 C   0  0  0  0  0  0  0  0  0  0  0  0
   36.9540   24.8740   42.2240 C   0  0  0  0  0  0  0  0  0  0  0  0
   36.9650   24.6750   40.7250 C   0  0  0  0  0  0  0  0  0  0  0  0
   36.6810   26.0970   40.2070 C   0  0  2  0  0  0  0  0  0  0  0  0
   37.3600   28.3260   41.0870 C   0  0  0  0  0  0  0  0  0  0  0  0
   36.0300   28.8030   40.8590 C   0  0  0  0  0  0  0  0  0  0  0  0
   35.8210   30.1950   40.8430 C   0  0  0  0  0  0  0  0  0  0  0  0
   36.9290   31.0000   41.0540 N   0  0  0  0  0  0  0  0  0  0  0  0
   38.1550   30.4820   41.2630 C   0  0  0  0  0  0  0  0  0  0  0  0
   38.3830   29.1390   41.2820 N   0  0  0  0  0  0  0  0  0  0  0  0
   37.0850   26.1270   38.8300 N   0  0  0  0  0  0  0  0  0  0  0  0
   36.2340   26.7240   37.8590 C   0  0  0  0  0  0  0  0  0  0  0  0
   34.9770   26.3630   37.5440 N   0  0  0  0  0  0  0  0  0  0  0  0
   34.5180   27.1500   36.6010 O   0  0  0  0  0  0  0  0  0  0  0  0
   35.4310   28.0290   36.2720 C   0  0  0  0  0  0  0  0  0  0  0  0
   36.5160   27.7730   37.0560 N   0  0  0  0  0  0  0  0  0  0  0  0
   38.5986   26.7507   40.8098 H   0  0  0  0  0  0  0  0  0  0  0  0
   37.9084   26.5175   43.2482 H   0  0  0  0  0  0  0  0  0  0  0  0
   36.2266   26.8232   42.9074 H   0  0  0  0  0  0  0  0  0  0  0  0
   37.7799   24.3098   42.6818 H   0  0  0  0  0  0  0  0  0  0  0  0
   36.0067   24.5132   42.6510 H   0  0  0  0  0  0  0  0  0  0  0  0
   37.9436   24.3119   40.3779 H   0  0  0  0  0  0  0  0  0  0  0  0
   36.2421   23.9241   40.3736 H   0  0  0  0  0  0  0  0  0  0  0  0
   35.6440   26.4637   40.2191 H   0  0  0  0  0  0  0  0  0  0  0  0
   35.1963   28.1030   40.7010 H   0  0  0  0  0  0  0  0  0  0  0  0
   34.8230   30.6244   40.6708 H   0  0  0  0  0  0  0  0  0  0  0  0
   39.0007   31.1668   41.4238 H   0  0  0  0  0  0  0  0  0  0  0  0
   37.9868   25.7182   38.5463 H   0  0  0  0  0  0  0  0  0  0  0  0
   35.3401   28.8190   35.5120 H   0  0  0  0  0  0  0  0  0  0  0  0
  1  2  1  0
  3  2  1  0
  4  3  1  0
  5  4  1  0
  5  1  1  0
  6  1  1  0
  6 11  1  0
  7  6  2  0
  8  7  1  0
  8  9  2  0
  9 10  1  0
 10 11  2  0
 12  5  1  0
 13 12  1  0
 14 13  2  0
 15 14  1  0
 16 15  1  0
 16 17  2  0
 17 13  1  0
  1 18  1  6
  2 19  1  0
  2 20  1  0
  3 21  1  0
  3 22  1  0
  4 23  1  0
  4 24  1  0
  5 25  1  6
  7 26  1  0
  8 27  1  0
 10 28  1  0
 12 29  1  0
 16 30  1  0
M  ISO  8  18  13  19  13  20  13  21  13  22  13  23  13  24  13  25  13
M  ISO  4  26  14  27  14  28  14  30  14
M  END
>  <minimizedAffinity>  (1) 
-4.02101707

>  <minimizedRMSD>  (1) 
1.73078668

$$$$
