
     RDKit          3D

 27 28  0  0  1  0  0  0  0  0999 V2000
   37.4890   26.7850   41.1370 C   0  0  1  0  0  0  0  0  0  0  0  0
   37.0510   26.1970   42.4960 C   0  0  0  0  0  0  0  0  0  0  0  0
   36.9440   24.7340   42.2140 C   0  0  0  0  0  0  0  0  0  0  0  0
   37.1470   24.5320   40.7370 C   0  0  0  0  0  0  0  0  0  0  0  0
   36.7760   25.9250   40.1770 C   0  0  2  0  0  0  0  0  0  0  0  0
   37.1970   28.2040   41.1010 C   0  0  0  0  0  0  0  0  0  0  0  0
   35.8830   28.5640   40.6670 C   0  0  0  0  0  0  0  0  0  0  0  0
   35.5420   29.9270   40.6200 C   0  0  0  0  0  0  0  0  0  0  0  0
   36.5140   30.8270   41.0010 N   0  0  0  0  0  0  0  0  0  0  0  0
   37.7490   30.4190   41.4060 C   0  0  0  0  0  0  0  0  0  0  0  0
   38.0890   29.1050   41.4540 N   0  0  0  0  0  0  0  0  0  0  0  0
   37.3210   25.9910   38.8480 N   0  0  0  0  0  0  0  0  0  0  0  0
   36.5450   26.1330   37.6720 C   0  0  0  0  0  0  0  0  0  0  0  0
   35.3610   26.4920   37.8420 O   0  0  0  0  0  0  0  0  0  0  0  0
   38.5654   26.7689   40.9110 H   0  0  0  0  0  0  0  0  0  0  0  0
   37.8039   26.3953   43.2730 H   0  0  0  0  0  0  0  0  0  0  0  0
   36.1150   26.6338   42.8744 H   0  0  0  0  0  0  0  0  0  0  0  0
   37.7161   24.1876   42.7756 H   0  0  0  0  0  0  0  0  0  0  0  0
   35.9577   24.3557   42.5206 H   0  0  0  0  0  0  0  0  0  0  0  0
   38.1910   24.2724   40.5074 H   0  0  0  0  0  0  0  0  0  0  0  0
   36.5546   23.7077   40.3131 H   0  0  0  0  0  0  0  0  0  0  0  0
   35.7111   26.1866   40.0905 H   0  0  0  0  0  0  0  0  0  0  0  0
   35.1554   27.7919   40.3765 H   0  0  0  0  0  0  0  0  0  0  0  0
   34.5455   30.2599   40.2942 H   0  0  0  0  0  0  0  0  0  0  0  0
   38.4914   31.1747   41.7023 H   0  0  0  0  0  0  0  0  0  0  0  0
   38.3440   25.9310   38.7445 H   0  0  0  0  0  0  0  0  0  0  0  0
   36.9591   25.9392   36.6715 H   0  0  0  0  0  0  0  0  0  0  0  0
  1  2  1  0
  3  2  1  0
  4  3  1  0
  5  4  1  0
  5  1  1  0
  6  1  1  0
  6 11  1  0
  7  6  2  0
  8  7  1  0
  8  9  2  0
  9 10  1  0
 10 11  2  0
 12  5  1  0
 13 14  2  0
 13 12  1  0
  1 15  1  6
  2 16  1  0
  2 17  1  0
  3 18  1  0
  3 19  1  0
  4 20  1  0
  4 21  1  0
  5 22  1  6
  7 23  1  0
  8 24  1  0
 10 25  1  0
 12 26  1  0
 13 27  1  0
M  ISO  8  15  13  16  13  17  13  18  13  19  13  20  13  21  13  22  13
M  ISO  4  23  14  24  14  25  14  27   6
M  END
>  <minimizedAffinity>  (1) 
-3.71588755

>  <minimizedRMSD>  (1) 
0.23504281

$$$$
