
     RDKit          3D

 34 35  0  0  1  0  0  0  0  0999 V2000
   37.5600   26.7850   41.2130 C   0  0  1  0  0  0  0  0  0  0  0  0
   36.9500   26.1860   42.5090 C   0  0  0  0  0  0  0  0  0  0  0  0
   36.9820   24.7160   42.2320 C   0  0  0  0  0  0  0  0  0  0  0  0
   37.3260   24.5280   40.7750 C   0  0  0  0  0  0  0  0  0  0  0  0
   36.9770   25.9090   40.1790 C   0  0  2  0  0  0  0  0  0  0  0  0
   37.2400   28.1990   41.1510 C   0  0  0  0  0  0  0  0  0  0  0  0
   35.9370   28.5330   40.7290 C   0  0  0  0  0  0  0  0  0  0  0  0
   35.5460   29.8750   40.6390 C   0  0  0  0  0  0  0  0  0  0  0  0
   36.5010   30.8040   40.9840 N   0  0  0  0  0  0  0  0  0  0  0  0
   37.7480   30.4340   41.3860 C   0  0  0  0  0  0  0  0  0  0  0  0
   38.1200   29.1250   41.4690 N   0  0  0  0  0  0  0  0  0  0  0  0
   37.6030   26.0060   38.9270 N   0  0  0  0  0  0  0  0  0  0  0  0
   36.8710   26.3300   37.7870 C   0  0  0  0  0  0  0  0  0  0  0  0
   37.3200   27.7250   37.3440 C   0  0  0  0  0  0  0  0  0  0  0  0
   35.4100   26.2670   37.7520 C   0  0  0  0  0  0  0  0  0  0  0  0
   38.6555   26.7906   41.1140 H   0  0  0  0  0  0  0  0  0  0  0  0
   37.5600   26.4382   43.3890 H   0  0  0  0  0  0  0  0  0  0  0  0
   35.9439   26.5676   42.7374 H   0  0  0  0  0  0  0  0  0  0  0  0
   37.7439   24.2332   42.8616 H   0  0  0  0  0  0  0  0  0  0  0  0
   36.0062   24.2614   42.4579 H   0  0  0  0  0  0  0  0  0  0  0  0
   38.3929   24.2946   40.6436 H   0  0  0  0  0  0  0  0  0  0  0  0
   36.7919   23.6927   40.2985 H   0  0  0  0  0  0  0  0  0  0  0  0
   35.9187   26.1385   39.9860 H   0  0  0  0  0  0  0  0  0  0  0  0
   35.2243   27.7363   40.4693 H   0  0  0  0  0  0  0  0  0  0  0  0
   34.5374   30.1684   40.3126 H   0  0  0  0  0  0  0  0  0  0  0  0
   38.4767   31.2140   41.6516 H   0  0  0  0  0  0  0  0  0  0  0  0
   38.3356   26.7241   39.0197 H   0  0  0  0  0  0  0  0  0  0  0  0
   37.1091   25.4893   37.1188 H   0  0  0  0  0  0  0  0  0  0  0  0
   37.5195   28.3448   38.2306 H   0  0  0  0  0  0  0  0  0  0  0  0
   38.2365   27.6411   36.7415 H   0  0  0  0  0  0  0  0  0  0  0  0
   36.5266   28.1915   36.7415 H   0  0  0  0  0  0  0  0  0  0  0  0
   35.0190   26.2501   38.7800 H   0  0  0  0  0  0  0  0  0  0  0  0
   35.0175   27.1491   37.2248 H   0  0  0  0  0  0  0  0  0  0  0  0
   35.0949   25.3544   37.2248 H   0  0  0  0  0  0  0  0  0  0  0  0
  1  2  1  0
  3  2  1  0
  4  3  1  0
  5  4  1  0
  5  1  1  0
  6  1  1  0
  6 11  1  0
  7  6  2  0
  8  7  1  0
  8  9  2  0
  9 10  1  0
 10 11  2  0
 12  5  1  0
 13 12  1  0
 14 13  1  0
 15 13  1  0
  1 16  1  1
  2 17  1  0
  2 18  1  0
  3 19  1  0
  3 20  1  0
  4 21  1  0
  4 22  1  0
  5 23  1  6
  7 24  1  0
  8 25  1  0
 10 26  1  0
 12 27  1  0
 13 28  1  0
 14 29  1  0
 14 30  1  0
 14 31  1  0
 15 32  1  0
 15 33  1  0
 15 34  1  0
M  ISO  8  16  13  17  13  18  13  19  13  20  13  21  13  22  13  23  13
M  ISO  8  24  14  25  14  26  14  27   5  28   8  29   8  30   8  31   8
M  ISO  3  32   8  33   8  34   8
M  END
>  <minimizedAffinity>  (1) 
-3.64830136

>  <minimizedRMSD>  (1) 
0.846526325

$$$$
