
     RDKit          3D

 44 47  0  0  1  0  0  0  0  0999 V2000
   37.6660   26.8760   41.3150 C   0  0  1  0  0  0  0  0  0  0  0  0
   36.8860   26.0940   42.4240 C   0  0  0  0  0  0  0  0  0  0  0  0
   37.3120   24.6770   42.1430 C   0  0  0  0  0  0  0  0  0  0  0  0
   38.0720   24.6570   40.8430 C   0  0  0  0  0  0  0  0  0  0  0  0
   37.5770   25.9800   40.1710 C   0  0  2  0  0  0  0  0  0  0  0  0
   37.1150   28.1990   41.1810 C   0  0  0  0  0  0  0  0  0  0  0  0
   36.0000   28.3070   40.2820 C   0  0  0  0  0  0  0  0  0  0  0  0
   35.3990   29.5620   40.0950 C   0  0  0  0  0  0  0  0  0  0  0  0
   35.9430   30.6210   40.8130 N   0  0  0  0  0  0  0  0  0  0  0  0
   36.9940   30.4570   41.6460 C   0  0  0  0  0  0  0  0  0  0  0  0
   37.5900   29.2370   41.8370 N   0  0  0  0  0  0  0  0  0  0  0  0
   38.4930   26.2230   39.1250 N   0  0  0  0  0  0  0  0  0  0  0  0
   37.9070   25.8900   37.5600 S   0  0  0  0  0  0  0  0  0  0  0  0
   36.4160   25.9900   37.4990 O   0  0  0  0  0  0  0  0  0  0  0  0
   38.3100   24.5280   37.0840 O   0  0  0  0  0  0  0  0  0  0  0  0
   38.5690   27.1030   36.4500 C   0  0  0  0  0  0  0  0  0  0  0  0
   38.0130   28.4150   36.6690 N   0  0  0  0  0  0  0  0  0  0  0  0
   36.9520   29.0330   36.1150 C   0  0  0  0  0  0  0  0  0  0  0  0
   36.8180   30.2690   36.6400 N   0  0  0  0  0  0  0  0  0  0  0  0
   37.8200   30.4080   37.5390 C   0  0  0  0  0  0  0  0  0  0  0  0
   38.1900   31.4470   38.3800 C   0  0  0  0  0  0  0  0  0  0  0  0
   39.2610   31.3250   39.2000 N   0  0  0  0  0  0  0  0  0  0  0  0
   39.9990   30.1790   39.2180 C   0  0  0  0  0  0  0  0  0  0  0  0
   39.6270   29.1900   38.4000 N   0  0  0  0  0  0  0  0  0  0  0  0
   38.5720   29.2630   37.5670 C   0  0  0  0  0  0  0  0  0  0  0  0
   37.4710   32.6620   38.4130 N   0  0  0  0  0  0  0  0  0  0  0  0
   38.7265   27.0965   41.5067 H   0  0  0  0  0  0  0  0  0  0  0  0
   37.1906   26.4135   43.4315 H   0  0  0  0  0  0  0  0  0  0  0  0
   35.7972   26.2491   42.4026 H   0  0  0  0  0  0  0  0  0  0  0  0
   37.9581   24.3153   42.9564 H   0  0  0  0  0  0  0  0  0  0  0  0
   36.4295   24.0240   42.0744 H   0  0  0  0  0  0  0  0  0  0  0  0
   39.1587   24.6748   41.0127 H   0  0  0  0  0  0  0  0  0  0  0  0
   37.9001   23.7551   40.2372 H   0  0  0  0  0  0  0  0  0  0  0  0
   36.5798   26.0365   39.7102 H   0  0  0  0  0  0  0  0  0  0  0  0
   35.6234   27.4215   39.7491 H   0  0  0  0  0  0  0  0  0  0  0  0
   34.5439   29.6999   39.4170 H   0  0  0  0  0  0  0  0  0  0  0  0
   37.3843   31.3306   42.1886 H   0  0  0  0  0  0  0  0  0  0  0  0
   38.7617   27.2167   39.1605 H   0  0  0  0  0  0  0  0  0  0  0  0
   38.3479   26.7942   35.4177 H   0  0  0  0  0  0  0  0  0  0  0  0
   39.6522   27.1651   36.6309 H   0  0  0  0  0  0  0  0  0  0  0  0
   36.2938   28.5959   35.3497 H   0  0  0  0  0  0  0  0  0  0  0  0
   40.8694   30.0722   39.8820 H   0  0  0  0  0  0  0  0  0  0  0  0
   37.7665   33.4182   39.0468 H   0  0  0  0  0  0  0  0  0  0  0  0
   36.6511   32.7919   37.8033 H   0  0  0  0  0  0  0  0  0  0  0  0
  1  2  1  0
  3  2  1  0
  4  3  1  0
  5  4  1  0
  5  1  1  0
  6  1  1  0
  6 11  1  0
  7  6  2  0
  8  7  1  0
  8  9  2  0
  9 10  1  0
 10 11  2  0
 12  5  1  0
 13 12  1  0
 14 13  2  0
 15 13  2  0
 16 17  1  0
 16 13  1  0
 17 25  1  0
 18 19  2  0
 18 17  1  0
 19 20  1  0
 20 25  2  0
 20 21  1  0
 21 26  1  0
 21 22  2  0
 22 23  1  0
 24 23  2  0
 25 24  1  0
  1 27  1  1
  2 28  1  0
  2 29  1  0
  3 30  1  0
  3 31  1  0
  4 32  1  0
  4 33  1  0
  5 34  1  6
  7 35  1  0
  8 36  1  0
 10 37  1  0
 12 38  1  0
 16 39  1  0
 16 40  1  0
 18 41  1  0
 23 42  1  0
 26 43  1  0
 26 44  1  0
M  ISO  8  27  13  28  13  29  13  30  13  31  13  32  13  33  13  34  13
M  ISO  8  35  14  36  14  37  14  38   5  39   8  40   8  41  14  42  14
M  END
>  <minimizedAffinity>  (1) 
-4.92146301

>  <minimizedRMSD>  (1) 
1.73880541

$$$$
