
     RDKit          3D

 38 39  0  0  1  0  0  0  0  0999 V2000
   37.7990   27.4470   40.8960 C   0  0  1  0  0  0  0  0  0  0  0  0
   37.1170   26.9110   42.1990 C   0  0  0  0  0  0  0  0  0  0  0  0
   36.9660   25.4400   41.8690 C   0  0  0  0  0  0  0  0  0  0  0  0
   37.3180   25.2440   40.4220 C   0  0  0  0  0  0  0  0  0  0  0  0
   37.1210   26.6870   39.8530 C   0  0  2  0  0  0  0  0  0  0  0  0
   37.6930   28.8830   40.8570 C   0  0  0  0  0  0  0  0  0  0  0  0
   36.3820   29.4130   41.0960 C   0  0  0  0  0  0  0  0  0  0  0  0
   36.2110   30.8070   41.0760 C   0  0  0  0  0  0  0  0  0  0  0  0
   37.3370   31.5720   40.8230 N   0  0  0  0  0  0  0  0  0  0  0  0
   38.5480   31.0150   40.6050 C   0  0  0  0  0  0  0  0  0  0  0  0
   38.7360   29.6580   40.6200 N   0  0  0  0  0  0  0  0  0  0  0  0
   37.7670   26.6770   38.5900 N   0  0  0  0  0  0  0  0  0  0  0  0
   36.8350   27.3420   37.3220 S   0  0  0  0  0  0  0  0  0  0  0  0
   36.0610   28.5330   37.7720 O   0  0  0  0  0  0  0  0  0  0  0  0
   35.8980   26.3500   36.7150 O   0  0  0  0  0  0  0  0  0  0  0  0
   37.9660   27.8990   36.0640 C   0  0  0  0  0  0  0  0  0  0  0  0
   37.4100   29.1090   35.4940 N   0  0  0  0  0  0  0  0  0  0  0  0
   36.7190   29.0650   34.2530 C   0  0  0  0  0  0  0  0  0  0  0  0
   36.0270   28.0140   33.9460 N   0  0  0  0  0  0  0  0  0  0  0  0
   36.7330   30.1390   33.2890 N   0  0  0  0  0  0  0  0  0  0  0  0
   35.9080   27.1710   34.5090 H   0  0  0  0  0  0  0  0  0  0  0  0
   38.8843   27.2987   40.7959 H   0  0  0  0  0  0  0  0  0  0  0  0
   37.7572   27.0626   43.0806 H   0  0  0  0  0  0  0  0  0  0  0  0
   36.1734   27.4153   42.4547 H   0  0  0  0  0  0  0  0  0  0  0  0
   37.6427   24.8455   42.5005 H   0  0  0  0  0  0  0  0  0  0  0  0
   35.9324   25.1133   42.0558 H   0  0  0  0  0  0  0  0  0  0  0  0
   38.3576   24.9044   40.3041 H   0  0  0  0  0  0  0  0  0  0  0  0
   36.7152   24.4764   39.9145 H   0  0  0  0  0  0  0  0  0  0  0  0
   36.1106   27.0815   39.6704 H   0  0  0  0  0  0  0  0  0  0  0  0
   35.5308   28.7439   41.2903 H   0  0  0  0  0  0  0  0  0  0  0  0
   35.2287   31.2692   41.2530 H   0  0  0  0  0  0  0  0  0  0  0  0
   39.4093   31.6707   40.4095 H   0  0  0  0  0  0  0  0  0  0  0  0
   38.6390   27.2194   38.6688 H   0  0  0  0  0  0  0  0  0  0  0  0
   38.9501   28.1092   36.5082 H   0  0  0  0  0  0  0  0  0  0  0  0
   38.1001   27.1286   35.2904 H   0  0  0  0  0  0  0  0  0  0  0  0
   37.5159   30.0053   35.9904 H   0  0  0  0  0  0  0  0  0  0  0  0
   36.2106   30.0455   32.4063 H   0  0  0  0  0  0  0  0  0  0  0  0
   37.2654   30.9989   33.4838 H   0  0  0  0  0  0  0  0  0  0  0  0
  1  2  1  0
  3  2  1  0
  4  3  1  0
  5  4  1  0
  5  1  1  0
  6  1  1  0
  6  7  2  0
  8  7  1  0
  9  8  2  0
 10 11  2  0
 10  9  1  0
 11  6  1  0
 12  5  1  0
 13 14  2  0
 13 12  1  0
 15 13  2  0
 16 13  1  0
 17 16  1  0
 18 17  1  0
 19 18  2  0
 19 21  1  0
 20 18  1  0
  1 22  1  1
  2 23  1  0
  2 24  1  0
  3 25  1  0
  3 26  1  0
  4 27  1  0
  4 28  1  0
  5 29  1  6
  7 30  1  0
  8 31  1  0
 10 32  1  0
 12 33  1  0
 16 34  1  0
 16 35  1  0
 17 36  1  0
 20 37  1  0
 20 38  1  0
M  ISO  8  22  13  23  13  24  13  25  13  26  13  27  13  28  13  29  13
M  ISO  6  30  14  31  14  32  14  33   5  34   8  35   8
M  END
>  <minimizedAffinity>  (1) 
-4.34744978

>  <minimizedRMSD>  (1) 
2.15827584

$$$$
