
     RDKit          3D

 45 47  0  0  1  0  0  0  0  0999 V2000
   37.7040   27.4970   41.0400 C   0  0  1  0  0  0  0  0  0  0  0  0
   37.4090   27.0750   42.5160 C   0  0  0  0  0  0  0  0  0  0  0  0
   37.0940   25.6120   42.3490 C   0  0  0  0  0  0  0  0  0  0  0  0
   37.0130   25.3070   40.8750 C   0  0  0  0  0  0  0  0  0  0  0  0
   36.7260   26.7310   40.2830 C   0  0  2  0  0  0  0  0  0  0  0  0
   37.6680   28.9280   40.9330 C   0  0  0  0  0  0  0  0  0  0  0  0
   36.3840   29.5270   41.1610 C   0  0  0  0  0  0  0  0  0  0  0  0
   36.2600   30.9240   41.0800 C   0  0  0  0  0  0  0  0  0  0  0  0
   37.4220   31.6320   40.7780 N   0  0  0  0  0  0  0  0  0  0  0  0
   38.6010   31.0130   40.5740 C   0  0  0  0  0  0  0  0  0  0  0  0
   38.7300   29.6540   40.6510 N   0  0  0  0  0  0  0  0  0  0  0  0
   36.9840   26.6010   38.8980 N   0  0  0  0  0  0  0  0  0  0  0  0
   35.7020   27.1000   37.8860 S   0  0  0  0  0  0  0  0  0  0  0  0
   34.7790   28.0340   38.5920 O   0  0  0  0  0  0  0  0  0  0  0  0
   34.9150   25.9400   37.3620 O   0  0  0  0  0  0  0  0  0  0  0  0
   36.4130   27.9950   36.5220 C   0  0  0  0  0  0  0  0  0  0  0  0
   35.5790   29.0170   35.9900 N   0  0  0  0  0  0  0  0  0  0  0  0
   34.4740   28.5480   35.1860 C   0  0  0  0  0  0  0  0  0  0  0  0
   34.8980   27.7200   34.0160 C   0  0  0  0  0  0  0  0  0  0  0  0
   36.2160   28.0690   33.5580 N   0  0  0  0  0  0  0  0  0  0  0  0
   36.4560   29.4780   33.7260 C   0  0  0  0  0  0  0  0  0  0  0  0
   36.3860   29.8890   35.1620 C   0  0  0  0  0  0  0  0  0  0  0  0
   38.7054   27.2705   40.6452 H   0  0  0  0  0  0  0  0  0  0  0  0
   38.2871   27.2265   43.1610 H   0  0  0  0  0  0  0  0  0  0  0  0
   36.6086   27.6553   42.9984 H   0  0  0  0  0  0  0  0  0  0  0  0
   37.8878   25.0062   42.8105 H   0  0  0  0  0  0  0  0  0  0  0  0
   36.1374   25.3737   42.8370 H   0  0  0  0  0  0  0  0  0  0  0  0
   37.9605   24.8966   40.4959 H   0  0  0  0  0  0  0  0  0  0  0  0
   36.2602   24.5492   40.6120 H   0  0  0  0  0  0  0  0  0  0  0  0
   35.7277   27.1862   40.3611 H   0  0  0  0  0  0  0  0  0  0  0  0
   35.5100   28.9017   41.3957 H   0  0  0  0  0  0  0  0  0  0  0  0
   35.2983   31.4315   41.2459 H   0  0  0  0  0  0  0  0  0  0  0  0
   39.4876   31.6199   40.3381 H   0  0  0  0  0  0  0  0  0  0  0  0
   37.8125   27.1693   38.6708 H   0  0  0  0  0  0  0  0  0  0  0  0
   37.3490   28.4593   36.8660 H   0  0  0  0  0  0  0  0  0  0  0  0
   36.5676   27.2645   35.7143 H   0  0  0  0  0  0  0  0  0  0  0  0
   33.8139   27.9400   35.8220 H   0  0  0  0  0  0  0  0  0  0  0  0
   33.9644   29.4369   34.7859 H   0  0  0  0  0  0  0  0  0  0  0  0
   34.8935   26.6602   34.3107 H   0  0  0  0  0  0  0  0  0  0  0  0
   34.1919   27.9074   33.1936 H   0  0  0  0  0  0  0  0  0  0  0  0
   36.3022   27.8279   32.5603 H   0  0  0  0  0  0  0  0  0  0  0  0
   37.4564   29.7172   33.3362 H   0  0  0  0  0  0  0  0  0  0  0  0
   35.6750   30.0244   33.1769 H   0  0  0  0  0  0  0  0  0  0  0  0
   37.4084   29.9011   35.5677 H   0  0  0  0  0  0  0  0  0  0  0  0
   35.9070   30.8790   35.1846 H   0  0  0  0  0  0  0  0  0  0  0  0
  1  2  1  0
  3  2  1  0
  4  3  1  0
  5  4  1  0
  5  1  1  0
  6  1  1  0
  6  7  2  0
  8  7  1  0
  9  8  2  0
 10 11  2  0
 10  9  1  0
 11  6  1  0
 12  5  1  0
 13 14  2  0
 13 12  1  0
 15 13  2  0
 16 13  1  0
 17 16  1  0
 18 17  1  0
 19 18  1  0
 20 21  1  0
 20 19  1  0
 21 22  1  0
 22 17  1  0
  1 23  1  6
  2 24  1  0
  2 25  1  0
  3 26  1  0
  3 27  1  0
  4 28  1  0
  4 29  1  0
  5 30  1  6
  7 31  1  0
  8 32  1  0
 10 33  1  0
 12 34  1  0
 16 35  1  0
 16 36  1  0
 18 37  1  0
 18 38  1  0
 19 39  1  0
 19 40  1  0
 20 41  1  0
 21 42  1  0
 21 43  1  0
 22 44  1  0
 22 45  1  0
M  ISO  8  23  13  24  13  25  13  26  13  27  13  28  13  29  13  30  13
M  ISO  8  31  14  32  14  33  14  34   5  35   8  36   8  37  13  38  13
M  ISO  7  39  13  40  13  41   5  42  13  43  13  44  13  45  13
M  END
>  <minimizedAffinity>  (1) 
-4.31529856

>  <minimizedRMSD>  (1) 
2.25568295

$$$$
