
     RDKit          3D

 37 39  0  0  1  0  0  0  0  0999 V2000
   38.0550   28.6900   41.7280 C   0  0  1  0  0  0  0  0  0  0  0  0
   37.5970   29.1580   43.1440 C   0  0  0  0  0  0  0  0  0  0  0  0
   37.2900   27.8530   43.8250 C   0  0  0  0  0  0  0  0  0  0  0  0
   37.4180   26.7490   42.8030 C   0  0  0  0  0  0  0  0  0  0  0  0
   37.1930   27.5420   41.4760 C   0  0  2  0  0  0  0  0  0  0  0  0
   38.0000   29.8000   40.8100 C   0  0  0  0  0  0  0  0  0  0  0  0
   37.0470   30.8150   41.1290 C   0  0  0  0  0  0  0  0  0  0  0  0
   36.9340   31.9290   40.2840 C   0  0  0  0  0  0  0  0  0  0  0  0
   37.7780   31.9570   39.1760 N   0  0  0  0  0  0  0  0  0  0  0  0
   38.6540   30.9680   38.9340 C   0  0  0  0  0  0  0  0  0  0  0  0
   38.7800   29.8670   39.7520 N   0  0  0  0  0  0  0  0  0  0  0  0
   37.6020   26.6840   40.4390 N   0  0  0  0  0  0  0  0  0  0  0  0
   36.6760   26.7680   39.0140 S   0  0  0  0  0  0  0  0  0  0  0  0
   37.5310   27.1140   37.8310 O   0  0  0  0  0  0  0  0  0  0  0  0
   35.5650   27.7640   39.1000 O   0  0  0  0  0  0  0  0  0  0  0  0
   35.9940   25.1650   38.6930 C   0  0  0  0  0  0  0  0  0  0  0  0
   36.8100   24.0890   39.2140 N   0  0  0  0  0  0  0  0  0  0  0  0
   37.6810   23.3430   38.4760 C   0  0  0  0  0  0  0  0  0  0  0  0
   38.2320   22.4670   39.3050 N   0  0  0  0  0  0  0  0  0  0  0  0
   37.7430   22.6360   40.5240 C   0  0  0  0  0  0  0  0  0  0  0  0
   36.8440   23.6610   40.4640 N   0  0  0  0  0  0  0  0  0  0  0  0
   39.1015   28.3698   41.6170 H   0  0  0  0  0  0  0  0  0  0  0  0
   38.4004   29.7002   43.6642 H   0  0  0  0  0  0  0  0  0  0  0  0
   36.7479   29.8571   43.1252 H   0  0  0  0  0  0  0  0  0  0  0  0
   38.0017   27.6848   44.6467 H   0  0  0  0  0  0  0  0  0  0  0  0
   36.2720   27.8707   44.2413 H   0  0  0  0  0  0  0  0  0  0  0  0
   38.4151   26.2854   42.8322 H   0  0  0  0  0  0  0  0  0  0  0  0
   36.7225   25.9101   42.9529 H   0  0  0  0  0  0  0  0  0  0  0  0
   36.1806   27.8675   41.1947 H   0  0  0  0  0  0  0  0  0  0  0  0
   36.4121   30.7246   42.0227 H   0  0  0  0  0  0  0  0  0  0  0  0
   36.2166   32.7381   40.4857 H   0  0  0  0  0  0  0  0  0  0  0  0
   39.2979   31.0404   38.0451 H   0  0  0  0  0  0  0  0  0  0  0  0
   38.5761   26.9173   40.1991 H   0  0  0  0  0  0  0  0  0  0  0  0
   34.9991   25.1076   39.1587 H   0  0  0  0  0  0  0  0  0  0  0  0
   35.9439   25.0412   37.6011 H   0  0  0  0  0  0  0  0  0  0  0  0
   37.8868   23.4478   37.4005 H   0  0  0  0  0  0  0  0  0  0  0  0
   38.0119   22.0570   41.4198 H   0  0  0  0  0  0  0  0  0  0  0  0
  1  2  1  0
  2  3  1  0
  4  3  1  0
  5  1  1  0
  5  4  1  0
  6  7  2  0
  6  1  1  0
  8  7  1  0
  9  8  2  0
 10  9  1  0
 10 11  2  0
 11  6  1  0
 12  5  1  0
 13 15  2  0
 13 12  1  0
 14 13  2  0
 16 13  1  0
 16 17  1  0
 17 21  1  0
 18 17  1  0
 18 19  2  0
 19 20  1  0
 21 20  2  0
  1 22  1  1
  2 23  1  0
  2 24  1  0
  3 25  1  0
  3 26  1  0
  4 27  1  0
  4 28  1  0
  5 29  1  6
  7 30  1  0
  8 31  1  0
 10 32  1  0
 12 33  1  0
 16 34  1  0
 16 35  1  0
 18 36  1  0
 20 37  1  0
M  ISO  8  22  13  23  13  24  13  25  13  26  13  27  13  28  13  29  13
M  ISO  8  30  14  31  14  32  14  33   5  34   8  35   8  36  14  37  14
M  END
>  <minimizedAffinity>  (1) 
-4.18260241

>  <minimizedRMSD>  (1) 
3.44045496

$$$$
