
     RDKit          3D

 38 40  0  0  1  0  0  0  0  0999 V2000
   37.6080   26.7930   41.2990 C   0  0  1  0  0  0  0  0  0  0  0  0
   36.9500   26.2180   42.5940 C   0  0  0  0  0  0  0  0  0  0  0  0
   36.8680   24.7500   42.2790 C   0  0  0  0  0  0  0  0  0  0  0  0
   37.3120   24.5510   40.8490 C   0  0  0  0  0  0  0  0  0  0  0  0
   37.0310   25.9670   40.2500 C   0  0  2  0  0  0  0  0  0  0  0  0
   37.3950   28.2120   41.2410 C   0  0  0  0  0  0  0  0  0  0  0  0
   36.0660   28.6310   40.9230 C   0  0  0  0  0  0  0  0  0  0  0  0
   35.7840   30.0030   40.8520 C   0  0  0  0  0  0  0  0  0  0  0  0
   36.8360   30.8630   41.1010 N   0  0  0  0  0  0  0  0  0  0  0  0
   38.0810   30.4160   41.4000 C   0  0  0  0  0  0  0  0  0  0  0  0
   38.3740   29.0750   41.4730 N   0  0  0  0  0  0  0  0  0  0  0  0
   37.7080   25.9930   39.0060 N   0  0  0  0  0  0  0  0  0  0  0  0
   36.6860   26.1370   37.6480 S   0  0  0  0  0  0  0  0  0  0  0  0
   35.6560   27.2030   37.8450 O   0  0  0  0  0  0  0  0  0  0  0  0
   36.0020   24.8560   37.3000 O   0  0  0  0  0  0  0  0  0  0  0  0
   37.6910   26.6550   36.2700 C   0  0  0  0  0  0  0  0  0  0  0  0
   36.8070   27.4740   35.4280 N   0  0  0  0  0  0  0  0  0  0  0  0
   36.8940   28.8200   35.3020 C   0  0  0  0  0  0  0  0  0  0  0  0
   35.8960   29.2360   34.4260 C   0  0  0  0  0  0  0  0  0  0  0  0
   35.2330   28.1370   34.0440 N   0  0  0  0  0  0  0  0  0  0  0  0
   35.7770   27.0560   34.6480 C   0  0  0  0  0  0  0  0  0  0  0  0
   38.7037   26.7338   41.2226 H   0  0  0  0  0  0  0  0  0  0  0  0
   37.5789   26.4025   43.4774 H   0  0  0  0  0  0  0  0  0  0  0  0
   35.9790   26.6738   42.8375 H   0  0  0  0  0  0  0  0  0  0  0  0
   37.5268   24.1861   42.9558 H   0  0  0  0  0  0  0  0  0  0  0  0
   35.8375   24.3889   42.4117 H   0  0  0  0  0  0  0  0  0  0  0  0
   38.3794   24.2918   40.7897 H   0  0  0  0  0  0  0  0  0  0  0  0
   36.8025   23.7281   40.3262 H   0  0  0  0  0  0  0  0  0  0  0  0
   35.9998   26.2797   40.0287 H   0  0  0  0  0  0  0  0  0  0  0  0
   35.2761   27.8884   40.7367 H   0  0  0  0  0  0  0  0  0  0  0  0
   34.7774   30.3750   40.6106 H   0  0  0  0  0  0  0  0  0  0  0  0
   38.8798   31.1481   41.5897 H   0  0  0  0  0  0  0  0  0  0  0  0
   38.3549   26.7945   39.0084 H   0  0  0  0  0  0  0  0  0  0  0  0
   38.5478   27.2493   36.6204 H   0  0  0  0  0  0  0  0  0  0  0  0
   38.1019   25.7968   35.7180 H   0  0  0  0  0  0  0  0  0  0  0  0
   37.6254   29.4702   35.8042 H   0  0  0  0  0  0  0  0  0  0  0  0
   35.6911   30.2690   34.1084 H   0  0  0  0  0  0  0  0  0  0  0  0
   35.4420   26.0152   34.5278 H   0  0  0  0  0  0  0  0  0  0  0  0
  1  2  1  0
  3  2  1  0
  4  3  1  0
  5  4  1  0
  5  1  1  0
  6  1  1  0
  6 11  1  0
  7  6  2  0
  8  7  1  0
  8  9  2  0
  9 10  1  0
 10 11  2  0
 12  5  1  0
 13 14  2  0
 13 12  1  0
 15 13  2  0
 16 13  1  0
 17 16  1  0
 18 17  1  0
 19 18  2  0
 20 19  1  0
 20 21  2  0
 21 17  1  0
  1 22  1  1
  2 23  1  0
  2 24  1  0
  3 25  1  0
  3 26  1  0
  4 27  1  0
  4 28  1  0
  5 29  1  6
  7 30  1  0
  8 31  1  0
 10 32  1  0
 12 33  1  0
 16 34  1  0
 16 35  1  0
 18 36  1  0
 19 37  1  0
 21 38  1  0
M  ISO  8  22  13  23  13  24  13  25  13  26  13  27  13  28  13  29  13
M  ISO  8  30  14  31  14  32  14  33   5  34   8  35   8  36  14  37  14
M  ISO  1  38  14
M  END
>  <minimizedAffinity>  (1) 
-3.96216583

>  <minimizedRMSD>  (1) 
1.04477906

$$$$
