
     RDKit          3D

 32 33  0  0  1  0  0  0  0  0999 V2000
   37.5620   26.8230   41.0940 C   0  0  1  0  0  0  0  0  0  0  0  0
   37.1470   26.3190   42.5120 C   0  0  0  0  0  0  0  0  0  0  0  0
   36.8950   24.8570   42.2450 C   0  0  0  0  0  0  0  0  0  0  0  0
   36.9380   24.6300   40.7600 C   0  0  0  0  0  0  0  0  0  0  0  0
   36.6870   26.0720   40.2080 C   0  0  2  0  0  0  0  0  0  0  0  0
   37.4890   28.2600   41.0510 C   0  0  0  0  0  0  0  0  0  0  0  0
   36.1600   28.8040   41.0150 C   0  0  0  0  0  0  0  0  0  0  0  0
   36.0090   30.2000   40.9750 C   0  0  0  0  0  0  0  0  0  0  0  0
   37.1770   30.9630   40.9730 N   0  0  0  0  0  0  0  0  0  0  0  0
   38.3980   30.3840   41.0080 C   0  0  0  0  0  0  0  0  0  0  0  0
   38.5680   29.0240   41.0470 N   0  0  0  0  0  0  0  0  0  0  0  0
   37.0580   26.0200   38.8510 N   0  0  0  0  0  0  0  0  0  0  0  0
   35.7700   26.1660   37.7470 S   0  0  0  0  0  0  0  0  0  0  0  0
   34.9740   27.4100   37.9870 O   0  0  0  0  0  0  0  0  0  0  0  0
   34.8410   24.9920   37.7950 O   0  0  0  0  0  0  0  0  0  0  0  0
   36.4510   26.2980   36.1080 C   0  0  0  0  0  0  0  0  0  0  0  0
   38.2600   26.0860   36.2430 S   0  0  0  0  0  0  0  0  0  0  0  0
   38.6033   26.6427   40.7887 H   0  0  0  0  0  0  0  0  0  0  0  0
   37.9570   26.4610   43.2426 H   0  0  0  0  0  0  0  0  0  0  0  0
   36.2879   26.8519   42.9454 H   0  0  0  0  0  0  0  0  0  0  0  0
   37.6708   24.2509   42.7358 H   0  0  0  0  0  0  0  0  0  0  0  0
   35.9120   24.5648   42.6430 H   0  0  0  0  0  0  0  0  0  0  0  0
   37.9179   24.2444   40.4420 H   0  0  0  0  0  0  0  0  0  0  0  0
   36.2131   23.8839   40.4024 H   0  0  0  0  0  0  0  0  0  0  0  0
   35.6769   26.5076   40.2098 H   0  0  0  0  0  0  0  0  0  0  0  0
   35.2810   28.1427   41.0187 H   0  0  0  0  0  0  0  0  0  0  0  0
   35.0150   30.6702   40.9465 H   0  0  0  0  0  0  0  0  0  0  0  0
   39.2893   31.0286   41.0051 H   0  0  0  0  0  0  0  0  0  0  0  0
   37.7213   26.7873   38.6714 H   0  0  0  0  0  0  0  0  0  0  0  0
   36.2198   27.2864   35.6842 H   0  0  0  0  0  0  0  0  0  0  0  0
   36.0203   25.5308   35.4477 H   0  0  0  0  0  0  0  0  0  0  0  0
   38.6175   26.0441   37.5649 H   0  0  0  0  0  0  0  0  0  0  0  0
  1  2  1  0
  3  2  1  0
  4  3  1  0
  5  4  1  0
  5  1  1  0
  6  1  1  0
  7  6  2  0
  8  7  1  0
  9  8  2  0
  9 10  1  0
 10 11  2  0
 11  6  1  0
 12  5  1  0
 13 15  2  0
 13 14  2  0
 13 12  1  0
 16 17  1  0
 16 13  1  0
  1 18  1  6
  2 19  1  0
  2 20  1  0
  3 21  1  0
  3 22  1  0
  4 23  1  0
  4 24  1  0
  5 25  1  6
  7 26  1  0
  8 27  1  0
 10 28  1  0
 12 29  1  0
 16 30  1  0
 16 31  1  0
 17 32  1  0
M  ISO  8  18  13  19  13  20  13  21  13  22  13  23  13  24  13  25  13
M  ISO  7  26  14  27  14  28  14  29   5  30   8  31   8  32  11
M  END
>  <minimizedAffinity>  (1) 
-3.66915488

>  <minimizedRMSD>  (1) 
0.687287629

$$$$
