
     RDKit          3D

 42 45  0  0  1  0  0  0  0  0999 V2000
   40.0010   32.0790   41.0030 C   0  0  0  0  0  0  0  0  0  0  0  0
   39.5820   30.8220   41.5180 C   0  0  0  0  0  0  0  0  0  0  0  0
   38.2490   30.5080   41.4520 C   0  0  0  0  0  0  0  0  0  0  0  0
   37.4140   31.4150   40.9020 N   0  0  0  0  0  0  0  0  0  0  0  0
   37.8210   32.6060   40.4170 C   0  0  0  0  0  0  0  0  0  0  0  0
   39.1280   32.9390   40.4700 N   0  0  0  0  0  0  0  0  0  0  0  0
   36.8530   33.4990   39.8510 N   0  0  0  0  0  0  0  0  0  0  0  0
   37.7430   29.2880   41.9320 N   0  0  0  0  0  0  0  0  0  0  0  0
   37.9520   28.9180   43.3150 C   0  0  0  0  0  0  0  0  0  0  0  0
   36.8920   27.8780   43.6640 C   0  0  0  0  0  0  0  0  0  0  0  0
   36.9450   26.7200   42.8300 N   0  0  0  0  0  0  0  0  0  0  0  0
   37.3990   26.9520   41.4820 C   0  0  0  0  0  0  0  0  0  0  0  0
   37.0070   28.3840   41.0960 C   0  0  2  0  0  0  0  0  0  0  0  0
   37.1530   28.5160   39.6610 C   0  0  0  0  0  0  0  0  0  0  0  0
   38.4050   28.4320   39.0890 C   0  0  0  0  0  0  0  0  0  0  0  0
   38.6370   28.5320   37.7340 C   0  0  0  0  0  0  0  0  0  0  0  0
   37.5880   28.7290   36.8570 C   0  0  0  0  0  0  0  0  0  0  0  0
   36.3160   28.8200   37.3740 C   0  0  0  0  0  0  0  0  0  0  0  0
   35.2620   29.0150   36.5070 C   0  0  0  0  0  0  0  0  0  0  0  0
   33.9670   29.1120   36.9730 C   0  0  0  0  0  0  0  0  0  0  0  0
   33.7850   29.0030   38.3570 C   0  0  0  0  0  0  0  0  0  0  0  0
   34.8640   28.8100   39.1790 C   0  0  0  0  0  0  0  0  0  0  0  0
   36.1590   28.7130   38.7260 C   0  0  0  0  0  0  0  0  0  0  0  0
   41.0664   32.3495   41.0441 H   0  0  0  0  0  0  0  0  0  0  0  0
   40.3069   30.1209   41.9572 H   0  0  0  0  0  0  0  0  0  0  0  0
   35.8597   33.2285   39.8188 H   0  0  0  0  0  0  0  0  0  0  0  0
   37.1508   34.4111   39.4765 H   0  0  0  0  0  0  0  0  0  0  0  0
   38.9573   28.4905   43.4438 H   0  0  0  0  0  0  0  0  0  0  0  0
   37.8716   29.7961   43.9726 H   0  0  0  0  0  0  0  0  0  0  0  0
   37.0401   27.5643   44.7079 H   0  0  0  0  0  0  0  0  0  0  0  0
   35.9094   28.3477   43.5096 H   0  0  0  0  0  0  0  0  0  0  0  0
   37.5836   26.0411   43.2684 H   0  0  0  0  0  0  0  0  0  0  0  0
   38.4916   26.8360   41.4298 H   0  0  0  0  0  0  0  0  0  0  0  0
   36.9405   26.2285   40.7919 H   0  0  0  0  0  0  0  0  0  0  0  0
   35.9543   28.6409   41.2853 H   0  0  0  0  0  0  0  0  0  0  0  0
   39.2684   28.2762   39.7525 H   0  0  0  0  0  0  0  0  0  0  0  0
   39.6643   28.4544   37.3484 H   0  0  0  0  0  0  0  0  0  0  0  0
   37.7648   28.8109   35.7744 H   0  0  0  0  0  0  0  0  0  0  0  0
   35.4565   29.0945   35.4272 H   0  0  0  0  0  0  0  0  0  0  0  0
   33.1186   29.2674   36.2903 H   0  0  0  0  0  0  0  0  0  0  0  0
   32.7741   29.0724   38.7850 H   0  0  0  0  0  0  0  0  0  0  0  0
   34.6846   28.7281   40.2612 H   0  0  0  0  0  0  0  0  0  0  0  0
  1  2  2  0
  3  2  1  0
  3  8  1  0
  4  3  2  0
  5  6  2  0
  5  4  1  0
  6  1  1  0
  7  5  1  0
  8  9  1  0
  9 10  1  0
 11 10  1  0
 12 11  1  0
 13 12  1  0
 13  8  1  0
 14 13  1  0
 15 14  2  0
 16 15  1  0
 17 18  1  0
 17 16  2  0
 18 23  2  0
 19 20  2  0
 19 18  1  0
 20 21  1  0
 21 22  2  0
 23 22  1  0
 23 14  1  0
  1 24  1  0
  2 25  1  0
  7 26  1  0
  7 27  1  0
  9 28  1  0
  9 29  1  0
 10 30  1  0
 10 31  1  0
 11 32  1  0
 12 33  1  0
 12 34  1  0
 13 35  1  6
 15 36  1  0
 16 37  1  0
 17 38  1  0
 19 39  1  0
 20 40  1  0
 21 41  1  0
 22 42  1  0
M  ISO  8  24  14  25  14  28  13  29  13  30  13  31  13  32   5  33  13
M  ISO  8  34  13  35  13  36  14  37  14  38  14  39  14  40  14  41  14
M  ISO  1  42  14
M  END
>  <minimizedAffinity>  (1) 
-6.53447247

>  <minimizedRMSD>  (1) 
1.476493

$$$$
