
     RDKit          3D

 34 37  0  0  1  0  0  0  0  0999 V2000
   37.0460   27.9400   43.3590 C   0  0  0  0  0  0  0  0  0  0  0  0
   36.3680   28.1330   42.1440 C   0  0  0  0  0  0  0  0  0  0  0  0
   36.9390   28.9420   41.1600 C   0  0  0  0  0  0  0  0  0  0  0  0
   38.1490   29.5130   41.4330 N   0  0  0  0  0  0  0  0  0  0  0  0
   38.7930   29.3170   42.6130 C   0  0  0  0  0  0  0  0  0  0  0  0
   38.2300   28.5300   43.5600 N   0  0  0  0  0  0  0  0  0  0  0  0
   36.2840   29.1660   39.9150 N   0  0  0  0  0  0  0  0  0  0  0  0
   34.8520   29.1640   39.8290 C   0  0  0  0  0  0  0  0  0  0  0  0
   34.3480   28.8180   38.4500 C   0  0  0  0  0  0  0  0  0  0  0  0
   35.3070   28.8450   37.4710 O   0  0  0  0  0  0  0  0  0  0  0  0
   36.2740   29.8210   37.6280 C   0  0  0  0  0  0  0  0  0  0  0  0
   37.1320   29.3950   38.7630 C   0  0  1  0  0  0  0  0  0  0  0  0
   38.2330   30.2830   39.0320 N   0  0  0  0  0  0  0  0  0  0  0  0
   39.5420   29.8970   39.0040 C   0  0  0  0  0  0  0  0  0  0  0  0
   40.3410   30.9460   39.2960 N   0  0  0  0  0  0  0  0  0  0  0  0
   39.5580   32.0380   39.5190 C   0  0  0  0  0  0  0  0  0  0  0  0
   39.7760   33.3650   39.8490 C   0  0  0  0  0  0  0  0  0  0  0  0
   38.7060   34.1830   39.9920 N   0  0  0  0  0  0  0  0  0  0  0  0
   37.4460   33.7600   39.8270 C   0  0  0  0  0  0  0  0  0  0  0  0
   37.2290   32.4650   39.5060 N   0  0  0  0  0  0  0  0  0  0  0  0
   38.2590   31.6060   39.3500 C   0  0  0  0  0  0  0  0  0  0  0  0
   36.6051   27.3061   44.1424 H   0  0  0  0  0  0  0  0  0  0  0  0
   35.3950   27.6506   41.9693 H   0  0  0  0  0  0  0  0  0  0  0  0
   39.7663   29.7950   42.7980 H   0  0  0  0  0  0  0  0  0  0  0  0
   34.4584   28.4249   40.5424 H   0  0  0  0  0  0  0  0  0  0  0  0
   34.5056   30.1818   40.0617 H   0  0  0  0  0  0  0  0  0  0  0  0
   33.9207   27.8050   38.4845 H   0  0  0  0  0  0  0  0  0  0  0  0
   33.6085   29.5880   38.1849 H   0  0  0  0  0  0  0  0  0  0  0  0
   36.8752   29.9097   36.7111 H   0  0  0  0  0  0  0  0  0  0  0  0
   35.8169   30.8020   37.8247 H   0  0  0  0  0  0  0  0  0  0  0  0
   37.6340   28.4555   38.4885 H   0  0  0  0  0  0  0  0  0  0  0  0
   39.8946   28.8801   38.7768 H   0  0  0  0  0  0  0  0  0  0  0  0
   40.7975   33.7471   39.9921 H   0  0  0  0  0  0  0  0  0  0  0  0
   36.6021   34.4546   39.9506 H   0  0  0  0  0  0  0  0  0  0  0  0
  1  6  2  0
  2  1  1  0
  3  4  1  0
  3  2  2  0
  4  5  2  0
  5  6  1  0
  7  3  1  0
  8  7  1  0
  9  8  1  0
 10 11  1  0
 10  9  1  0
 11 12  1  0
 12 13  1  0
 12  7  1  0
 13 21  1  0
 14 13  1  0
 14 15  2  0
 15 16  1  0
 16 17  2  0
 17 18  1  0
 19 18  2  0
 20 19  1  0
 21 20  2  0
 21 16  1  0
  1 22  1  0
  2 23  1  0
  5 24  1  0
  8 25  1  0
  8 26  1  0
  9 27  1  0
  9 28  1  0
 11 29  1  0
 11 30  1  0
 12 31  1  6
 14 32  1  0
 17 33  1  0
 19 34  1  0
M  ISO  8  22  14  23  14  24  14  25  13  26  13  27  13  28  13  29  13
M  ISO  5  30  13  31  13  32  14  33  14  34  14
M  END
>  <minimizedAffinity>  (1) 
-5.3237009

>  <minimizedRMSD>  (1) 
5.36158943

$$$$
