
     RDKit          3D

 37 40  0  0  1  0  0  0  0  0999 V2000
   39.7460   34.2420   39.9800 C   0  0  0  0  0  0  0  0  0  0  0  0
   40.4510   33.0940   40.3490 C   0  0  0  0  0  0  0  0  0  0  0  0
   39.7590   31.9550   40.7410 C   0  0  0  0  0  0  0  0  0  0  0  0
   38.4210   32.0560   40.7330 N   0  0  0  0  0  0  0  0  0  0  0  0
   37.7160   33.1360   40.3870 C   0  0  0  0  0  0  0  0  0  0  0  0
   38.4010   34.2330   40.0090 N   0  0  0  0  0  0  0  0  0  0  0  0
   40.4130   30.7510   41.1300 N   0  0  0  0  0  0  0  0  0  0  0  0
   41.7030   30.8060   41.7580 C   0  0  0  0  0  0  0  0  0  0  0  0
   42.5150   29.5540   41.5390 C   0  0  0  0  0  0  0  0  0  0  0  0
   41.8050   28.5010   40.9850 O   0  0  0  0  0  0  0  0  0  0  0  0
   40.5220   28.4170   41.4510 C   0  0  0  0  0  0  0  0  0  0  0  0
   39.7420   29.5240   40.8710 C   0  0  1  0  0  0  0  0  0  0  0  0
   38.2930   29.4810   41.0510 C   0  0  0  0  0  0  0  0  0  0  0  0
   37.5130   29.5490   42.2200 C   0  0  0  0  0  0  0  0  0  0  0  0
   36.2150   29.4700   41.9710 N   0  0  0  0  0  0  0  0  0  0  0  0
   36.0740   29.3480   40.6380 C   0  0  0  0  0  0  0  0  0  0  0  0
   34.8880   29.2370   39.9270 C   0  0  0  0  0  0  0  0  0  0  0  0
   35.0230   29.1250   38.5580 C   0  0  0  0  0  0  0  0  0  0  0  0
   36.2340   29.1220   37.8950 C   0  0  0  0  0  0  0  0  0  0  0  0
   37.3880   29.2350   38.6420 C   0  0  0  0  0  0  0  0  0  0  0  0
   37.3330   29.3510   40.0370 C   0  0  0  0  0  0  0  0  0  0  0  0
   40.2870   35.1475   39.6678 H   0  0  0  0  0  0  0  0  0  0  0  0
   41.5508   33.0918   40.3293 H   0  0  0  0  0  0  0  0  0  0  0  0
   36.6162   33.1303   40.4097 H   0  0  0  0  0  0  0  0  0  0  0  0
   42.2582   31.6613   41.3455 H   0  0  0  0  0  0  0  0  0  0  0  0
   41.5394   30.9087   42.8409 H   0  0  0  0  0  0  0  0  0  0  0  0
   43.3494   29.7986   40.8653 H   0  0  0  0  0  0  0  0  0  0  0  0
   42.8496   29.2191   42.5319 H   0  0  0  0  0  0  0  0  0  0  0  0
   40.0805   27.4550   41.1517 H   0  0  0  0  0  0  0  0  0  0  0  0
   40.5140   28.4843   42.5489 H   0  0  0  0  0  0  0  0  0  0  0  0
   39.7275   29.3961   39.7786 H   0  0  0  0  0  0  0  0  0  0  0  0
   37.9353   29.6561   43.2301 H   0  0  0  0  0  0  0  0  0  0  0  0
   35.4558   29.4969   42.6666 H   0  0  0  0  0  0  0  0  0  0  0  0
   33.9054   29.2382   40.4214 H   0  0  0  0  0  0  0  0  0  0  0  0
   34.1068   29.0322   37.9564 H   0  0  0  0  0  0  0  0  0  0  0  0
   36.2774   29.0318   36.7996 H   0  0  0  0  0  0  0  0  0  0  0  0
   38.3645   29.2340   38.1356 H   0  0  0  0  0  0  0  0  0  0  0  0
  1  6  2  0
  1  2  1  0
  2  3  2  0
  3  7  1  0
  4  3  1  0
  5  4  2  0
  6  5  1  0
  7  8  1  0
  9  8  1  0
 10 11  1  0
 10  9  1  0
 12 13  1  0
 12  7  1  0
 12 11  1  0
 13 14  2  0
 15 14  1  0
 16 15  1  0
 17 16  2  0
 18 17  1  0
 19 18  2  0
 19 20  1  0
 20 21  2  0
 21 16  1  0
 21 13  1  0
  1 22  1  0
  2 23  1  0
  5 24  1  0
  8 25  1  0
  8 26  1  0
  9 27  1  0
  9 28  1  0
 11 29  1  0
 11 30  1  0
 12 31  1  6
 14 32  1  0
 15 33  1  0
 17 34  1  0
 18 35  1  0
 19 36  1  0
 20 37  1  0
M  ISO  8  22  14  23  14  24  14  25  13  26  13  27  13  28  13  29  13
M  ISO  8  30  13  31  13  32  14  33   9  34  14  35  14  36  14  37  14
M  END
>  <minimizedAffinity>  (1) 
-5.10987234

>  <minimizedRMSD>  (1) 
5.15918589

$$$$
