
     RDKit          3D

 33 35  0  0  1  0  0  0  0  0999 V2000
   41.7080   31.4070   42.0890 C   0  0  0  0  0  0  0  0  0  0  0  0
   41.9970   30.1430   42.6010 C   0  0  0  0  0  0  0  0  0  0  0  0
   41.0090   29.1700   42.7340 C   0  0  0  0  0  0  0  0  0  0  0  0
   39.7710   29.5290   42.3390 N   0  0  0  0  0  0  0  0  0  0  0  0
   39.4740   30.7510   41.8400 C   0  0  0  0  0  0  0  0  0  0  0  0
   40.4540   31.6750   41.7220 N   0  0  0  0  0  0  0  0  0  0  0  0
   41.2950   27.8770   43.2580 N   0  0  0  0  0  0  0  0  0  0  0  0
   42.3220   27.6970   44.2430 C   0  0  0  0  0  0  0  0  0  0  0  0
   42.8320   26.2830   44.3040 C   0  0  0  0  0  0  0  0  0  0  0  0
   42.2140   25.4020   43.4600 O   0  0  0  0  0  0  0  0  0  0  0  0
   40.8540   25.5350   43.4350 C   0  0  0  0  0  0  0  0  0  0  0  0
   40.4890   26.7920   42.7360 C   0  0  1  0  0  0  0  0  0  0  0  0
   39.0410   27.1090   42.8100 C   0  0  0  0  0  0  0  0  0  0  0  0
   38.2410   27.0500   41.6690 C   0  0  0  0  0  0  0  0  0  0  0  0
   36.9000   27.3190   41.6140 C   0  0  0  0  0  0  0  0  0  0  0  0
   36.2980   27.6740   42.7910 C   0  0  0  0  0  0  0  0  0  0  0  0
   37.0180   27.7570   43.9730 C   0  0  0  0  0  0  0  0  0  0  0  0
   38.3710   27.4780   43.9770 C   0  0  0  0  0  0  0  0  0  0  0  0
   42.4971   32.1669   41.9898 H   0  0  0  0  0  0  0  0  0  0  0  0
   43.0274   29.9089   42.9066 H   0  0  0  0  0  0  0  0  0  0  0  0
   38.4451   30.9905   41.5333 H   0  0  0  0  0  0  0  0  0  0  0  0
   43.1627   28.3633   43.9996 H   0  0  0  0  0  0  0  0  0  0  0  0
   41.8840   27.9330   45.2241 H   0  0  0  0  0  0  0  0  0  0  0  0
   43.9034   26.2971   44.0554 H   0  0  0  0  0  0  0  0  0  0  0  0
   42.6207   25.9271   45.3232 H   0  0  0  0  0  0  0  0  0  0  0  0
   40.4123   24.6792   42.9036 H   0  0  0  0  0  0  0  0  0  0  0  0
   40.4712   25.5661   44.4658 H   0  0  0  0  0  0  0  0  0  0  0  0
   40.6996   26.6519   41.6655 H   0  0  0  0  0  0  0  0  0  0  0  0
   38.7322   26.7611   40.7281 H   0  0  0  0  0  0  0  0  0  0  0  0
   36.3352   27.2533   40.6724 H   0  0  0  0  0  0  0  0  0  0  0  0
   35.2211   27.8980   42.7992 H   0  0  0  0  0  0  0  0  0  0  0  0
   36.5124   28.0447   44.9066 H   0  0  0  0  0  0  0  0  0  0  0  0
   38.9322   27.5483   44.9205 H   0  0  0  0  0  0  0  0  0  0  0  0
  1  2  2  0
  2  3  1  0
  3  7  1  0
  4  3  2  0
  5  4  1  0
  6  5  2  0
  6  1  1  0
  7  8  1  0
  8  9  1  0
 10  9  1  0
 11 10  1  0
 12 13  1  0
 12  7  1  0
 12 11  1  0
 13 18  1  0
 14 13  2  0
 15 14  1  0
 15 16  2  0
 16 17  1  0
 17 18  2  0
  1 19  1  0
  2 20  1  0
  5 21  1  0
  8 22  1  0
  8 23  1  0
  9 24  1  0
  9 25  1  0
 11 26  1  0
 11 27  1  0
 12 28  1  6
 14 29  1  0
 15 30  1  0
 16 31  1  0
 17 32  1  0
 18 33  1  0
M  ISO  8  19  14  20  14  21  14  22  13  23  13  24  13  25  13  26  13
M  ISO  7  27  13  28  13  29  14  30  14  31  14  32  14  33  14
M  END
>  <minimizedAffinity>  (1) 
-4.79748249

>  <minimizedRMSD>  (1) 
5.14196157

$$$$
