
     RDKit          3D

 30 32  0  0  1  0  0  0  0  0999 V2000
   36.7150   27.5290   43.2510 C   0  0  0  0  0  0  0  0  0  0  0  0
   36.2570   27.8920   41.9650 C   0  0  0  0  0  0  0  0  0  0  0  0
   36.8850   28.9680   41.3370 C   0  0  0  0  0  0  0  0  0  0  0  0
   37.9030   29.6130   41.9850 N   0  0  0  0  0  0  0  0  0  0  0  0
   38.3180   29.2420   43.2140 C   0  0  0  0  0  0  0  0  0  0  0  0
   37.7200   28.2020   43.8340 N   0  0  0  0  0  0  0  0  0  0  0  0
   36.4850   29.4060   40.0320 N   0  0  0  0  0  0  0  0  0  0  0  0
   35.1310   29.2610   39.5940 C   0  0  0  0  0  0  0  0  0  0  0  0
   34.9870   29.1560   38.0960 C   0  0  0  0  0  0  0  0  0  0  0  0
   36.1390   29.4060   37.3980 O   0  0  0  0  0  0  0  0  0  0  0  0
   36.9050   30.4320   37.9100 C   0  0  0  0  0  0  0  0  0  0  0  0
   37.5040   29.9960   39.1910 C   0  0  1  0  0  0  0  0  0  0  0  0
   38.0830   31.2250   39.8460 C   0  0  0  0  0  0  0  0  0  0  0  0
   37.4500   32.4040   40.2260 C   0  0  0  0  0  0  0  0  0  0  0  0
   38.4070   33.1860   40.7650 N   0  0  0  0  0  0  0  0  0  0  0  0
   39.5750   32.5420   40.7290 C   0  0  0  0  0  0  0  0  0  0  0  0
   39.3770   31.3340   40.1620 N   0  0  0  0  0  0  0  0  0  0  0  0
   36.2440   26.6872   43.7797 H   0  0  0  0  0  0  0  0  0  0  0  0
   35.4358   27.3467   41.4769 H   0  0  0  0  0  0  0  0  0  0  0  0
   39.1384   29.7833   43.7079 H   0  0  0  0  0  0  0  0  0  0  0  0
   34.7148   28.3495   40.0478 H   0  0  0  0  0  0  0  0  0  0  0  0
   34.5929   30.1682   39.9062 H   0  0  0  0  0  0  0  0  0  0  0  0
   34.6519   28.1368   37.8532 H   0  0  0  0  0  0  0  0  0  0  0  0
   34.2637   29.9282   37.7952 H   0  0  0  0  0  0  0  0  0  0  0  0
   37.7036   30.6864   37.1976 H   0  0  0  0  0  0  0  0  0  0  0  0
   36.2742   31.3173   38.0781 H   0  0  0  0  0  0  0  0  0  0  0  0
   38.2859   29.2393   39.0294 H   0  0  0  0  0  0  0  0  0  0  0  0
   36.3839   32.6489   40.1101 H   0  0  0  0  0  0  0  0  0  0  0  0
   40.5357   32.9299   41.0986 H   0  0  0  0  0  0  0  0  0  0  0  0
   40.0996   30.6180   40.0003 H   0  0  0  0  0  0  0  0  0  0  0  0
  1  6  2  0
  2  1  1  0
  3  2  2  0
  3  4  1  0
  4  5  2  0
  5  6  1  0
  7  3  1  0
  8  7  1  0
  9  8  1  0
 10 11  1  0
 10  9  1  0
 11 12  1  0
 12 13  1  0
 12  7  1  0
 13 17  1  0
 13 14  2  0
 14 15  1  0
 16 15  2  0
 17 16  1  0
  1 18  1  0
  2 19  1  0
  5 20  1  0
  8 21  1  0
  8 22  1  0
  9 23  1  0
  9 24  1  0
 11 25  1  0
 11 26  1  0
 12 27  1  6
 14 28  1  0
 16 29  1  0
 17 30  1  0
M  ISO  8  18  14  19  14  20  14  21  13  22  13  23  13  24  13  25  13
M  ISO  5  26  13  27  13  28  14  29  14  30   9
M  END
>  <minimizedAffinity>  (1) 
-4.63613987

>  <minimizedRMSD>  (1) 
5.25139618

$$$$
