
     RDKit          3D

 30 32  0  0  1  0  0  0  0  0999 V2000
   38.8970   32.6520   40.8720 C   0  0  0  0  0  0  0  0  0  0  0  0
   38.8400   31.4250   41.5490 C   0  0  0  0  0  0  0  0  0  0  0  0
   37.9000   30.4810   41.1340 C   0  0  0  0  0  0  0  0  0  0  0  0
   37.1070   30.8290   40.0990 N   0  0  0  0  0  0  0  0  0  0  0  0
   37.1620   31.9990   39.4540 C   0  0  0  0  0  0  0  0  0  0  0  0
   38.0600   32.9010   39.8510 N   0  0  0  0  0  0  0  0  0  0  0  0
   37.8040   29.2140   41.7910 N   0  0  0  0  0  0  0  0  0  0  0  0
   38.1570   29.0790   43.1730 C   0  0  0  0  0  0  0  0  0  0  0  0
   38.4020   27.6600   43.5870 C   0  0  0  0  0  0  0  0  0  0  0  0
   38.2060   26.7320   42.5800 O   0  0  0  0  0  0  0  0  0  0  0  0
   37.0750   26.9500   41.8490 C   0  0  0  0  0  0  0  0  0  0  0  0
   37.3370   28.1220   40.9610 C   0  0  1  0  0  0  0  0  0  0  0  0
   36.1490   28.4860   40.1330 C   0  0  0  0  0  0  0  0  0  0  0  0
   35.9910   28.4290   38.7620 C   0  0  0  0  0  0  0  0  0  0  0  0
   34.7330   28.8590   38.4140 C   0  0  0  0  0  0  0  0  0  0  0  0
   34.1480   29.1720   39.6230 C   0  0  0  0  0  0  0  0  0  0  0  0
   35.0020   28.9410   40.5800 O   0  0  0  0  0  0  0  0  0  0  0  0
   39.6297   33.4132   41.1781 H   0  0  0  0  0  0  0  0  0  0  0  0
   39.5200   31.2120   42.3870 H   0  0  0  0  0  0  0  0  0  0  0  0
   36.4825   32.2123   38.6157 H   0  0  0  0  0  0  0  0  0  0  0  0
   39.0729   29.6595   43.3576 H   0  0  0  0  0  0  0  0  0  0  0  0
   37.3058   29.4481   43.7639 H   0  0  0  0  0  0  0  0  0  0  0  0
   39.4424   27.5771   43.9344 H   0  0  0  0  0  0  0  0  0  0  0  0
   37.6692   27.4303   44.3745 H   0  0  0  0  0  0  0  0  0  0  0  0
   36.8427   26.0626   41.2419 H   0  0  0  0  0  0  0  0  0  0  0  0
   36.2174   27.1466   42.5092 H   0  0  0  0  0  0  0  0  0  0  0  0
   38.1148   27.8669   40.2262 H   0  0  0  0  0  0  0  0  0  0  0  0
   36.7598   28.0891   38.0524 H   0  0  0  0  0  0  0  0  0  0  0  0
   34.2955   28.9355   37.4077 H   0  0  0  0  0  0  0  0  0  0  0  0
   33.1256   29.5548   39.7578 H   0  0  0  0  0  0  0  0  0  0  0  0
  1  2  2  0
  3  2  1  0
  3  7  1  0
  4  3  2  0
  5  6  2  0
  5  4  1  0
  6  1  1  0
  7  8  1  0
  8  9  1  0
 10  9  1  0
 11 10  1  0
 12  7  1  0
 12 11  1  0
 13 17  1  0
 13 12  1  0
 14 13  2  0
 15 14  1  0
 15 16  2  0
 16 17  1  0
  1 18  1  0
  2 19  1  0
  5 20  1  0
  8 21  1  0
  8 22  1  0
  9 23  1  0
  9 24  1  0
 11 25  1  0
 11 26  1  0
 12 27  1  6
 14 28  1  0
 15 29  1  0
 16 30  1  0
M  ISO  8  18  14  19  14  20  14  21  13  22  13  23  13  24  13  25  13
M  ISO  5  26  13  27  13  28  14  29  14  30  14
M  END
>  <minimizedAffinity>  (1) 
-4.53305578

>  <minimizedRMSD>  (1) 
3.45741129

$$$$
