
     RDKit          3D

 40 43  0  0  1  0  0  0  0  0999 V2000
   40.0030   31.9220   40.8350 C   0  0  0  0  0  0  0  0  0  0  0  0
   39.5640   30.6860   41.3900 C   0  0  0  0  0  0  0  0  0  0  0  0
   38.2160   30.4270   41.4170 C   0  0  0  0  0  0  0  0  0  0  0  0
   37.3730   31.3600   40.9130 N   0  0  0  0  0  0  0  0  0  0  0  0
   37.8000   32.5290   40.3880 C   0  0  0  0  0  0  0  0  0  0  0  0
   39.1180   32.8110   40.3490 N   0  0  0  0  0  0  0  0  0  0  0  0
   36.8430   33.4560   39.8790 N   0  0  0  0  0  0  0  0  0  0  0  0
   37.7030   29.2240   41.9530 N   0  0  0  0  0  0  0  0  0  0  0  0
   37.9580   28.9030   43.3350 C   0  0  0  0  0  0  0  0  0  0  0  0
   36.8940   27.9020   43.7680 C   0  0  0  0  0  0  0  0  0  0  0  0
   36.8550   26.7230   42.9660 N   0  0  0  0  0  0  0  0  0  0  0  0
   37.2120   26.8960   41.5880 C   0  0  0  0  0  0  0  0  0  0  0  0
   36.9350   28.3190   41.1470 C   0  0  2  0  0  0  0  0  0  0  0  0
   37.1420   28.4390   39.7300 N   0  0  0  0  0  0  0  0  0  0  0  0
   38.3330   28.3870   39.0980 C   0  0  0  0  0  0  0  0  0  0  0  0
   38.1730   28.5350   37.7500 N   0  0  0  0  0  0  0  0  0  0  0  0
   36.8520   28.6870   37.4930 C   0  0  0  0  0  0  0  0  0  0  0  0
   36.1160   28.8690   36.3570 C   0  0  0  0  0  0  0  0  0  0  0  0
   36.7020   28.9240   35.2280 O   0  0  0  0  0  0  0  0  0  0  0  0
   34.7770   28.9930   36.3960 N   0  0  0  0  0  0  0  0  0  0  0  0
   34.2040   28.9270   37.6170 C   0  0  0  0  0  0  0  0  0  0  0  0
   32.8060   29.0390   37.8350 N   0  0  0  0  0  0  0  0  0  0  0  0
   34.9150   28.7470   38.7520 N   0  0  0  0  0  0  0  0  0  0  0  0
   36.2540   28.6230   38.7200 C   0  0  0  0  0  0  0  0  0  0  0  0
   41.0781   32.1524   40.8034 H   0  0  0  0  0  0  0  0  0  0  0  0
   40.2864   29.9576   41.7868 H   0  0  0  0  0  0  0  0  0  0  0  0
   37.1563   34.3507   39.4762 H   0  0  0  0  0  0  0  0  0  0  0  0
   35.8385   33.2307   39.9142 H   0  0  0  0  0  0  0  0  0  0  0  0
   38.9588   28.4587   43.4404 H   0  0  0  0  0  0  0  0  0  0  0  0
   37.9207   29.8077   43.9596 H   0  0  0  0  0  0  0  0  0  0  0  0
   37.0970   27.6077   44.8083 H   0  0  0  0  0  0  0  0  0  0  0  0
   35.9196   28.3998   43.6549 H   0  0  0  0  0  0  0  0  0  0  0  0
   37.5053   26.0385   43.3778 H   0  0  0  0  0  0  0  0  0  0  0  0
   38.2828   26.6787   41.4606 H   0  0  0  0  0  0  0  0  0  0  0  0
   36.6119   26.2082   40.9741 H   0  0  0  0  0  0  0  0  0  0  0  0
   35.8823   28.5935   41.3097 H   0  0  0  0  0  0  0  0  0  0  0  0
   39.3012   28.2447   39.6004 H   0  0  0  0  0  0  0  0  0  0  0  0
   34.2193   29.1308   35.5411 H   0  0  0  0  0  0  0  0  0  0  0  0
   32.4276   28.9806   38.7912 H   0  0  0  0  0  0  0  0  0  0  0  0
   32.1699   29.1787   37.0370 H   0  0  0  0  0  0  0  0  0  0  0  0
  1  2  2  0
  2  3  1  0
  3  8  1  0
  4  3  2  0
  5  4  1  0
  6  5  2  0
  6  1  1  0
  7  5  1  0
  8  9  1  0
  9 10  1  0
 11 10  1  0
 12 11  1  0
 13 12  1  0
 13  8  1  0
 14 13  1  0
 15 14  1  0
 16 15  2  0
 17 16  1  0
 17 24  2  0
 18 20  1  0
 18 17  1  0
 19 18  2  0
 20 21  1  0
 21 22  1  0
 21 23  2  0
 24 23  1  0
 24 14  1  0
  1 25  1  0
  2 26  1  0
  7 27  1  0
  7 28  1  0
  9 29  1  0
  9 30  1  0
 10 31  1  0
 10 32  1  0
 11 33  1  0
 12 34  1  0
 12 35  1  0
 13 36  1  6
 15 37  1  0
 20 38  1  0
 22 39  1  0
 22 40  1  0
M  ISO  8  25  14  26  14  29  13  30  13  31  13  32  13  33   5  34  13
M  ISO  4  35  13  36  13  37  14  38   9
M  END
>  <minimizedAffinity>  (1) 
-6.30181837

>  <minimizedRMSD>  (1) 
1.23147154

$$$$
