
     RDKit          3D

 32 34  0  0  1  0  0  0  0  0999 V2000
   37.8100   27.6550   43.8460 C   0  0  0  0  0  0  0  0  0  0  0  0
   37.7000   26.6420   42.8950 C   0  0  0  0  0  0  0  0  0  0  0  0
   37.3860   26.9430   41.5710 C   0  0  0  0  0  0  0  0  0  0  0  0
   37.1980   28.2550   41.2750 N   0  0  0  0  0  0  0  0  0  0  0  0
   37.3070   29.2280   42.2040 C   0  0  0  0  0  0  0  0  0  0  0  0
   37.6080   28.9330   43.4700 N   0  0  0  0  0  0  0  0  0  0  0  0
   37.2650   25.9290   40.5790 N   0  0  0  0  0  0  0  0  0  0  0  0
   36.7380   24.6410   40.9210 C   0  0  0  0  0  0  0  0  0  0  0  0
   37.1250   23.5680   39.9420 C   0  0  0  0  0  0  0  0  0  0  0  0
   37.8440   24.0020   38.8620 O   0  0  0  0  0  0  0  0  0  0  0  0
   37.3930   25.1740   38.3200 C   0  0  0  0  0  0  0  0  0  0  0  0
   37.7000   26.2920   39.2470 C   0  0  1  0  0  0  0  0  0  0  0  0
   37.0600   27.5830   38.8080 C   0  0  0  0  0  0  0  0  0  0  0  0
   35.6940   27.7970   38.7460 C   0  0  0  0  0  0  0  0  0  0  0  0
   35.2870   29.0360   38.3240 C   0  0  0  0  0  0  0  0  0  0  0  0
   36.2380   29.9590   37.9990 C   0  0  0  0  0  0  0  0  0  0  0  0
   37.6050   29.7640   38.0560 C   0  0  0  0  0  0  0  0  0  0  0  0
   37.9690   28.5460   38.4710 N   0  0  0  0  0  0  0  0  0  0  0  0
   38.0585   27.4142   44.8901 H   0  0  0  0  0  0  0  0  0  0  0  0
   37.8625   25.5955   43.1922 H   0  0  0  0  0  0  0  0  0  0  0  0
   37.1458   30.2768   41.9140 H   0  0  0  0  0  0  0  0  0  0  0  0
   37.1157   24.3607   41.9154 H   0  0  0  0  0  0  0  0  0  0  0  0
   35.6410   24.7201   40.9051 H   0  0  0  0  0  0  0  0  0  0  0  0
   37.7298   22.8206   40.4764 H   0  0  0  0  0  0  0  0  0  0  0  0
   36.1837   23.1633   39.5418 H   0  0  0  0  0  0  0  0  0  0  0  0
   37.8917   25.3488   37.3553 H   0  0  0  0  0  0  0  0  0  0  0  0
   36.3061   25.1134   38.1622 H   0  0  0  0  0  0  0  0  0  0  0  0
   38.7866   26.4632   39.2420 H   0  0  0  0  0  0  0  0  0  0  0  0
   34.9725   27.0136   39.0211 H   0  0  0  0  0  0  0  0  0  0  0  0
   34.2172   29.2809   38.2490 H   0  0  0  0  0  0  0  0  0  0  0  0
   35.8856   30.9450   37.6620 H   0  0  0  0  0  0  0  0  0  0  0  0
   38.3313   30.5438   37.7834 H   0  0  0  0  0  0  0  0  0  0  0  0
  2  1  2  0
  3  2  1  0
  4  3  2  0
  4  5  1  0
  5  6  2  0
  6  1  1  0
  7  8  1  0
  7  3  1  0
  9  8  1  0
 10  9  1  0
 11 10  1  0
 11 12  1  0
 12  7  1  0
 13 12  1  0
 14 13  2  0
 15 14  1  0
 16 17  1  0
 16 15  2  0
 17 18  2  0
 18 13  1  0
  1 19  1  0
  2 20  1  0
  5 21  1  0
  8 22  1  0
  8 23  1  0
  9 24  1  0
  9 25  1  0
 11 26  1  0
 11 27  1  0
 12 28  1  1
 14 29  1  0
 15 30  1  0
 16 31  1  0
 17 32  1  0
M  ISO  8  19  14  20  14  21  14  22  13  23  13  24  13  25  13  26  13
M  ISO  6  27  13  28  13  29  14  30  14  31  14  32  14
M  END
>  <minimizedAffinity>  (1) 
-4.30744267

>  <minimizedRMSD>  (1) 
1.81783462

$$$$
