
     RDKit          3D

 29 31  0  0  1  0  0  0  0  0999 V2000
   37.2810   27.5310   43.3830 C   0  0  0  0  0  0  0  0  0  0  0  0
   38.4880   28.2260   43.3300 C   0  0  0  0  0  0  0  0  0  0  0  0
   38.6970   29.2070   42.3610 C   0  0  0  0  0  0  0  0  0  0  0  0
   37.6780   29.4280   41.5070 N   0  0  0  0  0  0  0  0  0  0  0  0
   36.5050   28.7540   41.5580 C   0  0  0  0  0  0  0  0  0  0  0  0
   36.3200   27.8130   42.4960 N   0  0  0  0  0  0  0  0  0  0  0  0
   39.9170   29.9310   42.2770 N   0  0  0  0  0  0  0  0  0  0  0  0
   41.1520   29.3050   42.6510 C   0  0  0  0  0  0  0  0  0  0  0  0
   42.2310   30.2940   43.0000 C   0  0  0  0  0  0  0  0  0  0  0  0
   41.9100   31.6060   42.7590 O   0  0  0  0  0  0  0  0  0  0  0  0
   41.2010   31.8120   41.6130 C   0  0  0  0  0  0  0  0  0  0  0  0
   39.8200   31.2940   41.8050 C   0  0  1  0  0  0  0  0  0  0  0  0
   38.9900   31.4260   40.5680 C   0  0  0  0  0  0  0  0  0  0  0  0
   39.2700   30.6710   39.2940 C   0  0  0  0  0  0  0  0  0  0  0  0
   37.9430   31.2640   38.2580 S   0  0  0  0  0  0  0  0  0  0  0  0
   37.2170   32.3990   39.6110 C   0  0  0  0  0  0  0  0  0  0  0  0
   37.9770   32.2840   40.7390 N   0  0  0  0  0  0  0  0  0  0  0  0
   37.1199   26.7570   44.1478 H   0  0  0  0  0  0  0  0  0  0  0  0
   39.2813   27.9992   44.0575 H   0  0  0  0  0  0  0  0  0  0  0  0
   35.7075   28.9769   40.8339 H   0  0  0  0  0  0  0  0  0  0  0  0
   40.9688   28.6631   43.5253 H   0  0  0  0  0  0  0  0  0  0  0  0
   41.5037   28.7272   41.7835 H   0  0  0  0  0  0  0  0  0  0  0  0
   42.4580   30.1887   44.0711 H   0  0  0  0  0  0  0  0  0  0  0  0
   43.0867   30.0605   42.3494 H   0  0  0  0  0  0  0  0  0  0  0  0
   41.6829   31.2802   40.7793 H   0  0  0  0  0  0  0  0  0  0  0  0
   41.1685   32.8868   41.3813 H   0  0  0  0  0  0  0  0  0  0  0  0
   39.2934   31.8991   42.5577 H   0  0  0  0  0  0  0  0  0  0  0  0
   40.0712   29.9527   39.0656 H   0  0  0  0  0  0  0  0  0  0  0  0
   36.3307   33.0409   39.4996 H   0  0  0  0  0  0  0  0  0  0  0  0
  2  1  2  0
  3  2  1  0
  4  5  1  0
  4  3  2  0
  5  6  2  0
  6  1  1  0
  7  3  1  0
  7  8  1  0
  8  9  1  0
 10  9  1  0
 11 12  1  0
 11 10  1  0
 12  7  1  0
 13 17  1  0
 13 12  1  0
 14 13  2  0
 15 14  1  0
 15 16  1  0
 16 17  2  0
  1 18  1  0
  2 19  1  0
  5 20  1  0
  8 21  1  0
  8 22  1  0
  9 23  1  0
  9 24  1  0
 11 25  1  0
 11 26  1  0
 12 27  1  1
 14 28  1  0
 16 29  1  0
M  ISO  8  18  14  19  14  20  14  21  13  22  13  23  13  24  13  25  13
M  ISO  4  26  13  27  13  28  14  29  14
M  END
>  <minimizedAffinity>  (1) 
-4.22000694

>  <minimizedRMSD>  (1) 
5.70287704

$$$$
