
     RDKit          3D

 37 39  0  0  1  0  0  0  0  0999 V2000
   41.0520   33.4040   40.6410 C   0  0  0  0  0  0  0  0  0  0  0  0
   40.7350   32.1490   41.1560 C   0  0  0  0  0  0  0  0  0  0  0  0
   39.5000   31.5690   40.8880 C   0  0  0  0  0  0  0  0  0  0  0  0
   38.6700   32.2980   40.1190 N   0  0  0  0  0  0  0  0  0  0  0  0
   38.9510   33.5060   39.6130 C   0  0  0  0  0  0  0  0  0  0  0  0
   40.1600   34.0510   39.8870 N   0  0  0  0  0  0  0  0  0  0  0  0
   39.1310   30.2940   41.3930 N   0  0  0  0  0  0  0  0  0  0  0  0
   39.6260   29.8400   42.6570 C   0  0  0  0  0  0  0  0  0  0  0  0
   39.5970   28.3420   42.8100 C   0  0  0  0  0  0  0  0  0  0  0  0
   39.0120   27.6690   41.7500 O   0  0  0  0  0  0  0  0  0  0  0  0
   37.8540   28.2900   41.3070 C   0  0  0  0  0  0  0  0  0  0  0  0
   38.2570   29.5130   40.5840 C   0  0  1  0  0  0  0  0  0  0  0  0
   37.2000   30.2250   39.9320 N   0  0  0  0  0  0  0  0  0  0  0  0
   37.0730   29.8600   38.5450 C   0  0  0  0  0  0  0  0  0  0  0  0
   35.6860   29.5810   38.0830 C   0  0  0  0  0  0  0  0  0  0  0  0
   35.1240   28.6090   39.0100 N   0  0  0  0  0  0  0  0  0  0  0  0
   34.9950   29.1650   40.3390 C   0  0  0  0  0  0  0  0  0  0  0  0
   35.9630   30.2570   40.6430 C   0  0  0  0  0  0  0  0  0  0  0  0
   42.0306   33.8589   40.8541 H   0  0  0  0  0  0  0  0  0  0  0  0
   41.4666   31.6133   41.7788 H   0  0  0  0  0  0  0  0  0  0  0  0
   38.2186   34.0415   38.9910 H   0  0  0  0  0  0  0  0  0  0  0  0
   40.6660   30.1812   42.7667 H   0  0  0  0  0  0  0  0  0  0  0  0
   38.9663   30.2575   43.4320 H   0  0  0  0  0  0  0  0  0  0  0  0
   40.6329   27.9868   42.9132 H   0  0  0  0  0  0  0  0  0  0  0  0
   38.9800   28.1291   43.6954 H   0  0  0  0  0  0  0  0  0  0  0  0
   37.3022   27.6190   40.6322 H   0  0  0  0  0  0  0  0  0  0  0  0
   37.1982   28.5384   42.1545 H   0  0  0  0  0  0  0  0  0  0  0  0
   38.8373   29.1954   39.7051 H   0  0  0  0  0  0  0  0  0  0  0  0
   37.4730   30.6860   37.9387 H   0  0  0  0  0  0  0  0  0  0  0  0
   37.6271   28.9170   38.4277 H   0  0  0  0  0  0  0  0  0  0  0  0
   35.0894   30.5051   38.0947 H   0  0  0  0  0  0  0  0  0  0  0  0
   35.6822   29.1940   37.0533 H   0  0  0  0  0  0  0  0  0  0  0  0
   34.1932   28.3237   38.6737 H   0  0  0  0  0  0  0  0  0  0  0  0
   33.9768   29.5671   40.4470 H   0  0  0  0  0  0  0  0  0  0  0  0
   35.2089   28.3486   41.0445 H   0  0  0  0  0  0  0  0  0  0  0  0
   36.1934   30.2103   41.7176 H   0  0  0  0  0  0  0  0  0  0  0  0
   35.4663   31.1849   40.3233 H   0  0  0  0  0  0  0  0  0  0  0  0
  1  2  2  0
  3  2  1  0
  3  7  1  0
  4  3  2  0
  5  6  2  0
  5  4  1  0
  6  1  1  0
  7  8  1  0
  8  9  1  0
 10  9  1  0
 11 10  1  0
 12 11  1  0
 12  7  1  0
 13 12  1  0
 13 18  1  0
 14 13  1  0
 15 14  1  0
 15 16  1  0
 16 17  1  0
 17 18  1  0
  1 19  1  0
  2 20  1  0
  5 21  1  0
  8 22  1  0
  8 23  1  0
  9 24  1  0
  9 25  1  0
 11 26  1  0
 11 27  1  0
 12 28  1  6
 14 29  1  0
 14 30  1  0
 15 31  1  0
 15 32  1  0
 16 33  1  0
 17 34  1  0
 17 35  1  0
 18 36  1  0
 18 37  1  0
M  ISO  8  19  14  20  14  21  14  22  13  23  13  24  13  25  13  26  13
M  ISO  8  27  13  28  13  29  13  30  13  31  13  32  13  33   5  34  13
M  ISO  3  35  13  36  13  37  13
M  END
>  <minimizedAffinity>  (1) 
-4.1758666

>  <minimizedRMSD>  (1) 
4.59884644

$$$$
