
     RDKit          3D

 35 37  0  0  1  0  0  0  0  0999 V2000
   37.7390   28.2190   43.5670 C   0  0  0  0  0  0  0  0  0  0  0  0
   37.7310   26.9870   42.9140 C   0  0  0  0  0  0  0  0  0  0  0  0
   37.3620   26.9020   41.5730 C   0  0  0  0  0  0  0  0  0  0  0  0
   37.0150   28.0610   40.9400 N   0  0  0  0  0  0  0  0  0  0  0  0
   37.0310   29.2470   41.5970 C   0  0  0  0  0  0  0  0  0  0  0  0
   37.3880   29.3120   42.8900 N   0  0  0  0  0  0  0  0  0  0  0  0
   37.3390   25.6600   40.8790 N   0  0  0  0  0  0  0  0  0  0  0  0
   37.0140   24.4410   41.5570 C   0  0  0  0  0  0  0  0  0  0  0  0
   37.5840   23.2120   40.8980 C   0  0  0  0  0  0  0  0  0  0  0  0
   38.1480   23.4360   39.6780 O   0  0  0  0  0  0  0  0  0  0  0  0
   37.5310   24.3500   38.8820 C   0  0  0  0  0  0  0  0  0  0  0  0
   37.6520   25.7030   39.4660 C   0  0  1  0  0  0  0  0  0  0  0  0
   36.9080   26.7360   38.7850 N   0  0  0  0  0  0  0  0  0  0  0  0
   37.7520   27.3640   37.8040 C   0  0  0  0  0  0  0  0  0  0  0  0
   37.3770   26.8710   36.4470 C   0  0  0  0  0  0  0  0  0  0  0  0
   35.9460   26.4270   36.6350 C   0  0  0  0  0  0  0  0  0  0  0  0
   35.7340   26.2680   38.1120 C   0  0  0  0  0  0  0  0  0  0  0  0
   38.0307   28.2878   44.6254 H   0  0  0  0  0  0  0  0  0  0  0  0
   38.0177   26.0766   43.4608 H   0  0  0  0  0  0  0  0  0  0  0  0
   36.7482   30.1670   41.0645 H   0  0  0  0  0  0  0  0  0  0  0  0
   37.4065   24.4988   42.5830 H   0  0  0  0  0  0  0  0  0  0  0  0
   35.9188   24.3410   41.5321 H   0  0  0  0  0  0  0  0  0  0  0  0
   38.3548   22.7925   41.5612 H   0  0  0  0  0  0  0  0  0  0  0  0
   36.7404   22.5259   40.7319 H   0  0  0  0  0  0  0  0  0  0  0  0
   36.4665   24.0893   38.7875 H   0  0  0  0  0  0  0  0  0  0  0  0
   38.0096   24.3434   37.8916 H   0  0  0  0  0  0  0  0  0  0  0  0
   38.7020   25.9989   39.3250 H   0  0  0  0  0  0  0  0  0  0  0  0
   37.6193   28.4551   37.8488 H   0  0  0  0  0  0  0  0  0  0  0  0
   38.8042   27.1173   38.0092 H   0  0  0  0  0  0  0  0  0  0  0  0
   38.0158   26.0295   36.1408 H   0  0  0  0  0  0  0  0  0  0  0  0
   37.4973   27.6298   35.6598 H   0  0  0  0  0  0  0  0  0  0  0  0
   35.2579   27.1851   36.2328 H   0  0  0  0  0  0  0  0  0  0  0  0
   35.7515   25.4837   36.1037 H   0  0  0  0  0  0  0  0  0  0  0  0
   34.8623   26.8594   38.4289 H   0  0  0  0  0  0  0  0  0  0  0  0
   35.5503   25.2117   38.3581 H   0  0  0  0  0  0  0  0  0  0  0  0
  2  1  2  0
  3  2  1  0
  4  3  2  0
  4  5  1  0
  5  6  2  0
  6  1  1  0
  7  8  1  0
  7  3  1  0
  9  8  1  0
 10  9  1  0
 11 12  1  0
 11 10  1  0
 12  7  1  0
 13 14  1  0
 13 12  1  0
 15 16  1  0
 15 14  1  0
 16 17  1  0
 17 13  1  0
  1 18  1  0
  2 19  1  0
  5 20  1  0
  8 21  1  0
  8 22  1  0
  9 23  1  0
  9 24  1  0
 11 25  1  0
 11 26  1  0
 12 27  1  1
 14 28  1  0
 14 29  1  0
 15 30  1  0
 15 31  1  0
 16 32  1  0
 16 33  1  0
 17 34  1  0
 17 35  1  0
M  ISO  8  18  14  19  14  20  14  21  13  22  13  23  13  24  13  25  13
M  ISO  8  26  13  27  13  28  13  29  13  30  13  31  13  32  13  33  13
M  ISO  2  34  13  35  13
M  END
>  <minimizedAffinity>  (1) 
-3.71181178

>  <minimizedRMSD>  (1) 
1.09454668

$$$$
