
     RDKit          3D

 36 38  0  0  1  0  0  0  0  0999 V2000
   38.3030   27.4320   43.5920 C   0  0  0  0  0  0  0  0  0  0  0  0
   38.0200   26.6130   42.4840 C   0  0  0  0  0  0  0  0  0  0  0  0
   37.3660   27.1650   41.3840 C   0  0  0  0  0  0  0  0  0  0  0  0
   37.0470   28.4730   41.4670 N   0  0  0  0  0  0  0  0  0  0  0  0
   37.3160   29.2610   42.5290 C   0  0  0  0  0  0  0  0  0  0  0  0
   37.9420   28.7240   43.5790 N   0  0  0  0  0  0  0  0  0  0  0  0
   37.0450   26.4080   40.2280 N   0  0  0  0  0  0  0  0  0  0  0  0
   36.7030   25.0180   40.3550 C   0  0  0  0  0  0  0  0  0  0  0  0
   36.9580   24.2220   39.1030 C   0  0  0  0  0  0  0  0  0  0  0  0
   37.2880   24.9860   37.9990 O   0  0  0  0  0  0  0  0  0  0  0  0
   36.6050   26.1650   37.9100 C   0  0  0  0  0  0  0  0  0  0  0  0
   37.0780   27.0910   38.9680 C   0  0  1  0  0  0  0  0  0  0  0  0
   36.4860   28.3920   38.9490 N   0  0  0  0  0  0  0  0  0  0  0  0
   35.0940   28.4830   38.7270 C   0  0  0  0  0  0  0  0  0  0  0  0
   34.7290   29.1680   37.4090 C   0  0  0  0  0  0  0  0  0  0  0  0
   35.7910   29.1110   36.5090 O   0  0  0  0  0  0  0  0  0  0  0  0
   36.7720   29.9620   37.0580 C   0  0  0  0  0  0  0  0  0  0  0  0
   37.2770   29.4250   38.3700 C   0  0  0  0  0  0  0  0  0  0  0  0
   38.8198   27.0135   44.4683 H   0  0  0  0  0  0  0  0  0  0  0  0
   38.3107   25.5521   42.4857 H   0  0  0  0  0  0  0  0  0  0  0  0
   37.0260   30.3221   42.5296 H   0  0  0  0  0  0  0  0  0  0  0  0
   37.3005   24.5852   41.1709 H   0  0  0  0  0  0  0  0  0  0  0  0
   35.6230   24.9669   40.5576 H   0  0  0  0  0  0  0  0  0  0  0  0
   37.7868   23.5262   39.3003 H   0  0  0  0  0  0  0  0  0  0  0  0
   36.0162   23.7083   38.8597 H   0  0  0  0  0  0  0  0  0  0  0  0
   36.7800   26.6166   36.9223 H   0  0  0  0  0  0  0  0  0  0  0  0
   35.5292   25.9766   38.0414 H   0  0  0  0  0  0  0  0  0  0  0  0
   38.1248   27.3548   38.7570 H   0  0  0  0  0  0  0  0  0  0  0  0
   34.6758   27.4656   38.7179 H   0  0  0  0  0  0  0  0  0  0  0  0
   34.6770   29.0988   39.5376 H   0  0  0  0  0  0  0  0  0  0  0  0
   33.8567   28.6620   36.9695 H   0  0  0  0  0  0  0  0  0  0  0  0
   34.4976   30.2237   37.6136 H   0  0  0  0  0  0  0  0  0  0  0  0
   37.6135   30.0424   36.3541 H   0  0  0  0  0  0  0  0  0  0  0  0
   36.3213   30.9500   37.2333 H   0  0  0  0  0  0  0  0  0  0  0  0
   38.2896   29.0272   38.2074 H   0  0  0  0  0  0  0  0  0  0  0  0
   37.2430   30.2670   39.0770 H   0  0  0  0  0  0  0  0  0  0  0  0
  2  1  2  0
  3  4  2  0
  3  2  1  0
  4  5  1  0
  5  6  2  0
  6  1  1  0
  7  8  1  0
  7  3  1  0
  9  8  1  0
 10  9  1  0
 11 10  1  0
 11 12  1  0
 12  7  1  0
 13 12  1  0
 14 13  1  0
 15 14  1  0
 16 17  1  0
 16 15  1  0
 17 18  1  0
 18 13  1  0
  1 19  1  0
  2 20  1  0
  5 21  1  0
  8 22  1  0
  8 23  1  0
  9 24  1  0
  9 25  1  0
 11 26  1  0
 11 27  1  0
 12 28  1  6
 14 29  1  0
 14 30  1  0
 15 31  1  0
 15 32  1  0
 17 33  1  0
 17 34  1  0
 18 35  1  0
 18 36  1  0
M  ISO  8  19  14  20  14  21  14  22  13  23  13  24  13  25  13  26  13
M  ISO  8  27  13  28  13  29  13  30  13  31  13  32  13  33  13  34  13
M  ISO  2  35  13  36  13
M  END
>  <minimizedAffinity>  (1) 
-3.97685099

>  <minimizedRMSD>  (1) 
2.07811713

$$$$
