
     RDKit          3D

 50 54  0  0  1  0  0  0  0  0999 V2000
   37.1980   28.1460   40.2840 N   0  0  0  0  0  0  0  0  0  0  0  0
   36.0510   28.4510   41.0220 C   0  0  0  0  0  0  0  0  0  0  0  0
   35.1230   29.4610   40.3680 C   0  0  0  0  0  0  0  0  0  0  0  0
   35.3120   29.4700   38.9870 O   0  0  0  0  0  0  0  0  0  0  0  0
   36.5880   30.0650   38.8370 C   0  0  0  0  0  0  0  0  0  0  0  0
   37.6760   29.1920   39.4220 C   0  0  1  0  0  0  0  0  0  0  0  0
   39.8110   25.2980   43.5570 C   0  0  0  0  0  0  0  0  0  0  0  0
   38.9890   24.9810   42.4560 C   0  0  0  0  0  0  0  0  0  0  0  0
   38.2580   25.9930   41.8410 C   0  0  0  0  0  0  0  0  0  0  0  0
   38.4020   27.2150   42.3600 N   0  0  0  0  0  0  0  0  0  0  0  0
   39.1830   27.5320   43.4110 C   0  0  0  0  0  0  0  0  0  0  0  0
   39.8810   26.5550   43.9960 N   0  0  0  0  0  0  0  0  0  0  0  0
   37.4120   25.7690   40.7340 N   0  0  0  0  0  0  0  0  0  0  0  0
   36.6850   24.5340   40.6240 C   0  0  0  0  0  0  0  0  0  0  0  0
   36.3400   24.1670   39.2060 C   0  0  0  0  0  0  0  0  0  0  0  0
   36.5910   25.1610   38.2860 O   0  0  0  0  0  0  0  0  0  0  0  0
   36.3290   26.4240   38.7320 C   0  0  0  0  0  0  0  0  0  0  0  0
   37.3250   26.8170   39.7550 C   0  0  1  0  0  0  0  0  0  0  0  0
   38.5510   30.1960   40.0880 C   0  0  0  0  0  0  0  0  0  0  0  0
   39.6030   29.6660   40.7790 N   0  0  0  0  0  0  0  0  0  0  0  0
   40.4710   30.4570   41.4340 C   0  0  0  0  0  0  0  0  0  0  0  0
   40.3510   31.8080   41.4440 N   0  0  0  0  0  0  0  0  0  0  0  0
   39.3240   32.3690   40.7730 C   0  0  0  0  0  0  0  0  0  0  0  0
   39.1160   33.7390   40.7270 C   0  0  0  0  0  0  0  0  0  0  0  0
   38.0310   34.2650   40.0150 C   0  0  0  0  0  0  0  0  0  0  0  0
   37.1520   33.4240   39.3500 C   0  0  0  0  0  0  0  0  0  0  0  0
   37.3840   32.0760   39.4140 C   0  0  0  0  0  0  0  0  0  0  0  0
   38.4420   31.5680   40.1080 C   0  0  0  0  0  0  0  0  0  0  0  0
   35.4872   27.5196   41.1789 H   0  0  0  0  0  0  0  0  0  0  0  0
   36.3985   28.9107   41.9590 H   0  0  0  0  0  0  0  0  0  0  0  0
   34.0798   29.1915   40.5895 H   0  0  0  0  0  0  0  0  0  0  0  0
   35.3469   30.4618   40.7658 H   0  0  0  0  0  0  0  0  0  0  0  0
   36.7883   30.2172   37.7662 H   0  0  0  0  0  0  0  0  0  0  0  0
   36.5878   31.0249   39.3743 H   0  0  0  0  0  0  0  0  0  0  0  0
   38.2068   28.5933   38.6671 H   0  0  0  0  0  0  0  0  0  0  0  0
   40.3943   24.5085   44.0535 H   0  0  0  0  0  0  0  0  0  0  0  0
   38.9263   23.9464   42.0877 H   0  0  0  0  0  0  0  0  0  0  0  0
   39.2442   28.5674   43.7774 H   0  0  0  0  0  0  0  0  0  0  0  0
   37.2993   23.7286   41.0529 H   0  0  0  0  0  0  0  0  0  0  0  0
   35.7363   24.6668   41.1647 H   0  0  0  0  0  0  0  0  0  0  0  0
   36.9297   23.2816   38.9261 H   0  0  0  0  0  0  0  0  0  0  0  0
   35.2557   23.9832   39.1832 H   0  0  0  0  0  0  0  0  0  0  0  0
   36.3785   27.1263   37.8868 H   0  0  0  0  0  0  0  0  0  0  0  0
   35.3241   26.4478   39.1787 H   0  0  0  0  0  0  0  0  0  0  0  0
   38.3002   26.9135   39.2553 H   0  0  0  0  0  0  0  0  0  0  0  0
   41.3059   29.9931   41.9797 H   0  0  0  0  0  0  0  0  0  0  0  0
   39.8063   34.4156   41.2521 H   0  0  0  0  0  0  0  0  0  0  0  0
   37.8750   35.3534   39.9831 H   0  0  0  0  0  0  0  0  0  0  0  0
   36.2958   33.8267   38.7890 H   0  0  0  0  0  0  0  0  0  0  0  0
   36.7016   31.3876   38.8939 H   0  0  0  0  0  0  0  0  0  0  0  0
  1  2  1  0
  3  2  1  0
  4  3  1  0
  5  4  1  0
  5  6  1  0
  6 19  1  0
  6  1  1  0
  7 12  2  0
  8  7  1  0
  9 10  1  0
  9  8  2  0
 10 11  2  0
 11 12  1  0
 13  9  1  0
 14 13  1  0
 15 14  1  0
 16 17  1  0
 16 15  1  0
 17 18  1  0
 18  1  1  0
 18 13  1  0
 19 28  1  0
 19 20  2  0
 20 21  1  0
 21 22  2  0
 23 22  1  0
 24 23  2  0
 25 24  1  0
 26 27  1  0
 26 25  2  0
 27 28  2  0
 28 23  1  0
  2 29  1  0
  2 30  1  0
  3 31  1  0
  3 32  1  0
  5 33  1  0
  5 34  1  0
  6 35  1  6
  7 36  1  0
  8 37  1  0
 11 38  1  0
 14 39  1  0
 14 40  1  0
 15 41  1  0
 15 42  1  0
 17 43  1  0
 17 44  1  0
 18 45  1  6
 21 46  1  0
 24 47  1  0
 25 48  1  0
 26 49  1  0
 27 50  1  0
M  ISO  8  29  13  30  13  31  13  32  13  33  13  34  13  35  13  36  14
M  ISO  8  37  14  38  14  39  13  40  13  41  13  42  13  43  13  44  13
M  ISO  6  45  13  46  14  47  14  48  14  49  14  50  14
M  END
>  <minimizedAffinity>  (1) 
-6.63239956

>  <minimizedRMSD>  (1) 
2.09313107

$$$$
