
     RDKit          3D

 47 51  0  0  1  0  0  0  0  0999 V2000
   36.4500   28.4050   38.8590 N   0  0  0  0  0  0  0  0  0  0  0  0
   35.0350   28.4510   38.7730 C   0  0  0  0  0  0  0  0  0  0  0  0
   34.5200   29.0140   37.4420 C   0  0  0  0  0  0  0  0  0  0  0  0
   35.5040   28.9090   36.4470 O   0  0  0  0  0  0  0  0  0  0  0  0
   36.4850   29.8440   36.8530 C   0  0  0  0  0  0  0  0  0  0  0  0
   37.1170   29.4350   38.1530 C   0  0  2  0  0  0  0  0  0  0  0  0
   38.3820   27.7170   43.5020 C   0  0  0  0  0  0  0  0  0  0  0  0
   38.1050   26.8370   42.4320 C   0  0  0  0  0  0  0  0  0  0  0  0
   37.3860   27.3360   41.3370 C   0  0  0  0  0  0  0  0  0  0  0  0
   37.0100   28.6190   41.3790 N   0  0  0  0  0  0  0  0  0  0  0  0
   37.2740   29.4590   42.4010 C   0  0  0  0  0  0  0  0  0  0  0  0
   37.9600   28.9870   43.4490 N   0  0  0  0  0  0  0  0  0  0  0  0
   37.0750   26.5040   40.2280 N   0  0  0  0  0  0  0  0  0  0  0  0
   36.7810   25.1130   40.4030 C   0  0  0  0  0  0  0  0  0  0  0  0
   37.0910   24.2770   39.1840 C   0  0  0  0  0  0  0  0  0  0  0  0
   37.3690   25.0120   38.0380 O   0  0  0  0  0  0  0  0  0  0  0  0
   36.6040   26.1500   37.9220 C   0  0  0  0  0  0  0  0  0  0  0  0
   37.0720   27.1320   38.9290 C   0  0  1  0  0  0  0  0  0  0  0  0
   38.5450   29.2280   38.0230 N   0  0  0  0  0  0  0  0  0  0  0  0
   39.1650   28.5100   37.0400 C   0  0  0  0  0  0  0  0  0  0  0  0
   40.4820   28.4710   37.1460 N   0  0  0  0  0  0  0  0  0  0  0  0
   40.7880   29.1860   38.2410 C   0  0  0  0  0  0  0  0  0  0  0  0
   41.9150   29.5650   38.9420 C   0  0  0  0  0  0  0  0  0  0  0  0
   41.8860   30.3190   40.0530 N   0  0  0  0  0  0  0  0  0  0  0  0
   40.7130   30.7540   40.5470 C   0  0  0  0  0  0  0  0  0  0  0  0
   39.5980   30.3990   39.8850 N   0  0  0  0  0  0  0  0  0  0  0  0
   39.6090   29.6450   38.7730 C   0  0  0  0  0  0  0  0  0  0  0  0
   34.6457   27.4292   38.8926 H   0  0  0  0  0  0  0  0  0  0  0  0
   34.6847   29.1269   39.5670 H   0  0  0  0  0  0  0  0  0  0  0  0
   33.6294   28.4483   37.1307 H   0  0  0  0  0  0  0  0  0  0  0  0
   34.2676   30.0757   37.5802 H   0  0  0  0  0  0  0  0  0  0  0  0
   37.2640   29.9064   36.0788 H   0  0  0  0  0  0  0  0  0  0  0  0
   35.9995   30.8211   36.9928 H   0  0  0  0  0  0  0  0  0  0  0  0
   36.9809   30.3028   38.8151 H   0  0  0  0  0  0  0  0  0  0  0  0
   38.9436   27.3595   44.3776 H   0  0  0  0  0  0  0  0  0  0  0  0
   38.4437   25.7907   42.4574 H   0  0  0  0  0  0  0  0  0  0  0  0
   36.9343   30.5049   42.3738 H   0  0  0  0  0  0  0  0  0  0  0  0
   37.3767   24.7340   41.2465 H   0  0  0  0  0  0  0  0  0  0  0  0
   35.6998   25.0301   40.5875 H   0  0  0  0  0  0  0  0  0  0  0  0
   37.9657   23.6497   39.4107 H   0  0  0  0  0  0  0  0  0  0  0  0
   36.1860   23.6902   38.9681 H   0  0  0  0  0  0  0  0  0  0  0  0
   36.7155   26.5715   36.9121 H   0  0  0  0  0  0  0  0  0  0  0  0
   35.5434   25.9117   38.0904 H   0  0  0  0  0  0  0  0  0  0  0  0
   38.1100   27.4085   38.6921 H   0  0  0  0  0  0  0  0  0  0  0  0
   38.6157   28.0077   36.2301 H   0  0  0  0  0  0  0  0  0  0  0  0
   42.8940   29.2299   38.5689 H   0  0  0  0  0  0  0  0  0  0  0  0
   40.6679   31.3741   41.4544 H   0  0  0  0  0  0  0  0  0  0  0  0
  1  2  1  0
  1 18  1  0
  3  2  1  0
  4  5  1  0
  4  3  1  0
  5  6  1  0
  6  1  1  0
  8  7  2  0
  9 10  2  0
  9  8  1  0
 10 11  1  0
 11 12  2  0
 12  7  1  0
 13 14  1  0
 13  9  1  0
 15 14  1  0
 16 15  1  0
 17 16  1  0
 17 18  1  0
 18 13  1  0
 19  6  1  0
 19 27  1  0
 20 21  2  0
 20 19  1  0
 21 22  1  0
 22 27  2  0
 22 23  1  0
 23 24  2  0
 24 25  1  0
 26 25  2  0
 27 26  1  0
  2 28  1  0
  2 29  1  0
  3 30  1  0
  3 31  1  0
  5 32  1  0
  5 33  1  0
  6 34  1  1
  7 35  1  0
  8 36  1  0
 11 37  1  0
 14 38  1  0
 14 39  1  0
 15 40  1  0
 15 41  1  0
 17 42  1  0
 17 43  1  0
 18 44  1  6
 20 45  1  0
 23 46  1  0
 25 47  1  0
M  ISO  8  28  13  29  13  30  13  31  13  32  13  33  13  34  13  35  14
M  ISO  8  36  14  37  14  38  13  39  13  40  13  41  13  42  13  43  13
M  ISO  4  44  13  45  14  46  14  47  14
M  END
>  <minimizedAffinity>  (1) 
-4.89242744

>  <minimizedRMSD>  (1) 
1.13642311

$$$$
