
     RDKit          3D

 46 49  0  0  1  0  0  0  0  0999 V2000
   38.3210   27.4300   43.5820 C   0  0  0  0  0  0  0  0  0  0  0  0
   38.0310   26.6120   42.4740 C   0  0  0  0  0  0  0  0  0  0  0  0
   37.3660   27.1710   41.3780 C   0  0  0  0  0  0  0  0  0  0  0  0
   37.0430   28.4790   41.4620 N   0  0  0  0  0  0  0  0  0  0  0  0
   37.3190   29.2660   42.5230 C   0  0  0  0  0  0  0  0  0  0  0  0
   37.9570   28.7270   43.5720 N   0  0  0  0  0  0  0  0  0  0  0  0
   37.0490   26.4080   40.2330 N   0  0  0  0  0  0  0  0  0  0  0  0
   36.7050   25.0220   40.3540 C   0  0  0  0  0  0  0  0  0  0  0  0
   36.9180   24.2260   39.0870 C   0  0  0  0  0  0  0  0  0  0  0  0
   37.2950   24.9860   37.9950 O   0  0  0  0  0  0  0  0  0  0  0  0
   36.6170   26.1700   37.9030 C   0  0  0  0  0  0  0  0  0  0  0  0
   37.0920   27.0860   38.9600 C   0  0  1  0  0  0  0  0  0  0  0  0
   36.5000   28.3960   38.9540 N   0  0  0  0  0  0  0  0  0  0  0  0
   35.1130   28.4830   38.7530 C   0  0  0  0  0  0  0  0  0  0  0  0
   34.7140   29.1470   37.4350 C   0  0  0  0  0  0  0  0  0  0  0  0
   35.7670   29.0790   36.5090 O   0  0  0  0  0  0  0  0  0  0  0  0
   36.7350   29.9410   37.0330 C   0  0  0  0  0  0  0  0  0  0  0  0
   37.2860   29.4160   38.3290 C   0  0  2  0  0  0  0  0  0  0  0  0
   38.7270   29.1170   38.2550 C   0  0  0  0  0  0  0  0  0  0  0  0
   39.3150   28.6020   37.0970 C   0  0  0  0  0  0  0  0  0  0  0  0
   40.6540   28.3200   36.9630 C   0  0  0  0  0  0  0  0  0  0  0  0
   41.5040   28.5470   38.0220 C   0  0  0  0  0  0  0  0  0  0  0  0
   40.9990   29.0530   39.1980 C   0  0  0  0  0  0  0  0  0  0  0  0
   39.6480   29.3110   39.2560 C   0  0  0  0  0  0  0  0  0  0  0  0
   38.8439   27.0111   44.4544 H   0  0  0  0  0  0  0  0  0  0  0  0
   38.3224   25.5513   42.4701 H   0  0  0  0  0  0  0  0  0  0  0  0
   37.0269   30.3265   42.5272 H   0  0  0  0  0  0  0  0  0  0  0  0
   37.3232   24.5797   41.1491 H   0  0  0  0  0  0  0  0  0  0  0  0
   35.6298   24.9783   40.5819 H   0  0  0  0  0  0  0  0  0  0  0  0
   37.7046   23.4807   39.2763 H   0  0  0  0  0  0  0  0  0  0  0  0
   35.9494   23.7699   38.8345 H   0  0  0  0  0  0  0  0  0  0  0  0
   36.7978   26.6216   36.9164 H   0  0  0  0  0  0  0  0  0  0  0  0
   35.5392   25.9890   38.0282 H   0  0  0  0  0  0  0  0  0  0  0  0
   38.1407   27.3316   38.7367 H   0  0  0  0  0  0  0  0  0  0  0  0
   34.6974   27.4646   38.7665 H   0  0  0  0  0  0  0  0  0  0  0  0
   34.7144   29.1151   39.5602 H   0  0  0  0  0  0  0  0  0  0  0  0
   33.8351   28.6307   37.0216 H   0  0  0  0  0  0  0  0  0  0  0  0
   34.4786   30.2041   37.6274 H   0  0  0  0  0  0  0  0  0  0  0  0
   37.5564   30.0411   36.3082 H   0  0  0  0  0  0  0  0  0  0  0  0
   36.2653   30.9171   37.2242 H   0  0  0  0  0  0  0  0  0  0  0  0
   37.1939   30.2551   39.0343 H   0  0  0  0  0  0  0  0  0  0  0  0
   38.6619   28.4089   36.2332 H   0  0  0  0  0  0  0  0  0  0  0  0
   41.0432   27.9160   36.0168 H   0  0  0  0  0  0  0  0  0  0  0  0
   42.5775   28.3258   37.9290 H   0  0  0  0  0  0  0  0  0  0  0  0
   41.6524   29.2447   40.0619 H   0  0  0  0  0  0  0  0  0  0  0  0
   39.2651   29.7155   40.2046 H   0  0  0  0  0  0  0  0  0  0  0  0
  2  1  2  0
  3  4  2  0
  3  2  1  0
  4  5  1  0
  5  6  2  0
  6  1  1  0
  7  8  1  0
  7  3  1  0
  9  8  1  0
 10  9  1  0
 11 10  1  0
 11 12  1  0
 12  7  1  0
 13 14  1  0
 13 12  1  0
 15 14  1  0
 16 17  1  0
 16 15  1  0
 17 18  1  0
 18 13  1  0
 19 18  1  0
 19 24  1  0
 20 19  2  0
 21 20  1  0
 21 22  2  0
 22 23  1  0
 23 24  2  0
  1 25  1  0
  2 26  1  0
  5 27  1  0
  8 28  1  0
  8 29  1  0
  9 30  1  0
  9 31  1  0
 11 32  1  0
 11 33  1  0
 12 34  1  6
 14 35  1  0
 14 36  1  0
 15 37  1  0
 15 38  1  0
 17 39  1  0
 17 40  1  0
 18 41  1  1
 20 42  1  0
 21 43  1  0
 22 44  1  0
 23 45  1  0
 24 46  1  0
M  ISO  8  25  14  26  14  27  14  28  13  29  13  30  13  31  13  32  13
M  ISO  8  33  13  34  13  35  13  36  13  37  13  38  13  39  13  40  13
M  ISO  6  41  13  42  14  43  14  44  14  45  14  46  14
M  END
>  <minimizedAffinity>  (1) 
-4.60643387

>  <minimizedRMSD>  (1) 
0.397874177

$$$$
