
     RDKit          3D

 37 39  0  0  1  0  0  0  0  0999 V2000
   40.0280   31.9630   40.9830 C   0  0  0  0  0  0  0  0  0  0  0  0
   39.5640   30.7350   41.4970 C   0  0  0  0  0  0  0  0  0  0  0  0
   38.2130   30.4680   41.4660 C   0  0  0  0  0  0  0  0  0  0  0  0
   37.3700   31.4060   40.9350 N   0  0  0  0  0  0  0  0  0  0  0  0
   37.8460   32.5780   40.4480 C   0  0  0  0  0  0  0  0  0  0  0  0
   39.1740   32.8580   40.4720 N   0  0  0  0  0  0  0  0  0  0  0  0
   36.9020   33.5150   39.9080 N   0  0  0  0  0  0  0  0  0  0  0  0
   37.6730   29.2560   41.9630 N   0  0  0  0  0  0  0  0  0  0  0  0
   37.8660   28.9060   43.3430 C   0  0  0  0  0  0  0  0  0  0  0  0
   36.7730   27.8950   43.6900 C   0  0  0  0  0  0  0  0  0  0  0  0
   36.8530   26.7230   42.8810 N   0  0  0  0  0  0  0  0  0  0  0  0
   37.1950   26.9360   41.5190 C   0  0  0  0  0  0  0  0  0  0  0  0
   36.9350   28.3720   41.1120 C   0  0  2  0  0  0  0  0  0  0  0  0
   37.2430   28.4920   39.7060 N   0  0  0  0  0  0  0  0  0  0  0  0
   36.2780   29.0610   38.9710 C   0  0  0  0  0  0  0  0  0  0  0  0
   36.4690   29.2240   37.6140 C   0  0  0  0  0  0  0  0  0  0  0  0
   37.6790   28.7690   37.1310 C   0  0  0  0  0  0  0  0  0  0  0  0
   38.0240   28.8660   35.7540 N   0  0  0  0  0  0  0  0  0  0  0  0
   38.6530   28.1910   37.8840 N   0  0  0  0  0  0  0  0  0  0  0  0
   38.4120   28.0550   39.2210 C   0  0  0  0  0  0  0  0  0  0  0  0
   39.2460   27.5350   40.0050 O   0  0  0  0  0  0  0  0  0  0  0  0
   41.1045   32.1883   41.0021 H   0  0  0  0  0  0  0  0  0  0  0  0
   40.2692   30.0021   41.9159 H   0  0  0  0  0  0  0  0  0  0  0  0
   35.8978   33.2863   39.8977 H   0  0  0  0  0  0  0  0  0  0  0  0
   37.2289   34.4160   39.5309 H   0  0  0  0  0  0  0  0  0  0  0  0
   38.8595   28.4559   43.4858 H   0  0  0  0  0  0  0  0  0  0  0  0
   37.8082   29.7932   43.9908 H   0  0  0  0  0  0  0  0  0  0  0  0
   36.8792   27.6056   44.7459 H   0  0  0  0  0  0  0  0  0  0  0  0
   35.7987   28.3706   43.5038 H   0  0  0  0  0  0  0  0  0  0  0  0
   37.5647   26.1026   43.2925 H   0  0  0  0  0  0  0  0  0  0  0  0
   38.2619   26.7092   41.3763 H   0  0  0  0  0  0  0  0  0  0  0  0
   36.5740   26.2769   40.8946 H   0  0  0  0  0  0  0  0  0  0  0  0
   35.8817   28.6614   41.2413 H   0  0  0  0  0  0  0  0  0  0  0  0
   35.3429   29.3949   39.4445 H   0  0  0  0  0  0  0  0  0  0  0  0
   35.7105   29.6840   36.9635 H   0  0  0  0  0  0  0  0  0  0  0  0
   38.9356   28.5167   35.4256 H   0  0  0  0  0  0  0  0  0  0  0  0
   37.3621   29.2855   35.0856 H   0  0  0  0  0  0  0  0  0  0  0  0
  1  2  2  0
  3  2  1  0
  3  8  1  0
  4  3  2  0
  5  6  2  0
  5  4  1  0
  6  1  1  0
  7  5  1  0
  8  9  1  0
  9 10  1  0
 11 10  1  0
 12 11  1  0
 13 12  1  0
 13  8  1  0
 14 13  1  0
 15 14  1  0
 16 15  2  0
 17 16  1  0
 17 19  2  0
 18 17  1  0
 19 20  1  0
 20 14  1  0
 20 21  2  0
  1 22  1  0
  2 23  1  0
  7 24  1  0
  7 25  1  0
  9 26  1  0
  9 27  1  0
 10 28  1  0
 10 29  1  0
 11 30  1  0
 12 31  1  0
 12 32  1  0
 13 33  1  6
 15 34  1  0
 16 35  1  0
 18 36  1  0
 18 37  1  0
M  ISO  8  22  14  23  14  26  13  27  13  28  13  29  13  30   5  31  13
M  ISO  4  32  13  33  13  34  14  35  14
M  END
>  <minimizedAffinity>  (1) 
-5.76457453

>  <minimizedRMSD>  (1) 
0.962223709

$$$$
