
     RDKit          3D

 48 50  0  0  1  0  0  0  0  0999 V2000
   38.2090   27.4690   43.6790 C   0  0  0  0  0  0  0  0  0  0  0  0
   37.9550   26.6450   42.5640 C   0  0  0  0  0  0  0  0  0  0  0  0
   37.3360   27.2080   41.4430 C   0  0  0  0  0  0  0  0  0  0  0  0
   37.0250   28.5090   41.5090 N   0  0  0  0  0  0  0  0  0  0  0  0
   37.2680   29.2970   42.5770 C   0  0  0  0  0  0  0  0  0  0  0  0
   37.8570   28.7690   43.6480 N   0  0  0  0  0  0  0  0  0  0  0  0
   37.0640   26.4320   40.2880 N   0  0  0  0  0  0  0  0  0  0  0  0
   36.7440   25.0350   40.4120 C   0  0  0  0  0  0  0  0  0  0  0  0
   36.9780   24.2470   39.1460 C   0  0  0  0  0  0  0  0  0  0  0  0
   37.3780   25.0170   38.0690 O   0  0  0  0  0  0  0  0  0  0  0  0
   36.6650   26.1780   37.9640 C   0  0  0  0  0  0  0  0  0  0  0  0
   37.1330   27.1040   39.0250 C   0  0  1  0  0  0  0  0  0  0  0  0
   36.5920   28.4000   38.9530 N   0  0  0  0  0  0  0  0  0  0  0  0
   35.1880   28.5000   38.7980 C   0  0  0  0  0  0  0  0  0  0  0  0
   34.7280   29.1260   37.4920 C   0  0  0  0  0  0  0  0  0  0  0  0
   35.7420   29.0590   36.5540 O   0  0  0  0  0  0  0  0  0  0  0  0
   36.7200   29.9500   37.0660 C   0  0  0  0  0  0  0  0  0  0  0  0
   37.2650   29.4680   38.3920 C   0  0  2  0  0  0  0  0  0  0  0  0
   38.7220   29.5930   38.2470 C   0  0  0  0  0  0  0  0  0  0  0  0
   39.5530   29.5400   39.5000 C   0  0  0  0  0  0  0  0  0  0  0  0
   38.9250   31.0160   37.7340 C   0  0  0  0  0  0  0  0  0  0  0  0
   39.3190   28.6880   37.1600 C   0  0  0  0  0  0  0  0  0  0  0  0
   38.6941   27.0511   44.5734 H   0  0  0  0  0  0  0  0  0  0  0  0
   38.2375   25.5820   42.5751 H   0  0  0  0  0  0  0  0  0  0  0  0
   36.9838   30.3596   42.5631 H   0  0  0  0  0  0  0  0  0  0  0  0
   37.3675   24.6049   41.2097 H   0  0  0  0  0  0  0  0  0  0  0  0
   35.6698   24.9690   40.6393 H   0  0  0  0  0  0  0  0  0  0  0  0
   37.7587   23.4979   39.3444 H   0  0  0  0  0  0  0  0  0  0  0  0
   36.0144   23.7928   38.8716 H   0  0  0  0  0  0  0  0  0  0  0  0
   36.8315   26.6296   36.9749 H   0  0  0  0  0  0  0  0  0  0  0  0
   35.5899   25.9768   38.0808 H   0  0  0  0  0  0  0  0  0  0  0  0
   38.1932   27.3471   38.8612 H   0  0  0  0  0  0  0  0  0  0  0  0
   34.7652   27.4862   38.8578 H   0  0  0  0  0  0  0  0  0  0  0  0
   34.8376   29.1679   39.5987 H   0  0  0  0  0  0  0  0  0  0  0  0
   33.8482   28.5825   37.1172 H   0  0  0  0  0  0  0  0  0  0  0  0
   34.4673   30.1800   37.6682 H   0  0  0  0  0  0  0  0  0  0  0  0
   37.5475   30.0259   36.3452 H   0  0  0  0  0  0  0  0  0  0  0  0
   36.2471   30.9309   37.2219 H   0  0  0  0  0  0  0  0  0  0  0  0
   37.0367   30.0537   39.2947 H   0  0  0  0  0  0  0  0  0  0  0  0
   38.8935   29.5821   40.3794 H   0  0  0  0  0  0  0  0  0  0  0  0
   40.1294   28.6033   39.5184 H   0  0  0  0  0  0  0  0  0  0  0  0
   40.2437   30.3959   39.5184 H   0  0  0  0  0  0  0  0  0  0  0  0
   39.0230   31.7030   38.5875 H   0  0  0  0  0  0  0  0  0  0  0  0
   39.8383   31.0585   37.1224 H   0  0  0  0  0  0  0  0  0  0  0  0
   38.0600   31.3122   37.1224 H   0  0  0  0  0  0  0  0  0  0  0  0
   39.8659   27.8589   37.6328 H   0  0  0  0  0  0  0  0  0  0  0  0
   38.5097   28.2838   36.5342 H   0  0  0  0  0  0  0  0  0  0  0  0
   40.0091   29.2729   36.5342 H   0  0  0  0  0  0  0  0  0  0  0  0
  2  1  2  0
  3  4  2  0
  3  2  1  0
  4  5  1  0
  5  6  2  0
  6  1  1  0
  7  8  1  0
  7  3  1  0
  9  8  1  0
 10  9  1  0
 11 10  1  0
 11 12  1  0
 12  7  1  0
 13 14  1  0
 13 12  1  0
 15 14  1  0
 16 17  1  0
 16 15  1  0
 17 18  1  0
 18 13  1  0
 19 18  1  0
 19 20  1  0
 21 19  1  0
 22 19  1  0
  1 23  1  0
  2 24  1  0
  5 25  1  0
  8 26  1  0
  8 27  1  0
  9 28  1  0
  9 29  1  0
 11 30  1  0
 11 31  1  0
 12 32  1  6
 14 33  1  0
 14 34  1  0
 15 35  1  0
 15 36  1  0
 17 37  1  0
 17 38  1  0
 18 39  1  1
 20 40  1  0
 20 41  1  0
 20 42  1  0
 21 43  1  0
 21 44  1  0
 21 45  1  0
 22 46  1  0
 22 47  1  0
 22 48  1  0
M  ISO  8  23  14  24  14  25  14  26  13  27  13  28  13  29  13  30  13
M  ISO  8  31  13  32  13  33  13  34  13  35  13  36  13  37  13  38  13
M  ISO  8  39  13  40   8  41   8  42   8  43   8  44   8  45   8  46   8
M  ISO  2  47   8  48   8
M  END
>  <minimizedAffinity>  (1) 
-4.44858074

>  <minimizedRMSD>  (1) 
0.279837638

$$$$
