
     RDKit          3D

 37 40  0  0  1  0  0  0  0  0999 V2000
   39.7790   31.9300   41.6070 C   0  0  0  0  0  0  0  0  0  0  0  0
   39.3640   30.6270   42.0200 C   0  0  0  0  0  0  0  0  0  0  0  0
   38.0860   30.2360   41.6830 C   0  0  0  0  0  0  0  0  0  0  0  0
   37.2870   31.0910   40.9840 N   0  0  0  0  0  0  0  0  0  0  0  0
   37.7060   32.3150   40.6070 C   0  0  0  0  0  0  0  0  0  0  0  0
   38.9410   32.7400   40.9110 N   0  0  0  0  0  0  0  0  0  0  0  0
   36.8210   33.1620   39.8790 N   0  0  0  0  0  0  0  0  0  0  0  0
   37.5910   28.9560   42.0530 N   0  0  0  0  0  0  0  0  0  0  0  0
   37.5360   28.5790   43.4260 C   0  0  0  0  0  0  0  0  0  0  0  0
   36.4950   27.4600   43.5340 C   0  0  0  0  0  0  0  0  0  0  0  0
   36.8200   26.3210   42.7300 N   0  0  0  0  0  0  0  0  0  0  0  0
   37.4640   26.6140   41.4830 C   0  0  0  0  0  0  0  0  0  0  0  0
   37.1430   28.0270   41.0540 C   0  0  2  0  0  0  0  0  0  0  0  0
   37.5070   28.3120   39.7070 N   0  0  0  0  0  0  0  0  0  0  0  0
   38.7470   28.3220   39.1820 C   0  0  0  0  0  0  0  0  0  0  0  0
   38.7230   28.6350   37.8670 N   0  0  0  0  0  0  0  0  0  0  0  0
   37.4240   28.8390   37.5110 C   0  0  0  0  0  0  0  0  0  0  0  0
   36.7230   29.1680   36.3900 C   0  0  0  0  0  0  0  0  0  0  0  0
   35.3790   29.2920   36.3830 N   0  0  0  0  0  0  0  0  0  0  0  0
   34.6700   29.0890   37.5220 C   0  0  0  0  0  0  0  0  0  0  0  0
   35.3410   28.7580   38.6640 N   0  0  0  0  0  0  0  0  0  0  0  0
   36.6950   28.6330   38.6650 C   0  0  0  0  0  0  0  0  0  0  0  0
   40.7910   32.2817   41.8563 H   0  0  0  0  0  0  0  0  0  0  0  0
   40.0363   29.9634   42.5835 H   0  0  0  0  0  0  0  0  0  0  0  0
   35.8723   32.8362   39.6452 H   0  0  0  0  0  0  0  0  0  0  0  0
   37.1300   34.1000   39.5866 H   0  0  0  0  0  0  0  0  0  0  0  0
   38.5193   28.2154   43.7590 H   0  0  0  0  0  0  0  0  0  0  0  0
   37.2639   29.4352   44.0608 H   0  0  0  0  0  0  0  0  0  0  0  0
   36.4292   27.1413   44.5848 H   0  0  0  0  0  0  0  0  0  0  0  0
   35.5381   27.8612   43.1688 H   0  0  0  0  0  0  0  0  0  0  0  0
   37.4472   25.7141   43.2770 H   0  0  0  0  0  0  0  0  0  0  0  0
   38.5524   26.5078   41.6015 H   0  0  0  0  0  0  0  0  0  0  0  0
   37.1016   25.9132   40.7165 H   0  0  0  0  0  0  0  0  0  0  0  0
   36.0509   28.1501   41.0067 H   0  0  0  0  0  0  0  0  0  0  0  0
   39.6629   28.1033   39.7507 H   0  0  0  0  0  0  0  0  0  0  0  0
   37.2742   29.3393   35.4536 H   0  0  0  0  0  0  0  0  0  0  0  0
   33.5746   29.1893   37.5252 H   0  0  0  0  0  0  0  0  0  0  0  0
  1  2  2  0
  3  2  1  0
  3  8  1  0
  4  3  2  0
  5  6  2  0
  5  4  1  0
  6  1  1  0
  7  5  1  0
  8  9  1  0
  9 10  1  0
 11 10  1  0
 12 11  1  0
 13 12  1  0
 13  8  1  0
 14 13  1  0
 15 14  1  0
 16 15  2  0
 17 16  1  0
 17 22  2  0
 18 17  1  0
 19 18  2  0
 19 20  1  0
 20 21  2  0
 21 22  1  0
 22 14  1  0
  1 23  1  0
  2 24  1  0
  7 25  1  0
  7 26  1  0
  9 27  1  0
  9 28  1  0
 10 29  1  0
 10 30  1  0
 11 31  1  0
 12 32  1  0
 12 33  1  0
 13 34  1  6
 15 35  1  0
 18 36  1  0
 20 37  1  0
M  ISO  8  23  14  24  14  27  13  28  13  29  13  30  13  31   5  32  13
M  ISO  5  33  13  34  13  35  14  36  14  37  14
M  END
>  <minimizedAffinity>  (1) 
-5.71021318

>  <minimizedRMSD>  (1) 
2.02153993

$$$$
