
     RDKit          3D

 42 45  0  0  1  0  0  0  0  0999 V2000
   38.3440   27.4380   43.5630 C   0  0  0  0  0  0  0  0  0  0  0  0
   38.0510   26.6190   42.4560 C   0  0  0  0  0  0  0  0  0  0  0  0
   37.3760   27.1590   41.3730 C   0  0  0  0  0  0  0  0  0  0  0  0
   37.0440   28.4580   41.4650 N   0  0  0  0  0  0  0  0  0  0  0  0
   37.3160   29.2610   42.5200 C   0  0  0  0  0  0  0  0  0  0  0  0
   37.9670   28.7280   43.5560 N   0  0  0  0  0  0  0  0  0  0  0  0
   37.0460   26.4090   40.2280 N   0  0  0  0  0  0  0  0  0  0  0  0
   36.6930   25.0230   40.3420 C   0  0  0  0  0  0  0  0  0  0  0  0
   36.9460   24.2260   39.0840 C   0  0  0  0  0  0  0  0  0  0  0  0
   37.2900   24.9920   37.9890 O   0  0  0  0  0  0  0  0  0  0  0  0
   36.5710   26.1650   37.9100 C   0  0  0  0  0  0  0  0  0  0  0  0
   37.0800   27.0940   38.9570 C   0  0  1  0  0  0  0  0  0  0  0  0
   36.4900   28.3870   38.9380 N   0  0  0  0  0  0  0  0  0  0  0  0
   35.0950   28.4910   38.7690 C   0  0  0  0  0  0  0  0  0  0  0  0
   34.6750   29.1440   37.4550 C   0  0  0  0  0  0  0  0  0  0  0  0
   35.7040   29.0940   36.5280 O   0  0  0  0  0  0  0  0  0  0  0  0
   36.7040   29.9500   37.0360 C   0  0  0  0  0  0  0  0  0  0  0  0
   37.2430   29.4290   38.3400 C   0  0  2  0  0  0  0  0  0  0  0  0
   38.6510   29.1040   38.2080 N   0  0  0  0  0  0  0  0  0  0  0  0
   39.6640   29.1930   39.0970 C   0  0  0  0  0  0  0  0  0  0  0  0
   40.8230   28.7810   38.5490 N   0  0  0  0  0  0  0  0  0  0  0  0
   40.5160   28.4280   37.2920 C   0  0  0  0  0  0  0  0  0  0  0  0
   39.2100   28.6220   37.0860 N   0  0  0  0  0  0  0  0  0  0  0  0
   38.8793   27.0238   44.4301 H   0  0  0  0  0  0  0  0  0  0  0  0
   38.3547   25.5618   42.4508 H   0  0  0  0  0  0  0  0  0  0  0  0
   37.0107   30.3178   42.5234 H   0  0  0  0  0  0  0  0  0  0  0  0
   37.2832   24.5804   41.1580 H   0  0  0  0  0  0  0  0  0  0  0  0
   35.6110   24.9820   40.5361 H   0  0  0  0  0  0  0  0  0  0  0  0
   37.7656   23.5196   39.2821 H   0  0  0  0  0  0  0  0  0  0  0  0
   36.0007   23.7224   38.8332 H   0  0  0  0  0  0  0  0  0  0  0  0
   36.7029   26.6164   36.9156 H   0  0  0  0  0  0  0  0  0  0  0  0
   35.5005   25.9659   38.0664 H   0  0  0  0  0  0  0  0  0  0  0  0
   38.1277   27.3469   38.7372 H   0  0  0  0  0  0  0  0  0  0  0  0
   34.6660   27.4787   38.8046 H   0  0  0  0  0  0  0  0  0  0  0  0
   34.7241   29.1375   39.5780 H   0  0  0  0  0  0  0  0  0  0  0  0
   33.8005   28.6123   37.0517 H   0  0  0  0  0  0  0  0  0  0  0  0
   34.4272   30.1980   37.6492 H   0  0  0  0  0  0  0  0  0  0  0  0
   37.5254   30.0168   36.3074 H   0  0  0  0  0  0  0  0  0  0  0  0
   36.2630   30.9428   37.2089 H   0  0  0  0  0  0  0  0  0  0  0  0
   37.1342   30.2526   39.0610 H   0  0  0  0  0  0  0  0  0  0  0  0
   39.5566   29.5538   40.1306 H   0  0  0  0  0  0  0  0  0  0  0  0
   41.2272   28.0400   36.5479 H   0  0  0  0  0  0  0  0  0  0  0  0
  2  1  2  0
  3  4  2  0
  3  2  1  0
  4  5  1  0
  5  6  2  0
  6  1  1  0
  7  8  1  0
  7  3  1  0
  9  8  1  0
 10  9  1  0
 11 10  1  0
 11 12  1  0
 12  7  1  0
 13 14  1  0
 13 12  1  0
 15 14  1  0
 16 17  1  0
 16 15  1  0
 17 18  1  0
 18 13  1  0
 19 18  1  0
 19 20  1  0
 21 20  2  0
 22 21  1  0
 23 22  2  0
 23 19  1  0
  1 24  1  0
  2 25  1  0
  5 26  1  0
  8 27  1  0
  8 28  1  0
  9 29  1  0
  9 30  1  0
 11 31  1  0
 11 32  1  0
 12 33  1  6
 14 34  1  0
 14 35  1  0
 15 36  1  0
 15 37  1  0
 17 38  1  0
 17 39  1  0
 18 40  1  1
 20 41  1  0
 22 42  1  0
M  ISO  8  24  14  25  14  26  14  27  13  28  13  29  13  30  13  31  13
M  ISO  8  32  13  33  13  34  13  35  13  36  13  37  13  38  13  39  13
M  ISO  3  40  13  41  14  42  14
M  END
>  <minimizedAffinity>  (1) 
-4.40509748

>  <minimizedRMSD>  (1) 
0.139651448

$$$$
