
     RDKit          3D

 39 41  0  0  1  0  0  0  0  0999 V2000
   38.3010   27.4450   43.6610 C   0  0  0  0  0  0  0  0  0  0  0  0
   38.0470   26.6340   42.5470 C   0  0  0  0  0  0  0  0  0  0  0  0
   37.3960   27.1830   41.4430 C   0  0  0  0  0  0  0  0  0  0  0  0
   37.0500   28.4810   41.5300 N   0  0  0  0  0  0  0  0  0  0  0  0
   37.2920   29.2630   42.5980 C   0  0  0  0  0  0  0  0  0  0  0  0
   37.9150   28.7340   43.6520 N   0  0  0  0  0  0  0  0  0  0  0  0
   37.1060   26.4250   40.2780 N   0  0  0  0  0  0  0  0  0  0  0  0
   36.7780   25.0300   40.3920 C   0  0  0  0  0  0  0  0  0  0  0  0
   37.0860   24.2470   39.1310 C   0  0  0  0  0  0  0  0  0  0  0  0
   37.4300   25.0280   38.0430 O   0  0  0  0  0  0  0  0  0  0  0  0
   36.7000   26.1860   37.9440 C   0  0  0  0  0  0  0  0  0  0  0  0
   37.1580   27.1180   39.0200 C   0  0  1  0  0  0  0  0  0  0  0  0
   36.5220   28.3860   38.9970 N   0  0  0  0  0  0  0  0  0  0  0  0
   35.1560   28.4740   38.7180 C   0  0  0  0  0  0  0  0  0  0  0  0
   34.8510   29.1920   37.4090 C   0  0  0  0  0  0  0  0  0  0  0  0
   35.9230   29.1610   36.5420 O   0  0  0  0  0  0  0  0  0  0  0  0
   36.8780   30.0080   37.1420 C   0  0  0  0  0  0  0  0  0  0  0  0
   37.3000   29.4860   38.5020 C   0  0  2  0  0  0  0  0  0  0  0  0
   38.7470   29.2090   38.5180 C   0  0  0  0  0  0  0  0  0  0  0  0
   39.4060   29.7040   37.5500 O   0  0  0  0  0  0  0  0  0  0  0  0
   40.0550   28.8280   38.7390 O   0  0  0  0  0  0  0  0  0  0  0  0
   38.8145   27.0291   44.5404 H   0  0  0  0  0  0  0  0  0  0  0  0
   38.3570   25.5786   42.5435 H   0  0  0  0  0  0  0  0  0  0  0  0
   36.9819   30.3184   42.6017 H   0  0  0  0  0  0  0  0  0  0  0  0
   37.3571   24.5999   41.2225 H   0  0  0  0  0  0  0  0  0  0  0  0
   35.6946   24.9588   40.5686 H   0  0  0  0  0  0  0  0  0  0  0  0
   37.9235   23.5666   39.3445 H   0  0  0  0  0  0  0  0  0  0  0  0
   36.1618   23.7170   38.8571 H   0  0  0  0  0  0  0  0  0  0  0  0
   36.8627   26.6461   36.9582 H   0  0  0  0  0  0  0  0  0  0  0  0
   35.6273   25.9708   38.0577 H   0  0  0  0  0  0  0  0  0  0  0  0
   38.2055   27.3984   38.8351 H   0  0  0  0  0  0  0  0  0  0  0  0
   34.7454   27.4551   38.6608 H   0  0  0  0  0  0  0  0  0  0  0  0
   34.6967   29.0624   39.5259 H   0  0  0  0  0  0  0  0  0  0  0  0
   33.9907   28.7037   36.9279 H   0  0  0  0  0  0  0  0  0  0  0  0
   34.6316   30.2446   37.6414 H   0  0  0  0  0  0  0  0  0  0  0  0
   37.7627   30.0684   36.4911 H   0  0  0  0  0  0  0  0  0  0  0  0
   36.4253   31.0015   37.2765 H   0  0  0  0  0  0  0  0  0  0  0  0
   37.0859   30.2933   39.2178 H   0  0  0  0  0  0  0  0  0  0  0  0
   40.7638   29.0993   38.1033 H   0  0  0  0  0  0  0  0  0  0  0  0
  2  1  2  0
  3  4  2  0
  3  2  1  0
  4  5  1  0
  5  6  2  0
  6  1  1  0
  7  8  1  0
  7  3  1  0
  9  8  1  0
 10  9  1  0
 11 10  1  0
 11 12  1  0
 12  7  1  0
 13 14  1  0
 13 12  1  0
 15 14  1  0
 16 17  1  0
 16 15  1  0
 17 18  1  0
 18 19  1  0
 18 13  1  0
 19 21  1  0
 20 19  2  0
  1 22  1  0
  2 23  1  0
  5 24  1  0
  8 25  1  0
  8 26  1  0
  9 27  1  0
  9 28  1  0
 11 29  1  0
 11 30  1  0
 12 31  1  6
 14 32  1  0
 14 33  1  0
 15 34  1  0
 15 35  1  0
 17 36  1  0
 17 37  1  0
 18 38  1  1
 21 39  1  0
M  ISO  8  22  14  23  14  24  14  25  13  26  13  27  13  28  13  29  13
M  ISO  8  30  13  31  13  32  13  33  13  34  13  35  13  36  13  37  13
M  ISO  2  38  13  39   3
M  END
>  <minimizedAffinity>  (1) 
-4.17211294

>  <minimizedRMSD>  (1) 
0.170482844

$$$$
