
     RDKit          3D

 38 40  0  0  1  0  0  0  0  0999 V2000
   38.3040   27.4400   43.6010 C   0  0  0  0  0  0  0  0  0  0  0  0
   38.0180   26.6340   42.4900 C   0  0  0  0  0  0  0  0  0  0  0  0
   37.3610   27.1690   41.3920 C   0  0  0  0  0  0  0  0  0  0  0  0
   37.0350   28.4790   41.4820 N   0  0  0  0  0  0  0  0  0  0  0  0
   37.3070   29.2570   42.5440 C   0  0  0  0  0  0  0  0  0  0  0  0
   37.9340   28.7330   43.5860 N   0  0  0  0  0  0  0  0  0  0  0  0
   37.0460   26.4100   40.2490 N   0  0  0  0  0  0  0  0  0  0  0  0
   36.7140   25.0170   40.3590 C   0  0  0  0  0  0  0  0  0  0  0  0
   36.9390   24.2400   39.0960 C   0  0  0  0  0  0  0  0  0  0  0  0
   37.2910   25.0040   38.0080 O   0  0  0  0  0  0  0  0  0  0  0  0
   36.6020   26.1770   37.9270 C   0  0  0  0  0  0  0  0  0  0  0  0
   37.0790   27.1050   38.9800 C   0  0  1  0  0  0  0  0  0  0  0  0
   36.4770   28.3970   38.9660 N   0  0  0  0  0  0  0  0  0  0  0  0
   35.0980   28.4930   38.7140 C   0  0  0  0  0  0  0  0  0  0  0  0
   34.7440   29.1820   37.4010 C   0  0  0  0  0  0  0  0  0  0  0  0
   35.8280   29.1460   36.5240 O   0  0  0  0  0  0  0  0  0  0  0  0
   36.7860   30.0020   37.1050 C   0  0  0  0  0  0  0  0  0  0  0  0
   37.2740   29.4510   38.4230 C   0  0  2  0  0  0  0  0  0  0  0  0
   38.6670   29.1140   38.2470 N   0  0  0  0  0  0  0  0  0  0  0  0
   38.8246   27.0200   44.4742 H   0  0  0  0  0  0  0  0  0  0  0  0
   38.3154   25.5750   42.4892 H   0  0  0  0  0  0  0  0  0  0  0  0
   37.0121   30.3167   42.5474 H   0  0  0  0  0  0  0  0  0  0  0  0
   37.3330   24.5745   41.1534 H   0  0  0  0  0  0  0  0  0  0  0  0
   35.6385   24.9605   40.5829 H   0  0  0  0  0  0  0  0  0  0  0  0
   37.7439   23.5130   39.2794 H   0  0  0  0  0  0  0  0  0  0  0  0
   35.9780   23.7666   38.8463 H   0  0  0  0  0  0  0  0  0  0  0  0
   36.7648   26.6301   36.9380 H   0  0  0  0  0  0  0  0  0  0  0  0
   35.5288   25.9820   38.0693 H   0  0  0  0  0  0  0  0  0  0  0  0
   38.1232   27.3771   38.7666 H   0  0  0  0  0  0  0  0  0  0  0  0
   34.6807   27.4755   38.6920 H   0  0  0  0  0  0  0  0  0  0  0  0
   34.6745   29.1130   39.5179 H   0  0  0  0  0  0  0  0  0  0  0  0
   33.8883   28.6664   36.9406 H   0  0  0  0  0  0  0  0  0  0  0  0
   34.4873   30.2315   37.6073 H   0  0  0  0  0  0  0  0  0  0  0  0
   37.6401   30.1043   36.4194 H   0  0  0  0  0  0  0  0  0  0  0  0
   36.3180   30.9809   37.2857 H   0  0  0  0  0  0  0  0  0  0  0  0
   37.1680   30.2196   39.2027 H   0  0  0  0  0  0  0  0  0  0  0  0
   39.1133   29.0060   39.1690 H   0  0  0  0  0  0  0  0  0  0  0  0
   38.7429   28.2304   37.7232 H   0  0  0  0  0  0  0  0  0  0  0  0
  2  1  2  0
  3  4  2  0
  3  2  1  0
  4  5  1  0
  5  6  2  0
  6  1  1  0
  7  8  1  0
  7  3  1  0
  9  8  1  0
 10  9  1  0
 11 10  1  0
 11 12  1  0
 12  7  1  0
 13 14  1  0
 13 12  1  0
 15 14  1  0
 16 17  1  0
 16 15  1  0
 17 18  1  0
 18 13  1  0
 19 18  1  0
  1 20  1  0
  2 21  1  0
  5 22  1  0
  8 23  1  0
  8 24  1  0
  9 25  1  0
  9 26  1  0
 11 27  1  0
 11 28  1  0
 12 29  1  6
 14 30  1  0
 14 31  1  0
 15 32  1  0
 15 33  1  0
 17 34  1  0
 17 35  1  0
 18 36  1  1
 19 37  1  0
 19 38  1  0
M  ISO  8  20  14  21  14  22  14  23  13  24  13  25  13  26  13  27  13
M  ISO  8  28  13  29  13  30  13  31  13  32  13  33  13  34  13  35  13
M  ISO  3  36  13  37   5  38   5
M  END
>  <minimizedAffinity>  (1) 
-4.13224649

>  <minimizedRMSD>  (1) 
0.0313653089

$$$$
