
     RDKit          3D

 26 27  0  0  0  0  0  0  0  0999 V2000
   37.6210   30.8460   40.9990 C   0  0  0  0  0  0  0  0  0  0  0  0
   38.9800   30.6120   40.6640 C   0  0  0  0  0  0  0  0  0  0  0  0
   39.6180   31.5300   39.8220 C   0  0  0  0  0  0  0  0  0  0  0  0
   38.8980   32.5930   39.3710 N   0  0  0  0  0  0  0  0  0  0  0  0
   37.6080   32.7940   39.7020 C   0  0  0  0  0  0  0  0  0  0  0  0
   36.9660   31.9220   40.5160 N   0  0  0  0  0  0  0  0  0  0  0  0
   36.9840   29.8440   41.8970 C   0  0  0  0  0  0  0  0  0  0  0  0
   38.0170   29.4190   42.8900 C   0  0  0  0  0  0  0  0  0  0  0  0
   37.6220   28.2640   43.7510 C   0  0  0  0  0  0  0  0  0  0  0  0
   36.6930   27.2980   43.1120 C   0  0  0  0  0  0  0  0  0  0  0  0
   36.7600   27.3600   41.6030 C   0  0  0  0  0  0  0  0  0  0  0  0
   36.4170   28.7250   41.0800 C   0  0  0  0  0  0  0  0  0  0  0  0
   39.5163   29.7347   41.0547 H   0  0  0  0  0  0  0  0  0  0  0  0
   40.6709   31.3961   39.5332 H   0  0  0  0  0  0  0  0  0  0  0  0
   37.0728   33.6711   39.3092 H   0  0  0  0  0  0  0  0  0  0  0  0
   36.1311   30.2573   42.4553 H   0  0  0  0  0  0  0  0  0  0  0  0
   38.9267   29.1391   42.3386 H   0  0  0  0  0  0  0  0  0  0  0  0
   38.1648   30.2731   43.5672 H   0  0  0  0  0  0  0  0  0  0  0  0
   38.5357   27.7220   44.0363 H   0  0  0  0  0  0  0  0  0  0  0  0
   37.0825   28.6894   44.6101 H   0  0  0  0  0  0  0  0  0  0  0  0
   36.9587   26.2815   43.4377 H   0  0  0  0  0  0  0  0  0  0  0  0
   35.6690   27.5592   43.4173 H   0  0  0  0  0  0  0  0  0  0  0  0
   37.7802   27.1028   41.2820 H   0  0  0  0  0  0  0  0  0  0  0  0
   36.0247   26.6476   41.2009 H   0  0  0  0  0  0  0  0  0  0  0  0
   36.8065   28.8118   40.0549 H   0  0  0  0  0  0  0  0  0  0  0  0
   35.3219   28.8192   41.1231 H   0  0  0  0  0  0  0  0  0  0  0  0
  1  7  1  0
  2  1  2  0
  3  2  1  0
  4  5  1  0
  4  3  2  0
  5  6  2  0
  6  1  1  0
  7  8  1  0
  8  9  1  0
 10  9  1  0
 11 10  1  0
 12 11  1  0
 12  7  1  0
  2 13  1  0
  3 14  1  0
  5 15  1  0
  7 16  1  0
  8 17  1  0
  8 18  1  0
  9 19  1  0
  9 20  1  0
 10 21  1  0
 10 22  1  0
 11 23  1  0
 11 24  1  0
 12 25  1  0
 12 26  1  0
M  ISO  8  13  14  14  14  15  14  16  13  17  13  18  13  19  13  20  13
M  ISO  6  21  13  22  13  23  13  24  13  25  13  26  13
M  END
>  <minimizedAffinity>  (1) 
-4.12950134

>  <minimizedRMSD>  (1) 
4.6588726

$$$$
