
     RDKit          3D

 39 41  0  0  1  0  0  0  0  0999 V2000
   37.7230   29.3070   41.9620 C   0  0  2  0  0  0  0  0  0  0  0  0
   38.1300   29.0430   43.3600 C   0  0  0  0  0  0  0  0  0  0  0  0
   37.0510   28.2490   44.0590 C   0  0  0  0  0  0  0  0  0  0  0  0
   36.6410   27.0520   43.2900 C   0  0  0  0  0  0  0  0  0  0  0  0
   37.4690   26.8270   42.0390 C   0  0  0  0  0  0  0  0  0  0  0  0
   37.4800   28.0450   41.1610 C   0  0  1  0  0  0  0  0  0  0  0  0
   38.7560   30.1380   41.3200 C   0  0  0  0  0  0  0  0  0  0  0  0
   39.3800   29.5630   40.2000 C   0  0  0  0  0  0  0  0  0  0  0  0
   40.3590   30.2860   39.5190 C   0  0  0  0  0  0  0  0  0  0  0  0
   40.6630   31.5390   39.9870 N   0  0  0  0  0  0  0  0  0  0  0  0
   40.0510   32.0720   41.0660 C   0  0  0  0  0  0  0  0  0  0  0  0
   39.1090   31.3670   41.7160 N   0  0  0  0  0  0  0  0  0  0  0  0
   36.1240   28.0980   40.4940 C   0  0  0  0  0  0  0  0  0  0  0  0
   35.4500   29.4450   40.5840 C   0  0  0  0  0  0  0  0  0  0  0  0
   34.2400   29.1710   39.6770 C   0  0  0  0  0  0  0  0  0  0  0  0
   34.9100   28.4960   38.4920 C   0  0  0  0  0  0  0  0  0  0  0  0
   36.1910   27.8850   39.0170 C   0  0  0  0  0  0  0  0  0  0  0  0
   36.7588   29.8360   41.9857 H   0  0  0  0  0  0  0  0  0  0  0  0
   39.0689   28.4699   43.3662 H   0  0  0  0  0  0  0  0  0  0  0  0
   38.2792   29.9984   43.8844 H   0  0  0  0  0  0  0  0  0  0  0  0
   37.4300   27.9257   45.0397 H   0  0  0  0  0  0  0  0  0  0  0  0
   36.1697   28.8994   44.1609 H   0  0  0  0  0  0  0  0  0  0  0  0
   36.7422   26.1693   43.9386 H   0  0  0  0  0  0  0  0  0  0  0  0
   35.6020   27.2136   42.9670 H   0  0  0  0  0  0  0  0  0  0  0  0
   38.5020   26.5881   42.3320 H   0  0  0  0  0  0  0  0  0  0  0  0
   37.0211   25.9970   41.4729 H   0  0  0  0  0  0  0  0  0  0  0  0
   38.2945   27.9823   40.4243 H   0  0  0  0  0  0  0  0  0  0  0  0
   39.0994   28.5538   39.8641 H   0  0  0  0  0  0  0  0  0  0  0  0
   40.8687   29.8668   38.6389 H   0  0  0  0  0  0  0  0  0  0  0  0
   40.3225   33.0802   41.4122 H   0  0  0  0  0  0  0  0  0  0  0  0
   35.5780   27.3092   41.0323 H   0  0  0  0  0  0  0  0  0  0  0  0
   35.1472   29.6865   41.6136 H   0  0  0  0  0  0  0  0  0  0  0  0
   36.0721   30.3049   40.2950 H   0  0  0  0  0  0  0  0  0  0  0  0
   33.5136   28.5037   40.1639 H   0  0  0  0  0  0  0  0  0  0  0  0
   33.6569   30.0669   39.4173 H   0  0  0  0  0  0  0  0  0  0  0  0
   35.1341   29.2358   37.7094 H   0  0  0  0  0  0  0  0  0  0  0  0
   34.2566   27.7314   38.0466 H   0  0  0  0  0  0  0  0  0  0  0  0
   36.2365   26.8118   38.7798 H   0  0  0  0  0  0  0  0  0  0  0  0
   37.0872   28.3376   38.5676 H   0  0  0  0  0  0  0  0  0  0  0  0
  1  2  1  0
  2  3  1  0
  4  3  1  0
  5  4  1  0
  6  1  1  0
  6  5  1  0
  7 12  1  0
  7  1  1  0
  8  7  2  0
  9 10  2  0
  9  8  1  0
 10 11  1  0
 11 12  2  0
 13 14  1  0
 13  6  1  0
 15 14  1  0
 16 17  1  0
 16 15  1  0
 17 13  1  0
  1 18  1  1
  2 19  1  0
  2 20  1  0
  3 21  1  0
  3 22  1  0
  4 23  1  0
  4 24  1  0
  5 25  1  0
  5 26  1  0
  6 27  1  6
  8 28  1  0
  9 29  1  0
 11 30  1  0
 13 31  1  0
 14 32  1  0
 14 33  1  0
 15 34  1  0
 15 35  1  0
 16 36  1  0
 16 37  1  0
 17 38  1  0
 17 39  1  0
M  ISO  8  18  13  19  13  20  13  21  13  22  13  23  13  24  13  25  13
M  ISO  8  26  13  27  13  28  14  29  14  30  14  31  13  32  13  33  13
M  ISO  6  34  13  35  13  36  13  37  13  38  13  39  13
M  END
>  <minimizedAffinity>  (1) 
-5.10631943

>  <minimizedRMSD>  (1) 
1.71948874

$$$$
