
     RDKit          3D

 33 35  0  0  1  0  0  0  0  0999 V2000
   37.3450   29.4660   42.1820 C   0  0  2  0  0  0  0  0  0  0  0  0
   37.7710   29.0230   43.5190 C   0  0  0  0  0  0  0  0  0  0  0  0
   36.9930   27.8370   44.0190 C   0  0  0  0  0  0  0  0  0  0  0  0
   36.6170   26.8420   43.0010 C   0  0  0  0  0  0  0  0  0  0  0  0
   37.3170   27.0210   41.6970 C   0  0  0  0  0  0  0  0  0  0  0  0
   37.2530   28.3880   41.1250 C   0  0  1  0  0  0  0  0  0  0  0  0
   38.2300   30.5430   41.7040 C   0  0  0  0  0  0  0  0  0  0  0  0
   39.5540   30.4560   42.1650 C   0  0  0  0  0  0  0  0  0  0  0  0
   40.4890   31.4180   41.7800 C   0  0  0  0  0  0  0  0  0  0  0  0
   40.0430   32.4150   40.9470 N   0  0  0  0  0  0  0  0  0  0  0  0
   38.7630   32.4750   40.5160 C   0  0  0  0  0  0  0  0  0  0  0  0
   37.8690   31.5440   40.8950 N   0  0  0  0  0  0  0  0  0  0  0  0
   36.0550   28.5910   40.2520 C   0  0  0  0  0  0  0  0  0  0  0  0
   34.8320   29.2400   40.1270 C   0  0  0  0  0  0  0  0  0  0  0  0
   34.1110   29.0120   38.9960 C   0  0  0  0  0  0  0  0  0  0  0  0
   34.5650   28.1680   37.9910 C   0  0  0  0  0  0  0  0  0  0  0  0
   36.2150   27.5870   38.6690 S   0  0  0  0  0  0  0  0  0  0  0  0
   36.3127   29.8182   42.3246 H   0  0  0  0  0  0  0  0  0  0  0  0
   38.8360   28.7510   43.4757 H   0  0  0  0  0  0  0  0  0  0  0  0
   37.5884   29.8545   44.2156 H   0  0  0  0  0  0  0  0  0  0  0  0
   37.6045   27.3281   44.7786 H   0  0  0  0  0  0  0  0  0  0  0  0
   36.0459   28.2421   44.4049 H   0  0  0  0  0  0  0  0  0  0  0  0
   36.8572   25.8411   43.3890 H   0  0  0  0  0  0  0  0  0  0  0  0
   35.5419   26.9719   42.8079 H   0  0  0  0  0  0  0  0  0  0  0  0
   38.3764   26.7626   41.8418 H   0  0  0  0  0  0  0  0  0  0  0  0
   36.7975   26.3673   40.9809 H   0  0  0  0  0  0  0  0  0  0  0  0
   38.1429   28.4816   40.4852 H   0  0  0  0  0  0  0  0  0  0  0  0
   39.8534   29.6311   42.8283 H   0  0  0  0  0  0  0  0  0  0  0  0
   41.5322   31.3797   42.1267 H   0  0  0  0  0  0  0  0  0  0  0  0
   38.4498   33.2922   39.8496 H   0  0  0  0  0  0  0  0  0  0  0  0
   34.4608   29.9132   40.9137 H   0  0  0  0  0  0  0  0  0  0  0  0
   33.1386   29.5115   38.8739 H   0  0  0  0  0  0  0  0  0  0  0  0
   34.0802   27.9065   37.0389 H   0  0  0  0  0  0  0  0  0  0  0  0
  1  2  1  0
  2  3  1  0
  4  3  1  0
  5  4  1  0
  6  5  1  0
  6  1  1  0
  7  8  2  0
  7  1  1  0
  9  8  1  0
 10  9  2  0
 11 12  2  0
 11 10  1  0
 12  7  1  0
 13  6  1  0
 14 13  2  0
 15 14  1  0
 16 17  1  0
 16 15  2  0
 17 13  1  0
  1 18  1  1
  2 19  1  0
  2 20  1  0
  3 21  1  0
  3 22  1  0
  4 23  1  0
  4 24  1  0
  5 25  1  0
  5 26  1  0
  6 27  1  6
  8 28  1  0
  9 29  1  0
 11 30  1  0
 14 31  1  0
 15 32  1  0
 16 33  1  0
M  ISO  8  18  13  19  13  20  13  21  13  22  13  23  13  24  13  25  13
M  ISO  8  26  13  27  13  28  14  29  14  30  14  31  14  32  14  33  14
M  END
>  <minimizedAffinity>  (1) 
-5.06220818

>  <minimizedRMSD>  (1) 
1.52367222

$$$$
