
     RDKit          3D

 35 36  0  0  1  0  0  0  0  0999 V2000
   36.9840   29.8530   41.9150 C   0  0  2  0  0  0  0  0  0  0  0  0
   38.0780   29.4130   42.8380 C   0  0  0  0  0  0  0  0  0  0  0  0
   37.7290   28.2610   43.7330 C   0  0  0  0  0  0  0  0  0  0  0  0
   36.6970   27.3480   43.1990 C   0  0  0  0  0  0  0  0  0  0  0  0
   36.7020   27.3590   41.6740 C   0  0  0  0  0  0  0  0  0  0  0  0
   36.2670   28.7530   41.2350 C   0  0  2  0  0  0  0  0  0  0  0  0
   37.5550   30.8200   40.9560 C   0  0  0  0  0  0  0  0  0  0  0  0
   38.8420   30.5350   40.4850 C   0  0  0  0  0  0  0  0  0  0  0  0
   39.4300   31.4150   39.5680 C   0  0  0  0  0  0  0  0  0  0  0  0
   38.6990   32.5110   39.1820 N   0  0  0  0  0  0  0  0  0  0  0  0
   37.4720   32.7500   39.6520 C   0  0  0  0  0  0  0  0  0  0  0  0
   36.9140   31.9080   40.5300 N   0  0  0  0  0  0  0  0  0  0  0  0
   35.9350   28.8640   39.7960 C   0  0  0  0  0  0  0  0  0  0  0  0
   36.1710   27.5620   39.0350 C   0  0  0  0  0  0  0  0  0  0  0  0
   34.4390   29.1480   39.5730 C   0  0  0  0  0  0  0  0  0  0  0  0
   36.2011   30.3271   42.5252 H   0  0  0  0  0  0  0  0  0  0  0  0
   38.9432   29.1191   42.2256 H   0  0  0  0  0  0  0  0  0  0  0  0
   38.2814   30.2664   43.5016 H   0  0  0  0  0  0  0  0  0  0  0  0
   38.6439   27.6764   43.9098 H   0  0  0  0  0  0  0  0  0  0  0  0
   37.3081   28.6994   44.6499 H   0  0  0  0  0  0  0  0  0  0  0  0
   36.9007   26.3267   43.5531 H   0  0  0  0  0  0  0  0  0  0  0  0
   35.7110   27.6854   43.5511 H   0  0  0  0  0  0  0  0  0  0  0  0
   37.7131   27.1433   41.2983 H   0  0  0  0  0  0  0  0  0  0  0  0
   36.0219   26.5923   41.2744 H   0  0  0  0  0  0  0  0  0  0  0  0
   35.2623   28.9284   41.6470 H   0  0  0  0  0  0  0  0  0  0  0  0
   39.3800   29.6389   40.8279 H   0  0  0  0  0  0  0  0  0  0  0  0
   40.4402   31.2347   39.1717 H   0  0  0  0  0  0  0  0  0  0  0  0
   36.9192   33.6401   39.3170 H   0  0  0  0  0  0  0  0  0  0  0  0
   36.5836   29.6767   39.4372 H   0  0  0  0  0  0  0  0  0  0  0  0
   36.3199   26.7405   39.7512 H   0  0  0  0  0  0  0  0  0  0  0  0
   35.2978   27.3434   38.4027 H   0  0  0  0  0  0  0  0  0  0  0  0
   37.0653   27.6638   38.4027 H   0  0  0  0  0  0  0  0  0  0  0  0
   33.9349   29.2437   40.5460 H   0  0  0  0  0  0  0  0  0  0  0  0
   34.3239   30.0840   39.0068 H   0  0  0  0  0  0  0  0  0  0  0  0
   33.9889   28.3193   39.0068 H   0  0  0  0  0  0  0  0  0  0  0  0
  1  2  1  0
  2  3  1  0
  4  3  1  0
  5  4  1  0
  6  5  1  0
  6  1  1  0
  7  1  1  0
  8  7  2  0
  9  8  1  0
 10  9  2  0
 10 11  1  0
 11 12  2  0
 12  7  1  0
 13  6  1  0
 14 13  1  0
 15 13  1  0
  1 16  1  1
  2 17  1  0
  2 18  1  0
  3 19  1  0
  3 20  1  0
  4 21  1  0
  4 22  1  0
  5 23  1  0
  5 24  1  0
  6 25  1  1
  8 26  1  0
  9 27  1  0
 11 28  1  0
 13 29  1  0
 14 30  1  0
 14 31  1  0
 14 32  1  0
 15 33  1  0
 15 34  1  0
 15 35  1  0
M  ISO  8  16  13  17  13  18  13  19  13  20  13  21  13  22  13  23  13
M  ISO  8  24  13  25  13  26  14  27  14  28  14  29   8  30   8  31   8
M  ISO  4  32   8  33   8  34   8  35   8
M  END
>  <minimizedAffinity>  (1) 
-4.84669924

>  <minimizedRMSD>  (1) 
0.801754296

$$$$
