
     RDKit          3D

 38 40  0  0  1  0  0  0  0  0999 V2000
   37.0040   29.8380   41.8750 C   0  0  2  0  0  0  0  0  0  0  0  0
   38.0030   29.4070   42.8990 C   0  0  0  0  0  0  0  0  0  0  0  0
   37.5500   28.2460   43.7300 C   0  0  0  0  0  0  0  0  0  0  0  0
   36.7240   27.2580   43.0160 C   0  0  0  0  0  0  0  0  0  0  0  0
   36.8410   27.3720   41.5000 C   0  0  0  0  0  0  0  0  0  0  0  0
   36.4110   28.7530   41.0490 C   0  0  2  0  0  0  0  0  0  0  0  0
   37.6360   30.8720   41.0210 C   0  0  0  0  0  0  0  0  0  0  0  0
   38.9970   30.6810   40.7470 C   0  0  0  0  0  0  0  0  0  0  0  0
   39.6670   31.6080   39.9410 C   0  0  0  0  0  0  0  0  0  0  0  0
   38.9260   32.6600   39.4640 N   0  0  0  0  0  0  0  0  0  0  0  0
   37.6170   32.8180   39.7420 C   0  0  0  0  0  0  0  0  0  0  0  0
   36.9860   31.9260   40.5160 N   0  0  0  0  0  0  0  0  0  0  0  0
   36.3750   28.9320   39.6620 N   0  0  0  0  0  0  0  0  0  0  0  0
   35.0880   29.1670   39.0490 C   0  0  0  0  0  0  0  0  0  0  0  0
   34.8710   27.9140   38.1650 C   0  0  0  0  0  0  0  0  0  0  0  0
   36.2640   27.8010   37.5830 C   0  0  0  0  0  0  0  0  0  0  0  0
   37.1430   28.1310   38.8020 C   0  0  0  0  0  0  0  0  0  0  0  0
   36.1405   30.2357   42.4284 H   0  0  0  0  0  0  0  0  0  0  0  0
   38.9307   29.1224   42.3810 H   0  0  0  0  0  0  0  0  0  0  0  0
   38.1483   30.2555   43.5838 H   0  0  0  0  0  0  0  0  0  0  0  0
   38.4432   27.7313   44.1139 H   0  0  0  0  0  0  0  0  0  0  0  0
   36.9138   28.6642   44.5240 H   0  0  0  0  0  0  0  0  0  0  0  0
   37.0434   26.2496   43.3179 H   0  0  0  0  0  0  0  0  0  0  0  0
   35.6742   27.4514   43.2817 H   0  0  0  0  0  0  0  0  0  0  0  0
   37.8857   27.2002   41.2014 H   0  0  0  0  0  0  0  0  0  0  0  0
   36.1900   26.6200   41.0302 H   0  0  0  0  0  0  0  0  0  0  0  0
   35.3380   28.8410   41.2749 H   0  0  0  0  0  0  0  0  0  0  0  0
   39.5319   29.8132   41.1604 H   0  0  0  0  0  0  0  0  0  0  0  0
   40.7351   31.4989   39.7015 H   0  0  0  0  0  0  0  0  0  0  0  0
   37.0674   33.6789   39.3335 H   0  0  0  0  0  0  0  0  0  0  0  0
   34.2995   29.2511   39.8113 H   0  0  0  0  0  0  0  0  0  0  0  0
   35.0525   30.1054   38.4762 H   0  0  0  0  0  0  0  0  0  0  0  0
   34.5982   27.0300   38.7600 H   0  0  0  0  0  0  0  0  0  0  0  0
   34.0532   27.9837   37.4327 H   0  0  0  0  0  0  0  0  0  0  0  0
   36.4611   26.7849   37.2106 H   0  0  0  0  0  0  0  0  0  0  0  0
   36.4393   28.4566   36.7172 H   0  0  0  0  0  0  0  0  0  0  0  0
   37.4398   27.2042   39.3148 H   0  0  0  0  0  0  0  0  0  0  0  0
   38.0588   28.6561   38.4928 H   0  0  0  0  0  0  0  0  0  0  0  0
  1  2  1  0
  2  3  1  0
  4  3  1  0
  5  4  1  0
  6  5  1  0
  6  1  1  0
  7  1  1  0
  8  7  2  0
  9  8  1  0
 10 11  1  0
 10  9  2  0
 11 12  2  0
 12  7  1  0
 13 14  1  0
 13  6  1  0
 15 14  1  0
 16 15  1  0
 16 17  1  0
 17 13  1  0
  1 18  1  1
  2 19  1  0
  2 20  1  0
  3 21  1  0
  3 22  1  0
  4 23  1  0
  4 24  1  0
  5 25  1  0
  5 26  1  0
  6 27  1  1
  8 28  1  0
  9 29  1  0
 11 30  1  0
 14 31  1  0
 14 32  1  0
 15 33  1  0
 15 34  1  0
 16 35  1  0
 16 36  1  0
 17 37  1  0
 17 38  1  0
M  ISO  8  18  13  19  13  20  13  21  13  22  13  23  13  24  13  25  13
M  ISO  8  26  13  27  13  28  14  29  14  30  14  31  13  32  13  33  13
M  ISO  5  34  13  35  13  36  13  37  13  38  13
M  END
>  <minimizedAffinity>  (1) 
-4.74424601

>  <minimizedRMSD>  (1) 
1.03622091

$$$$
