
     RDKit          3D

 33 35  0  0  1  0  0  0  0  0999 V2000
   39.9880   33.1930   40.8080 C   0  0  0  0  0  0  0  0  0  0  0  0
   39.7300   31.8560   41.2190 C   0  0  0  0  0  0  0  0  0  0  0  0
   38.4990   31.3090   40.9160 C   0  0  0  0  0  0  0  0  0  0  0  0
   37.6080   32.0770   40.2460 N   0  0  0  0  0  0  0  0  0  0  0  0
   37.8740   33.3410   39.8660 C   0  0  0  0  0  0  0  0  0  0  0  0
   39.0590   33.9020   40.1450 N   0  0  0  0  0  0  0  0  0  0  0  0
   36.8470   34.0660   39.1530 N   0  0  0  0  0  0  0  0  0  0  0  0
   38.1790   29.9790   41.2970 N   0  0  0  0  0  0  0  0  0  0  0  0
   38.1900   29.6060   42.6700 C   0  0  0  0  0  0  0  0  0  0  0  0
   37.3070   28.3700   42.7900 C   0  0  0  0  0  0  0  0  0  0  0  0
   37.7810   27.2790   41.9800 N   0  0  0  0  0  0  0  0  0  0  0  0
   38.2930   27.6410   40.7050 C   0  0  0  0  0  0  0  0  0  0  0  0
   37.8410   29.0110   40.2800 C   0  0  1  0  0  0  0  0  0  0  0  0
   36.4120   29.0520   39.9010 C   0  0  0  0  0  0  0  0  0  0  0  0
   35.8160   28.8040   38.6930 C   0  0  0  0  0  0  0  0  0  0  0  0
   34.4550   28.9740   38.8460 C   0  0  0  0  0  0  0  0  0  0  0  0
   34.2580   29.3210   40.1360 N   0  0  0  0  0  0  0  0  0  0  0  0
   35.4210   29.3670   40.7560 N   0  0  0  0  0  0  0  0  0  0  0  0
   40.9610   33.6527   41.0360 H   0  0  0  0  0  0  0  0  0  0  0  0
   40.4893   31.2746   41.7626 H   0  0  0  0  0  0  0  0  0  0  0  0
   35.9441   33.6139   38.9500 H   0  0  0  0  0  0  0  0  0  0  0  0
   37.0180   35.0348   38.8479 H   0  0  0  0  0  0  0  0  0  0  0  0
   39.2156   29.3730   42.9922 H   0  0  0  0  0  0  0  0  0  0  0  0
   37.8195   30.4227   43.3069 H   0  0  0  0  0  0  0  0  0  0  0  0
   37.2900   28.0483   43.8418 H   0  0  0  0  0  0  0  0  0  0  0  0
   36.3011   28.6396   42.4358 H   0  0  0  0  0  0  0  0  0  0  0  0
   38.5313   26.8010   42.4992 H   0  0  0  0  0  0  0  0  0  0  0  0
   39.3921   27.6279   40.7478 H   0  0  0  0  0  0  0  0  0  0  0  0
   37.9126   26.9165   39.9699 H   0  0  0  0  0  0  0  0  0  0  0  0
   38.3837   29.2787   39.3614 H   0  0  0  0  0  0  0  0  0  0  0  0
   36.3316   28.5193   37.7640 H   0  0  0  0  0  0  0  0  0  0  0  0
   33.6840   28.8512   38.0711 H   0  0  0  0  0  0  0  0  0  0  0  0
   33.3439   29.5185   40.5675 H   0  0  0  0  0  0  0  0  0  0  0  0
  1  2  2  0
  3  2  1  0
  3  8  1  0
  4  3  2  0
  5  6  2  0
  5  4  1  0
  6  1  1  0
  7  5  1  0
  8  9  1  0
  9 10  1  0
 11 10  1  0
 12 11  1  0
 13 12  1  0
 13  8  1  0
 14 13  1  0
 14 18  2  0
 15 16  2  0
 15 14  1  0
 16 17  1  0
 17 18  1  0
  1 19  1  0
  2 20  1  0
  7 21  1  0
  7 22  1  0
  9 23  1  0
  9 24  1  0
 10 25  1  0
 10 26  1  0
 11 27  1  0
 12 28  1  0
 12 29  1  0
 13 30  1  6
 15 31  1  0
 16 32  1  0
 17 33  1  0
M  ISO  8  19  14  20  14  23  13  24  13  25  13  26  13  27   5  28  13
M  ISO  5  29  13  30  13  31  14  32  14  33   9
M  END
>  <minimizedAffinity>  (1) 
-5.39193487

>  <minimizedRMSD>  (1) 
1.43957937

$$$$
