
     RDKit          3D

 50 55  0  0  1  0  0  0  0  0999 V2000
   38.3470   29.0200   42.8440 C   0  0  2  0  0  0  0  0  0  0  0  0
   38.5530   27.9740   43.8400 C   0  0  0  0  0  0  0  0  0  0  0  0
   37.2560   27.4970   44.4620 C   0  0  0  0  0  0  0  0  0  0  0  0
   36.0940   27.4590   43.5490 C   0  0  0  0  0  0  0  0  0  0  0  0
   36.4880   27.5250   42.0990 C   0  0  0  0  0  0  0  0  0  0  0  0
   37.2380   28.7930   41.8360 C   0  0  2  0  0  0  0  0  0  0  0  0
   39.6130   29.3610   42.1740 C   0  0  0  0  0  0  0  0  0  0  0  0
   40.5530   28.3430   42.1780 C   0  0  0  0  0  0  0  0  0  0  0  0
   41.8020   28.5520   41.5730 C   0  0  0  0  0  0  0  0  0  0  0  0
   42.0070   29.7920   41.0000 N   0  0  0  0  0  0  0  0  0  0  0  0
   41.0750   30.7380   41.0180 C   0  0  0  0  0  0  0  0  0  0  0  0
   39.8650   30.5340   41.6060 N   0  0  0  0  0  0  0  0  0  0  0  0
   41.3450   32.0070   40.4060 N   0  0  0  0  0  0  0  0  0  0  0  0
   41.1510   33.1580   41.1000 C   0  0  0  0  0  0  0  0  0  0  0  0
   41.4680   34.2410   40.3290 N   0  0  0  0  0  0  0  0  0  0  0  0
   41.8630   33.7540   39.1440 C   0  0  0  0  0  0  0  0  0  0  0  0
   42.3100   34.2790   37.9340 C   0  0  0  0  0  0  0  0  0  0  0  0
   42.6440   33.4730   36.8850 N   0  0  0  0  0  0  0  0  0  0  0  0
   42.5440   32.1330   37.0030 C   0  0  0  0  0  0  0  0  0  0  0  0
   42.1120   31.5620   38.1660 N   0  0  0  0  0  0  0  0  0  0  0  0
   41.7870   32.3790   39.1910 C   0  0  0  0  0  0  0  0  0  0  0  0
   42.3910   35.7140   37.8810 N   0  0  0  0  0  0  0  0  0  0  0  0
   37.6700   28.9150   40.4790 N   0  0  0  0  0  0  0  0  0  0  0  0
   38.2540   27.9820   39.6830 C   0  0  0  0  0  0  0  0  0  0  0  0
   38.5170   28.4770   38.4580 N   0  0  0  0  0  0  0  0  0  0  0  0
   38.1130   29.7610   38.4050 C   0  0  0  0  0  0  0  0  0  0  0  0
   38.0790   30.8100   37.5030 C   0  0  0  0  0  0  0  0  0  0  0  0
   37.5730   32.0180   37.8080 N   0  0  0  0  0  0  0  0  0  0  0  0
   37.0760   32.2230   39.0450 C   0  0  0  0  0  0  0  0  0  0  0  0
   37.0980   31.2220   39.9360 N   0  0  0  0  0  0  0  0  0  0  0  0
   37.6020   29.9990   39.6470 C   0  0  0  0  0  0  0  0  0  0  0  0
   37.9843   29.8753   43.4330 H   0  0  0  0  0  0  0  0  0  0  0  0
   39.0467   27.1187   43.3555 H   0  0  0  0  0  0  0  0  0  0  0  0
   39.1719   28.3978   44.6446 H   0  0  0  0  0  0  0  0  0  0  0  0
   37.4182   26.4799   44.8481 H   0  0  0  0  0  0  0  0  0  0  0  0
   37.0054   28.2301   45.2429 H   0  0  0  0  0  0  0  0  0  0  0  0
   35.5428   26.5227   43.7209 H   0  0  0  0  0  0  0  0  0  0  0  0
   35.4755   28.3429   43.7641 H   0  0  0  0  0  0  0  0  0  0  0  0
   37.1281   26.6644   41.8548 H   0  0  0  0  0  0  0  0  0  0  0  0
   35.5827   27.5017   41.4747 H   0  0  0  0  0  0  0  0  0  0  0  0
   36.5223   29.6155   41.9820 H   0  0  0  0  0  0  0  0  0  0  0  0
   40.3219   27.3777   42.6521 H   0  0  0  0  0  0  0  0  0  0  0  0
   42.5759   27.7705   41.5560 H   0  0  0  0  0  0  0  0  0  0  0  0
   40.7893   33.2112   42.1375 H   0  0  0  0  0  0  0  0  0  0  0  0
   42.8140   31.4916   36.1511 H   0  0  0  0  0  0  0  0  0  0  0  0
   42.7128   36.1802   37.0208 H   0  0  0  0  0  0  0  0  0  0  0  0
   42.1272   36.2754   38.7033 H   0  0  0  0  0  0  0  0  0  0  0  0
   38.4830   26.9534   39.9985 H   0  0  0  0  0  0  0  0  0  0  0  0
   38.4834   30.6487   36.4928 H   0  0  0  0  0  0  0  0  0  0  0  0
   36.6567   33.2021   39.3199 H   0  0  0  0  0  0  0  0  0  0  0  0
  1  2  1  0
  2  3  1  0
  4  3  1  0
  5  4  1  0
  6  5  1  0
  6  1  1  0
  7  8  2  0
  7  1  1  0
  9  8  1  0
 10 11  1  0
 10  9  2  0
 11 12  2  0
 12  7  1  0
 13 11  1  0
 13 14  1  0
 15 14  2  0
 16 21  2  0
 16 15  1  0
 17 16  1  0
 18 19  1  0
 18 17  2  0
 19 20  2  0
 20 21  1  0
 21 13  1  0
 22 17  1  0
 23  6  1  0
 24 23  1  0
 25 24  2  0
 26 25  1  0
 26 31  2  0
 27 28  2  0
 27 26  1  0
 28 29  1  0
 29 30  2  0
 31 30  1  0
 31 23  1  0
  1 32  1  1
  2 33  1  0
  2 34  1  0
  3 35  1  0
  3 36  1  0
  4 37  1  0
  4 38  1  0
  5 39  1  0
  5 40  1  0
  6 41  1  1
  8 42  1  0
  9 43  1  0
 14 44  1  0
 19 45  1  0
 22 46  1  0
 22 47  1  0
 24 48  1  0
 27 49  1  0
 29 50  1  0
M  ISO  8  32  13  33  13  34  13  35  13  36  13  37  13  38  13  39  13
M  ISO  8  40  13  41  13  42  14  43  14  44  14  45  14  48  14  49  14
M  ISO  1  50  14
M  END
>  <minimizedAffinity>  (1) 
-6.85479116

>  <minimizedRMSD>  (1) 
4.59742785

$$$$
