
     RDKit          3D

 52 56  0  0  1  0  0  0  0  0999 V2000
   37.6360   29.2650   42.7340 C   0  0  2  0  0  0  0  0  0  0  0  0
   37.8410   28.8150   44.1030 C   0  0  0  0  0  0  0  0  0  0  0  0
   36.7360   27.9210   44.6270 C   0  0  0  0  0  0  0  0  0  0  0  0
   36.0610   27.0850   43.6110 C   0  0  0  0  0  0  0  0  0  0  0  0
   36.8910   26.9030   42.3700 C   0  0  0  0  0  0  0  0  0  0  0  0
   37.1380   28.2360   41.7370 C   0  0  2  0  0  0  0  0  0  0  0  0
   38.8270   29.9670   42.2250 C   0  0  0  0  0  0  0  0  0  0  0  0
   40.0260   29.5020   42.7370 C   0  0  0  0  0  0  0  0  0  0  0  0
   41.2280   30.1000   42.3300 C   0  0  0  0  0  0  0  0  0  0  0  0
   41.1230   31.1380   41.4210 N   0  0  0  0  0  0  0  0  0  0  0  0
   39.9490   31.5470   40.9580 C   0  0  0  0  0  0  0  0  0  0  0  0
   38.7840   30.9680   41.3540 N   0  0  0  0  0  0  0  0  0  0  0  0
   39.8820   32.6170   40.0260 N   0  0  0  0  0  0  0  0  0  0  0  0
   39.1640   33.8530   40.2890 C   0  0  0  0  0  0  0  0  0  0  0  0
   40.2320   34.9050   40.4140 C   0  0  0  0  0  0  0  0  0  0  0  0
   41.2880   34.8840   39.3830 C   0  0  0  0  0  0  0  0  0  0  0  0
   41.2220   33.8190   38.3540 C   0  0  0  0  0  0  0  0  0  0  0  0
   40.5190   32.5620   38.7470 C   0  0  0  0  0  0  0  0  0  0  0  0
   37.9450   28.1520   40.5600 N   0  0  0  0  0  0  0  0  0  0  0  0
   39.1090   27.4730   40.3720 C   0  0  0  0  0  0  0  0  0  0  0  0
   39.5730   27.6360   39.1160 N   0  0  0  0  0  0  0  0  0  0  0  0
   38.7260   28.4330   38.4320 C   0  0  0  0  0  0  0  0  0  0  0  0
   38.5970   28.9790   37.1690 C   0  0  0  0  0  0  0  0  0  0  0  0
   37.5680   29.7700   36.8170 N   0  0  0  0  0  0  0  0  0  0  0  0
   36.6140   30.0450   37.7340 C   0  0  0  0  0  0  0  0  0  0  0  0
   36.7180   29.5270   38.9650 N   0  0  0  0  0  0  0  0  0  0  0  0
   37.7480   28.7290   39.3360 C   0  0  0  0  0  0  0  0  0  0  0  0
   36.7892   29.9619   42.8189 H   0  0  0  0  0  0  0  0  0  0  0  0
   38.7879   28.2568   44.1460 H   0  0  0  0  0  0  0  0  0  0  0  0
   37.8518   29.7142   44.7365 H   0  0  0  0  0  0  0  0  0  0  0  0
   37.1713   27.2510   45.3830 H   0  0  0  0  0  0  0  0  0  0  0  0
   35.9641   28.5955   45.0260 H   0  0  0  0  0  0  0  0  0  0  0  0
   35.8571   26.0959   44.0471 H   0  0  0  0  0  0  0  0  0  0  0  0
   35.1327   27.5981   43.3196 H   0  0  0  0  0  0  0  0  0  0  0  0
   37.8524   26.4394   42.6363 H   0  0  0  0  0  0  0  0  0  0  0  0
   36.3553   26.2537   41.6618 H   0  0  0  0  0  0  0  0  0  0  0  0
   36.1595   28.6008   41.3914 H   0  0  0  0  0  0  0  0  0  0  0  0
   40.0363   28.6705   43.4570 H   0  0  0  0  0  0  0  0  0  0  0  0
   42.2021   29.7618   42.7131 H   0  0  0  0  0  0  0  0  0  0  0  0
   38.4839   34.0895   39.4574 H   0  0  0  0  0  0  0  0  0  0  0  0
   38.5429   33.7853   41.1944 H   0  0  0  0  0  0  0  0  0  0  0  0
   39.7413   35.8886   40.3725 H   0  0  0  0  0  0  0  0  0  0  0  0
   40.7434   34.6953   41.3650 H   0  0  0  0  0  0  0  0  0  0  0  0
   41.2553   35.8505   38.8588 H   0  0  0  0  0  0  0  0  0  0  0  0
   42.2156   34.6791   39.9376 H   0  0  0  0  0  0  0  0  0  0  0  0
   42.2537   33.5541   38.0792 H   0  0  0  0  0  0  0  0  0  0  0  0
   40.6273   34.2426   37.5313 H   0  0  0  0  0  0  0  0  0  0  0  0
   39.7514   32.3457   37.9893 H   0  0  0  0  0  0  0  0  0  0  0  0
   41.2888   31.7790   38.8129 H   0  0  0  0  0  0  0  0  0  0  0  0
   39.6073   26.8691   41.1446 H   0  0  0  0  0  0  0  0  0  0  0  0
   39.3700   28.7568   36.4186 H   0  0  0  0  0  0  0  0  0  0  0  0
   35.7606   30.6878   37.4721 H   0  0  0  0  0  0  0  0  0  0  0  0
  1  2  1  0
  2  3  1  0
  4  3  1  0
  5  4  1  0
  6  5  1  0
  6  1  1  0
  7  1  1  0
  7  8  2  0
  9  8  1  0
 10  9  2  0
 11 12  2  0
 11 10  1  0
 12  7  1  0
 13 14  1  0
 13 11  1  0
 14 15  1  0
 16 15  1  0
 17 18  1  0
 17 16  1  0
 18 13  1  0
 19  6  1  0
 20 19  1  0
 21 20  2  0
 22 21  1  0
 22 27  2  0
 23 22  1  0
 24 23  2  0
 24 25  1  0
 25 26  2  0
 26 27  1  0
 27 19  1  0
  1 28  1  1
  2 29  1  0
  2 30  1  0
  3 31  1  0
  3 32  1  0
  4 33  1  0
  4 34  1  0
  5 35  1  0
  5 36  1  0
  6 37  1  6
  8 38  1  0
  9 39  1  0
 14 40  1  0
 14 41  1  0
 15 42  1  0
 15 43  1  0
 16 44  1  0
 16 45  1  0
 17 46  1  0
 17 47  1  0
 18 48  1  0
 18 49  1  0
 20 50  1  0
 23 51  1  0
 25 52  1  0
M  ISO  8  28  13  29  13  30  13  31  13  32  13  33  13  34  13  35  13
M  ISO  8  36  13  37  13  38  14  39  14  40  13  41  13  42  13  43  13
M  ISO  8  44  13  45  13  46  13  47  13  48  13  49  13  50  14  51  14
M  ISO  1  52  14
M  END
>  <minimizedAffinity>  (1) 
-6.2291646

>  <minimizedRMSD>  (1) 
3.0881815

$$$$
