
     RDKit          3D

 49 53  0  0  1  0  0  0  0  0999 V2000
   37.7220   29.4290   42.6050 C   0  0  2  0  0  0  0  0  0  0  0  0
   37.9340   28.7230   43.8650 C   0  0  0  0  0  0  0  0  0  0  0  0
   36.8450   27.7180   44.1790 C   0  0  0  0  0  0  0  0  0  0  0  0
   36.2460   27.0490   43.0030 C   0  0  0  0  0  0  0  0  0  0  0  0
   37.1070   27.1500   41.7730 C   0  0  0  0  0  0  0  0  0  0  0  0
   37.2990   28.5900   41.4150 C   0  0  2  0  0  0  0  0  0  0  0  0
   38.8790   30.2760   42.2750 C   0  0  0  0  0  0  0  0  0  0  0  0
   40.0880   29.7990   42.7500 C   0  0  0  0  0  0  0  0  0  0  0  0
   41.2640   30.5250   42.5040 C   0  0  0  0  0  0  0  0  0  0  0  0
   41.1240   31.6970   41.7830 N   0  0  0  0  0  0  0  0  0  0  0  0
   39.9410   32.1130   41.3460 C   0  0  0  0  0  0  0  0  0  0  0  0
   38.8030   31.4090   41.5870 N   0  0  0  0  0  0  0  0  0  0  0  0
   39.8360   33.3240   40.6070 N   0  0  0  0  0  0  0  0  0  0  0  0
   39.0840   34.5280   40.9080 C   0  0  0  0  0  0  0  0  0  0  0  0
   40.1170   35.6100   40.6650 C   0  0  0  0  0  0  0  0  0  0  0  0
   40.8160   35.1120   39.4240 C   0  0  0  0  0  0  0  0  0  0  0  0
   40.4840   33.6200   39.3440 C   0  0  0  0  0  0  0  0  0  0  0  0
   38.1330   28.7740   40.2680 N   0  0  0  0  0  0  0  0  0  0  0  0
   39.2220   28.0610   39.8810 C   0  0  0  0  0  0  0  0  0  0  0  0
   39.7430   28.5440   38.7350 N   0  0  0  0  0  0  0  0  0  0  0  0
   39.0100   29.5970   38.3260 C   0  0  0  0  0  0  0  0  0  0  0  0
   38.9800   30.5090   37.2890 C   0  0  0  0  0  0  0  0  0  0  0  0
   38.0540   31.4780   37.1910 N   0  0  0  0  0  0  0  0  0  0  0  0
   37.1040   31.5690   38.1500 C   0  0  0  0  0  0  0  0  0  0  0  0
   37.1120   30.6950   39.1650 N   0  0  0  0  0  0  0  0  0  0  0  0
   38.0390   29.7130   39.2770 C   0  0  0  0  0  0  0  0  0  0  0  0
   36.8384   30.0536   42.8027 H   0  0  0  0  0  0  0  0  0  0  0  0
   38.8950   28.1907   43.8096 H   0  0  0  0  0  0  0  0  0  0  0  0
   37.9232   29.4763   44.6665 H   0  0  0  0  0  0  0  0  0  0  0  0
   37.2754   26.9421   44.8292 H   0  0  0  0  0  0  0  0  0  0  0  0
   36.0319   28.2875   44.6528 H   0  0  0  0  0  0  0  0  0  0  0  0
   36.0974   25.9855   43.2416 H   0  0  0  0  0  0  0  0  0  0  0  0
   35.2943   27.5549   42.7834 H   0  0  0  0  0  0  0  0  0  0  0  0
   38.0853   26.6880   41.9714 H   0  0  0  0  0  0  0  0  0  0  0  0
   36.6168   26.6271   40.9386 H   0  0  0  0  0  0  0  0  0  0  0  0
   36.3102   28.9678   41.1158 H   0  0  0  0  0  0  0  0  0  0  0  0
   40.1273   28.8570   43.3167 H   0  0  0  0  0  0  0  0  0  0  0  0
   42.2442   30.1803   42.8652 H   0  0  0  0  0  0  0  0  0  0  0  0
   38.2213   34.6398   40.2347 H   0  0  0  0  0  0  0  0  0  0  0  0
   38.6545   34.5426   41.9206 H   0  0  0  0  0  0  0  0  0  0  0  0
   39.6392   36.5851   40.4893 H   0  0  0  0  0  0  0  0  0  0  0  0
   40.7935   35.7733   41.5169 H   0  0  0  0  0  0  0  0  0  0  0  0
   40.4415   35.6382   38.5336 H   0  0  0  0  0  0  0  0  0  0  0  0
   41.9009   35.2888   39.4658 H   0  0  0  0  0  0  0  0  0  0  0  0
   39.8057   33.4172   38.5021 H   0  0  0  0  0  0  0  0  0  0  0  0
   41.3779   33.0009   39.1773 H   0  0  0  0  0  0  0  0  0  0  0  0
   39.6273   27.1995   40.4320 H   0  0  0  0  0  0  0  0  0  0  0  0
   39.7502   30.4388   36.5067 H   0  0  0  0  0  0  0  0  0  0  0  0
   36.3334   32.3522   38.0967 H   0  0  0  0  0  0  0  0  0  0  0  0
  1  2  1  0
  2  3  1  0
  4  3  1  0
  5  4  1  0
  6  5  1  0
  6  1  1  0
  7  1  1  0
  7  8  2  0
  9  8  1  0
 10  9  2  0
 11 12  2  0
 11 10  1  0
 12  7  1  0
 13 14  1  0
 13 11  1  0
 15 14  1  0
 16 15  1  0
 17 16  1  0
 17 13  1  0
 18  6  1  0
 19 18  1  0
 20 19  2  0
 21 20  1  0
 21 26  2  0
 22 21  1  0
 23 22  2  0
 23 24  1  0
 24 25  2  0
 25 26  1  0
 26 18  1  0
  1 27  1  1
  2 28  1  0
  2 29  1  0
  3 30  1  0
  3 31  1  0
  4 32  1  0
  4 33  1  0
  5 34  1  0
  5 35  1  0
  6 36  1  6
  8 37  1  0
  9 38  1  0
 14 39  1  0
 14 40  1  0
 15 41  1  0
 15 42  1  0
 16 43  1  0
 16 44  1  0
 17 45  1  0
 17 46  1  0
 19 47  1  0
 22 48  1  0
 24 49  1  0
M  ISO  8  27  13  28  13  29  13  30  13  31  13  32  13  33  13  34  13
M  ISO  8  35  13  36  13  37  14  38  14  39  13  40  13  41  13  42  13
M  ISO  7  43  13  44  13  45  13  46  13  47  14  48  14  49  14
M  END
>  <minimizedAffinity>  (1) 
-6.19774103

>  <minimizedRMSD>  (1) 
3.21908355

$$$$
