
     RDKit          3D

 47 51  0  0  1  0  0  0  0  0999 V2000
   39.7270   31.1130   40.1360 C   0  0  2  0  0  0  0  0  0  0  0  0
   39.8480   32.3700   40.8660 C   0  0  0  0  0  0  0  0  0  0  0  0
   41.0510   33.1930   40.4520 C   0  0  0  0  0  0  0  0  0  0  0  0
   41.4360   33.0760   39.0300 C   0  0  0  0  0  0  0  0  0  0  0  0
   40.3240   32.5390   38.1680 C   0  0  0  0  0  0  0  0  0  0  0  0
   39.9490   31.1700   38.6360 C   0  0  2  0  0  0  0  0  0  0  0  0
   38.8780   30.5940   37.8830 N   0  0  0  0  0  0  0  0  0  0  0  0
   37.6980   31.1580   37.5150 C   0  0  0  0  0  0  0  0  0  0  0  0
   36.9450   30.2950   36.8050 N   0  0  0  0  0  0  0  0  0  0  0  0
   37.6070   29.1280   36.6800 C   0  0  0  0  0  0  0  0  0  0  0  0
   37.4300   27.8820   36.1050 C   0  0  0  0  0  0  0  0  0  0  0  0
   38.3530   26.9080   36.1820 N   0  0  0  0  0  0  0  0  0  0  0  0
   39.5030   27.1490   36.8470 C   0  0  0  0  0  0  0  0  0  0  0  0
   39.6970   28.3480   37.4130 N   0  0  0  0  0  0  0  0  0  0  0  0
   38.7790   29.3420   37.3450 C   0  0  0  0  0  0  0  0  0  0  0  0
   38.4620   30.4340   40.4600 C   0  0  0  0  0  0  0  0  0  0  0  0
   37.4010   31.2910   40.7000 C   0  0  0  0  0  0  0  0  0  0  0  0
   36.1420   30.7610   41.0270 C   0  0  0  0  0  0  0  0  0  0  0  0
   36.0520   29.3820   41.0840 N   0  0  0  0  0  0  0  0  0  0  0  0
   37.0990   28.6010   40.8440 C   0  0  0  0  0  0  0  0  0  0  0  0
   38.3170   29.1140   40.5300 N   0  0  0  0  0  0  0  0  0  0  0  0
   36.9760   27.1460   40.9120 C   0  0  0  0  0  0  0  0  0  0  0  0
   37.1440   26.4920   42.1160 C   0  0  0  0  0  0  0  0  0  0  0  0
   37.0300   25.1020   42.1950 C   0  0  0  0  0  0  0  0  0  0  0  0
   36.7430   24.3710   41.0440 C   0  0  0  0  0  0  0  0  0  0  0  0
   36.5720   24.9990   39.8280 C   0  0  0  0  0  0  0  0  0  0  0  0
   36.6940   26.3730   39.8010 C   0  0  0  0  0  0  0  0  0  0  0  0
   40.5798   30.5203   40.4985 H   0  0  0  0  0  0  0  0  0  0  0  0
   38.9403   32.9653   40.6880 H   0  0  0  0  0  0  0  0  0  0  0  0
   39.9777   32.1172   41.9287 H   0  0  0  0  0  0  0  0  0  0  0  0
   40.8269   34.2501   40.6577 H   0  0  0  0  0  0  0  0  0  0  0  0
   41.9010   32.8025   41.0308 H   0  0  0  0  0  0  0  0  0  0  0  0
   41.7188   34.0722   38.6591 H   0  0  0  0  0  0  0  0  0  0  0  0
   42.2742   32.3662   38.9705 H   0  0  0  0  0  0  0  0  0  0  0  0
   40.6617   32.4895   37.1223 H   0  0  0  0  0  0  0  0  0  0  0  0
   39.4504   33.2036   38.2396 H   0  0  0  0  0  0  0  0  0  0  0  0
   40.8190   30.5276   38.4349 H   0  0  0  0  0  0  0  0  0  0  0  0
   37.3964   32.1860   37.7644 H   0  0  0  0  0  0  0  0  0  0  0  0
   36.4948   27.6801   35.5622 H   0  0  0  0  0  0  0  0  0  0  0  0
   40.2739   26.3680   36.9235 H   0  0  0  0  0  0  0  0  0  0  0  0
   37.5433   32.3798   40.6350 H   0  0  0  0  0  0  0  0  0  0  0  0
   35.2748   31.4075   41.2269 H   0  0  0  0  0  0  0  0  0  0  0  0
   37.3701   27.0717   43.0231 H   0  0  0  0  0  0  0  0  0  0  0  0
   37.1657   24.5885   43.1583 H   0  0  0  0  0  0  0  0  0  0  0  0
   36.6514   23.2766   41.1061 H   0  0  0  0  0  0  0  0  0  0  0  0
   36.3472   24.4270   38.9157 H   0  0  0  0  0  0  0  0  0  0  0  0
   36.5586   26.8847   38.8367 H   0  0  0  0  0  0  0  0  0  0  0  0
  1 16  1  0
  1  2  1  0
  3  2  1  0
  4  3  1  0
  5  6  1  0
  5  4  1  0
  6  1  1  0
  7  6  1  0
  8  7  1  0
  9  8  2  0
 10  9  1  0
 10 15  2  0
 11 12  2  0
 11 10  1  0
 12 13  1  0
 13 14  2  0
 15 14  1  0
 15  7  1  0
 16 21  1  0
 16 17  2  0
 17 18  1  0
 18 19  2  0
 20 22  1  0
 20 19  1  0
 21 20  2  0
 22 23  2  0
 23 24  1  0
 25 24  2  0
 26 25  1  0
 27 26  2  0
 27 22  1  0
  1 28  1  1
  2 29  1  0
  2 30  1  0
  3 31  1  0
  3 32  1  0
  4 33  1  0
  4 34  1  0
  5 35  1  0
  5 36  1  0
  6 37  1  1
  8 38  1  0
 11 39  1  0
 13 40  1  0
 17 41  1  0
 18 42  1  0
 23 43  1  0
 24 44  1  0
 25 45  1  0
 26 46  1  0
 27 47  1  0
M  ISO  8  28  13  29  13  30  13  31  13  32  13  33  13  34  13  35  13
M  ISO  8  36  13  37  13  38  14  39  14  40  14  41  14  42  14  43  14
M  ISO  4  44  14  45  14  46  14  47  14
M  END
>  <minimizedAffinity>  (1) 
-6.0691309

>  <minimizedRMSD>  (1) 
5.90488768

$$$$
