
     RDKit          3D

 44 48  0  0  1  0  0  0  0  0999 V2000
   37.7680   29.4080   42.6810 C   0  0  2  0  0  0  0  0  0  0  0  0
   38.0170   28.7280   43.9400 C   0  0  0  0  0  0  0  0  0  0  0  0
   36.9350   27.7480   44.3470 C   0  0  0  0  0  0  0  0  0  0  0  0
   36.1710   27.1480   43.2340 C   0  0  0  0  0  0  0  0  0  0  0  0
   36.9540   27.1560   41.9460 C   0  0  0  0  0  0  0  0  0  0  0  0
   37.2040   28.5760   41.5420 C   0  0  2  0  0  0  0  0  0  0  0  0
   37.9600   28.6890   40.3330 N   0  0  0  0  0  0  0  0  0  0  0  0
   38.9590   27.8890   39.8750 C   0  0  0  0  0  0  0  0  0  0  0  0
   39.4250   28.3180   38.6870 N   0  0  0  0  0  0  0  0  0  0  0  0
   38.7470   29.4230   38.3200 C   0  0  0  0  0  0  0  0  0  0  0  0
   38.7090   30.3290   37.2750 C   0  0  0  0  0  0  0  0  0  0  0  0
   37.8530   31.3660   37.2390 N   0  0  0  0  0  0  0  0  0  0  0  0
   36.9930   31.5360   38.2630 C   0  0  0  0  0  0  0  0  0  0  0  0
   37.0080   30.6730   39.2880 N   0  0  0  0  0  0  0  0  0  0  0  0
   37.8640   29.6220   39.3410 C   0  0  0  0  0  0  0  0  0  0  0  0
   38.9510   30.1710   42.2460 C   0  0  0  0  0  0  0  0  0  0  0  0
   40.1580   29.5480   42.5140 C   0  0  0  0  0  0  0  0  0  0  0  0
   41.3580   30.1820   42.1540 C   0  0  0  0  0  0  0  0  0  0  0  0
   41.2420   31.4180   41.5410 N   0  0  0  0  0  0  0  0  0  0  0  0
   40.0600   31.9740   41.3050 C   0  0  0  0  0  0  0  0  0  0  0  0
   38.8970   31.3600   41.6550 N   0  0  0  0  0  0  0  0  0  0  0  0
   40.0020   33.2930   40.6480 C   0  0  0  0  0  0  0  0  0  0  0  0
   41.1240   34.0320   40.2650 C   0  0  0  0  0  0  0  0  0  0  0  0
   40.6850   35.2220   39.6770 C   0  0  0  0  0  0  0  0  0  0  0  0
   39.3250   35.1600   39.7240 N   0  0  0  0  0  0  0  0  0  0  0  0
   38.9130   34.0280   40.2950 N   0  0  0  0  0  0  0  0  0  0  0  0
   36.9410   30.0909   42.9253 H   0  0  0  0  0  0  0  0  0  0  0  0
   38.9649   28.1768   43.8517 H   0  0  0  0  0  0  0  0  0  0  0  0
   38.0441   29.5061   44.7170 H   0  0  0  0  0  0  0  0  0  0  0  0
   37.4110   26.9319   44.9104 H   0  0  0  0  0  0  0  0  0  0  0  0
   36.2081   28.3269   44.9356 H   0  0  0  0  0  0  0  0  0  0  0  0
   35.9229   26.1081   43.4929 H   0  0  0  0  0  0  0  0  0  0  0  0
   35.2609   27.7471   43.0833 H   0  0  0  0  0  0  0  0  0  0  0  0
   37.9138   26.6392   42.0936 H   0  0  0  0  0  0  0  0  0  0  0  0
   36.3851   26.6383   41.1596 H   0  0  0  0  0  0  0  0  0  0  0  0
   36.2198   29.0079   41.3078 H   0  0  0  0  0  0  0  0  0  0  0  0
   39.3382   27.0041   40.4071 H   0  0  0  0  0  0  0  0  0  0  0  0
   39.4092   30.1955   36.4372 H   0  0  0  0  0  0  0  0  0  0  0  0
   36.2841   32.3770   38.2572 H   0  0  0  0  0  0  0  0  0  0  0  0
   40.1767   28.5639   43.0052 H   0  0  0  0  0  0  0  0  0  0  0  0
   42.3378   29.7214   42.3486 H   0  0  0  0  0  0  0  0  0  0  0  0
   42.1726   33.7296   40.4025 H   0  0  0  0  0  0  0  0  0  0  0  0
   41.3039   36.0329   39.2654 H   0  0  0  0  0  0  0  0  0  0  0  0
   38.6965   35.8927   39.3649 H   0  0  0  0  0  0  0  0  0  0  0  0
  1  2  1  0
  2  3  1  0
  4  3  1  0
  5  4  1  0
  6  5  1  0
  6  1  1  0
  7  6  1  0
  8  7  1  0
  9  8  2  0
 10  9  1  0
 10 15  2  0
 11 10  1  0
 12 11  2  0
 12 13  1  0
 13 14  2  0
 14 15  1  0
 15  7  1  0
 16 17  2  0
 16  1  1  0
 18 17  1  0
 19 18  2  0
 20 19  1  0
 20 21  2  0
 21 16  1  0
 22 20  1  0
 23 22  1  0
 24 25  1  0
 24 23  2  0
 25 26  1  0
 26 22  2  0
  1 27  1  1
  2 28  1  0
  2 29  1  0
  3 30  1  0
  3 31  1  0
  4 32  1  0
  4 33  1  0
  5 34  1  0
  5 35  1  0
  6 36  1  6
  8 37  1  0
 11 38  1  0
 13 39  1  0
 17 40  1  0
 18 41  1  0
 23 42  1  0
 24 43  1  0
 25 44  1  0
M  ISO  8  27  13  28  13  29  13  30  13  31  13  32  13  33  13  34  13
M  ISO  8  35  13  36  13  37  14  38  14  39  14  40  14  41  14  42  14
M  ISO  2  43  14  44   9
M  END
>  <minimizedAffinity>  (1) 
-6.0212121

>  <minimizedRMSD>  (1) 
3.23812175

$$$$
