
     RDKit          3D

 42 46  0  0  1  0  0  0  0  0999 V2000
   37.8930   29.4540   42.7280 C   0  0  2  0  0  0  0  0  0  0  0  0
   38.1600   28.6660   43.9230 C   0  0  0  0  0  0  0  0  0  0  0  0
   37.0110   27.7670   44.3340 C   0  0  0  0  0  0  0  0  0  0  0  0
   36.1510   27.2910   43.2270 C   0  0  0  0  0  0  0  0  0  0  0  0
   36.8800   27.3190   41.9020 C   0  0  0  0  0  0  0  0  0  0  0  0
   37.2160   28.7390   41.5730 C   0  0  2  0  0  0  0  0  0  0  0  0
   37.9180   28.8740   40.3330 N   0  0  0  0  0  0  0  0  0  0  0  0
   38.8360   28.0410   39.7770 C   0  0  0  0  0  0  0  0  0  0  0  0
   39.2710   28.5130   38.5940 N   0  0  0  0  0  0  0  0  0  0  0  0
   38.6500   29.6810   38.3260 C   0  0  0  0  0  0  0  0  0  0  0  0
   38.6200   30.6470   37.3390 C   0  0  0  0  0  0  0  0  0  0  0  0
   37.8320   31.7390   37.4070 N   0  0  0  0  0  0  0  0  0  0  0  0
   37.0360   31.9010   38.4840 C   0  0  0  0  0  0  0  0  0  0  0  0
   37.0480   30.9770   39.4530 N   0  0  0  0  0  0  0  0  0  0  0  0
   37.8330   29.8730   39.4020 C   0  0  0  0  0  0  0  0  0  0  0  0
   39.1040   30.1620   42.2770 C   0  0  0  0  0  0  0  0  0  0  0  0
   40.2840   29.4770   42.5130 C   0  0  0  0  0  0  0  0  0  0  0  0
   41.5040   30.0550   42.1330 C   0  0  0  0  0  0  0  0  0  0  0  0
   41.4370   31.2990   41.5340 N   0  0  0  0  0  0  0  0  0  0  0  0
   40.2820   31.9160   41.3280 C   0  0  0  0  0  0  0  0  0  0  0  0
   39.0970   31.3560   41.6970 N   0  0  0  0  0  0  0  0  0  0  0  0
   40.2610   33.2320   40.6910 C   0  0  0  0  0  0  0  0  0  0  0  0
   39.1650   34.0250   40.5470 N   0  0  0  0  0  0  0  0  0  0  0  0
   39.5140   35.1290   39.9300 O   0  0  0  0  0  0  0  0  0  0  0  0
   40.7990   35.1000   39.6600 C   0  0  0  0  0  0  0  0  0  0  0  0
   41.2860   33.9220   40.1270 N   0  0  0  0  0  0  0  0  0  0  0  0
   37.1337   30.1761   43.0626 H   0  0  0  0  0  0  0  0  0  0  0  0
   39.0418   28.0364   43.7331 H   0  0  0  0  0  0  0  0  0  0  0  0
   38.3194   29.3778   44.7464 H   0  0  0  0  0  0  0  0  0  0  0  0
   37.4333   26.8857   44.8390 H   0  0  0  0  0  0  0  0  0  0  0  0
   36.3636   28.3781   44.9801 H   0  0  0  0  0  0  0  0  0  0  0  0
   35.8356   26.2587   43.4389 H   0  0  0  0  0  0  0  0  0  0  0  0
   35.2817   27.9612   43.1549 H   0  0  0  0  0  0  0  0  0  0  0  0
   37.8040   26.7267   41.9747 H   0  0  0  0  0  0  0  0  0  0  0  0
   36.2438   26.8906   41.1135 H   0  0  0  0  0  0  0  0  0  0  0  0
   36.2574   29.2559   41.4187 H   0  0  0  0  0  0  0  0  0  0  0  0
   39.1796   27.1016   40.2348 H   0  0  0  0  0  0  0  0  0  0  0  0
   39.2674   30.5198   36.4589 H   0  0  0  0  0  0  0  0  0  0  0  0
   36.3838   32.7831   38.5653 H   0  0  0  0  0  0  0  0  0  0  0  0
   40.2647   28.4881   42.9943 H   0  0  0  0  0  0  0  0  0  0  0  0
   42.4638   29.5452   42.3027 H   0  0  0  0  0  0  0  0  0  0  0  0
   41.3748   35.8859   39.1493 H   0  0  0  0  0  0  0  0  0  0  0  0
  1  2  1  0
  2  3  1  0
  4  3  1  0
  5  4  1  0
  6  5  1  0
  6  1  1  0
  7  6  1  0
  8  7  1  0
  9  8  2  0
 10  9  1  0
 10 15  2  0
 11 12  2  0
 11 10  1  0
 12 13  1  0
 13 14  2  0
 15 14  1  0
 15  7  1  0
 16 17  2  0
 16  1  1  0
 18 17  1  0
 19 18  2  0
 20 19  1  0
 20 21  2  0
 21 16  1  0
 22 20  1  0
 23 22  2  0
 24 23  1  0
 25 24  1  0
 25 26  2  0
 26 22  1  0
  1 27  1  1
  2 28  1  0
  2 29  1  0
  3 30  1  0
  3 31  1  0
  4 32  1  0
  4 33  1  0
  5 34  1  0
  5 35  1  0
  6 36  1  6
  8 37  1  0
 11 38  1  0
 13 39  1  0
 17 40  1  0
 18 41  1  0
 25 42  1  0
M  ISO  8  27  13  28  13  29  13  30  13  31  13  32  13  33  13  34  13
M  ISO  8  35  13  36  13  37  14  38  14  39  14  40  14  41  14  42  14
M  END
>  <minimizedAffinity>  (1) 
-5.84977865

>  <minimizedRMSD>  (1) 
3.36530399

$$$$
