
     RDKit          3D

 33 34  0  0  1  0  0  0  0  0999 V2000
   40.0240   31.9270   40.1960 C   0  0  0  0  0  0  0  0  0  0  0  0
   39.6080   30.7630   40.8940 C   0  0  0  0  0  0  0  0  0  0  0  0
   38.2770   30.6190   41.1950 C   0  0  0  0  0  0  0  0  0  0  0  0
   37.4030   31.6030   40.8090 N   0  0  0  0  0  0  0  0  0  0  0  0
   37.8250   32.7030   40.1430 C   0  0  0  0  0  0  0  0  0  0  0  0
   39.1300   32.8680   39.8350 N   0  0  0  0  0  0  0  0  0  0  0  0
   36.8670   33.6900   39.7690 N   0  0  0  0  0  0  0  0  0  0  0  0
   37.7780   29.4950   41.8870 N   0  0  0  0  0  0  0  0  0  0  0  0
   38.2790   29.2000   43.2010 C   0  0  0  0  0  0  0  0  0  0  0  0
   37.2360   28.3200   43.8890 C   0  0  0  0  0  0  0  0  0  0  0  0
   37.0140   27.0940   43.1710 N   0  0  0  0  0  0  0  0  0  0  0  0
   37.0270   27.2030   41.7520 C   0  0  0  0  0  0  0  0  0  0  0  0
   36.7850   28.6360   41.3170 C   0  0  2  0  0  0  0  0  0  0  0  0
   36.5810   28.7560   39.9130 N   0  0  0  0  0  0  0  0  0  0  0  0
   35.3300   29.1580   39.3370 C   0  0  0  0  0  0  0  0  0  0  0  0
   34.3290   29.3170   40.1300 N   0  0  0  0  0  0  0  0  0  0  0  0
   35.1970   29.3780   37.9230 N   0  0  0  0  0  0  0  0  0  0  0  0
   33.4170   29.6090   39.7290 H   0  0  0  0  0  0  0  0  0  0  0  0
   41.0870   32.0620   39.9474 H   0  0  0  0  0  0  0  0  0  0  0  0
   40.3369   29.9931   41.1872 H   0  0  0  0  0  0  0  0  0  0  0  0
   37.1685   34.5341   39.2616 H   0  0  0  0  0  0  0  0  0  0  0  0
   35.8733   33.5591   40.0061 H   0  0  0  0  0  0  0  0  0  0  0  0
   39.2370   28.6643   43.1287 H   0  0  0  0  0  0  0  0  0  0  0  0
   38.4517   30.1241   43.7722 H   0  0  0  0  0  0  0  0  0  0  0  0
   37.5863   28.0799   44.9037 H   0  0  0  0  0  0  0  0  0  0  0  0
   36.2868   28.8751   43.9193 H   0  0  0  0  0  0  0  0  0  0  0  0
   37.7507   26.4283   43.4447 H   0  0  0  0  0  0  0  0  0  0  0  0
   38.0058   26.8724   41.3743 H   0  0  0  0  0  0  0  0  0  0  0  0
   36.2243   26.5714   41.3436 H   0  0  0  0  0  0  0  0  0  0  0  0
   35.8255   28.9877   41.7240 H   0  0  0  0  0  0  0  0  0  0  0  0
   37.3673   28.5446   39.2822 H   0  0  0  0  0  0  0  0  0  0  0  0
   34.2897   29.6663   37.5298 H   0  0  0  0  0  0  0  0  0  0  0  0
   36.0089   29.2473   37.3029 H   0  0  0  0  0  0  0  0  0  0  0  0
  1  2  2  0
  2  3  1  0
  3  8  1  0
  4  3  2  0
  5  4  1  0
  6  5  2  0
  6  1  1  0
  7  5  1  0
  8  9  1  0
  9 10  1  0
 11 10  1  0
 12 11  1  0
 13 12  1  0
 13  8  1  0
 14 13  1  0
 15 14  1  0
 15 16  2  0
 17 15  1  0
 18 16  1  0
  1 19  1  0
  2 20  1  0
  7 21  1  0
  7 22  1  0
  9 23  1  0
  9 24  1  0
 10 25  1  0
 10 26  1  0
 11 27  1  0
 12 28  1  0
 12 29  1  0
 13 30  1  1
 14 31  1  0
 17 32  1  0
 17 33  1  0
M  ISO  8  19  14  20  14  23  13  24  13  25  13  26  13  27   5  28  13
M  ISO  2  29  13  30  13
M  END
>  <minimizedAffinity>  (1) 
-5.35847855

>  <minimizedRMSD>  (1) 
1.82867301

$$$$
