
     RDKit          3D

 39 41  0  0  1  0  0  0  0  0999 V2000
   40.0380   32.0800   41.0290 C   0  0  0  0  0  0  0  0  0  0  0  0
   39.6070   30.8210   41.5260 C   0  0  0  0  0  0  0  0  0  0  0  0
   38.2550   30.5200   41.4440 C   0  0  0  0  0  0  0  0  0  0  0  0
   37.4000   31.4290   40.8970 N   0  0  0  0  0  0  0  0  0  0  0  0
   37.8490   32.6170   40.4350 C   0  0  0  0  0  0  0  0  0  0  0  0
   39.1670   32.9460   40.4990 N   0  0  0  0  0  0  0  0  0  0  0  0
   36.8910   33.5270   39.8670 N   0  0  0  0  0  0  0  0  0  0  0  0
   37.7640   29.2860   41.9210 N   0  0  0  0  0  0  0  0  0  0  0  0
   37.9100   28.9200   43.2980 C   0  0  0  0  0  0  0  0  0  0  0  0
   36.8460   27.8640   43.5950 C   0  0  0  0  0  0  0  0  0  0  0  0
   37.0130   26.6940   42.7680 N   0  0  0  0  0  0  0  0  0  0  0  0
   37.3960   26.9460   41.4290 C   0  0  0  0  0  0  0  0  0  0  0  0
   37.1090   28.3720   41.0300 C   0  0  2  0  0  0  0  0  0  0  0  0
   37.4850   28.6740   39.6930 N   0  0  0  0  0  0  0  0  0  0  0  0
   36.4180   29.0040   38.8110 C   0  0  0  0  0  0  0  0  0  0  0  0
   36.6910   30.3980   38.2770 C   0  0  0  0  0  0  0  0  0  0  0  0
   37.8260   30.3650   37.4810 O   0  0  0  0  0  0  0  0  0  0  0  0
   38.8490   29.6090   38.0030 C   0  0  0  0  0  0  0  0  0  0  0  0
   38.7030   29.3920   39.5140 C   0  0  0  0  0  0  0  0  0  0  0  0
   41.1039   32.3468   41.0807 H   0  0  0  0  0  0  0  0  0  0  0  0
   40.3220   30.1077   41.9618 H   0  0  0  0  0  0  0  0  0  0  0  0
   35.8955   33.2662   39.8242 H   0  0  0  0  0  0  0  0  0  0  0  0
   37.2004   34.4395   39.5030 H   0  0  0  0  0  0  0  0  0  0  0  0
   38.9134   28.5052   43.4743 H   0  0  0  0  0  0  0  0  0  0  0  0
   37.7871   29.7958   43.9521 H   0  0  0  0  0  0  0  0  0  0  0  0
   36.9222   27.5680   44.6517 H   0  0  0  0  0  0  0  0  0  0  0  0
   35.8594   28.2998   43.3790 H   0  0  0  0  0  0  0  0  0  0  0  0
   37.7364   26.1009   43.1991 H   0  0  0  0  0  0  0  0  0  0  0  0
   38.4743   26.7558   41.3240 H   0  0  0  0  0  0  0  0  0  0  0  0
   36.8149   26.2809   40.7733 H   0  0  0  0  0  0  0  0  0  0  0  0
   36.0170   28.4869   41.0960 H   0  0  0  0  0  0  0  0  0  0  0  0
   36.3790   28.2835   37.9807 H   0  0  0  0  0  0  0  0  0  0  0  0
   35.4524   28.9698   39.3368 H   0  0  0  0  0  0  0  0  0  0  0  0
   35.8322   30.7384   37.6799 H   0  0  0  0  0  0  0  0  0  0  0  0
   36.8469   31.0922   39.1160 H   0  0  0  0  0  0  0  0  0  0  0  0
   38.8539   28.6286   37.5041 H   0  0  0  0  0  0  0  0  0  0  0  0
   39.7895   30.1531   37.8315 H   0  0  0  0  0  0  0  0  0  0  0  0
   39.5512   28.8074   39.8997 H   0  0  0  0  0  0  0  0  0  0  0  0
   38.6905   30.3477   40.0584 H   0  0  0  0  0  0  0  0  0  0  0  0
  1  2  2  0
  3  2  1  0
  3  8  1  0
  4  3  2  0
  5  6  2  0
  5  4  1  0
  6  1  1  0
  7  5  1  0
  8  9  1  0
  9 10  1  0
 11 10  1  0
 12 11  1  0
 13 12  1  0
 13  8  1  0
 14 13  1  0
 15 14  1  0
 16 15  1  0
 17 18  1  0
 17 16  1  0
 18 19  1  0
 19 14  1  0
  1 20  1  0
  2 21  1  0
  7 22  1  0
  7 23  1  0
  9 24  1  0
  9 25  1  0
 10 26  1  0
 10 27  1  0
 11 28  1  0
 12 29  1  0
 12 30  1  0
 13 31  1  6
 15 32  1  0
 15 33  1  0
 16 34  1  0
 16 35  1  0
 18 36  1  0
 18 37  1  0
 19 38  1  0
 19 39  1  0
M  ISO  8  20  14  21  14  24  13  25  13  26  13  27  13  28   5  29  13
M  ISO  8  30  13  31  13  32  13  33  13  34  13  35  13  36  13  37  13
M  ISO  2  38  13  39  13
M  END
>  <minimizedAffinity>  (1) 
-5.34353209

>  <minimizedRMSD>  (1) 
0.515971243

$$$$
