
     RDKit          3D

 46 50  0  0  1  0  0  0  0  0999 V2000
   38.1500   28.8730   42.4210 C   0  0  2  0  0  0  0  0  0  0  0  0
   38.0910   28.6850   43.8640 C   0  0  0  0  0  0  0  0  0  0  0  0
   36.8080   28.0370   44.3440 C   0  0  0  0  0  0  0  0  0  0  0  0
   36.1750   27.1020   43.3850 C   0  0  0  0  0  0  0  0  0  0  0  0
   37.1590   26.5760   42.3740 C   0  0  0  0  0  0  0  0  0  0  0  0
   37.6750   27.7200   41.5570 C   0  0  2  0  0  0  0  0  0  0  0  0
   38.6300   27.3190   40.5720 N   0  0  0  0  0  0  0  0  0  0  0  0
   39.6650   26.4440   40.6950 C   0  0  0  0  0  0  0  0  0  0  0  0
   40.3440   26.3240   39.5380 N   0  0  0  0  0  0  0  0  0  0  0  0
   39.7780   27.1200   38.6080 C   0  0  0  0  0  0  0  0  0  0  0  0
   39.9500   27.4650   37.2800 C   0  0  0  0  0  0  0  0  0  0  0  0
   39.1500   28.3370   36.6400 N   0  0  0  0  0  0  0  0  0  0  0  0
   38.1300   28.9050   37.3200 C   0  0  0  0  0  0  0  0  0  0  0  0
   37.9410   28.5870   38.6080 N   0  0  0  0  0  0  0  0  0  0  0  0
   38.7390   27.7100   39.2660 C   0  0  0  0  0  0  0  0  0  0  0  0
   39.4830   29.3360   42.0020 C   0  0  0  0  0  0  0  0  0  0  0  0
   40.5240   28.8450   42.7710 C   0  0  0  0  0  0  0  0  0  0  0  0
   41.8420   29.2220   42.4730 C   0  0  0  0  0  0  0  0  0  0  0  0
   42.0110   30.0790   41.4010 N   0  0  0  0  0  0  0  0  0  0  0  0
   40.9810   30.5230   40.6890 C   0  0  0  0  0  0  0  0  0  0  0  0
   39.7030   30.1570   40.9810 N   0  0  0  0  0  0  0  0  0  0  0  0
   41.1760   31.4280   39.5600 C   0  0  0  0  0  0  0  0  0  0  0  0
   41.2310   32.7790   39.6980 C   0  0  0  0  0  0  0  0  0  0  0  0
   41.4150   33.6510   38.6320 C   0  0  0  0  0  0  0  0  0  0  0  0
   41.5520   33.1290   37.3490 C   0  0  0  0  0  0  0  0  0  0  0  0
   41.4900   31.7490   37.2390 C   0  0  0  0  0  0  0  0  0  0  0  0
   41.3100   30.9540   38.3080 N   0  0  0  0  0  0  0  0  0  0  0  0
   37.3989   29.6549   42.2351 H   0  0  0  0  0  0  0  0  0  0  0  0
   38.9354   28.0478   44.1656 H   0  0  0  0  0  0  0  0  0  0  0  0
   38.1349   29.6852   44.3196 H   0  0  0  0  0  0  0  0  0  0  0  0
   37.0327   27.4790   45.2650 H   0  0  0  0  0  0  0  0  0  0  0  0
   36.0890   28.8565   44.4903 H   0  0  0  0  0  0  0  0  0  0  0  0
   35.7522   26.2537   43.9432 H   0  0  0  0  0  0  0  0  0  0  0  0
   35.3924   27.6520   42.8419 H   0  0  0  0  0  0  0  0  0  0  0  0
   37.9959   26.0865   42.8936 H   0  0  0  0  0  0  0  0  0  0  0  0
   36.6641   25.8441   41.7188 H   0  0  0  0  0  0  0  0  0  0  0  0
   36.8180   28.1030   40.9836 H   0  0  0  0  0  0  0  0  0  0  0  0
   39.9149   25.9042   41.6203 H   0  0  0  0  0  0  0  0  0  0  0  0
   40.7787   27.0055   36.7214 H   0  0  0  0  0  0  0  0  0  0  0  0
   37.4610   29.6217   36.8211 H   0  0  0  0  0  0  0  0  0  0  0  0
   40.3192   28.1638   43.6101 H   0  0  0  0  0  0  0  0  0  0  0  0
   42.6961   28.8552   43.0612 H   0  0  0  0  0  0  0  0  0  0  0  0
   41.1242   33.2045   40.7067 H   0  0  0  0  0  0  0  0  0  0  0  0
   41.4518   34.7375   38.7995 H   0  0  0  0  0  0  0  0  0  0  0  0
   41.7011   33.7756   36.4717 H   0  0  0  0  0  0  0  0  0  0  0  0
   41.5913   31.2892   36.2448 H   0  0  0  0  0  0  0  0  0  0  0  0
  1  2  1  0
  2  3  1  0
  4  3  1  0
  5  4  1  0
  6  5  1  0
  6  1  1  0
  7  8  1  0
  7  6  1  0
  9  8  2  0
 10 15  2  0
 10  9  1  0
 11 10  1  0
 12 11  2  0
 12 13  1  0
 13 14  2  0
 14 15  1  0
 15  7  1  0
 16  1  1  0
 16 17  2  0
 18 17  1  0
 19 18  2  0
 20 21  2  0
 20 19  1  0
 21 16  1  0
 22 23  2  0
 22 20  1  0
 24 23  1  0
 25 24  2  0
 26 25  1  0
 26 27  2  0
 27 22  1  0
  1 28  1  1
  2 29  1  0
  2 30  1  0
  3 31  1  0
  3 32  1  0
  4 33  1  0
  4 34  1  0
  5 35  1  0
  5 36  1  0
  6 37  1  6
  8 38  1  0
 11 39  1  0
 13 40  1  0
 17 41  1  0
 18 42  1  0
 23 43  1  0
 24 44  1  0
 25 45  1  0
 26 46  1  0
M  ISO  8  28  13  29  13  30  13  31  13  32  13  33  13  34  13  35  13
M  ISO  8  36  13  37  13  38  14  39  14  40  14  41  14  42  14  43  14
M  ISO  3  44  14  45  14  46  14
M  END
>  <minimizedAffinity>  (1) 
-5.20779324

>  <minimizedRMSD>  (1) 
4.23991203

$$$$
