
     RDKit          3D

 38 39  0  0  1  0  0  0  0  0999 V2000
   39.7770   32.7550   41.0950 C   0  0  0  0  0  0  0  0  0  0  0  0
   39.3700   31.4180   41.3510 C   0  0  0  0  0  0  0  0  0  0  0  0
   38.1540   30.9850   40.8960 C   0  0  0  0  0  0  0  0  0  0  0  0
   37.4250   31.8820   40.2300 N   0  0  0  0  0  0  0  0  0  0  0  0
   37.7710   33.1440   39.9720 C   0  0  0  0  0  0  0  0  0  0  0  0
   38.9630   33.5880   40.4090 N   0  0  0  0  0  0  0  0  0  0  0  0
   36.8770   33.9940   39.2410 N   0  0  0  0  0  0  0  0  0  0  0  0
   37.6980   29.6730   41.1020 N   0  0  0  0  0  0  0  0  0  0  0  0
   37.5490   29.1990   42.4650 C   0  0  0  0  0  0  0  0  0  0  0  0
   36.6600   27.9950   42.4650 C   0  0  0  0  0  0  0  0  0  0  0  0
   37.0480   26.9660   41.5710 N   0  0  0  0  0  0  0  0  0  0  0  0
   37.7710   27.3670   40.4370 C   0  0  0  0  0  0  0  0  0  0  0  0
   37.4130   28.7970   40.0380 C   0  0  1  0  0  0  0  0  0  0  0  0
   36.2090   28.8840   39.2030 C   0  0  0  0  0  0  0  0  0  0  0  0
   34.9910   29.3280   40.0770 C   0  0  0  0  0  0  0  0  0  0  0  0
   36.2130   29.7850   38.0260 C   0  0  0  0  0  0  0  0  0  0  0  0
   35.6870   27.5350   38.6780 C   0  0  0  0  0  0  0  0  0  0  0  0
   40.7534   33.1118   41.4547 H   0  0  0  0  0  0  0  0  0  0  0  0
   40.0272   30.7361   41.9106 H   0  0  0  0  0  0  0  0  0  0  0  0
   37.1419   34.9690   39.0405 H   0  0  0  0  0  0  0  0  0  0  0  0
   35.9699   33.6296   38.9164 H   0  0  0  0  0  0  0  0  0  0  0  0
   38.5348   28.9301   42.8723 H   0  0  0  0  0  0  0  0  0  0  0  0
   37.1057   29.9896   43.0882 H   0  0  0  0  0  0  0  0  0  0  0  0
   36.6502   27.5776   43.4827 H   0  0  0  0  0  0  0  0  0  0  0  0
   35.6723   28.3412   42.1265 H   0  0  0  0  0  0  0  0  0  0  0  0
   37.6315   26.2984   42.0952 H   0  0  0  0  0  0  0  0  0  0  0  0
   38.8471   27.3140   40.6590 H   0  0  0  0  0  0  0  0  0  0  0  0
   37.5164   26.6961   39.6033 H   0  0  0  0  0  0  0  0  0  0  0  0
   38.0693   29.2330   39.2704 H   0  0  0  0  0  0  0  0  0  0  0  0
   35.2500   29.2336   41.1419 H   0  0  0  0  0  0  0  0  0  0  0  0
   34.7406   30.3752   39.8520 H   0  0  0  0  0  0  0  0  0  0  0  0
   34.1254   28.6876   39.8520 H   0  0  0  0  0  0  0  0  0  0  0  0
   36.2176   30.8314   38.3653 H   0  0  0  0  0  0  0  0  0  0  0  0
   37.1103   29.5921   37.4196 H   0  0  0  0  0  0  0  0  0  0  0  0
   35.3140   29.6001   37.4196 H   0  0  0  0  0  0  0  0  0  0  0  0
   35.4349   26.8836   39.5278 H   0  0  0  0  0  0  0  0  0  0  0  0
   34.7888   27.7027   38.0655 H   0  0  0  0  0  0  0  0  0  0  0  0
   36.4641   27.0544   38.0655 H   0  0  0  0  0  0  0  0  0  0  0  0
  1  2  2  0
  3  8  1  0
  3  2  1  0
  4  3  2  0
  5  4  1  0
  5  6  2  0
  6  1  1  0
  7  5  1  0
  8  9  1  0
 10  9  1  0
 11 10  1  0
 12 11  1  0
 13 12  1  0
 13  8  1  0
 14 13  1  0
 14 15  1  0
 16 14  1  0
 17 14  1  0
  1 18  1  0
  2 19  1  0
  7 20  1  0
  7 21  1  0
  9 22  1  0
  9 23  1  0
 10 24  1  0
 10 25  1  0
 11 26  1  0
 12 27  1  0
 12 28  1  0
 13 29  1  6
 15 30  1  0
 15 31  1  0
 15 32  1  0
 16 33  1  0
 16 34  1  0
 16 35  1  0
 17 36  1  0
 17 37  1  0
 17 38  1  0
M  ISO  8  18  14  19  14  22  13  23  13  24  13  25  13  26   5  27  13
M  ISO  8  28  13  29  13  30   8  31   8  32   8  33   8  34   8  35   8
M  ISO  3  36   8  37   8  38   8
M  END
>  <minimizedAffinity>  (1) 
-5.14423943

>  <minimizedRMSD>  (1) 
1.20029557

$$$$
