
     RDKit          3D

 39 42  0  0  0  0  0  0  0  0999 V2000
   38.6740   31.5540   39.4950 N   0  0  0  0  0  0  0  0  0  0  0  0
   39.2190   31.1710   38.3160 C   0  0  0  0  0  0  0  0  0  0  0  0
   40.2270   31.8770   37.7060 C   0  0  0  0  0  0  0  0  0  0  0  0
   40.7080   33.0260   38.3150 C   0  0  0  0  0  0  0  0  0  0  0  0
   41.6280   33.7000   37.7890 O   0  0  0  0  0  0  0  0  0  0  0  0
   40.1320   33.3710   39.4930 N   0  0  0  0  0  0  0  0  0  0  0  0
   39.1440   32.6670   40.0800 C   0  0  0  0  0  0  0  0  0  0  0  0
   38.6090   32.9770   41.1630 O   0  0  0  0  0  0  0  0  0  0  0  0
   40.6140   34.5510   40.1360 C   0  0  0  0  0  0  0  0  0  0  0  0
   39.8480   35.6800   39.8330 C   0  0  0  0  0  0  0  0  0  0  0  0
   40.2000   36.9050   40.3900 C   0  0  0  0  0  0  0  0  0  0  0  0
   41.2970   37.0310   41.2400 C   0  0  0  0  0  0  0  0  0  0  0  0
   42.0220   35.8880   41.5090 C   0  0  0  0  0  0  0  0  0  0  0  0
   43.1260   35.9580   42.3510 C   0  0  0  0  0  0  0  0  0  0  0  0
   43.8610   34.8060   42.6240 C   0  0  0  0  0  0  0  0  0  0  0  0
   43.4900   33.5810   42.0540 C   0  0  0  0  0  0  0  0  0  0  0  0
   42.3840   33.4860   41.2040 C   0  0  0  0  0  0  0  0  0  0  0  0
   41.6990   34.6590   40.9730 C   0  0  0  0  0  0  0  0  0  0  0  0
   37.6170   30.6960   40.0060 C   0  0  0  0  0  0  0  0  0  0  0  0
   38.1320   29.6630   40.8970 C   0  0  0  0  0  0  0  0  0  0  0  0
   38.2330   29.8350   42.2600 C   0  0  0  0  0  0  0  0  0  0  0  0
   38.7340   28.8100   43.0550 C   0  0  0  0  0  0  0  0  0  0  0  0
   39.1160   27.6410   42.4390 N   0  0  0  0  0  0  0  0  0  0  0  0
   39.0050   27.5000   41.0950 C   0  0  0  0  0  0  0  0  0  0  0  0
   38.5270   28.4810   40.3420 N   0  0  0  0  0  0  0  0  0  0  0  0
   38.8403   30.2605   37.8286 H   0  0  0  0  0  0  0  0  0  0  0  0
   40.6466   31.5358   36.7481 H   0  0  0  0  0  0  0  0  0  0  0  0
   38.9789   35.6010   39.1634 H   0  0  0  0  0  0  0  0  0  0  0  0
   39.5983   37.7951   40.1540 H   0  0  0  0  0  0  0  0  0  0  0  0
   41.5736   38.0012   41.6784 H   0  0  0  0  0  0  0  0  0  0  0  0
   43.4181   36.9188   42.7999 H   0  0  0  0  0  0  0  0  0  0  0  0
   44.7354   34.8585   43.2893 H   0  0  0  0  0  0  0  0  0  0  0  0
   44.0785   32.6793   42.2789 H   0  0  0  0  0  0  0  0  0  0  0  0
   42.0792   32.5328   40.7474 H   0  0  0  0  0  0  0  0  0  0  0  0
   36.8948   31.3141   40.5595 H   0  0  0  0  0  0  0  0  0  0  0  0
   37.1410   30.1975   39.1487 H   0  0  0  0  0  0  0  0  0  0  0  0
   37.9173   30.7832   42.7196 H   0  0  0  0  0  0  0  0  0  0  0  0
   38.8223   28.9305   44.1448 H   0  0  0  0  0  0  0  0  0  0  0  0
   39.3164   26.5570   40.6220 H   0  0  0  0  0  0  0  0  0  0  0  0
  1 19  1  0
  1  7  1  0
  2  1  1  0
  3  4  1  0
  3  2  2  0
  4  6  1  0
  5  4  2  0
  6  7  1  0
  6  9  1  0
  7  8  2  0
  9 18  1  0
 10  9  2  0
 10 11  1  0
 11 12  2  0
 12 13  1  0
 13 14  2  0
 14 15  1  0
 16 15  2  0
 17 16  1  0
 18 17  2  0
 18 13  1  0
 19 20  1  0
 20 21  2  0
 21 22  1  0
 23 22  2  0
 24 23  1  0
 25 20  1  0
 25 24  2  0
  2 26  1  0
  3 27  1  0
 10 28  1  0
 11 29  1  0
 12 30  1  0
 14 31  1  0
 15 32  1  0
 16 33  1  0
 17 34  1  0
 19 35  1  0
 19 36  1  0
 21 37  1  0
 22 38  1  0
 24 39  1  0
M  ISO  8  26  14  27  14  28  14  29  14  30  14  31  14  32  14  33  14
M  ISO  6  34  14  35   8  36   8  37  14  38  14  39  14
M  END
>  <minimizedAffinity>  (1) 
-6.21995163

>  <minimizedRMSD>  (1) 
1.53262234

$$$$
