
     RDKit          3D

 34 37  0  0  0  0  0  0  0  0999 V2000
   37.7690   31.3530   40.1230 N   0  0  0  0  0  0  0  0  0  0  0  0
   37.8190   30.9570   38.8280 C   0  0  0  0  0  0  0  0  0  0  0  0
   38.8090   31.3850   37.9650 C   0  0  0  0  0  0  0  0  0  0  0  0
   39.7820   32.2400   38.4260 C   0  0  0  0  0  0  0  0  0  0  0  0
   40.7010   32.6540   37.6780 O   0  0  0  0  0  0  0  0  0  0  0  0
   39.7040   32.6120   39.7090 N   0  0  0  0  0  0  0  0  0  0  0  0
   38.7300   32.1890   40.5500 C   0  0  0  0  0  0  0  0  0  0  0  0
   38.6340   32.5230   41.7610 O   0  0  0  0  0  0  0  0  0  0  0  0
   41.2570   36.8920   40.7300 N   0  0  0  0  0  0  0  0  0  0  0  0
   40.0260   36.9330   40.1500 C   0  0  0  0  0  0  0  0  0  0  0  0
   39.6270   35.6630   39.8760 N   0  0  0  0  0  0  0  0  0  0  0  0
   40.6070   34.8720   40.2870 C   0  0  0  0  0  0  0  0  0  0  0  0
   40.6920   33.5000   40.2360 C   0  0  0  0  0  0  0  0  0  0  0  0
   41.7900   32.8390   40.7120 N   0  0  0  0  0  0  0  0  0  0  0  0
   42.8000   33.5860   41.2400 C   0  0  0  0  0  0  0  0  0  0  0  0
   42.7270   34.9130   41.2940 N   0  0  0  0  0  0  0  0  0  0  0  0
   41.6540   35.5910   40.8320 C   0  0  0  0  0  0  0  0  0  0  0  0
   36.6690   30.8170   40.8980 C   0  0  0  0  0  0  0  0  0  0  0  0
   37.0010   29.5190   41.4860 C   0  0  0  0  0  0  0  0  0  0  0  0
   37.6760   29.3880   42.6820 C   0  0  0  0  0  0  0  0  0  0  0  0
   37.9600   28.1300   43.1860 C   0  0  0  0  0  0  0  0  0  0  0  0
   37.5540   27.0350   42.4690 N   0  0  0  0  0  0  0  0  0  0  0  0
   36.8860   27.1920   41.2860 C   0  0  0  0  0  0  0  0  0  0  0  0
   36.6170   28.4010   40.8060 N   0  0  0  0  0  0  0  0  0  0  0  0
   37.0453   30.2718   38.4514 H   0  0  0  0  0  0  0  0  0  0  0  0
   38.8188   31.0450   36.9189 H   0  0  0  0  0  0  0  0  0  0  0  0
   41.8001   37.7101   41.0411 H   0  0  0  0  0  0  0  0  0  0  0  0
   39.4487   37.8450   39.9378 H   0  0  0  0  0  0  0  0  0  0  0  0
   43.6956   33.0803   41.6302 H   0  0  0  0  0  0  0  0  0  0  0  0
   36.4258   31.5224   41.7062 H   0  0  0  0  0  0  0  0  0  0  0  0
   35.8112   30.6778   40.2236 H   0  0  0  0  0  0  0  0  0  0  0  0
   37.9893   30.2849   43.2365 H   0  0  0  0  0  0  0  0  0  0  0  0
   38.4981   28.0125   44.1382 H   0  0  0  0  0  0  0  0  0  0  0  0
   36.5663   26.3028   40.7229 H   0  0  0  0  0  0  0  0  0  0  0  0
  1  7  1  0
  1 18  1  0
  2  1  1  0
  3  4  1  0
  3  2  2  0
  4  6  1  0
  5  4  2  0
  6 13  1  0
  6  7  1  0
  7  8  2  0
  9 17  1  0
 10  9  1  0
 11 10  2  0
 11 12  1  0
 12 17  2  0
 13 12  1  0
 13 14  2  0
 14 15  1  0
 15 16  2  0
 17 16  1  0
 18 19  1  0
 19 20  2  0
 20 21  1  0
 22 21  2  0
 23 22  1  0
 24 23  2  0
 24 19  1  0
  2 25  1  0
  3 26  1  0
  9 27  1  0
 10 28  1  0
 15 29  1  0
 18 30  1  0
 18 31  1  0
 20 32  1  0
 21 33  1  0
 23 34  1  0
M  ISO  8  25  14  26  14  27   9  28  14  29  14  30   8  31   8  32  14
M  ISO  2  33  14  34  14
M  END
>  <minimizedAffinity>  (1) 
-6.02912331

>  <minimizedRMSD>  (1) 
1.39689803

$$$$
