
     RDKit          3D

 33 35  0  0  0  0  0  0  0  0999 V2000
   36.1410   29.7370   39.8310 N   0  0  0  0  0  0  0  0  0  0  0  0
   36.0780   29.3080   38.5410 C   0  0  0  0  0  0  0  0  0  0  0  0
   36.6610   30.0120   37.5010 C   0  0  0  0  0  0  0  0  0  0  0  0
   37.3260   31.1830   37.7800 C   0  0  0  0  0  0  0  0  0  0  0  0
   37.8700   31.8500   36.8650 O   0  0  0  0  0  0  0  0  0  0  0  0
   37.3730   31.5840   39.0570 N   0  0  0  0  0  0  0  0  0  0  0  0
   36.8000   30.8890   40.0690 C   0  0  0  0  0  0  0  0  0  0  0  0
   36.8220   31.2300   41.2860 O   0  0  0  0  0  0  0  0  0  0  0  0
   38.0400   32.7860   39.4440 C   0  0  0  0  0  0  0  0  0  0  0  0
   39.3910   32.6580   39.7040 C   0  0  0  0  0  0  0  0  0  0  0  0
   40.1420   33.7450   40.0840 C   0  0  0  0  0  0  0  0  0  0  0  0
   39.5950   34.9990   40.2250 C   0  0  0  0  0  0  0  0  0  0  0  0
   38.2440   35.1120   39.9630 C   0  0  0  0  0  0  0  0  0  0  0  0
   37.4620   34.0410   39.5780 C   0  0  0  0  0  0  0  0  0  0  0  0
   35.4830   28.8840   40.7970 C   0  0  0  0  0  0  0  0  0  0  0  0
   36.4250   27.9610   41.4330 C   0  0  0  0  0  0  0  0  0  0  0  0
   36.9600   28.1720   42.6860 C   0  0  0  0  0  0  0  0  0  0  0  0
   37.8530   27.2500   43.2340 C   0  0  0  0  0  0  0  0  0  0  0  0
   38.1720   26.1450   42.4850 N   0  0  0  0  0  0  0  0  0  0  0  0
   37.6320   25.9640   41.2580 C   0  0  0  0  0  0  0  0  0  0  0  0
   36.7860   26.8470   40.7540 N   0  0  0  0  0  0  0  0  0  0  0  0
   35.5465   28.3713   38.3172 H   0  0  0  0  0  0  0  0  0  0  0  0
   36.5933   29.6405   36.4678 H   0  0  0  0  0  0  0  0  0  0  0  0
   39.8719   31.6736   39.6057 H   0  0  0  0  0  0  0  0  0  0  0  0
   41.2153   33.6073   40.2817 H   0  0  0  0  0  0  0  0  0  0  0  0
   40.2009   35.8650   40.5300 H   0  0  0  0  0  0  0  0  0  0  0  0
   37.7696   36.0991   40.0655 H   0  0  0  0  0  0  0  0  0  0  0  0
   36.3893   34.1812   39.3790 H   0  0  0  0  0  0  0  0  0  0  0  0
   35.0214   29.5131   41.5724 H   0  0  0  0  0  0  0  0  0  0  0  0
   34.7232   28.2893   40.2688 H   0  0  0  0  0  0  0  0  0  0  0  0
   36.6819   29.0707   43.2561 H   0  0  0  0  0  0  0  0  0  0  0  0
   38.2868   27.4038   44.2331 H   0  0  0  0  0  0  0  0  0  0  0  0
   37.8996   25.0720   40.6725 H   0  0  0  0  0  0  0  0  0  0  0  0
  1  7  1  0
  1 15  1  0
  2  1  1  0
  3  4  1  0
  3  2  2  0
  4  6  1  0
  5  4  2  0
  6  9  1  0
  6  7  1  0
  7  8  2  0
  9 14  1  0
  9 10  2  0
 10 11  1  0
 11 12  2  0
 13 12  1  0
 14 13  2  0
 15 16  1  0
 16 17  2  0
 17 18  1  0
 19 18  2  0
 20 19  1  0
 21 20  2  0
 21 16  1  0
  2 22  1  0
  3 23  1  0
 10 24  1  0
 11 25  1  0
 12 26  1  0
 13 27  1  0
 14 28  1  0
 15 29  1  0
 15 30  1  0
 17 31  1  0
 18 32  1  0
 20 33  1  0
M  ISO  8  22  14  23  14  24  14  25  14  26  14  27  14  28  14  29   8
M  ISO  4  30   8  31  14  32  14  33  14
M  END
>  <minimizedAffinity>  (1) 
-5.44574547

>  <minimizedRMSD>  (1) 
2.52115059

$$$$
