
     RDKit          3D

 31 33  0  0  0  0  0  0  0  0999 V2000
   36.1520   29.7320   39.8270 N   0  0  0  0  0  0  0  0  0  0  0  0
   35.9990   29.3740   38.5310 C   0  0  0  0  0  0  0  0  0  0  0  0
   36.5850   30.0880   37.4980 C   0  0  0  0  0  0  0  0  0  0  0  0
   37.3510   31.2010   37.7890 C   0  0  0  0  0  0  0  0  0  0  0  0
   37.8900   31.8640   36.8810 O   0  0  0  0  0  0  0  0  0  0  0  0
   37.4780   31.5230   39.0800 N   0  0  0  0  0  0  0  0  0  0  0  0
   36.9060   30.8250   40.0900 C   0  0  0  0  0  0  0  0  0  0  0  0
   37.0170   31.1150   41.3040 O   0  0  0  0  0  0  0  0  0  0  0  0
   38.2610   32.6640   39.4070 C   0  0  0  0  0  0  0  0  0  0  0  0
   37.5830   33.8370   39.6530 C   0  0  0  0  0  0  0  0  0  0  0  0
   38.2730   34.9890   39.9770 C   0  0  0  0  0  0  0  0  0  0  0  0
   39.6290   34.9880   40.0580 N   0  0  0  0  0  0  0  0  0  0  0  0
   40.2720   33.8160   39.8090 C   0  0  0  0  0  0  0  0  0  0  0  0
   39.6210   32.6600   39.4860 N   0  0  0  0  0  0  0  0  0  0  0  0
   35.4890   28.8940   40.8060 C   0  0  0  0  0  0  0  0  0  0  0  0
   36.4320   27.9580   41.4290 C   0  0  0  0  0  0  0  0  0  0  0  0
   36.9140   28.1040   42.7130 C   0  0  0  0  0  0  0  0  0  0  0  0
   37.8060   27.1850   43.2510 C   0  0  0  0  0  0  0  0  0  0  0  0
   38.1830   26.1310   42.4480 N   0  0  0  0  0  0  0  0  0  0  0  0
   37.6990   26.0090   41.1930 C   0  0  0  0  0  0  0  0  0  0  0  0
   36.8490   26.8950   40.6960 N   0  0  0  0  0  0  0  0  0  0  0  0
   35.3911   28.4894   38.2902 H   0  0  0  0  0  0  0  0  0  0  0  0
   36.4416   29.7714   36.4544 H   0  0  0  0  0  0  0  0  0  0  0  0
   36.4849   33.8568   39.5911 H   0  0  0  0  0  0  0  0  0  0  0  0
   37.7177   35.9184   40.1718 H   0  0  0  0  0  0  0  0  0  0  0  0
   41.3701   33.7983   39.8708 H   0  0  0  0  0  0  0  0  0  0  0  0
   35.0493   29.5328   41.5861 H   0  0  0  0  0  0  0  0  0  0  0  0
   34.7076   28.3126   40.2948 H   0  0  0  0  0  0  0  0  0  0  0  0
   36.5872   28.9611   43.3202 H   0  0  0  0  0  0  0  0  0  0  0  0
   38.1946   27.2942   44.2743 H   0  0  0  0  0  0  0  0  0  0  0  0
   38.0165   25.1582   40.5722 H   0  0  0  0  0  0  0  0  0  0  0  0
  1  7  1  0
  1 15  1  0
  2  1  1  0
  3  4  1  0
  3  2  2  0
  4  6  1  0
  5  4  2  0
  6  9  1  0
  6  7  1  0
  7  8  2  0
  9 14  1  0
  9 10  2  0
 10 11  1  0
 11 12  2  0
 13 12  1  0
 14 13  2  0
 15 16  1  0
 16 17  2  0
 17 18  1  0
 19 18  2  0
 20 19  1  0
 21 20  2  0
 21 16  1  0
  2 22  1  0
  3 23  1  0
 10 24  1  0
 11 25  1  0
 13 26  1  0
 15 27  1  0
 15 28  1  0
 17 29  1  0
 18 30  1  0
 20 31  1  0
M  ISO  8  22  14  23  14  24  14  25  14  26  14  27   8  28   8  29  14
M  ISO  2  30  14  31  14
M  END
>  <minimizedAffinity>  (1) 
-5.3190465

>  <minimizedRMSD>  (1) 
2.49381566

$$$$
