
     RDKit          3D

 31 33  0  0  0  0  0  0  0  0999 V2000
   36.1720   29.7300   39.8430 N   0  0  0  0  0  0  0  0  0  0  0  0
   35.9950   29.3750   38.5410 C   0  0  0  0  0  0  0  0  0  0  0  0
   36.5640   30.0800   37.5040 C   0  0  0  0  0  0  0  0  0  0  0  0
   37.3380   31.1870   37.7870 C   0  0  0  0  0  0  0  0  0  0  0  0
   37.8800   31.8650   36.8820 O   0  0  0  0  0  0  0  0  0  0  0  0
   37.4910   31.5080   39.0860 N   0  0  0  0  0  0  0  0  0  0  0  0
   36.9290   30.8080   40.0970 C   0  0  0  0  0  0  0  0  0  0  0  0
   37.0600   31.0930   41.3110 O   0  0  0  0  0  0  0  0  0  0  0  0
   38.2880   32.6450   39.4050 C   0  0  0  0  0  0  0  0  0  0  0  0
   37.5940   33.8290   39.6600 C   0  0  0  0  0  0  0  0  0  0  0  0
   38.3060   34.9830   39.9780 C   0  0  0  0  0  0  0  0  0  0  0  0
   39.6660   34.9260   40.0320 N   0  0  0  0  0  0  0  0  0  0  0  0
   40.3250   33.7690   39.7810 C   0  0  0  0  0  0  0  0  0  0  0  0
   39.6420   32.6530   39.4740 N   0  0  0  0  0  0  0  0  0  0  0  0
   35.5070   28.8840   40.8130 C   0  0  0  0  0  0  0  0  0  0  0  0
   36.4320   27.9320   41.4300 C   0  0  0  0  0  0  0  0  0  0  0  0
   36.9130   28.0790   42.7130 C   0  0  0  0  0  0  0  0  0  0  0  0
   37.7870   27.1460   43.2450 C   0  0  0  0  0  0  0  0  0  0  0  0
   38.1550   26.0820   42.4590 N   0  0  0  0  0  0  0  0  0  0  0  0
   37.6650   25.9620   41.1930 C   0  0  0  0  0  0  0  0  0  0  0  0
   36.8290   26.8580   40.6930 N   0  0  0  0  0  0  0  0  0  0  0  0
   35.3766   28.4953   38.3093 H   0  0  0  0  0  0  0  0  0  0  0  0
   36.4035   29.7646   36.4625 H   0  0  0  0  0  0  0  0  0  0  0  0
   36.4953   33.8504   39.6103 H   0  0  0  0  0  0  0  0  0  0  0  0
   37.7782   35.9262   40.1825 H   0  0  0  0  0  0  0  0  0  0  0  0
   41.4237   33.7430   39.8287 H   0  0  0  0  0  0  0  0  0  0  0  0
   35.0720   29.5182   41.5995 H   0  0  0  0  0  0  0  0  0  0  0  0
   34.7270   28.3118   40.2893 H   0  0  0  0  0  0  0  0  0  0  0  0
   36.6007   28.9428   43.3182 H   0  0  0  0  0  0  0  0  0  0  0  0
   38.1755   27.2542   44.2684 H   0  0  0  0  0  0  0  0  0  0  0  0
   37.9700   25.1045   40.5752 H   0  0  0  0  0  0  0  0  0  0  0  0
  1  7  1  0
  1 15  1  0
  2  1  1  0
  3  4  1  0
  3  2  2  0
  4  6  1  0
  5  4  2  0
  6  9  1  0
  6  7  1  0
  7  8  2  0
  9 14  1  0
  9 10  2  0
 10 11  1  0
 11 12  2  0
 13 12  1  0
 14 13  2  0
 15 16  1  0
 16 17  2  0
 17 18  1  0
 19 18  2  0
 20 19  1  0
 21 20  2  0
 21 16  1  0
  2 22  1  0
  3 23  1  0
 10 24  1  0
 11 25  1  0
 13 26  1  0
 15 27  1  0
 15 28  1  0
 17 29  1  0
 18 30  1  0
 20 31  1  0
M  ISO  8  22  14  23  14  24  14  25  14  26  14  27   8  28   8  29  14
M  ISO  2  30  14  31  14
M  END
>  <minimizedAffinity>  (1) 
-5.30187607

>  <minimizedRMSD>  (1) 
2.50542617

$$$$
