
     RDKit          3D

 29 31  0  0  0  0  0  0  0  0999 V2000
   36.1440   29.8150   39.7710 N   0  0  0  0  0  0  0  0  0  0  0  0
   36.0380   29.5050   38.4670 C   0  0  0  0  0  0  0  0  0  0  0  0
   36.6680   30.2170   37.4710 C   0  0  0  0  0  0  0  0  0  0  0  0
   37.4470   31.3000   37.8230 C   0  0  0  0  0  0  0  0  0  0  0  0
   38.0500   31.9920   36.9620 O   0  0  0  0  0  0  0  0  0  0  0  0
   37.5300   31.5780   39.1350 N   0  0  0  0  0  0  0  0  0  0  0  0
   36.9110   30.8790   40.1000 C   0  0  0  0  0  0  0  0  0  0  0  0
   36.9830   31.1330   41.3240 O   0  0  0  0  0  0  0  0  0  0  0  0
   38.3400   32.7100   39.5290 C   0  0  0  0  0  0  0  0  0  0  0  0
   39.7140   32.5180   39.6040 C   0  0  0  0  0  0  0  0  0  0  0  0
   40.3400   34.1770   40.1290 S   0  0  0  0  0  0  0  0  0  0  0  0
   38.5570   34.8420   40.1490 C   0  0  0  0  0  0  0  0  0  0  0  0
   37.9400   33.9500   39.8400 N   0  0  0  0  0  0  0  0  0  0  0  0
   35.4180   28.9670   40.6980 C   0  0  0  0  0  0  0  0  0  0  0  0
   36.2740   27.9190   41.2490 C   0  0  0  0  0  0  0  0  0  0  0  0
   36.7460   27.9410   42.5430 C   0  0  0  0  0  0  0  0  0  0  0  0
   37.5630   26.9050   43.0060 C   0  0  0  0  0  0  0  0  0  0  0  0
   37.8690   25.8890   42.1450 N   0  0  0  0  0  0  0  0  0  0  0  0
   37.3880   25.8950   40.8720 C   0  0  0  0  0  0  0  0  0  0  0  0
   36.6150   26.8780   40.4350 N   0  0  0  0  0  0  0  0  0  0  0  0
   35.4186   28.6417   38.1824 H   0  0  0  0  0  0  0  0  0  0  0  0
   36.5526   29.9282   36.4159 H   0  0  0  0  0  0  0  0  0  0  0  0
   40.2891   31.6026   39.4007 H   0  0  0  0  0  0  0  0  0  0  0  0
   38.2107   35.8550   40.4017 H   0  0  0  0  0  0  0  0  0  0  0  0
   35.0346   29.5856   41.5228 H   0  0  0  0  0  0  0  0  0  0  0  0
   34.5928   28.4866   40.1519 H   0  0  0  0  0  0  0  0  0  0  0  0
   36.4803   28.7731   43.2116 H   0  0  0  0  0  0  0  0  0  0  0  0
   37.9491   26.9078   44.0360 H   0  0  0  0  0  0  0  0  0  0  0  0
   37.6458   25.0685   40.1935 H   0  0  0  0  0  0  0  0  0  0  0  0
  1  7  1  0
  1 14  1  0
  2  1  1  0
  3  4  1  0
  3  2  2  0
  4  6  1  0
  5  4  2  0
  6  9  1  0
  6  7  1  0
  7  8  2  0
  9 10  2  0
  9 13  1  0
 10 11  1  0
 11 12  1  0
 13 12  2  0
 14 15  1  0
 15 16  2  0
 16 17  1  0
 18 17  2  0
 19 18  1  0
 20 19  2  0
 20 15  1  0
  2 21  1  0
  3 22  1  0
 10 23  1  0
 12 24  1  0
 14 25  1  0
 14 26  1  0
 16 27  1  0
 17 28  1  0
 19 29  1  0
M  ISO  8  21  14  22  14  23  14  24  14  25   8  26   8  27  14  28  14
M  ISO  1  29  14
M  END
>  <minimizedAffinity>  (1) 
-4.98065805

>  <minimizedRMSD>  (1) 
2.48591018

$$$$
