
     RDKit          3D

 35 37  0  0  0  0  0  0  0  0999 V2000
   37.0140   32.2380   40.2630 C   0  0  0  0  0  0  0  0  0  0  0  0
   38.2710   32.4500   39.5700 N   0  0  0  0  0  0  0  0  0  0  0  0
   38.4530   31.7100   38.4650 C   0  0  0  0  0  0  0  0  0  0  0  0
   39.5980   31.8010   37.7010 C   0  0  0  0  0  0  0  0  0  0  0  0
   40.5940   32.6810   38.0750 C   0  0  0  0  0  0  0  0  0  0  0  0
   41.6490   32.7990   37.4130 O   0  0  0  0  0  0  0  0  0  0  0  0
   40.3710   33.3990   39.1830 N   0  0  0  0  0  0  0  0  0  0  0  0
   39.2540   33.3190   39.9410 C   0  0  0  0  0  0  0  0  0  0  0  0
   39.0300   33.9780   40.9700 O   0  0  0  0  0  0  0  0  0  0  0  0
   41.3920   34.3400   39.6160 C   0  0  0  0  0  0  0  0  0  0  0  0
   40.8940   35.6010   39.2330 F   0  0  0  0  0  0  0  0  0  0  0  0
   41.5370   34.3960   40.9750 F   0  0  0  0  0  0  0  0  0  0  0  0
   42.5840   34.1980   38.9470 F   0  0  0  0  0  0  0  0  0  0  0  0
   36.8490   30.8500   40.6750 C   0  0  0  0  0  0  0  0  0  0  0  0
   35.7290   30.1170   40.4010 C   0  0  0  0  0  0  0  0  0  0  0  0
   35.6220   28.7980   40.8180 C   0  0  0  0  0  0  0  0  0  0  0  0
   36.6750   28.2620   41.5110 N   0  0  0  0  0  0  0  0  0  0  0  0
   37.7790   29.0110   41.7720 C   0  0  0  0  0  0  0  0  0  0  0  0
   37.8500   30.2570   41.3640 N   0  0  0  0  0  0  0  0  0  0  0  0
   38.8410   28.3420   42.5170 C   0  0  0  0  0  0  0  0  0  0  0  0
   38.6100   27.2440   43.3220 C   0  0  0  0  0  0  0  0  0  0  0  0
   39.6660   26.6540   44.0050 C   0  0  0  0  0  0  0  0  0  0  0  0
   40.9680   27.1200   43.9180 C   0  0  0  0  0  0  0  0  0  0  0  0
   41.1240   28.2110   43.1020 C   0  0  0  0  0  0  0  0  0  0  0  0
   40.1080   28.7900   42.4370 N   0  0  0  0  0  0  0  0  0  0  0  0
   36.1869   32.5104   39.5909 H   0  0  0  0  0  0  0  0  0  0  0  0
   37.0127   32.8648   41.1670 H   0  0  0  0  0  0  0  0  0  0  0  0
   37.6634   31.0081   38.1587 H   0  0  0  0  0  0  0  0  0  0  0  0
   39.7164   31.1782   36.8021 H   0  0  0  0  0  0  0  0  0  0  0  0
   34.9013   30.5786   39.8425 H   0  0  0  0  0  0  0  0  0  0  0  0
   34.7227   28.2033   40.5997 H   0  0  0  0  0  0  0  0  0  0  0  0
   37.5927   26.8377   43.4221 H   0  0  0  0  0  0  0  0  0  0  0  0
   39.4600   25.7807   44.6413 H   0  0  0  0  0  0  0  0  0  0  0  0
   41.8056   26.6542   44.4578 H   0  0  0  0  0  0  0  0  0  0  0  0
   42.1324   28.6348   42.9851 H   0  0  0  0  0  0  0  0  0  0  0  0
  1 14  1  0
  2  8  1  0
  2  1  1  0
  3  2  1  0
  4  5  1  0
  4  3  2  0
  5  7  1  0
  6  5  2  0
  7 10  1  0
  7  8  1  0
  8  9  2  0
 10 12  1  0
 11 10  1  0
 13 10  1  0
 14 19  1  0
 15 14  2  0
 15 16  1  0
 16 17  2  0
 17 18  1  0
 18 20  1  0
 19 18  2  0
 20 21  2  0
 21 22  1  0
 23 22  2  0
 24 23  1  0
 25 20  1  0
 25 24  2  0
  1 26  1  0
  1 27  1  0
  3 28  1  0
  4 29  1  0
 15 30  1  0
 16 31  1  0
 21 32  1  0
 22 33  1  0
 23 34  1  0
 24 35  1  0
M  ISO  8  26   8  27   8  28  14  29  14  30  14  31  14  32  14  33  14
M  ISO  2  34  14  35  14
M  END
>  <minimizedAffinity>  (1) 
-6.18459988

>  <minimizedRMSD>  (1) 
3.19081807

$$$$
