
     RDKit          3D

 39 41  0  0  0  0  0  0  0  0999 V2000
   36.9640   32.2770   40.2440 C   0  0  0  0  0  0  0  0  0  0  0  0
   38.2310   32.4560   39.5600 N   0  0  0  0  0  0  0  0  0  0  0  0
   38.4130   31.6900   38.4480 C   0  0  0  0  0  0  0  0  0  0  0  0
   39.5670   31.7570   37.7030 C   0  0  0  0  0  0  0  0  0  0  0  0
   40.5800   32.6250   38.0830 C   0  0  0  0  0  0  0  0  0  0  0  0
   41.6400   32.7100   37.4260 O   0  0  0  0  0  0  0  0  0  0  0  0
   40.3530   33.3560   39.1830 N   0  0  0  0  0  0  0  0  0  0  0  0
   39.2310   33.3010   39.9200 C   0  0  0  0  0  0  0  0  0  0  0  0
   39.0060   33.9780   40.9480 O   0  0  0  0  0  0  0  0  0  0  0  0
   41.3830   34.2860   39.6310 C   0  0  0  0  0  0  0  0  0  0  0  0
   40.9200   35.5500   39.2260 F   0  0  0  0  0  0  0  0  0  0  0  0
   41.5210   34.3390   40.9900 F   0  0  0  0  0  0  0  0  0  0  0  0
   42.5830   34.1070   38.9630 F   0  0  0  0  0  0  0  0  0  0  0  0
   36.7810   30.9030   40.6900 C   0  0  0  0  0  0  0  0  0  0  0  0
   35.7300   30.1190   40.3050 C   0  0  0  0  0  0  0  0  0  0  0  0
   35.5900   28.8150   40.7500 C   0  0  0  0  0  0  0  0  0  0  0  0
   36.5540   28.3390   41.6000 N   0  0  0  0  0  0  0  0  0  0  0  0
   37.5950   29.1270   41.9760 C   0  0  0  0  0  0  0  0  0  0  0  0
   37.6950   30.3650   41.5310 N   0  0  0  0  0  0  0  0  0  0  0  0
   38.5880   28.5580   42.8830 C   0  0  0  0  0  0  0  0  0  0  0  0
   38.3490   27.1160   43.2580 C   0  0  0  0  0  0  0  0  0  0  0  0
   39.6370   26.7820   43.9810 C   0  0  0  0  0  0  0  0  0  0  0  0
   40.7000   27.7050   43.3820 C   0  0  0  0  0  0  0  0  0  0  0  0
   39.9670   28.4410   42.2520 C   0  0  0  0  0  0  0  0  0  0  0  0
   36.1473   32.5399   39.5557 H   0  0  0  0  0  0  0  0  0  0  0  0
   36.9583   32.9284   41.1304 H   0  0  0  0  0  0  0  0  0  0  0  0
   37.6152   30.9992   38.1377 H   0  0  0  0  0  0  0  0  0  0  0  0
   39.6861   31.1254   36.8103 H   0  0  0  0  0  0  0  0  0  0  0  0
   34.9742   30.5352   39.6227 H   0  0  0  0  0  0  0  0  0  0  0  0
   34.7423   28.1888   40.4350 H   0  0  0  0  0  0  0  0  0  0  0  0
   38.5143   29.2521   43.7332 H   0  0  0  0  0  0  0  0  0  0  0  0
   37.4765   27.0109   43.9196 H   0  0  0  0  0  0  0  0  0  0  0  0
   38.1272   26.4586   42.4044 H   0  0  0  0  0  0  0  0  0  0  0  0
   39.5307   26.9689   45.0598 H   0  0  0  0  0  0  0  0  0  0  0  0
   39.9061   25.7221   43.8618 H   0  0  0  0  0  0  0  0  0  0  0  0
   41.0686   28.4162   44.1359 H   0  0  0  0  0  0  0  0  0  0  0  0
   41.5820   27.1543   43.0231 H   0  0  0  0  0  0  0  0  0  0  0  0
   39.9451   27.8506   41.3241 H   0  0  0  0  0  0  0  0  0  0  0  0
   40.4220   29.3928   41.9404 H   0  0  0  0  0  0  0  0  0  0  0  0
  1 14  1  0
  2  8  1  0
  2  1  1  0
  3  2  1  0
  4  5  1  0
  4  3  2  0
  5  7  1  0
  6  5  2  0
  7 10  1  0
  7  8  1  0
  8  9  2  0
 10 12  1  0
 11 10  1  0
 13 10  1  0
 14 19  1  0
 15 14  2  0
 15 16  1  0
 16 17  2  0
 17 18  1  0
 18 20  1  0
 19 18  2  0
 20 21  1  0
 21 22  1  0
 23 22  1  0
 24 20  1  0
 24 23  1  0
  1 25  1  0
  1 26  1  0
  3 27  1  0
  4 28  1  0
 15 29  1  0
 16 30  1  0
 20 31  1  0
 21 32  1  0
 21 33  1  0
 22 34  1  0
 22 35  1  0
 23 36  1  0
 23 37  1  0
 24 38  1  0
 24 39  1  0
M  ISO  8  25   8  26   8  27  14  28  14  29  14  30  14  31  13  32  13
M  ISO  7  33  13  34  13  35  13  36  13  37  13  38  13  39  13
M  END
>  <minimizedAffinity>  (1) 
-6.12279654

>  <minimizedRMSD>  (1) 
2.71942091

$$$$
