
     RDKit          3D

 39 41  0  0  0  0  0  0  0  0999 V2000
   37.1570   32.1140   40.4150 C   0  0  0  0  0  0  0  0  0  0  0  0
   36.9300   30.6770   40.6110 C   0  0  0  0  0  0  0  0  0  0  0  0
   35.7090   30.0930   40.4130 C   0  0  0  0  0  0  0  0  0  0  0  0
   35.5280   28.7290   40.6080 C   0  0  0  0  0  0  0  0  0  0  0  0
   36.6060   27.9940   41.0020 N   0  0  0  0  0  0  0  0  0  0  0  0
   37.8120   28.5980   41.1930 C   0  0  0  0  0  0  0  0  0  0  0  0
   37.9520   29.8940   41.0000 N   0  0  0  0  0  0  0  0  0  0  0  0
   38.9560   27.8620   41.6040 N   0  0  0  0  0  0  0  0  0  0  0  0
   39.3310   26.5790   41.0200 C   0  0  0  0  0  0  0  0  0  0  0  0
   39.4520   25.5990   42.1770 C   0  0  0  0  0  0  0  0  0  0  0  0
   39.0080   26.1580   43.3830 O   0  0  0  0  0  0  0  0  0  0  0  0
   39.8040   27.2370   43.7260 C   0  0  0  0  0  0  0  0  0  0  0  0
   39.8730   28.2960   42.6420 C   0  0  0  0  0  0  0  0  0  0  0  0
   38.3450   32.3730   39.6440 N   0  0  0  0  0  0  0  0  0  0  0  0
   38.4980   31.6180   38.5290 C   0  0  0  0  0  0  0  0  0  0  0  0
   39.5910   31.7570   37.6900 C   0  0  0  0  0  0  0  0  0  0  0  0
   40.5620   32.6980   38.0020 C   0  0  0  0  0  0  0  0  0  0  0  0
   41.5700   32.8540   37.2660 O   0  0  0  0  0  0  0  0  0  0  0  0
   40.3740   33.4220   39.1120 N   0  0  0  0  0  0  0  0  0  0  0  0
   39.3060   33.2870   39.9300 C   0  0  0  0  0  0  0  0  0  0  0  0
   39.1090   33.9470   40.9650 O   0  0  0  0  0  0  0  0  0  0  0  0
   41.3660   34.4200   39.4770 C   0  0  0  0  0  0  0  0  0  0  0  0
   40.6870   35.6470   39.3250 F   0  0  0  0  0  0  0  0  0  0  0  0
   41.7560   34.3500   40.7780 F   0  0  0  0  0  0  0  0  0  0  0  0
   42.4050   34.4800   38.5700 F   0  0  0  0  0  0  0  0  0  0  0  0
   36.2914   32.5414   39.8877 H   0  0  0  0  0  0  0  0  0  0  0  0
   37.2878   32.5751   41.4051 H   0  0  0  0  0  0  0  0  0  0  0  0
   34.8575   30.7124   40.0946 H   0  0  0  0  0  0  0  0  0  0  0  0
   34.5467   28.2579   40.4495 H   0  0  0  0  0  0  0  0  0  0  0  0
   38.5572   26.2413   40.3149 H   0  0  0  0  0  0  0  0  0  0  0  0
   40.2760   26.6559   40.4623 H   0  0  0  0  0  0  0  0  0  0  0  0
   38.8465   24.7082   41.9535 H   0  0  0  0  0  0  0  0  0  0  0  0
   40.5141   25.3372   42.2928 H   0  0  0  0  0  0  0  0  0  0  0  0
   39.3962   27.6965   44.6384 H   0  0  0  0  0  0  0  0  0  0  0  0
   40.8248   26.8559   43.8767 H   0  0  0  0  0  0  0  0  0  0  0  0
   40.8955   28.3694   42.2432 H   0  0  0  0  0  0  0  0  0  0  0  0
   39.6036   29.2895   43.0298 H   0  0  0  0  0  0  0  0  0  0  0  0
   37.7293   30.8708   38.2825 H   0  0  0  0  0  0  0  0  0  0  0  0
   39.6879   31.1314   36.7905 H   0  0  0  0  0  0  0  0  0  0  0  0
  1  2  1  0
  2  7  2  0
  3  4  2  0
  3  2  1  0
  4  5  1  0
  5  6  2  0
  6  8  1  0
  7  6  1  0
  8 13  1  0
  9  8  1  0
  9 10  1  0
 10 11  1  0
 11 12  1  0
 13 12  1  0
 14 20  1  0
 14  1  1  0
 15 14  1  0
 16 17  1  0
 16 15  2  0
 17 19  1  0
 18 17  2  0
 19 22  1  0
 19 20  1  0
 20 21  2  0
 22 24  1  0
 23 22  1  0
 25 22  1  0
  1 26  1  0
  1 27  1  0
  3 28  1  0
  4 29  1  0
  9 30  1  0
  9 31  1  0
 10 32  1  0
 10 33  1  0
 12 34  1  0
 12 35  1  0
 13 36  1  0
 13 37  1  0
 15 38  1  0
 16 39  1  0
M  ISO  8  26   8  27   8  28  14  29  14  30  13  31  13  32  13  33  13
M  ISO  6  34  13  35  13  36  13  37  13  38  14  39  14
M  END
>  <minimizedAffinity>  (1) 
-5.78733063

>  <minimizedRMSD>  (1) 
2.667979

$$$$
