
     RDKit          3D

 35 36  0  0  0  0  0  0  0  0999 V2000
   40.2510   30.3050   40.8330 N   0  0  0  0  0  0  0  0  0  0  0  0
   40.4060   29.4400   39.7960 C   0  0  0  0  0  0  0  0  0  0  0  0
   39.7190   29.5990   38.6070 C   0  0  0  0  0  0  0  0  0  0  0  0
   38.8470   30.6600   38.4520 C   0  0  0  0  0  0  0  0  0  0  0  0
   38.2110   30.8320   37.3900 O   0  0  0  0  0  0  0  0  0  0  0  0
   38.7280   31.4890   39.5070 N   0  0  0  0  0  0  0  0  0  0  0  0
   39.3940   31.3330   40.6570 C   0  0  0  0  0  0  0  0  0  0  0  0
   39.2910   32.1020   41.6500 O   0  0  0  0  0  0  0  0  0  0  0  0
   37.8220   32.6210   39.3910 C   0  0  0  0  0  0  0  0  0  0  0  0
   36.8750   32.4140   40.3920 F   0  0  0  0  0  0  0  0  0  0  0  0
   38.4230   33.8230   39.6630 F   0  0  0  0  0  0  0  0  0  0  0  0
   37.1090   32.6200   38.2060 F   0  0  0  0  0  0  0  0  0  0  0  0
   41.0340   30.0140   42.0150 C   0  0  0  0  0  0  0  0  0  0  0  0
   40.5330   28.8360   42.7160 C   0  0  0  0  0  0  0  0  0  0  0  0
   41.3560   27.8990   43.2830 C   0  0  0  0  0  0  0  0  0  0  0  0
   40.8480   26.7910   43.9440 C   0  0  0  0  0  0  0  0  0  0  0  0
   39.4930   26.6640   44.0110 N   0  0  0  0  0  0  0  0  0  0  0  0
   38.6880   27.6060   43.4410 C   0  0  0  0  0  0  0  0  0  0  0  0
   39.1990   28.6470   42.8210 N   0  0  0  0  0  0  0  0  0  0  0  0
   37.2190   27.4080   43.5510 C   0  0  0  0  0  0  0  0  0  0  0  0
   36.6740   28.0960   44.8060 C   0  0  0  0  0  0  0  0  0  0  0  0
   36.4450   27.9200   42.3820 C   0  0  0  0  0  0  0  0  0  0  0  0
   41.0965   28.5908   39.9059 H   0  0  0  0  0  0  0  0  0  0  0  0
   39.8661   28.8823   37.7856 H   0  0  0  0  0  0  0  0  0  0  0  0
   42.0774   29.8346   41.7165 H   0  0  0  0  0  0  0  0  0  0  0  0
   40.9620   30.8753   42.6955 H   0  0  0  0  0  0  0  0  0  0  0  0
   42.4460   28.0287   43.2122 H   0  0  0  0  0  0  0  0  0  0  0  0
   41.5142   26.0423   44.3975 H   0  0  0  0  0  0  0  0  0  0  0  0
   37.0848   26.3171   43.5955 H   0  0  0  0  0  0  0  0  0  0  0  0
   37.0712   27.5945   45.7008 H   0  0  0  0  0  0  0  0  0  0  0  0
   36.9837   29.1515   44.8093 H   0  0  0  0  0  0  0  0  0  0  0  0
   35.5756   28.0361   44.8093 H   0  0  0  0  0  0  0  0  0  0  0  0
   35.5774   28.4939   42.7396 H   0  0  0  0  0  0  0  0  0  0  0  0
   37.0891   28.5708   41.7724 H   0  0  0  0  0  0  0  0  0  0  0  0
   36.0981   27.0726   41.7724 H   0  0  0  0  0  0  0  0  0  0  0  0
  1 13  1  0
  2  1  1  0
  3  2  2  0
  4  3  1  0
  4  6  1  0
  5  4  2  0
  6  7  1  0
  7  1  1  0
  7  8  2  0
  9  6  1  0
  9 11  1  0
  9 10  1  0
 12  9  1  0
 13 14  1  0
 14 19  1  0
 14 15  2  0
 15 16  1  0
 16 17  2  0
 18 20  1  0
 18 17  1  0
 19 18  2  0
 20 21  1  0
 22 20  1  0
  2 23  1  0
  3 24  1  0
 13 25  1  0
 13 26  1  0
 15 27  1  0
 16 28  1  0
 20 29  1  0
 21 30  1  0
 21 31  1  0
 21 32  1  0
 22 33  1  0
 22 34  1  0
 22 35  1  0
M  ISO  8  23  14  24  14  25   8  26   8  27  14  28  14  29   8  30   8
M  ISO  5  31   8  32   8  33   8  34   8  35   8
M  END
>  <minimizedAffinity>  (1) 
-5.43200397

>  <minimizedRMSD>  (1) 
2.95382786

$$$$
