
     RDKit          3D

 29 30  0  0  0  0  0  0  0  0999 V2000
   38.3250   31.4170   40.0320 N   0  0  0  0  0  0  0  0  0  0  0  0
   38.5470   30.7080   38.8920 C   0  0  0  0  0  0  0  0  0  0  0  0
   39.4550   31.1250   37.9400 C   0  0  0  0  0  0  0  0  0  0  0  0
   40.1610   32.2920   38.1420 C   0  0  0  0  0  0  0  0  0  0  0  0
   40.9870   32.6950   37.3030 O   0  0  0  0  0  0  0  0  0  0  0  0
   39.9120   32.9620   39.2820 N   0  0  0  0  0  0  0  0  0  0  0  0
   39.0260   32.5520   40.2070 C   0  0  0  0  0  0  0  0  0  0  0  0
   38.7820   33.1620   41.2700 O   0  0  0  0  0  0  0  0  0  0  0  0
   40.6370   34.1910   39.5260 C   0  0  0  0  0  0  0  0  0  0  0  0
   39.6500   35.1670   39.6260 F   0  0  0  0  0  0  0  0  0  0  0  0
   41.2840   34.2040   40.7430 F   0  0  0  0  0  0  0  0  0  0  0  0
   41.4430   34.5680   38.4730 F   0  0  0  0  0  0  0  0  0  0  0  0
   37.3400   30.8450   40.9290 C   0  0  0  0  0  0  0  0  0  0  0  0
   37.8520   29.6650   41.6170 C   0  0  0  0  0  0  0  0  0  0  0  0
   38.8930   29.7110   42.4990 C   0  0  0  0  0  0  0  0  0  0  0  0
   39.3470   28.5580   43.1300 C   0  0  0  0  0  0  0  0  0  0  0  0
   38.7210   27.3920   42.8410 N   0  0  0  0  0  0  0  0  0  0  0  0
   37.6840   27.3600   41.9600 C   0  0  0  0  0  0  0  0  0  0  0  0
   37.2760   28.4730   41.3750 N   0  0  0  0  0  0  0  0  0  0  0  0
   37.0830   26.0100   41.7310 C   0  0  0  0  0  0  0  0  0  0  0  0
   37.9869   29.7762   38.7245 H   0  0  0  0  0  0  0  0  0  0  0  0
   39.6141   30.5313   37.0277 H   0  0  0  0  0  0  0  0  0  0  0  0
   37.0601   31.6002   41.6782 H   0  0  0  0  0  0  0  0  0  0  0  0
   36.4695   30.5397   40.3298 H   0  0  0  0  0  0  0  0  0  0  0  0
   39.3796   30.6739   42.7136 H   0  0  0  0  0  0  0  0  0  0  0  0
   40.1864   28.5916   43.8401 H   0  0  0  0  0  0  0  0  0  0  0  0
   36.8710   25.5339   42.6997 H   0  0  0  0  0  0  0  0  0  0  0  0
   36.1474   26.1168   41.1624 H   0  0  0  0  0  0  0  0  0  0  0  0
   37.7884   25.3862   41.1624 H   0  0  0  0  0  0  0  0  0  0  0  0
  1  7  1  0
  1 13  1  0
  2  1  1  0
  3  4  1  0
  3  2  2  0
  4  6  1  0
  5  4  2  0
  6  9  1  0
  6  7  1  0
  7  8  2  0
  9 10  1  0
  9 11  1  0
 12  9  1  0
 13 14  1  0
 14 15  2  0
 15 16  1  0
 17 16  2  0
 18 17  1  0
 19 14  1  0
 19 18  2  0
 20 18  1  0
  2 21  1  0
  3 22  1  0
 13 23  1  0
 13 24  1  0
 15 25  1  0
 16 26  1  0
 20 27  1  0
 20 28  1  0
 20 29  1  0
M  ISO  8  21  14  22  14  23   8  24   8  25  14  26  14  27   8  28   8
M  ISO  1  29   8
M  END
>  <minimizedAffinity>  (1) 
-4.82258177

>  <minimizedRMSD>  (1) 
0.647047698

$$$$
