
     RDKit          3D

 27 28  0  0  0  0  0  0  0  0999 V2000
   38.2370   31.4630   39.8970 N   0  0  0  0  0  0  0  0  0  0  0  0
   38.4920   30.7770   38.7670 C   0  0  0  0  0  0  0  0  0  0  0  0
   39.4560   31.1830   37.8630 C   0  0  0  0  0  0  0  0  0  0  0  0
   40.1870   32.3280   38.1200 C   0  0  0  0  0  0  0  0  0  0  0  0
   41.0660   32.7400   37.3430 O   0  0  0  0  0  0  0  0  0  0  0  0
   39.8910   32.9790   39.2680 N   0  0  0  0  0  0  0  0  0  0  0  0
   38.9550   32.5780   40.1370 C   0  0  0  0  0  0  0  0  0  0  0  0
   38.6700   33.1770   41.2110 O   0  0  0  0  0  0  0  0  0  0  0  0
   40.6390   34.1950   39.5790 C   0  0  0  0  0  0  0  0  0  0  0  0
   39.6420   35.1890   39.6750 F   0  0  0  0  0  0  0  0  0  0  0  0
   41.2440   34.1540   40.8000 F   0  0  0  0  0  0  0  0  0  0  0  0
   41.4680   34.6030   38.5610 F   0  0  0  0  0  0  0  0  0  0  0  0
   37.1950   30.9100   40.7440 C   0  0  0  0  0  0  0  0  0  0  0  0
   37.6520   29.7110   41.4450 C   0  0  0  0  0  0  0  0  0  0  0  0
   38.4500   29.7440   42.5540 C   0  0  0  0  0  0  0  0  0  0  0  0
   38.8580   28.5750   43.1850 C   0  0  0  0  0  0  0  0  0  0  0  0
   38.4390   27.3940   42.6640 N   0  0  0  0  0  0  0  0  0  0  0  0
   37.6430   27.3740   41.5580 C   0  0  0  0  0  0  0  0  0  0  0  0
   37.2700   28.5040   40.9770 N   0  0  0  0  0  0  0  0  0  0  0  0
   37.0700   25.8250   40.8430 S   0  0  0  0  0  0  0  0  0  0  0  0
   37.9150   29.8645   38.5563 H   0  0  0  0  0  0  0  0  0  0  0  0
   39.6396   30.6006   36.9481 H   0  0  0  0  0  0  0  0  0  0  0  0
   36.8989   31.6663   41.4858 H   0  0  0  0  0  0  0  0  0  0  0  0
   36.3435   30.6321   40.1055 H   0  0  0  0  0  0  0  0  0  0  0  0
   38.7758   30.7151   42.9551 H   0  0  0  0  0  0  0  0  0  0  0  0
   39.4998   28.6059   44.0778 H   0  0  0  0  0  0  0  0  0  0  0  0
   36.7466   24.9507   41.8469 H   0  0  0  0  0  0  0  0  0  0  0  0
  1  7  1  0
  1 13  1  0
  2  1  1  0
  3  4  1  0
  3  2  2  0
  4  6  1  0
  5  4  2  0
  6  9  1  0
  6  7  1  0
  7  8  2  0
  9 10  1  0
  9 11  1  0
 12  9  1  0
 13 14  1  0
 14 15  2  0
 15 16  1  0
 17 16  2  0
 18 17  1  0
 19 14  1  0
 19 18  2  0
 20 18  1  0
  2 21  1  0
  3 22  1  0
 13 23  1  0
 13 24  1  0
 15 25  1  0
 16 26  1  0
 20 27  1  0
M  ISO  7  21  14  22  14  23   8  24   8  25  14  26  14  27  11
M  END
>  <minimizedAffinity>  (1) 
-4.69219923

>  <minimizedRMSD>  (1) 
0.678493857

$$$$
