
     RDKit          3D

 27 29  0  0  0  0  0  0  0  0999 V2000
   36.7850   29.4730   39.5410 S   0  0  0  0  0  0  0  0  0  0  0  0
   37.0040   28.5010   41.0450 C   0  0  0  0  0  0  0  0  0  0  0  0
   37.2680   29.2060   42.2080 C   0  0  0  0  0  0  0  0  0  0  0  0
   37.4630   28.6160   43.4490 C   0  0  0  0  0  0  0  0  0  0  0  0
   37.3810   27.2400   43.4770 C   0  0  0  0  0  0  0  0  0  0  0  0
   37.1220   26.5140   42.3420 C   0  0  0  0  0  0  0  0  0  0  0  0
   37.0410   25.1200   42.3790 C   0  0  0  0  0  0  0  0  0  0  0  0
   36.7760   24.4400   41.2000 C   0  0  0  0  0  0  0  0  0  0  0  0
   36.5890   25.0780   39.9910 C   0  0  0  0  0  0  0  0  0  0  0  0
   36.6700   26.4610   39.9490 C   0  0  0  0  0  0  0  0  0  0  0  0
   36.9330   27.1230   41.1290 C   0  0  0  0  0  0  0  0  0  0  0  0
   37.6460   33.3450   39.9250 C   0  0  0  0  0  0  0  0  0  0  0  0
   39.0410   33.3720   39.8660 C   0  0  0  0  0  0  0  0  0  0  0  0
   39.7300   32.1780   39.7060 C   0  0  0  0  0  0  0  0  0  0  0  0
   39.0230   31.0150   39.6100 N   0  0  0  0  0  0  0  0  0  0  0  0
   37.6690   31.0190   39.6700 C   0  0  0  0  0  0  0  0  0  0  0  0
   37.0050   32.1740   39.8250 N   0  0  0  0  0  0  0  0  0  0  0  0
   37.3268   30.3026   42.1438 H   0  0  0  0  0  0  0  0  0  0  0  0
   37.6698   29.2084   44.3525 H   0  0  0  0  0  0  0  0  0  0  0  0
   37.5265   26.7122   44.4311 H   0  0  0  0  0  0  0  0  0  0  0  0
   37.1843   24.5736   43.3229 H   0  0  0  0  0  0  0  0  0  0  0  0
   36.7120   23.3423   41.2299 H   0  0  0  0  0  0  0  0  0  0  0  0
   36.3798   24.5004   39.0785 H   0  0  0  0  0  0  0  0  0  0  0  0
   36.5293   27.0111   39.0069 H   0  0  0  0  0  0  0  0  0  0  0  0
   37.0784   34.2786   40.0526 H   0  0  0  0  0  0  0  0  0  0  0  0
   39.5851   34.3247   39.9451 H   0  0  0  0  0  0  0  0  0  0  0  0
   40.8289   32.1694   39.6573 H   0  0  0  0  0  0  0  0  0  0  0  0
  1 16  1  0
  1  2  1  0
  2 11  1  0
  2  3  2  0
  3  4  1  0
  4  5  2  0
  6  7  2  0
  6  5  1  0
  8  7  1  0
  9  8  2  0
 10  9  1  0
 10 11  2  0
 11  6  1  0
 13 12  2  0
 14 13  1  0
 15 16  1  0
 15 14  2  0
 16 17  2  0
 17 12  1  0
  3 18  1  0
  4 19  1  0
  5 20  1  0
  7 21  1  0
  8 22  1  0
  9 23  1  0
 10 24  1  0
 12 25  1  0
 13 26  1  0
 14 27  1  0
M  ISO  8  18  14  19  14  20  14  21  14  22  14  23  14  24  14  25  14
M  ISO  2  26  14  27  14
M  END
>  <minimizedAffinity>  (1) 
-5.23573732

>  <minimizedRMSD>  (1) 
6.08234406

$$$$
