
     RDKit          3D

 25 27  0  0  0  0  0  0  0  0999 V2000
   38.6720   32.0430   39.6550 C   0  0  0  0  0  0  0  0  0  0  0  0
   39.3350   31.0520   39.0220 N   0  0  0  0  0  0  0  0  0  0  0  0
   40.5530   31.2360   38.4650 C   0  0  0  0  0  0  0  0  0  0  0  0
   41.1770   32.4470   38.5170 N   0  0  0  0  0  0  0  0  0  0  0  0
   40.5300   33.4420   39.1440 C   0  0  0  0  0  0  0  0  0  0  0  0
   41.1050   34.6930   39.2330 C   0  0  0  0  0  0  0  0  0  0  0  0
   40.4410   35.7400   39.8830 C   0  0  0  0  0  0  0  0  0  0  0  0
   39.1990   35.5020   40.4350 C   0  0  0  0  0  0  0  0  0  0  0  0
   38.5760   34.2560   40.3710 C   0  0  0  0  0  0  0  0  0  0  0  0
   39.2860   33.2830   39.7200 C   0  0  0  0  0  0  0  0  0  0  0  0
   37.0700   31.6120   40.3300 S   0  0  0  0  0  0  0  0  0  0  0  0
   38.5540   29.1070   43.0720 C   0  0  0  0  0  0  0  0  0  0  0  0
   37.6500   28.0220   43.0390 C   0  0  0  0  0  0  0  0  0  0  0  0
   36.5770   28.0800   42.1540 C   0  0  0  0  0  0  0  0  0  0  0  0
   36.4370   29.1720   41.3600 N   0  0  0  0  0  0  0  0  0  0  0  0
   37.3180   30.2030   41.4090 C   0  0  0  0  0  0  0  0  0  0  0  0
   38.3540   30.1690   42.2480 N   0  0  0  0  0  0  0  0  0  0  0  0
   41.0494   30.3937   37.9609 H   0  0  0  0  0  0  0  0  0  0  0  0
   42.0956   34.8695   38.7885 H   0  0  0  0  0  0  0  0  0  0  0  0
   40.9019   36.7364   39.9526 H   0  0  0  0  0  0  0  0  0  0  0  0
   38.6803   36.3270   40.9452 H   0  0  0  0  0  0  0  0  0  0  0  0
   37.5857   34.0684   40.8117 H   0  0  0  0  0  0  0  0  0  0  0  0
   39.4129   29.0924   43.7591 H   0  0  0  0  0  0  0  0  0  0  0  0
   37.7906   27.1518   43.6971 H   0  0  0  0  0  0  0  0  0  0  0  0
   35.8534   27.2533   42.0990 H   0  0  0  0  0  0  0  0  0  0  0  0
  1 10  1  0
  1 11  1  0
  2  1  2  0
  3  4  2  0
  3  2  1  0
  4  5  1  0
  5  6  1  0
  5 10  2  0
  6  7  2  0
  7  8  1  0
  9  8  2  0
 10  9  1  0
 11 16  1  0
 13 12  2  0
 14 13  1  0
 15 16  1  0
 15 14  2  0
 16 17  2  0
 17 12  1  0
  3 18  1  0
  6 19  1  0
  7 20  1  0
  8 21  1  0
  9 22  1  0
 12 23  1  0
 13 24  1  0
 14 25  1  0
M  ISO  8  18  14  19  14  20  14  21  14  22  14  23  14  24  14  25  14
M  END
>  <minimizedAffinity>  (1) 
-5.05356359

>  <minimizedRMSD>  (1) 
3.36557412

$$$$
