
     RDKit          3D

 18 19  0  0  0  0  0  0  0  0999 V2000
   38.3670   29.1070   43.2420 C   0  0  0  0  0  0  0  0  0  0  0  0
   37.5840   27.9610   43.4040 C   0  0  0  0  0  0  0  0  0  0  0  0
   36.5040   27.7570   42.5320 C   0  0  0  0  0  0  0  0  0  0  0  0
   36.2740   28.7010   41.5610 N   0  0  0  0  0  0  0  0  0  0  0  0
   37.0490   29.7910   41.4370 C   0  0  0  0  0  0  0  0  0  0  0  0
   38.0930   30.0050   42.2660 N   0  0  0  0  0  0  0  0  0  0  0  0
   36.6760   30.9710   40.1410 S   0  0  0  0  0  0  0  0  0  0  0  0
   37.7010   32.4250   40.3600 C   0  0  0  0  0  0  0  0  0  0  0  0
   37.4950   33.6520   39.7620 C   0  0  0  0  0  0  0  0  0  0  0  0
   38.5310   34.4710   40.2210 C   0  0  0  0  0  0  0  0  0  0  0  0
   39.3100   33.7360   41.0580 N   0  0  0  0  0  0  0  0  0  0  0  0
   38.8130   32.5050   41.1440 N   0  0  0  0  0  0  0  0  0  0  0  0
   39.2179   29.2822   43.9167 H   0  0  0  0  0  0  0  0  0  0  0  0
   37.8096   27.2343   44.1983 H   0  0  0  0  0  0  0  0  0  0  0  0
   35.8615   26.8688   42.6231 H   0  0  0  0  0  0  0  0  0  0  0  0
   36.6857   33.9275   39.0698 H   0  0  0  0  0  0  0  0  0  0  0  0
   38.6882   35.5259   39.9518 H   0  0  0  0  0  0  0  0  0  0  0  0
   40.1499   34.0772   41.5469 H   0  0  0  0  0  0  0  0  0  0  0  0
  1  2  2  0
  3  2  1  0
  4  3  2  0
  5  4  1  0
  5  6  2  0
  6  1  1  0
  7  8  1  0
  7  5  1  0
  8 12  2  0
  9 10  2  0
  9  8  1  0
 10 11  1  0
 11 12  1  0
  1 13  1  0
  2 14  1  0
  3 15  1  0
  9 16  1  0
 10 17  1  0
 11 18  1  0
M  ISO  6  13  14  14  14  15  14  16  14  17  14  18   9
M  END
>  <minimizedAffinity>  (1) 
-4.14596033

>  <minimizedRMSD>  (1) 
0.856846631

$$$$
