
     RDKit          3D

 27 28  0  0  0  0  0  0  0  0999 V2000
   38.3530   29.0270   43.3310 C   0  0  0  0  0  0  0  0  0  0  0  0
   37.8220   27.7860   43.6770 C   0  0  0  0  0  0  0  0  0  0  0  0
   36.7330   27.3040   42.9650 C   0  0  0  0  0  0  0  0  0  0  0  0
   36.2270   28.0730   41.9500 N   0  0  0  0  0  0  0  0  0  0  0  0
   36.7670   29.2730   41.6420 C   0  0  0  0  0  0  0  0  0  0  0  0
   37.8110   29.7400   42.3190 N   0  0  0  0  0  0  0  0  0  0  0  0
   36.0600   30.2280   40.3060 S   0  0  0  0  0  0  0  0  0  0  0  0
   35.7750   29.1630   38.8620 C   0  0  0  0  0  0  0  0  0  0  0  0
   34.2910   28.9660   38.7340 C   0  0  0  0  0  0  0  0  0  0  0  0
   34.1080   28.0360   37.5340 C   0  0  0  0  0  0  0  0  0  0  0  0
   34.4550   28.8880   36.3320 C   0  0  0  0  0  0  0  0  0  0  0  0
   35.8440   29.4110   36.3500 C   0  0  0  0  0  0  0  0  0  0  0  0
   36.4310   29.7580   37.6640 C   0  0  0  0  0  0  0  0  0  0  0  0
   39.2159   29.4275   43.8833 H   0  0  0  0  0  0  0  0  0  0  0  0
   38.2580   27.1995   44.4992 H   0  0  0  0  0  0  0  0  0  0  0  0
   36.2869   26.3287   43.2093 H   0  0  0  0  0  0  0  0  0  0  0  0
   36.2299   28.1676   38.9721 H   0  0  0  0  0  0  0  0  0  0  0  0
   33.8840   28.5034   39.6452 H   0  0  0  0  0  0  0  0  0  0  0  0
   33.7615   29.9204   38.5970 H   0  0  0  0  0  0  0  0  0  0  0  0
   34.7852   27.1721   37.6058 H   0  0  0  0  0  0  0  0  0  0  0  0
   33.0881   27.6282   37.4749 H   0  0  0  0  0  0  0  0  0  0  0  0
   33.7630   29.7425   36.3010 H   0  0  0  0  0  0  0  0  0  0  0  0
   34.3668   28.2428   35.4455 H   0  0  0  0  0  0  0  0  0  0  0  0
   36.4892   28.6459   35.8935 H   0  0  0  0  0  0  0  0  0  0  0  0
   35.7884   30.3670   35.8088 H   0  0  0  0  0  0  0  0  0  0  0  0
   37.4804   29.4283   37.6590 H   0  0  0  0  0  0  0  0  0  0  0  0
   36.2946   30.8447   37.7664 H   0  0  0  0  0  0  0  0  0  0  0  0
  1  2  2  0
  3  2  1  0
  4  3  2  0
  5  4  1  0
  5  6  2  0
  6  1  1  0
  7  5  1  0
  8  7  1  0
  9  8  1  0
 10  9  1  0
 11 12  1  0
 11 10  1  0
 12 13  1  0
 13  8  1  0
  1 14  1  0
  2 15  1  0
  3 16  1  0
  8 17  1  0
  9 18  1  0
  9 19  1  0
 10 20  1  0
 10 21  1  0
 11 22  1  0
 11 23  1  0
 12 24  1  0
 12 25  1  0
 13 26  1  0
 13 27  1  0
M  ISO  8  14  14  15  14  16  14  17  13  18  13  19  13  20  13  21  13
M  ISO  6  22  13  23  13  24  13  25  13  26  13  27  13
M  END
>  <minimizedAffinity>  (1) 
-3.94940972

>  <minimizedRMSD>  (1) 
1.44346619

$$$$
