
     RDKit          3D

 34 37  0  0  0  0  0  0  0  0999 V2000
   39.9340   32.8700   38.7020 N   0  0  0  0  0  0  0  0  0  0  0  0
   40.6030   33.9640   38.9810 N   0  0  0  0  0  0  0  0  0  0  0  0
   39.9670   34.6840   39.9050 C   0  0  0  0  0  0  0  0  0  0  0  0
   38.8480   33.9490   40.1780 C   0  0  0  0  0  0  0  0  0  0  0  0
   38.8080   32.7770   39.4140 C   0  0  0  0  0  0  0  0  0  0  0  0
   37.7460   31.8210   39.5900 C   0  0  0  0  0  0  0  0  0  0  0  0
   37.2350   31.6140   40.8610 C   0  0  0  0  0  0  0  0  0  0  0  0
   36.2410   30.7340   41.1670 C   0  0  0  0  0  0  0  0  0  0  0  0
   35.6640   29.9650   40.1860 C   0  0  0  0  0  0  0  0  0  0  0  0
   36.1340   30.1270   38.9090 C   0  0  0  0  0  0  0  0  0  0  0  0
   35.5810   29.3410   37.9250 C   0  0  0  0  0  0  0  0  0  0  0  0
   36.0100   29.4110   36.6150 C   0  0  0  0  0  0  0  0  0  0  0  0
   37.0370   30.3200   36.3300 C   0  0  0  0  0  0  0  0  0  0  0  0
   37.5390   31.0720   37.3620 C   0  0  0  0  0  0  0  0  0  0  0  0
   37.1350   31.0290   38.6660 C   0  0  0  0  0  0  0  0  0  0  0  0
   40.3350   36.2320   40.6980 S   0  0  0  0  0  0  0  0  0  0  0  0
   43.8340   35.0300   42.1890 C   0  0  0  0  0  0  0  0  0  0  0  0
   44.0490   35.9260   43.2580 C   0  0  0  0  0  0  0  0  0  0  0  0
   43.0960   36.9090   43.5140 C   0  0  0  0  0  0  0  0  0  0  0  0
   42.0010   36.9580   42.7190 N   0  0  0  0  0  0  0  0  0  0  0  0
   41.8130   36.0810   41.6890 C   0  0  0  0  0  0  0  0  0  0  0  0
   42.7160   35.1420   41.4410 N   0  0  0  0  0  0  0  0  0  0  0  0
   40.2410   32.1664   38.0152 H   0  0  0  0  0  0  0  0  0  0  0  0
   38.0766   34.2412   40.9057 H   0  0  0  0  0  0  0  0  0  0  0  0
   37.6638   32.2041   41.6844 H   0  0  0  0  0  0  0  0  0  0  0  0
   35.8979   30.6386   42.2077 H   0  0  0  0  0  0  0  0  0  0  0  0
   34.8598   29.2504   40.4154 H   0  0  0  0  0  0  0  0  0  0  0  0
   34.7764   28.6388   38.1888 H   0  0  0  0  0  0  0  0  0  0  0  0
   35.5655   28.7814   35.8302 H   0  0  0  0  0  0  0  0  0  0  0  0
   37.4297   30.4278   35.3082 H   0  0  0  0  0  0  0  0  0  0  0  0
   38.3453   31.7783   37.1151 H   0  0  0  0  0  0  0  0  0  0  0  0
   44.5725   34.2457   41.9669 H   0  0  0  0  0  0  0  0  0  0  0  0
   44.9540   35.8493   43.8786 H   0  0  0  0  0  0  0  0  0  0  0  0
   43.2291   37.6250   44.3384 H   0  0  0  0  0  0  0  0  0  0  0  0
  1  2  1  0
  1  5  1  0
  2  3  2  0
  3  4  1  0
  3 16  1  0
  5  6  1  0
  5  4  2  0
  6  7  2  0
  7  8  1  0
  9  8  2  0
 10  9  1  0
 11 10  2  0
 12 11  1  0
 13 12  2  0
 13 14  1  0
 14 15  2  0
 15 10  1  0
 15  6  1  0
 16 21  1  0
 17 18  2  0
 18 19  1  0
 20 19  2  0
 21 20  1  0
 22 21  2  0
 22 17  1  0
  1 23  1  0
  4 24  1  0
  7 25  1  0
  8 26  1  0
  9 27  1  0
 11 28  1  0
 12 29  1  0
 13 30  1  0
 14 31  1  0
 17 32  1  0
 18 33  1  0
 19 34  1  0
M  ISO  8  23   9  24  14  25  14  26  14  27  14  28  14  29  14  30  14
M  ISO  4  31  14  32  14  33  14  34  14
M  END
>  <minimizedAffinity>  (1) 
-6.83271885

>  <minimizedRMSD>  (1) 
7.66130066

$$$$
