
     RDKit          3D

 30 31  0  0  0  0  0  0  0  0999 V2000
   39.3180   29.9070   42.9240 N   0  0  0  0  0  0  0  0  0  0  0  0
   39.3200   30.9790   42.1590 N   0  0  0  0  0  0  0  0  0  0  0  0
   38.2140   31.0240   41.3850 C   0  0  0  0  0  0  0  0  0  0  0  0
   37.5020   29.8890   41.7180 C   0  0  0  0  0  0  0  0  0  0  0  0
   38.1950   29.1830   42.6870 C   0  0  0  0  0  0  0  0  0  0  0  0
   37.7550   27.9220   43.2930 C   0  0  0  0  0  0  0  0  0  0  0  0
   36.9010   28.1510   44.5000 C   0  0  0  0  0  0  0  0  0  0  0  0
   38.9170   27.0380   43.6810 C   0  0  0  0  0  0  0  0  0  0  0  0
   36.9200   27.0780   42.3240 C   0  0  0  0  0  0  0  0  0  0  0  0
   37.6240   32.1790   40.1650 S   0  0  0  0  0  0  0  0  0  0  0  0
   40.9310   34.2350   39.3920 C   0  0  0  0  0  0  0  0  0  0  0  0
   40.5900   35.5540   39.6850 C   0  0  0  0  0  0  0  0  0  0  0  0
   39.2970   35.8210   40.1360 C   0  0  0  0  0  0  0  0  0  0  0  0
   38.4340   34.7890   40.2690 N   0  0  0  0  0  0  0  0  0  0  0  0
   38.7970   33.5190   39.9760 C   0  0  0  0  0  0  0  0  0  0  0  0
   40.0230   33.2520   39.5460 N   0  0  0  0  0  0  0  0  0  0  0  0
   40.0552   29.6567   43.5983 H   0  0  0  0  0  0  0  0  0  0  0  0
   36.5365   29.5923   41.2823 H   0  0  0  0  0  0  0  0  0  0  0  0
   37.4998   27.9904   45.4087 H   0  0  0  0  0  0  0  0  0  0  0  0
   36.5203   29.1830   44.4894 H   0  0  0  0  0  0  0  0  0  0  0  0
   36.0551   27.4480   44.4894 H   0  0  0  0  0  0  0  0  0  0  0  0
   38.9870   26.9847   44.7775 H   0  0  0  0  0  0  0  0  0  0  0  0
   38.7612   26.0280   43.2740 H   0  0  0  0  0  0  0  0  0  0  0  0
   39.8488   27.4576   43.2740 H   0  0  0  0  0  0  0  0  0  0  0  0
   36.2590   26.4099   42.8956 H   0  0  0  0  0  0  0  0  0  0  0  0
   36.3123   27.7408   41.6904 H   0  0  0  0  0  0  0  0  0  0  0  0
   37.5893   26.4775   41.6904 H   0  0  0  0  0  0  0  0  0  0  0  0
   41.9434   33.9961   39.0343 H   0  0  0  0  0  0  0  0  0  0  0  0
   41.3228   36.3653   39.5636 H   0  0  0  0  0  0  0  0  0  0  0  0
   38.9867   36.8482   40.3779 H   0  0  0  0  0  0  0  0  0  0  0  0
  2  1  1  0
  3  4  1  0
  3  2  2  0
  4  5  2  0
  5  1  1  0
  5  6  1  0
  6  8  1  0
  6  7  1  0
  9  6  1  0
 10  3  1  0
 11 16  2  0
 11 12  1  0
 12 13  2  0
 13 14  1  0
 15 10  1  0
 15 14  2  0
 16 15  1  0
  1 17  1  0
  4 18  1  0
  7 19  1  0
  7 20  1  0
  7 21  1  0
  8 22  1  0
  8 23  1  0
  8 24  1  0
  9 25  1  0
  9 26  1  0
  9 27  1  0
 11 28  1  0
 12 29  1  0
 13 30  1  0
M  ISO  8  17   9  18  14  19   8  20   8  21   8  22   8  23   8  24   8
M  ISO  6  25   8  26   8  27   8  28  14  29  14  30  14
M  END
>  <minimizedAffinity>  (1) 
-5.23266172

>  <minimizedRMSD>  (1) 
6.97105455

$$$$
