
     RDKit          3D

 21 22  0  0  0  0  0  0  0  0999 V2000
   40.0790   32.2500   37.0160 N   0  0  0  0  0  0  0  0  0  0  0  0
   39.0540   32.0870   37.8420 N   0  0  0  0  0  0  0  0  0  0  0  0
   39.3560   32.5480   39.0710 C   0  0  0  0  0  0  0  0  0  0  0  0
   40.6510   33.0200   38.9760 C   0  0  0  0  0  0  0  0  0  0  0  0
   41.1090   32.8330   37.6800 C   0  0  0  0  0  0  0  0  0  0  0  0
   42.4280   33.1990   37.1770 C   0  0  0  0  0  0  0  0  0  0  0  0
   43.3680   32.3800   37.1950 O   0  0  0  0  0  0  0  0  0  0  0  0
   42.6260   34.4800   36.6750 O   0  0  0  0  0  0  0  0  0  0  0  0
   38.4420   32.6250   40.6020 S   0  0  0  0  0  0  0  0  0  0  0  0
   37.0940   29.1070   41.8600 C   0  0  0  0  0  0  0  0  0  0  0  0
   35.9610   28.8660   41.0820 C   0  0  0  0  0  0  0  0  0  0  0  0
   35.6030   29.8310   40.1330 C   0  0  0  0  0  0  0  0  0  0  0  0
   36.3730   30.9420   40.0200 N   0  0  0  0  0  0  0  0  0  0  0  0
   37.4690   31.1380   40.7990 C   0  0  0  0  0  0  0  0  0  0  0  0
   37.8100   30.2190   41.7020 N   0  0  0  0  0  0  0  0  0  0  0  0
   40.0913   31.9762   36.0231 H   0  0  0  0  0  0  0  0  0  0  0  0
   41.2269   33.4719   39.7970 H   0  0  0  0  0  0  0  0  0  0  0  0
   41.8775   35.1278   36.6622 H   0  0  0  0  0  0  0  0  0  0  0  0
   37.4004   28.3678   42.6148 H   0  0  0  0  0  0  0  0  0  0  0  0
   35.3686   27.9480   41.2101 H   0  0  0  0  0  0  0  0  0  0  0  0
   34.7184   29.6916   39.4942 H   0  0  0  0  0  0  0  0  0  0  0  0
  1  5  1  0
  1  2  1  0
  2  3  2  0
  3  9  1  0
  4  3  1  0
  5  4  2  0
  6  7  2  0
  6  5  1  0
  8  6  1  0
  9 14  1  0
 11 10  2  0
 12 11  1  0
 13 12  2  0
 13 14  1  0
 14 15  2  0
 15 10  1  0
  1 16  1  0
  4 17  1  0
  8 18  1  0
 10 19  1  0
 11 20  1  0
 12 21  1  0
M  ISO  6  16   9  17  14  18   3  19  14  20  14  21  14
M  END
>  <minimizedAffinity>  (1) 
-5.04697466

>  <minimizedRMSD>  (1) 
0.435129046

$$$$
