
     RDKit          3D

 32 34  0  0  0  0  0  0  0  0999 V2000
   39.5820   32.0600   36.9210 N   0  0  0  0  0  0  0  0  0  0  0  0
   38.3970   31.9740   37.4760 N   0  0  0  0  0  0  0  0  0  0  0  0
   38.4460   32.3270   38.7610 C   0  0  0  0  0  0  0  0  0  0  0  0
   39.7520   32.6520   39.0170 C   0  0  0  0  0  0  0  0  0  0  0  0
   40.5080   32.4880   37.8440 C   0  0  0  0  0  0  0  0  0  0  0  0
   41.9140   32.7220   37.6830 N   0  0  0  0  0  0  0  0  0  0  0  0
   42.6810   31.7060   36.9470 C   0  0  0  0  0  0  0  0  0  0  0  0
   44.1460   32.0590   37.0570 C   0  0  0  0  0  0  0  0  0  0  0  0
   44.3570   33.4860   36.8730 N   0  0  0  0  0  0  0  0  0  0  0  0
   43.8660   34.1830   38.0250 C   0  0  0  0  0  0  0  0  0  0  0  0
   42.4050   33.9550   38.2790 C   0  0  0  0  0  0  0  0  0  0  0  0
   37.1970   32.4220   40.0370 S   0  0  0  0  0  0  0  0  0  0  0  0
   37.4690   29.0580   42.1240 C   0  0  0  0  0  0  0  0  0  0  0  0
   36.3520   28.3180   41.7100 C   0  0  0  0  0  0  0  0  0  0  0  0
   35.4940   28.8750   40.7630 C   0  0  0  0  0  0  0  0  0  0  0  0
   35.7860   30.1130   40.2850 N   0  0  0  0  0  0  0  0  0  0  0  0
   36.8690   30.7940   40.7060 C   0  0  0  0  0  0  0  0  0  0  0  0
   37.7000   30.2790   41.6100 N   0  0  0  0  0  0  0  0  0  0  0  0
   39.7894   31.8391   35.9366 H   0  0  0  0  0  0  0  0  0  0  0  0
   40.1464   32.9881   39.9873 H   0  0  0  0  0  0  0  0  0  0  0  0
   42.3763   31.7009   35.8901 H   0  0  0  0  0  0  0  0  0  0  0  0
   42.4953   30.7068   37.3679 H   0  0  0  0  0  0  0  0  0  0  0  0
   44.5118   31.7674   38.0526 H   0  0  0  0  0  0  0  0  0  0  0  0
   44.6946   31.5208   36.2700 H   0  0  0  0  0  0  0  0  0  0  0  0
   45.3631   33.6743   36.7584 H   0  0  0  0  0  0  0  0  0  0  0  0
   44.4306   33.8430   38.9057 H   0  0  0  0  0  0  0  0  0  0  0  0
   43.9998   35.2584   37.8365 H   0  0  0  0  0  0  0  0  0  0  0  0
   41.8392   34.7987   37.8571 H   0  0  0  0  0  0  0  0  0  0  0  0
   42.2671   33.8742   39.3673 H   0  0  0  0  0  0  0  0  0  0  0  0
   38.1583   28.6384   42.8715 H   0  0  0  0  0  0  0  0  0  0  0  0
   36.1568   27.3179   42.1243 H   0  0  0  0  0  0  0  0  0  0  0  0
   34.6062   28.3281   40.4128 H   0  0  0  0  0  0  0  0  0  0  0  0
  1  2  1  0
  1  5  1  0
  2  3  2  0
  3  4  1  0
  3 12  1  0
  5  4  2  0
  6  5  1  0
  6 11  1  0
  7  8  1  0
  7  6  1  0
  9  8  1  0
  9 10  1  0
 10 11  1  0
 12 17  1  0
 14 13  2  0
 15 14  1  0
 16 17  1  0
 16 15  2  0
 17 18  2  0
 18 13  1  0
  1 19  1  0
  4 20  1  0
  7 21  1  0
  7 22  1  0
  8 23  1  0
  8 24  1  0
  9 25  1  0
 10 26  1  0
 10 27  1  0
 11 28  1  0
 11 29  1  0
 13 30  1  0
 14 31  1  0
 15 32  1  0
M  ISO  8  19   9  20  14  21  13  22  13  23  13  24  13  25   5  26  13
M  ISO  6  27  13  28  13  29  13  30  14  31  14  32  14
M  END
>  <minimizedAffinity>  (1) 
-5.00165129

>  <minimizedRMSD>  (1) 
0.986620426

$$$$
