
     RDKit          3D

 20 21  0  0  0  0  0  0  0  0999 V2000
   37.5230   32.4550   40.2820 S   0  0  0  0  0  0  0  0  0  0  0  0
   37.3690   28.9230   42.1150 C   0  0  0  0  0  0  0  0  0  0  0  0
   36.2080   28.3340   41.6210 C   0  0  0  0  0  0  0  0  0  0  0  0
   35.4440   29.0490   40.6890 C   0  0  0  0  0  0  0  0  0  0  0  0
   35.8630   30.2770   40.3090 N   0  0  0  0  0  0  0  0  0  0  0  0
   36.9970   30.8220   40.8080 C   0  0  0  0  0  0  0  0  0  0  0  0
   37.7310   30.1440   41.6980 N   0  0  0  0  0  0  0  0  0  0  0  0
   39.4290   32.0140   36.8570 N   0  0  0  0  0  0  0  0  0  0  0  0
   38.3000   31.9680   37.5520 N   0  0  0  0  0  0  0  0  0  0  0  0
   38.5600   32.3100   38.8350 C   0  0  0  0  0  0  0  0  0  0  0  0
   39.9150   32.5730   38.9120 C   0  0  0  0  0  0  0  0  0  0  0  0
   40.4820   32.3870   37.6580 C   0  0  0  0  0  0  0  0  0  0  0  0
   41.8510   32.5240   37.1730 C   0  0  0  0  0  0  0  0  0  0  0  0
   42.3120   33.6730   37.1200 O   0  0  0  0  0  0  0  0  0  0  0  0
   37.9892   28.3859   42.8477 H   0  0  0  0  0  0  0  0  0  0  0  0
   35.8983   27.3324   41.9541 H   0  0  0  0  0  0  0  0  0  0  0  0
   34.5204   28.6191   40.2742 H   0  0  0  0  0  0  0  0  0  0  0  0
   39.5062   31.7992   35.8526 H   0  0  0  0  0  0  0  0  0  0  0  0
   40.4562   32.8798   39.8192 H   0  0  0  0  0  0  0  0  0  0  0  0
   42.4453   31.6497   36.8691 H   0  0  0  0  0  0  0  0  0  0  0  0
  1  6  1  0
  3  2  2  0
  4  3  1  0
  5  4  2  0
  5  6  1  0
  6  7  2  0
  7  2  1  0
  8  9  1  0
  8 12  1  0
  9 10  2  0
 10 11  1  0
 10  1  1  0
 12 11  2  0
 13 12  1  0
 14 13  2  0
  2 15  1  0
  3 16  1  0
  4 17  1  0
  8 18  1  0
 11 19  1  0
 13 20  1  0
M  ISO  6  15  14  16  14  17  14  18   9  19  14  20   6
M  END
>  <minimizedAffinity>  (1) 
-4.14857197

>  <minimizedRMSD>  (1) 
0.795720994

$$$$
