
     RDKit          3D

 21 22  0  0  0  0  0  0  0  0999 V2000
   38.3550   32.6220   40.6090 S   0  0  0  0  0  0  0  0  0  0  0  0
   37.0930   29.0660   41.8800 C   0  0  0  0  0  0  0  0  0  0  0  0
   35.9610   28.8220   41.0810 C   0  0  0  0  0  0  0  0  0  0  0  0
   35.5700   29.7650   40.1300 C   0  0  0  0  0  0  0  0  0  0  0  0
   36.3050   30.8950   40.0080 N   0  0  0  0  0  0  0  0  0  0  0  0
   37.3970   31.1050   40.7960 C   0  0  0  0  0  0  0  0  0  0  0  0
   37.7750   30.2130   41.7030 N   0  0  0  0  0  0  0  0  0  0  0  0
   40.0630   32.2380   37.0590 N   0  0  0  0  0  0  0  0  0  0  0  0
   39.0310   32.0500   37.8510 N   0  0  0  0  0  0  0  0  0  0  0  0
   39.2910   32.5410   39.0790 C   0  0  0  0  0  0  0  0  0  0  0  0
   40.5670   33.0640   39.0340 C   0  0  0  0  0  0  0  0  0  0  0  0
   41.0640   32.8690   37.7320 C   0  0  0  0  0  0  0  0  0  0  0  0
   42.4010   33.2680   37.2030 C   0  0  0  0  0  0  0  0  0  0  0  0
   37.4146   28.3335   42.6349 H   0  0  0  0  0  0  0  0  0  0  0  0
   35.3869   27.8920   41.2055 H   0  0  0  0  0  0  0  0  0  0  0  0
   34.6874   29.5946   39.4959 H   0  0  0  0  0  0  0  0  0  0  0  0
   40.1079   31.9494   36.0713 H   0  0  0  0  0  0  0  0  0  0  0  0
   41.1000   33.5467   39.8664 H   0  0  0  0  0  0  0  0  0  0  0  0
   43.0818   33.4712   38.0427 H   0  0  0  0  0  0  0  0  0  0  0  0
   42.8102   32.4528   36.5881 H   0  0  0  0  0  0  0  0  0  0  0  0
   42.2965   34.1741   36.5881 H   0  0  0  0  0  0  0  0  0  0  0  0
  1  6  1  0
  3  2  2  0
  4  3  1  0
  5  4  2  0
  5  6  1  0
  6  7  2  0
  7  2  1  0
  8 12  1  0
  8  9  1  0
  9 10  2  0
 10  1  1  0
 11 10  1  0
 12 11  2  0
 13 12  1  0
  2 14  1  0
  3 15  1  0
  4 16  1  0
  8 17  1  0
 11 18  1  0
 13 19  1  0
 13 20  1  0
 13 21  1  0
M  ISO  8  14  14  15  14  16  14  17   9  18  14  19   8  20   8  21   8
M  END
>  <minimizedAffinity>  (1) 
-4.00816774

>  <minimizedRMSD>  (1) 
0.168703347

$$$$
