
     RDKit          3D

 31 33  0  0  0  0  0  0  0  0999 V2000
   40.1140   32.3210   36.9630 N   0  0  0  0  0  0  0  0  0  0  0  0
   38.8640   31.9840   37.2020 N   0  0  0  0  0  0  0  0  0  0  0  0
   38.5940   32.0920   38.5230 C   0  0  0  0  0  0  0  0  0  0  0  0
   39.7570   32.5190   39.1180 C   0  0  0  0  0  0  0  0  0  0  0  0
   40.7290   32.6680   38.1360 C   0  0  0  0  0  0  0  0  0  0  0  0
   42.0750   33.0460   37.9680 N   0  0  0  0  0  0  0  0  0  0  0  0
   42.8370   32.1580   37.0990 C   0  0  0  0  0  0  0  0  0  0  0  0
   44.0200   31.7100   37.9430 C   0  0  0  0  0  0  0  0  0  0  0  0
   44.8600   32.7910   38.1640 O   0  0  0  0  0  0  0  0  0  0  0  0
   44.2620   34.0230   37.9440 C   0  0  0  0  0  0  0  0  0  0  0  0
   42.8770   34.1520   38.4860 C   0  0  0  0  0  0  0  0  0  0  0  0
   37.1320   31.7950   39.5010 S   0  0  0  0  0  0  0  0  0  0  0  0
   36.0210   27.9960   39.8500 C   0  0  0  0  0  0  0  0  0  0  0  0
   35.4990   27.6860   38.5860 C   0  0  0  0  0  0  0  0  0  0  0  0
   35.4870   28.6690   37.5960 C   0  0  0  0  0  0  0  0  0  0  0  0
   35.9830   29.8770   37.9090 N   0  0  0  0  0  0  0  0  0  0  0  0
   36.4850   30.1590   39.1420 C   0  0  0  0  0  0  0  0  0  0  0  0
   36.4980   29.2240   40.0850 N   0  0  0  0  0  0  0  0  0  0  0  0
   40.5611   32.3233   36.0351 H   0  0  0  0  0  0  0  0  0  0  0  0
   39.8954   32.7108   40.1923 H   0  0  0  0  0  0  0  0  0  0  0  0
   43.1815   32.6946   36.2027 H   0  0  0  0  0  0  0  0  0  0  0  0
   42.2355   31.3086   36.7429 H   0  0  0  0  0  0  0  0  0  0  0  0
   43.6582   31.3226   38.9068 H   0  0  0  0  0  0  0  0  0  0  0  0
   44.5703   30.9172   37.4152 H   0  0  0  0  0  0  0  0  0  0  0  0
   44.8872   34.7959   38.4149 H   0  0  0  0  0  0  0  0  0  0  0  0
   44.1796   34.1370   36.8530 H   0  0  0  0  0  0  0  0  0  0  0  0
   42.4403   35.1095   38.1659 H   0  0  0  0  0  0  0  0  0  0  0  0
   42.8968   34.1225   39.5854 H   0  0  0  0  0  0  0  0  0  0  0  0
   36.0383   27.2344   40.6435 H   0  0  0  0  0  0  0  0  0  0  0  0
   35.1040   26.6807   38.3777 H   0  0  0  0  0  0  0  0  0  0  0  0
   35.0850   28.4616   36.5933 H   0  0  0  0  0  0  0  0  0  0  0  0
  1  2  1  0
  1  5  1  0
  2  3  2  0
  3  4  1  0
  3 12  1  0
  5  4  2  0
  6  5  1  0
  6 11  1  0
  7  8  1  0
  7  6  1  0
  8  9  1  0
 10  9  1  0
 10 11  1  0
 13 18  2  0
 14 13  1  0
 15 16  1  0
 15 14  2  0
 16 17  2  0
 17 12  1  0
 17 18  1  0
  1 19  1  0
  4 20  1  0
  7 21  1  0
  7 22  1  0
  8 23  1  0
  8 24  1  0
 10 25  1  0
 10 26  1  0
 11 27  1  0
 11 28  1  0
 13 29  1  0
 14 30  1  0
 15 31  1  0
M  ISO  8  19   9  20  14  21  13  22  13  23  13  24  13  25  13  26  13
M  ISO  5  27  13  28  13  29  14  30  14  31  14
M  END
>  <minimizedAffinity>  (1) 
-3.96894145

>  <minimizedRMSD>  (1) 
2.0607872

$$$$
