
     RDKit          3D

 28 29  0  0  1  0  0  0  0  0999 V2000
   39.8330   31.8830   41.5530 C   0  0  0  0  0  0  0  0  0  0  0  0
   39.3780   30.6040   41.9560 C   0  0  0  0  0  0  0  0  0  0  0  0
   38.0880   30.2380   41.6690 C   0  0  0  0  0  0  0  0  0  0  0  0
   37.3020   31.1180   41.0090 N   0  0  0  0  0  0  0  0  0  0  0  0
   37.7480   32.3430   40.6270 C   0  0  0  0  0  0  0  0  0  0  0  0
   39.0040   32.7310   40.8930 N   0  0  0  0  0  0  0  0  0  0  0  0
   36.8520   33.2220   39.9300 N   0  0  0  0  0  0  0  0  0  0  0  0
   37.5600   28.9720   42.0400 N   0  0  0  0  0  0  0  0  0  0  0  0
   37.5110   28.6010   43.4150 C   0  0  0  0  0  0  0  0  0  0  0  0
   36.4990   27.4660   43.5310 C   0  0  0  0  0  0  0  0  0  0  0  0
   36.8100   26.3290   42.7000 N   0  0  0  0  0  0  0  0  0  0  0  0
   37.3870   26.6450   41.4410 C   0  0  0  0  0  0  0  0  0  0  0  0
   37.0760   28.0680   41.0340 C   0  0  2  0  0  0  0  0  0  0  0  0
   37.5300   28.3760   39.7110 N   0  0  0  0  0  0  0  0  0  0  0  0
   40.8650   32.1912   41.7763 H   0  0  0  0  0  0  0  0  0  0  0  0
   40.0486   29.9152   42.4907 H   0  0  0  0  0  0  0  0  0  0  0  0
   35.8882   32.9203   39.7276 H   0  0  0  0  0  0  0  0  0  0  0  0
   37.1730   34.1543   39.6323 H   0  0  0  0  0  0  0  0  0  0  0  0
   38.5017   28.2604   43.7506 H   0  0  0  0  0  0  0  0  0  0  0  0
   37.2188   29.4552   44.0434 H   0  0  0  0  0  0  0  0  0  0  0  0
   36.4683   27.1330   44.5789 H   0  0  0  0  0  0  0  0  0  0  0  0
   35.5307   27.8605   43.1893 H   0  0  0  0  0  0  0  0  0  0  0  0
   37.4719   25.7297   43.2134 H   0  0  0  0  0  0  0  0  0  0  0  0
   38.4781   26.5215   41.5061 H   0  0  0  0  0  0  0  0  0  0  0  0
   36.9624   25.9677   40.6854 H   0  0  0  0  0  0  0  0  0  0  0  0
   35.9844   28.1906   40.9760 H   0  0  0  0  0  0  0  0  0  0  0  0
   38.3812   28.9534   39.7658 H   0  0  0  0  0  0  0  0  0  0  0  0
   37.7398   27.5021   39.2079 H   0  0  0  0  0  0  0  0  0  0  0  0
  1  2  2  0
  3  2  1  0
  3  8  1  0
  4  3  2  0
  5  6  2  0
  5  4  1  0
  6  1  1  0
  7  5  1  0
  8  9  1  0
  9 10  1  0
 11 10  1  0
 12 11  1  0
 13 12  1  0
 13  8  1  0
 14 13  1  0
  1 15  1  0
  2 16  1  0
  7 17  1  0
  7 18  1  0
  9 19  1  0
  9 20  1  0
 10 21  1  0
 10 22  1  0
 11 23  1  0
 12 24  1  0
 12 25  1  0
 13 26  1  6
 14 27  1  0
 14 28  1  0
M  ISO  8  15  14  16  14  19  13  20  13  21  13  22  13  23   5  24  13
M  ISO  4  25  13  26  13  27   5  28   5
M  END
>  <minimizedAffinity>  (1) 
-4.66058159

>  <minimizedRMSD>  (1) 
0.0197984222

$$$$
