
     RDKit          3D

 27 28  0  0  1  0  0  0  0  0999 V2000
   39.8200   31.8660   41.5480 C   0  0  0  0  0  0  0  0  0  0  0  0
   39.3620   30.5900   41.9740 C   0  0  0  0  0  0  0  0  0  0  0  0
   38.0640   30.2330   41.6900 C   0  0  0  0  0  0  0  0  0  0  0  0
   37.2730   31.1020   41.0170 N   0  0  0  0  0  0  0  0  0  0  0  0
   37.7350   32.3130   40.6210 C   0  0  0  0  0  0  0  0  0  0  0  0
   38.9910   32.7000   40.8780 N   0  0  0  0  0  0  0  0  0  0  0  0
   36.8360   33.1770   39.9140 N   0  0  0  0  0  0  0  0  0  0  0  0
   37.5630   28.9620   42.0990 N   0  0  0  0  0  0  0  0  0  0  0  0
   37.5530   28.5860   43.4660 C   0  0  0  0  0  0  0  0  0  0  0  0
   36.4800   27.5080   43.6220 C   0  0  0  0  0  0  0  0  0  0  0  0
   36.7240   26.3560   42.7940 N   0  0  0  0  0  0  0  0  0  0  0  0
   37.3400   26.6240   41.5320 C   0  0  0  0  0  0  0  0  0  0  0  0
   37.0620   28.0490   41.1070 C   0  0  2  0  0  0  0  0  0  0  0  0
   37.8680   28.4380   39.5380 S   0  0  0  0  0  0  0  0  0  0  0  0
   40.8528   32.1772   41.7637 H   0  0  0  0  0  0  0  0  0  0  0  0
   40.0289   29.9045   42.5175 H   0  0  0  0  0  0  0  0  0  0  0  0
   35.8718   32.8703   39.7211 H   0  0  0  0  0  0  0  0  0  0  0  0
   37.1542   34.1045   39.5988 H   0  0  0  0  0  0  0  0  0  0  0  0
   38.5360   28.1861   43.7556 H   0  0  0  0  0  0  0  0  0  0  0  0
   37.3389   29.4511   44.1108 H   0  0  0  0  0  0  0  0  0  0  0  0
   36.4549   27.1863   44.6736 H   0  0  0  0  0  0  0  0  0  0  0  0
   35.5214   27.9460   43.3070 H   0  0  0  0  0  0  0  0  0  0  0  0
   37.3371   25.7140   43.3163 H   0  0  0  0  0  0  0  0  0  0  0  0
   38.4265   26.4763   41.6194 H   0  0  0  0  0  0  0  0  0  0  0  0
   36.9271   25.9376   40.7781 H   0  0  0  0  0  0  0  0  0  0  0  0
   35.9727   28.1512   40.9934 H   0  0  0  0  0  0  0  0  0  0  0  0
   39.0822   29.0240   39.7813 H   0  0  0  0  0  0  0  0  0  0  0  0
  1  2  2  0
  3  2  1  0
  3  8  1  0
  4  3  2  0
  5  6  2  0
  5  4  1  0
  6  1  1  0
  7  5  1  0
  8  9  1  0
  9 10  1  0
 11 10  1  0
 12 11  1  0
 13 12  1  0
 13  8  1  0
 14 13  1  0
  1 15  1  0
  2 16  1  0
  7 17  1  0
  7 18  1  0
  9 19  1  0
  9 20  1  0
 10 21  1  0
 10 22  1  0
 11 23  1  0
 12 24  1  0
 12 25  1  0
 13 26  1  6
 14 27  1  0
M  ISO  8  15  14  16  14  19  13  20  13  21  13  22  13  23   5  24  13
M  ISO  3  25  13  26  13  27  11
M  END
>  <minimizedAffinity>  (1) 
-4.63198328

>  <minimizedRMSD>  (1) 
0.0661044344

$$$$
