
     RDKit          3D

 38 41  0  0  0  0  0  0  0  0999 V2000
   37.3570   33.7280   40.0070 N   0  0  0  0  0  0  0  0  0  0  0  0
   37.7730   34.9530   39.7480 N   0  0  0  0  0  0  0  0  0  0  0  0
   39.0140   35.1160   40.2430 C   0  0  0  0  0  0  0  0  0  0  0  0
   39.3050   33.9000   40.8130 C   0  0  0  0  0  0  0  0  0  0  0  0
   38.2410   33.0070   40.6630 C   0  0  0  0  0  0  0  0  0  0  0  0
   38.3300   31.6860   41.2040 C   0  0  0  0  0  0  0  0  0  0  0  0
   39.3960   31.3530   41.9680 N   0  0  0  0  0  0  0  0  0  0  0  0
   39.6050   30.1780   42.5400 C   0  0  0  0  0  0  0  0  0  0  0  0
   38.7360   29.1690   42.4060 N   0  0  0  0  0  0  0  0  0  0  0  0
   37.6280   29.3850   41.6630 C   0  0  0  0  0  0  0  0  0  0  0  0
   36.7140   28.3830   41.5000 C   0  0  0  0  0  0  0  0  0  0  0  0
   35.5640   28.5620   40.7450 C   0  0  0  0  0  0  0  0  0  0  0  0
   35.3980   29.8190   40.1640 C   0  0  0  0  0  0  0  0  0  0  0  0
   36.3590   30.7770   40.3710 C   0  0  0  0  0  0  0  0  0  0  0  0
   37.4910   30.6260   41.1070 C   0  0  0  0  0  0  0  0  0  0  0  0
   40.1520   36.4940   40.2710 S   0  0  0  0  0  0  0  0  0  0  0  0
   43.4410   34.6620   41.5600 C   0  0  0  0  0  0  0  0  0  0  0  0
   43.8210   35.4050   42.6860 C   0  0  0  0  0  0  0  0  0  0  0  0
   43.0530   36.4930   43.0570 C   0  0  0  0  0  0  0  0  0  0  0  0
   41.9560   36.7850   42.3010 N   0  0  0  0  0  0  0  0  0  0  0  0
   41.6210   36.0400   41.2180 C   0  0  0  0  0  0  0  0  0  0  0  0
   42.3620   35.0000   40.8670 N   0  0  0  0  0  0  0  0  0  0  0  0
   43.4610   37.2760   44.2500 C   0  0  0  0  0  0  0  0  0  0  0  0
   44.3870   36.5250   45.1480 C   0  0  0  0  0  0  0  0  0  0  0  0
   36.4329   33.3717   39.7241 H   0  0  0  0  0  0  0  0  0  0  0  0
   40.2512   33.6611   41.3206 H   0  0  0  0  0  0  0  0  0  0  0  0
   40.5146   30.0271   43.1399 H   0  0  0  0  0  0  0  0  0  0  0  0
   36.8944   27.4096   41.9795 H   0  0  0  0  0  0  0  0  0  0  0  0
   34.8250   27.7581   40.6121 H   0  0  0  0  0  0  0  0  0  0  0  0
   34.5120   30.0389   39.5503 H   0  0  0  0  0  0  0  0  0  0  0  0
   36.1979   31.7568   39.8976 H   0  0  0  0  0  0  0  0  0  0  0  0
   44.0409   33.7939   41.2494 H   0  0  0  0  0  0  0  0  0  0  0  0
   44.7146   35.1273   43.2643 H   0  0  0  0  0  0  0  0  0  0  0  0
   43.9662   38.1929   43.9122 H   0  0  0  0  0  0  0  0  0  0  0  0
   42.5508   37.4990   44.8260 H   0  0  0  0  0  0  0  0  0  0  0  0
   44.1299   36.7335   46.1970 H   0  0  0  0  0  0  0  0  0  0  0  0
   44.2910   35.4464   44.9544 H   0  0  0  0  0  0  0  0  0  0  0  0
   45.4225   36.8416   44.9544 H   0  0  0  0  0  0  0  0  0  0  0  0
  1  5  1  0
  2  1  1  0
  2  3  2  0
  3 16  1  0
  3  4  1  0
  5  4  2  0
  5  6  1  0
  6  7  2  0
  7  8  1  0
  9  8  2  0
 10  9  1  0
 11 10  2  0
 12 11  1  0
 13 14  1  0
 13 12  2  0
 14 15  2  0
 15  6  1  0
 15 10  1  0
 16 21  1  0
 17 18  2  0
 18 19  1  0
 19 23  1  0
 20 19  2  0
 21 20  1  0
 22 21  2  0
 22 17  1  0
 23 24  1  0
  1 25  1  0
  4 26  1  0
  8 27  1  0
 11 28  1  0
 12 29  1  0
 13 30  1  0
 14 31  1  0
 17 32  1  0
 18 33  1  0
 23 34  1  0
 23 35  1  0
 24 36  1  0
 24 37  1  0
 24 38  1  0
M  ISO  8  25   9  26  14  27  14  28  14  29  14  30  14  31  14  32  14
M  ISO  6  33  14  34   8  35   8  36   8  37   8  38   8
M  END
>  <minimizedAffinity>  (1) 
-7.25373745

>  <minimizedRMSD>  (1) 
0.865559757

$$$$
