
     RDKit          3D

 43 47  0  0  0  0  0  0  0  0999 V2000
   37.0420   33.3910   39.8320 N   0  0  0  0  0  0  0  0  0  0  0  0
   37.5750   34.5820   39.7820 N   0  0  0  0  0  0  0  0  0  0  0  0
   38.7890   34.5410   40.4000 C   0  0  0  0  0  0  0  0  0  0  0  0
   38.9120   33.2200   40.8090 C   0  0  0  0  0  0  0  0  0  0  0  0
   37.7630   32.4980   40.4290 C   0  0  0  0  0  0  0  0  0  0  0  0
   37.6560   31.1340   40.7830 C   0  0  0  0  0  0  0  0  0  0  0  0
   38.2310   30.6880   41.9360 N   0  0  0  0  0  0  0  0  0  0  0  0
   38.1800   29.4590   42.4040 C   0  0  0  0  0  0  0  0  0  0  0  0
   37.5300   28.4760   41.7680 N   0  0  0  0  0  0  0  0  0  0  0  0
   36.9210   28.7890   40.6150 C   0  0  0  0  0  0  0  0  0  0  0  0
   36.2410   27.8320   39.9170 C   0  0  0  0  0  0  0  0  0  0  0  0
   35.6030   28.1200   38.7130 C   0  0  0  0  0  0  0  0  0  0  0  0
   35.6940   29.4390   38.2580 C   0  0  0  0  0  0  0  0  0  0  0  0
   36.3950   30.3360   39.0250 C   0  0  0  0  0  0  0  0  0  0  0  0
   37.0200   30.0910   40.1930 C   0  0  0  0  0  0  0  0  0  0  0  0
   40.0440   35.7780   40.7700 S   0  0  0  0  0  0  0  0  0  0  0  0
   43.1500   33.8320   39.2680 C   0  0  0  0  0  0  0  0  0  0  0  0
   44.1500   33.9770   40.2240 C   0  0  0  0  0  0  0  0  0  0  0  0
   43.8810   34.6880   41.3560 C   0  0  0  0  0  0  0  0  0  0  0  0
   42.6280   35.2120   41.4710 N   0  0  0  0  0  0  0  0  0  0  0  0
   41.6740   35.0620   40.5410 C   0  0  0  0  0  0  0  0  0  0  0  0
   41.9410   34.3800   39.4560 N   0  0  0  0  0  0  0  0  0  0  0  0
   44.9470   34.8100   42.4020 C   0  0  0  0  0  0  0  0  0  0  0  0
   44.8230   36.0240   43.2210 C   0  0  0  0  0  0  0  0  0  0  0  0
   44.7520   35.8300   44.6870 C   0  0  0  0  0  0  0  0  0  0  0  0
   44.2820   36.3710   45.8350 N   0  0  0  0  0  0  0  0  0  0  0  0
   44.6110   35.6150   46.8330 O   0  0  0  0  0  0  0  0  0  0  0  0
   45.2880   34.5730   46.4250 C   0  0  0  0  0  0  0  0  0  0  0  0
   45.3860   34.6890   45.0930 N   0  0  0  0  0  0  0  0  0  0  0  0
   36.1189   33.1789   39.4274 H   0  0  0  0  0  0  0  0  0  0  0  0
   39.7747   32.8009   41.3475 H   0  0  0  0  0  0  0  0  0  0  0  0
   38.6897   29.2310   43.3518 H   0  0  0  0  0  0  0  0  0  0  0  0
   36.1961   26.8079   40.3159 H   0  0  0  0  0  0  0  0  0  0  0  0
   35.0560   27.3499   38.1493 H   0  0  0  0  0  0  0  0  0  0  0  0
   35.2189   29.7481   37.3153 H   0  0  0  0  0  0  0  0  0  0  0  0
   36.4527   31.3666   38.6447 H   0  0  0  0  0  0  0  0  0  0  0  0
   43.3531   33.2624   38.3492 H   0  0  0  0  0  0  0  0  0  0  0  0
   45.1412   33.5257   40.0694 H   0  0  0  0  0  0  0  0  0  0  0  0
   44.8872   33.9342   43.0649 H   0  0  0  0  0  0  0  0  0  0  0  0
   45.9122   34.8685   41.8776 H   0  0  0  0  0  0  0  0  0  0  0  0
   45.6959   36.6594   43.0103 H   0  0  0  0  0  0  0  0  0  0  0  0
   43.8559   36.4662   42.9397 H   0  0  0  0  0  0  0  0  0  0  0  0
   45.6952   33.7640   47.0493 H   0  0  0  0  0  0  0  0  0  0  0  0
  1  5  1  0
  2  1  1  0
  2  3  2  0
  3 16  1  0
  3  4  1  0
  5  6  1  0
  5  4  2  0
  6  7  2  0
  7  8  1  0
  9  8  2  0
 10  9  1  0
 11 10  2  0
 12 11  1  0
 13 12  2  0
 13 14  1  0
 14 15  2  0
 15 10  1  0
 15  6  1  0
 17 22  2  0
 17 18  1  0
 18 19  2  0
 19 20  1  0
 19 23  1  0
 21 16  1  0
 21 20  2  0
 22 21  1  0
 23 24  1  0
 24 25  1  0
 25 29  1  0
 25 26  2  0
 26 27  1  0
 28 27  1  0
 29 28  2  0
  1 30  1  0
  4 31  1  0
  8 32  1  0
 11 33  1  0
 12 34  1  0
 13 35  1  0
 14 36  1  0
 17 37  1  0
 18 38  1  0
 23 39  1  0
 23 40  1  0
 24 41  1  0
 24 42  1  0
 28 43  1  0
M  ISO  8  30   9  31  14  32  14  33  14  34  14  35  14  36  14  37  14
M  ISO  6  38  14  39   8  40   8  41   8  42   8  43  14
M  END
>  <minimizedAffinity>  (1) 
-7.27064085

>  <minimizedRMSD>  (1) 
2.05133843

$$$$
