
     RDKit          3D

 39 42  0  0  1  0  0  0  0  0999 V2000
   36.8820   29.2310   38.8730 C   0  0  1  0  0  0  0  0  0  0  0  0
   36.1710   29.6210   40.1770 C   0  0  1  0  0  0  0  0  0  0  0  0
   34.7360   29.2580   39.9350 C   0  0  0  0  0  0  0  0  0  0  0  0
   34.6550   28.7720   38.4860 C   0  0  0  0  0  0  0  0  0  0  0  0
   35.8320   29.5580   37.8640 C   0  0  0  0  0  0  0  0  0  0  0  0
   36.7130   28.8080   41.2560 C   0  0  0  0  0  0  0  0  0  0  0  0
   37.0990   29.4310   42.4430 C   0  0  0  0  0  0  0  0  0  0  0  0
   37.6070   28.7350   43.5110 C   0  0  0  0  0  0  0  0  0  0  0  0
   37.7590   27.3610   43.4560 C   0  0  0  0  0  0  0  0  0  0  0  0
   37.3900   26.7030   42.3030 C   0  0  0  0  0  0  0  0  0  0  0  0
   37.5300   25.3300   42.2090 C   0  0  0  0  0  0  0  0  0  0  0  0
   37.1680   24.6410   41.0560 C   0  0  0  0  0  0  0  0  0  0  0  0
   36.6600   25.3890   40.0000 C   0  0  0  0  0  0  0  0  0  0  0  0
   36.5380   26.7570   40.1380 C   0  0  0  0  0  0  0  0  0  0  0  0
   36.8920   27.4410   41.2680 C   0  0  0  0  0  0  0  0  0  0  0  0
   38.1260   29.9790   38.7470 C   0  0  0  0  0  0  0  0  0  0  0  0
   38.0360   31.4010   38.7810 C   0  0  0  0  0  0  0  0  0  0  0  0
   39.2310   32.1380   38.6750 C   0  0  0  0  0  0  0  0  0  0  0  0
   40.3980   31.4330   38.5460 N   0  0  0  0  0  0  0  0  0  0  0  0
   40.4300   30.0780   38.5200 C   0  0  0  0  0  0  0  0  0  0  0  0
   39.2900   29.3490   38.6200 N   0  0  0  0  0  0  0  0  0  0  0  0
   37.2133   28.1861   38.7812 H   0  0  0  0  0  0  0  0  0  0  0  0
   36.2930   30.6802   40.4475 H   0  0  0  0  0  0  0  0  0  0  0  0
   34.4240   28.4584   40.6230 H   0  0  0  0  0  0  0  0  0  0  0  0
   34.0715   30.1177   40.1064 H   0  0  0  0  0  0  0  0  0  0  0  0
   34.8075   27.6851   38.4123 H   0  0  0  0  0  0  0  0  0  0  0  0
   33.6827   28.9374   37.9989 H   0  0  0  0  0  0  0  0  0  0  0  0
   36.0924   29.1879   36.8614 H   0  0  0  0  0  0  0  0  0  0  0  0
   35.6517   30.6300   37.6958 H   0  0  0  0  0  0  0  0  0  0  0  0
   36.9920   30.5226   42.5261 H   0  0  0  0  0  0  0  0  0  0  0  0
   37.8973   29.2769   44.4232 H   0  0  0  0  0  0  0  0  0  0  0  0
   38.1656   26.8059   44.3142 H   0  0  0  0  0  0  0  0  0  0  0  0
   37.9364   24.7708   43.0646 H   0  0  0  0  0  0  0  0  0  0  0  0
   37.2791   23.5491   40.9828 H   0  0  0  0  0  0  0  0  0  0  0  0
   36.3584   24.8958   39.0642 H   0  0  0  0  0  0  0  0  0  0  0  0
   36.1329   27.3296   39.2907 H   0  0  0  0  0  0  0  0  0  0  0  0
   37.0646   31.9062   38.8866 H   0  0  0  0  0  0  0  0  0  0  0  0
   39.2274   33.2378   38.6950 H   0  0  0  0  0  0  0  0  0  0  0  0
   41.3955   29.5613   38.4162 H   0  0  0  0  0  0  0  0  0  0  0  0
  1  2  1  0
  2  6  1  0
  3  2  1  0
  4  3  1  0
  5  4  1  0
  5  1  1  0
  6 15  1  0
  6  7  2  0
  7  8  1  0
  9  8  2  0
 10  9  1  0
 11 10  2  0
 12 11  1  0
 13 14  1  0
 13 12  2  0
 14 15  2  0
 15 10  1  0
 16 17  2  0
 16  1  1  0
 18 17  1  0
 19 18  2  0
 20 19  1  0
 20 21  2  0
 21 16  1  0
  1 22  1  1
  2 23  1  1
  3 24  1  0
  3 25  1  0
  4 26  1  0
  4 27  1  0
  5 28  1  0
  5 29  1  0
  7 30  1  0
  8 31  1  0
  9 32  1  0
 11 33  1  0
 12 34  1  0
 13 35  1  0
 14 36  1  0
 17 37  1  0
 18 38  1  0
 20 39  1  0
M  ISO  8  22  13  23  13  24  13  25  13  26  13  27  13  28  13  29  13
M  ISO  8  30  14  31  14  32  14  33  14  34  14  35  14  36  14  37  14
M  ISO  2  38  14  39  14
M  END
>  <minimizedAffinity>  (1) 
-6.02322817

>  <minimizedRMSD>  (1) 
4.15620518

$$$$
