
     RDKit          3D

 36 39  0  0  1  0  0  0  0  0999 V2000
   39.9870   25.7750   41.8870 C   0  0  1  0  0  0  0  0  0  0  0  0
   39.0710   26.1130   43.0760 C   0  0  1  0  0  0  0  0  0  0  0  0
   40.0340   26.5460   44.1410 C   0  0  0  0  0  0  0  0  0  0  0  0
   41.4400   26.2800   43.6110 C   0  0  0  0  0  0  0  0  0  0  0  0
   41.1470   25.1610   42.5950 C   0  0  0  0  0  0  0  0  0  0  0  0
   39.2690   24.8950   40.9760 C   0  0  0  0  0  0  0  0  0  0  0  0
   38.5810   23.7820   41.5430 C   0  0  0  0  0  0  0  0  0  0  0  0
   37.8720   22.9310   40.6740 C   0  0  0  0  0  0  0  0  0  0  0  0
   37.8920   23.2310   39.3280 N   0  0  0  0  0  0  0  0  0  0  0  0
   38.5670   24.3060   38.8470 C   0  0  0  0  0  0  0  0  0  0  0  0
   39.2420   25.1180   39.6670 N   0  0  0  0  0  0  0  0  0  0  0  0
   38.1050   27.1040   42.7030 N   0  0  0  0  0  0  0  0  0  0  0  0
   36.7620   26.9330   42.7670 C   0  0  0  0  0  0  0  0  0  0  0  0
   36.1490   28.0650   42.3420 N   0  0  0  0  0  0  0  0  0  0  0  0
   37.1390   28.9270   42.0180 C   0  0  0  0  0  0  0  0  0  0  0  0
   37.0260   30.2080   41.5380 C   0  0  0  0  0  0  0  0  0  0  0  0
   38.1690   30.9030   41.2780 N   0  0  0  0  0  0  0  0  0  0  0  0
   39.3620   30.2870   41.5100 C   0  0  0  0  0  0  0  0  0  0  0  0
   39.4690   29.0330   41.9790 N   0  0  0  0  0  0  0  0  0  0  0  0
   38.3620   28.3220   42.2460 C   0  0  0  0  0  0  0  0  0  0  0  0
   35.8310   30.9110   41.2730 N   0  0  0  0  0  0  0  0  0  0  0  0
   40.3102   26.6037   41.2399 H   0  0  0  0  0  0  0  0  0  0  0  0
   38.4511   25.2766   43.4312 H   0  0  0  0  0  0  0  0  0  0  0  0
   39.9068   27.6182   44.3512 H   0  0  0  0  0  0  0  0  0  0  0  0
   39.8575   25.9939   45.0759 H   0  0  0  0  0  0  0  0  0  0  0  0
   41.8660   27.1697   43.1242 H   0  0  0  0  0  0  0  0  0  0  0  0
   42.1797   26.0183   44.3820 H   0  0  0  0  0  0  0  0  0  0  0  0
   40.8739   24.2174   43.0901 H   0  0  0  0  0  0  0  0  0  0  0  0
   41.9931   24.8768   41.9520 H   0  0  0  0  0  0  0  0  0  0  0  0
   38.6036   23.5941   42.6266 H   0  0  0  0  0  0  0  0  0  0  0  0
   37.3218   22.0580   41.0549 H   0  0  0  0  0  0  0  0  0  0  0  0
   38.5585   24.5121   37.7665 H   0  0  0  0  0  0  0  0  0  0  0  0
   36.2509   26.0211   43.1092 H   0  0  0  0  0  0  0  0  0  0  0  0
   40.2862   30.8462   41.3022 H   0  0  0  0  0  0  0  0  0  0  0  0
   35.8698   31.8749   40.9120 H   0  0  0  0  0  0  0  0  0  0  0  0
   34.9202   30.4601   41.4406 H   0  0  0  0  0  0  0  0  0  0  0  0
  1  5  1  0
  1  2  1  0
  2  3  1  0
  4  3  1  0
  5  4  1  0
  6  7  2  0
  6  1  1  0
  8  7  1  0
  9  8  2  0
 10  9  1  0
 10 11  2  0
 11  6  1  0
 12 13  1  0
 12  2  1  0
 14 13  2  0
 15 20  2  0
 15 14  1  0
 16 15  1  0
 17 18  1  0
 17 16  2  0
 18 19  2  0
 19 20  1  0
 20 12  1  0
 21 16  1  0
  1 22  1  6
  2 23  1  1
  3 24  1  0
  3 25  1  0
  4 26  1  0
  4 27  1  0
  5 28  1  0
  5 29  1  0
  7 30  1  0
  8 31  1  0
 10 32  1  0
 13 33  1  0
 18 34  1  0
 21 35  1  0
 21 36  1  0
M  ISO  8  22  13  23  13  24  13  25  13  26  13  27  13  28  13  29  13
M  ISO  5  30  14  31  14  32  14  33  14  34  14
M  END
>  <minimizedAffinity>  (1) 
-5.6063056

>  <minimizedRMSD>  (1) 
5.36127138

$$$$
