
     RDKit          3D

 36 38  0  0  1  0  0  0  0  0999 V2000
   37.4770   28.2520   41.1260 C   0  0  1  0  0  0  0  0  0  0  0  0
   37.2700   29.4490   42.0730 C   0  0  1  0  0  0  0  0  0  0  0  0
   37.6360   28.8910   43.4190 C   0  0  0  0  0  0  0  0  0  0  0  0
   37.8580   27.3940   43.2330 C   0  0  0  0  0  0  0  0  0  0  0  0
   36.9920   27.1350   41.9840 C   0  0  0  0  0  0  0  0  0  0  0  0
   37.9980   30.6070   41.6730 N   0  0  0  0  0  0  0  0  0  0  0  0
   37.4170   31.5540   40.8820 C   0  0  0  0  0  0  0  0  0  0  0  0
   38.0590   32.6980   40.4580 C   0  0  0  0  0  0  0  0  0  0  0  0
   37.3730   33.6920   39.5970 C   0  0  0  0  0  0  0  0  0  0  0  0
   39.3540   32.9040   40.8470 C   0  0  0  0  0  0  0  0  0  0  0  0
   39.9560   33.9460   40.4680 O   0  0  0  0  0  0  0  0  0  0  0  0
   39.9460   31.9780   41.6310 N   0  0  0  0  0  0  0  0  0  0  0  0
   39.2620   30.8740   42.0160 C   0  0  0  0  0  0  0  0  0  0  0  0
   39.8820   30.0570   42.7450 O   0  0  0  0  0  0  0  0  0  0  0  0
   36.7240   28.4810   39.9000 C   0  0  0  0  0  0  0  0  0  0  0  0
   35.3190   28.6890   40.0260 C   0  0  0  0  0  0  0  0  0  0  0  0
   34.5810   28.9280   38.8510 C   0  0  0  0  0  0  0  0  0  0  0  0
   35.2750   28.9430   37.6600 N   0  0  0  0  0  0  0  0  0  0  0  0
   36.6100   28.7380   37.6030 C   0  0  0  0  0  0  0  0  0  0  0  0
   37.3150   28.5110   38.7140 N   0  0  0  0  0  0  0  0  0  0  0  0
   38.4968   28.0594   40.7614 H   0  0  0  0  0  0  0  0  0  0  0  0
   36.2411   29.8379   42.0725 H   0  0  0  0  0  0  0  0  0  0  0  0
   38.5565   29.3668   43.7881 H   0  0  0  0  0  0  0  0  0  0  0  0
   36.8403   29.0825   44.1540 H   0  0  0  0  0  0  0  0  0  0  0  0
   38.9169   27.1603   43.0486 H   0  0  0  0  0  0  0  0  0  0  0  0
   37.5971   26.7796   44.1073 H   0  0  0  0  0  0  0  0  0  0  0  0
   35.9173   27.2200   42.2028 H   0  0  0  0  0  0  0  0  0  0  0  0
   37.0826   26.1298   41.5466 H   0  0  0  0  0  0  0  0  0  0  0  0
   36.3759   31.3959   40.5639 H   0  0  0  0  0  0  0  0  0  0  0  0
   36.8615   34.4332   40.2286 H   0  0  0  0  0  0  0  0  0  0  0  0
   38.1136   34.2001   38.9619 H   0  0  0  0  0  0  0  0  0  0  0  0
   36.6352   33.1798   38.9619 H   0  0  0  0  0  0  0  0  0  0  0  0
   40.9203   32.1113   41.9372 H   0  0  0  0  0  0  0  0  0  0  0  0
   34.8274   28.6636   41.0097 H   0  0  0  0  0  0  0  0  0  0  0  0
   33.4943   29.0960   38.8821 H   0  0  0  0  0  0  0  0  0  0  0  0
   37.1217   28.7584   36.6295 H   0  0  0  0  0  0  0  0  0  0  0  0
  1  5  1  0
  1  2  1  0
  2  3  1  0
  4  3  1  0
  5  4  1  0
  6 13  1  0
  6  2  1  0
  7  6  1  0
  8 10  1  0
  8  7  2  0
  9  8  1  0
 10 12  1  0
 11 10  2  0
 12 13  1  0
 13 14  2  0
 15 16  2  0
 15  1  1  0
 17 16  1  0
 18 17  2  0
 19 18  1  0
 19 20  2  0
 20 15  1  0
  1 21  1  6
  2 22  1  1
  3 23  1  0
  3 24  1  0
  4 25  1  0
  4 26  1  0
  5 27  1  0
  5 28  1  0
  7 29  1  0
  9 30  1  0
  9 31  1  0
  9 32  1  0
 12 33  1  0
 16 34  1  0
 17 35  1  0
 19 36  1  0
M  ISO  8  21  13  22  13  23  13  24  13  25  13  26  13  27  13  28  13
M  ISO  8  29  14  30   8  31   8  32   8  33   9  34  14  35  14  36  14
M  END
>  <minimizedAffinity>  (1) 
-5.56231356

>  <minimizedRMSD>  (1) 
5.09672356

$$$$
