
     RDKit          3D

 36 38  0  0  1  0  0  0  0  0999 V2000
   37.6060   27.2320   40.6710 C   0  0  1  0  0  0  0  0  0  0  0  0
   37.4830   26.9210   42.1640 C   0  0  1  0  0  0  0  0  0  0  0  0
   37.1580   25.4660   42.2030 C   0  0  0  0  0  0  0  0  0  0  0  0
   36.9720   25.0040   40.7740 C   0  0  0  0  0  0  0  0  0  0  0  0
   36.5990   26.3210   40.0750 C   0  0  0  0  0  0  0  0  0  0  0  0
   37.3930   28.6540   40.4340 C   0  0  0  0  0  0  0  0  0  0  0  0
   36.2980   29.2660   41.1110 C   0  0  0  0  0  0  0  0  0  0  0  0
   36.0820   30.6410   40.9020 C   0  0  0  0  0  0  0  0  0  0  0  0
   36.9460   31.3000   40.0570 N   0  0  0  0  0  0  0  0  0  0  0  0
   37.9680   30.6670   39.4440 C   0  0  0  0  0  0  0  0  0  0  0  0
   38.1900   29.3440   39.6320 N   0  0  0  0  0  0  0  0  0  0  0  0
   41.4150   27.2180   43.9070 C   0  0  0  0  0  0  0  0  0  0  0  0
   40.6890   26.0300   43.9070 C   0  0  0  0  0  0  0  0  0  0  0  0
   39.4160   25.9850   43.3280 C   0  0  0  0  0  0  0  0  0  0  0  0
   38.8400   27.1020   42.7430 C   0  0  0  0  0  0  0  0  0  0  0  0
   39.5620   28.2600   42.7500 C   0  0  0  0  0  0  0  0  0  0  0  0
   40.8200   28.3060   43.3220 C   0  0  0  0  0  0  0  0  0  0  0  0
   43.0040   27.2510   44.6360 S   0  0  0  0  0  0  0  0  0  0  0  0
   43.7470   26.0180   44.1610 O   0  0  0  0  0  0  0  0  0  0  0  0
   42.8770   27.1220   46.1250 O   0  0  0  0  0  0  0  0  0  0  0  0
   38.5951   27.0592   40.2218 H   0  0  0  0  0  0  0  0  0  0  0  0
   36.7457   27.5396   42.6966 H   0  0  0  0  0  0  0  0  0  0  0  0
   37.9819   24.9095   42.6736 H   0  0  0  0  0  0  0  0  0  0  0  0
   36.2449   25.2882   42.7901 H   0  0  0  0  0  0  0  0  0  0  0  0
   37.9006   24.5801   40.3642 H   0  0  0  0  0  0  0  0  0  0  0  0
   36.2263   24.2044   40.6536 H   0  0  0  0  0  0  0  0  0  0  0  0
   35.5728   26.6341   40.3177 H   0  0  0  0  0  0  0  0  0  0  0  0
   36.6104   26.2781   38.9759 H   0  0  0  0  0  0  0  0  0  0  0  0
   35.6432   28.6827   41.7751 H   0  0  0  0  0  0  0  0  0  0  0  0
   35.2532   31.1696   41.3957 H   0  0  0  0  0  0  0  0  0  0  0  0
   38.6337   31.2364   38.7787 H   0  0  0  0  0  0  0  0  0  0  0  0
   41.1170   25.1251   44.3630 H   0  0  0  0  0  0  0  0  0  0  0  0
   38.8571   25.0376   43.3373 H   0  0  0  0  0  0  0  0  0  0  0  0
   39.1382   29.1675   42.2952 H   0  0  0  0  0  0  0  0  0  0  0  0
   41.3687   29.2593   43.3070 H   0  0  0  0  0  0  0  0  0  0  0  0
   43.6427   28.4163   44.3030 H   0  0  0  0  0  0  0  0  0  0  0  0
  1  2  1  0
  2  3  1  0
  2 15  1  0
  4  3  1  0
  5  1  1  0
  5  4  1  0
  6  1  1  0
  6  7  2  0
  8  7  1  0
  9  8  2  0
 10 11  2  0
 10  9  1  0
 11  6  1  0
 12 13  2  0
 12 18  1  0
 14 13  1  0
 15 16  1  0
 15 14  2  0
 16 17  2  0
 17 12  1  0
 18 20  2  0
 19 18  2  0
  1 21  1  6
  2 22  1  1
  3 23  1  0
  3 24  1  0
  4 25  1  0
  4 26  1  0
  5 27  1  0
  5 28  1  0
  7 29  1  0
  8 30  1  0
 10 31  1  0
 13 32  1  0
 14 33  1  0
 16 34  1  0
 17 35  1  0
 18 36  1  0
M  ISO  8  21  13  22  13  23  13  24  13  25  13  26  13  27  13  28  13
M  ISO  8  29  14  30  14  31  14  32  14  33  14  34  14  35  14  36  11
M  END
>  <minimizedAffinity>  (1) 
-5.24842215

>  <minimizedRMSD>  (1) 
1.68903255

$$$$
