
     RDKit          3D

 31 33  0  0  1  0  0  0  0  0999 V2000
   37.5520   28.8060   41.3730 C   0  0  1  0  0  0  0  0  0  0  0  0
   37.9740   29.4270   42.7130 C   0  0  1  0  0  0  0  0  0  0  0  0
   37.4550   28.4480   43.7310 C   0  0  0  0  0  0  0  0  0  0  0  0
   36.6360   27.4210   42.9860 C   0  0  0  0  0  0  0  0  0  0  0  0
   36.2360   28.2090   41.7280 C   0  0  0  0  0  0  0  0  0  0  0  0
   37.5130   29.8390   40.3440 C   0  0  0  0  0  0  0  0  0  0  0  0
   36.9250   31.0900   40.6960 C   0  0  0  0  0  0  0  0  0  0  0  0
   36.9010   32.0960   39.7090 C   0  0  0  0  0  0  0  0  0  0  0  0
   37.4440   31.8010   38.4750 N   0  0  0  0  0  0  0  0  0  0  0  0
   37.9880   30.5920   38.2040 C   0  0  0  0  0  0  0  0  0  0  0  0
   38.0170   29.6280   39.1360 N   0  0  0  0  0  0  0  0  0  0  0  0
   39.4270   29.6140   42.7600 C   0  0  0  0  0  0  0  0  0  0  0  0
   40.2620   28.5060   42.8060 C   0  0  0  0  0  0  0  0  0  0  0  0
   41.6400   28.6700   42.8500 C   0  0  0  0  0  0  0  0  0  0  0  0
   42.0970   29.9270   42.8460 N   0  0  0  0  0  0  0  0  0  0  0  0
   41.2670   30.9910   42.8000 C   0  0  0  0  0  0  0  0  0  0  0  0
   39.9330   30.8520   42.7570 N   0  0  0  0  0  0  0  0  0  0  0  0
   38.2270   28.0515   40.9429 H   0  0  0  0  0  0  0  0  0  0  0  0
   37.5702   30.4346   42.8910 H   0  0  0  0  0  0  0  0  0  0  0  0
   38.2950   27.9588   44.2458 H   0  0  0  0  0  0  0  0  0  0  0  0
   36.8437   28.9599   44.4888 H   0  0  0  0  0  0  0  0  0  0  0  0
   37.2360   26.5347   42.7321 H   0  0  0  0  0  0  0  0  0  0  0  0
   35.7847   27.0230   43.5577 H   0  0  0  0  0  0  0  0  0  0  0  0
   35.4838   28.9801   41.9505 H   0  0  0  0  0  0  0  0  0  0  0  0
   35.7678   27.6097   40.9333 H   0  0  0  0  0  0  0  0  0  0  0  0
   36.5066   31.2629   41.6985 H   0  0  0  0  0  0  0  0  0  0  0  0
   36.4637   33.0840   39.9156 H   0  0  0  0  0  0  0  0  0  0  0  0
   38.4114   30.3975   37.2076 H   0  0  0  0  0  0  0  0  0  0  0  0
   39.8303   27.4943   42.8076 H   0  0  0  0  0  0  0  0  0  0  0  0
   42.3226   27.8082   42.8864 H   0  0  0  0  0  0  0  0  0  0  0  0
   41.6977   32.0032   42.7977 H   0  0  0  0  0  0  0  0  0  0  0  0
  1  5  1  0
  1  2  1  0
  2 12  1  0
  2  3  1  0
  4  3  1  0
  5  4  1  0
  6  7  2  0
  6  1  1  0
  8  7  1  0
  9  8  2  0
 10  9  1  0
 10 11  2  0
 11  6  1  0
 12 13  2  0
 13 14  1  0
 15 14  2  0
 16 15  1  0
 17 12  1  0
 17 16  2  0
  1 18  1  6
  2 19  1  1
  3 20  1  0
  3 21  1  0
  4 22  1  0
  4 23  1  0
  5 24  1  0
  5 25  1  0
  7 26  1  0
  8 27  1  0
 10 28  1  0
 13 29  1  0
 14 30  1  0
 16 31  1  0
M  ISO  8  18  13  19  13  20  13  21  13  22  13  23  13  24  13  25  13
M  ISO  6  26  14  27  14  28  14  29  14  30  14  31  14
M  END
>  <minimizedAffinity>  (1) 
-4.77307892

>  <minimizedRMSD>  (1) 
3.44189119

$$$$
