
     RDKit          3D

 26 27  0  0  1  0  0  0  0  0999 V2000
   38.8870   28.8540   42.6670 C   0  0  1  0  0  0  0  0  0  0  0  0
   38.1170   27.7270   43.3110 C   0  0  2  0  0  0  0  0  0  0  0  0
   39.1690   26.8000   43.8570 C   0  0  0  0  0  0  0  0  0  0  0  0
   40.5060   27.4350   43.5100 C   0  0  0  0  0  0  0  0  0  0  0  0
   40.1360   28.1970   42.2190 C   0  0  0  0  0  0  0  0  0  0  0  0
   38.0890   29.5060   41.6390 C   0  0  0  0  0  0  0  0  0  0  0  0
   38.5370   29.3450   40.2960 C   0  0  0  0  0  0  0  0  0  0  0  0
   37.7540   29.9570   39.2950 C   0  0  0  0  0  0  0  0  0  0  0  0
   36.6250   30.6580   39.6760 N   0  0  0  0  0  0  0  0  0  0  0  0
   36.2650   30.7660   40.9750 C   0  0  0  0  0  0  0  0  0  0  0  0
   36.9930   30.1940   41.9360 N   0  0  0  0  0  0  0  0  0  0  0  0
   37.1070   27.0530   42.4580 C   0  0  0  0  0  0  0  0  0  0  0  0
   37.5550   27.0870   41.1410 F   0  0  0  0  0  0  0  0  0  0  0  0
   36.6760   25.8320   42.8690 F   0  0  0  0  0  0  0  0  0  0  0  0
   35.9670   27.8720   42.5100 F   0  0  0  0  0  0  0  0  0  0  0  0
   39.1313   29.6981   43.3287 H   0  0  0  0  0  0  0  0  0  0  0  0
   37.4636   28.1269   44.1004 H   0  0  0  0  0  0  0  0  0  0  0  0
   39.0637   26.7020   44.9476 H   0  0  0  0  0  0  0  0  0  0  0  0
   39.0786   25.7906   43.4293 H   0  0  0  0  0  0  0  0  0  0  0  0
   40.8468   28.1194   44.3008 H   0  0  0  0  0  0  0  0  0  0  0  0
   41.3345   26.7204   43.3963 H   0  0  0  0  0  0  0  0  0  0  0  0
   39.9593   27.5129   41.3760 H   0  0  0  0  0  0  0  0  0  0  0  0
   40.9121   28.8788   41.8411 H   0  0  0  0  0  0  0  0  0  0  0  0
   39.4451   28.7739   40.0528 H   0  0  0  0  0  0  0  0  0  0  0  0
   38.0355   29.8782   38.2346 H   0  0  0  0  0  0  0  0  0  0  0  0
   35.3608   31.3324   41.2428 H   0  0  0  0  0  0  0  0  0  0  0  0
  1  2  1  0
  2  3  1  0
  4  3  1  0
  5  1  1  0
  5  4  1  0
  6 11  1  0
  6  1  1  0
  7  6  2  0
  8  9  2  0
  8  7  1  0
  9 10  1  0
 10 11  2  0
 12 15  1  0
 12 14  1  0
 12  2  1  0
 13 12  1  0
  1 16  1  1
  2 17  1  1
  3 18  1  0
  3 19  1  0
  4 20  1  0
  4 21  1  0
  5 22  1  0
  5 23  1  0
  7 24  1  0
  8 25  1  0
 10 26  1  0
M  ISO  8  16  13  17  13  18  13  19  13  20  13  21  13  22  13  23  13
M  ISO  3  24  14  25  14  26  14
M  END
>  <minimizedAffinity>  (1) 
-4.63979483

>  <minimizedRMSD>  (1) 
2.72478962

$$$$
