
     RDKit          3D

 38 40  0  0  1  0  0  0  0  0999 V2000
   37.4320   26.3710   40.3390 C   0  0  1  0  0  0  0  0  0  0  0  0
   37.0510   25.7310   41.6750 C   0  0  1  0  0  0  0  0  0  0  0  0
   36.6800   24.3330   41.3040 C   0  0  0  0  0  0  0  0  0  0  0  0
   36.6270   24.2710   39.7840 C   0  0  0  0  0  0  0  0  0  0  0  0
   36.4090   25.7580   39.4390 C   0  0  0  0  0  0  0  0  0  0  0  0
   37.3770   27.8170   40.4620 C   0  0  0  0  0  0  0  0  0  0  0  0
   36.1220   28.3940   40.8160 C   0  0  0  0  0  0  0  0  0  0  0  0
   36.0500   29.7960   40.9470 C   0  0  0  0  0  0  0  0  0  0  0  0
   37.1890   30.5150   40.7270 N   0  0  0  0  0  0  0  0  0  0  0  0
   38.3600   29.9150   40.3930 C   0  0  0  0  0  0  0  0  0  0  0  0
   38.4530   28.5690   40.2610 N   0  0  0  0  0  0  0  0  0  0  0  0
   38.0490   25.8630   42.6810 N   0  0  0  0  0  0  0  0  0  0  0  0
   39.3240   25.5000   42.0910 C   0  0  0  0  0  0  0  0  0  0  0  0
   40.3530   25.2910   43.1630 C   0  0  0  0  0  0  0  0  0  0  0  0
   40.4670   26.5600   43.9660 C   0  0  0  0  0  0  0  0  0  0  0  0
   39.5270   27.6460   43.5370 C   0  0  0  0  0  0  0  0  0  0  0  0
   38.1200   27.1400   43.3130 C   0  0  0  0  0  0  0  0  0  0  0  0
   38.4517   26.1957   39.9656 H   0  0  0  0  0  0  0  0  0  0  0  0
   36.2114   26.2395   42.1715 H   0  0  0  0  0  0  0  0  0  0  0  0
   37.4350   23.6290   41.6840 H   0  0  0  0  0  0  0  0  0  0  0  0
   35.7088   24.0572   41.7407 H   0  0  0  0  0  0  0  0  0  0  0  0
   37.5692   23.8918   39.3616 H   0  0  0  0  0  0  0  0  0  0  0  0
   35.8581   23.5941   39.3833 H   0  0  0  0  0  0  0  0  0  0  0  0
   36.6157   25.9682   38.3792 H   0  0  0  0  0  0  0  0  0  0  0  0
   35.3817   26.1257   39.5781 H   0  0  0  0  0  0  0  0  0  0  0  0
   35.2359   27.7637   40.9820 H   0  0  0  0  0  0  0  0  0  0  0  0
   35.1071   30.2938   41.2175 H   0  0  0  0  0  0  0  0  0  0  0  0
   39.2533   30.5348   40.2257 H   0  0  0  0  0  0  0  0  0  0  0  0
   39.2058   24.5702   41.5152 H   0  0  0  0  0  0  0  0  0  0  0  0
   39.6567   26.3133   41.4293 H   0  0  0  0  0  0  0  0  0  0  0  0
   40.0441   24.4632   43.8182 H   0  0  0  0  0  0  0  0  0  0  0  0
   41.3243   25.0410   42.7112 H   0  0  0  0  0  0  0  0  0  0  0  0
   40.2601   26.3211   45.0196 H   0  0  0  0  0  0  0  0  0  0  0  0
   41.4858   26.9434   43.8077 H   0  0  0  0  0  0  0  0  0  0  0  0
   39.5031   28.4204   44.3178 H   0  0  0  0  0  0  0  0  0  0  0  0
   39.8940   28.0466   42.5805 H   0  0  0  0  0  0  0  0  0  0  0  0
   37.5889   27.8671   42.6811 H   0  0  0  0  0  0  0  0  0  0  0  0
   37.6645   27.0250   44.3076 H   0  0  0  0  0  0  0  0  0  0  0  0
  1  6  1  0
  1  2  1  0
  2 12  1  0
  3  2  1  0
  4  3  1  0
  5  4  1  0
  5  1  1  0
  6  7  2  0
  7  8  1  0
  9  8  2  0
 10  9  1  0
 11 10  2  0
 11  6  1  0
 12 17  1  0
 13 12  1  0
 13 14  1  0
 14 15  1  0
 16 15  1  0
 17 16  1  0
  1 18  1  6
  2 19  1  1
  3 20  1  0
  3 21  1  0
  4 22  1  0
  4 23  1  0
  5 24  1  0
  5 25  1  0
  7 26  1  0
  8 27  1  0
 10 28  1  0
 13 29  1  0
 13 30  1  0
 14 31  1  0
 14 32  1  0
 15 33  1  0
 15 34  1  0
 16 35  1  0
 16 36  1  0
 17 37  1  0
 17 38  1  0
M  ISO  8  18  13  19  13  20  13  21  13  22  13  23  13  24  13  25  13
M  ISO  8  26  14  27  14  28  14  29  13  30  13  31  13  32  13  33  13
M  ISO  5  34  13  35  13  36  13  37  13  38  13
M  END
>  <minimizedAffinity>  (1) 
-4.57272196

>  <minimizedRMSD>  (1) 
1.46280515

$$$$
