
     RDKit          3D

 30 31  0  0  1  0  0  0  0  0999 V2000
   37.5380   28.0660   41.2540 C   0  0  1  0  0  0  0  0  0  0  0  0
   38.5430   28.4730   42.3370 C   0  0  2  0  0  0  0  0  0  0  0  0
   37.9790   27.8810   43.5830 C   0  0  0  0  0  0  0  0  0  0  0  0
   36.6130   27.3100   43.2370 C   0  0  0  0  0  0  0  0  0  0  0  0
   36.2490   28.1420   41.9940 C   0  0  0  0  0  0  0  0  0  0  0  0
   37.6580   28.9450   40.1010 C   0  0  0  0  0  0  0  0  0  0  0  0
   36.4830   29.5820   39.6480 C   0  0  0  0  0  0  0  0  0  0  0  0
   36.5700   30.4490   38.5400 C   0  0  0  0  0  0  0  0  0  0  0  0
   37.8160   30.6140   37.9740 N   0  0  0  0  0  0  0  0  0  0  0  0
   38.9120   29.9780   38.4470 C   0  0  0  0  0  0  0  0  0  0  0  0
   38.8270   29.1480   39.5080 N   0  0  0  0  0  0  0  0  0  0  0  0
   38.6210   29.9130   42.4900 N   0  0  0  0  0  0  0  0  0  0  0  0
   39.9930   30.3520   42.4230 C   0  0  0  0  0  0  0  0  0  0  0  0
   41.0180   29.7640   41.9070 N   0  0  0  0  0  0  0  0  0  0  0  0
   40.4930   31.5770   42.9410 N   0  0  0  0  0  0  0  0  0  0  0  0
   40.9240   28.8140   41.4440 H   0  0  0  0  0  0  0  0  0  0  0  0
   37.6763   27.0696   40.8089 H   0  0  0  0  0  0  0  0  0  0  0  0
   39.5596   28.1307   42.0935 H   0  0  0  0  0  0  0  0  0  0  0  0
   38.6385   27.0814   43.9513 H   0  0  0  0  0  0  0  0  0  0  0  0
   37.8930   28.6436   44.3710 H   0  0  0  0  0  0  0  0  0  0  0  0
   36.6722   26.2372   43.0011 H   0  0  0  0  0  0  0  0  0  0  0  0
   35.8777   27.3708   44.0529 H   0  0  0  0  0  0  0  0  0  0  0  0
   35.9883   29.1779   42.2567 H   0  0  0  0  0  0  0  0  0  0  0  0
   35.3700   27.7864   41.4364 H   0  0  0  0  0  0  0  0  0  0  0  0
   35.5197   29.4057   40.1489 H   0  0  0  0  0  0  0  0  0  0  0  0
   35.6849   30.9696   38.1455 H   0  0  0  0  0  0  0  0  0  0  0  0
   39.8854   30.1393   37.9606 H   0  0  0  0  0  0  0  0  0  0  0  0
   37.8110   30.5343   42.6271 H   0  0  0  0  0  0  0  0  0  0  0  0
   41.4926   31.8065   42.8461 H   0  0  0  0  0  0  0  0  0  0  0  0
   39.8558   32.2355   43.4113 H   0  0  0  0  0  0  0  0  0  0  0  0
  1  5  1  0
  1  2  1  0
  2 12  1  0
  2  3  1  0
  4  3  1  0
  5  4  1  0
  6  1  1  0
  7  6  2  0
  8  7  1  0
  9 10  1  0
  9  8  2  0
 10 11  2  0
 11  6  1  0
 13 12  1  0
 13 15  1  0
 14 13  2  0
 16 14  1  0
  1 17  1  6
  2 18  1  6
  3 19  1  0
  3 20  1  0
  4 21  1  0
  4 22  1  0
  5 23  1  0
  5 24  1  0
  7 25  1  0
  8 26  1  0
 10 27  1  0
 12 28  1  0
 15 29  1  0
 15 30  1  0
M  ISO  8  17  13  18  13  19  13  20  13  21  13  22  13  23  13  24  13
M  ISO  3  25  14  26  14  27  14
M  END
>  <minimizedAffinity>  (1) 
-4.11260748

>  <minimizedRMSD>  (1) 
3.9063642

$$$$
