
     RDKit          3D

 24 25  0  0  1  0  0  0  0  0999 V2000
   37.4720   26.6570   40.9320 C   0  0  1  0  0  0  0  0  0  0  0  0
   37.3170   26.0570   42.3400 C   0  0  1  0  0  0  0  0  0  0  0  0
   37.3040   24.5810   42.0840 C   0  0  0  0  0  0  0  0  0  0  0  0
   37.2380   24.3840   40.5720 C   0  0  0  0  0  0  0  0  0  0  0  0
   36.6310   25.7220   40.1300 C   0  0  0  0  0  0  0  0  0  0  0  0
   37.0250   28.0420   40.9430 C   0  0  0  0  0  0  0  0  0  0  0  0
   35.8590   28.3560   40.2040 C   0  0  0  0  0  0  0  0  0  0  0  0
   35.3880   29.6800   40.2020 C   0  0  0  0  0  0  0  0  0  0  0  0
   36.1070   30.5940   40.9320 N   0  0  0  0  0  0  0  0  0  0  0  0
   37.2190   30.2460   41.6260 C   0  0  0  0  0  0  0  0  0  0  0  0
   37.6730   28.9750   41.6280 N   0  0  0  0  0  0  0  0  0  0  0  0
   38.3430   26.4390   43.1660 O   0  0  0  0  0  0  0  0  0  0  0  0
   38.4926   26.7255   40.5275 H   0  0  0  0  0  0  0  0  0  0  0  0
   36.4109   26.3985   42.8618 H   0  0  0  0  0  0  0  0  0  0  0  0
   38.2198   24.1213   42.4840 H   0  0  0  0  0  0  0  0  0  0  0  0
   36.4420   24.1075   42.5767 H   0  0  0  0  0  0  0  0  0  0  0  0
   38.2382   24.2316   40.1402 H   0  0  0  0  0  0  0  0  0  0  0  0
   36.6669   23.4993   40.2540 H   0  0  0  0  0  0  0  0  0  0  0  0
   36.7502   25.8886   39.0492 H   0  0  0  0  0  0  0  0  0  0  0  0
   35.5467   25.8172   40.2891 H   0  0  0  0  0  0  0  0  0  0  0  0
   35.3292   27.5747   39.6394 H   0  0  0  0  0  0  0  0  0  0  0  0
   34.4865   29.9702   39.6424 H   0  0  0  0  0  0  0  0  0  0  0  0
   37.7609   31.0138   42.1978 H   0  0  0  0  0  0  0  0  0  0  0  0
   38.0630   26.3348   44.1099 H   0  0  0  0  0  0  0  0  0  0  0  0
  1  6  1  0
  1  2  1  0
  2 12  1  0
  3  2  1  0
  4  3  1  0
  5  4  1  0
  5  1  1  0
  6 11  1  0
  7  6  2  0
  8  7  1  0
  8  9  2  0
  9 10  1  0
 10 11  2  0
  1 13  1  6
  2 14  1  1
  3 15  1  0
  3 16  1  0
  4 17  1  0
  4 18  1  0
  5 19  1  0
  5 20  1  0
  7 21  1  0
  8 22  1  0
 10 23  1  0
 12 24  1  0
M  ISO  8  13  13  14  13  15  13  16  13  17  13  18  13  19  13  20  13
M  ISO  4  21  14  22  14  23  14  24   3
M  END
>  <minimizedAffinity>  (1) 
-3.66038394

>  <minimizedRMSD>  (1) 
0.386998504

$$$$
