
     RDKit          3D

 25 26  0  0  1  0  0  0  0  0999 V2000
   37.5300   26.9690   41.0250 C   0  0  1  0  0  0  0  0  0  0  0  0
   37.2680   26.4300   42.4380 C   0  0  1  0  0  0  0  0  0  0  0  0
   37.0900   24.9630   42.2220 C   0  0  0  0  0  0  0  0  0  0  0  0
   37.0720   24.7190   40.7290 C   0  0  0  0  0  0  0  0  0  0  0  0
   36.6690   26.1020   40.1960 C   0  0  0  0  0  0  0  0  0  0  0  0
   37.2310   28.3950   40.9770 C   0  0  0  0  0  0  0  0  0  0  0  0
   35.9220   28.7700   40.5540 C   0  0  0  0  0  0  0  0  0  0  0  0
   35.6140   30.1440   40.5110 C   0  0  0  0  0  0  0  0  0  0  0  0
   36.6120   31.0280   40.8850 N   0  0  0  0  0  0  0  0  0  0  0  0
   37.8230   30.6150   41.2740 C   0  0  0  0  0  0  0  0  0  0  0  0
   38.1350   29.3010   41.3200 N   0  0  0  0  0  0  0  0  0  0  0  0
   38.3190   26.7320   43.3540 N   0  0  0  0  0  0  0  0  0  0  0  0
   38.5706   26.9258   40.6710 H   0  0  0  0  0  0  0  0  0  0  0  0
   36.3904   26.8969   42.9090 H   0  0  0  0  0  0  0  0  0  0  0  0
   37.9238   24.4123   42.6820 H   0  0  0  0  0  0  0  0  0  0  0  0
   36.1527   24.6159   42.6814 H   0  0  0  0  0  0  0  0  0  0  0  0
   38.0637   24.4194   40.3591 H   0  0  0  0  0  0  0  0  0  0  0  0
   36.4010   23.9054   40.4162 H   0  0  0  0  0  0  0  0  0  0  0  0
   36.8972   26.2072   39.1251 H   0  0  0  0  0  0  0  0  0  0  0  0
   35.5937   26.3242   40.2625 H   0  0  0  0  0  0  0  0  0  0  0  0
   35.1773   28.0116   40.2706 H   0  0  0  0  0  0  0  0  0  0  0  0
   34.6226   30.4996   40.1937 H   0  0  0  0  0  0  0  0  0  0  0  0
   38.5799   31.3594   41.5621 H   0  0  0  0  0  0  0  0  0  0  0  0
   37.9726   26.6325   44.3189 H   0  0  0  0  0  0  0  0  0  0  0  0
   39.1039   26.0825   43.2023 H   0  0  0  0  0  0  0  0  0  0  0  0
  1  2  1  0
  2 12  1  0
  3  2  1  0
  4  3  1  0
  5  4  1  0
  5  1  1  0
  6  1  1  0
  6 11  1  0
  7  6  2  0
  8  7  1  0
  8  9  2  0
  9 10  1  0
 10 11  2  0
  1 13  1  6
  2 14  1  1
  3 15  1  0
  3 16  1  0
  4 17  1  0
  4 18  1  0
  5 19  1  0
  5 20  1  0
  7 21  1  0
  8 22  1  0
 10 23  1  0
 12 24  1  0
 12 25  1  0
M  ISO  8  13  13  14  13  15  13  16  13  17  13  18  13  19  13  20  13
M  ISO  5  21  14  22  14  23  14  24   5  25   5
M  END
>  <minimizedAffinity>  (1) 
-3.60242891

>  <minimizedRMSD>  (1) 
0.30441457

$$$$
