
     RDKit          3D

 34 36  0  0  1  0  0  0  0  0999 V2000
   36.8210   29.6060   38.5480 C   0  0  1  0  0  0  0  0  0  0  0  0
   35.6730   29.2260   39.5270 C   0  0  1  0  0  0  0  0  0  0  0  0
   34.5960   28.7180   38.6340 C   0  0  0  0  0  0  0  0  0  0  0  0
   35.1140   28.8600   37.1960 C   0  0  0  0  0  0  0  0  0  0  0  0
   36.0590   30.0740   37.3750 C   0  0  0  0  0  0  0  0  0  0  0  0
   37.6580   30.6100   39.2080 C   0  0  0  0  0  0  0  0  0  0  0  0
   37.0430   31.7990   39.6520 C   0  0  0  0  0  0  0  0  0  0  0  0
   37.8160   32.7830   40.2890 C   0  0  0  0  0  0  0  0  0  0  0  0
   39.1530   32.5070   40.4370 N   0  0  0  0  0  0  0  0  0  0  0  0
   39.7000   31.3560   39.9970 C   0  0  0  0  0  0  0  0  0  0  0  0
   38.9620   30.4210   39.3900 N   0  0  0  0  0  0  0  0  0  0  0  0
   36.2330   28.1590   40.4130 C   0  0  0  0  0  0  0  0  0  0  0  0
   36.5290   26.8930   40.0000 C   0  0  0  0  0  0  0  0  0  0  0  0
   37.0550   25.9120   40.8090 C   0  0  0  0  0  0  0  0  0  0  0  0
   37.2870   26.2580   42.1170 N   0  0  0  0  0  0  0  0  0  0  0  0
   37.0040   27.4990   42.5480 C   0  0  0  0  0  0  0  0  0  0  0  0
   36.4900   28.4280   41.7180 N   0  0  0  0  0  0  0  0  0  0  0  0
   37.2640   27.8530   43.9680 C   0  0  0  0  0  0  0  0  0  0  0  0
   37.5330   29.2160   44.1170 F   0  0  0  0  0  0  0  0  0  0  0  0
   38.3370   27.1650   44.4710 F   0  0  0  0  0  0  0  0  0  0  0  0
   36.1270   27.6430   44.7560 F   0  0  0  0  0  0  0  0  0  0  0  0
   37.5298   28.8184   38.2525 H   0  0  0  0  0  0  0  0  0  0  0  0
   35.2849   30.0353   40.1629 H   0  0  0  0  0  0  0  0  0  0  0  0
   34.3837   27.6622   38.8583 H   0  0  0  0  0  0  0  0  0  0  0  0
   33.6632   29.2832   38.7769 H   0  0  0  0  0  0  0  0  0  0  0  0
   34.3006   29.0757   36.4876 H   0  0  0  0  0  0  0  0  0  0  0  0
   35.5883   27.9584   36.7811 H   0  0  0  0  0  0  0  0  0  0  0  0
   36.7051   30.2260   36.4978 H   0  0  0  0  0  0  0  0  0  0  0  0
   35.5600   31.0470   37.4940 H   0  0  0  0  0  0  0  0  0  0  0  0
   35.9647   31.9545   39.5002 H   0  0  0  0  0  0  0  0  0  0  0  0
   37.3746   33.7237   40.6498 H   0  0  0  0  0  0  0  0  0  0  0  0
   40.7767   31.1825   40.1405 H   0  0  0  0  0  0  0  0  0  0  0  0
   36.3337   26.6388   38.9477 H   0  0  0  0  0  0  0  0  0  0  0  0
   37.2777   24.9044   40.4280 H   0  0  0  0  0  0  0  0  0  0  0  0
  1  6  1  0
  1  2  1  0
  2 12  1  0
  3  2  1  0
  4  5  1  0
  4  3  1  0
  5  1  1  0
  6 11  1  0
  6  7  2  0
  7  8  1  0
  8  9  2  0
 10  9  1  0
 11 10  2  0
 12 17  1  0
 13 12  2  0
 13 14  1  0
 14 15  2  0
 15 16  1  0
 16 18  1  0
 17 16  2  0
 18 19  1  0
 18 20  1  0
 18 21  1  0
  1 22  1  6
  2 23  1  1
  3 24  1  0
  3 25  1  0
  4 26  1  0
  4 27  1  0
  5 28  1  0
  5 29  1  0
  7 30  1  0
  8 31  1  0
 10 32  1  0
 13 33  1  0
 14 34  1  0
M  ISO  8  22  13  23  13  24  13  25  13  26  13  27  13  28  13  29  13
M  ISO  5  30  14  31  14  32  14  33  14  34  14
M  END
>  <minimizedAffinity>  (1) 
-5.89622831

>  <minimizedRMSD>  (1) 
4.74782038

$$$$
