
     RDKit          3D

 43 45  0  0  1  0  0  0  0  0999 V2000
   38.2770   28.2580   42.8080 C   0  0  1  0  0  0  0  0  0  0  0  0
   38.2030   26.8840   42.0860 C   0  0  1  0  0  0  0  0  0  0  0  0
   36.9050   26.3120   42.5400 C   0  0  0  0  0  0  0  0  0  0  0  0
   36.3060   27.3160   43.5410 C   0  0  0  0  0  0  0  0  0  0  0  0
   37.6070   27.9520   44.0880 C   0  0  0  0  0  0  0  0  0  0  0  0
   39.6850   28.6300   42.9060 C   0  0  0  0  0  0  0  0  0  0  0  0
   40.6030   27.6770   43.3950 C   0  0  0  0  0  0  0  0  0  0  0  0
   41.9630   28.0120   43.4980 C   0  0  0  0  0  0  0  0  0  0  0  0
   42.3150   29.2780   43.1050 N   0  0  0  0  0  0  0  0  0  0  0  0
   41.4080   30.1640   42.6430 C   0  0  0  0  0  0  0  0  0  0  0  0
   40.1110   29.8440   42.5460 N   0  0  0  0  0  0  0  0  0  0  0  0
   38.1990   27.2000   40.6230 C   0  0  0  0  0  0  0  0  0  0  0  0
   38.9250   26.5220   39.6870 C   0  0  0  0  0  0  0  0  0  0  0  0
   38.9160   26.8010   38.3410 C   0  0  0  0  0  0  0  0  0  0  0  0
   38.1140   27.8340   37.9410 N   0  0  0  0  0  0  0  0  0  0  0  0
   37.3860   28.5210   38.8380 C   0  0  0  0  0  0  0  0  0  0  0  0
   37.4310   28.2080   40.1500 N   0  0  0  0  0  0  0  0  0  0  0  0
   36.5240   29.6400   38.3630 C   0  0  0  0  0  0  0  0  0  0  0  0
   36.8470   29.9680   36.9010 C   0  0  0  0  0  0  0  0  0  0  0  0
   35.0630   29.1780   38.3140 C   0  0  0  0  0  0  0  0  0  0  0  0
   36.6560   30.8730   39.1840 C   0  0  0  0  0  0  0  0  0  0  0  0
   37.7985   29.1219   42.3234 H   0  0  0  0  0  0  0  0  0  0  0  0
   39.0220   26.1792   42.2921 H   0  0  0  0  0  0  0  0  0  0  0  0
   36.2279   26.1811   41.6831 H   0  0  0  0  0  0  0  0  0  0  0  0
   37.0482   25.3259   43.0060 H   0  0  0  0  0  0  0  0  0  0  0  0
   35.6662   28.0587   43.0420 H   0  0  0  0  0  0  0  0  0  0  0  0
   35.6475   26.8752   44.3039 H   0  0  0  0  0  0  0  0  0  0  0  0
   38.1872   27.2431   44.6970 H   0  0  0  0  0  0  0  0  0  0  0  0
   37.4648   28.8096   44.7620 H   0  0  0  0  0  0  0  0  0  0  0  0
   40.2555   26.6771   43.6940 H   0  0  0  0  0  0  0  0  0  0  0  0
   42.7079   27.2956   43.8747 H   0  0  0  0  0  0  0  0  0  0  0  0
   41.7401   31.1680   42.3403 H   0  0  0  0  0  0  0  0  0  0  0  0
   39.5616   25.6947   40.0339 H   0  0  0  0  0  0  0  0  0  0  0  0
   39.5206   26.2250   37.6250 H   0  0  0  0  0  0  0  0  0  0  0  0
   37.6184   30.7513   36.8627 H   0  0  0  0  0  0  0  0  0  0  0  0
   37.2172   29.0639   36.3955 H   0  0  0  0  0  0  0  0  0  0  0  0
   35.9373   30.3242   36.3955 H   0  0  0  0  0  0  0  0  0  0  0  0
   34.6820   29.0575   39.3388 H   0  0  0  0  0  0  0  0  0  0  0  0
   34.4586   29.9288   37.7840 H   0  0  0  0  0  0  0  0  0  0  0  0
   35.0002   28.2162   37.7840 H   0  0  0  0  0  0  0  0  0  0  0  0
   36.6276   30.6077   40.2512 H   0  0  0  0  0  0  0  0  0  0  0  0
   37.6121   31.3660   38.9540 H   0  0  0  0  0  0  0  0  0  0  0  0
   35.8260   31.5572   38.9540 H   0  0  0  0  0  0  0  0  0  0  0  0
  1  6  1  0
  1  5  1  0
  2  3  1  0
  2  1  1  0
  3  4  1  0
  4  5  1  0
  6  7  2  0
  7  8  1  0
  9  8  2  0
 10  9  1  0
 11 10  2  0
 11  6  1  0
 12  2  1  0
 13 12  2  0
 14 13  1  0
 15 14  2  0
 15 16  1  0
 16 17  2  0
 17 12  1  0
 18 16  1  0
 18 21  1  0
 19 18  1  0
 20 18  1  0
  1 22  1  6
  2 23  1  6
  3 24  1  0
  3 25  1  0
  4 26  1  0
  4 27  1  0
  5 28  1  0
  5 29  1  0
  7 30  1  0
  8 31  1  0
 10 32  1  0
 13 33  1  0
 14 34  1  0
 19 35  1  0
 19 36  1  0
 19 37  1  0
 20 38  1  0
 20 39  1  0
 20 40  1  0
 21 41  1  0
 21 42  1  0
 21 43  1  0
M  ISO  8  22  13  23  13  24  13  25  13  26  13  27  13  28  13  29  13
M  ISO  8  30  14  31  14  32  14  33  14  34  14  35   8  36   8  37   8
M  ISO  6  38   8  39   8  40   8  41   8  42   8  43   8
M  END
>  <minimizedAffinity>  (1) 
-5.06616926

>  <minimizedRMSD>  (1) 
5.86192989

$$$$
