
     RDKit          3D

 44 47  0  0  1  0  0  0  0  0999 V2000
   37.3340   26.4790   39.9590 C   0  0  1  0  0  0  0  0  0  0  0  0
   36.9340   25.9610   41.3690 C   0  0  1  0  0  0  0  0  0  0  0  0
   36.6520   24.5160   41.1500 C   0  0  0  0  0  0  0  0  0  0  0  0
   36.8410   24.2520   39.6530 C   0  0  0  0  0  0  0  0  0  0  0  0
   36.4690   25.6470   39.0960 C   0  0  0  0  0  0  0  0  0  0  0  0
   37.0790   27.9210   39.9180 C   0  0  0  0  0  0  0  0  0  0  0  0
   35.8180   28.3810   40.3600 C   0  0  0  0  0  0  0  0  0  0  0  0
   35.5400   29.7600   40.3350 C   0  0  0  0  0  0  0  0  0  0  0  0
   36.5420   30.5770   39.8730 N   0  0  0  0  0  0  0  0  0  0  0  0
   37.7310   30.0880   39.4620 C   0  0  0  0  0  0  0  0  0  0  0  0
   37.9900   28.7790   39.4880 N   0  0  0  0  0  0  0  0  0  0  0  0
   38.1310   26.1860   42.2390 C   0  0  0  0  0  0  0  0  0  0  0  0
   38.1380   26.9990   43.3350 C   0  0  0  0  0  0  0  0  0  0  0  0
   39.2370   27.1960   44.1430 C   0  0  0  0  0  0  0  0  0  0  0  0
   40.3800   26.5180   43.7970 N   0  0  0  0  0  0  0  0  0  0  0  0
   40.3940   25.7160   42.7260 C   0  0  0  0  0  0  0  0  0  0  0  0
   39.2980   25.5500   41.9600 N   0  0  0  0  0  0  0  0  0  0  0  0
   41.6860   25.0330   42.4460 C   0  0  0  0  0  0  0  0  0  0  0  0
   42.7740   25.4550   43.4150 C   0  0  0  0  0  0  0  0  0  0  0  0
   43.7860   26.2510   42.6210 C   0  0  0  0  0  0  0  0  0  0  0  0
   43.1050   26.5300   41.3060 C   0  0  0  0  0  0  0  0  0  0  0  0
   42.2430   25.3300   41.0890 C   0  0  0  0  0  0  0  0  0  0  0  0
   38.3867   26.3876   39.6532 H   0  0  0  0  0  0  0  0  0  0  0  0
   36.0678   26.4475   41.8412 H   0  0  0  0  0  0  0  0  0  0  0  0
   37.3515   23.9005   41.7347 H   0  0  0  0  0  0  0  0  0  0  0  0
   35.6318   24.2591   41.4711 H   0  0  0  0  0  0  0  0  0  0  0  0
   37.8790   23.9782   39.4129 H   0  0  0  0  0  0  0  0  0  0  0  0
   36.2528   23.4152   39.2482 H   0  0  0  0  0  0  0  0  0  0  0  0
   36.7281   25.7487   38.0318 H   0  0  0  0  0  0  0  0  0  0  0  0
   35.3977   25.8956   39.1199 H   0  0  0  0  0  0  0  0  0  0  0  0
   35.0615   27.6682   40.7199 H   0  0  0  0  0  0  0  0  0  0  0  0
   34.5717   30.1620   40.6678 H   0  0  0  0  0  0  0  0  0  0  0  0
   38.5024   30.7826   39.0981 H   0  0  0  0  0  0  0  0  0  0  0  0
   37.2089   27.5300   43.5893 H   0  0  0  0  0  0  0  0  0  0  0  0
   39.2005   27.8610   45.0185 H   0  0  0  0  0  0  0  0  0  0  0  0
   41.4338   23.9662   42.5369 H   0  0  0  0  0  0  0  0  0  0  0  0
   42.3471   26.0774   44.2152 H   0  0  0  0  0  0  0  0  0  0  0  0
   43.2440   24.5785   43.8849 H   0  0  0  0  0  0  0  0  0  0  0  0
   44.0324   27.1904   43.1375 H   0  0  0  0  0  0  0  0  0  0  0  0
   44.7343   25.7087   42.4923 H   0  0  0  0  0  0  0  0  0  0  0  0
   42.4961   27.4441   41.3663 H   0  0  0  0  0  0  0  0  0  0  0  0
   43.8178   26.6956   40.4847 H   0  0  0  0  0  0  0  0  0  0  0  0
   41.4360   25.5524   40.3754 H   0  0  0  0  0  0  0  0  0  0  0  0
   42.7990   24.4809   40.6649 H   0  0  0  0  0  0  0  0  0  0  0  0
  1  2  1  0
  2 12  1  0
  3  2  1  0
  4  3  1  0
  5  4  1  0
  5  1  1  0
  6  1  1  0
  6  7  2  0
  8  7  1  0
  9  8  2  0
 10 11  2  0
 10  9  1  0
 11  6  1  0
 12 13  2  0
 13 14  1  0
 15 14  2  0
 16 15  1  0
 17 12  1  0
 17 16  2  0
 18 16  1  0
 18 19  1  0
 20 19  1  0
 21 20  1  0
 22 21  1  0
 22 18  1  0
  1 23  1  6
  2 24  1  1
  3 25  1  0
  3 26  1  0
  4 27  1  0
  4 28  1  0
  5 29  1  0
  5 30  1  0
  7 31  1  0
  8 32  1  0
 10 33  1  0
 13 34  1  0
 14 35  1  0
 18 36  1  0
 19 37  1  0
 19 38  1  0
 20 39  1  0
 20 40  1  0
 21 41  1  0
 21 42  1  0
 22 43  1  0
 22 44  1  0
M  ISO  8  23  13  24  13  25  13  26  13  27  13  28  13  29  13  30  13
M  ISO  8  31  14  32  14  33  14  34  14  35  14  36  13  37  13  38  13
M  ISO  6  39  13  40  13  41  13  42  13  43  13  44  13
M  END
>  <minimizedAffinity>  (1) 
-4.73112679

>  <minimizedRMSD>  (1) 
1.12078881

$$$$
