
     RDKit          3D

 38 41  0  0  1  0  0  0  0  0999 V2000
   37.5910   26.9820   40.4240 C   0  0  1  0  0  0  0  0  0  0  0  0
   37.4580   26.3700   41.8460 C   0  0  1  0  0  0  0  0  0  0  0  0
   36.9360   24.9990   41.5950 C   0  0  0  0  0  0  0  0  0  0  0  0
   36.7500   24.8690   40.0690 C   0  0  0  0  0  0  0  0  0  0  0  0
   36.4590   26.3490   39.7180 C   0  0  0  0  0  0  0  0  0  0  0  0
   37.5310   28.4390   40.5530 C   0  0  0  0  0  0  0  0  0  0  0  0
   36.3560   29.0040   41.1120 C   0  0  0  0  0  0  0  0  0  0  0  0
   36.2730   30.4010   41.2490 C   0  0  0  0  0  0  0  0  0  0  0  0
   37.3610   31.1290   40.8220 N   0  0  0  0  0  0  0  0  0  0  0  0
   38.4520   30.5440   40.2990 C   0  0  0  0  0  0  0  0  0  0  0  0
   38.5330   29.2180   40.1680 N   0  0  0  0  0  0  0  0  0  0  0  0
   38.8420   26.3610   42.4130 C   0  0  0  0  0  0  0  0  0  0  0  0
   39.1650   26.8240   43.6550 C   0  0  0  0  0  0  0  0  0  0  0  0
   40.4350   26.8070   44.1850 C   0  0  0  0  0  0  0  0  0  0  0  0
   41.4240   26.2850   43.3880 N   0  0  0  0  0  0  0  0  0  0  0  0
   41.1300   25.8230   42.1610 C   0  0  0  0  0  0  0  0  0  0  0  0
   39.8720   25.8570   41.6790 N   0  0  0  0  0  0  0  0  0  0  0  0
   42.2250   25.2630   41.3230 C   0  0  0  0  0  0  0  0  0  0  0  0
   42.8460   26.2700   40.3030 C   0  0  0  0  0  0  0  0  0  0  0  0
   42.0200   25.1160   39.8770 C   0  0  0  0  0  0  0  0  0  0  0  0
   38.5263   26.8011   39.8740 H   0  0  0  0  0  0  0  0  0  0  0  0
   36.7997   26.9018   42.5487 H   0  0  0  0  0  0  0  0  0  0  0  0
   37.6545   24.2478   41.9549 H   0  0  0  0  0  0  0  0  0  0  0  0
   35.9866   24.8335   42.1252 H   0  0  0  0  0  0  0  0  0  0  0  0
   37.6615   24.5019   39.5746 H   0  0  0  0  0  0  0  0  0  0  0  0
   35.9779   24.1527   39.7515 H   0  0  0  0  0  0  0  0  0  0  0  0
   36.4960   26.5305   38.6337 H   0  0  0  0  0  0  0  0  0  0  0  0
   35.4611   26.7146   40.0018 H   0  0  0  0  0  0  0  0  0  0  0  0
   35.5238   28.3601   41.4329 H   0  0  0  0  0  0  0  0  0  0  0  0
   35.3837   30.8878   41.6758 H   0  0  0  0  0  0  0  0  0  0  0  0
   39.2952   31.1704   39.9723 H   0  0  0  0  0  0  0  0  0  0  0  0
   38.3561   27.2387   44.2744 H   0  0  0  0  0  0  0  0  0  0  0  0
   40.6467   27.1912   45.1937 H   0  0  0  0  0  0  0  0  0  0  0  0
   42.5769   24.5850   42.1145 H   0  0  0  0  0  0  0  0  0  0  0  0
   42.4538   27.2946   40.2235 H   0  0  0  0  0  0  0  0  0  0  0  0
   43.8541   26.6482   40.0776 H   0  0  0  0  0  0  0  0  0  0  0  0
   41.0208   25.2958   39.4535 H   0  0  0  0  0  0  0  0  0  0  0  0
   42.1877   24.2883   39.1722 H   0  0  0  0  0  0  0  0  0  0  0  0
  1  6  1  0
  1  2  1  0
  2 12  1  0
  3  2  1  0
  4  3  1  0
  5  4  1  0
  5  1  1  0
  6  7  2  0
  7  8  1  0
  9  8  2  0
 10  9  1  0
 11 10  2  0
 11  6  1  0
 12 13  2  0
 13 14  1  0
 15 14  2  0
 16 15  1  0
 17 16  2  0
 17 12  1  0
 18 16  1  0
 19 18  1  0
 20 19  1  0
 20 18  1  0
  1 21  1  6
  2 22  1  1
  3 23  1  0
  3 24  1  0
  4 25  1  0
  4 26  1  0
  5 27  1  0
  5 28  1  0
  7 29  1  0
  8 30  1  0
 10 31  1  0
 13 32  1  0
 14 33  1  0
 18 34  1  0
 19 35  1  0
 19 36  1  0
 20 37  1  0
 20 38  1  0
M  ISO  8  21  13  22  13  23  13  24  13  25  13  26  13  27  13  28  13
M  ISO  8  29  14  30  14  31  14  32  14  33  14  34  13  35  13  36  13
M  ISO  2  37  13  38  13
M  END
>  <minimizedAffinity>  (1) 
-4.49291134

>  <minimizedRMSD>  (1) 
0.948245823

$$$$
