
     RDKit          3D

 34 36  0  0  1  0  0  0  0  0999 V2000
   37.4550   26.5540   40.2650 C   0  0  1  0  0  0  0  0  0  0  0  0
   37.3370   26.0630   41.7360 C   0  0  1  0  0  0  0  0  0  0  0  0
   36.9150   24.6390   41.6120 C   0  0  0  0  0  0  0  0  0  0  0  0
   36.7560   24.3660   40.1020 C   0  0  0  0  0  0  0  0  0  0  0  0
   36.3690   25.7860   39.6230 C   0  0  0  0  0  0  0  0  0  0  0  0
   37.2930   28.0050   40.2690 C   0  0  0  0  0  0  0  0  0  0  0  0
   36.1100   28.5450   40.8200 C   0  0  0  0  0  0  0  0  0  0  0  0
   35.9260   29.9380   40.8380 C   0  0  0  0  0  0  0  0  0  0  0  0
   36.9370   30.6980   40.3050 N   0  0  0  0  0  0  0  0  0  0  0  0
   38.0600   30.1350   39.7860 C   0  0  0  0  0  0  0  0  0  0  0  0
   38.2340   28.8130   39.7680 N   0  0  0  0  0  0  0  0  0  0  0  0
   38.7070   26.1970   42.3210 C   0  0  0  0  0  0  0  0  0  0  0  0
   38.9740   26.7560   43.5390 C   0  0  0  0  0  0  0  0  0  0  0  0
   40.2270   26.8740   44.0880 C   0  0  0  0  0  0  0  0  0  0  0  0
   41.2660   26.3850   43.3330 N   0  0  0  0  0  0  0  0  0  0  0  0
   41.0340   25.8320   42.1350 C   0  0  0  0  0  0  0  0  0  0  0  0
   39.7820   25.7410   41.6430 N   0  0  0  0  0  0  0  0  0  0  0  0
   42.1830   25.3110   41.3420 C   0  0  0  0  0  0  0  0  0  0  0  0
   38.4053   26.3910   39.7354 H   0  0  0  0  0  0  0  0  0  0  0  0
   36.6288   26.6128   42.3734 H   0  0  0  0  0  0  0  0  0  0  0  0
   37.6808   23.9758   42.0406 H   0  0  0  0  0  0  0  0  0  0  0  0
   35.9764   24.4509   42.1539 H   0  0  0  0  0  0  0  0  0  0  0  0
   37.6961   24.0216   39.6464 H   0  0  0  0  0  0  0  0  0  0  0  0
   36.0383   23.5736   39.8433 H   0  0  0  0  0  0  0  0  0  0  0  0
   36.3957   25.8725   38.5267 H   0  0  0  0  0  0  0  0  0  0  0  0
   35.3487   26.1082   39.8781 H   0  0  0  0  0  0  0  0  0  0  0  0
   35.3375   27.8793   41.2325 H   0  0  0  0  0  0  0  0  0  0  0  0
   35.0182   30.3959   41.2578 H   0  0  0  0  0  0  0  0  0  0  0  0
   38.8440   30.7854   39.3709 H   0  0  0  0  0  0  0  0  0  0  0  0
   38.1235   27.1392   44.1219 H   0  0  0  0  0  0  0  0  0  0  0  0
   40.3896   27.3330   45.0743 H   0  0  0  0  0  0  0  0  0  0  0  0
   42.9684   24.9549   42.0249 H   0  0  0  0  0  0  0  0  0  0  0  0
   41.8435   24.4788   40.7078 H   0  0  0  0  0  0  0  0  0  0  0  0
   42.5853   26.1147   40.7078 H   0  0  0  0  0  0  0  0  0  0  0  0
  1  6  1  0
  1  2  1  0
  2 12  1  0
  3  2  1  0
  4  3  1  0
  5  4  1  0
  5  1  1  0
  6  7  2  0
  7  8  1  0
  9  8  2  0
 10  9  1  0
 11 10  2  0
 11  6  1  0
 12 13  2  0
 13 14  1  0
 15 14  2  0
 16 15  1  0
 17 16  2  0
 17 12  1  0
 18 16  1  0
  1 19  1  6
  2 20  1  1
  3 21  1  0
  3 22  1  0
  4 23  1  0
  4 24  1  0
  5 25  1  0
  5 26  1  0
  7 27  1  0
  8 28  1  0
 10 29  1  0
 13 30  1  0
 14 31  1  0
 18 32  1  0
 18 33  1  0
 18 34  1  0
M  ISO  8  19  13  20  13  21  13  22  13  23  13  24  13  25  13  26  13
M  ISO  8  27  14  28  14  29  14  30  14  31  14  32   8  33   8  34   8
M  END
>  <minimizedAffinity>  (1) 
-4.45046854

>  <minimizedRMSD>  (1) 
0.715200186

$$$$
