
     RDKit          3D

 45 48  0  0  1  0  0  0  0  0999 V2000
   37.3690   26.5020   39.8000 C   0  0  1  0  0  0  0  0  0  0  0  0
   36.8550   25.9910   41.1550 C   0  0  1  0  0  0  0  0  0  0  0  0
   36.7050   24.5110   40.9460 C   0  0  0  0  0  0  0  0  0  0  0  0
   37.0730   24.2350   39.4910 C   0  0  0  0  0  0  0  0  0  0  0  0
   36.6880   25.5920   38.8540 C   0  0  0  0  0  0  0  0  0  0  0  0
   37.0340   27.9180   39.6820 C   0  0  0  0  0  0  0  0  0  0  0  0
   35.7810   28.3330   40.1860 C   0  0  0  0  0  0  0  0  0  0  0  0
   35.4200   29.6850   40.0920 C   0  0  0  0  0  0  0  0  0  0  0  0
   36.3400   30.5290   39.5010 N   0  0  0  0  0  0  0  0  0  0  0  0
   37.5230   30.0790   39.0360 C   0  0  0  0  0  0  0  0  0  0  0  0
   37.8630   28.7920   39.1280 N   0  0  0  0  0  0  0  0  0  0  0  0
   37.9210   26.3050   42.1640 C   0  0  0  0  0  0  0  0  0  0  0  0
   37.7480   27.1450   43.2180 C   0  0  0  0  0  0  0  0  0  0  0  0
   38.7450   27.4350   44.1350 C   0  0  0  0  0  0  0  0  0  0  0  0
   39.9650   26.8250   43.9400 N   0  0  0  0  0  0  0  0  0  0  0  0
   40.1320   26.0020   42.9050 C   0  0  0  0  0  0  0  0  0  0  0  0
   39.1600   25.7310   42.0290 N   0  0  0  0  0  0  0  0  0  0  0  0
   41.7690   25.2730   42.7620 S   0  0  0  0  0  0  0  0  0  0  0  0
   44.3560   27.3040   45.9010 C   0  0  0  0  0  0  0  0  0  0  0  0
   42.9720   27.3320   45.9440 C   0  0  0  0  0  0  0  0  0  0  0  0
   42.2370   26.6880   44.9490 C   0  0  0  0  0  0  0  0  0  0  0  0
   42.8960   26.0240   43.9230 C   0  0  0  0  0  0  0  0  0  0  0  0
   44.2800   25.9970   43.8800 C   0  0  0  0  0  0  0  0  0  0  0  0
   44.9920   26.6360   44.8680 C   0  0  0  0  0  0  0  0  0  0  0  0
   45.2610   28.1140   47.1520 S   0  0  0  0  0  0  0  0  0  0  0  0
   44.3420   28.3850   48.3330 O   0  0  0  0  0  0  0  0  0  0  0  0
   46.3540   27.2210   47.6630 O   0  0  0  0  0  0  0  0  0  0  0  0
   38.4554   26.4786   39.6290 H   0  0  0  0  0  0  0  0  0  0  0  0
   35.9106   26.4343   41.5036 H   0  0  0  0  0  0  0  0  0  0  0  0
   37.3808   23.9626   41.6187 H   0  0  0  0  0  0  0  0  0  0  0  0
   35.6781   24.1823   41.1640 H   0  0  0  0  0  0  0  0  0  0  0  0
   38.1454   24.0193   39.3751 H   0  0  0  0  0  0  0  0  0  0  0  0
   36.5794   23.3581   39.0467 H   0  0  0  0  0  0  0  0  0  0  0  0
   37.0811   25.6925   37.8316 H   0  0  0  0  0  0  0  0  0  0  0  0
   35.6086   25.7640   38.7307 H   0  0  0  0  0  0  0  0  0  0  0  0
   35.0971   27.6048   40.6464 H   0  0  0  0  0  0  0  0  0  0  0  0
   34.4548   30.0539   40.4692 H   0  0  0  0  0  0  0  0  0  0  0  0
   38.2231   30.7884   38.5706 H   0  0  0  0  0  0  0  0  0  0  0  0
   36.7645   27.6197   43.3500 H   0  0  0  0  0  0  0  0  0  0  0  0
   38.5711   28.1194   44.9784 H   0  0  0  0  0  0  0  0  0  0  0  0
   42.4550   27.8596   46.7590 H   0  0  0  0  0  0  0  0  0  0  0  0
   41.1375   26.7061   44.9770 H   0  0  0  0  0  0  0  0  0  0  0  0
   44.8025   25.4718   43.0669 H   0  0  0  0  0  0  0  0  0  0  0  0
   46.0914   26.6160   44.8370 H   0  0  0  0  0  0  0  0  0  0  0  0
   45.7790   29.2691   46.6283 H   0  0  0  0  0  0  0  0  0  0  0  0
  1  2  1  0
  2 12  1  0
  3  2  1  0
  4  3  1  0
  5  4  1  0
  5  1  1  0
  6  1  1  0
  6  7  2  0
  8  7  1  0
  9  8  2  0
 10 11  2  0
 10  9  1  0
 11  6  1  0
 12 13  2  0
 13 14  1  0
 15 14  2  0
 16 15  1  0
 17 12  1  0
 17 16  2  0
 18 16  1  0
 18 22  1  0
 19 20  2  0
 19 25  1  0
 21 20  1  0
 22 21  2  0
 23 22  1  0
 23 24  2  0
 24 19  1  0
 25 27  2  0
 25 26  2  0
  1 28  1  1
  2 29  1  1
  3 30  1  0
  3 31  1  0
  4 32  1  0
  4 33  1  0
  5 34  1  0
  5 35  1  0
  7 36  1  0
  8 37  1  0
 10 38  1  0
 13 39  1  0
 14 40  1  0
 20 41  1  0
 21 42  1  0
 23 43  1  0
 24 44  1  0
 25 45  1  0
M  ISO  8  28  13  29  13  30  13  31  13  32  13  33  13  34  13  35  13
M  ISO  8  36  14  37  14  38  14  39  14  40  14  41  14  42  14  43  14
M  ISO  2  44  14  45  11
M  END
>  <minimizedAffinity>  (1) 
-5.47699547

>  <minimizedRMSD>  (1) 
1.91458631

$$$$
