
     RDKit          3D

 45 48  0  0  1  0  0  0  0  0999 V2000
   37.6870   28.5740   41.3720 C   0  0  1  0  0  0  0  0  0  0  0  0
   37.9060   29.3720   42.6830 C   0  0  1  0  0  0  0  0  0  0  0  0
   37.3850   28.4820   43.7520 C   0  0  0  0  0  0  0  0  0  0  0  0
   36.8350   27.2360   43.0480 C   0  0  0  0  0  0  0  0  0  0  0  0
   36.4560   27.8270   41.6750 C   0  0  0  0  0  0  0  0  0  0  0  0
   37.6070   29.5300   40.2680 C   0  0  0  0  0  0  0  0  0  0  0  0
   36.8510   30.7030   40.4670 C   0  0  0  0  0  0  0  0  0  0  0  0
   36.7540   31.6450   39.4280 C   0  0  0  0  0  0  0  0  0  0  0  0
   37.4220   31.3460   38.2650 N   0  0  0  0  0  0  0  0  0  0  0  0
   38.1330   30.2080   38.1210 C   0  0  0  0  0  0  0  0  0  0  0  0
   38.2230   29.3110   39.1090 N   0  0  0  0  0  0  0  0  0  0  0  0
   39.3840   29.5840   42.7830 C   0  0  0  0  0  0  0  0  0  0  0  0
   39.9920   30.8030   42.6470 C   0  0  0  0  0  0  0  0  0  0  0  0
   41.3540   31.0030   42.7440 C   0  0  0  0  0  0  0  0  0  0  0  0
   42.1150   29.8940   43.0120 N   0  0  0  0  0  0  0  0  0  0  0  0
   41.5360   28.6900   43.1380 C   0  0  0  0  0  0  0  0  0  0  0  0
   40.2040   28.5280   43.0380 N   0  0  0  0  0  0  0  0  0  0  0  0
   42.6350   27.3280   43.4910 S   0  0  0  0  0  0  0  0  0  0  0  0
   43.6110   27.8210   44.9520 C   0  0  0  0  0  0  0  0  0  0  0  0
   42.9010   27.4200   46.2220 C   0  0  0  0  0  0  0  0  0  0  0  0
   44.0060   27.1250   47.2070 C   0  0  0  0  0  0  0  0  0  0  0  0
   45.1780   26.6550   46.3850 C   0  0  0  0  0  0  0  0  0  0  0  0
   44.9070   27.0330   44.9560 C   0  0  0  0  0  0  0  0  0  0  0  0
   38.4783   27.8769   41.0590 H   0  0  0  0  0  0  0  0  0  0  0  0
   37.4071   30.3506   42.7425 H   0  0  0  0  0  0  0  0  0  0  0  0
   38.1944   28.2027   44.4425 H   0  0  0  0  0  0  0  0  0  0  0  0
   36.6044   28.9833   44.3430 H   0  0  0  0  0  0  0  0  0  0  0  0
   37.6010   26.4521   42.9543 H   0  0  0  0  0  0  0  0  0  0  0  0
   36.0067   26.7414   43.5764 H   0  0  0  0  0  0  0  0  0  0  0  0
   35.5816   28.4909   41.7433 H   0  0  0  0  0  0  0  0  0  0  0  0
   36.1637   27.0866   40.9158 H   0  0  0  0  0  0  0  0  0  0  0  0
   36.3419   30.8795   41.4260 H   0  0  0  0  0  0  0  0  0  0  0  0
   36.1738   32.5728   39.5401 H   0  0  0  0  0  0  0  0  0  0  0  0
   38.6501   30.0138   37.1697 H   0  0  0  0  0  0  0  0  0  0  0  0
   39.3552   31.6776   42.4480 H   0  0  0  0  0  0  0  0  0  0  0  0
   41.8048   31.9979   42.6135 H   0  0  0  0  0  0  0  0  0  0  0  0
   43.7665   28.9090   44.9071 H   0  0  0  0  0  0  0  0  0  0  0  0
   42.2664   28.2412   46.5866 H   0  0  0  0  0  0  0  0  0  0  0  0
   42.2385   26.5550   46.0710 H   0  0  0  0  0  0  0  0  0  0  0  0
   44.2716   28.0336   47.7674 H   0  0  0  0  0  0  0  0  0  0  0  0
   43.6992   26.3671   47.9428 H   0  0  0  0  0  0  0  0  0  0  0  0
   46.1008   27.1416   46.7338 H   0  0  0  0  0  0  0  0  0  0  0  0
   45.3071   25.5668   46.4805 H   0  0  0  0  0  0  0  0  0  0  0  0
   44.8030   26.1290   44.3379 H   0  0  0  0  0  0  0  0  0  0  0  0
   45.7334   27.6284   44.5406 H   0  0  0  0  0  0  0  0  0  0  0  0
  1  5  1  0
  1  2  1  0
  2 12  1  0
  2  3  1  0
  4  3  1  0
  5  4  1  0
  6  7  2  0
  6  1  1  0
  8  7  1  0
  9  8  2  0
 10  9  1  0
 10 11  2  0
 11  6  1  0
 12 17  2  0
 13 14  2  0
 13 12  1  0
 14 15  1  0
 15 16  2  0
 16 18  1  0
 17 16  1  0
 18 19  1  0
 19 23  1  0
 19 20  1  0
 20 21  1  0
 22 21  1  0
 23 22  1  0
  1 24  1  6
  2 25  1  6
  3 26  1  0
  3 27  1  0
  4 28  1  0
  4 29  1  0
  5 30  1  0
  5 31  1  0
  7 32  1  0
  8 33  1  0
 10 34  1  0
 13 35  1  0
 14 36  1  0
 19 37  1  0
 20 38  1  0
 20 39  1  0
 21 40  1  0
 21 41  1  0
 22 42  1  0
 22 43  1  0
 23 44  1  0
 23 45  1  0
M  ISO  8  24  13  25  13  26  13  27  13  28  13  29  13  30  13  31  13
M  ISO  8  32  14  33  14  34  14  35  14  36  14  37  13  38  13  39  13
M  ISO  6  40  13  41  13  42  13  43  13  44  13  45  13
M  END
>  <minimizedAffinity>  (1) 
-5.41179371

>  <minimizedRMSD>  (1) 
3.50886106

$$$$
