
     RDKit          3D

 47 50  0  0  1  0  0  0  0  0999 V2000
   37.4040   26.5500   40.2260 C   0  0  1  0  0  0  0  0  0  0  0  0
   37.2870   26.0780   41.6840 C   0  0  1  0  0  0  0  0  0  0  0  0
   36.8700   24.6370   41.5770 C   0  0  0  0  0  0  0  0  0  0  0  0
   36.7230   24.3430   40.0770 C   0  0  0  0  0  0  0  0  0  0  0  0
   36.3370   25.7570   39.5700 C   0  0  0  0  0  0  0  0  0  0  0  0
   37.2410   28.0020   40.2030 C   0  0  0  0  0  0  0  0  0  0  0  0
   36.1060   28.5390   40.8210 C   0  0  0  0  0  0  0  0  0  0  0  0
   35.9160   29.9360   40.8180 C   0  0  0  0  0  0  0  0  0  0  0  0
   36.8800   30.6840   40.1920 N   0  0  0  0  0  0  0  0  0  0  0  0
   37.9670   30.1170   39.6040 C   0  0  0  0  0  0  0  0  0  0  0  0
   38.1390   28.7960   39.6140 N   0  0  0  0  0  0  0  0  0  0  0  0
   38.6520   26.2130   42.2910 C   0  0  0  0  0  0  0  0  0  0  0  0
   38.8950   26.7210   43.5400 C   0  0  0  0  0  0  0  0  0  0  0  0
   40.1520   26.8510   44.0930 C   0  0  0  0  0  0  0  0  0  0  0  0
   41.2070   26.4360   43.3190 N   0  0  0  0  0  0  0  0  0  0  0  0
   40.9770   25.9350   42.0880 C   0  0  0  0  0  0  0  0  0  0  0  0
   39.7420   25.8240   41.5850 N   0  0  0  0  0  0  0  0  0  0  0  0
   42.4350   25.4360   41.1690 S   0  0  0  0  0  0  0  0  0  0  0  0
   45.4650   27.4660   43.9430 N   0  0  0  0  0  0  0  0  0  0  0  0
   44.3530   28.1040   43.2990 C   0  0  0  0  0  0  0  0  0  0  0  0
   44.0190   27.5110   41.9510 C   0  0  0  0  0  0  0  0  0  0  0  0
   43.9180   26.0140   42.0190 C   0  0  0  0  0  0  0  0  0  0  0  0
   44.0280   25.5680   43.4330 C   0  0  0  0  0  0  0  0  0  0  0  0
   45.4030   26.0300   43.9210 C   0  0  0  0  0  0  0  0  0  0  0  0
   38.3614   26.3900   39.7086 H   0  0  0  0  0  0  0  0  0  0  0  0
   36.5739   26.6424   42.3028 H   0  0  0  0  0  0  0  0  0  0  0  0
   37.6367   23.9844   42.0200 H   0  0  0  0  0  0  0  0  0  0  0  0
   35.9291   24.4513   42.1157 H   0  0  0  0  0  0  0  0  0  0  0  0
   37.6669   23.9927   39.6340 H   0  0  0  0  0  0  0  0  0  0  0  0
   36.0073   23.5463   39.8261 H   0  0  0  0  0  0  0  0  0  0  0  0
   36.3878   25.8281   38.4735 H   0  0  0  0  0  0  0  0  0  0  0  0
   35.3089   26.0732   39.8004 H   0  0  0  0  0  0  0  0  0  0  0  0
   35.3705   27.8786   41.3036 H   0  0  0  0  0  0  0  0  0  0  0  0
   35.0400   30.4018   41.2931 H   0  0  0  0  0  0  0  0  0  0  0  0
   38.7145   30.7577   39.1134 H   0  0  0  0  0  0  0  0  0  0  0  0
   38.0324   27.0460   44.1403 H   0  0  0  0  0  0  0  0  0  0  0  0
   40.3011   27.2653   45.1010 H   0  0  0  0  0  0  0  0  0  0  0  0
   46.3291   27.7610   43.4664 H   0  0  0  0  0  0  0  0  0  0  0  0
   43.4715   28.0084   43.9500 H   0  0  0  0  0  0  0  0  0  0  0  0
   44.6342   29.1541   43.1309 H   0  0  0  0  0  0  0  0  0  0  0  0
   44.8080   27.7840   41.2348 H   0  0  0  0  0  0  0  0  0  0  0  0
   43.0449   27.9088   41.6303 H   0  0  0  0  0  0  0  0  0  0  0  0
   44.7583   25.5493   41.4823 H   0  0  0  0  0  0  0  0  0  0  0  0
   43.2339   26.0268   44.0404 H   0  0  0  0  0  0  0  0  0  0  0  0
   43.9182   24.4769   43.5187 H   0  0  0  0  0  0  0  0  0  0  0  0
   45.5773   25.6432   44.9359 H   0  0  0  0  0  0  0  0  0  0  0  0
   46.1741   25.6478   43.2360 H   0  0  0  0  0  0  0  0  0  0  0  0
  1  2  1  0
  2 12  1  0
  3  2  1  0
  4  3  1  0
  5  4  1  0
  5  1  1  0
  6  1  1  0
  6  7  2  0
  8  7  1  0
  9  8  2  0
 10 11  2  0
 10  9  1  0
 11  6  1  0
 12 13  2  0
 13 14  1  0
 15 14  2  0
 16 15  1  0
 17 16  2  0
 17 12  1  0
 18 22  1  0
 18 16  1  0
 20 19  1  0
 21 22  1  0
 21 20  1  0
 22 23  1  0
 23 24  1  0
 24 19  1  0
  1 25  1  6
  2 26  1  1
  3 27  1  0
  3 28  1  0
  4 29  1  0
  4 30  1  0
  5 31  1  0
  5 32  1  0
  7 33  1  0
  8 34  1  0
 10 35  1  0
 13 36  1  0
 14 37  1  0
 19 38  1  0
 20 39  1  0
 20 40  1  0
 21 41  1  0
 21 42  1  0
 22 43  1  0
 23 44  1  0
 23 45  1  0
 24 46  1  0
 24 47  1  0
M  ISO  8  25  13  26  13  27  13  28  13  29  13  30  13  31  13  32  13
M  ISO  8  33  14  34  14  35  14  36  14  37  14  38   5  39  13  40  13
M  ISO  7  41  13  42  13  43  13  44  13  45  13  46  13  47  13
M  END
>  <minimizedAffinity>  (1) 
-4.59461212

>  <minimizedRMSD>  (1) 
0.286384076

$$$$
