
     RDKit          3D

 41 44  0  0  1  0  0  0  0  0999 V2000
   37.4490   26.6180   40.2360 C   0  0  1  0  0  0  0  0  0  0  0  0
   37.3590   26.1590   41.7000 C   0  0  1  0  0  0  0  0  0  0  0  0
   36.9590   24.7130   41.6280 C   0  0  0  0  0  0  0  0  0  0  0  0
   36.7810   24.4100   40.1400 C   0  0  0  0  0  0  0  0  0  0  0  0
   36.3790   25.7980   39.6120 C   0  0  0  0  0  0  0  0  0  0  0  0
   37.2610   28.0640   40.1980 C   0  0  0  0  0  0  0  0  0  0  0  0
   36.1010   28.5900   40.8110 C   0  0  0  0  0  0  0  0  0  0  0  0
   35.8920   29.9820   40.7900 C   0  0  0  0  0  0  0  0  0  0  0  0
   36.8500   30.7410   40.1630 N   0  0  0  0  0  0  0  0  0  0  0  0
   37.9450   30.1860   39.5900 C   0  0  0  0  0  0  0  0  0  0  0  0
   38.1440   28.8680   39.6090 N   0  0  0  0  0  0  0  0  0  0  0  0
   38.7340   26.3260   42.2860 C   0  0  0  0  0  0  0  0  0  0  0  0
   38.9830   26.8040   43.5340 C   0  0  0  0  0  0  0  0  0  0  0  0
   40.2340   26.9660   44.0640 C   0  0  0  0  0  0  0  0  0  0  0  0
   41.2740   26.6160   43.2620 N   0  0  0  0  0  0  0  0  0  0  0  0
   41.0770   26.1370   42.0170 C   0  0  0  0  0  0  0  0  0  0  0  0
   39.8230   25.9940   41.5370 N   0  0  0  0  0  0  0  0  0  0  0  0
   42.5080   25.7260   41.0570 S   0  0  0  0  0  0  0  0  0  0  0  0
   43.9480   25.6420   42.0740 C   0  0  0  0  0  0  0  0  0  0  0  0
   44.2520   25.5220   43.4000 C   0  0  0  0  0  0  0  0  0  0  0  0
   45.5190   25.4820   43.9220 C   0  0  0  0  0  0  0  0  0  0  0  0
   46.5810   25.5670   43.0680 C   0  0  0  0  0  0  0  0  0  0  0  0
   46.2940   25.6880   41.7280 C   0  0  0  0  0  0  0  0  0  0  0  0
   45.0230   25.7260   41.2310 N   0  0  0  0  0  0  0  0  0  0  0  0
   38.4009   26.4705   39.7049 H   0  0  0  0  0  0  0  0  0  0  0  0
   36.6430   26.7194   42.3191 H   0  0  0  0  0  0  0  0  0  0  0  0
   37.7450   24.0752   42.0585 H   0  0  0  0  0  0  0  0  0  0  0  0
   36.0382   24.5163   42.1967 H   0  0  0  0  0  0  0  0  0  0  0  0
   37.7178   24.0583   39.6831 H   0  0  0  0  0  0  0  0  0  0  0  0
   36.0576   23.6110   39.9202 H   0  0  0  0  0  0  0  0  0  0  0  0
   36.4141   25.8450   38.5136 H   0  0  0  0  0  0  0  0  0  0  0  0
   35.3514   26.1097   39.8506 H   0  0  0  0  0  0  0  0  0  0  0  0
   35.3736   27.9227   41.2964 H   0  0  0  0  0  0  0  0  0  0  0  0
   35.0052   30.4394   41.2529 H   0  0  0  0  0  0  0  0  0  0  0  0
   38.6846   30.8358   39.0993 H   0  0  0  0  0  0  0  0  0  0  0  0
   38.1210   27.0790   44.1597 H   0  0  0  0  0  0  0  0  0  0  0  0
   40.3891   27.3569   45.0804 H   0  0  0  0  0  0  0  0  0  0  0  0
   43.4119   25.4517   44.1066 H   0  0  0  0  0  0  0  0  0  0  0  0
   45.6768   25.3835   45.0062 H   0  0  0  0  0  0  0  0  0  0  0  0
   47.6178   25.5400   43.4344 H   0  0  0  0  0  0  0  0  0  0  0  0
   47.1327   25.7578   41.0197 H   0  0  0  0  0  0  0  0  0  0  0  0
  1  2  1  0
  2 12  1  0
  3  2  1  0
  4  3  1  0
  5  4  1  0
  5  1  1  0
  6  1  1  0
  6  7  2  0
  8  7  1  0
  9  8  2  0
 10 11  2  0
 10  9  1  0
 11  6  1  0
 12 13  2  0
 13 14  1  0
 15 14  2  0
 16 15  1  0
 17 16  2  0
 17 12  1  0
 18 16  1  0
 18 19  1  0
 19 20  2  0
 20 21  1  0
 22 21  2  0
 23 22  1  0
 24 23  2  0
 24 19  1  0
  1 25  1  6
  2 26  1  1
  3 27  1  0
  3 28  1  0
  4 29  1  0
  4 30  1  0
  5 31  1  0
  5 32  1  0
  7 33  1  0
  8 34  1  0
 10 35  1  0
 13 36  1  0
 14 37  1  0
 20 38  1  0
 21 39  1  0
 22 40  1  0
 23 41  1  0
M  ISO  8  25  13  26  13  27  13  28  13  29  13  30  13  31  13  32  13
M  ISO  8  33  14  34  14  35  14  36  14  37  14  38  14  39  14  40  14
M  ISO  1  41  14
M  END
>  <minimizedAffinity>  (1) 
-4.51068687

>  <minimizedRMSD>  (1) 
0.287703604

$$$$
