
     RDKit          3D

 39 42  0  0  1  0  0  0  0  0999 V2000
   37.3900   26.4760   40.2110 C   0  0  1  0  0  0  0  0  0  0  0  0
   37.2530   26.0160   41.6700 C   0  0  1  0  0  0  0  0  0  0  0  0
   36.8690   24.5690   41.5610 C   0  0  0  0  0  0  0  0  0  0  0  0
   36.7570   24.2620   40.0710 C   0  0  0  0  0  0  0  0  0  0  0  0
   36.3670   25.6570   39.5320 C   0  0  0  0  0  0  0  0  0  0  0  0
   37.1980   27.9230   40.1560 C   0  0  0  0  0  0  0  0  0  0  0  0
   36.0850   28.4530   40.8390 C   0  0  0  0  0  0  0  0  0  0  0  0
   35.8650   29.8410   40.8110 C   0  0  0  0  0  0  0  0  0  0  0  0
   36.7760   30.5930   40.1010 N   0  0  0  0  0  0  0  0  0  0  0  0
   37.8260   30.0350   39.4640 C   0  0  0  0  0  0  0  0  0  0  0  0
   38.0330   28.7190   39.4920 N   0  0  0  0  0  0  0  0  0  0  0  0
   38.5880   26.1990   42.3120 C   0  0  0  0  0  0  0  0  0  0  0  0
   38.7840   26.7560   43.5360 C   0  0  0  0  0  0  0  0  0  0  0  0
   40.0160   26.9320   44.1190 C   0  0  0  0  0  0  0  0  0  0  0  0
   41.1060   26.5080   43.3930 N   0  0  0  0  0  0  0  0  0  0  0  0
   40.9390   25.9520   42.1760 C   0  0  0  0  0  0  0  0  0  0  0  0
   39.7100   25.7940   41.6320 N   0  0  0  0  0  0  0  0  0  0  0  0
   42.4200   25.4530   41.3220 S   0  0  0  0  0  0  0  0  0  0  0  0
   45.4250   26.0400   43.8240 N   0  0  0  0  0  0  0  0  0  0  0  0
   44.3980   25.3080   43.4260 N   0  0  0  0  0  0  0  0  0  0  0  0
   43.8210   25.9010   42.3390 C   0  0  0  0  0  0  0  0  0  0  0  0
   44.5520   27.0620   42.0710 C   0  0  0  0  0  0  0  0  0  0  0  0
   45.5700   27.1360   43.0260 C   0  0  0  0  0  0  0  0  0  0  0  0
   38.3672   26.3303   39.7274 H   0  0  0  0  0  0  0  0  0  0  0  0
   36.5142   26.5661   42.2714 H   0  0  0  0  0  0  0  0  0  0  0  0
   37.6405   23.9352   42.0227 H   0  0  0  0  0  0  0  0  0  0  0  0
   35.9205   24.3688   42.0809 H   0  0  0  0  0  0  0  0  0  0  0  0
   37.7143   23.9170   39.6532 H   0  0  0  0  0  0  0  0  0  0  0  0
   36.0521   23.4563   39.8179 H   0  0  0  0  0  0  0  0  0  0  0  0
   36.4566   25.7135   38.4371 H   0  0  0  0  0  0  0  0  0  0  0  0
   35.3259   25.9574   39.7211 H   0  0  0  0  0  0  0  0  0  0  0  0
   35.3985   27.7901   41.3860 H   0  0  0  0  0  0  0  0  0  0  0  0
   35.0110   30.3026   41.3283 H   0  0  0  0  0  0  0  0  0  0  0  0
   38.5251   30.6791   38.9105 H   0  0  0  0  0  0  0  0  0  0  0  0
   37.8980   27.0879   44.0972 H   0  0  0  0  0  0  0  0  0  0  0  0
   40.1254   27.3880   45.1140 H   0  0  0  0  0  0  0  0  0  0  0  0
   46.0311   25.8136   44.6254 H   0  0  0  0  0  0  0  0  0  0  0  0
   44.3619   27.7817   41.2612 H   0  0  0  0  0  0  0  0  0  0  0  0
   46.3350   27.9213   43.1158 H   0  0  0  0  0  0  0  0  0  0  0  0
  1  2  1  0
  2 12  1  0
  3  2  1  0
  4  3  1  0
  5  4  1  0
  5  1  1  0
  6  1  1  0
  6  7  2  0
  8  7  1  0
  9  8  2  0
 10 11  2  0
 10  9  1  0
 11  6  1  0
 12 13  2  0
 13 14  1  0
 15 14  2  0
 16 15  1  0
 17 16  2  0
 17 12  1  0
 18 16  1  0
 18 21  1  0
 20 19  1  0
 21 20  2  0
 22 21  1  0
 22 23  2  0
 23 19  1  0
  1 24  1  6
  2 25  1  1
  3 26  1  0
  3 27  1  0
  4 28  1  0
  4 29  1  0
  5 30  1  0
  5 31  1  0
  7 32  1  0
  8 33  1  0
 10 34  1  0
 13 35  1  0
 14 36  1  0
 19 37  1  0
 22 38  1  0
 23 39  1  0
M  ISO  8  24  13  25  13  26  13  27  13  28  13  29  13  30  13  31  13
M  ISO  8  32  14  33  14  34  14  35  14  36  14  37   9  38  14  39  14
M  END
>  <minimizedAffinity>  (1) 
-4.43149281

>  <minimizedRMSD>  (1) 
0.487934649

$$$$
