
     RDKit          3D

 39 42  0  0  1  0  0  0  0  0999 V2000
   37.5720   26.7170   40.4550 C   0  0  1  0  0  0  0  0  0  0  0  0
   37.5250   26.2240   41.9110 C   0  0  1  0  0  0  0  0  0  0  0  0
   37.0450   24.8080   41.8020 C   0  0  0  0  0  0  0  0  0  0  0  0
   36.7820   24.5480   40.3150 C   0  0  0  0  0  0  0  0  0  0  0  0
   36.4270   25.9800   39.8580 C   0  0  0  0  0  0  0  0  0  0  0  0
   37.4700   28.1700   40.4570 C   0  0  0  0  0  0  0  0  0  0  0  0
   36.3010   28.7450   40.9940 C   0  0  0  0  0  0  0  0  0  0  0  0
   36.1680   30.1450   41.0110 C   0  0  0  0  0  0  0  0  0  0  0  0
   37.2220   30.8660   40.4860 N   0  0  0  0  0  0  0  0  0  0  0  0
   38.3240   30.2690   39.9810 C   0  0  0  0  0  0  0  0  0  0  0  0
   38.4490   28.9350   39.9650 N   0  0  0  0  0  0  0  0  0  0  0  0
   38.9310   26.2990   42.4310 C   0  0  0  0  0  0  0  0  0  0  0  0
   39.2640   26.7150   43.6830 C   0  0  0  0  0  0  0  0  0  0  0  0
   40.5620   26.7890   44.1510 C   0  0  0  0  0  0  0  0  0  0  0  0
   41.5550   26.4140   43.2750 N   0  0  0  0  0  0  0  0  0  0  0  0
   41.2380   26.0060   42.0430 C   0  0  0  0  0  0  0  0  0  0  0  0
   39.9630   25.9430   41.6150 N   0  0  0  0  0  0  0  0  0  0  0  0
   42.6200   25.5500   40.9940 S   0  0  0  0  0  0  0  0  0  0  0  0
   42.8550   26.9430   39.8690 C   0  0  0  0  0  0  0  0  0  0  0  0
   43.6060   27.2800   38.7440 C   0  0  0  0  0  0  0  0  0  0  0  0
   43.2510   28.5370   38.4250 N   0  0  0  0  0  0  0  0  0  0  0  0
   42.3230   28.9950   39.2910 C   0  0  0  0  0  0  0  0  0  0  0  0
   42.0710   28.0030   40.1950 N   0  0  0  0  0  0  0  0  0  0  0  0
   38.4895   26.5260   39.8790 H   0  0  0  0  0  0  0  0  0  0  0  0
   36.8755   26.8001   42.5865 H   0  0  0  0  0  0  0  0  0  0  0  0
   37.8136   24.1167   42.1780 H   0  0  0  0  0  0  0  0  0  0  0  0
   36.1347   24.6507   42.3992 H   0  0  0  0  0  0  0  0  0  0  0  0
   37.6764   24.1646   39.8021 H   0  0  0  0  0  0  0  0  0  0  0  0
   36.0154   23.7881   40.1035 H   0  0  0  0  0  0  0  0  0  0  0  0
   36.4084   26.0685   38.7617 H   0  0  0  0  0  0  0  0  0  0  0  0
   35.4312   26.3356   40.1611 H   0  0  0  0  0  0  0  0  0  0  0  0
   35.5010   28.1057   41.3956 H   0  0  0  0  0  0  0  0  0  0  0  0
   35.2738   30.6382   41.4199 H   0  0  0  0  0  0  0  0  0  0  0  0
   39.1352   30.8909   39.5747 H   0  0  0  0  0  0  0  0  0  0  0  0
   38.4514   27.0100   44.3632 H   0  0  0  0  0  0  0  0  0  0  0  0
   40.7900   27.1302   45.1716 H   0  0  0  0  0  0  0  0  0  0  0  0
   44.3395   26.6467   38.2234 H   0  0  0  0  0  0  0  0  0  0  0  0
   41.8535   29.9896   39.2721 H   0  0  0  0  0  0  0  0  0  0  0  0
   41.4071   28.0501   40.9811 H   0  0  0  0  0  0  0  0  0  0  0  0
  1  6  1  0
  1  2  1  0
  2 12  1  0
  3  2  1  0
  4  3  1  0
  5  4  1  0
  5  1  1  0
  6  7  2  0
  7  8  1  0
  9  8  2  0
 10  9  1  0
 11 10  2  0
 11  6  1  0
 12 13  2  0
 13 14  1  0
 15 14  2  0
 16 15  1  0
 17 16  2  0
 17 12  1  0
 18 16  1  0
 19 23  1  0
 19 18  1  0
 20 19  2  0
 21 20  1  0
 21 22  2  0
 22 23  1  0
  1 24  1  6
  2 25  1  1
  3 26  1  0
  3 27  1  0
  4 28  1  0
  4 29  1  0
  5 30  1  0
  5 31  1  0
  7 32  1  0
  8 33  1  0
 10 34  1  0
 13 35  1  0
 14 36  1  0
 20 37  1  0
 22 38  1  0
 23 39  1  0
M  ISO  8  24  13  25  13  26  13  27  13  28  13  29  13  30  13  31  13
M  ISO  8  32  14  33  14  34  14  35  14  36  14  37  14  38  14  39   9
M  END
>  <minimizedAffinity>  (1) 
-4.32232571

>  <minimizedRMSD>  (1) 
0.753747821

$$$$
