
     RDKit          3D

 39 42  0  0  1  0  0  0  0  0999 V2000
   37.4330   26.5980   40.2780 C   0  0  1  0  0  0  0  0  0  0  0  0
   37.3250   26.1100   41.7300 C   0  0  1  0  0  0  0  0  0  0  0  0
   36.9030   24.6760   41.6020 C   0  0  0  0  0  0  0  0  0  0  0  0
   36.7330   24.4030   40.1040 C   0  0  0  0  0  0  0  0  0  0  0  0
   36.3550   25.8200   39.6190 C   0  0  0  0  0  0  0  0  0  0  0  0
   37.2790   28.0470   40.2620 C   0  0  0  0  0  0  0  0  0  0  0  0
   36.1020   28.5820   40.8020 C   0  0  0  0  0  0  0  0  0  0  0  0
   35.9080   29.9770   40.8120 C   0  0  0  0  0  0  0  0  0  0  0  0
   36.9330   30.7330   40.2680 N   0  0  0  0  0  0  0  0  0  0  0  0
   38.0420   30.1680   39.7640 C   0  0  0  0  0  0  0  0  0  0  0  0
   38.2200   28.8440   39.7570 N   0  0  0  0  0  0  0  0  0  0  0  0
   38.6960   26.2340   42.3220 C   0  0  0  0  0  0  0  0  0  0  0  0
   38.9570   26.7330   43.5620 C   0  0  0  0  0  0  0  0  0  0  0  0
   40.2240   26.8550   44.0980 C   0  0  0  0  0  0  0  0  0  0  0  0
   41.2630   26.4380   43.3100 N   0  0  0  0  0  0  0  0  0  0  0  0
   41.0250   25.9430   42.0830 C   0  0  0  0  0  0  0  0  0  0  0  0
   39.7840   25.8390   41.5950 N   0  0  0  0  0  0  0  0  0  0  0  0
   42.4660   25.4390   41.1560 S   0  0  0  0  0  0  0  0  0  0  0  0
   43.9370   26.2470   41.7560 C   0  0  0  0  0  0  0  0  0  0  0  0
   45.2620   25.5430   41.3940 C   0  0  0  0  0  0  0  0  0  0  0  0
   44.7910   25.6490   42.8090 C   0  0  0  0  0  0  0  0  0  0  0  0
   38.3891   26.4367   39.7585 H   0  0  0  0  0  0  0  0  0  0  0  0
   36.6205   26.6657   42.3663 H   0  0  0  0  0  0  0  0  0  0  0  0
   37.6739   24.0142   42.0235 H   0  0  0  0  0  0  0  0  0  0  0  0
   35.9675   24.4870   42.1488 H   0  0  0  0  0  0  0  0  0  0  0  0
   37.6675   24.0491   39.6442 H   0  0  0  0  0  0  0  0  0  0  0  0
   36.0055   23.6166   39.8543 H   0  0  0  0  0  0  0  0  0  0  0  0
   36.3989   25.9043   38.5231 H   0  0  0  0  0  0  0  0  0  0  0  0
   35.3308   26.1405   39.8602 H   0  0  0  0  0  0  0  0  0  0  0  0
   35.3321   27.9148   41.2167 H   0  0  0  0  0  0  0  0  0  0  0  0
   34.9989   30.4374   41.2261 H   0  0  0  0  0  0  0  0  0  0  0  0
   38.8270   30.8144   39.3445 H   0  0  0  0  0  0  0  0  0  0  0  0
   38.1045   27.0596   44.1757 H   0  0  0  0  0  0  0  0  0  0  0  0
   40.3896   27.2656   45.1050 H   0  0  0  0  0  0  0  0  0  0  0  0
   43.4760   27.2402   41.6505 H   0  0  0  0  0  0  0  0  0  0  0  0
   45.2509   24.5721   40.8771 H   0  0  0  0  0  0  0  0  0  0  0  0
   46.1751   25.8174   40.8454 H   0  0  0  0  0  0  0  0  0  0  0  0
   45.3259   26.3047   43.5117 H   0  0  0  0  0  0  0  0  0  0  0  0
   44.6137   24.9174   43.6111 H   0  0  0  0  0  0  0  0  0  0  0  0
  1  2  1  0
  2 12  1  0
  3  2  1  0
  4  3  1  0
  5  4  1  0
  5  1  1  0
  6  1  1  0
  6  7  2  0
  7  8  1  0
  9  8  2  0
 10  9  1  0
 11 10  2  0
 11  6  1  0
 12 13  2  0
 13 14  1  0
 15 14  2  0
 16 15  1  0
 17 16  2  0
 17 12  1  0
 18 19  1  0
 18 16  1  0
 19 21  1  0
 20 19  1  0
 20 21  1  0
  1 22  1  6
  2 23  1  1
  3 24  1  0
  3 25  1  0
  4 26  1  0
  4 27  1  0
  5 28  1  0
  5 29  1  0
  7 30  1  0
  8 31  1  0
 10 32  1  0
 13 33  1  0
 14 34  1  0
 19 35  1  0
 20 36  1  0
 20 37  1  0
 21 38  1  0
 21 39  1  0
M  ISO  8  22  13  23  13  24  13  25  13  26  13  27  13  28  13  29  13
M  ISO  8  30  14  31  14  32  14  33  14  34  14  35  13  36  13  37  13
M  ISO  2  38  13  39  13
M  END
>  <minimizedAffinity>  (1) 
-4.25542688

>  <minimizedRMSD>  (1) 
0.292692095

$$$$
