
     RDKit          3D

 38 40  0  0  1  0  0  0  0  0999 V2000
   37.4330   26.5980   40.2630 C   0  0  1  0  0  0  0  0  0  0  0  0
   37.3280   26.1070   41.7120 C   0  0  1  0  0  0  0  0  0  0  0  0
   36.9040   24.6750   41.5870 C   0  0  0  0  0  0  0  0  0  0  0  0
   36.7340   24.4130   40.0850 C   0  0  0  0  0  0  0  0  0  0  0  0
   36.3460   25.8270   39.6110 C   0  0  0  0  0  0  0  0  0  0  0  0
   37.2820   28.0530   40.2520 C   0  0  0  0  0  0  0  0  0  0  0  0
   36.1030   28.5850   40.8070 C   0  0  0  0  0  0  0  0  0  0  0  0
   35.9170   29.9790   40.8190 C   0  0  0  0  0  0  0  0  0  0  0  0
   36.9200   30.7330   40.2760 N   0  0  0  0  0  0  0  0  0  0  0  0
   38.0370   30.1770   39.7530 C   0  0  0  0  0  0  0  0  0  0  0  0
   38.2060   28.8570   39.7450 N   0  0  0  0  0  0  0  0  0  0  0  0
   38.6980   26.2390   42.3130 C   0  0  0  0  0  0  0  0  0  0  0  0
   38.9410   26.7350   43.5550 C   0  0  0  0  0  0  0  0  0  0  0  0
   40.2120   26.8570   44.0930 C   0  0  0  0  0  0  0  0  0  0  0  0
   41.2640   26.4430   43.3030 N   0  0  0  0  0  0  0  0  0  0  0  0
   41.0190   25.9570   42.0820 C   0  0  0  0  0  0  0  0  0  0  0  0
   39.7820   25.8450   41.5750 N   0  0  0  0  0  0  0  0  0  0  0  0
   42.4630   25.4510   41.1450 S   0  0  0  0  0  0  0  0  0  0  0  0
   43.9740   25.8660   42.0110 C   0  0  0  0  0  0  0  0  0  0  0  0
   45.2370   25.5020   41.2910 C   0  0  0  0  0  0  0  0  0  0  0  0
   38.3860   26.4349   39.7383 H   0  0  0  0  0  0  0  0  0  0  0  0
   36.6217   26.6611   42.3478 H   0  0  0  0  0  0  0  0  0  0  0  0
   37.6741   24.0106   42.0060 H   0  0  0  0  0  0  0  0  0  0  0  0
   35.9714   24.4818   42.1374 H   0  0  0  0  0  0  0  0  0  0  0  0
   37.6706   24.0694   39.6216 H   0  0  0  0  0  0  0  0  0  0  0  0
   36.0114   23.6237   39.8305 H   0  0  0  0  0  0  0  0  0  0  0  0
   36.3766   25.9173   38.5151 H   0  0  0  0  0  0  0  0  0  0  0  0
   35.3238   26.1459   39.8626 H   0  0  0  0  0  0  0  0  0  0  0  0
   35.3356   27.9179   41.2267 H   0  0  0  0  0  0  0  0  0  0  0  0
   35.0120   30.4386   41.2430 H   0  0  0  0  0  0  0  0  0  0  0  0
   38.8171   30.8257   39.3280 H   0  0  0  0  0  0  0  0  0  0  0  0
   38.0838   27.0563   44.1649 H   0  0  0  0  0  0  0  0  0  0  0  0
   40.3742   27.2645   45.1018 H   0  0  0  0  0  0  0  0  0  0  0  0
   43.9808   26.9523   42.1841 H   0  0  0  0  0  0  0  0  0  0  0  0
   43.9683   25.2759   42.9393 H   0  0  0  0  0  0  0  0  0  0  0  0
   46.0248   25.2750   42.0244 H   0  0  0  0  0  0  0  0  0  0  0  0
   45.0579   24.6189   40.6601 H   0  0  0  0  0  0  0  0  0  0  0  0
   45.5554   26.3450   40.6601 H   0  0  0  0  0  0  0  0  0  0  0  0
  1  2  1  0
  2 12  1  0
  3  2  1  0
  4  3  1  0
  5  4  1  0
  5  1  1  0
  6  1  1  0
  6  7  2  0
  7  8  1  0
  9  8  2  0
 10  9  1  0
 11 10  2  0
 11  6  1  0
 12 13  2  0
 13 14  1  0
 15 14  2  0
 16 15  1  0
 17 16  2  0
 17 12  1  0
 18 19  1  0
 18 16  1  0
 20 19  1  0
  1 21  1  6
  2 22  1  1
  3 23  1  0
  3 24  1  0
  4 25  1  0
  4 26  1  0
  5 27  1  0
  5 28  1  0
  7 29  1  0
  8 30  1  0
 10 31  1  0
 13 32  1  0
 14 33  1  0
 19 34  1  0
 19 35  1  0
 20 36  1  0
 20 37  1  0
 20 38  1  0
M  ISO  8  21  13  22  13  23  13  24  13  25  13  26  13  27  13  28  13
M  ISO  8  29  14  30  14  31  14  32  14  33  14  34   8  35   8  36   8
M  ISO  2  37   8  38   8
M  END
>  <minimizedAffinity>  (1) 
-4.15339184

>  <minimizedRMSD>  (1) 
0.0412633009

$$$$
