
     RDKit          3D

 27 29  0  0  0  0  0  0  0  0999 V2000
   37.9670   27.7860   43.1430 C   0  0  0  0  0  0  0  0  0  0  0  0
   39.0280   26.9640   43.5780 C   0  0  0  0  0  0  0  0  0  0  0  0
   40.3190   27.4830   43.4370 C   0  0  0  0  0  0  0  0  0  0  0  0
   40.4690   28.7220   42.9000 N   0  0  0  0  0  0  0  0  0  0  0  0
   39.4290   29.4690   42.5000 C   0  0  0  0  0  0  0  0  0  0  0  0
   38.1640   29.0090   42.6170 N   0  0  0  0  0  0  0  0  0  0  0  0
   39.7070   30.7860   41.9380 C   0  0  0  0  0  0  0  0  0  0  0  0
   40.9050   31.4480   42.0970 C   0  0  0  0  0  0  0  0  0  0  0  0
   40.7910   32.6220   41.4440 N   0  0  0  0  0  0  0  0  0  0  0  0
   39.5710   32.7200   40.8850 C   0  0  0  0  0  0  0  0  0  0  0  0
   38.9780   33.7020   40.1330 C   0  0  0  0  0  0  0  0  0  0  0  0
   37.6760   33.5010   39.6940 C   0  0  0  0  0  0  0  0  0  0  0  0
   36.9660   32.3550   39.9890 C   0  0  0  0  0  0  0  0  0  0  0  0
   37.5430   31.3360   40.7530 C   0  0  0  0  0  0  0  0  0  0  0  0
   38.8500   31.5750   41.1740 C   0  0  0  0  0  0  0  0  0  0  0  0
   36.5660   27.2790   43.2720 C   0  0  0  0  0  0  0  0  0  0  0  0
   36.0550   27.4960   44.5200 F   0  0  0  0  0  0  0  0  0  0  0  0
   36.5120   25.9280   42.9530 F   0  0  0  0  0  0  0  0  0  0  0  0
   35.7770   27.9760   42.3470 F   0  0  0  0  0  0  0  0  0  0  0  0
   38.8491   25.9666   44.0059 H   0  0  0  0  0  0  0  0  0  0  0  0
   41.1958   26.8996   43.7546 H   0  0  0  0  0  0  0  0  0  0  0  0
   41.7850   31.0879   42.6502 H   0  0  0  0  0  0  0  0  0  0  0  0
   41.5288   33.3381   41.3822 H   0  0  0  0  0  0  0  0  0  0  0  0
   39.5204   34.6259   39.8838 H   0  0  0  0  0  0  0  0  0  0  0  0
   37.1934   34.2831   39.0896 H   0  0  0  0  0  0  0  0  0  0  0  0
   35.9361   32.2421   39.6195 H   0  0  0  0  0  0  0  0  0  0  0  0
   37.0034   30.4109   41.0041 H   0  0  0  0  0  0  0  0  0  0  0  0
  1 16  1  0
  1  2  2  0
  3  2  1  0
  4  3  2  0
  5  6  2  0
  5  4  1  0
  6  1  1  0
  7  8  2  0
  7  5  1  0
  9  8  1  0
 10 15  2  0
 10  9  1  0
 11 10  1  0
 12 13  1  0
 12 11  2  0
 13 14  2  0
 14 15  1  0
 15  7  1  0
 16 17  1  0
 18 16  1  0
 19 16  1  0
  2 20  1  0
  3 21  1  0
  8 22  1  0
  9 23  1  0
 11 24  1  0
 12 25  1  0
 13 26  1  0
 14 27  1  0
M  ISO  8  20  14  21  14  22  14  23   9  24  14  25  14  26  14  27  14
M  END
>  <minimizedAffinity>  (1) 
-6.27571106

>  <minimizedRMSD>  (1) 
5.59807539

$$$$
