
     RDKit          3D

 29 31  0  0  0  0  0  0  0  0999 V2000
   37.3260   28.4370   42.5980 C   0  0  0  0  0  0  0  0  0  0  0  0
   38.2660   29.4350   42.8390 C   0  0  0  0  0  0  0  0  0  0  0  0
   38.3970   30.4370   41.8800 C   0  0  0  0  0  0  0  0  0  0  0  0
   37.6120   30.3810   40.7850 N   0  0  0  0  0  0  0  0  0  0  0  0
   36.7130   29.4260   40.5560 C   0  0  0  0  0  0  0  0  0  0  0  0
   36.5980   28.4660   41.4870 N   0  0  0  0  0  0  0  0  0  0  0  0
   35.8030   29.2220   39.4330 C   0  0  0  0  0  0  0  0  0  0  0  0
   34.4130   29.2450   39.5630 C   0  0  0  0  0  0  0  0  0  0  0  0
   33.5310   29.0580   38.5340 C   0  0  0  0  0  0  0  0  0  0  0  0
   34.0070   28.8280   37.2650 C   0  0  0  0  0  0  0  0  0  0  0  0
   35.3640   28.7910   37.0570 C   0  0  0  0  0  0  0  0  0  0  0  0
   35.8120   28.5570   35.7760 C   0  0  0  0  0  0  0  0  0  0  0  0
   37.1580   28.5070   35.5060 C   0  0  0  0  0  0  0  0  0  0  0  0
   38.0230   28.7020   36.5750 C   0  0  0  0  0  0  0  0  0  0  0  0
   37.5260   28.9300   37.8260 C   0  0  0  0  0  0  0  0  0  0  0  0
   36.1910   28.9880   38.1360 C   0  0  0  0  0  0  0  0  0  0  0  0
   37.1270   27.3360   43.5780 C   0  0  0  0  0  0  0  0  0  0  0  0
   36.0540   27.5820   44.4140 F   0  0  0  0  0  0  0  0  0  0  0  0
   38.2860   27.1300   44.3050 F   0  0  0  0  0  0  0  0  0  0  0  0
   36.8140   26.1680   42.8710 F   0  0  0  0  0  0  0  0  0  0  0  0
   38.8812   29.4326   43.7509 H   0  0  0  0  0  0  0  0  0  0  0  0
   39.1224   31.2532   42.0127 H   0  0  0  0  0  0  0  0  0  0  0  0
   33.9971   29.4266   40.5650 H   0  0  0  0  0  0  0  0  0  0  0  0
   32.4475   29.0915   38.7209 H   0  0  0  0  0  0  0  0  0  0  0  0
   33.3104   28.6756   36.4275 H   0  0  0  0  0  0  0  0  0  0  0  0
   35.0864   28.4090   34.9626 H   0  0  0  0  0  0  0  0  0  0  0  0
   37.5338   28.3209   34.4891 H   0  0  0  0  0  0  0  0  0  0  0  0
   39.1107   28.6727   36.4134 H   0  0  0  0  0  0  0  0  0  0  0  0
   38.2473   29.0777   38.6433 H   0  0  0  0  0  0  0  0  0  0  0  0
  1  2  2  0
  1 17  1  0
  3  2  1  0
  4  3  2  0
  5  4  1  0
  5  6  2  0
  6  1  1  0
  7  8  2  0
  7  5  1  0
  9  8  1  0
 10  9  2  0
 11 10  1  0
 11 16  2  0
 12 11  1  0
 13 12  2  0
 13 14  1  0
 14 15  2  0
 15 16  1  0
 16  7  1  0
 17 19  1  0
 17 18  1  0
 20 17  1  0
  2 21  1  0
  3 22  1  0
  8 23  1  0
  9 24  1  0
 10 25  1  0
 12 26  1  0
 13 27  1  0
 14 28  1  0
 15 29  1  0
M  ISO  8  21  14  22  14  23  14  24  14  25  14  26  14  27  14  28  14
M  ISO  1  29  14
M  END
>  <minimizedAffinity>  (1) 
-5.72651243

>  <minimizedRMSD>  (1) 
1.41551304

$$$$
