
     RDKit          3D

 23 24  0  0  0  0  0  0  0  0999 V2000
   37.4690   28.7640   42.9450 C   0  0  0  0  0  0  0  0  0  0  0  0
   38.5560   29.6470   42.9970 C   0  0  0  0  0  0  0  0  0  0  0  0
   38.8040   30.4460   41.8850 C   0  0  0  0  0  0  0  0  0  0  0  0
   37.9700   30.3240   40.8070 N   0  0  0  0  0  0  0  0  0  0  0  0
   36.9400   29.4680   40.7920 C   0  0  0  0  0  0  0  0  0  0  0  0
   36.6790   28.6810   41.8610 N   0  0  0  0  0  0  0  0  0  0  0  0
   36.0590   29.3560   39.6170 C   0  0  0  0  0  0  0  0  0  0  0  0
   36.6090   29.5290   38.3630 C   0  0  0  0  0  0  0  0  0  0  0  0
   35.7900   29.4260   37.2520 C   0  0  0  0  0  0  0  0  0  0  0  0
   34.4490   29.1550   37.4370 C   0  0  0  0  0  0  0  0  0  0  0  0
   33.8690   28.9780   38.6760 C   0  0  0  0  0  0  0  0  0  0  0  0
   34.7030   29.0850   39.7690 C   0  0  0  0  0  0  0  0  0  0  0  0
   37.1590   27.8850   44.1070 C   0  0  0  0  0  0  0  0  0  0  0  0
   36.7220   28.5990   45.1820 F   0  0  0  0  0  0  0  0  0  0  0  0
   38.2860   27.1280   44.4330 F   0  0  0  0  0  0  0  0  0  0  0  0
   36.1500   26.9980   43.7170 F   0  0  0  0  0  0  0  0  0  0  0  0
   39.1945   29.7067   43.8907 H   0  0  0  0  0  0  0  0  0  0  0  0
   39.6453   31.1545   41.8729 H   0  0  0  0  0  0  0  0  0  0  0  0
   37.6814   29.7453   38.2483 H   0  0  0  0  0  0  0  0  0  0  0  0
   36.2002   29.5577   36.2399 H   0  0  0  0  0  0  0  0  0  0  0  0
   33.8074   29.0758   36.5470 H   0  0  0  0  0  0  0  0  0  0  0  0
   32.7960   28.7625   38.7865 H   0  0  0  0  0  0  0  0  0  0  0  0
   34.2885   28.9537   40.7794 H   0  0  0  0  0  0  0  0  0  0  0  0
  1  2  2  0
  1 13  1  0
  3  2  1  0
  4  3  2  0
  5  4  1  0
  5  6  2  0
  6  1  1  0
  7 12  1  0
  7  5  1  0
  8  7  2  0
  9 10  2  0
  9  8  1  0
 10 11  1  0
 11 12  2  0
 13 15  1  0
 13 14  1  0
 16 13  1  0
  2 17  1  0
  3 18  1  0
  8 19  1  0
  9 20  1  0
 10 21  1  0
 11 22  1  0
 12 23  1  0
M  ISO  7  17  14  18  14  19  14  20  14  21  14  22  14  23  14
M  END
>  <minimizedAffinity>  (1) 
-5.53783178

>  <minimizedRMSD>  (1) 
1.36494219

$$$$
