
     RDKit          3D

 20 21  0  0  0  0  0  0  0  0999 V2000
   37.4460   28.7340   42.9370 C   0  0  0  0  0  0  0  0  0  0  0  0
   38.5310   29.6190   42.9790 C   0  0  0  0  0  0  0  0  0  0  0  0
   38.7670   30.4110   41.8650 C   0  0  0  0  0  0  0  0  0  0  0  0
   37.9370   30.2860   40.7980 N   0  0  0  0  0  0  0  0  0  0  0  0
   36.9000   29.4250   40.7860 C   0  0  0  0  0  0  0  0  0  0  0  0
   36.6420   28.6380   41.8560 N   0  0  0  0  0  0  0  0  0  0  0  0
   36.0240   29.3120   39.6210 C   0  0  0  0  0  0  0  0  0  0  0  0
   34.6610   29.0550   39.8140 C   0  0  0  0  0  0  0  0  0  0  0  0
   34.0790   29.0000   38.5510 C   0  0  0  0  0  0  0  0  0  0  0  0
   35.1330   29.2290   37.6590 C   0  0  0  0  0  0  0  0  0  0  0  0
   36.2300   29.4030   38.3270 O   0  0  0  0  0  0  0  0  0  0  0  0
   37.1490   27.8580   44.1150 C   0  0  0  0  0  0  0  0  0  0  0  0
   36.7240   28.6070   45.1930 F   0  0  0  0  0  0  0  0  0  0  0  0
   38.2930   27.1320   44.4570 F   0  0  0  0  0  0  0  0  0  0  0  0
   36.1390   26.9850   43.7580 F   0  0  0  0  0  0  0  0  0  0  0  0
   39.1758   29.6839   43.8678 H   0  0  0  0  0  0  0  0  0  0  0  0
   39.6057   31.1225   41.8466 H   0  0  0  0  0  0  0  0  0  0  0  0
   34.1489   28.9221   40.7784 H   0  0  0  0  0  0  0  0  0  0  0  0
   33.0221   28.8167   38.3072 H   0  0  0  0  0  0  0  0  0  0  0  0
   35.0443   29.2569   36.5629 H   0  0  0  0  0  0  0  0  0  0  0  0
  1  2  2  0
  1 12  1  0
  3  2  1  0
  4  3  2  0
  5  4  1  0
  5  6  2  0
  6  1  1  0
  7  8  2  0
  7  5  1  0
  9  8  1  0
 10 11  1  0
 10  9  2  0
 11  7  1  0
 12 14  1  0
 12 13  1  0
 15 12  1  0
  2 16  1  0
  3 17  1  0
  8 18  1  0
  9 19  1  0
 10 20  1  0
M  ISO  5  16  14  17  14  18  14  19  14  20  14
M  END
>  <minimizedAffinity>  (1) 
-4.98979235

>  <minimizedRMSD>  (1) 
1.25997615

$$$$
