
     RDKit          3D

 20 20  0  0  0  0  0  0  0  0999 V2000
   37.5110   30.0780   41.3650 C   0  0  0  0  0  0  0  0  0  0  0  0
   38.2720   29.3700   42.3270 C   0  0  0  0  0  0  0  0  0  0  0  0
   39.4170   30.0200   42.8220 C   0  0  0  0  0  0  0  0  0  0  0  0
   39.7100   31.2590   42.3550 N   0  0  0  0  0  0  0  0  0  0  0  0
   38.9500   31.9000   41.4310 C   0  0  0  0  0  0  0  0  0  0  0  0
   37.8440   31.3050   40.9330 N   0  0  0  0  0  0  0  0  0  0  0  0
   39.3160   33.1930   40.9880 N   0  0  0  0  0  0  0  0  0  0  0  0
   38.4000   34.0260   40.2720 C   0  0  0  0  0  0  0  0  0  0  0  0
   37.1920   33.6200   40.0680 N   0  0  0  0  0  0  0  0  0  0  0  0
   38.8850   35.3020   39.8040 N   0  0  0  0  0  0  0  0  0  0  0  0
   36.5650   34.2890   39.5300 H   0  0  0  0  0  0  0  0  0  0  0  0
   36.2950   29.4400   40.8070 C   0  0  0  0  0  0  0  0  0  0  0  0
   35.3320   30.3460   40.4910 F   0  0  0  0  0  0  0  0  0  0  0  0
   35.7880   28.4880   41.7040 F   0  0  0  0  0  0  0  0  0  0  0  0
   36.6620   28.7460   39.6470 F   0  0  0  0  0  0  0  0  0  0  0  0
   37.9830   28.3652   42.6689 H   0  0  0  0  0  0  0  0  0  0  0  0
   40.0601   29.5344   43.5708 H   0  0  0  0  0  0  0  0  0  0  0  0
   40.2645   33.5426   41.1858 H   0  0  0  0  0  0  0  0  0  0  0  0
   38.2577   35.9322   39.2842 H   0  0  0  0  0  0  0  0  0  0  0  0
   39.8585   35.5825   39.9898 H   0  0  0  0  0  0  0  0  0  0  0  0
  1  2  2  0
  2  3  1  0
  4  3  2  0
  5  4  1  0
  6  1  1  0
  6  5  2  0
  7  5  1  0
  8  7  1  0
  9  8  2  0
 10  8  1  0
 11  9  1  0
 12  1  1  0
 12 14  1  0
 13 12  1  0
 15 12  1  0
  2 16  1  0
  3 17  1  0
  7 18  1  0
 10 19  1  0
 10 20  1  0
M  ISO  2  16  14  17  14
M  END
>  <minimizedAffinity>  (1) 
-4.96482182

>  <minimizedRMSD>  (1) 
4.92399931

$$$$
