
     RDKit          3D

 25 25  0  0  0  0  0  0  0  0999 V2000
   37.4260   28.6950   42.9400 C   0  0  0  0  0  0  0  0  0  0  0  0
   38.4880   29.6130   42.9670 C   0  0  0  0  0  0  0  0  0  0  0  0
   38.7320   30.3810   41.8340 C   0  0  0  0  0  0  0  0  0  0  0  0
   37.9070   30.1900   40.7500 N   0  0  0  0  0  0  0  0  0  0  0  0
   36.9020   29.3070   40.7550 C   0  0  0  0  0  0  0  0  0  0  0  0
   36.6440   28.5430   41.8500 N   0  0  0  0  0  0  0  0  0  0  0  0
   37.1370   27.8530   44.1390 C   0  0  0  0  0  0  0  0  0  0  0  0
   36.7050   28.6000   45.1930 F   0  0  0  0  0  0  0  0  0  0  0  0
   38.2710   27.1160   44.4710 F   0  0  0  0  0  0  0  0  0  0  0  0
   36.1310   26.9480   43.7790 F   0  0  0  0  0  0  0  0  0  0  0  0
   36.0570   29.1550   39.5520 C   0  0  0  0  0  0  0  0  0  0  0  0
   34.5700   29.1860   39.8570 C   0  0  0  0  0  0  0  0  0  0  0  0
   36.3500   30.1750   38.4890 C   0  0  0  0  0  0  0  0  0  0  0  0
   36.2920   27.7920   38.8900 C   0  0  0  0  0  0  0  0  0  0  0  0
   39.1135   29.7222   43.8652 H   0  0  0  0  0  0  0  0  0  0  0  0
   39.5528   31.1128   41.8056 H   0  0  0  0  0  0  0  0  0  0  0  0
   34.4192   29.1891   40.9466 H   0  0  0  0  0  0  0  0  0  0  0  0
   34.1255   30.0936   39.4227 H   0  0  0  0  0  0  0  0  0  0  0  0
   34.0880   28.2977   39.4227 H   0  0  0  0  0  0  0  0  0  0  0  0
   36.6242   31.1294   38.9622 H   0  0  0  0  0  0  0  0  0  0  0  0
   37.1834   29.8233   37.8631 H   0  0  0  0  0  0  0  0  0  0  0  0
   35.4570   30.3193   37.8631 H   0  0  0  0  0  0  0  0  0  0  0  0
   36.4243   27.0248   39.6672 H   0  0  0  0  0  0  0  0  0  0  0  0
   35.4251   27.5341   38.2640 H   0  0  0  0  0  0  0  0  0  0  0  0
   37.1952   27.8393   38.2640 H   0  0  0  0  0  0  0  0  0  0  0  0
  1  2  2  0
  1  7  1  0
  3  2  1  0
  4  5  1  0
  4  3  2  0
  5  6  2  0
  6  1  1  0
  7  9  1  0
  7  8  1  0
 10  7  1  0
 11 12  1  0
 11  5  1  0
 13 11  1  0
 14 11  1  0
  2 15  1  0
  3 16  1  0
 12 17  1  0
 12 18  1  0
 12 19  1  0
 13 20  1  0
 13 21  1  0
 13 22  1  0
 14 23  1  0
 14 24  1  0
 14 25  1  0
M  ISO  8  15  14  16  14  17   8  18   8  19   8  20   8  21   8  22   8
M  ISO  3  23   8  24   8  25   8
M  END
>  <minimizedAffinity>  (1) 
-4.89602327

>  <minimizedRMSD>  (1) 
1.72355843

$$$$
