
     RDKit          3D

 20 21  0  0  0  0  0  0  0  0999 V2000
   37.5040   28.8780   42.9870 C   0  0  0  0  0  0  0  0  0  0  0  0
   38.7000   29.6030   42.9900 C   0  0  0  0  0  0  0  0  0  0  0  0
   38.9030   30.5270   41.9600 C   0  0  0  0  0  0  0  0  0  0  0  0
   37.9180   30.6620   41.0170 N   0  0  0  0  0  0  0  0  0  0  0  0
   36.7800   29.9470   41.0470 C   0  0  0  0  0  0  0  0  0  0  0  0
   36.5770   29.0560   42.0340 N   0  0  0  0  0  0  0  0  0  0  0  0
   37.2220   27.8750   44.0580 C   0  0  0  0  0  0  0  0  0  0  0  0
   36.7510   28.4780   45.2050 F   0  0  0  0  0  0  0  0  0  0  0  0
   38.3920   27.1630   44.3480 F   0  0  0  0  0  0  0  0  0  0  0  0
   36.2580   26.9970   43.6000 F   0  0  0  0  0  0  0  0  0  0  0  0
   35.7650   30.1640   39.9740 C   0  0  0  0  0  0  0  0  0  0  0  0
   35.8970   29.1780   38.8420 C   0  0  0  0  0  0  0  0  0  0  0  0
   34.6930   29.1880   39.7140 C   0  0  0  0  0  0  0  0  0  0  0  0
   39.4550   29.4517   43.7755 H   0  0  0  0  0  0  0  0  0  0  0  0
   39.8240   31.1263   41.9085 H   0  0  0  0  0  0  0  0  0  0  0  0
   35.7355   31.2525   40.1295 H   0  0  0  0  0  0  0  0  0  0  0  0
   36.6214   28.3529   38.9090 H   0  0  0  0  0  0  0  0  0  0  0  0
   36.0818   29.2469   37.7598 H   0  0  0  0  0  0  0  0  0  0  0  0
   33.7286   29.5300   39.3103 H   0  0  0  0  0  0  0  0  0  0  0  0
   34.1757   28.4313   40.3221 H   0  0  0  0  0  0  0  0  0  0  0  0
  1  2  2  0
  1  7  1  0
  3  2  1  0
  4  5  1  0
  4  3  2  0
  5  6  2  0
  6  1  1  0
  7  9  1  0
  7  8  1  0
 10  7  1  0
 11  5  1  0
 12 13  1  0
 12 11  1  0
 13 11  1  0
  2 14  1  0
  3 15  1  0
 11 16  1  0
 12 17  1  0
 12 18  1  0
 13 19  1  0
 13 20  1  0
M  ISO  7  14  14  15  14  16  13  17  13  18  13  19  13  20  13
M  END
>  <minimizedAffinity>  (1) 
-4.71241522

>  <minimizedRMSD>  (1) 
1.2029593

$$$$
