
     RDKit          3D

 33 35  0  0  0  0  0  0  0  0999 V2000
   37.4110   28.6850   42.9760 C   0  0  0  0  0  0  0  0  0  0  0  0
   38.4830   29.6100   43.0230 C   0  0  0  0  0  0  0  0  0  0  0  0
   38.7260   30.4110   41.8990 C   0  0  0  0  0  0  0  0  0  0  0  0
   37.9060   30.2420   40.8330 N   0  0  0  0  0  0  0  0  0  0  0  0
   36.8840   29.3420   40.8200 C   0  0  0  0  0  0  0  0  0  0  0  0
   36.6430   28.5690   41.8920 N   0  0  0  0  0  0  0  0  0  0  0  0
   36.0830   29.2490   39.6400 N   0  0  0  0  0  0  0  0  0  0  0  0
   34.7770   29.1150   39.7260 N   0  0  0  0  0  0  0  0  0  0  0  0
   34.2050   29.0440   38.5250 C   0  0  0  0  0  0  0  0  0  0  0  0
   35.2070   29.1390   37.6040 C   0  0  0  0  0  0  0  0  0  0  0  0
   36.3860   29.2670   38.3220 C   0  0  0  0  0  0  0  0  0  0  0  0
   37.7820   29.4090   38.0030 N   0  0  0  0  0  0  0  0  0  0  0  0
   38.6230   28.3580   38.0140 C   0  0  0  0  0  0  0  0  0  0  0  0
   39.9700   28.5550   37.6960 C   0  0  0  0  0  0  0  0  0  0  0  0
   40.8630   27.3740   37.7200 C   0  0  0  0  0  0  0  0  0  0  0  0
   40.3850   29.8260   37.3810 C   0  0  0  0  0  0  0  0  0  0  0  0
   41.5930   30.0140   37.0940 O   0  0  0  0  0  0  0  0  0  0  0  0
   39.5120   30.8570   37.3810 N   0  0  0  0  0  0  0  0  0  0  0  0
   38.2170   30.6620   37.6870 C   0  0  0  0  0  0  0  0  0  0  0  0
   37.3930   31.6130   37.6900 O   0  0  0  0  0  0  0  0  0  0  0  0
   37.1410   27.8330   44.1490 C   0  0  0  0  0  0  0  0  0  0  0  0
   36.6990   28.5600   45.2280 F   0  0  0  0  0  0  0  0  0  0  0  0
   38.2910   27.1010   44.4940 F   0  0  0  0  0  0  0  0  0  0  0  0
   36.1470   26.9250   43.7990 F   0  0  0  0  0  0  0  0  0  0  0  0
   39.1108   29.6976   43.9220 H   0  0  0  0  0  0  0  0  0  0  0  0
   39.5458   31.1443   41.8826 H   0  0  0  0  0  0  0  0  0  0  0  0
   33.1310   28.9306   38.3160 H   0  0  0  0  0  0  0  0  0  0  0  0
   35.1006   29.1182   36.5094 H   0  0  0  0  0  0  0  0  0  0  0  0
   38.2540   27.3540   38.2707 H   0  0  0  0  0  0  0  0  0  0  0  0
   41.0740   27.0950   38.7629 H   0  0  0  0  0  0  0  0  0  0  0  0
   40.3728   26.5332   37.2075 H   0  0  0  0  0  0  0  0  0  0  0  0
   41.8056   27.6166   37.2075 H   0  0  0  0  0  0  0  0  0  0  0  0
   39.8421   31.8034   37.1439 H   0  0  0  0  0  0  0  0  0  0  0  0
  1  2  2  0
  1 21  1  0
  3  2  1  0
  4  3  2  0
  5  4  1  0
  5  6  2  0
  6  1  1  0
  7  8  1  0
  7  5  1  0
  9  8  2  0
 10 11  2  0
 10  9  1  0
 11  7  1  0
 12 13  1  0
 12 11  1  0
 14 15  1  0
 14 13  2  0
 16 18  1  0
 16 14  1  0
 17 16  2  0
 18 19  1  0
 19 20  2  0
 19 12  1  0
 21 23  1  0
 21 22  1  0
 24 21  1  0
  2 25  1  0
  3 26  1  0
  9 27  1  0
 10 28  1  0
 13 29  1  0
 15 30  1  0
 15 31  1  0
 15 32  1  0
 18 33  1  0
M  ISO  8  25  14  26  14  27  14  28  14  29  14  30   8  31   8  32   8
M  ISO  1  33   9
M  END
>  <minimizedAffinity>  (1) 
-6.29128695

>  <minimizedRMSD>  (1) 
0.561253726

$$$$
