
     RDKit          3D

 30 32  0  0  0  0  0  0  0  0999 V2000
   37.3630   28.6420   43.1060 C   0  0  0  0  0  0  0  0  0  0  0  0
   38.4770   29.5170   43.1390 C   0  0  0  0  0  0  0  0  0  0  0  0
   38.7570   30.2670   41.9940 C   0  0  0  0  0  0  0  0  0  0  0  0
   37.9460   30.1100   40.9210 N   0  0  0  0  0  0  0  0  0  0  0  0
   36.8850   29.2650   40.9120 C   0  0  0  0  0  0  0  0  0  0  0  0
   36.6070   28.5370   42.0140 N   0  0  0  0  0  0  0  0  0  0  0  0
   36.0930   29.1680   39.7410 N   0  0  0  0  0  0  0  0  0  0  0  0
   34.7800   29.0870   39.8060 N   0  0  0  0  0  0  0  0  0  0  0  0
   34.2100   29.0030   38.6050 C   0  0  0  0  0  0  0  0  0  0  0  0
   35.2350   29.0310   37.7030 C   0  0  0  0  0  0  0  0  0  0  0  0
   36.3830   29.1340   38.4400 C   0  0  0  0  0  0  0  0  0  0  0  0
   37.7190   29.1970   37.9500 N   0  0  0  0  0  0  0  0  0  0  0  0
   38.3730   28.0060   37.8520 C   0  0  0  0  0  0  0  0  0  0  0  0
   39.6710   27.9070   37.3960 C   0  0  0  0  0  0  0  0  0  0  0  0
   40.3390   29.0420   37.0240 C   0  0  0  0  0  0  0  0  0  0  0  0
   41.5320   28.9910   36.5990 O   0  0  0  0  0  0  0  0  0  0  0  0
   39.6580   30.2000   37.1350 N   0  0  0  0  0  0  0  0  0  0  0  0
   38.3890   30.2780   37.5840 C   0  0  0  0  0  0  0  0  0  0  0  0
   37.7640   31.3700   37.6830 O   0  0  0  0  0  0  0  0  0  0  0  0
   37.0310   27.8270   44.3020 C   0  0  0  0  0  0  0  0  0  0  0  0
   36.6120   28.6260   45.3510 F   0  0  0  0  0  0  0  0  0  0  0  0
   38.1330   27.0770   44.6960 F   0  0  0  0  0  0  0  0  0  0  0  0
   36.0010   26.9680   43.9710 F   0  0  0  0  0  0  0  0  0  0  0  0
   39.1029   29.6032   44.0395 H   0  0  0  0  0  0  0  0  0  0  0  0
   39.6087   30.9625   41.9651 H   0  0  0  0  0  0  0  0  0  0  0  0
   33.1349   28.9268   38.3850 H   0  0  0  0  0  0  0  0  0  0  0  0
   35.1541   28.9809   36.6071 H   0  0  0  0  0  0  0  0  0  0  0  0
   37.8453   27.0874   38.1481 H   0  0  0  0  0  0  0  0  0  0  0  0
   40.1641   26.9258   37.3320 H   0  0  0  0  0  0  0  0  0  0  0  0
   40.1327   31.0724   36.8621 H   0  0  0  0  0  0  0  0  0  0  0  0
  1  2  2  0
  1 20  1  0
  3  2  1  0
  4  3  2  0
  5  4  1  0
  5  6  2  0
  6  1  1  0
  7  8  1  0
  7  5  1  0
  9  8  2  0
 10 11  2  0
 10  9  1  0
 11  7  1  0
 12 11  1  0
 13 12  1  0
 14 13  2  0
 15 17  1  0
 15 14  1  0
 16 15  2  0
 17 18  1  0
 18 19  2  0
 18 12  1  0
 20 22  1  0
 20 21  1  0
 23 20  1  0
  2 24  1  0
  3 25  1  0
  9 26  1  0
 10 27  1  0
 13 28  1  0
 14 29  1  0
 17 30  1  0
M  ISO  7  24  14  25  14  26  14  27  14  28  14  29  14  30   9
M  END
>  <minimizedAffinity>  (1) 
-6.02555084

>  <minimizedRMSD>  (1) 
0.983679354

$$$$
