
     RDKit          3D

 33 35  0  0  0  0  0  0  0  0999 V2000
   37.7510   28.7230   42.8210 C   0  0  0  0  0  0  0  0  0  0  0  0
   38.7150   29.7260   43.1240 C   0  0  0  0  0  0  0  0  0  0  0  0
   39.0130   30.6680   42.1270 C   0  0  0  0  0  0  0  0  0  0  0  0
   38.3600   30.5570   40.9410 N   0  0  0  0  0  0  0  0  0  0  0  0
   37.4440   29.5840   40.6890 C   0  0  0  0  0  0  0  0  0  0  0  0
   37.1540   28.6790   41.6350 N   0  0  0  0  0  0  0  0  0  0  0  0
   36.8250   29.5670   39.4120 N   0  0  0  0  0  0  0  0  0  0  0  0
   35.5210   29.3230   39.3170 N   0  0  0  0  0  0  0  0  0  0  0  0
   35.1240   29.3510   38.0360 C   0  0  0  0  0  0  0  0  0  0  0  0
   36.2250   29.6260   37.2790 C   0  0  0  0  0  0  0  0  0  0  0  0
   37.2600   29.7550   38.1660 C   0  0  0  0  0  0  0  0  0  0  0  0
   41.2840   30.7070   37.3420 C   0  0  0  0  0  0  0  0  0  0  0  0
   40.9140   29.3940   37.4540 C   0  0  0  0  0  0  0  0  0  0  0  0
   39.5920   29.0220   37.7260 C   0  0  0  0  0  0  0  0  0  0  0  0
   38.6620   30.0500   37.8800 C   0  0  0  0  0  0  0  0  0  0  0  0
   39.0230   31.3910   37.7690 C   0  0  0  0  0  0  0  0  0  0  0  0
   40.3370   31.6880   37.5010 C   0  0  0  0  0  0  0  0  0  0  0  0
   42.9500   31.0840   37.0020 S   0  0  0  0  0  0  0  0  0  0  0  0
   43.1630   32.5880   37.0450 O   0  0  0  0  0  0  0  0  0  0  0  0
   43.4050   30.5620   35.6720 O   0  0  0  0  0  0  0  0  0  0  0  0
   37.4170   27.7150   43.8520 C   0  0  0  0  0  0  0  0  0  0  0  0
   36.7780   28.2970   44.9380 F   0  0  0  0  0  0  0  0  0  0  0  0
   38.5670   27.0420   44.2710 F   0  0  0  0  0  0  0  0  0  0  0  0
   36.5400   26.8040   43.2930 F   0  0  0  0  0  0  0  0  0  0  0  0
   39.2094   29.7615   44.1060 H   0  0  0  0  0  0  0  0  0  0  0  0
   39.7487   31.4673   42.2998 H   0  0  0  0  0  0  0  0  0  0  0  0
   34.1020   29.1836   37.6653 H   0  0  0  0  0  0  0  0  0  0  0  0
   36.2716   29.7237   36.1843 H   0  0  0  0  0  0  0  0  0  0  0  0
   41.6754   28.6104   37.3269 H   0  0  0  0  0  0  0  0  0  0  0  0
   39.2996   27.9653   37.8144 H   0  0  0  0  0  0  0  0  0  0  0  0
   38.2766   32.1896   37.8925 H   0  0  0  0  0  0  0  0  0  0  0  0
   40.6391   32.7419   37.4112 H   0  0  0  0  0  0  0  0  0  0  0  0
   43.6974   30.4645   37.9687 H   0  0  0  0  0  0  0  0  0  0  0  0
  1  2  2  0
  1 21  1  0
  3  2  1  0
  4  3  2  0
  5  4  1  0
  5  6  2  0
  6  1  1  0
  7  5  1  0
  8  7  1  0
  9  8  2  0
 10  9  1  0
 10 11  2  0
 11  7  1  0
 12 13  2  0
 12 17  1  0
 13 14  1  0
 14 15  2  0
 15 11  1  0
 16 15  1  0
 17 16  2  0
 18 19  2  0
 18 12  1  0
 20 18  2  0
 21 23  1  0
 21 22  1  0
 24 21  1  0
  2 25  1  0
  3 26  1  0
  9 27  1  0
 10 28  1  0
 13 29  1  0
 14 30  1  0
 16 31  1  0
 17 32  1  0
 18 33  1  0
M  ISO  8  25  14  26  14  27  14  28  14  29  14  30  14  31  14  32  14
M  ISO  1  33  11
M  END
>  <minimizedAffinity>  (1) 
-5.90727329

>  <minimizedRMSD>  (1) 
1.55911243

$$$$
