
     RDKit          3D

 33 36  0  0  0  0  0  0  0  0999 V2000
   37.3750   28.6000   43.1570 C   0  0  0  0  0  0  0  0  0  0  0  0
   38.5300   29.4210   43.1950 C   0  0  0  0  0  0  0  0  0  0  0  0
   38.8540   30.1390   42.0350 C   0  0  0  0  0  0  0  0  0  0  0  0
   38.0380   29.9950   40.9610 N   0  0  0  0  0  0  0  0  0  0  0  0
   36.9400   29.1990   40.9620 C   0  0  0  0  0  0  0  0  0  0  0  0
   36.6140   28.5010   42.0720 N   0  0  0  0  0  0  0  0  0  0  0  0
   36.1620   29.1260   39.7850 N   0  0  0  0  0  0  0  0  0  0  0  0
   34.8430   29.1170   39.8460 N   0  0  0  0  0  0  0  0  0  0  0  0
   34.2680   29.0450   38.6550 C   0  0  0  0  0  0  0  0  0  0  0  0
   35.3000   29.0050   37.7410 C   0  0  0  0  0  0  0  0  0  0  0  0
   36.4540   29.0570   38.4850 C   0  0  0  0  0  0  0  0  0  0  0  0
   37.8160   29.0460   38.0210 N   0  0  0  0  0  0  0  0  0  0  0  0
   38.5380   27.9430   37.6680 C   0  0  0  0  0  0  0  0  0  0  0  0
   39.7810   28.3460   37.2850 N   0  0  0  0  0  0  0  0  0  0  0  0
   39.8290   29.6810   37.4000 C   0  0  0  0  0  0  0  0  0  0  0  0
   40.7510   30.6850   37.1850 C   0  0  0  0  0  0  0  0  0  0  0  0
   40.5160   31.9820   37.3920 N   0  0  0  0  0  0  0  0  0  0  0  0
   39.3210   32.3970   37.8380 C   0  0  0  0  0  0  0  0  0  0  0  0
   38.3880   31.4520   38.0620 N   0  0  0  0  0  0  0  0  0  0  0  0
   38.5970   30.1380   37.8630 C   0  0  0  0  0  0  0  0  0  0  0  0
   42.0360   30.3250   36.7140 N   0  0  0  0  0  0  0  0  0  0  0  0
   37.0120   27.8310   44.3730 C   0  0  0  0  0  0  0  0  0  0  0  0
   36.5950   28.6480   45.3880 F   0  0  0  0  0  0  0  0  0  0  0  0
   38.0910   27.0300   44.7900 F   0  0  0  0  0  0  0  0  0  0  0  0
   35.9710   26.9850   44.0410 F   0  0  0  0  0  0  0  0  0  0  0  0
   39.1494   29.4922   44.1013 H   0  0  0  0  0  0  0  0  0  0  0  0
   39.7367   30.7944   41.9973 H   0  0  0  0  0  0  0  0  0  0  0  0
   33.1896   29.0219   38.4393 H   0  0  0  0  0  0  0  0  0  0  0  0
   35.2167   28.9442   36.6458 H   0  0  0  0  0  0  0  0  0  0  0  0
   38.1769   26.9042   37.6893 H   0  0  0  0  0  0  0  0  0  0  0  0
   39.1122   33.4627   38.0132 H   0  0  0  0  0  0  0  0  0  0  0  0
   42.2622   29.3353   36.5402 H   0  0  0  0  0  0  0  0  0  0  0  0
   42.7451   31.0527   36.5450 H   0  0  0  0  0  0  0  0  0  0  0  0
  1  2  2  0
  1 22  1  0
  3  2  1  0
  4  5  1  0
  4  3  2  0
  5  6  2  0
  6  1  1  0
  7  8  1  0
  7  5  1  0
  9  8  2  0
 10 11  2  0
 10  9  1  0
 11  7  1  0
 12 11  1  0
 13 12  1  0
 14 15  1  0
 14 13  2  0
 15 20  2  0
 16 17  2  0
 16 15  1  0
 17 18  1  0
 18 19  2  0
 20 12  1  0
 20 19  1  0
 21 16  1  0
 22 24  1  0
 22 23  1  0
 25 22  1  0
  2 26  1  0
  3 27  1  0
  9 28  1  0
 10 29  1  0
 13 30  1  0
 18 31  1  0
 21 32  1  0
 21 33  1  0
M  ISO  6  26  14  27  14  28  14  29  14  30  14  31  14
M  END
>  <minimizedAffinity>  (1) 
-5.82338381

>  <minimizedRMSD>  (1) 
0.610456347

$$$$
