
     RDKit          3D

 33 35  0  0  0  0  0  0  0  0999 V2000
   37.3310   28.7380   42.7850 C   0  0  0  0  0  0  0  0  0  0  0  0
   38.3660   29.6900   42.7600 C   0  0  0  0  0  0  0  0  0  0  0  0
   38.4770   30.5100   41.6290 C   0  0  0  0  0  0  0  0  0  0  0  0
   37.5770   30.3320   40.6290 N   0  0  0  0  0  0  0  0  0  0  0  0
   36.5960   29.4120   40.6820 C   0  0  0  0  0  0  0  0  0  0  0  0
   36.4740   28.6140   41.7620 N   0  0  0  0  0  0  0  0  0  0  0  0
   35.6960   29.2930   39.5920 N   0  0  0  0  0  0  0  0  0  0  0  0
   34.4070   29.1050   39.7860 N   0  0  0  0  0  0  0  0  0  0  0  0
   33.7400   29.0180   38.6240 C   0  0  0  0  0  0  0  0  0  0  0  0
   34.6580   29.1610   37.6250 C   0  0  0  0  0  0  0  0  0  0  0  0
   35.8520   29.3280   38.2690 C   0  0  0  0  0  0  0  0  0  0  0  0
   37.1750   29.5260   37.6210 C   0  0  0  0  0  0  0  0  0  0  0  0
   38.1920   28.5130   38.1050 C   0  0  0  0  0  0  0  0  0  0  0  0
   39.4250   29.2860   38.5290 C   0  0  0  0  0  0  0  0  0  0  0  0
   39.2500   30.7050   38.0880 C   0  0  0  0  0  0  0  0  0  0  0  0
   37.7670   30.8760   38.0140 C   0  0  0  0  0  0  0  0  0  0  0  0
   37.1870   27.8570   43.9670 C   0  0  0  0  0  0  0  0  0  0  0  0
   36.7640   28.5720   45.0750 F   0  0  0  0  0  0  0  0  0  0  0  0
   38.3800   27.1970   44.2400 F   0  0  0  0  0  0  0  0  0  0  0  0
   36.2100   26.9140   43.6900 F   0  0  0  0  0  0  0  0  0  0  0  0
   39.0667   29.7879   43.6022 H   0  0  0  0  0  0  0  0  0  0  0  0
   39.2668   31.2720   41.5543 H   0  0  0  0  0  0  0  0  0  0  0  0
   32.6582   28.8611   38.5008 H   0  0  0  0  0  0  0  0  0  0  0  0
   34.4771   29.1453   36.5401 H   0  0  0  0  0  0  0  0  0  0  0  0
   36.9942   29.4374   36.5396 H   0  0  0  0  0  0  0  0  0  0  0  0
   37.7871   27.9506   38.9593 H   0  0  0  0  0  0  0  0  0  0  0  0
   38.4358   27.7929   37.3100 H   0  0  0  0  0  0  0  0  0  0  0  0
   39.5345   29.2450   39.6228 H   0  0  0  0  0  0  0  0  0  0  0  0
   40.3266   28.8507   38.0734 H   0  0  0  0  0  0  0  0  0  0  0  0
   39.6884   31.3995   38.8198 H   0  0  0  0  0  0  0  0  0  0  0  0
   39.7506   30.9178   37.1319 H   0  0  0  0  0  0  0  0  0  0  0  0
   37.5124   31.6334   37.2580 H   0  0  0  0  0  0  0  0  0  0  0  0
   37.3644   31.2117   38.9811 H   0  0  0  0  0  0  0  0  0  0  0  0
  1 17  1  0
  2  1  2  0
  3  2  1  0
  4  5  1  0
  4  3  2  0
  5  6  2  0
  6  1  1  0
  7  8  1  0
  7  5  1  0
  9  8  2  0
 10 11  2  0
 10  9  1  0
 11  7  1  0
 12 16  1  0
 12 13  1  0
 12 11  1  0
 13 14  1  0
 15 14  1  0
 16 15  1  0
 17 19  1  0
 17 18  1  0
 20 17  1  0
  2 21  1  0
  3 22  1  0
  9 23  1  0
 10 24  1  0
 12 25  1  0
 13 26  1  0
 13 27  1  0
 14 28  1  0
 14 29  1  0
 15 30  1  0
 15 31  1  0
 16 32  1  0
 16 33  1  0
M  ISO  8  21  14  22  14  23  14  24  14  25  13  26  13  27  13  28  13
M  ISO  5  29  13  30  13  31  13  32  13  33  13
M  END
>  <minimizedAffinity>  (1) 
-5.74151659

>  <minimizedRMSD>  (1) 
0.297354788

$$$$
