
     RDKit          3D

 29 30  0  0  0  0  0  0  0  0999 V2000
   37.3680   28.7050   42.8120 C   0  0  0  0  0  0  0  0  0  0  0  0
   38.4020   29.6830   42.8230 C   0  0  0  0  0  0  0  0  0  0  0  0
   38.5190   30.5210   41.7060 C   0  0  0  0  0  0  0  0  0  0  0  0
   37.6420   30.3430   40.6930 N   0  0  0  0  0  0  0  0  0  0  0  0
   36.6660   29.4050   40.7050 C   0  0  0  0  0  0  0  0  0  0  0  0
   36.5400   28.5890   41.7760 N   0  0  0  0  0  0  0  0  0  0  0  0
   35.7950   29.2950   39.5970 N   0  0  0  0  0  0  0  0  0  0  0  0
   34.5090   29.0940   39.7590 N   0  0  0  0  0  0  0  0  0  0  0  0
   33.8550   29.0180   38.5960 C   0  0  0  0  0  0  0  0  0  0  0  0
   34.8000   29.1840   37.6170 C   0  0  0  0  0  0  0  0  0  0  0  0
   35.9830   29.3510   38.2760 C   0  0  0  0  0  0  0  0  0  0  0  0
   37.2170   27.8050   43.9760 C   0  0  0  0  0  0  0  0  0  0  0  0
   36.7550   28.4890   45.0890 F   0  0  0  0  0  0  0  0  0  0  0  0
   38.4330   27.1740   44.2710 F   0  0  0  0  0  0  0  0  0  0  0  0
   36.2880   26.8390   43.6570 F   0  0  0  0  0  0  0  0  0  0  0  0
   37.3220   29.5690   37.6640 C   0  0  0  0  0  0  0  0  0  0  0  0
   37.5720   28.5400   36.5720 C   0  0  0  0  0  0  0  0  0  0  0  0
   37.4960   30.9670   37.1530 C   0  0  0  0  0  0  0  0  0  0  0  0
   39.0860   29.7778   43.6792 H   0  0  0  0  0  0  0  0  0  0  0  0
   39.2974   31.2966   41.6553 H   0  0  0  0  0  0  0  0  0  0  0  0
   32.7765   28.8552   38.4532 H   0  0  0  0  0  0  0  0  0  0  0  0
   34.6385   29.1828   36.5289 H   0  0  0  0  0  0  0  0  0  0  0  0
   38.0765   29.4351   38.4532 H   0  0  0  0  0  0  0  0  0  0  0  0
   37.8080   27.5685   37.0308 H   0  0  0  0  0  0  0  0  0  0  0  0
   36.6716   28.4417   35.9478 H   0  0  0  0  0  0  0  0  0  0  0  0
   38.4171   28.8657   35.9478 H   0  0  0  0  0  0  0  0  0  0  0  0
   37.5822   31.6600   38.0029 H   0  0  0  0  0  0  0  0  0  0  0  0
   38.4080   31.0227   36.5405 H   0  0  0  0  0  0  0  0  0  0  0  0
   36.6255   31.2445   36.5405 H   0  0  0  0  0  0  0  0  0  0  0  0
  1  2  2  0
  1 12  1  0
  3  2  1  0
  4  5  1  0
  4  3  2  0
  5  6  2  0
  6  1  1  0
  7  8  1  0
  7  5  1  0
  9  8  2  0
 10 11  2  0
 10  9  1  0
 11  7  1  0
 12 14  1  0
 12 13  1  0
 15 12  1  0
 16 11  1  0
 17 16  1  0
 18 16  1  0
  2 19  1  0
  3 20  1  0
  9 21  1  0
 10 22  1  0
 16 23  1  0
 17 24  1  0
 17 25  1  0
 17 26  1  0
 18 27  1  0
 18 28  1  0
 18 29  1  0
M  ISO  8  19  14  20  14  21  14  22  14  23   8  24   8  25   8  26   8
M  ISO  3  27   8  28   8  29   8
M  END
>  <minimizedAffinity>  (1) 
-5.51988792

>  <minimizedRMSD>  (1) 
0.61871928

$$$$
