
     RDKit          3D

 27 29  0  0  0  0  0  0  0  0999 V2000
   37.8600   28.8890   42.7800 C   0  0  0  0  0  0  0  0  0  0  0  0
   38.8340   29.8440   43.1450 C   0  0  0  0  0  0  0  0  0  0  0  0
   39.2420   30.7560   42.1630 C   0  0  0  0  0  0  0  0  0  0  0  0
   38.6740   30.6550   40.9420 N   0  0  0  0  0  0  0  0  0  0  0  0
   37.7420   29.7300   40.6160 C   0  0  0  0  0  0  0  0  0  0  0  0
   37.3330   28.8360   41.5520 N   0  0  0  0  0  0  0  0  0  0  0  0
   37.2150   29.7140   39.3050 N   0  0  0  0  0  0  0  0  0  0  0  0
   35.9120   29.5280   39.1080 N   0  0  0  0  0  0  0  0  0  0  0  0
   35.5840   29.5450   37.8270 C   0  0  0  0  0  0  0  0  0  0  0  0
   36.7430   29.7550   37.1450 C   0  0  0  0  0  0  0  0  0  0  0  0
   37.7550   29.8580   38.0970 C   0  0  0  0  0  0  0  0  0  0  0  0
   39.1340   30.0720   37.7990 C   0  0  0  0  0  0  0  0  0  0  0  0
   40.0540   29.1450   37.5110 C   0  0  0  0  0  0  0  0  0  0  0  0
   41.3480   29.4620   37.2390 C   0  0  0  0  0  0  0  0  0  0  0  0
   41.6560   30.8140   37.2810 C   0  0  0  0  0  0  0  0  0  0  0  0
   40.0840   31.6330   37.7110 S   0  0  0  0  0  0  0  0  0  0  0  0
   37.3930   27.9010   43.7980 C   0  0  0  0  0  0  0  0  0  0  0  0
   36.8300   28.5430   44.8920 F   0  0  0  0  0  0  0  0  0  0  0  0
   38.4460   27.1000   44.2160 F   0  0  0  0  0  0  0  0  0  0  0  0
   36.4060   27.1230   43.2340 F   0  0  0  0  0  0  0  0  0  0  0  0
   39.2558   29.8708   44.1606 H   0  0  0  0  0  0  0  0  0  0  0  0
   39.9973   31.5261   42.3786 H   0  0  0  0  0  0  0  0  0  0  0  0
   34.5787   29.4157   37.3995 H   0  0  0  0  0  0  0  0  0  0  0  0
   36.8583   29.8291   36.0536 H   0  0  0  0  0  0  0  0  0  0  0  0
   39.7528   28.0872   37.4935 H   0  0  0  0  0  0  0  0  0  0  0  0
   42.1013   28.6965   37.0012 H   0  0  0  0  0  0  0  0  0  0  0  0
   42.6317   31.2871   37.0960 H   0  0  0  0  0  0  0  0  0  0  0  0
  1  2  2  0
  1 17  1  0
  3  2  1  0
  4  3  2  0
  5  4  1  0
  5  6  2  0
  6  1  1  0
  7  5  1  0
  8  7  1  0
  9  8  2  0
 10  9  1  0
 10 11  2  0
 11  7  1  0
 12 11  1  0
 13 12  2  0
 14 15  2  0
 14 13  1  0
 15 16  1  0
 16 12  1  0
 17 19  1  0
 17 18  1  0
 20 17  1  0
  2 21  1  0
  3 22  1  0
  9 23  1  0
 10 24  1  0
 13 25  1  0
 14 26  1  0
 15 27  1  0
M  ISO  7  21  14  22  14  23  14  24  14  25  14  26  14  27  14
M  END
>  <minimizedAffinity>  (1) 
-5.37391376

>  <minimizedRMSD>  (1) 
1.55984139

$$$$
