
     RDKit          3D

 44 47  0  0  0  0  0  0  0  0999 V2000
   37.6310   29.8640   38.0210 N   0  0  0  0  0  0  0  0  0  0  0  0
   38.4510   28.7710   38.0340 C   0  0  0  0  0  0  0  0  0  0  0  0
   39.7860   28.9380   37.7340 C   0  0  0  0  0  0  0  0  0  0  0  0
   40.2720   30.1950   37.4250 C   0  0  0  0  0  0  0  0  0  0  0  0
   41.6350   30.3980   37.1130 N   0  0  0  0  0  0  0  0  0  0  0  0
   39.4140   31.2620   37.4240 N   0  0  0  0  0  0  0  0  0  0  0  0
   38.1160   31.0730   37.7210 C   0  0  0  0  0  0  0  0  0  0  0  0
   37.2540   32.0030   37.7430 O   0  0  0  0  0  0  0  0  0  0  0  0
   37.4060   28.7020   42.9440 C   0  0  0  0  0  0  0  0  0  0  0  0
   38.3780   29.7200   43.0630 C   0  0  0  0  0  0  0  0  0  0  0  0
   38.5230   30.6190   42.0030 C   0  0  0  0  0  0  0  0  0  0  0  0
   37.7170   30.4530   40.9230 N   0  0  0  0  0  0  0  0  0  0  0  0
   36.7950   29.4590   40.8470 C   0  0  0  0  0  0  0  0  0  0  0  0
   36.6400   28.5900   41.8500 N   0  0  0  0  0  0  0  0  0  0  0  0
   35.9890   29.3680   39.6610 N   0  0  0  0  0  0  0  0  0  0  0  0
   34.7110   29.0720   39.7440 N   0  0  0  0  0  0  0  0  0  0  0  0
   34.1270   29.0330   38.5350 C   0  0  0  0  0  0  0  0  0  0  0  0
   35.1120   29.3230   37.6370 C   0  0  0  0  0  0  0  0  0  0  0  0
   36.2790   29.5330   38.3520 C   0  0  0  0  0  0  0  0  0  0  0  0
   37.2360   27.7390   44.0570 C   0  0  0  0  0  0  0  0  0  0  0  0
   36.7440   28.3320   45.1860 F   0  0  0  0  0  0  0  0  0  0  0  0
   38.4480   27.0840   44.3330 F   0  0  0  0  0  0  0  0  0  0  0  0
   36.3290   26.7640   43.6430 F   0  0  0  0  0  0  0  0  0  0  0  0
   40.6780   27.8230   37.7370 N   0  0  0  0  0  0  0  0  0  0  0  0
   41.0840   27.0400   36.7340 C   0  0  0  0  0  0  0  0  0  0  0  0
   41.9630   26.0100   36.9970 C   0  0  0  0  0  0  0  0  0  0  0  0
   42.3740   25.1770   35.8350 C   0  0  0  0  0  0  0  0  0  0  0  0
   42.4330   25.7710   38.2740 C   0  0  0  0  0  0  0  0  0  0  0  0
   43.2350   24.8270   38.4940 O   0  0  0  0  0  0  0  0  0  0  0  0
   41.9990   26.5810   39.2510 N   0  0  0  0  0  0  0  0  0  0  0  0
   41.1420   27.5850   38.9970 C   0  0  0  0  0  0  0  0  0  0  0  0
   40.8400   28.2510   40.0460 O   0  0  0  0  0  0  0  0  0  0  0  0
   38.0528   27.7754   38.2795 H   0  0  0  0  0  0  0  0  0  0  0  0
   41.9761   31.3429   36.8857 H   0  0  0  0  0  0  0  0  0  0  0  0
   42.2875   29.6011   37.1129 H   0  0  0  0  0  0  0  0  0  0  0  0
   39.0030   29.8027   43.9644 H   0  0  0  0  0  0  0  0  0  0  0  0
   39.2633   31.4317   42.0421 H   0  0  0  0  0  0  0  0  0  0  0  0
   33.0721   28.8127   38.3146 H   0  0  0  0  0  0  0  0  0  0  0  0
   34.9997   29.3797   36.5442 H   0  0  0  0  0  0  0  0  0  0  0  0
   40.7216   27.2145   35.7102 H   0  0  0  0  0  0  0  0  0  0  0  0
   42.8337   24.2452   36.1962 H   0  0  0  0  0  0  0  0  0  0  0  0
   41.4906   24.9375   35.2248 H   0  0  0  0  0  0  0  0  0  0  0  0
   43.1015   25.7323   35.2248 H   0  0  0  0  0  0  0  0  0  0  0  0
   42.3289   26.4307   40.2151 H   0  0  0  0  0  0  0  0  0  0  0  0
  1  2  1  0
  1 19  1  0
  3 24  1  0
  3  2  2  0
  4  3  1  0
  5  4  1  0
  6  4  2  0
  6  7  1  0
  7  8  2  0
  7  1  1  0
  9 10  2  0
  9 20  1  0
 11 10  1  0
 12 11  2  0
 13 12  1  0
 13 14  2  0
 14  9  1  0
 15 16  1  0
 15 13  1  0
 17 16  2  0
 18 19  2  0
 18 17  1  0
 19 15  1  0
 20 22  1  0
 20 21  1  0
 23 20  1  0
 24 31  1  0
 25 26  2  0
 25 24  1  0
 26 28  1  0
 27 26  1  0
 28 29  2  0
 28 30  1  0
 31 30  1  0
 31 32  2  0
  2 33  1  0
  5 34  1  0
  5 35  1  0
 10 36  1  0
 11 37  1  0
 17 38  1  0
 18 39  1  0
 25 40  1  0
 27 41  1  0
 27 42  1  0
 27 43  1  0
 30 44  1  0
M  ISO  8  33  14  36  14  37  14  38  14  39  14  40  14  41   8  42   8
M  ISO  2  43   8  44   9
M  END
>  <minimizedAffinity>  (1) 
-6.34453917

>  <minimizedRMSD>  (1) 
0.570802689

$$$$
