
     RDKit          3D

 42 45  0  0  0  0  0  0  0  0999 V2000
   37.5180   29.6840   38.0860 N   0  0  0  0  0  0  0  0  0  0  0  0
   38.2670   28.5400   38.0570 C   0  0  0  0  0  0  0  0  0  0  0  0
   39.6130   28.6280   37.7180 C   0  0  0  0  0  0  0  0  0  0  0  0
   40.1600   29.8670   37.4210 C   0  0  0  0  0  0  0  0  0  0  0  0
   41.5220   29.9710   37.0770 N   0  0  0  0  0  0  0  0  0  0  0  0
   39.3690   30.9790   37.4650 N   0  0  0  0  0  0  0  0  0  0  0  0
   38.0750   30.8610   37.7950 C   0  0  0  0  0  0  0  0  0  0  0  0
   37.2720   31.8460   37.8590 O   0  0  0  0  0  0  0  0  0  0  0  0
   37.3270   28.6910   43.0430 C   0  0  0  0  0  0  0  0  0  0  0  0
   38.3510   29.6600   43.1190 C   0  0  0  0  0  0  0  0  0  0  0  0
   38.5260   30.5250   42.0230 C   0  0  0  0  0  0  0  0  0  0  0  0
   37.6790   30.3550   40.9600 N   0  0  0  0  0  0  0  0  0  0  0  0
   36.7170   29.4150   40.9330 C   0  0  0  0  0  0  0  0  0  0  0  0
   36.5380   28.5840   41.9690 N   0  0  0  0  0  0  0  0  0  0  0  0
   35.8880   29.3270   39.7690 N   0  0  0  0  0  0  0  0  0  0  0  0
   34.6010   29.1010   39.8730 N   0  0  0  0  0  0  0  0  0  0  0  0
   33.9920   29.0520   38.6860 C   0  0  0  0  0  0  0  0  0  0  0  0
   34.9720   29.2620   37.7630 C   0  0  0  0  0  0  0  0  0  0  0  0
   36.1610   29.4340   38.4490 C   0  0  0  0  0  0  0  0  0  0  0  0
   37.1300   27.7690   44.1910 C   0  0  0  0  0  0  0  0  0  0  0  0
   36.6620   28.4320   45.3040 F   0  0  0  0  0  0  0  0  0  0  0  0
   38.3200   27.0920   44.4850 F   0  0  0  0  0  0  0  0  0  0  0  0
   36.1910   26.8250   43.8210 F   0  0  0  0  0  0  0  0  0  0  0  0
   40.3990   27.4400   37.6860 N   0  0  0  0  0  0  0  0  0  0  0  0
   40.0870   26.6770   36.6100 C   0  0  0  0  0  0  0  0  0  0  0  0
   40.7350   25.4670   36.3820 C   0  0  0  0  0  0  0  0  0  0  0  0
   41.7110   25.0850   37.3070 C   0  0  0  0  0  0  0  0  0  0  0  0
   42.4280   23.8640   37.1580 N   0  0  0  0  0  0  0  0  0  0  0  0
   41.9820   25.8790   38.3580 N   0  0  0  0  0  0  0  0  0  0  0  0
   41.3420   27.0470   38.5620 C   0  0  0  0  0  0  0  0  0  0  0  0
   41.5350   27.8430   39.5130 O   0  0  0  0  0  0  0  0  0  0  0  0
   37.8128   27.5674   38.2976 H   0  0  0  0  0  0  0  0  0  0  0  0
   42.1113   29.1268   37.0463 H   0  0  0  0  0  0  0  0  0  0  0  0
   41.9286   30.8912   36.8562 H   0  0  0  0  0  0  0  0  0  0  0  0
   38.9931   29.7365   44.0088 H   0  0  0  0  0  0  0  0  0  0  0  0
   39.3059   31.3008   42.0200 H   0  0  0  0  0  0  0  0  0  0  0  0
   32.9230   28.8784   38.4935 H   0  0  0  0  0  0  0  0  0  0  0  0
   34.8415   29.2897   36.6711 H   0  0  0  0  0  0  0  0  0  0  0  0
   39.3118   27.0187   35.9083 H   0  0  0  0  0  0  0  0  0  0  0  0
   40.4902   24.8390   35.5127 H   0  0  0  0  0  0  0  0  0  0  0  0
   43.1437   23.5993   37.8498 H   0  0  0  0  0  0  0  0  0  0  0  0
   42.2310   23.2454   36.3584 H   0  0  0  0  0  0  0  0  0  0  0  0
  1 19  1  0
  2  1  1  0
  3  2  2  0
  4  6  2  0
  4  3  1  0
  5  4  1  0
  6  7  1  0
  7  8  2  0
  7  1  1  0
  9 10  2  0
  9 20  1  0
 11 10  1  0
 12 11  2  0
 13 12  1  0
 13 14  2  0
 14  9  1  0
 15 16  1  0
 15 13  1  0
 17 16  2  0
 18 19  2  0
 18 17  1  0
 19 15  1  0
 20 22  1  0
 20 21  1  0
 23 20  1  0
 24  3  1  0
 24 30  1  0
 25 24  1  0
 26 25  2  0
 26 27  1  0
 27 29  2  0
 28 27  1  0
 29 30  1  0
 30 31  2  0
  2 32  1  0
  5 33  1  0
  5 34  1  0
 10 35  1  0
 11 36  1  0
 17 37  1  0
 18 38  1  0
 25 39  1  0
 26 40  1  0
 28 41  1  0
 28 42  1  0
M  ISO  7  32  14  35  14  36  14  37  14  38  14  39  14  40  14
M  END
>  <minimizedAffinity>  (1) 
-6.27122641

>  <minimizedRMSD>  (1) 
0.925188422

$$$$
