
     RDKit          3D

 39 42  0  0  0  0  0  0  0  0999 V2000
   37.4100   28.6860   42.9430 C   0  0  0  0  0  0  0  0  0  0  0  0
   38.3960   29.7000   43.0560 C   0  0  0  0  0  0  0  0  0  0  0  0
   38.5370   30.5930   41.9900 C   0  0  0  0  0  0  0  0  0  0  0  0
   37.7170   30.4300   40.9140 N   0  0  0  0  0  0  0  0  0  0  0  0
   36.7960   29.4550   40.8470 C   0  0  0  0  0  0  0  0  0  0  0  0
   36.6400   28.5850   41.8560 N   0  0  0  0  0  0  0  0  0  0  0  0
   35.9820   29.3670   39.6720 N   0  0  0  0  0  0  0  0  0  0  0  0
   34.6980   29.0880   39.7590 N   0  0  0  0  0  0  0  0  0  0  0  0
   34.1100   29.0490   38.5600 C   0  0  0  0  0  0  0  0  0  0  0  0
   35.0900   29.3220   37.6540 C   0  0  0  0  0  0  0  0  0  0  0  0
   36.2680   29.5210   38.3620 C   0  0  0  0  0  0  0  0  0  0  0  0
   37.6230   29.8330   38.0180 N   0  0  0  0  0  0  0  0  0  0  0  0
   38.4020   28.7110   37.9190 C   0  0  0  0  0  0  0  0  0  0  0  0
   39.7280   28.8560   37.5950 C   0  0  0  0  0  0  0  0  0  0  0  0
   40.2370   30.1240   37.3780 C   0  0  0  0  0  0  0  0  0  0  0  0
   41.6040   30.3440   37.0390 N   0  0  0  0  0  0  0  0  0  0  0  0
   39.4260   31.1980   37.4890 N   0  0  0  0  0  0  0  0  0  0  0  0
   38.1290   31.0500   37.8060 C   0  0  0  0  0  0  0  0  0  0  0  0
   37.2930   31.9970   37.9320 O   0  0  0  0  0  0  0  0  0  0  0  0
   40.6630   27.7490   37.4580 C   0  0  0  0  0  0  0  0  0  0  0  0
   40.5420   26.7210   36.5470 C   0  0  0  0  0  0  0  0  0  0  0  0
   41.4680   25.6920   36.4640 C   0  0  0  0  0  0  0  0  0  0  0  0
   42.5150   25.6970   37.2990 N   0  0  0  0  0  0  0  0  0  0  0  0
   42.6370   26.6890   38.1830 C   0  0  0  0  0  0  0  0  0  0  0  0
   41.7310   27.6820   38.2530 N   0  0  0  0  0  0  0  0  0  0  0  0
   37.2450   27.7330   44.0570 C   0  0  0  0  0  0  0  0  0  0  0  0
   36.7450   28.3430   45.1830 F   0  0  0  0  0  0  0  0  0  0  0  0
   38.4540   27.0810   44.3320 F   0  0  0  0  0  0  0  0  0  0  0  0
   36.3360   26.7610   43.6470 F   0  0  0  0  0  0  0  0  0  0  0  0
   39.0283   29.7806   43.9525 H   0  0  0  0  0  0  0  0  0  0  0  0
   39.2843   31.3997   42.0187 H   0  0  0  0  0  0  0  0  0  0  0  0
   33.0512   28.8394   38.3478 H   0  0  0  0  0  0  0  0  0  0  0  0
   34.9702   29.3751   36.5618 H   0  0  0  0  0  0  0  0  0  0  0  0
   37.9736   27.7134   38.0956 H   0  0  0  0  0  0  0  0  0  0  0  0
   42.2469   29.5445   36.9471 H   0  0  0  0  0  0  0  0  0  0  0  0
   41.9488   31.3024   36.8859 H   0  0  0  0  0  0  0  0  0  0  0  0
   39.6811   26.7170   35.8623 H   0  0  0  0  0  0  0  0  0  0  0  0
   41.3447   24.8861   35.7255 H   0  0  0  0  0  0  0  0  0  0  0  0
   43.4966   26.6954   38.8694 H   0  0  0  0  0  0  0  0  0  0  0  0
  1  2  2  0
  1 26  1  0
  3  2  1  0
  4  3  2  0
  5  4  1  0
  5  6  2  0
  6  1  1  0
  7  8  1  0
  7  5  1  0
  9  8  2  0
 10 11  2  0
 10  9  1  0
 11  7  1  0
 12 11  1  0
 13 12  1  0
 14 13  2  0
 15 17  2  0
 15 14  1  0
 16 15  1  0
 17 18  1  0
 18 19  2  0
 18 12  1  0
 20 14  1  0
 20 25  1  0
 21 20  2  0
 22 21  1  0
 22 23  2  0
 23 24  1  0
 24 25  2  0
 26 28  1  0
 26 27  1  0
 29 26  1  0
  2 30  1  0
  3 31  1  0
  9 32  1  0
 10 33  1  0
 13 34  1  0
 16 35  1  0
 16 36  1  0
 21 37  1  0
 22 38  1  0
 24 39  1  0
M  ISO  8  30  14  31  14  32  14  33  14  34  14  37  14  38  14  39  14
M  END
>  <minimizedAffinity>  (1) 
-6.25893927

>  <minimizedRMSD>  (1) 
0.13374263

$$$$
