
     RDKit          3D

 43 45  0  0  0  0  0  0  0  0999 V2000
   37.4620   28.6620   42.8750 C   0  0  0  0  0  0  0  0  0  0  0  0
   38.4020   29.7170   43.0300 C   0  0  0  0  0  0  0  0  0  0  0  0
   38.5180   30.6460   41.9970 C   0  0  0  0  0  0  0  0  0  0  0  0
   37.7200   30.4840   40.9040 N   0  0  0  0  0  0  0  0  0  0  0  0
   36.8430   29.4680   40.8040 C   0  0  0  0  0  0  0  0  0  0  0  0
   36.7110   28.5630   41.7780 N   0  0  0  0  0  0  0  0  0  0  0  0
   36.0460   29.3800   39.6160 N   0  0  0  0  0  0  0  0  0  0  0  0
   34.7670   29.0350   39.6730 N   0  0  0  0  0  0  0  0  0  0  0  0
   34.1980   29.0080   38.4760 C   0  0  0  0  0  0  0  0  0  0  0  0
   35.1720   29.3580   37.5940 C   0  0  0  0  0  0  0  0  0  0  0  0
   36.3360   29.5920   38.3040 C   0  0  0  0  0  0  0  0  0  0  0  0
   37.6680   29.9770   37.9940 N   0  0  0  0  0  0  0  0  0  0  0  0
   38.4930   28.9000   37.8310 C   0  0  0  0  0  0  0  0  0  0  0  0
   39.8170   29.1080   37.5260 C   0  0  0  0  0  0  0  0  0  0  0  0
   40.2910   30.4070   37.3910 C   0  0  0  0  0  0  0  0  0  0  0  0
   41.6350   30.6890   37.0800 N   0  0  0  0  0  0  0  0  0  0  0  0
   39.4350   31.4430   37.5620 N   0  0  0  0  0  0  0  0  0  0  0  0
   38.1380   31.2200   37.8600 C   0  0  0  0  0  0  0  0  0  0  0  0
   37.2640   32.1240   38.0380 O   0  0  0  0  0  0  0  0  0  0  0  0
   40.8110   28.0230   37.3250 C   0  0  0  0  0  0  0  0  0  0  0  0
   41.9990   28.4460   36.5020 C   0  0  0  0  0  0  0  0  0  0  0  0
   40.1830   26.7510   36.8180 C   0  0  0  0  0  0  0  0  0  0  0  0
   41.3650   27.6320   38.7030 C   0  0  0  0  0  0  0  0  0  0  0  0
   37.3260   27.6680   43.9590 C   0  0  0  0  0  0  0  0  0  0  0  0
   36.7870   28.2110   45.0960 F   0  0  0  0  0  0  0  0  0  0  0  0
   38.5800   27.0820   44.2410 F   0  0  0  0  0  0  0  0  0  0  0  0
   36.4780   26.6600   43.5060 F   0  0  0  0  0  0  0  0  0  0  0  0
   39.0189   29.7979   43.9371 H   0  0  0  0  0  0  0  0  0  0  0  0
   39.2299   31.4820   42.0619 H   0  0  0  0  0  0  0  0  0  0  0  0
   33.1530   28.7546   38.2440 H   0  0  0  0  0  0  0  0  0  0  0  0
   35.0545   29.4408   36.5034 H   0  0  0  0  0  0  0  0  0  0  0  0
   38.1019   27.8779   37.9426 H   0  0  0  0  0  0  0  0  0  0  0  0
   41.9483   31.6659   36.9883 H   0  0  0  0  0  0  0  0  0  0  0  0
   42.3048   29.9184   36.9442 H   0  0  0  0  0  0  0  0  0  0  0  0
   42.8222   28.7391   37.1701 H   0  0  0  0  0  0  0  0  0  0  0  0
   42.3226   27.6078   35.8674 H   0  0  0  0  0  0  0  0  0  0  0  0
   41.7200   29.3000   35.8674 H   0  0  0  0  0  0  0  0  0  0  0  0
   39.8756   26.1284   37.6712 H   0  0  0  0  0  0  0  0  0  0  0  0
   39.3021   26.9955   36.2063 H   0  0  0  0  0  0  0  0  0  0  0  0
   40.9127   26.2003   36.2063 H   0  0  0  0  0  0  0  0  0  0  0  0
   40.7370   28.0752   39.4899 H   0  0  0  0  0  0  0  0  0  0  0  0
   41.3595   26.5366   38.8030 H   0  0  0  0  0  0  0  0  0  0  0  0
   42.3953   28.0042   38.8030 H   0  0  0  0  0  0  0  0  0  0  0  0
  1  2  2  0
  1 24  1  0
  3  2  1  0
  4  3  2  0
  5  4  1  0
  5  6  2  0
  6  1  1  0
  7  8  1  0
  7  5  1  0
  9  8  2  0
 10 11  2  0
 10  9  1  0
 11  7  1  0
 12 11  1  0
 13 12  1  0
 14 13  2  0
 15 14  1  0
 15 17  2  0
 16 15  1  0
 17 18  1  0
 18 12  1  0
 18 19  2  0
 20 14  1  0
 20 23  1  0
 21 20  1  0
 22 20  1  0
 24 26  1  0
 24 25  1  0
 27 24  1  0
  2 28  1  0
  3 29  1  0
  9 30  1  0
 10 31  1  0
 13 32  1  0
 16 33  1  0
 16 34  1  0
 21 35  1  0
 21 36  1  0
 21 37  1  0
 22 38  1  0
 22 39  1  0
 22 40  1  0
 23 41  1  0
 23 42  1  0
 23 43  1  0
M  ISO  8  28  14  29  14  30  14  31  14  32  14  35   8  36   8  37   8
M  ISO  6  38   8  39   8  40   8  41   8  42   8  43   8
M  END
>  <minimizedAffinity>  (1) 
-6.19440365

>  <minimizedRMSD>  (1) 
0.20478183

$$$$
