
     RDKit          3D

 38 41  0  0  0  0  0  0  0  0999 V2000
   37.3330   28.6800   43.0230 C   0  0  0  0  0  0  0  0  0  0  0  0
   38.3670   29.6540   43.0880 C   0  0  0  0  0  0  0  0  0  0  0  0
   38.5300   30.5020   41.9990 C   0  0  0  0  0  0  0  0  0  0  0  0
   37.6980   30.3490   40.9460 N   0  0  0  0  0  0  0  0  0  0  0  0
   36.7240   29.4110   40.9180 C   0  0  0  0  0  0  0  0  0  0  0  0
   36.5330   28.5730   41.9480 N   0  0  0  0  0  0  0  0  0  0  0  0
   35.8870   29.3240   39.7560 N   0  0  0  0  0  0  0  0  0  0  0  0
   34.5920   29.1080   39.8730 N   0  0  0  0  0  0  0  0  0  0  0  0
   33.9880   29.0600   38.6870 C   0  0  0  0  0  0  0  0  0  0  0  0
   34.9620   29.2560   37.7610 C   0  0  0  0  0  0  0  0  0  0  0  0
   36.1640   29.4220   38.4360 C   0  0  0  0  0  0  0  0  0  0  0  0
   37.5200   29.6590   38.0700 N   0  0  0  0  0  0  0  0  0  0  0  0
   38.2530   28.5300   37.9990 C   0  0  0  0  0  0  0  0  0  0  0  0
   39.5810   28.6010   37.6560 C   0  0  0  0  0  0  0  0  0  0  0  0
   40.1420   29.8230   37.3890 C   0  0  0  0  0  0  0  0  0  0  0  0
   41.5160   29.9450   37.0300 N   0  0  0  0  0  0  0  0  0  0  0  0
   39.3770   30.9340   37.4700 N   0  0  0  0  0  0  0  0  0  0  0  0
   38.0810   30.8450   37.8070 C   0  0  0  0  0  0  0  0  0  0  0  0
   37.2990   31.8500   37.9030 O   0  0  0  0  0  0  0  0  0  0  0  0
   40.4340   27.4130   37.5600 C   0  0  0  0  0  0  0  0  0  0  0  0
   40.5610   26.5610   36.4910 C   0  0  0  0  0  0  0  0  0  0  0  0
   41.3940   25.5060   36.5640 C   0  0  0  0  0  0  0  0  0  0  0  0
   42.0890   25.3510   37.7600 C   0  0  0  0  0  0  0  0  0  0  0  0
   41.4700   26.8240   38.7840 S   0  0  0  0  0  0  0  0  0  0  0  0
   37.1340   27.7600   44.1700 C   0  0  0  0  0  0  0  0  0  0  0  0
   36.6740   28.4340   45.2850 F   0  0  0  0  0  0  0  0  0  0  0  0
   38.3220   27.0950   44.4700 F   0  0  0  0  0  0  0  0  0  0  0  0
   36.1720   26.8310   43.8110 F   0  0  0  0  0  0  0  0  0  0  0  0
   39.0170   29.7337   43.9718 H   0  0  0  0  0  0  0  0  0  0  0  0
   39.3130   31.2745   41.9948 H   0  0  0  0  0  0  0  0  0  0  0  0
   32.9173   28.8950   38.4961 H   0  0  0  0  0  0  0  0  0  0  0  0
   34.8233   29.2791   36.6700 H   0  0  0  0  0  0  0  0  0  0  0  0
   37.7895   27.5560   38.2148 H   0  0  0  0  0  0  0  0  0  0  0  0
   42.1080   29.1046   36.9654 H   0  0  0  0  0  0  0  0  0  0  0  0
   41.9169   30.8736   36.8352 H   0  0  0  0  0  0  0  0  0  0  0  0
   39.9813   26.7407   35.5736 H   0  0  0  0  0  0  0  0  0  0  0  0
   41.5185   24.8054   35.7252 H   0  0  0  0  0  0  0  0  0  0  0  0
   42.8134   24.5722   38.0405 H   0  0  0  0  0  0  0  0  0  0  0  0
  1  2  2  0
  1 25  1  0
  3  2  1  0
  4  3  2  0
  5  4  1  0
  5  6  2  0
  6  1  1  0
  7  8  1  0
  7  5  1  0
  9  8  2  0
 10 11  2  0
 10  9  1  0
 11  7  1  0
 12 11  1  0
 13 12  1  0
 14 13  2  0
 15 17  2  0
 15 14  1  0
 16 15  1  0
 17 18  1  0
 18 19  2  0
 18 12  1  0
 20 14  1  0
 20 24  1  0
 21 22  1  0
 21 20  2  0
 22 23  2  0
 23 24  1  0
 25 27  1  0
 25 26  1  0
 28 25  1  0
  2 29  1  0
  3 30  1  0
  9 31  1  0
 10 32  1  0
 13 33  1  0
 16 34  1  0
 16 35  1  0
 21 36  1  0
 22 37  1  0
 23 38  1  0
M  ISO  8  29  14  30  14  31  14  32  14  33  14  36  14  37  14  38  14
M  END
>  <minimizedAffinity>  (1) 
-6.1817584

>  <minimizedRMSD>  (1) 
0.321103483

$$$$
