
     RDKit          3D

 38 41  0  0  0  0  0  0  0  0999 V2000
   37.3390   28.6600   43.0000 C   0  0  0  0  0  0  0  0  0  0  0  0
   38.3780   29.6230   43.0590 C   0  0  0  0  0  0  0  0  0  0  0  0
   38.5510   30.4810   41.9660 C   0  0  0  0  0  0  0  0  0  0  0  0
   37.7020   30.3300   40.9130 N   0  0  0  0  0  0  0  0  0  0  0  0
   36.7330   29.4040   40.8990 C   0  0  0  0  0  0  0  0  0  0  0  0
   36.5370   28.5670   41.9260 N   0  0  0  0  0  0  0  0  0  0  0  0
   35.8860   29.3190   39.7410 N   0  0  0  0  0  0  0  0  0  0  0  0
   34.5880   29.1090   39.8620 N   0  0  0  0  0  0  0  0  0  0  0  0
   33.9730   29.0610   38.6790 C   0  0  0  0  0  0  0  0  0  0  0  0
   34.9490   29.2540   37.7410 C   0  0  0  0  0  0  0  0  0  0  0  0
   36.1470   29.4160   38.4100 C   0  0  0  0  0  0  0  0  0  0  0  0
   37.5020   29.6440   38.0370 N   0  0  0  0  0  0  0  0  0  0  0  0
   38.2110   28.5020   37.9280 C   0  0  0  0  0  0  0  0  0  0  0  0
   39.5560   28.5630   37.5710 C   0  0  0  0  0  0  0  0  0  0  0  0
   40.1280   29.7890   37.3370 C   0  0  0  0  0  0  0  0  0  0  0  0
   41.4810   29.9320   36.9740 N   0  0  0  0  0  0  0  0  0  0  0  0
   39.3770   30.9260   37.4570 N   0  0  0  0  0  0  0  0  0  0  0  0
   38.0720   30.8270   37.8070 C   0  0  0  0  0  0  0  0  0  0  0  0
   37.2940   31.8360   37.9430 O   0  0  0  0  0  0  0  0  0  0  0  0
   40.2980   27.3140   37.4610 C   0  0  0  0  0  0  0  0  0  0  0  0
   40.9420   26.6570   38.4910 C   0  0  0  0  0  0  0  0  0  0  0  0
   41.5320   25.5250   38.0380 N   0  0  0  0  0  0  0  0  0  0  0  0
   41.2770   25.4390   36.7160 C   0  0  0  0  0  0  0  0  0  0  0  0
   40.5410   26.5180   36.4090 N   0  0  0  0  0  0  0  0  0  0  0  0
   37.1440   27.7470   44.1470 C   0  0  0  0  0  0  0  0  0  0  0  0
   36.6700   28.4120   45.2500 F   0  0  0  0  0  0  0  0  0  0  0  0
   38.3500   27.0730   44.4460 F   0  0  0  0  0  0  0  0  0  0  0  0
   36.2170   26.7840   43.7650 F   0  0  0  0  0  0  0  0  0  0  0  0
   39.0315   29.6943   43.9409 H   0  0  0  0  0  0  0  0  0  0  0  0
   39.3412   31.2462   41.9587 H   0  0  0  0  0  0  0  0  0  0  0  0
   32.9005   28.8993   38.4958 H   0  0  0  0  0  0  0  0  0  0  0  0
   34.8062   29.2763   36.6505 H   0  0  0  0  0  0  0  0  0  0  0  0
   37.7313   27.5308   38.1194 H   0  0  0  0  0  0  0  0  0  0  0  0
   42.0782   29.0988   36.8738 H   0  0  0  0  0  0  0  0  0  0  0  0
   41.8735   30.8698   36.8086 H   0  0  0  0  0  0  0  0  0  0  0  0
   40.9717   27.0046   39.5342 H   0  0  0  0  0  0  0  0  0  0  0  0
   41.6058   24.6452   36.0291 H   0  0  0  0  0  0  0  0  0  0  0  0
   40.1964   26.7157   35.4587 H   0  0  0  0  0  0  0  0  0  0  0  0
  1  2  2  0
  1 25  1  0
  3  2  1  0
  4  3  2  0
  5  4  1  0
  5  6  2  0
  6  1  1  0
  7  8  1  0
  7  5  1  0
  9  8  2  0
 10 11  2  0
 10  9  1  0
 11  7  1  0
 12 11  1  0
 13 12  1  0
 14 13  2  0
 15 17  2  0
 15 14  1  0
 16 15  1  0
 17 18  1  0
 18 19  2  0
 18 12  1  0
 20 14  1  0
 20 21  2  0
 22 21  1  0
 23 22  2  0
 24 23  1  0
 24 20  1  0
 25 27  1  0
 25 26  1  0
 28 25  1  0
  2 29  1  0
  3 30  1  0
  9 31  1  0
 10 32  1  0
 13 33  1  0
 16 34  1  0
 16 35  1  0
 21 36  1  0
 23 37  1  0
 24 38  1  0
M  ISO  8  29  14  30  14  31  14  32  14  33  14  36  14  37  14  38   9
M  END
>  <minimizedAffinity>  (1) 
-6.13133621

>  <minimizedRMSD>  (1) 
0.490601748

$$$$
