
     RDKit          3D

 46 49  0  0  0  0  0  0  0  0999 V2000
   37.3860   28.6890   43.0280 C   0  0  0  0  0  0  0  0  0  0  0  0
   38.4260   29.6420   43.1340 C   0  0  0  0  0  0  0  0  0  0  0  0
   38.6660   30.4830   42.0350 C   0  0  0  0  0  0  0  0  0  0  0  0
   37.8730   30.3190   40.9380 N   0  0  0  0  0  0  0  0  0  0  0  0
   36.8900   29.3970   40.8760 C   0  0  0  0  0  0  0  0  0  0  0  0
   36.6500   28.5870   41.9180 N   0  0  0  0  0  0  0  0  0  0  0  0
   36.1200   29.3080   39.6820 N   0  0  0  0  0  0  0  0  0  0  0  0
   34.8150   29.1040   39.7360 N   0  0  0  0  0  0  0  0  0  0  0  0
   34.2650   29.0490   38.5250 C   0  0  0  0  0  0  0  0  0  0  0  0
   35.2870   29.2310   37.6400 C   0  0  0  0  0  0  0  0  0  0  0  0
   36.4460   29.3920   38.3730 C   0  0  0  0  0  0  0  0  0  0  0  0
   37.8260   29.6140   38.0680 N   0  0  0  0  0  0  0  0  0  0  0  0
   38.5510   28.4540   38.0810 C   0  0  0  0  0  0  0  0  0  0  0  0
   39.9060   28.5030   37.8050 C   0  0  0  0  0  0  0  0  0  0  0  0
   40.4940   29.7340   37.5220 C   0  0  0  0  0  0  0  0  0  0  0  0
   41.8740   29.8130   37.2360 N   0  0  0  0  0  0  0  0  0  0  0  0
   39.7260   30.8560   37.5230 N   0  0  0  0  0  0  0  0  0  0  0  0
   38.4220   30.7760   37.7920 C   0  0  0  0  0  0  0  0  0  0  0  0
   37.6240   31.7760   37.8160 O   0  0  0  0  0  0  0  0  0  0  0  0
   40.6710   27.2990   37.8160 N   0  0  0  0  0  0  0  0  0  0  0  0
   40.8290   26.5740   36.5700 C   0  0  0  0  0  0  0  0  0  0  0  0
   40.6160   25.1030   36.8860 C   0  0  0  0  0  0  0  0  0  0  0  0
   41.5890   24.6360   37.9220 C   0  0  0  0  0  0  0  0  0  0  0  0
   42.2530   25.7430   38.6760 C   0  0  0  0  0  0  0  0  0  0  0  0
   41.2610   26.8320   39.0320 C   0  0  0  0  0  0  0  0  0  0  0  0
   37.1190   27.7970   44.1700 C   0  0  0  0  0  0  0  0  0  0  0  0
   36.6640   28.4840   45.2640 F   0  0  0  0  0  0  0  0  0  0  0  0
   38.2790   27.0750   44.5020 F   0  0  0  0  0  0  0  0  0  0  0  0
   36.1490   26.8910   43.7870 F   0  0  0  0  0  0  0  0  0  0  0  0
   39.0292   29.7221   44.0504 H   0  0  0  0  0  0  0  0  0  0  0  0
   39.4611   31.2428   42.0583 H   0  0  0  0  0  0  0  0  0  0  0  0
   33.2031   28.8894   38.2866 H   0  0  0  0  0  0  0  0  0  0  0  0
   35.2031   29.2466   36.5433 H   0  0  0  0  0  0  0  0  0  0  0  0
   38.0631   27.4946   38.3079 H   0  0  0  0  0  0  0  0  0  0  0  0
   42.4499   28.9590   37.2370 H   0  0  0  0  0  0  0  0  0  0  0  0
   42.3051   30.7246   37.0263 H   0  0  0  0  0  0  0  0  0  0  0  0
   41.8399   26.7317   36.1660 H   0  0  0  0  0  0  0  0  0  0  0  0
   40.1078   26.9236   35.8165 H   0  0  0  0  0  0  0  0  0  0  0  0
   39.5923   24.9594   37.2620 H   0  0  0  0  0  0  0  0  0  0  0  0
   40.7718   24.5188   35.9671 H   0  0  0  0  0  0  0  0  0  0  0  0
   41.0502   24.0020   38.6416 H   0  0  0  0  0  0  0  0  0  0  0  0
   42.3835   24.0923   37.3900 H   0  0  0  0  0  0  0  0  0  0  0  0
   42.6883   25.3371   39.6011 H   0  0  0  0  0  0  0  0  0  0  0  0
   43.0367   26.1788   38.0389 H   0  0  0  0  0  0  0  0  0  0  0  0
   41.7793   27.6595   39.5386 H   0  0  0  0  0  0  0  0  0  0  0  0
   40.4875   26.4413   39.7096 H   0  0  0  0  0  0  0  0  0  0  0  0
  1  2  2  0
  1 26  1  0
  3  2  1  0
  4  3  2  0
  5  4  1  0
  5  6  2  0
  6  1  1  0
  7  8  1  0
  7  5  1  0
  9  8  2  0
 10 11  2  0
 10  9  1  0
 11  7  1  0
 12 13  1  0
 12 11  1  0
 14 20  1  0
 14 13  2  0
 15 17  2  0
 15 14  1  0
 16 15  1  0
 17 18  1  0
 18 19  2  0
 18 12  1  0
 20 25  1  0
 21 22  1  0
 21 20  1  0
 22 23  1  0
 23 24  1  0
 24 25  1  0
 26 28  1  0
 26 27  1  0
 29 26  1  0
  2 30  1  0
  3 31  1  0
  9 32  1  0
 10 33  1  0
 13 34  1  0
 16 35  1  0
 16 36  1  0
 21 37  1  0
 21 38  1  0
 22 39  1  0
 22 40  1  0
 23 41  1  0
 23 42  1  0
 24 43  1  0
 24 44  1  0
 25 45  1  0
 25 46  1  0
M  ISO  8  30  14  31  14  32  14  33  14  34  14  37  13  38  13  39  13
M  ISO  7  40  13  41  13  42  13  43  13  44  13  45  13  46  13
M  END
>  <minimizedAffinity>  (1) 
-6.11847734

>  <minimizedRMSD>  (1) 
0.54002434

$$$$
