
     RDKit          3D

 43 46  0  0  0  0  0  0  0  0999 V2000
   37.4040   28.6800   42.9250 C   0  0  0  0  0  0  0  0  0  0  0  0
   38.3960   29.7020   43.0430 C   0  0  0  0  0  0  0  0  0  0  0  0
   38.5300   30.6050   41.9780 C   0  0  0  0  0  0  0  0  0  0  0  0
   37.7130   30.4470   40.9140 N   0  0  0  0  0  0  0  0  0  0  0  0
   36.7900   29.4730   40.8390 C   0  0  0  0  0  0  0  0  0  0  0  0
   36.6300   28.5880   41.8370 N   0  0  0  0  0  0  0  0  0  0  0  0
   35.9670   29.3870   39.6650 N   0  0  0  0  0  0  0  0  0  0  0  0
   34.6810   29.0970   39.7520 N   0  0  0  0  0  0  0  0  0  0  0  0
   34.0900   29.0630   38.5620 C   0  0  0  0  0  0  0  0  0  0  0  0
   35.0630   29.3510   37.6540 C   0  0  0  0  0  0  0  0  0  0  0  0
   36.2450   29.5540   38.3550 C   0  0  0  0  0  0  0  0  0  0  0  0
   37.5820   29.8740   38.0120 N   0  0  0  0  0  0  0  0  0  0  0  0
   38.3690   28.7670   37.8510 C   0  0  0  0  0  0  0  0  0  0  0  0
   39.6930   28.9250   37.5170 C   0  0  0  0  0  0  0  0  0  0  0  0
   40.2170   30.1860   37.3480 C   0  0  0  0  0  0  0  0  0  0  0  0
   41.5690   30.3900   37.0060 N   0  0  0  0  0  0  0  0  0  0  0  0
   39.4020   31.2770   37.5160 N   0  0  0  0  0  0  0  0  0  0  0  0
   38.1140   31.0920   37.8430 C   0  0  0  0  0  0  0  0  0  0  0  0
   37.2740   32.0420   38.0220 O   0  0  0  0  0  0  0  0  0  0  0  0
   40.5900   27.8350   37.3280 N   0  0  0  0  0  0  0  0  0  0  0  0
   42.0210   27.6020   37.5060 C   0  0  0  0  0  0  0  0  0  0  0  0
   42.1770   26.2550   38.1660 C   0  0  0  0  0  0  0  0  0  0  0  0
   40.7560   25.7210   38.1010 C   0  0  0  0  0  0  0  0  0  0  0  0
   40.3120   26.4760   36.8450 C   0  0  0  0  0  0  0  0  0  0  0  0
   37.2500   27.7240   44.0360 C   0  0  0  0  0  0  0  0  0  0  0  0
   36.7660   28.3200   45.1730 F   0  0  0  0  0  0  0  0  0  0  0  0
   38.4660   27.0700   44.3010 F   0  0  0  0  0  0  0  0  0  0  0  0
   36.3360   26.7530   43.6210 F   0  0  0  0  0  0  0  0  0  0  0  0
   39.0319   29.7778   43.9373 H   0  0  0  0  0  0  0  0  0  0  0  0
   39.2748   31.4139   42.0083 H   0  0  0  0  0  0  0  0  0  0  0  0
   33.0319   28.8466   38.3534 H   0  0  0  0  0  0  0  0  0  0  0  0
   34.9361   29.4119   36.5630 H   0  0  0  0  0  0  0  0  0  0  0  0
   37.9467   27.7605   37.9874 H   0  0  0  0  0  0  0  0  0  0  0  0
   42.1949   29.5823   36.8760 H   0  0  0  0  0  0  0  0  0  0  0  0
   41.9312   31.3467   36.8860 H   0  0  0  0  0  0  0  0  0  0  0  0
   42.5271   27.6036   36.5293 H   0  0  0  0  0  0  0  0  0  0  0  0
   42.4706   28.3931   38.1241 H   0  0  0  0  0  0  0  0  0  0  0  0
   42.8740   25.6123   37.6082 H   0  0  0  0  0  0  0  0  0  0  0  0
   42.5941   26.2988   39.1829 H   0  0  0  0  0  0  0  0  0  0  0  0
   40.7251   24.6298   37.9657 H   0  0  0  0  0  0  0  0  0  0  0  0
   40.1397   25.8683   39.0001 H   0  0  0  0  0  0  0  0  0  0  0  0
   39.2466   26.3220   36.6189 H   0  0  0  0  0  0  0  0  0  0  0  0
   40.8003   26.1844   35.9034 H   0  0  0  0  0  0  0  0  0  0  0  0
  1  2  2  0
  1 25  1  0
  3  2  1  0
  4  3  2  0
  5  4  1  0
  5  6  2  0
  6  1  1  0
  7  8  1  0
  7  5  1  0
  9  8  2  0
 10 11  2  0
 10  9  1  0
 11  7  1  0
 12 11  1  0
 13 12  1  0
 14 13  2  0
 15 17  2  0
 15 14  1  0
 16 15  1  0
 17 18  1  0
 18 12  1  0
 18 19  2  0
 20 21  1  0
 20 14  1  0
 21 22  1  0
 23 22  1  0
 24 20  1  0
 24 23  1  0
 25 27  1  0
 25 26  1  0
 28 25  1  0
  2 29  1  0
  3 30  1  0
  9 31  1  0
 10 32  1  0
 13 33  1  0
 16 34  1  0
 16 35  1  0
 21 36  1  0
 21 37  1  0
 22 38  1  0
 22 39  1  0
 23 40  1  0
 23 41  1  0
 24 42  1  0
 24 43  1  0
M  ISO  8  29  14  30  14  31  14  32  14  33  14  36  13  37  13  38  13
M  ISO  5  39  13  40  13  41  13  42  13  43  13
M  END
>  <minimizedAffinity>  (1) 
-6.11234903

>  <minimizedRMSD>  (1) 
0.0474151485

$$$$
