
     RDKit          3D

 32 34  0  0  0  0  0  0  0  0999 V2000
   37.4140   28.6760   42.9160 C   0  0  0  0  0  0  0  0  0  0  0  0
   38.3950   29.7020   43.0250 C   0  0  0  0  0  0  0  0  0  0  0  0
   38.5220   30.5940   41.9660 C   0  0  0  0  0  0  0  0  0  0  0  0
   37.7090   30.4400   40.8900 N   0  0  0  0  0  0  0  0  0  0  0  0
   36.7830   29.4480   40.8190 C   0  0  0  0  0  0  0  0  0  0  0  0
   36.6370   28.5740   41.8220 N   0  0  0  0  0  0  0  0  0  0  0  0
   35.9780   29.3640   39.6550 N   0  0  0  0  0  0  0  0  0  0  0  0
   34.6860   29.0770   39.7360 N   0  0  0  0  0  0  0  0  0  0  0  0
   34.1010   29.0430   38.5440 C   0  0  0  0  0  0  0  0  0  0  0  0
   35.0730   29.3250   37.6310 C   0  0  0  0  0  0  0  0  0  0  0  0
   36.2480   29.5250   38.3400 C   0  0  0  0  0  0  0  0  0  0  0  0
   37.5920   29.8420   37.9990 N   0  0  0  0  0  0  0  0  0  0  0  0
   38.3770   28.7390   37.8290 C   0  0  0  0  0  0  0  0  0  0  0  0
   39.7000   28.9040   37.4960 C   0  0  0  0  0  0  0  0  0  0  0  0
   40.2210   30.1820   37.3390 C   0  0  0  0  0  0  0  0  0  0  0  0
   41.5820   30.3860   36.9950 N   0  0  0  0  0  0  0  0  0  0  0  0
   39.3990   31.2570   37.5190 N   0  0  0  0  0  0  0  0  0  0  0  0
   38.1090   31.0700   37.8450 C   0  0  0  0  0  0  0  0  0  0  0  0
   37.2850   32.0170   38.0290 O   0  0  0  0  0  0  0  0  0  0  0  0
   40.7950   27.5260   37.2540 S   0  0  0  0  0  0  0  0  0  0  0  0
   37.2580   27.7160   44.0260 C   0  0  0  0  0  0  0  0  0  0  0  0
   36.7560   28.3120   45.1520 F   0  0  0  0  0  0  0  0  0  0  0  0
   38.4670   27.0770   44.3030 F   0  0  0  0  0  0  0  0  0  0  0  0
   36.3480   26.7440   43.6120 F   0  0  0  0  0  0  0  0  0  0  0  0
   39.0318   29.7863   43.9180 H   0  0  0  0  0  0  0  0  0  0  0  0
   39.2639   31.4054   41.9994 H   0  0  0  0  0  0  0  0  0  0  0  0
   33.0423   28.8296   38.3351 H   0  0  0  0  0  0  0  0  0  0  0  0
   34.9490   29.3829   36.5395 H   0  0  0  0  0  0  0  0  0  0  0  0
   37.9563   27.7307   37.9569 H   0  0  0  0  0  0  0  0  0  0  0  0
   41.9472   31.3426   36.8837 H   0  0  0  0  0  0  0  0  0  0  0  0
   42.2050   29.5775   36.8566 H   0  0  0  0  0  0  0  0  0  0  0  0
   41.1859   27.0341   38.4714 H   0  0  0  0  0  0  0  0  0  0  0  0
  1  2  2  0
  1 21  1  0
  3  2  1  0
  4  3  2  0
  5  4  1  0
  5  6  2  0
  6  1  1  0
  7  8  1  0
  7  5  1  0
  9  8  2  0
 10 11  2  0
 10  9  1  0
 11  7  1  0
 12 11  1  0
 13 12  1  0
 14 13  2  0
 15 14  1  0
 15 17  2  0
 16 15  1  0
 17 18  1  0
 18 12  1  0
 18 19  2  0
 20 14  1  0
 21 23  1  0
 21 22  1  0
 24 21  1  0
  2 25  1  0
  3 26  1  0
  9 27  1  0
 10 28  1  0
 13 29  1  0
 16 30  1  0
 16 31  1  0
 20 32  1  0
M  ISO  6  25  14  26  14  27  14  28  14  29  14  32  11
M  END
>  <minimizedAffinity>  (1) 
-6.11180019

>  <minimizedRMSD>  (1) 
0.0344502851

$$$$
