
     RDKit          3D

 33 35  0  0  0  0  0  0  0  0999 V2000
   37.4060   28.6800   42.9210 C   0  0  0  0  0  0  0  0  0  0  0  0
   38.3910   29.7020   43.0360 C   0  0  0  0  0  0  0  0  0  0  0  0
   38.5270   30.6010   41.9710 C   0  0  0  0  0  0  0  0  0  0  0  0
   37.7110   30.4340   40.9010 N   0  0  0  0  0  0  0  0  0  0  0  0
   36.7920   29.4540   40.8280 C   0  0  0  0  0  0  0  0  0  0  0  0
   36.6370   28.5860   41.8220 N   0  0  0  0  0  0  0  0  0  0  0  0
   35.9770   29.3650   39.6480 N   0  0  0  0  0  0  0  0  0  0  0  0
   34.6920   29.0750   39.7350 N   0  0  0  0  0  0  0  0  0  0  0  0
   34.1070   29.0390   38.5400 C   0  0  0  0  0  0  0  0  0  0  0  0
   35.0840   29.3260   37.6330 C   0  0  0  0  0  0  0  0  0  0  0  0
   36.2520   29.5290   38.3370 C   0  0  0  0  0  0  0  0  0  0  0  0
   37.6050   29.8530   37.9980 N   0  0  0  0  0  0  0  0  0  0  0  0
   38.3850   28.7400   37.8370 C   0  0  0  0  0  0  0  0  0  0  0  0
   39.7160   28.9070   37.5070 C   0  0  0  0  0  0  0  0  0  0  0  0
   40.2300   30.1800   37.3450 C   0  0  0  0  0  0  0  0  0  0  0  0
   41.5870   30.3700   37.0080 N   0  0  0  0  0  0  0  0  0  0  0  0
   39.4140   31.2560   37.5150 N   0  0  0  0  0  0  0  0  0  0  0  0
   38.1300   31.0700   37.8340 C   0  0  0  0  0  0  0  0  0  0  0  0
   37.2980   32.0200   38.0110 O   0  0  0  0  0  0  0  0  0  0  0  0
   40.5400   27.7430   37.3380 N   0  0  0  0  0  0  0  0  0  0  0  0
   37.2460   27.7230   44.0320 C   0  0  0  0  0  0  0  0  0  0  0  0
   36.7540   28.3240   45.1580 F   0  0  0  0  0  0  0  0  0  0  0  0
   38.4630   27.0860   44.3090 F   0  0  0  0  0  0  0  0  0  0  0  0
   36.3430   26.7470   43.6190 F   0  0  0  0  0  0  0  0  0  0  0  0
   39.0242   29.7826   43.9319 H   0  0  0  0  0  0  0  0  0  0  0  0
   39.2686   31.4129   42.0013 H   0  0  0  0  0  0  0  0  0  0  0  0
   33.0499   28.8218   38.3272 H   0  0  0  0  0  0  0  0  0  0  0  0
   34.9627   29.3847   36.5413 H   0  0  0  0  0  0  0  0  0  0  0  0
   37.9609   27.7335   37.9676 H   0  0  0  0  0  0  0  0  0  0  0  0
   41.9597   31.3229   36.8897 H   0  0  0  0  0  0  0  0  0  0  0  0
   42.2048   29.5558   36.8803 H   0  0  0  0  0  0  0  0  0  0  0  0
   41.5347   27.8475   37.0919 H   0  0  0  0  0  0  0  0  0  0  0  0
   40.1363   26.8037   37.4628 H   0  0  0  0  0  0  0  0  0  0  0  0
  1  2  2  0
  1 21  1  0
  3  2  1  0
  4  3  2  0
  5  4  1  0
  5  6  2  0
  6  1  1  0
  7  8  1  0
  7  5  1  0
  9  8  2  0
 10 11  2  0
 10  9  1  0
 11  7  1  0
 12 11  1  0
 13 12  1  0
 14 13  2  0
 15 14  1  0
 15 17  2  0
 16 15  1  0
 17 18  1  0
 18 12  1  0
 18 19  2  0
 20 14  1  0
 21 23  1  0
 21 22  1  0
 24 21  1  0
  2 25  1  0
  3 26  1  0
  9 27  1  0
 10 28  1  0
 13 29  1  0
 16 30  1  0
 16 31  1  0
 20 32  1  0
 20 33  1  0
M  ISO  5  25  14  26  14  27  14  28  14  29  14
M  END
>  <minimizedAffinity>  (1) 
-6.08372593

>  <minimizedRMSD>  (1) 
0.0226743557

$$$$
