
     RDKit          3D

 36 39  0  0  1  0  0  0  0  0999 V2000
   36.9330   30.6030   41.1820 C   0  0  0  0  0  0  0  0  0  0  0  0
   37.8320   29.7600   41.8710 C   0  0  0  0  0  0  0  0  0  0  0  0
   37.4690   28.4130   41.9770 C   0  0  0  0  0  0  0  0  0  0  0  0
   36.3080   28.0070   41.4260 N   0  0  0  0  0  0  0  0  0  0  0  0
   35.4760   28.8530   40.7740 C   0  0  0  0  0  0  0  0  0  0  0  0
   35.8000   30.1540   40.6570 N   0  0  0  0  0  0  0  0  0  0  0  0
   38.2760   27.4360   42.6450 N   0  0  0  0  0  0  0  0  0  0  0  0
   38.6930   27.4150   44.0290 C   0  0  0  0  0  0  0  0  0  0  0  0
   39.9450   26.5700   43.9880 C   0  0  0  0  0  0  0  0  0  0  0  0
   39.5550   25.5050   43.0020 C   0  0  0  0  0  0  0  0  0  0  0  0
   38.7990   26.2780   41.9610 C   0  0  1  0  0  0  0  0  0  0  0  0
   37.8000   25.4930   41.2820 N   0  0  0  0  0  0  0  0  0  0  0  0
   36.9330   24.6330   41.8520 C   0  0  0  0  0  0  0  0  0  0  0  0
   36.1740   24.1070   40.8720 N   0  0  0  0  0  0  0  0  0  0  0  0
   36.5610   24.6350   39.6970 C   0  0  0  0  0  0  0  0  0  0  0  0
   36.0670   24.3910   38.4270 C   0  0  0  0  0  0  0  0  0  0  0  0
   35.1240   23.5760   38.2620 O   0  0  0  0  0  0  0  0  0  0  0  0
   36.6400   25.0630   37.3850 N   0  0  0  0  0  0  0  0  0  0  0  0
   37.6430   25.9110   37.6750 C   0  0  0  0  0  0  0  0  0  0  0  0
   38.2760   26.6370   36.6240 N   0  0  0  0  0  0  0  0  0  0  0  0
   38.1260   26.1520   38.9050 N   0  0  0  0  0  0  0  0  0  0  0  0
   37.6080   25.5280   39.9520 C   0  0  0  0  0  0  0  0  0  0  0  0
   37.1805   31.6696   41.0767 H   0  0  0  0  0  0  0  0  0  0  0  0
   38.7690   30.1424   42.3020 H   0  0  0  0  0  0  0  0  0  0  0  0
   34.5371   28.4778   40.3408 H   0  0  0  0  0  0  0  0  0  0  0  0
   38.9116   28.4299   44.3925 H   0  0  0  0  0  0  0  0  0  0  0  0
   37.9239   27.0215   44.7099 H   0  0  0  0  0  0  0  0  0  0  0  0
   40.8096   27.1497   43.6325 H   0  0  0  0  0  0  0  0  0  0  0  0
   40.2561   26.1811   44.9688 H   0  0  0  0  0  0  0  0  0  0  0  0
   40.4430   25.0210   42.5693 H   0  0  0  0  0  0  0  0  0  0  0  0
   38.9689   24.6893   43.4504 H   0  0  0  0  0  0  0  0  0  0  0  0
   39.4555   26.5841   41.1332 H   0  0  0  0  0  0  0  0  0  0  0  0
   36.8587   24.4022   42.9250 H   0  0  0  0  0  0  0  0  0  0  0  0
   36.3172   24.9260   36.4166 H   0  0  0  0  0  0  0  0  0  0  0  0
   39.0447   27.2882   36.8383 H   0  0  0  0  0  0  0  0  0  0  0  0
   37.9646   26.5104   35.6504 H   0  0  0  0  0  0  0  0  0  0  0  0
  1  2  2  0
  2  3  1  0
  3  7  1  0
  4  3  2  0
  5  4  1  0
  6  5  2  0
  6  1  1  0
  7  8  1  0
  9  8  1  0
 10  9  1  0
 11  7  1  0
 11 10  1  0
 12 13  1  0
 12 11  1  0
 14 13  2  0
 15 22  2  0
 15 14  1  0
 16 15  1  0
 17 16  2  0
 18 19  1  0
 18 16  1  0
 19 21  2  0
 20 19  1  0
 21 22  1  0
 22 12  1  0
  1 23  1  0
  2 24  1  0
  5 25  1  0
  8 26  1  0
  8 27  1  0
  9 28  1  0
  9 29  1  0
 10 30  1  0
 10 31  1  0
 11 32  1  6
 13 33  1  0
 18 34  1  0
 20 35  1  0
 20 36  1  0
M  ISO  8  23  14  24  14  25  14  26  13  27  13  28  13  29  13  30  13
M  ISO  4  31  13  32  13  33  14  34   9
M  END
>  <minimizedAffinity>  (1) 
-5.14279032

>  <minimizedRMSD>  (1) 
0.956435621

$$$$
