
     RDKit          3D

 35 37  0  0  1  0  0  0  0  0999 V2000
   36.9180   30.7500   41.0530 C   0  0  0  0  0  0  0  0  0  0  0  0
   37.7470   29.8520   41.7440 C   0  0  0  0  0  0  0  0  0  0  0  0
   37.3500   28.5250   41.8940 C   0  0  0  0  0  0  0  0  0  0  0  0
   36.1610   28.1770   41.3510 N   0  0  0  0  0  0  0  0  0  0  0  0
   35.3780   29.0560   40.6890 C   0  0  0  0  0  0  0  0  0  0  0  0
   35.7510   30.3370   40.5390 N   0  0  0  0  0  0  0  0  0  0  0  0
   38.1110   27.5360   42.5740 N   0  0  0  0  0  0  0  0  0  0  0  0
   38.5320   27.5360   43.9510 C   0  0  0  0  0  0  0  0  0  0  0  0
   39.7510   26.6260   43.9310 C   0  0  0  0  0  0  0  0  0  0  0  0
   39.2390   25.5360   43.0050 C   0  0  0  0  0  0  0  0  0  0  0  0
   38.5760   26.3530   41.9310 C   0  0  1  0  0  0  0  0  0  0  0  0
   37.5510   25.6240   41.1330 C   0  0  0  0  0  0  0  0  0  0  0  0
   38.1760   25.2780   39.7840 C   0  0  0  0  0  0  0  0  0  0  0  0
   38.5450   23.8140   39.8740 C   0  0  0  0  0  0  0  0  0  0  0  0
   37.4800   23.2370   40.7670 C   0  0  0  0  0  0  0  0  0  0  0  0
   37.0600   24.3510   41.7260 C   0  0  0  0  0  0  0  0  0  0  0  0
   37.2280   31.7985   40.9327 H   0  0  0  0  0  0  0  0  0  0  0  0
   38.7042   30.1941   42.1644 H   0  0  0  0  0  0  0  0  0  0  0  0
   34.4205   28.7174   40.2665 H   0  0  0  0  0  0  0  0  0  0  0  0
   38.7998   28.5498   44.2834 H   0  0  0  0  0  0  0  0  0  0  0  0
   37.7486   27.1992   44.6458 H   0  0  0  0  0  0  0  0  0  0  0  0
   40.6347   27.1337   43.5171 H   0  0  0  0  0  0  0  0  0  0  0  0
   40.0908   26.2788   44.9179 H   0  0  0  0  0  0  0  0  0  0  0  0
   40.0635   24.9309   42.6000 H   0  0  0  0  0  0  0  0  0  0  0  0
   38.5755   24.8055   43.4910 H   0  0  0  0  0  0  0  0  0  0  0  0
   39.2965   26.6071   41.1396 H   0  0  0  0  0  0  0  0  0  0  0  0
   36.6817   26.2956   41.0757 H   0  0  0  0  0  0  0  0  0  0  0  0
   39.0725   25.8904   39.6071 H   0  0  0  0  0  0  0  0  0  0  0  0
   37.4847   25.4745   38.9512 H   0  0  0  0  0  0  0  0  0  0  0  0
   38.5237   23.3415   38.8809 H   0  0  0  0  0  0  0  0  0  0  0  0
   39.5620   23.6517   40.2604 H   0  0  0  0  0  0  0  0  0  0  0  0
   36.6187   22.9088   40.1666 H   0  0  0  0  0  0  0  0  0  0  0  0
   37.8563   22.3621   41.3173 H   0  0  0  0  0  0  0  0  0  0  0  0
   37.5139   24.1923   42.7153 H   0  0  0  0  0  0  0  0  0  0  0  0
   35.9686   24.3695   41.8617 H   0  0  0  0  0  0  0  0  0  0  0  0
  1  2  2  0
  2  3  1  0
  3  7  1  0
  4  3  2  0
  5  4  1  0
  6  5  2  0
  6  1  1  0
  7  8  1  0
  9  8  1  0
 10  9  1  0
 11  7  1  0
 11 10  1  0
 12 16  1  0
 12 11  1  0
 13 14  1  0
 13 12  1  0
 14 15  1  0
 15 16  1  0
  1 17  1  0
  2 18  1  0
  5 19  1  0
  8 20  1  0
  8 21  1  0
  9 22  1  0
  9 23  1  0
 10 24  1  0
 10 25  1  0
 11 26  1  6
 12 27  1  0
 13 28  1  0
 13 29  1  0
 14 30  1  0
 14 31  1  0
 15 32  1  0
 15 33  1  0
 16 34  1  0
 16 35  1  0
M  ISO  8  17  14  18  14  19  14  20  13  21  13  22  13  23  13  24  13
M  ISO  8  25  13  26  13  27  13  28  13  29  13  30  13  31  13  32  13
M  ISO  3  33  13  34  13  35  13
M  END
>  <minimizedAffinity>  (1) 
-4.85699511

>  <minimizedRMSD>  (1) 
0.829922438

$$$$
