
     RDKit          3D

 30 32  0  0  1  0  0  0  0  0999 V2000
   36.7530   30.6700   41.2010 C   0  0  0  0  0  0  0  0  0  0  0  0
   37.6580   29.8300   41.9060 C   0  0  0  0  0  0  0  0  0  0  0  0
   37.3550   28.4520   41.8730 C   0  0  0  0  0  0  0  0  0  0  0  0
   36.2550   28.0060   41.1980 N   0  0  0  0  0  0  0  0  0  0  0  0
   35.4450   28.8790   40.5510 C   0  0  0  0  0  0  0  0  0  0  0  0
   35.6930   30.2030   40.5540 N   0  0  0  0  0  0  0  0  0  0  0  0
   38.1750   27.4770   42.5370 N   0  0  0  0  0  0  0  0  0  0  0  0
   38.4760   27.3710   43.9320 C   0  0  0  0  0  0  0  0  0  0  0  0
   39.7620   26.6080   43.9780 C   0  0  0  0  0  0  0  0  0  0  0  0
   39.5890   25.6310   42.8440 C   0  0  0  0  0  0  0  0  0  0  0  0
   38.8310   26.4200   41.8200 C   0  0  1  0  0  0  0  0  0  0  0  0
   37.9660   25.6030   40.9700 C   0  0  0  0  0  0  0  0  0  0  0  0
   37.0900   24.7220   41.5530 C   0  0  0  0  0  0  0  0  0  0  0  0
   36.2750   23.9500   40.7640 C   0  0  0  0  0  0  0  0  0  0  0  0
   36.3380   24.0600   39.4100 N   0  0  0  0  0  0  0  0  0  0  0  0
   37.2240   24.9490   38.8900 C   0  0  0  0  0  0  0  0  0  0  0  0
   38.0560   25.7380   39.6160 N   0  0  0  0  0  0  0  0  0  0  0  0
   36.9398   31.7540   41.1916 H   0  0  0  0  0  0  0  0  0  0  0  0
   38.5339   30.2268   42.4403 H   0  0  0  0  0  0  0  0  0  0  0  0
   34.5655   28.4979   40.0114 H   0  0  0  0  0  0  0  0  0  0  0  0
   38.5985   28.3678   44.3806 H   0  0  0  0  0  0  0  0  0  0  0  0
   37.6736   26.8749   44.4977 H   0  0  0  0  0  0  0  0  0  0  0  0
   40.6248   27.2688   43.8078 H   0  0  0  0  0  0  0  0  0  0  0  0
   39.9587   26.1295   44.9488 H   0  0  0  0  0  0  0  0  0  0  0  0
   40.5640   25.3083   42.4500 H   0  0  0  0  0  0  0  0  0  0  0  0
   39.0709   24.7089   43.1462 H   0  0  0  0  0  0  0  0  0  0  0  0
   39.5077   26.8554   41.0700 H   0  0  0  0  0  0  0  0  0  0  0  0
   37.0414   24.6351   42.6485 H   0  0  0  0  0  0  0  0  0  0  0  0
   35.5710   23.2425   41.2265 H   0  0  0  0  0  0  0  0  0  0  0  0
   37.2707   25.0361   37.7945 H   0  0  0  0  0  0  0  0  0  0  0  0
  1  2  2  0
  3  2  1  0
  3  7  1  0
  4  3  2  0
  5  6  2  0
  5  4  1  0
  6  1  1  0
  7  8  1  0
  8  9  1  0
 10  9  1  0
 11  7  1  0
 11 10  1  0
 12 13  2  0
 12 11  1  0
 14 13  1  0
 15 14  2  0
 16 15  1  0
 16 17  2  0
 17 12  1  0
  1 18  1  0
  2 19  1  0
  5 20  1  0
  8 21  1  0
  8 22  1  0
  9 23  1  0
  9 24  1  0
 10 25  1  0
 10 26  1  0
 11 27  1  6
 13 28  1  0
 14 29  1  0
 16 30  1  0
M  ISO  8  18  14  19  14  20  14  21  13  22  13  23  13  24  13  25  13
M  ISO  5  26  13  27  13  28  14  29  14  30  14
M  END
>  <minimizedAffinity>  (1) 
-4.72634792

>  <minimizedRMSD>  (1) 
0.324453473

$$$$
