
     RDKit          3D

 37 39  0  0  1  0  0  0  0  0999 V2000
   39.9350   31.8280   39.8400 C   0  0  0  0  0  0  0  0  0  0  0  0
   39.5470   30.6790   40.5770 C   0  0  0  0  0  0  0  0  0  0  0  0
   38.2510   30.5950   41.0100 C   0  0  0  0  0  0  0  0  0  0  0  0
   37.3780   31.6190   40.7170 N   0  0  0  0  0  0  0  0  0  0  0  0
   37.7820   32.7040   40.0090 C   0  0  0  0  0  0  0  0  0  0  0  0
   39.0570   32.8120   39.5700 N   0  0  0  0  0  0  0  0  0  0  0  0
   36.8280   33.7330   39.7380 N   0  0  0  0  0  0  0  0  0  0  0  0
   37.7840   29.4950   41.7450 N   0  0  0  0  0  0  0  0  0  0  0  0
   38.3960   29.1630   43.0100 C   0  0  0  0  0  0  0  0  0  0  0  0
   37.3680   28.3450   43.8030 C   0  0  0  0  0  0  0  0  0  0  0  0
   36.9190   27.1710   43.1230 N   0  0  0  0  0  0  0  0  0  0  0  0
   36.9130   27.2590   41.7030 C   0  0  0  0  0  0  0  0  0  0  0  0
   36.6930   28.6790   41.2560 C   0  0  2  0  0  0  0  0  0  0  0  0
   36.4450   28.7970   39.8090 C   0  0  0  0  0  0  0  0  0  0  0  0
   35.1870   29.1690   39.3340 C   0  0  0  0  0  0  0  0  0  0  0  0
   34.8820   29.2980   38.0050 C   0  0  0  0  0  0  0  0  0  0  0  0
   35.8910   29.0400   37.1500 N   0  0  0  0  0  0  0  0  0  0  0  0
   37.1030   28.6820   37.5860 C   0  0  0  0  0  0  0  0  0  0  0  0
   37.4130   28.5520   38.9000 N   0  0  0  0  0  0  0  0  0  0  0  0
   38.1160   28.4270   36.5800 C   0  0  0  0  0  0  0  0  0  0  0  0
   39.2940   28.1680   36.9370 O   0  0  0  0  0  0  0  0  0  0  0  0
   37.9210   28.4390   35.2100 O   0  0  0  0  0  0  0  0  0  0  0  0
   40.9717   31.9161   39.4830 H   0  0  0  0  0  0  0  0  0  0  0  0
   40.2682   29.8774   40.7945 H   0  0  0  0  0  0  0  0  0  0  0  0
   37.1083   34.5672   39.2028 H   0  0  0  0  0  0  0  0  0  0  0  0
   35.8601   33.6405   40.0779 H   0  0  0  0  0  0  0  0  0  0  0  0
   39.3064   28.5681   42.8449 H   0  0  0  0  0  0  0  0  0  0  0  0
   38.6827   30.0722   43.5587 H   0  0  0  0  0  0  0  0  0  0  0  0
   37.8267   28.0405   44.7553 H   0  0  0  0  0  0  0  0  0  0  0  0
   36.4879   28.9888   43.9475 H   0  0  0  0  0  0  0  0  0  0  0  0
   37.5363   26.3914   43.3914 H   0  0  0  0  0  0  0  0  0  0  0  0
   37.8797   26.9048   41.3157 H   0  0  0  0  0  0  0  0  0  0  0  0
   36.0934   26.6364   41.3148 H   0  0  0  0  0  0  0  0  0  0  0  0
   35.7612   29.0608   41.6987 H   0  0  0  0  0  0  0  0  0  0  0  0
   34.3942   29.3704   40.0695 H   0  0  0  0  0  0  0  0  0  0  0  0
   33.8803   29.5925   37.6588 H   0  0  0  0  0  0  0  0  0  0  0  0
   37.0239   28.6339   34.8394 H   0  0  0  0  0  0  0  0  0  0  0  0
  1  2  2  0
  2  3  1  0
  3  8  1  0
  4  3  2  0
  5  4  1  0
  6  1  1  0
  6  5  2  0
  7  5  1  0
  8  9  1  0
  9 10  1  0
 11 10  1  0
 12 11  1  0
 13 12  1  0
 13  8  1  0
 14 13  1  0
 15 14  2  0
 16 15  1  0
 17 18  1  0
 17 16  2  0
 18 19  2  0
 19 14  1  0
 20 21  2  0
 20 18  1  0
 22 20  1  0
  1 23  1  0
  2 24  1  0
  7 25  1  0
  7 26  1  0
  9 27  1  0
  9 28  1  0
 10 29  1  0
 10 30  1  0
 11 31  1  0
 12 32  1  0
 12 33  1  0
 13 34  1  1
 15 35  1  0
 16 36  1  0
 22 37  1  0
M  ISO  8  23  14  24  14  27  13  28  13  29  13  30  13  31   5  32  13
M  ISO  5  33  13  34  13  35  14  36  14  37   3
M  END
>  <minimizedAffinity>  (1) 
-5.95329142

>  <minimizedRMSD>  (1) 
0.318673581

$$$$
