
     RDKit          3D

 34 35  0  0  1  0  0  0  0  0999 V2000
   36.9070   30.7250   41.0850 C   0  0  0  0  0  0  0  0  0  0  0  0
   37.7800   29.8360   41.7620 C   0  0  0  0  0  0  0  0  0  0  0  0
   37.3450   28.5150   41.8600 C   0  0  0  0  0  0  0  0  0  0  0  0
   36.1550   28.1970   41.3150 N   0  0  0  0  0  0  0  0  0  0  0  0
   35.3490   29.0680   40.6780 C   0  0  0  0  0  0  0  0  0  0  0  0
   35.7450   30.3490   40.5690 N   0  0  0  0  0  0  0  0  0  0  0  0
   38.0700   27.4640   42.4990 N   0  0  0  0  0  0  0  0  0  0  0  0
   38.5100   27.4550   43.8890 C   0  0  0  0  0  0  0  0  0  0  0  0
   39.6580   26.5050   43.8990 C   0  0  0  0  0  0  0  0  0  0  0  0
   39.2470   25.4790   42.8930 C   0  0  0  0  0  0  0  0  0  0  0  0
   38.4760   26.2590   41.8770 C   0  0  2  0  0  0  0  0  0  0  0  0
   39.2390   26.3820   40.6020 C   0  0  0  0  0  0  0  0  0  0  0  0
   40.0000   25.0920   40.3650 C   0  0  0  0  0  0  0  0  0  0  0  0
   40.1440   27.5690   40.5940 C   0  0  0  0  0  0  0  0  0  0  0  0
   38.2800   26.4890   39.4080 C   0  0  0  0  0  0  0  0  0  0  0  0
   37.2086   31.7779   40.9830 H   0  0  0  0  0  0  0  0  0  0  0  0
   38.7403   30.1678   42.1835 H   0  0  0  0  0  0  0  0  0  0  0  0
   34.3879   28.7390   40.2561 H   0  0  0  0  0  0  0  0  0  0  0  0
   38.8308   28.4590   44.2038 H   0  0  0  0  0  0  0  0  0  0  0  0
   37.7102   27.1590   44.5838 H   0  0  0  0  0  0  0  0  0  0  0  0
   40.5895   27.0058   43.5964 H   0  0  0  0  0  0  0  0  0  0  0  0
   39.8648   26.0820   44.8931 H   0  0  0  0  0  0  0  0  0  0  0  0
   40.1278   25.0045   42.4359 H   0  0  0  0  0  0  0  0  0  0  0  0
   38.6583   24.6625   43.3366 H   0  0  0  0  0  0  0  0  0  0  0  0
   37.5582   25.7484   41.5501 H   0  0  0  0  0  0  0  0  0  0  0  0
   40.2664   24.6405   41.3320 H   0  0  0  0  0  0  0  0  0  0  0  0
   39.3693   24.3935   39.7955 H   0  0  0  0  0  0  0  0  0  0  0  0
   40.9164   25.3062   39.7955 H   0  0  0  0  0  0  0  0  0  0  0  0
   40.3697   27.8650   41.6291 H   0  0  0  0  0  0  0  0  0  0  0  0
   41.0789   27.3138   40.0735 H   0  0  0  0  0  0  0  0  0  0  0  0
   39.6504   28.4029   40.0735 H   0  0  0  0  0  0  0  0  0  0  0  0
   37.2493   26.6040   39.7747 H   0  0  0  0  0  0  0  0  0  0  0  0
   38.5514   27.3624   38.7969 H   0  0  0  0  0  0  0  0  0  0  0  0
   38.3522   25.5772   38.7969 H   0  0  0  0  0  0  0  0  0  0  0  0
  1  2  2  0
  2  3  1  0
  3  7  1  0
  4  3  2  0
  5  4  1  0
  6  5  2  0
  6  1  1  0
  7  8  1  0
  8  9  1  0
 10  9  1  0
 11  7  1  0
 11 10  1  0
 12 11  1  0
 13 12  1  0
 14 12  1  0
 15 12  1  0
  1 16  1  0
  2 17  1  0
  5 18  1  0
  8 19  1  0
  8 20  1  0
  9 21  1  0
  9 22  1  0
 10 23  1  0
 10 24  1  0
 11 25  1  6
 13 26  1  0
 13 27  1  0
 13 28  1  0
 14 29  1  0
 14 30  1  0
 14 31  1  0
 15 32  1  0
 15 33  1  0
 15 34  1  0
M  ISO  8  16  14  17  14  18  14  19  13  20  13  21  13  22  13  23  13
M  ISO  8  24  13  25  13  26   8  27   8  28   8  29   8  30   8  31   8
M  ISO  3  32   8  33   8  34   8
M  END
>  <minimizedAffinity>  (1) 
-4.07249928

>  <minimizedRMSD>  (1) 
0.553681552

$$$$
