
     RDKit          3D

 24 25  0  0  1  0  0  0  0  0999 V2000
   36.9890   30.7050   41.0330 C   0  0  0  0  0  0  0  0  0  0  0  0
   37.8160   29.8030   41.7140 C   0  0  0  0  0  0  0  0  0  0  0  0
   37.3650   28.4740   41.8770 C   0  0  0  0  0  0  0  0  0  0  0  0
   36.1600   28.1580   41.3630 N   0  0  0  0  0  0  0  0  0  0  0  0
   35.3830   29.0460   40.7110 C   0  0  0  0  0  0  0  0  0  0  0  0
   35.8020   30.3280   40.5470 N   0  0  0  0  0  0  0  0  0  0  0  0
   38.1170   27.4660   42.5500 N   0  0  0  0  0  0  0  0  0  0  0  0
   38.5470   27.4640   43.9270 C   0  0  0  0  0  0  0  0  0  0  0  0
   39.7310   26.5320   43.9150 C   0  0  0  0  0  0  0  0  0  0  0  0
   39.3290   25.4910   42.9130 C   0  0  0  0  0  0  0  0  0  0  0  0
   38.5510   26.2700   41.8770 C   0  0  1  0  0  0  0  0  0  0  0  0
   37.4380   25.4680   41.3010 C   0  0  0  0  0  0  0  0  0  0  0  0
   36.7770   24.6930   42.0100 O   0  0  0  0  0  0  0  0  0  0  0  0
   37.3226   31.7441   40.8953 H   0  0  0  0  0  0  0  0  0  0  0  0
   38.7911   30.1209   42.1116 H   0  0  0  0  0  0  0  0  0  0  0  0
   34.4077   28.7320   40.3109 H   0  0  0  0  0  0  0  0  0  0  0  0
   38.8424   28.4733   44.2497 H   0  0  0  0  0  0  0  0  0  0  0  0
   37.7574   27.1503   44.6257 H   0  0  0  0  0  0  0  0  0  0  0  0
   40.6439   27.0563   43.5961 H   0  0  0  0  0  0  0  0  0  0  0  0
   39.9643   26.1140   44.9053 H   0  0  0  0  0  0  0  0  0  0  0  0
   40.2141   25.0169   42.4638 H   0  0  0  0  0  0  0  0  0  0  0  0
   38.7433   24.6740   43.3597 H   0  0  0  0  0  0  0  0  0  0  0  0
   39.1637   26.5258   41.0000 H   0  0  0  0  0  0  0  0  0  0  0  0
   37.1977   25.5633   40.2318 H   0  0  0  0  0  0  0  0  0  0  0  0
  1  2  2  0
  2  3  1  0
  3  7  1  0
  4  3  2  0
  5  4  1  0
  6  5  2  0
  6  1  1  0
  7  8  1  0
  9  8  1  0
 10  9  1  0
 11  7  1  0
 11 10  1  0
 12 11  1  0
 12 13  2  0
  1 14  1  0
  2 15  1  0
  5 16  1  0
  8 17  1  0
  8 18  1  0
  9 19  1  0
  9 20  1  0
 10 21  1  0
 10 22  1  0
 11 23  1  6
 12 24  1  0
M  ISO  8  14  14  15  14  16  14  17  13  18  13  19  13  20  13  21  13
M  ISO  3  22  13  23  13  24   6
M  END
>  <minimizedAffinity>  (1) 
-3.95679379

>  <minimizedRMSD>  (1) 
0.298372746

$$$$
