
     RDKit          3D

 25 26  0  0  1  0  0  0  0  0999 V2000
   36.8620   30.7500   41.1450 C   0  0  0  0  0  0  0  0  0  0  0  0
   37.7090   29.8450   41.8010 C   0  0  0  0  0  0  0  0  0  0  0  0
   37.3280   28.5080   41.8570 C   0  0  0  0  0  0  0  0  0  0  0  0
   36.1530   28.1590   41.2690 N   0  0  0  0  0  0  0  0  0  0  0  0
   35.3580   29.0480   40.6450 C   0  0  0  0  0  0  0  0  0  0  0  0
   35.7090   30.3420   40.5810 N   0  0  0  0  0  0  0  0  0  0  0  0
   38.0860   27.4720   42.4900 N   0  0  0  0  0  0  0  0  0  0  0  0
   38.4690   27.4290   43.8930 C   0  0  0  0  0  0  0  0  0  0  0  0
   39.6330   26.4990   43.9190 C   0  0  0  0  0  0  0  0  0  0  0  0
   39.3420   25.5260   42.8170 C   0  0  0  0  0  0  0  0  0  0  0  0
   38.5700   26.3240   41.8060 C   0  0  2  0  0  0  0  0  0  0  0  0
   39.4960   26.6310   40.6510 C   0  0  0  0  0  0  0  0  0  0  0  0
   40.3230   27.7060   40.9220 F   0  0  0  0  0  0  0  0  0  0  0  0
   38.8180   26.8300   39.4790 F   0  0  0  0  0  0  0  0  0  0  0  0
   40.3750   25.5530   40.4710 F   0  0  0  0  0  0  0  0  0  0  0  0
   37.1443   31.8117   41.0901 H   0  0  0  0  0  0  0  0  0  0  0  0
   38.6500   30.1833   42.2593 H   0  0  0  0  0  0  0  0  0  0  0  0
   34.4165   28.7126   40.1855 H   0  0  0  0  0  0  0  0  0  0  0  0
   38.7585   28.4282   44.2504 H   0  0  0  0  0  0  0  0  0  0  0  0
   37.6481   27.0991   44.5467 H   0  0  0  0  0  0  0  0  0  0  0  0
   40.5708   27.0404   43.7255 H   0  0  0  0  0  0  0  0  0  0  0  0
   39.7620   26.0082   44.8950 H   0  0  0  0  0  0  0  0  0  0  0  0
   40.2758   25.1432   42.3795 H   0  0  0  0  0  0  0  0  0  0  0  0
   38.7836   24.6470   43.1713 H   0  0  0  0  0  0  0  0  0  0  0  0
   37.7054   25.7968   41.3764 H   0  0  0  0  0  0  0  0  0  0  0  0
  1  2  2  0
  2  3  1  0
  3  7  1  0
  4  3  2  0
  5  4  1  0
  6  5  2  0
  6  1  1  0
  7  8  1  0
  8  9  1  0
 10  9  1  0
 11  7  1  0
 11 10  1  0
 12 13  1  0
 12 11  1  0
 14 12  1  0
 15 12  1  0
  1 16  1  0
  2 17  1  0
  5 18  1  0
  8 19  1  0
  8 20  1  0
  9 21  1  0
  9 22  1  0
 10 23  1  0
 10 24  1  0
 11 25  1  6
M  ISO  8  16  14  17  14  18  14  19  13  20  13  21  13  22  13  23  13
M  ISO  2  24  13  25  13
M  END
>  <minimizedAffinity>  (1) 
-3.95448947

>  <minimizedRMSD>  (1) 
0.378785998

$$$$
