
     RDKit          3D

 47 51  0  0  1  0  0  0  0  0999 V2000
   36.8680   30.6700   41.1840 C   0  0  0  0  0  0  0  0  0  0  0  0
   37.7370   29.8010   41.8400 C   0  0  0  0  0  0  0  0  0  0  0  0
   37.3730   28.4520   41.9650 C   0  0  0  0  0  0  0  0  0  0  0  0
   36.1890   28.0910   41.4320 N   0  0  0  0  0  0  0  0  0  0  0  0
   35.3640   28.9440   40.8010 C   0  0  0  0  0  0  0  0  0  0  0  0
   35.7060   30.2450   40.6760 N   0  0  0  0  0  0  0  0  0  0  0  0
   38.1810   27.4800   42.6140 N   0  0  0  0  0  0  0  0  0  0  0  0
   38.6160   27.4740   43.9940 C   0  0  0  0  0  0  0  0  0  0  0  0
   39.8690   26.6020   43.9490 C   0  0  0  0  0  0  0  0  0  0  0  0
   39.3980   25.5300   42.9980 C   0  0  0  0  0  0  0  0  0  0  0  0
   38.6900   26.3290   41.9420 C   0  0  1  0  0  0  0  0  0  0  0  0
   37.7270   25.5580   41.2000 N   0  0  0  0  0  0  0  0  0  0  0  0
   37.0300   24.4810   41.6770 C   0  0  0  0  0  0  0  0  0  0  0  0
   36.2090   23.9590   40.7770 N   0  0  0  0  0  0  0  0  0  0  0  0
   36.3590   24.7060   39.6690 C   0  0  0  0  0  0  0  0  0  0  0  0
   35.7460   24.6050   38.4330 C   0  0  0  0  0  0  0  0  0  0  0  0
   36.1080   25.5210   37.4870 N   0  0  0  0  0  0  0  0  0  0  0  0
   37.0290   26.4660   37.7910 C   0  0  0  0  0  0  0  0  0  0  0  0
   37.6180   26.5640   38.9780 N   0  0  0  0  0  0  0  0  0  0  0  0
   37.3120   25.6980   39.9560 C   0  0  0  0  0  0  0  0  0  0  0  0
   37.3320   27.3700   36.7320 N   0  0  0  0  0  0  0  0  0  0  0  0
   36.6710   27.2360   35.4480 C   0  0  0  0  0  0  0  0  0  0  0  0
   36.1300   28.5800   35.0320 C   0  0  0  0  0  0  0  0  0  0  0  0
   36.2520   29.6000   36.0040 N   0  0  0  0  0  0  0  0  0  0  0  0
   37.4640   29.7210   36.7190 C   0  0  0  0  0  0  0  0  0  0  0  0
   38.2870   28.4590   36.8340 C   0  0  0  0  0  0  0  0  0  0  0  0
   37.1438   31.7299   41.0815 H   0  0  0  0  0  0  0  0  0  0  0  0
   38.6897   30.1654   42.2518 H   0  0  0  0  0  0  0  0  0  0  0  0
   34.4111   28.5831   40.3867 H   0  0  0  0  0  0  0  0  0  0  0  0
   38.8531   28.4911   44.3393 H   0  0  0  0  0  0  0  0  0  0  0  0
   37.8506   27.1015   44.6907 H   0  0  0  0  0  0  0  0  0  0  0  0
   40.7356   27.1504   43.5512 H   0  0  0  0  0  0  0  0  0  0  0  0
   40.2191   26.2377   44.9261 H   0  0  0  0  0  0  0  0  0  0  0  0
   40.2463   24.9725   42.5742 H   0  0  0  0  0  0  0  0  0  0  0  0
   38.7637   24.7671   43.4729 H   0  0  0  0  0  0  0  0  0  0  0  0
   39.3677   26.6480   41.1364 H   0  0  0  0  0  0  0  0  0  0  0  0
   37.1396   24.0900   42.6993 H   0  0  0  0  0  0  0  0  0  0  0  0
   35.0015   23.8232   38.2219 H   0  0  0  0  0  0  0  0  0  0  0  0
   37.3921   26.8803   34.6973 H   0  0  0  0  0  0  0  0  0  0  0  0
   35.8466   26.5121   35.5281 H   0  0  0  0  0  0  0  0  0  0  0  0
   36.6714   28.9015   34.1301 H   0  0  0  0  0  0  0  0  0  0  0  0
   35.0515   28.4397   34.8671 H   0  0  0  0  0  0  0  0  0  0  0  0
   36.0945   30.4967   35.5223 H   0  0  0  0  0  0  0  0  0  0  0  0
   38.0793   30.4807   36.2147 H   0  0  0  0  0  0  0  0  0  0  0  0
   37.1794   29.9875   37.7476 H   0  0  0  0  0  0  0  0  0  0  0  0
   38.8081   28.4254   37.8021 H   0  0  0  0  0  0  0  0  0  0  0  0
   39.0610   28.4009   36.0545 H   0  0  0  0  0  0  0  0  0  0  0  0
  1  2  2  0
  2  3  1  0
  3  7  1  0
  4  3  2  0
  5  4  1  0
  6  5  2  0
  6  1  1  0
  7  8  1  0
  9  8  1  0
 10  9  1  0
 11  7  1  0
 11 10  1  0
 12 13  1  0
 12 11  1  0
 14 13  2  0
 15 20  2  0
 15 14  1  0
 16 15  1  0
 17 18  1  0
 17 16  2  0
 18 19  2  0
 19 20  1  0
 20 12  1  0
 21 26  1  0
 21 18  1  0
 22 21  1  0
 23 22  1  0
 23 24  1  0
 24 25  1  0
 25 26  1  0
  1 27  1  0
  2 28  1  0
  5 29  1  0
  8 30  1  0
  8 31  1  0
  9 32  1  0
  9 33  1  0
 10 34  1  0
 10 35  1  0
 11 36  1  6
 13 37  1  0
 16 38  1  0
 22 39  1  0
 22 40  1  0
 23 41  1  0
 23 42  1  0
 24 43  1  0
 25 44  1  0
 25 45  1  0
 26 46  1  0
 26 47  1  0
M  ISO  8  27  14  28  14  29  14  30  13  31  13  32  13  33  13  34  13
M  ISO  8  35  13  36  13  37  14  38  14  39  13  40  13  41  13  42  13
M  ISO  5  43   5  44  13  45  13  46  13  47  13
M  END
>  <minimizedAffinity>  (1) 
-5.94298124

>  <minimizedRMSD>  (1) 
0.588654876

$$$$
