
     RDKit          3D

 49 53  0  0  1  0  0  0  0  0999 V2000
   36.8460   30.6820   41.1790 C   0  0  0  0  0  0  0  0  0  0  0  0
   37.7280   29.8090   41.8290 C   0  0  0  0  0  0  0  0  0  0  0  0
   37.3710   28.4700   41.9490 C   0  0  0  0  0  0  0  0  0  0  0  0
   36.1820   28.1010   41.4240 N   0  0  0  0  0  0  0  0  0  0  0  0
   35.3570   28.9610   40.8060 C   0  0  0  0  0  0  0  0  0  0  0  0
   35.6900   30.2550   40.6840 N   0  0  0  0  0  0  0  0  0  0  0  0
   38.1800   27.4820   42.5870 N   0  0  0  0  0  0  0  0  0  0  0  0
   38.6170   27.4690   43.9810 C   0  0  0  0  0  0  0  0  0  0  0  0
   39.8730   26.6120   43.9160 C   0  0  0  0  0  0  0  0  0  0  0  0
   39.4030   25.5400   42.9640 C   0  0  0  0  0  0  0  0  0  0  0  0
   38.6880   26.3330   41.9160 C   0  0  1  0  0  0  0  0  0  0  0  0
   37.7260   25.5780   41.1670 N   0  0  0  0  0  0  0  0  0  0  0  0
   37.0680   24.4730   41.6320 C   0  0  0  0  0  0  0  0  0  0  0  0
   36.2200   23.9460   40.7430 N   0  0  0  0  0  0  0  0  0  0  0  0
   36.3180   24.7180   39.6660 C   0  0  0  0  0  0  0  0  0  0  0  0
   35.6680   24.6460   38.4360 C   0  0  0  0  0  0  0  0  0  0  0  0
   35.9800   25.5910   37.5150 N   0  0  0  0  0  0  0  0  0  0  0  0
   36.8980   26.5650   37.8080 C   0  0  0  0  0  0  0  0  0  0  0  0
   37.5240   26.6370   38.9880 N   0  0  0  0  0  0  0  0  0  0  0  0
   37.2530   25.7240   39.9420 C   0  0  0  0  0  0  0  0  0  0  0  0
   37.0930   27.4960   36.6660 C   0  0  0  0  0  0  0  0  0  0  0  0
   36.4740   27.0550   35.3910 C   0  0  0  0  0  0  0  0  0  0  0  0
   35.2950   27.8620   34.9400 C   0  0  0  0  0  0  0  0  0  0  0  0
   35.4430   29.3510   35.0920 C   0  0  0  0  0  0  0  0  0  0  0  0
   36.7140   29.7400   35.8480 C   0  0  0  0  0  0  0  0  0  0  0  0
   36.6600   28.8720   37.1110 C   0  0  0  0  0  0  0  0  0  0  0  0
   37.1166   31.7433   41.0765 H   0  0  0  0  0  0  0  0  0  0  0  0
   38.6824   30.1746   42.2358 H   0  0  0  0  0  0  0  0  0  0  0  0
   34.4011   28.6022   40.3967 H   0  0  0  0  0  0  0  0  0  0  0  0
   38.8450   28.4845   44.3370 H   0  0  0  0  0  0  0  0  0  0  0  0
   37.8571   27.0867   44.6785 H   0  0  0  0  0  0  0  0  0  0  0  0
   40.7295   27.1714   43.5117 H   0  0  0  0  0  0  0  0  0  0  0  0
   40.2369   26.2451   44.8871 H   0  0  0  0  0  0  0  0  0  0  0  0
   40.2524   24.9881   42.5352 H   0  0  0  0  0  0  0  0  0  0  0  0
   38.7744   24.7734   43.4406 H   0  0  0  0  0  0  0  0  0  0  0  0
   39.3699   26.6429   41.1104 H   0  0  0  0  0  0  0  0  0  0  0  0
   37.2215   24.0583   42.6392 H   0  0  0  0  0  0  0  0  0  0  0  0
   34.9330   23.8563   38.2211 H   0  0  0  0  0  0  0  0  0  0  0  0
   38.1614   27.5114   36.4048 H   0  0  0  0  0  0  0  0  0  0  0  0
   37.2417   27.1059   34.6048 H   0  0  0  0  0  0  0  0  0  0  0  0
   36.0958   26.0380   35.5717 H   0  0  0  0  0  0  0  0  0  0  0  0
   34.4207   27.5451   35.5275 H   0  0  0  0  0  0  0  0  0  0  0  0
   35.1907   27.6739   33.8612 H   0  0  0  0  0  0  0  0  0  0  0  0
   35.4749   29.8061   34.0911 H   0  0  0  0  0  0  0  0  0  0  0  0
   34.5836   29.7141   35.6748 H   0  0  0  0  0  0  0  0  0  0  0  0
   37.6106   29.5125   35.2527 H   0  0  0  0  0  0  0  0  0  0  0  0
   36.7677   30.8160   36.0700 H   0  0  0  0  0  0  0  0  0  0  0  0
   35.6373   28.8425   37.5150 H   0  0  0  0  0  0  0  0  0  0  0  0
   37.3056   29.2676   37.9090 H   0  0  0  0  0  0  0  0  0  0  0  0
  1  2  2  0
  2  3  1  0
  3  7  1  0
  4  3  2  0
  5  4  1  0
  6  5  2  0
  6  1  1  0
  7  8  1  0
  9  8  1  0
 10  9  1  0
 11  7  1  0
 11 10  1  0
 12 13  1  0
 12 11  1  0
 14 13  2  0
 15 20  2  0
 15 14  1  0
 16 15  1  0
 17 18  1  0
 17 16  2  0
 18 19  2  0
 19 20  1  0
 20 12  1  0
 21 26  1  0
 21 18  1  0
 22 21  1  0
 23 24  1  0
 23 22  1  0
 24 25  1  0
 25 26  1  0
  1 27  1  0
  2 28  1  0
  5 29  1  0
  8 30  1  0
  8 31  1  0
  9 32  1  0
  9 33  1  0
 10 34  1  0
 10 35  1  0
 11 36  1  6
 13 37  1  0
 16 38  1  0
 21 39  1  0
 22 40  1  0
 22 41  1  0
 23 42  1  0
 23 43  1  0
 24 44  1  0
 24 45  1  0
 25 46  1  0
 25 47  1  0
 26 48  1  0
 26 49  1  0
M  ISO  8  27  14  28  14  29  14  30  13  31  13  32  13  33  13  34  13
M  ISO  8  35  13  36  13  37  14  38  14  39  13  40  13  41  13  42  13
M  ISO  7  43  13  44  13  45  13  46  13  47  13  48  13  49  13
M  END
>  <minimizedAffinity>  (1) 
-5.79028177

>  <minimizedRMSD>  (1) 
0.882354796

$$$$
