
     RDKit          3D

 36 39  0  0  1  0  0  0  0  0999 V2000
   36.8780   30.6730   41.1830 C   0  0  0  0  0  0  0  0  0  0  0  0
   37.7480   29.8010   41.8570 C   0  0  0  0  0  0  0  0  0  0  0  0
   37.3960   28.4560   41.9510 C   0  0  0  0  0  0  0  0  0  0  0  0
   36.2320   28.0840   41.3840 N   0  0  0  0  0  0  0  0  0  0  0  0
   35.4100   28.9410   40.7410 C   0  0  0  0  0  0  0  0  0  0  0  0
   35.7460   30.2460   40.6450 N   0  0  0  0  0  0  0  0  0  0  0  0
   38.1900   27.4700   42.6070 N   0  0  0  0  0  0  0  0  0  0  0  0
   38.5760   27.4500   44.0050 C   0  0  0  0  0  0  0  0  0  0  0  0
   39.8410   26.5940   43.9840 C   0  0  0  0  0  0  0  0  0  0  0  0
   39.4000   25.5350   43.0080 C   0  0  0  0  0  0  0  0  0  0  0  0
   38.7250   26.3330   41.9390 C   0  0  1  0  0  0  0  0  0  0  0  0
   37.7900   25.5660   41.1480 N   0  0  0  0  0  0  0  0  0  0  0  0
   36.9670   24.6010   41.6280 C   0  0  0  0  0  0  0  0  0  0  0  0
   36.2140   24.0590   40.6860 N   0  0  0  0  0  0  0  0  0  0  0  0
   36.5450   24.6830   39.5420 C   0  0  0  0  0  0  0  0  0  0  0  0
   36.0640   24.5090   38.2460 C   0  0  0  0  0  0  0  0  0  0  0  0
   36.5990   25.2990   37.2870 N   0  0  0  0  0  0  0  0  0  0  0  0
   37.5630   26.2090   37.6160 C   0  0  0  0  0  0  0  0  0  0  0  0
   38.0210   26.3740   38.8520 N   0  0  0  0  0  0  0  0  0  0  0  0
   37.5280   25.6190   39.8530 C   0  0  0  0  0  0  0  0  0  0  0  0
   38.1270   27.0640   36.5120 C   0  0  0  0  0  0  0  0  0  0  0  0
   39.3470   26.6010   36.0960 F   0  0  0  0  0  0  0  0  0  0  0  0
   38.1500   28.4000   36.8650 F   0  0  0  0  0  0  0  0  0  0  0  0
   37.2930   27.0050   35.3880 F   0  0  0  0  0  0  0  0  0  0  0  0
   37.1434   31.7373   41.0999 H   0  0  0  0  0  0  0  0  0  0  0  0
   38.6846   30.1706   42.3000 H   0  0  0  0  0  0  0  0  0  0  0  0
   34.4711   28.5782   40.2974 H   0  0  0  0  0  0  0  0  0  0  0  0
   38.7880   28.4644   44.3738 H   0  0  0  0  0  0  0  0  0  0  0  0
   37.7926   27.0602   44.6716 H   0  0  0  0  0  0  0  0  0  0  0  0
   40.7120   27.1559   43.6157 H   0  0  0  0  0  0  0  0  0  0  0  0
   40.1739   26.2217   44.9641 H   0  0  0  0  0  0  0  0  0  0  0  0
   40.2621   24.9826   42.6059 H   0  0  0  0  0  0  0  0  0  0  0  0
   38.7496   24.7705   43.4581 H   0  0  0  0  0  0  0  0  0  0  0  0
   39.4265   26.6590   41.1570 H   0  0  0  0  0  0  0  0  0  0  0  0
   36.9299   24.3017   42.6859 H   0  0  0  0  0  0  0  0  0  0  0  0
   35.2872   23.7656   38.0139 H   0  0  0  0  0  0  0  0  0  0  0  0
  1  2  2  0
  2  3  1  0
  3  7  1  0
  4  3  2  0
  5  4  1  0
  6  5  2  0
  6  1  1  0
  7  8  1  0
  9  8  1  0
 10  9  1  0
 11  7  1  0
 11 10  1  0
 12 13  1  0
 12 11  1  0
 14 13  2  0
 15 20  2  0
 15 14  1  0
 16 15  1  0
 17 18  1  0
 17 16  2  0
 18 19  2  0
 19 20  1  0
 20 12  1  0
 21 23  1  0
 21 18  1  0
 22 21  1  0
 24 21  1  0
  1 25  1  0
  2 26  1  0
  5 27  1  0
  8 28  1  0
  8 29  1  0
  9 30  1  0
  9 31  1  0
 10 32  1  0
 10 33  1  0
 11 34  1  6
 13 35  1  0
 16 36  1  0
M  ISO  8  25  14  26  14  27  14  28  13  29  13  30  13  31  13  32  13
M  ISO  4  33  13  34  13  35  14  36  14
M  END
>  <minimizedAffinity>  (1) 
-5.29650402

>  <minimizedRMSD>  (1) 
0.257125854

$$$$
