
     RDKit          3D

 36 39  0  0  1  0  0  0  0  0999 V2000
   36.8400   30.6920   41.1740 C   0  0  0  0  0  0  0  0  0  0  0  0
   37.7070   29.8240   41.8330 C   0  0  0  0  0  0  0  0  0  0  0  0
   37.3750   28.4670   41.9030 C   0  0  0  0  0  0  0  0  0  0  0  0
   36.2120   28.0930   41.3110 N   0  0  0  0  0  0  0  0  0  0  0  0
   35.3910   28.9490   40.6800 C   0  0  0  0  0  0  0  0  0  0  0  0
   35.7170   30.2590   40.6160 N   0  0  0  0  0  0  0  0  0  0  0  0
   38.1700   27.4860   42.5430 N   0  0  0  0  0  0  0  0  0  0  0  0
   38.5510   27.4270   43.9460 C   0  0  0  0  0  0  0  0  0  0  0  0
   39.8210   26.5890   43.9180 C   0  0  0  0  0  0  0  0  0  0  0  0
   39.4170   25.5450   42.9110 C   0  0  0  0  0  0  0  0  0  0  0  0
   38.7280   26.3680   41.8600 C   0  0  1  0  0  0  0  0  0  0  0  0
   37.8040   25.6040   41.0490 N   0  0  0  0  0  0  0  0  0  0  0  0
   36.9470   24.6480   41.5110 C   0  0  0  0  0  0  0  0  0  0  0  0
   36.2130   24.1060   40.5510 N   0  0  0  0  0  0  0  0  0  0  0  0
   36.5870   24.7130   39.4140 C   0  0  0  0  0  0  0  0  0  0  0  0
   36.1430   24.5330   38.1090 C   0  0  0  0  0  0  0  0  0  0  0  0
   36.7190   25.3060   37.1590 N   0  0  0  0  0  0  0  0  0  0  0  0
   37.6890   26.2110   37.5060 C   0  0  0  0  0  0  0  0  0  0  0  0
   38.1060   26.3760   38.7570 N   0  0  0  0  0  0  0  0  0  0  0  0
   37.5810   25.6460   39.7470 C   0  0  0  0  0  0  0  0  0  0  0  0
   38.2710   27.0120   36.4500 C   0  0  0  0  0  0  0  0  0  0  0  0
   39.5010   27.2820   36.4300 O   0  0  0  0  0  0  0  0  0  0  0  0
   37.5680   27.5470   35.3910 O   0  0  0  0  0  0  0  0  0  0  0  0
   37.0921   31.7611   41.1148 H   0  0  0  0  0  0  0  0  0  0  0  0
   38.6351   30.1983   42.2897 H   0  0  0  0  0  0  0  0  0  0  0  0
   34.4605   28.5864   40.2189 H   0  0  0  0  0  0  0  0  0  0  0  0
   38.7491   28.4328   44.3450 H   0  0  0  0  0  0  0  0  0  0  0  0
   37.7666   27.0058   44.5920 H   0  0  0  0  0  0  0  0  0  0  0  0
   40.6887   27.1725   43.5766 H   0  0  0  0  0  0  0  0  0  0  0  0
   40.1401   26.1950   44.8942 H   0  0  0  0  0  0  0  0  0  0  0  0
   40.2956   25.0268   42.4993 H   0  0  0  0  0  0  0  0  0  0  0  0
   38.7867   24.7471   43.3307 H   0  0  0  0  0  0  0  0  0  0  0  0
   39.4335   26.7266   41.0960 H   0  0  0  0  0  0  0  0  0  0  0  0
   36.8735   24.3579   42.5695 H   0  0  0  0  0  0  0  0  0  0  0  0
   35.3624   23.7988   37.8608 H   0  0  0  0  0  0  0  0  0  0  0  0
   38.0383   28.0857   34.7063 H   0  0  0  0  0  0  0  0  0  0  0  0
  1  2  2  0
  2  3  1  0
  3  7  1  0
  4  3  2  0
  5  4  1  0
  6  5  2  0
  6  1  1  0
  7  8  1  0
  9  8  1  0
 10  9  1  0
 11  7  1  0
 11 10  1  0
 12 13  1  0
 12 11  1  0
 14 13  2  0
 15 20  2  0
 15 14  1  0
 16 15  1  0
 17 18  1  0
 17 16  2  0
 18 19  2  0
 19 20  1  0
 20 12  1  0
 21 18  1  0
 22 21  2  0
 23 21  1  0
  1 24  1  0
  2 25  1  0
  5 26  1  0
  8 27  1  0
  8 28  1  0
  9 29  1  0
  9 30  1  0
 10 31  1  0
 10 32  1  0
 11 33  1  6
 13 34  1  0
 16 35  1  0
 23 36  1  0
M  ISO  8  24  14  25  14  26  14  27  13  28  13  29  13  30  13  31  13
M  ISO  5  32  13  33  13  34  14  35  14  36   3
M  END
>  <minimizedAffinity>  (1) 
-5.29048157

>  <minimizedRMSD>  (1) 
0.412242353

$$$$
