
     RDKit          3D

 34 37  0  0  1  0  0  0  0  0999 V2000
   36.9010   30.6540   41.1540 C   0  0  0  0  0  0  0  0  0  0  0  0
   37.7690   29.7800   41.8290 C   0  0  0  0  0  0  0  0  0  0  0  0
   37.4080   28.4270   41.9490 C   0  0  0  0  0  0  0  0  0  0  0  0
   36.2340   28.0570   41.3960 N   0  0  0  0  0  0  0  0  0  0  0  0
   35.4160   28.9200   40.7490 C   0  0  0  0  0  0  0  0  0  0  0  0
   35.7530   30.2220   40.6300 N   0  0  0  0  0  0  0  0  0  0  0  0
   38.2020   27.4570   42.6070 N   0  0  0  0  0  0  0  0  0  0  0  0
   38.6110   27.4490   44.0020 C   0  0  0  0  0  0  0  0  0  0  0  0
   39.8700   26.6040   43.9660 C   0  0  0  0  0  0  0  0  0  0  0  0
   39.4160   25.5210   43.0250 C   0  0  0  0  0  0  0  0  0  0  0  0
   38.7270   26.3090   41.9520 C   0  0  1  0  0  0  0  0  0  0  0  0
   37.7800   25.5360   41.1880 N   0  0  0  0  0  0  0  0  0  0  0  0
   36.9440   24.5860   41.6930 C   0  0  0  0  0  0  0  0  0  0  0  0
   36.1770   24.0300   40.7650 N   0  0  0  0  0  0  0  0  0  0  0  0
   36.5110   24.6260   39.6120 C   0  0  0  0  0  0  0  0  0  0  0  0
   36.0250   24.4320   38.3290 C   0  0  0  0  0  0  0  0  0  0  0  0
   36.5640   25.1920   37.3500 N   0  0  0  0  0  0  0  0  0  0  0  0
   37.5320   26.0950   37.6260 C   0  0  0  0  0  0  0  0  0  0  0  0
   38.0050   26.2870   38.8660 N   0  0  0  0  0  0  0  0  0  0  0  0
   37.5080   25.5570   39.8960 C   0  0  0  0  0  0  0  0  0  0  0  0
   38.2260   27.0840   36.3170 S   0  0  0  0  0  0  0  0  0  0  0  0
   37.1732   31.7152   41.0556 H   0  0  0  0  0  0  0  0  0  0  0  0
   38.7138   30.1477   42.2558 H   0  0  0  0  0  0  0  0  0  0  0  0
   34.4710   28.5583   40.3176 H   0  0  0  0  0  0  0  0  0  0  0  0
   38.8247   28.4669   44.3601 H   0  0  0  0  0  0  0  0  0  0  0  0
   37.8402   27.0613   44.6843 H   0  0  0  0  0  0  0  0  0  0  0  0
   40.7280   27.1631   43.5646 H   0  0  0  0  0  0  0  0  0  0  0  0
   40.2266   26.2535   44.9458 H   0  0  0  0  0  0  0  0  0  0  0  0
   40.2706   24.9582   42.6213 H   0  0  0  0  0  0  0  0  0  0  0  0
   38.7757   24.7620   43.4983 H   0  0  0  0  0  0  0  0  0  0  0  0
   39.4221   26.6215   41.1588 H   0  0  0  0  0  0  0  0  0  0  0  0
   36.9090   24.3097   42.7571 H   0  0  0  0  0  0  0  0  0  0  0  0
   35.2373   23.6939   38.1172 H   0  0  0  0  0  0  0  0  0  0  0  0
   38.9491   28.1145   36.8575 H   0  0  0  0  0  0  0  0  0  0  0  0
  1  2  2  0
  2  3  1  0
  3  7  1  0
  4  3  2  0
  5  4  1  0
  6  5  2  0
  6  1  1  0
  7  8  1  0
  9  8  1  0
 10  9  1  0
 11  7  1  0
 11 10  1  0
 12 13  1  0
 12 11  1  0
 14 13  2  0
 15 20  2  0
 15 14  1  0
 16 15  1  0
 17 18  1  0
 17 16  2  0
 18 19  2  0
 19 20  1  0
 20 12  1  0
 21 18  1  0
  1 22  1  0
  2 23  1  0
  5 24  1  0
  8 25  1  0
  8 26  1  0
  9 27  1  0
  9 28  1  0
 10 29  1  0
 10 30  1  0
 11 31  1  6
 13 32  1  0
 16 33  1  0
 21 34  1  0
M  ISO  8  22  14  23  14  24  14  25  13  26  13  27  13  28  13  29  13
M  ISO  5  30  13  31  13  32  14  33  14  34  11
M  END
>  <minimizedAffinity>  (1) 
-5.15108919

>  <minimizedRMSD>  (1) 
0.0174171235

$$$$
