
     RDKit          3D

 34 37  0  0  1  0  0  0  0  0999 V2000
   36.9000   30.6400   41.1570 C   0  0  0  0  0  0  0  0  0  0  0  0
   37.7570   29.7660   41.8300 C   0  0  0  0  0  0  0  0  0  0  0  0
   37.4030   28.4280   41.9460 C   0  0  0  0  0  0  0  0  0  0  0  0
   36.2390   28.0630   41.3930 N   0  0  0  0  0  0  0  0  0  0  0  0
   35.4160   28.9110   40.7450 C   0  0  0  0  0  0  0  0  0  0  0  0
   35.7500   30.2050   40.6270 N   0  0  0  0  0  0  0  0  0  0  0  0
   38.2010   27.4630   42.6070 N   0  0  0  0  0  0  0  0  0  0  0  0
   38.6220   27.4530   43.9960 C   0  0  0  0  0  0  0  0  0  0  0  0
   39.8660   26.5940   43.9740 C   0  0  0  0  0  0  0  0  0  0  0  0
   39.4300   25.5240   43.0200 C   0  0  0  0  0  0  0  0  0  0  0  0
   38.7270   26.3060   41.9560 C   0  0  1  0  0  0  0  0  0  0  0  0
   37.7780   25.5280   41.1970 N   0  0  0  0  0  0  0  0  0  0  0  0
   36.9330   24.6040   41.7140 C   0  0  0  0  0  0  0  0  0  0  0  0
   36.1630   24.0330   40.7890 N   0  0  0  0  0  0  0  0  0  0  0  0
   36.5170   24.6040   39.6300 C   0  0  0  0  0  0  0  0  0  0  0  0
   36.0380   24.3880   38.3380 C   0  0  0  0  0  0  0  0  0  0  0  0
   36.5950   25.1230   37.3420 N   0  0  0  0  0  0  0  0  0  0  0  0
   37.5790   26.0270   37.6240 C   0  0  0  0  0  0  0  0  0  0  0  0
   38.0310   26.2270   38.8660 N   0  0  0  0  0  0  0  0  0  0  0  0
   37.5250   25.5330   39.8990 C   0  0  0  0  0  0  0  0  0  0  0  0
   38.1880   26.8090   36.6520 O   0  0  0  0  0  0  0  0  0  0  0  0
   37.1739   31.7010   41.0611 H   0  0  0  0  0  0  0  0  0  0  0  0
   38.6997   30.1326   42.2624 H   0  0  0  0  0  0  0  0  0  0  0  0
   34.4731   28.5432   40.3141 H   0  0  0  0  0  0  0  0  0  0  0  0
   38.8513   28.4703   44.3460 H   0  0  0  0  0  0  0  0  0  0  0  0
   37.8476   27.0731   44.6787 H   0  0  0  0  0  0  0  0  0  0  0  0
   40.7374   27.1480   43.5948 H   0  0  0  0  0  0  0  0  0  0  0  0
   40.1936   26.2297   44.9589 H   0  0  0  0  0  0  0  0  0  0  0  0
   40.2942   24.9814   42.6092 H   0  0  0  0  0  0  0  0  0  0  0  0
   38.7999   24.7517   43.4853 H   0  0  0  0  0  0  0  0  0  0  0  0
   39.4180   26.6188   41.1593 H   0  0  0  0  0  0  0  0  0  0  0  0
   36.8875   24.3520   42.7838 H   0  0  0  0  0  0  0  0  0  0  0  0
   35.2439   23.6544   38.1351 H   0  0  0  0  0  0  0  0  0  0  0  0
   38.8975   27.4510   36.9061 H   0  0  0  0  0  0  0  0  0  0  0  0
  1  2  2  0
  2  3  1  0
  3  7  1  0
  4  3  2  0
  5  4  1  0
  6  5  2  0
  6  1  1  0
  7  8  1  0
  9  8  1  0
 10  9  1  0
 11  7  1  0
 11 10  1  0
 12 13  1  0
 12 11  1  0
 14 13  2  0
 15 20  2  0
 15 14  1  0
 16 15  1  0
 17 18  1  0
 17 16  2  0
 18 19  2  0
 19 20  1  0
 20 12  1  0
 21 18  1  0
  1 22  1  0
  2 23  1  0
  5 24  1  0
  8 25  1  0
  8 26  1  0
  9 27  1  0
  9 28  1  0
 10 29  1  0
 10 30  1  0
 11 31  1  6
 13 32  1  0
 16 33  1  0
 21 34  1  0
M  ISO  8  22  14  23  14  24  14  25  13  26  13  27  13  28  13  29  13
M  ISO  5  30  13  31  13  32  14  33  14  34   3
M  END
>  <minimizedAffinity>  (1) 
-5.03923178

>  <minimizedRMSD>  (1) 
0.0341393016

$$$$
