
     RDKit          3D

 52 57  0  0  1  0  0  0  0  0999 V2000
   38.0660   25.2350   41.1050 N   0  0  0  0  0  0  0  0  0  0  0  0
   37.1450   24.3690   41.6160 C   0  0  0  0  0  0  0  0  0  0  0  0
   36.2720   23.9320   40.7030 N   0  0  0  0  0  0  0  0  0  0  0  0
   36.6310   24.5290   39.5630 C   0  0  0  0  0  0  0  0  0  0  0  0
   36.0700   24.4390   38.2850 C   0  0  0  0  0  0  0  0  0  0  0  0
   36.6540   25.1670   37.3160 N   0  0  0  0  0  0  0  0  0  0  0  0
   37.7450   25.9570   37.5720 C   0  0  0  0  0  0  0  0  0  0  0  0
   38.2790   26.0360   38.8080 N   0  0  0  0  0  0  0  0  0  0  0  0
   37.7410   25.3350   39.8140 C   0  0  0  0  0  0  0  0  0  0  0  0
   37.5220   30.3710   41.6500 C   0  0  0  0  0  0  0  0  0  0  0  0
   38.3850   29.3900   42.1510 C   0  0  0  0  0  0  0  0  0  0  0  0
   37.9610   28.0620   42.1700 C   0  0  0  0  0  0  0  0  0  0  0  0
   36.7300   27.8240   41.6940 N   0  0  0  0  0  0  0  0  0  0  0  0
   35.9030   28.7690   41.2130 C   0  0  0  0  0  0  0  0  0  0  0  0
   36.3100   30.0530   41.1940 N   0  0  0  0  0  0  0  0  0  0  0  0
   38.7440   26.9700   42.6550 N   0  0  0  0  0  0  0  0  0  0  0  0
   39.2710   26.7890   44.0000 C   0  0  0  0  0  0  0  0  0  0  0  0
   40.4610   25.8710   43.7720 C   0  0  0  0  0  0  0  0  0  0  0  0
   39.8500   24.9330   42.7670 C   0  0  0  0  0  0  0  0  0  0  0  0
   39.1290   25.8680   41.8500 C   0  0  1  0  0  0  0  0  0  0  0  0
   38.3670   26.7450   36.4890 C   0  0  0  0  0  0  0  0  0  0  0  0
   38.0610   28.2080   36.5580 C   0  0  0  0  0  0  0  0  0  0  0  0
   36.8010   28.5630   35.9850 N   0  0  0  0  0  0  0  0  0  0  0  0
   36.6910   28.8360   34.6680 C   0  0  0  0  0  0  0  0  0  0  0  0
   35.4150   29.1440   34.3590 N   0  0  0  0  0  0  0  0  0  0  0  0
   34.6810   29.0720   35.4840 C   0  0  0  0  0  0  0  0  0  0  0  0
   33.3510   29.2690   35.8040 C   0  0  0  0  0  0  0  0  0  0  0  0
   32.9850   29.0950   37.0940 N   0  0  0  0  0  0  0  0  0  0  0  0
   33.8460   28.7400   38.0650 C   0  0  0  0  0  0  0  0  0  0  0  0
   35.1620   28.5430   37.7570 N   0  0  0  0  0  0  0  0  0  0  0  0
   35.5590   28.7110   36.4780 C   0  0  0  0  0  0  0  0  0  0  0  0
   32.4400   29.6440   34.7770 N   0  0  0  0  0  0  0  0  0  0  0  0
   37.1227   24.0614   42.6719 H   0  0  0  0  0  0  0  0  0  0  0  0
   35.1947   23.8044   38.0822 H   0  0  0  0  0  0  0  0  0  0  0  0
   37.8486   31.4212   41.6321 H   0  0  0  0  0  0  0  0  0  0  0  0
   39.3832   29.6626   42.5243 H   0  0  0  0  0  0  0  0  0  0  0  0
   34.9050   28.4965   40.8391 H   0  0  0  0  0  0  0  0  0  0  0  0
   39.5879   27.7487   44.4343 H   0  0  0  0  0  0  0  0  0  0  0  0
   38.5335   26.3803   44.7064 H   0  0  0  0  0  0  0  0  0  0  0  0
   41.3251   26.4118   43.3585 H   0  0  0  0  0  0  0  0  0  0  0  0
   40.8687   25.3940   44.6755 H   0  0  0  0  0  0  0  0  0  0  0  0
   40.6247   24.3669   42.2291 H   0  0  0  0  0  0  0  0  0  0  0  0
   39.1978   24.1706   43.2180 H   0  0  0  0  0  0  0  0  0  0  0  0
   39.7748   26.2203   41.0322 H   0  0  0  0  0  0  0  0  0  0  0  0
   38.0029   26.3591   35.5254 H   0  0  0  0  0  0  0  0  0  0  0  0
   39.4563   26.6388   36.5988 H   0  0  0  0  0  0  0  0  0  0  0  0
   38.0588   28.5120   37.6151 H   0  0  0  0  0  0  0  0  0  0  0  0
   38.8355   28.7245   35.9720 H   0  0  0  0  0  0  0  0  0  0  0  0
   37.5233   28.8109   33.9492 H   0  0  0  0  0  0  0  0  0  0  0  0
   33.4929   28.6095   39.0986 H   0  0  0  0  0  0  0  0  0  0  0  0
   31.4458   29.7944   35.0002 H   0  0  0  0  0  0  0  0  0  0  0  0
   32.7749   29.7651   33.8105 H   0  0  0  0  0  0  0  0  0  0  0  0
  1  2  1  0
  1 20  1  0
  3  2  2  0
  4  9  2  0
  4  3  1  0
  5  4  1  0
  6  7  1  0
  6  5  2  0
  7  8  2  0
  8  9  1  0
  9  1  1  0
 10 11  2  0
 11 12  1  0
 12 16  1  0
 13 12  2  0
 14 13  1  0
 15 14  2  0
 15 10  1  0
 16 17  1  0
 18 17  1  0
 19 18  1  0
 20 16  1  0
 20 19  1  0
 21 22  1  0
 21  7  1  0
 23 31  1  0
 23 22  1  0
 24 23  1  0
 25 24  2  0
 25 26  1  0
 26 27  2  0
 26 31  1  0
 27 28  1  0
 28 29  2  0
 30 29  1  0
 31 30  2  0
 32 27  1  0
  2 33  1  0
  5 34  1  0
 10 35  1  0
 11 36  1  0
 14 37  1  0
 17 38  1  0
 17 39  1  0
 18 40  1  0
 18 41  1  0
 19 42  1  0
 19 43  1  0
 20 44  1  6
 21 45  1  0
 21 46  1  0
 22 47  1  0
 22 48  1  0
 24 49  1  0
 29 50  1  0
 32 51  1  0
 32 52  1  0
M  ISO  8  33  14  34  14  35  14  36  14  37  14  38  13  39  13  40  13
M  ISO  8  41  13  42  13  43  13  44  13  45   8  46   8  47   8  48   8
M  ISO  2  49  14  50  14
M  END
>  <minimizedAffinity>  (1) 
-5.94762325

>  <minimizedRMSD>  (1) 
1.13635397

$$$$
