
     RDKit          3D

 52 56  0  0  1  0  0  0  0  0999 V2000
   37.8450   25.5470   41.1330 N   0  0  0  0  0  0  0  0  0  0  0  0
   36.9460   24.6500   41.6150 C   0  0  0  0  0  0  0  0  0  0  0  0
   36.2230   24.0670   40.6610 N   0  0  0  0  0  0  0  0  0  0  0  0
   36.6600   24.5980   39.5150 C   0  0  0  0  0  0  0  0  0  0  0  0
   36.2600   24.3580   38.1940 C   0  0  0  0  0  0  0  0  0  0  0  0
   36.9020   25.0630   37.2310 N   0  0  0  0  0  0  0  0  0  0  0  0
   37.8780   25.9520   37.5350 C   0  0  0  0  0  0  0  0  0  0  0  0
   38.2620   26.1830   38.8060 N   0  0  0  0  0  0  0  0  0  0  0  0
   37.6610   25.5120   39.8070 C   0  0  0  0  0  0  0  0  0  0  0  0
   36.8420   30.6360   41.1740 C   0  0  0  0  0  0  0  0  0  0  0  0
   37.7180   29.7800   41.8460 C   0  0  0  0  0  0  0  0  0  0  0  0
   37.4070   28.4260   41.9350 C   0  0  0  0  0  0  0  0  0  0  0  0
   36.2470   28.0470   41.3470 N   0  0  0  0  0  0  0  0  0  0  0  0
   35.4100   28.8620   40.7070 C   0  0  0  0  0  0  0  0  0  0  0  0
   35.7130   30.1830   40.6180 N   0  0  0  0  0  0  0  0  0  0  0  0
   38.2070   27.4530   42.5860 N   0  0  0  0  0  0  0  0  0  0  0  0
   38.5860   27.4360   43.9910 C   0  0  0  0  0  0  0  0  0  0  0  0
   39.8670   26.6110   43.9710 C   0  0  0  0  0  0  0  0  0  0  0  0
   39.4530   25.5370   42.9930 C   0  0  0  0  0  0  0  0  0  0  0  0
   38.7610   26.3300   41.9270 C   0  0  1  0  0  0  0  0  0  0  0  0
   38.5530   26.7010   36.4560 C   0  0  0  0  0  0  0  0  0  0  0  0
   38.2150   28.1570   36.4170 C   0  0  0  0  0  0  0  0  0  0  0  0
   34.0890   29.0540   35.6660 C   0  0  0  0  0  0  0  0  0  0  0  0
   34.6460   29.1540   36.9450 C   0  0  0  0  0  0  0  0  0  0  0  0
   35.9830   28.8450   37.0880 C   0  0  0  0  0  0  0  0  0  0  0  0
   36.8210   28.4380   36.0510 C   0  0  0  0  0  0  0  0  0  0  0  0
   36.2480   28.3480   34.7990 C   0  0  0  0  0  0  0  0  0  0  0  0
   34.9120   28.6540   34.6350 C   0  0  0  0  0  0  0  0  0  0  0  0
   32.4020   29.4430   35.4790 S   0  0  0  0  0  0  0  0  0  0  0  0
   31.8290   29.8340   36.8170 O   0  0  0  0  0  0  0  0  0  0  0  0
   32.2470   30.5000   34.4520 O   0  0  0  0  0  0  0  0  0  0  0  0
   36.8273   24.4276   42.6857 H   0  0  0  0  0  0  0  0  0  0  0  0
   35.4668   23.6356   37.9513 H   0  0  0  0  0  0  0  0  0  0  0  0
   37.0861   31.7061   41.1005 H   0  0  0  0  0  0  0  0  0  0  0  0
   38.6412   30.1707   42.2988 H   0  0  0  0  0  0  0  0  0  0  0  0
   34.4859   28.4705   40.2567 H   0  0  0  0  0  0  0  0  0  0  0  0
   38.7729   28.4532   44.3656 H   0  0  0  0  0  0  0  0  0  0  0  0
   37.8083   27.0265   44.6524 H   0  0  0  0  0  0  0  0  0  0  0  0
   40.7248   27.1931   43.6032 H   0  0  0  0  0  0  0  0  0  0  0  0
   40.2061   26.2470   44.9520 H   0  0  0  0  0  0  0  0  0  0  0  0
   40.3278   25.0055   42.5903 H   0  0  0  0  0  0  0  0  0  0  0  0
   38.8237   24.7525   43.4387 H   0  0  0  0  0  0  0  0  0  0  0  0
   39.4597   26.6746   41.1505 H   0  0  0  0  0  0  0  0  0  0  0  0
   39.6397   26.6027   36.5953 H   0  0  0  0  0  0  0  0  0  0  0  0
   38.2046   26.2699   35.5059 H   0  0  0  0  0  0  0  0  0  0  0  0
   38.4032   28.5824   37.4138 H   0  0  0  0  0  0  0  0  0  0  0  0
   38.8456   28.6088   35.6371 H   0  0  0  0  0  0  0  0  0  0  0  0
   34.0392   29.4681   37.8070 H   0  0  0  0  0  0  0  0  0  0  0  0
   36.4198   28.9257   38.0943 H   0  0  0  0  0  0  0  0  0  0  0  0
   36.8530   28.0339   33.9357 H   0  0  0  0  0  0  0  0  0  0  0  0
   34.4804   28.5743   33.6263 H   0  0  0  0  0  0  0  0  0  0  0  0
   31.6979   28.3530   35.0395 H   0  0  0  0  0  0  0  0  0  0  0  0
  1  2  1  0
  1 20  1  0
  3  2  2  0
  4  9  2  0
  4  3  1  0
  5  4  1  0
  6  7  1  0
  6  5  2  0
  7  8  2  0
  8  9  1  0
  9  1  1  0
 10 11  2  0
 11 12  1  0
 12 16  1  0
 13 12  2  0
 14 13  1  0
 15 14  2  0
 15 10  1  0
 16 17  1  0
 18 17  1  0
 19 18  1  0
 20 16  1  0
 20 19  1  0
 21  7  1  0
 22 21  1  0
 23 24  2  0
 24 25  1  0
 26 22  1  0
 26 25  2  0
 27 26  1  0
 28 27  2  0
 28 23  1  0
 29 23  1  0
 29 30  2  0
 31 29  2  0
  2 32  1  0
  5 33  1  0
 10 34  1  0
 11 35  1  0
 14 36  1  0
 17 37  1  0
 17 38  1  0
 18 39  1  0
 18 40  1  0
 19 41  1  0
 19 42  1  0
 20 43  1  6
 21 44  1  0
 21 45  1  0
 22 46  1  0
 22 47  1  0
 24 48  1  0
 25 49  1  0
 27 50  1  0
 28 51  1  0
 29 52  1  0
M  ISO  8  32  14  33  14  34  14  35  14  36  14  37  13  38  13  39  13
M  ISO  8  40  13  41  13  42  13  43  13  44   8  45   8  46   8  47   8
M  ISO  5  48  14  49  14  50  14  51  14  52  11
M  END
>  <minimizedAffinity>  (1) 
-5.79980087

>  <minimizedRMSD>  (1) 
1.37378728

$$$$
