
     RDKit          3D

 47 50  0  0  1  0  0  0  0  0999 V2000
   40.1350   32.0220   40.9460 C   0  0  0  0  0  0  0  0  0  0  0  0
   39.6830   30.7670   41.4510 C   0  0  0  0  0  0  0  0  0  0  0  0
   38.3400   30.5120   41.4320 C   0  0  0  0  0  0  0  0  0  0  0  0
   37.4740   31.4610   40.9360 N   0  0  0  0  0  0  0  0  0  0  0  0
   37.9330   32.6500   40.4630 C   0  0  0  0  0  0  0  0  0  0  0  0
   39.2680   32.9300   40.4690 N   0  0  0  0  0  0  0  0  0  0  0  0
   36.9910   33.5940   39.9610 N   0  0  0  0  0  0  0  0  0  0  0  0
   37.8150   29.3000   41.9100 N   0  0  0  0  0  0  0  0  0  0  0  0
   38.0320   28.8970   43.2760 C   0  0  0  0  0  0  0  0  0  0  0  0
   36.9330   27.9050   43.6490 C   0  0  0  0  0  0  0  0  0  0  0  0
   36.8540   26.7750   42.7890 N   0  0  0  0  0  0  0  0  0  0  0  0
   37.2910   26.9960   41.4500 C   0  0  0  0  0  0  0  0  0  0  0  0
   37.0470   28.4260   41.0500 C   0  0  2  0  0  0  0  0  0  0  0  0
   37.2600   28.6580   39.6010 C   0  0  0  0  0  0  0  0  0  0  0  0
   36.2170   29.1620   38.8160 C   0  0  0  0  0  0  0  0  0  0  0  0
   36.3400   29.4040   37.4630 C   0  0  0  0  0  0  0  0  0  0  0  0
   37.5360   29.1230   36.9300 N   0  0  0  0  0  0  0  0  0  0  0  0
   38.5460   28.6380   37.6750 C   0  0  0  0  0  0  0  0  0  0  0  0
   38.4440   28.3960   38.9960 N   0  0  0  0  0  0  0  0  0  0  0  0
   39.8180   28.3630   36.9940 C   0  0  0  0  0  0  0  0  0  0  0  0
   40.9540   29.2880   37.4490 C   0  0  0  0  0  0  0  0  0  0  0  0
   42.0650   28.6950   36.5700 C   0  0  0  0  0  0  0  0  0  0  0  0
   41.8070   27.1880   36.6580 C   0  0  0  0  0  0  0  0  0  0  0  0
   40.4310   27.0310   37.2800 C   0  0  0  0  0  0  0  0  0  0  0  0
   41.2111   32.2499   40.9472 H   0  0  0  0  0  0  0  0  0  0  0  0
   40.3943   30.0258   41.8443 H   0  0  0  0  0  0  0  0  0  0  0  0
   35.9858   33.3692   39.9626 H   0  0  0  0  0  0  0  0  0  0  0  0
   37.3153   34.5012   39.5966 H   0  0  0  0  0  0  0  0  0  0  0  0
   39.0174   28.4179   43.3730 H   0  0  0  0  0  0  0  0  0  0  0  0
   38.0045   29.7707   43.9438 H   0  0  0  0  0  0  0  0  0  0  0  0
   37.1227   27.5479   44.6720 H   0  0  0  0  0  0  0  0  0  0  0  0
   35.9771   28.4413   43.5565 H   0  0  0  0  0  0  0  0  0  0  0  0
   37.4342   26.0262   43.1935 H   0  0  0  0  0  0  0  0  0  0  0  0
   38.3668   26.7778   41.3788 H   0  0  0  0  0  0  0  0  0  0  0  0
   36.7268   26.3348   40.7759 H   0  0  0  0  0  0  0  0  0  0  0  0
   35.9841   28.6671   41.1986 H   0  0  0  0  0  0  0  0  0  0  0  0
   35.2529   29.3755   39.3006 H   0  0  0  0  0  0  0  0  0  0  0  0
   35.5095   29.8019   36.8613 H   0  0  0  0  0  0  0  0  0  0  0  0
   39.5042   28.4747   35.9456 H   0  0  0  0  0  0  0  0  0  0  0  0
   40.7533   30.3436   37.2137 H   0  0  0  0  0  0  0  0  0  0  0  0
   41.1533   29.3174   38.5304 H   0  0  0  0  0  0  0  0  0  0  0  0
   43.0597   28.9495   36.9649 H   0  0  0  0  0  0  0  0  0  0  0  0
   42.0521   29.0773   35.5387 H   0  0  0  0  0  0  0  0  0  0  0  0
   41.8256   26.7384   35.6542 H   0  0  0  0  0  0  0  0  0  0  0  0
   42.5786   26.6829   37.2576 H   0  0  0  0  0  0  0  0  0  0  0  0
   40.4986   26.8443   38.3619 H   0  0  0  0  0  0  0  0  0  0  0  0
   39.8562   26.1800   36.8857 H   0  0  0  0  0  0  0  0  0  0  0  0
  1  2  2  0
  3  2  1  0
  3  8  1  0
  4  3  2  0
  5  6  2  0
  5  4  1  0
  6  1  1  0
  7  5  1  0
  8  9  1  0
  9 10  1  0
 11 10  1  0
 12 11  1  0
 13 12  1  0
 13  8  1  0
 14 13  1  0
 15 14  2  0
 16 15  1  0
 17 16  2  0
 17 18  1  0
 18 19  2  0
 19 14  1  0
 20 24  1  0
 20 21  1  0
 20 18  1  0
 22 23  1  0
 22 21  1  0
 23 24  1  0
  1 25  1  0
  2 26  1  0
  7 27  1  0
  7 28  1  0
  9 29  1  0
  9 30  1  0
 10 31  1  0
 10 32  1  0
 11 33  1  0
 12 34  1  0
 12 35  1  0
 13 36  1  6
 15 37  1  0
 16 38  1  0
 20 39  1  0
 21 40  1  0
 21 41  1  0
 22 42  1  0
 22 43  1  0
 23 44  1  0
 23 45  1  0
 24 46  1  0
 24 47  1  0
M  ISO  8  25  14  26  14  29  13  30  13  31  13  32  13  33   5  34  13
M  ISO  8  35  13  36  13  37  14  38  14  39  13  40  13  41  13  42  13
M  ISO  5  43  13  44  13  45  13  46  13  47  13
M  END
>  <minimizedAffinity>  (1) 
-5.80609751

>  <minimizedRMSD>  (1) 
0.911332965

$$$$
