
     RDKit          3D

 45 49  0  0  1  0  0  0  0  0999 V2000
   37.8880   25.4870   41.1260 N   0  0  0  0  0  0  0  0  0  0  0  0
   36.9050   24.6880   41.6320 C   0  0  0  0  0  0  0  0  0  0  0  0
   36.2050   24.0610   40.6830 N   0  0  0  0  0  0  0  0  0  0  0  0
   36.7480   24.4640   39.5210 C   0  0  0  0  0  0  0  0  0  0  0  0
   36.4110   24.1230   38.2080 C   0  0  0  0  0  0  0  0  0  0  0  0
   37.1510   24.6990   37.2310 N   0  0  0  0  0  0  0  0  0  0  0  0
   38.1610   25.5560   37.5230 C   0  0  0  0  0  0  0  0  0  0  0  0
   38.4830   25.8810   38.7950 N   0  0  0  0  0  0  0  0  0  0  0  0
   37.7840   25.3420   39.8050 C   0  0  0  0  0  0  0  0  0  0  0  0
   36.8930   30.5790   41.0520 C   0  0  0  0  0  0  0  0  0  0  0  0
   37.7540   29.7370   41.7430 C   0  0  0  0  0  0  0  0  0  0  0  0
   37.4320   28.3820   41.8600 C   0  0  0  0  0  0  0  0  0  0  0  0
   36.2760   27.9780   41.2760 N   0  0  0  0  0  0  0  0  0  0  0  0
   35.4630   28.8020   40.6170 C   0  0  0  0  0  0  0  0  0  0  0  0
   35.7610   30.1070   40.4980 N   0  0  0  0  0  0  0  0  0  0  0  0
   38.2390   27.4240   42.5450 N   0  0  0  0  0  0  0  0  0  0  0  0
   38.6130   27.4370   43.9480 C   0  0  0  0  0  0  0  0  0  0  0  0
   39.8910   26.6070   43.9570 C   0  0  0  0  0  0  0  0  0  0  0  0
   39.4900   25.5190   42.9920 C   0  0  0  0  0  0  0  0  0  0  0  0
   38.8010   26.2860   41.9110 C   0  0  1  0  0  0  0  0  0  0  0  0
   38.9420   26.1590   36.4230 C   0  0  0  0  0  0  0  0  0  0  0  0
   39.2570   27.6180   36.6150 C   0  0  0  0  0  0  0  0  0  0  0  0
   38.1140   28.4640   36.4810 N   0  0  0  0  0  0  0  0  0  0  0  0
   37.7520   29.3130   37.4780 C   0  0  0  0  0  0  0  0  0  0  0  0
   36.6400   29.9560   37.0230 N   0  0  0  0  0  0  0  0  0  0  0  0
   36.3460   29.4950   35.7730 C   0  0  0  0  0  0  0  0  0  0  0  0
   37.2800   28.5800   35.4830 N   0  0  0  0  0  0  0  0  0  0  0  0
   36.7094   24.5723   42.7083 H   0  0  0  0  0  0  0  0  0  0  0  0
   35.5908   23.4260   37.9811 H   0  0  0  0  0  0  0  0  0  0  0  0
   37.1396   31.6467   40.9560 H   0  0  0  0  0  0  0  0  0  0  0  0
   38.6774   30.1312   42.1924 H   0  0  0  0  0  0  0  0  0  0  0  0
   34.5392   28.4107   40.1660 H   0  0  0  0  0  0  0  0  0  0  0  0
   38.8024   28.4620   44.2993 H   0  0  0  0  0  0  0  0  0  0  0  0
   37.8305   27.0441   44.6138 H   0  0  0  0  0  0  0  0  0  0  0  0
   40.7553   27.1810   43.5917 H   0  0  0  0  0  0  0  0  0  0  0  0
   40.2142   26.2569   44.9484 H   0  0  0  0  0  0  0  0  0  0  0  0
   40.3711   24.9876   42.6031 H   0  0  0  0  0  0  0  0  0  0  0  0
   38.8614   24.7389   43.4461 H   0  0  0  0  0  0  0  0  0  0  0  0
   39.5048   26.6142   41.1319 H   0  0  0  0  0  0  0  0  0  0  0  0
   38.3664   26.0504   35.4919 H   0  0  0  0  0  0  0  0  0  0  0  0
   39.9058   25.6297   36.3938 H   0  0  0  0  0  0  0  0  0  0  0  0
   39.6770   27.7551   37.6224 H   0  0  0  0  0  0  0  0  0  0  0  0
   39.9692   27.9045   35.8272 H   0  0  0  0  0  0  0  0  0  0  0  0
   38.2514   29.4521   38.4482 H   0  0  0  0  0  0  0  0  0  0  0  0
   35.5098   29.8113   35.1321 H   0  0  0  0  0  0  0  0  0  0  0  0
  1  2  1  0
  1 20  1  0
  3  2  2  0
  4  9  2  0
  4  3  1  0
  5  4  1  0
  6  7  1  0
  6  5  2  0
  7  8  2  0
  8  9  1  0
  9  1  1  0
 10 11  2  0
 11 12  1  0
 12 16  1  0
 13 12  2  0
 14 13  1  0
 15 14  2  0
 15 10  1  0
 16 17  1  0
 17 18  1  0
 19 18  1  0
 20 16  1  0
 20 19  1  0
 21 22  1  0
 21  7  1  0
 23 22  1  0
 23 24  1  0
 25 24  2  0
 26 25  1  0
 27 26  2  0
 27 23  1  0
  2 28  1  0
  5 29  1  0
 10 30  1  0
 11 31  1  0
 14 32  1  0
 17 33  1  0
 17 34  1  0
 18 35  1  0
 18 36  1  0
 19 37  1  0
 19 38  1  0
 20 39  1  6
 21 40  1  0
 21 41  1  0
 22 42  1  0
 22 43  1  0
 24 44  1  0
 26 45  1  0
M  ISO  8  28  14  29  14  30  14  31  14  32  14  33  13  34  13  35  13
M  ISO  8  36  13  37  13  38  13  39  13  40   8  41   8  42   8  43   8
M  ISO  2  44  14  45  14
M  END
>  <minimizedAffinity>  (1) 
-5.29729033

>  <minimizedRMSD>  (1) 
1.32658017

$$$$
