
     RDKit          3D

 27 29  0  0  0  0  0  0  0  0999 V2000
   38.6240   31.9600   40.2860 C   0  0  0  0  0  0  0  0  0  0  0  0
   37.7940   31.3910   39.3780 N   0  0  0  0  0  0  0  0  0  0  0  0
   37.4430   30.2120   39.7790 O   0  0  0  0  0  0  0  0  0  0  0  0
   38.0030   29.9490   40.9330 C   0  0  0  0  0  0  0  0  0  0  0  0
   38.7460   31.0410   41.2600 N   0  0  0  0  0  0  0  0  0  0  0  0
   37.8970   28.7780   41.7350 N   0  0  0  0  0  0  0  0  0  0  0  0
   38.8250   27.6890   41.9680 C   0  0  0  0  0  0  0  0  0  0  0  0
   38.7480   27.5440   43.4710 C   0  0  0  0  0  0  0  0  0  0  0  0
   37.3600   28.0260   43.8770 C   0  0  0  0  0  0  0  0  0  0  0  0
   36.7450   28.4160   42.5400 C   0  0  0  0  0  0  0  0  0  0  0  0
   41.1150   34.7720   40.4540 C   0  0  0  0  0  0  0  0  0  0  0  0
   40.6810   33.4300   40.4560 C   0  0  0  0  0  0  0  0  0  0  0  0
   39.2930   33.2620   40.3120 C   0  0  0  0  0  0  0  0  0  0  0  0
   38.5030   34.3600   40.1850 N   0  0  0  0  0  0  0  0  0  0  0  0
   38.9830   35.6220   40.1910 C   0  0  0  0  0  0  0  0  0  0  0  0
   40.3090   35.8210   40.3270 N   0  0  0  0  0  0  0  0  0  0  0  0
   38.5015   26.7694   41.4585 H   0  0  0  0  0  0  0  0  0  0  0  0
   39.8399   27.8751   41.5867 H   0  0  0  0  0  0  0  0  0  0  0  0
   38.8851   26.4914   43.7596 H   0  0  0  0  0  0  0  0  0  0  0  0
   39.5356   28.1278   43.9698 H   0  0  0  0  0  0  0  0  0  0  0  0
   36.7851   27.2221   44.3600 H   0  0  0  0  0  0  0  0  0  0  0  0
   37.3766   28.8468   44.6091 H   0  0  0  0  0  0  0  0  0  0  0  0
   36.0609   29.2696   42.6551 H   0  0  0  0  0  0  0  0  0  0  0  0
   36.1429   27.6116   42.0923 H   0  0  0  0  0  0  0  0  0  0  0  0
   42.1926   34.9631   40.5650 H   0  0  0  0  0  0  0  0  0  0  0  0
   41.3738   32.5822   40.5619 H   0  0  0  0  0  0  0  0  0  0  0  0
   38.2998   36.4777   40.0861 H   0  0  0  0  0  0  0  0  0  0  0  0
  1 13  1  0
  1  5  1  0
  2  3  1  0
  2  1  2  0
  3  4  1  0
  4  5  2  0
  4  6  1  0
  6  7  1  0
  6 10  1  0
  7  8  1  0
  8  9  1  0
 10  9  1  0
 11 12  2  0
 13 12  1  0
 14 15  1  0
 14 13  2  0
 15 16  2  0
 16 11  1  0
  7 17  1  0
  7 18  1  0
  8 19  1  0
  8 20  1  0
  9 21  1  0
  9 22  1  0
 10 23  1  0
 10 24  1  0
 11 25  1  0
 12 26  1  0
 15 27  1  0
M  ISO  8  17  13  18  13  19  13  20  13  21  13  22  13  23  13  24  13
M  ISO  3  25  14  26  14  27  14
M  END
>  <minimizedAffinity>  (1) 
-4.86061239

>  <minimizedRMSD>  (1) 
3.46291757

$$$$
