
     RDKit          3D

 24 25  0  0  0  0  0  0  0  0999 V2000
   39.4870   33.3330   40.6790 C   0  0  0  0  0  0  0  0  0  0  0  0
   39.0850   32.0930   41.1750 C   0  0  0  0  0  0  0  0  0  0  0  0
   37.8010   31.6330   40.8500 C   0  0  0  0  0  0  0  0  0  0  0  0
   37.0200   32.4270   40.0680 N   0  0  0  0  0  0  0  0  0  0  0  0
   37.4460   33.6260   39.6040 C   0  0  0  0  0  0  0  0  0  0  0  0
   38.6880   34.0830   39.9130 N   0  0  0  0  0  0  0  0  0  0  0  0
   37.2260   30.3630   41.2840 C   0  0  0  0  0  0  0  0  0  0  0  0
   36.1950   29.6210   40.8090 N   0  0  0  0  0  0  0  0  0  0  0  0
   36.0590   28.5610   41.5320 O   0  0  0  0  0  0  0  0  0  0  0  0
   36.9660   28.5430   42.4970 C   0  0  0  0  0  0  0  0  0  0  0  0
   37.6920   29.6730   42.3360 N   0  0  0  0  0  0  0  0  0  0  0  0
   37.1820   27.5130   43.5660 C   0  0  0  0  0  0  0  0  0  0  0  0
   38.6490   27.1900   43.7230 C   0  0  0  0  0  0  0  0  0  0  0  0
   36.6540   28.0670   44.8740 C   0  0  0  0  0  0  0  0  0  0  0  0
   40.4923   33.7054   40.9256 H   0  0  0  0  0  0  0  0  0  0  0  0
   39.7575   31.4918   41.8045 H   0  0  0  0  0  0  0  0  0  0  0  0
   36.7819   34.2343   38.9724 H   0  0  0  0  0  0  0  0  0  0  0  0
   36.6544   26.5894   43.2857 H   0  0  0  0  0  0  0  0  0  0  0  0
   38.8999   27.1348   44.7926 H   0  0  0  0  0  0  0  0  0  0  0  0
   38.8647   26.2229   43.2454 H   0  0  0  0  0  0  0  0  0  0  0  0
   39.2509   27.9771   43.2454 H   0  0  0  0  0  0  0  0  0  0  0  0
   37.1438   27.5531   45.7142 H   0  0  0  0  0  0  0  0  0  0  0  0
   36.8676   29.1447   44.9286 H   0  0  0  0  0  0  0  0  0  0  0  0
   35.5673   27.9054   44.9286 H   0  0  0  0  0  0  0  0  0  0  0  0
  1  2  2  0
  3  2  1  0
  3  7  1  0
  4  3  2  0
  5  6  2  0
  5  4  1  0
  6  1  1  0
  7 11  1  0
  8  7  2  0
  8  9  1  0
  9 10  1  0
 10 12  1  0
 11 10  2  0
 12 13  1  0
 12 14  1  0
  1 15  1  0
  2 16  1  0
  5 17  1  0
 12 18  1  0
 13 19  1  0
 13 20  1  0
 13 21  1  0
 14 22  1  0
 14 23  1  0
 14 24  1  0
M  ISO  8  15  14  16  14  17  14  18   8  19   8  20   8  21   8  22   8
M  ISO  2  23   8  24   8
M  END
>  <minimizedAffinity>  (1) 
-4.7291522

>  <minimizedRMSD>  (1) 
1.31692469

$$$$
