
     RDKit          3D

 21 22  0  0  0  0  0  0  0  0999 V2000
   39.4580   33.1460   40.7270 C   0  0  0  0  0  0  0  0  0  0  0  0
   39.0310   31.9070   41.2140 C   0  0  0  0  0  0  0  0  0  0  0  0
   37.7430   31.4860   40.8600 C   0  0  0  0  0  0  0  0  0  0  0  0
   36.9880   32.3030   40.0670 N   0  0  0  0  0  0  0  0  0  0  0  0
   37.4440   33.4950   39.6190 C   0  0  0  0  0  0  0  0  0  0  0  0
   38.6960   33.9150   39.9580 N   0  0  0  0  0  0  0  0  0  0  0  0
   37.1280   30.2260   41.2730 C   0  0  0  0  0  0  0  0  0  0  0  0
   36.1760   29.4530   40.6980 N   0  0  0  0  0  0  0  0  0  0  0  0
   35.9600   28.4140   41.4580 O   0  0  0  0  0  0  0  0  0  0  0  0
   36.7200   28.4510   42.5170 C   0  0  0  0  0  0  0  0  0  0  0  0
   37.4610   29.5870   42.4150 N   0  0  0  0  0  0  0  0  0  0  0  0
   36.7160   27.4170   43.5780 C   0  0  0  0  0  0  0  0  0  0  0  0
   36.5730   28.0330   44.9510 C   0  0  0  0  0  0  0  0  0  0  0  0
   40.4660   33.4981   40.9916 H   0  0  0  0  0  0  0  0  0  0  0  0
   39.6807   31.2876   41.8498 H   0  0  0  0  0  0  0  0  0  0  0  0
   36.8055   34.1247   38.9820 H   0  0  0  0  0  0  0  0  0  0  0  0
   35.8743   26.7304   43.4048 H   0  0  0  0  0  0  0  0  0  0  0  0
   37.6746   26.8788   43.5392 H   0  0  0  0  0  0  0  0  0  0  0  0
   36.7513   27.2648   45.7179 H   0  0  0  0  0  0  0  0  0  0  0  0
   37.3067   28.8443   45.0671 H   0  0  0  0  0  0  0  0  0  0  0  0
   35.5569   28.4381   45.0671 H   0  0  0  0  0  0  0  0  0  0  0  0
  1  2  2  0
  3  2  1  0
  3  7  1  0
  4  3  2  0
  5  6  2  0
  5  4  1  0
  6  1  1  0
  7 11  1  0
  8  7  2  0
  8  9  1  0
  9 10  1  0
 10 12  1  0
 11 10  2  0
 12 13  1  0
  1 14  1  0
  2 15  1  0
  5 16  1  0
 12 17  1  0
 12 18  1  0
 13 19  1  0
 13 20  1  0
 13 21  1  0
M  ISO  8  14  14  15  14  16  14  17   8  18   8  19   8  20   8  21   8
M  END
>  <minimizedAffinity>  (1) 
-4.33351851

>  <minimizedRMSD>  (1) 
1.22774172

$$$$
