
     RDKit          3D

 17 18  0  0  0  0  0  0  0  0999 V2000
   39.5230   32.9980   40.7550 C   0  0  0  0  0  0  0  0  0  0  0  0
   39.0690   31.7490   41.2110 C   0  0  0  0  0  0  0  0  0  0  0  0
   37.7690   31.3740   40.8650 C   0  0  0  0  0  0  0  0  0  0  0  0
   37.0540   32.2390   40.1240 N   0  0  0  0  0  0  0  0  0  0  0  0
   37.5050   33.4320   39.6960 C   0  0  0  0  0  0  0  0  0  0  0  0
   38.7560   33.8130   40.0170 N   0  0  0  0  0  0  0  0  0  0  0  0
   37.1520   30.1180   41.2570 C   0  0  0  0  0  0  0  0  0  0  0  0
   36.3690   29.2510   40.5660 N   0  0  0  0  0  0  0  0  0  0  0  0
   36.0500   28.2480   41.3370 O   0  0  0  0  0  0  0  0  0  0  0  0
   36.5900   28.4090   42.5280 C   0  0  0  0  0  0  0  0  0  0  0  0
   37.2670   29.5620   42.4710 N   0  0  0  0  0  0  0  0  0  0  0  0
   36.4930   27.5520   43.6570 N   0  0  0  0  0  0  0  0  0  0  0  0
   40.5433   33.3183   41.0125 H   0  0  0  0  0  0  0  0  0  0  0  0
   39.7117   31.0928   41.8163 H   0  0  0  0  0  0  0  0  0  0  0  0
   36.8605   34.0875   39.0919 H   0  0  0  0  0  0  0  0  0  0  0  0
   36.9699   27.8012   44.5353 H   0  0  0  0  0  0  0  0  0  0  0  0
   35.9458   26.6814   43.5972 H   0  0  0  0  0  0  0  0  0  0  0  0
  1  2  2  0
  3  2  1  0
  3  7  1  0
  4  3  2  0
  5  6  2  0
  5  4  1  0
  6  1  1  0
  7 11  1  0
  8  7  2  0
  8  9  1  0
  9 10  1  0
 10 12  1  0
 11 10  2  0
  1 13  1  0
  2 14  1  0
  5 15  1  0
 12 16  1  0
 12 17  1  0
M  ISO  3  13  14  14  14  15  14
M  END
>  <minimizedAffinity>  (1) 
-3.67573571

>  <minimizedRMSD>  (1) 
1.20277047

$$$$
