
     RDKit          3D

 20 22  0  0  0  0  0  0  0  0999 V2000
   37.7950   28.8180   39.2580 C   0  0  0  0  0  0  0  0  0  0  0  0
   38.5040   27.6860   39.4630 N   0  0  0  0  0  0  0  0  0  0  0  0
   38.3730   27.3080   40.7090 O   0  0  0  0  0  0  0  0  0  0  0  0
   37.6020   28.1420   41.3490 C   0  0  0  0  0  0  0  0  0  0  0  0
   37.2320   29.0920   40.4620 N   0  0  0  0  0  0  0  0  0  0  0  0
   37.6370   31.6630   36.7700 C   0  0  0  0  0  0  0  0  0  0  0  0
   37.9430   31.0110   37.9690 C   0  0  0  0  0  0  0  0  0  0  0  0
   37.5720   29.6780   38.0970 C   0  0  0  0  0  0  0  0  0  0  0  0
   36.9310   29.0850   37.0480 N   0  0  0  0  0  0  0  0  0  0  0  0
   36.6560   29.7640   35.9050 C   0  0  0  0  0  0  0  0  0  0  0  0
   37.0110   31.0530   35.7710 N   0  0  0  0  0  0  0  0  0  0  0  0
   37.1970   28.0940   42.7470 C   0  0  0  0  0  0  0  0  0  0  0  0
   37.6810   28.8460   43.7490 N   0  0  0  0  0  0  0  0  0  0  0  0
   37.0740   28.5180   44.8560 O   0  0  0  0  0  0  0  0  0  0  0  0
   36.1910   27.5600   44.6280 C   0  0  0  0  0  0  0  0  0  0  0  0
   36.2680   27.2920   43.2980 N   0  0  0  0  0  0  0  0  0  0  0  0
   37.9251   32.7179   36.6508 H   0  0  0  0  0  0  0  0  0  0  0  0
   38.4609   31.5367   38.7847 H   0  0  0  0  0  0  0  0  0  0  0  0
   36.1372   29.2537   35.0801 H   0  0  0  0  0  0  0  0  0  0  0  0
   35.5300   27.0789   45.3639 H   0  0  0  0  0  0  0  0  0  0  0  0
  1  2  2  0
  1  5  1  0
  2  3  1  0
  3  4  1  0
  4 12  1  0
  5  4  2  0
  6  7  2  0
  7  8  1  0
  8  1  1  0
  9  8  2  0
 10  9  1  0
 11 10  2  0
 11  6  1  0
 12 16  1  0
 12 13  2  0
 13 14  1  0
 15 14  1  0
 16 15  2  0
  6 17  1  0
  7 18  1  0
 10 19  1  0
 15 20  1  0
M  ISO  4  17  14  18  14  19  14  20  14
M  END
>  <minimizedAffinity>  (1) 
-3.1783874

>  <minimizedRMSD>  (1) 
3.55066752

$$$$
