
     RDKit          3D

 23 25  0  0  0  0  0  0  0  0999 V2000
   36.9070   30.1980   37.6410 C   0  0  0  0  0  0  0  0  0  0  0  0
   37.1820   31.4720   38.0260 N   0  0  0  0  0  0  0  0  0  0  0  0
   37.4680   31.4900   39.3050 O   0  0  0  0  0  0  0  0  0  0  0  0
   37.3940   30.2800   39.7910 C   0  0  0  0  0  0  0  0  0  0  0  0
   37.0480   29.4690   38.7700 N   0  0  0  0  0  0  0  0  0  0  0  0
   36.1380   29.4580   34.0190 C   0  0  0  0  0  0  0  0  0  0  0  0
   36.5270   30.2220   35.1290 C   0  0  0  0  0  0  0  0  0  0  0  0
   36.5380   29.5920   36.3740 C   0  0  0  0  0  0  0  0  0  0  0  0
   36.1710   28.2870   36.4250 N   0  0  0  0  0  0  0  0  0  0  0  0
   35.8020   27.5950   35.3210 C   0  0  0  0  0  0  0  0  0  0  0  0
   35.7850   28.1780   34.1210 N   0  0  0  0  0  0  0  0  0  0  0  0
   37.6360   29.8570   41.1650 C   0  0  0  0  0  0  0  0  0  0  0  0
   38.5520   30.3560   42.0010 N   0  0  0  0  0  0  0  0  0  0  0  0
   38.4650   29.7200   43.1470 O   0  0  0  0  0  0  0  0  0  0  0  0
   37.5170   28.8160   43.0890 C   0  0  0  0  0  0  0  0  0  0  0  0
   36.9870   28.8940   41.8440 N   0  0  0  0  0  0  0  0  0  0  0  0
   37.1100   27.8930   44.1810 C   0  0  0  0  0  0  0  0  0  0  0  0
   36.0680   27.0770   43.7700 F   0  0  0  0  0  0  0  0  0  0  0  0
   38.2120   27.1400   44.6090 F   0  0  0  0  0  0  0  0  0  0  0  0
   36.6790   28.5690   45.2980 F   0  0  0  0  0  0  0  0  0  0  0  0
   36.1240   29.9338   33.0273 H   0  0  0  0  0  0  0  0  0  0  0  0
   36.8129   31.2788   35.0221 H   0  0  0  0  0  0  0  0  0  0  0  0
   35.5124   26.5380   35.4148 H   0  0  0  0  0  0  0  0  0  0  0  0
  1  2  2  0
  1  5  1  0
  2  3  1  0
  3  4  1  0
  4 12  1  0
  5  4  2  0
  6 11  2  0
  6  7  1  0
  7  8  2  0
  8  9  1  0
  8  1  1  0
 10  9  2  0
 11 10  1  0
 12 16  1  0
 12 13  2  0
 13 14  1  0
 15 14  1  0
 15 17  1  0
 16 15  2  0
 17 19  1  0
 17 20  1  0
 18 17  1  0
  6 21  1  0
  7 22  1  0
 10 23  1  0
M  ISO  3  21  14  22  14  23  14
M  END
>  <minimizedAffinity>  (1) 
-5.16824865

>  <minimizedRMSD>  (1) 
2.82424569

$$$$
