
     RDKit          3D

 27 30  0  0  0  0  0  0  0  0999 V2000
   37.0820   30.3620   37.5300 C   0  0  0  0  0  0  0  0  0  0  0  0
   37.3870   31.6050   37.9440 N   0  0  0  0  0  0  0  0  0  0  0  0
   37.6830   31.5830   39.2190 O   0  0  0  0  0  0  0  0  0  0  0  0
   37.5860   30.3570   39.6770 C   0  0  0  0  0  0  0  0  0  0  0  0
   37.2140   29.5910   38.6390 N   0  0  0  0  0  0  0  0  0  0  0  0
   36.1680   29.7310   33.9170 C   0  0  0  0  0  0  0  0  0  0  0  0
   36.5630   30.4630   35.0300 C   0  0  0  0  0  0  0  0  0  0  0  0
   36.6840   29.7850   36.2460 C   0  0  0  0  0  0  0  0  0  0  0  0
   36.4120   28.4540   36.2750 N   0  0  0  0  0  0  0  0  0  0  0  0
   36.0280   27.7790   35.1500 C   0  0  0  0  0  0  0  0  0  0  0  0
   35.9070   28.4210   33.9760 N   0  0  0  0  0  0  0  0  0  0  0  0
   37.8300   29.9080   41.0310 C   0  0  0  0  0  0  0  0  0  0  0  0
   38.6290   30.5050   41.9400 N   0  0  0  0  0  0  0  0  0  0  0  0
   38.6060   29.8240   43.0480 O   0  0  0  0  0  0  0  0  0  0  0  0
   37.8030   28.7740   42.9080 C   0  0  0  0  0  0  0  0  0  0  0  0
   37.3240   28.8340   41.6500 N   0  0  0  0  0  0  0  0  0  0  0  0
   37.5160   27.7560   43.9560 C   0  0  0  0  0  0  0  0  0  0  0  0
   36.1740   27.1410   44.0800 C   0  0  0  0  0  0  0  0  0  0  0  0
   36.6010   28.2560   45.0740 C   0  0  0  0  0  0  0  0  0  0  0  0
   36.0663   30.2484   32.9516 H   0  0  0  0  0  0  0  0  0  0  0  0
   36.7734   31.5402   34.9564 H   0  0  0  0  0  0  0  0  0  0  0  0
   35.8163   26.7010   35.2064 H   0  0  0  0  0  0  0  0  0  0  0  0
   38.5146   27.3025   43.8714 H   0  0  0  0  0  0  0  0  0  0  0  0
   35.4038   27.3469   43.3221 H   0  0  0  0  0  0  0  0  0  0  0  0
   35.7994   26.1120   44.1836 H   0  0  0  0  0  0  0  0  0  0  0  0
   36.8201   28.0121   46.1240 H   0  0  0  0  0  0  0  0  0  0  0  0
   36.1994   29.2288   45.3940 H   0  0  0  0  0  0  0  0  0  0  0  0
  1  2  2  0
  1  5  1  0
  2  3  1  0
  3  4  1  0
  4 12  1  0
  5  4  2  0
  6 11  2  0
  6  7  1  0
  7  8  2  0
  8  9  1  0
  8  1  1  0
 10  9  2  0
 11 10  1  0
 12 16  1  0
 12 13  2  0
 13 14  1  0
 15 14  1  0
 15 17  1  0
 16 15  2  0
 17 18  1  0
 17 19  1  0
 18 19  1  0
  6 20  1  0
  7 21  1  0
 10 22  1  0
 17 23  1  0
 18 24  1  0
 18 25  1  0
 19 26  1  0
 19 27  1  0
M  ISO  8  20  14  21  14  22  14  23  13  24  13  25  13  26  13  27  13
M  END
>  <minimizedAffinity>  (1) 
-4.56360102

>  <minimizedRMSD>  (1) 
2.90401506

$$$$
