
     RDKit          3D

 26 28  0  0  0  0  0  0  0  0999 V2000
   36.9030   30.1330   37.5670 C   0  0  0  0  0  0  0  0  0  0  0  0
   37.2410   31.3770   37.9800 N   0  0  0  0  0  0  0  0  0  0  0  0
   37.4980   31.3590   39.2640 O   0  0  0  0  0  0  0  0  0  0  0  0
   37.3440   30.1480   39.7310 C   0  0  0  0  0  0  0  0  0  0  0  0
   36.9730   29.3720   38.6910 N   0  0  0  0  0  0  0  0  0  0  0  0
   36.1510   29.5150   33.9120 C   0  0  0  0  0  0  0  0  0  0  0  0
   36.5470   30.2120   35.0480 C   0  0  0  0  0  0  0  0  0  0  0  0
   36.5260   29.5660   36.2800 C   0  0  0  0  0  0  0  0  0  0  0  0
   36.1110   28.2640   36.3060 N   0  0  0  0  0  0  0  0  0  0  0  0
   35.7340   27.6180   35.1750 C   0  0  0  0  0  0  0  0  0  0  0  0
   35.7530   28.2400   33.9840 N   0  0  0  0  0  0  0  0  0  0  0  0
   37.5270   29.6970   41.0960 C   0  0  0  0  0  0  0  0  0  0  0  0
   38.3920   30.1840   42.0020 N   0  0  0  0  0  0  0  0  0  0  0  0
   38.2620   29.5260   43.1120 O   0  0  0  0  0  0  0  0  0  0  0  0
   37.3360   28.6010   42.9940 C   0  0  0  0  0  0  0  0  0  0  0  0
   36.8690   28.7050   41.7230 N   0  0  0  0  0  0  0  0  0  0  0  0
   36.7710   27.5730   43.9060 C   0  0  0  0  0  0  0  0  0  0  0  0
   36.4180   28.1630   45.2570 C   0  0  0  0  0  0  0  0  0  0  0  0
   36.1653   30.0216   32.9357 H   0  0  0  0  0  0  0  0  0  0  0  0
   36.8725   31.2601   34.9737 H   0  0  0  0  0  0  0  0  0  0  0  0
   35.4077   26.5691   35.2333 H   0  0  0  0  0  0  0  0  0  0  0  0
   35.8621   27.1523   43.4511 H   0  0  0  0  0  0  0  0  0  0  0  0
   37.5302   26.7917   44.0582 H   0  0  0  0  0  0  0  0  0  0  0  0
   36.8072   27.5125   46.0542 H   0  0  0  0  0  0  0  0  0  0  0  0
   36.8661   29.1634   45.3486 H   0  0  0  0  0  0  0  0  0  0  0  0
   35.3246   28.2412   45.3486 H   0  0  0  0  0  0  0  0  0  0  0  0
  1  2  2  0
  1  5  1  0
  2  3  1  0
  3  4  1  0
  4 12  1  0
  5  4  2  0
  6 11  2  0
  6  7  1  0
  7  8  2  0
  8  9  1  0
  8  1  1  0
 10  9  2  0
 11 10  1  0
 12 16  1  0
 12 13  2  0
 13 14  1  0
 15 14  1  0
 15 17  1  0
 16 15  2  0
 17 18  1  0
  6 19  1  0
  7 20  1  0
 10 21  1  0
 17 22  1  0
 17 23  1  0
 18 24  1  0
 18 25  1  0
 18 26  1  0
M  ISO  8  19  14  20  14  21  14  22   8  23   8  24   8  25   8  26   8
M  END
>  <minimizedAffinity>  (1) 
-4.38769197

>  <minimizedRMSD>  (1) 
2.79953122

$$$$
