
     RDKit          3D

 21 23  0  0  0  0  0  0  0  0999 V2000
   36.7290   27.2300   38.4460 C   0  0  0  0  0  0  0  0  0  0  0  0
   36.7330   25.9230   38.7640 N   0  0  0  0  0  0  0  0  0  0  0  0
   36.9090   25.7950   40.0550 O   0  0  0  0  0  0  0  0  0  0  0  0
   37.0230   26.9790   40.6100 C   0  0  0  0  0  0  0  0  0  0  0  0
   36.9130   27.8780   39.6180 N   0  0  0  0  0  0  0  0  0  0  0  0
   36.5720   29.8560   35.7250 C   0  0  0  0  0  0  0  0  0  0  0  0
   36.7660   29.3390   37.0010 C   0  0  0  0  0  0  0  0  0  0  0  0
   36.5770   27.9720   37.1910 C   0  0  0  0  0  0  0  0  0  0  0  0
   36.2150   27.2270   36.1150 N   0  0  0  0  0  0  0  0  0  0  0  0
   36.0350   27.7700   34.8820 C   0  0  0  0  0  0  0  0  0  0  0  0
   36.2200   29.0990   34.7040 N   0  0  0  0  0  0  0  0  0  0  0  0
   37.2300   27.2760   42.0250 C   0  0  0  0  0  0  0  0  0  0  0  0
   38.3580   27.0260   42.7270 N   0  0  0  0  0  0  0  0  0  0  0  0
   38.1570   27.4300   43.9530 O   0  0  0  0  0  0  0  0  0  0  0  0
   36.9470   27.9360   44.0930 C   0  0  0  0  0  0  0  0  0  0  0  0
   36.3640   27.8370   42.8720 N   0  0  0  0  0  0  0  0  0  0  0  0
   36.4530   28.4480   45.2930 O   0  0  0  0  0  0  0  0  0  0  0  0
   36.7172   30.9340   35.5613 H   0  0  0  0  0  0  0  0  0  0  0  0
   37.0604   29.9909   37.8367 H   0  0  0  0  0  0  0  0  0  0  0  0
   35.7409   27.1336   34.0344 H   0  0  0  0  0  0  0  0  0  0  0  0
   35.5343   28.8147   45.3338 H   0  0  0  0  0  0  0  0  0  0  0  0
  1  2  2  0
  1  5  1  0
  2  3  1  0
  3  4  1  0
  4 12  1  0
  5  4  2  0
  6  7  2  0
  7  8  1  0
  8  1  1  0
  9  8  2  0
 10  9  1  0
 11 10  2  0
 11  6  1  0
 12 13  2  0
 12 16  1  0
 13 14  1  0
 14 15  1  0
 15 17  1  0
 16 15  2  0
  6 18  1  0
  7 19  1  0
 10 20  1  0
 17 21  1  0
M  ISO  4  18  14  19  14  20  14  21   3
M  END
>  <minimizedAffinity>  (1) 
-4.10970926

>  <minimizedRMSD>  (1) 
1.96454442

$$$$
