
     RDKit          3D

 29 31  0  0  0  0  0  0  0  0999 V2000
   39.4400   30.6070   39.1120 C   0  0  0  0  0  0  0  0  0  0  0  0
   40.3780   30.1230   38.2850 N   0  0  0  0  0  0  0  0  0  0  0  0
   40.4320   28.8190   38.3870 O   0  0  0  0  0  0  0  0  0  0  0  0
   39.5460   28.4120   39.2680 C   0  0  0  0  0  0  0  0  0  0  0  0
   38.9190   29.5040   39.7310 N   0  0  0  0  0  0  0  0  0  0  0  0
   37.3760   33.7350   39.6410 C   0  0  0  0  0  0  0  0  0  0  0  0
   37.6500   32.4070   39.2790 C   0  0  0  0  0  0  0  0  0  0  0  0
   38.9400   31.9450   39.4270 C   0  0  0  0  0  0  0  0  0  0  0  0
   39.8830   32.8110   39.9210 N   0  0  0  0  0  0  0  0  0  0  0  0
   39.5630   34.0800   40.2540 C   0  0  0  0  0  0  0  0  0  0  0  0
   38.3220   34.5490   40.1190 N   0  0  0  0  0  0  0  0  0  0  0  0
   39.2840   27.0350   39.6760 C   0  0  0  0  0  0  0  0  0  0  0  0
   40.0880   25.9840   39.5130 N   0  0  0  0  0  0  0  0  0  0  0  0
   39.5140   24.9290   40.0020 O   0  0  0  0  0  0  0  0  0  0  0  0
   38.3170   25.2390   40.5030 C   0  0  0  0  0  0  0  0  0  0  0  0
   38.1680   26.5790   40.2980 N   0  0  0  0  0  0  0  0  0  0  0  0
   37.3810   24.2960   41.1400 C   0  0  0  0  0  0  0  0  0  0  0  0
   36.2420   23.8670   40.2670 C   0  0  0  0  0  0  0  0  0  0  0  0
   36.7700   24.8980   42.4140 C   0  0  0  0  0  0  0  0  0  0  0  0
   36.3509   34.1177   39.5278 H   0  0  0  0  0  0  0  0  0  0  0  0
   36.8569   31.7528   38.8879 H   0  0  0  0  0  0  0  0  0  0  0  0
   40.3467   34.7443   40.6470 H   0  0  0  0  0  0  0  0  0  0  0  0
   38.0000   23.4136   41.3597 H   0  0  0  0  0  0  0  0  0  0  0  0
   35.3975   23.5489   40.8960 H   0  0  0  0  0  0  0  0  0  0  0  0
   35.9294   24.7090   39.6319 H   0  0  0  0  0  0  0  0  0  0  0  0
   36.5626   23.0280   39.6319 H   0  0  0  0  0  0  0  0  0  0  0  0
   37.2369   24.4379   43.2974 H   0  0  0  0  0  0  0  0  0  0  0  0
   36.9481   25.9834   42.4286 H   0  0  0  0  0  0  0  0  0  0  0  0
   35.6874   24.7038   42.4286 H   0  0  0  0  0  0  0  0  0  0  0  0
  1  8  1  0
  1  5  1  0
  2  3  1  0
  2  1  2  0
  3  4  1  0
  4 12  1  0
  4  5  2  0
  6 11  2  0
  7  8  2  0
  7  6  1  0
  8  9  1  0
  9 10  2  0
 11 10  1  0
 12 16  1  0
 13 12  2  0
 13 14  1  0
 14 15  1  0
 15 17  1  0
 16 15  2  0
 17 19  1  0
 18 17  1  0
  6 20  1  0
  7 21  1  0
 10 22  1  0
 17 23  1  0
 18 24  1  0
 18 25  1  0
 18 26  1  0
 19 27  1  0
 19 28  1  0
 19 29  1  0
M  ISO  8  20  14  21  14  22  14  23   8  24   8  25   8  26   8  27   8
M  ISO  2  28   8  29   8
M  END
>  <minimizedAffinity>  (1) 
-4.00299311

>  <minimizedRMSD>  (1) 
4.54729176

$$$$
