
     RDKit          3D

 26 29  0  0  0  0  0  0  0  0999 V2000
   36.2120   27.9920   35.3020 C   0  0  0  0  0  0  0  0  0  0  0  0
   35.8030   26.7200   35.0460 N   0  0  0  0  0  0  0  0  0  0  0  0
   35.8500   26.0180   36.1480 O   0  0  0  0  0  0  0  0  0  0  0  0
   36.2730   26.7630   37.1240 C   0  0  0  0  0  0  0  0  0  0  0  0
   36.5010   27.9850   36.6180 N   0  0  0  0  0  0  0  0  0  0  0  0
   36.4720   26.3750   38.5220 C   0  0  0  0  0  0  0  0  0  0  0  0
   36.2810   25.1620   39.0460 N   0  0  0  0  0  0  0  0  0  0  0  0
   36.5610   25.2070   40.3220 O   0  0  0  0  0  0  0  0  0  0  0  0
   36.9350   26.4180   40.6650 C   0  0  0  0  0  0  0  0  0  0  0  0
   36.8830   27.1650   39.5410 N   0  0  0  0  0  0  0  0  0  0  0  0
   37.3400   27.0060   41.8920 N   0  0  0  0  0  0  0  0  0  0  0  0
   36.7640   28.0350   42.5360 C   0  0  0  0  0  0  0  0  0  0  0  0
   37.4520   28.2930   43.6690 N   0  0  0  0  0  0  0  0  0  0  0  0
   38.4730   27.3920   43.7110 C   0  0  0  0  0  0  0  0  0  0  0  0
   38.3980   26.5970   42.6060 N   0  0  0  0  0  0  0  0  0  0  0  0
   36.5200   31.5140   33.9930 C   0  0  0  0  0  0  0  0  0  0  0  0
   36.3650   30.5110   34.9380 C   0  0  0  0  0  0  0  0  0  0  0  0
   36.3630   29.1890   34.4730 C   0  0  0  0  0  0  0  0  0  0  0  0
   36.5140   28.9600   33.1380 N   0  0  0  0  0  0  0  0  0  0  0  0
   36.6630   29.9890   32.2600 C   0  0  0  0  0  0  0  0  0  0  0  0
   36.6650   31.2690   32.6960 N   0  0  0  0  0  0  0  0  0  0  0  0
   35.8725   28.5812   42.1942 H   0  0  0  0  0  0  0  0  0  0  0  0
   39.2315   27.3182   44.5043 H   0  0  0  0  0  0  0  0  0  0  0  0
   36.5230   32.5600   34.3333 H   0  0  0  0  0  0  0  0  0  0  0  0
   36.2486   30.7432   36.0069 H   0  0  0  0  0  0  0  0  0  0  0  0
   36.7828   29.7778   31.1871 H   0  0  0  0  0  0  0  0  0  0  0  0
  1  5  1  0
  2  1  2  0
  2  3  1  0
  3  4  1  0
  4  6  1  0
  5  4  2  0
  6  7  2  0
  6 10  1  0
  7  8  1  0
  8  9  1  0
  9 11  1  0
 10  9  2  0
 11 12  1  0
 11 15  1  0
 12 13  2  0
 13 14  1  0
 15 14  2  0
 16 17  2  0
 18 17  1  0
 18  1  1  0
 19 18  2  0
 20 21  2  0
 20 19  1  0
 21 16  1  0
 12 22  1  0
 14 23  1  0
 16 24  1  0
 17 25  1  0
 20 26  1  0
M  ISO  5  22  14  23  14  24  14  25  14  26  14
M  END
>  <minimizedAffinity>  (1) 
-3.94333553

>  <minimizedRMSD>  (1) 
4.56461525

$$$$
