
     RDKit          3D

 23 25  0  0  0  0  0  0  0  0999 V2000
   36.2030   27.4890   38.1920 C   0  0  0  0  0  0  0  0  0  0  0  0
   36.1080   26.1580   38.4620 N   0  0  0  0  0  0  0  0  0  0  0  0
   36.4200   25.9560   39.7170 O   0  0  0  0  0  0  0  0  0  0  0  0
   36.7210   27.0880   40.2970 C   0  0  0  0  0  0  0  0  0  0  0  0
   36.5890   28.0440   39.3580 N   0  0  0  0  0  0  0  0  0  0  0  0
   36.4500   29.8910   35.2900 C   0  0  0  0  0  0  0  0  0  0  0  0
   36.8360   29.2290   36.4570 C   0  0  0  0  0  0  0  0  0  0  0  0
   35.9790   28.2850   36.9830 C   0  0  0  0  0  0  0  0  0  0  0  0
   34.7940   28.0400   36.3460 N   0  0  0  0  0  0  0  0  0  0  0  0
   34.4670   28.7130   35.2120 C   0  0  0  0  0  0  0  0  0  0  0  0
   35.2840   29.6300   34.6860 N   0  0  0  0  0  0  0  0  0  0  0  0
   37.1210   27.3050   41.6740 C   0  0  0  0  0  0  0  0  0  0  0  0
   38.3480   27.1750   42.1900 N   0  0  0  0  0  0  0  0  0  0  0  0
   38.3090   27.4550   43.4590 O   0  0  0  0  0  0  0  0  0  0  0  0
   37.0800   27.7740   43.8220 C   0  0  0  0  0  0  0  0  0  0  0  0
   36.3230   27.6810   42.6990 N   0  0  0  0  0  0  0  0  0  0  0  0
   36.5460   28.1660   45.1590 C   0  0  0  0  0  0  0  0  0  0  0  0
   37.1212   30.6465   34.8556 H   0  0  0  0  0  0  0  0  0  0  0  0
   37.7967   29.4540   36.9433 H   0  0  0  0  0  0  0  0  0  0  0  0
   33.5088   28.4983   34.7162 H   0  0  0  0  0  0  0  0  0  0  0  0
   37.1639   27.7124   45.9480 H   0  0  0  0  0  0  0  0  0  0  0  0
   36.5717   29.2613   45.2573 H   0  0  0  0  0  0  0  0  0  0  0  0
   35.5087   27.8133   45.2573 H   0  0  0  0  0  0  0  0  0  0  0  0
  1  2  2  0
  1  5  1  0
  2  3  1  0
  3  4  1  0
  4 12  1  0
  5  4  2  0
  6  7  2  0
  7  8  1  0
  8  1  1  0
  9  8  2  0
 10  9  1  0
 11 10  2  0
 11  6  1  0
 12 13  2  0
 12 16  1  0
 13 14  1  0
 14 15  1  0
 15 17  1  0
 16 15  2  0
  6 18  1  0
  7 19  1  0
 10 20  1  0
 17 21  1  0
 17 22  1  0
 17 23  1  0
M  ISO  6  18  14  19  14  20  14  21   8  22   8  23   8
M  END
>  <minimizedAffinity>  (1) 
-4.06071615

>  <minimizedRMSD>  (1) 
2.1999383

$$$$
