
     RDKit          3D

 38 41  0  0  0  0  0  0  0  0999 V2000
   38.0240   25.0650   39.2610 C   0  0  0  0  0  0  0  0  0  0  0  0
   37.9890   23.8690   39.8530 N   0  0  0  0  0  0  0  0  0  0  0  0
   38.5310   23.9580   41.0270 O   0  0  0  0  0  0  0  0  0  0  0  0
   38.9440   25.2000   41.2600 C   0  0  0  0  0  0  0  0  0  0  0  0
   38.6250   25.9020   40.1480 N   0  0  0  0  0  0  0  0  0  0  0  0
   36.6930   26.5970   36.2880 C   0  0  0  0  0  0  0  0  0  0  0  0
   36.9390   25.3180   35.8840 N   0  0  0  0  0  0  0  0  0  0  0  0
   37.4340   24.6450   36.8930 O   0  0  0  0  0  0  0  0  0  0  0  0
   37.5310   25.4160   37.9530 C   0  0  0  0  0  0  0  0  0  0  0  0
   37.0710   26.6390   37.5860 N   0  0  0  0  0  0  0  0  0  0  0  0
   36.1810   29.8050   34.3590 C   0  0  0  0  0  0  0  0  0  0  0  0
   36.8710   28.7500   34.9480 C   0  0  0  0  0  0  0  0  0  0  0  0
   36.1490   27.7810   35.6080 C   0  0  0  0  0  0  0  0  0  0  0  0
   34.7820   27.8840   35.6660 N   0  0  0  0  0  0  0  0  0  0  0  0
   34.1620   28.9370   35.0740 C   0  0  0  0  0  0  0  0  0  0  0  0
   34.8410   29.8930   34.4250 N   0  0  0  0  0  0  0  0  0  0  0  0
   39.6150   25.7510   42.4640 C   0  0  0  0  0  0  0  0  0  0  0  0
   38.7170   26.5470   43.2410 N   0  0  0  0  0  0  0  0  0  0  0  0
   37.3280   26.3660   42.9580 C   0  0  0  0  0  0  0  0  0  0  0  0
   36.5150   27.6420   43.0580 C   0  0  0  0  0  0  0  0  0  0  0  0
   37.0250   28.6550   42.0660 C   0  0  0  0  0  0  0  0  0  0  0  0
   38.5090   28.8000   42.2420 C   0  0  0  0  0  0  0  0  0  0  0  0
   39.0740   27.9260   43.3360 C   0  0  0  0  0  0  0  0  0  0  0  0
   36.7450   30.5853   33.8269 H   0  0  0  0  0  0  0  0  0  0  0  0
   37.9678   28.6915   34.8878 H   0  0  0  0  0  0  0  0  0  0  0  0
   33.0657   29.0078   35.1289 H   0  0  0  0  0  0  0  0  0  0  0  0
   39.9821   24.9184   43.0821 H   0  0  0  0  0  0  0  0  0  0  0  0
   40.4486   26.3890   42.1353 H   0  0  0  0  0  0  0  0  0  0  0  0
   36.9198   25.6370   43.6735 H   0  0  0  0  0  0  0  0  0  0  0  0
   37.2543   26.0183   41.9170 H   0  0  0  0  0  0  0  0  0  0  0  0
   35.4595   27.4197   42.8421 H   0  0  0  0  0  0  0  0  0  0  0  0
   36.6087   28.0520   44.0744 H   0  0  0  0  0  0  0  0  0  0  0  0
   36.5354   29.6241   42.2424 H   0  0  0  0  0  0  0  0  0  0  0  0
   36.8010   28.3210   41.0421 H   0  0  0  0  0  0  0  0  0  0  0  0
   38.9997   28.5328   41.2945 H   0  0  0  0  0  0  0  0  0  0  0  0
   38.7001   29.8441   42.5308 H   0  0  0  0  0  0  0  0  0  0  0  0
   38.7115   28.3082   44.3017 H   0  0  0  0  0  0  0  0  0  0  0  0
   40.1685   27.9715   43.2364 H   0  0  0  0  0  0  0  0  0  0  0  0
  1  2  2  0
  1  5  1  0
  2  3  1  0
  3  4  1  0
  4 17  1  0
  5  4  2  0
  6 10  1  0
  7  6  2  0
  7  8  1  0
  8  9  1  0
  9  1  1  0
 10  9  2  0
 11 16  2  0
 11 12  1  0
 12 13  2  0
 13 14  1  0
 13  6  1  0
 15 14  2  0
 16 15  1  0
 17 18  1  0
 18 23  1  0
 19 20  1  0
 19 18  1  0
 21 22  1  0
 21 20  1  0
 22 23  1  0
 11 24  1  0
 12 25  1  0
 15 26  1  0
 17 27  1  0
 17 28  1  0
 19 29  1  0
 19 30  1  0
 20 31  1  0
 20 32  1  0
 21 33  1  0
 21 34  1  0
 22 35  1  0
 22 36  1  0
 23 37  1  0
 23 38  1  0
M  ISO  8  24  14  25  14  26  14  27   8  28   8  29  13  30  13  31  13
M  ISO  7  32  13  33  13  34  13  35  13  36  13  37  13  38  13
M  END
>  <minimizedAffinity>  (1) 
-3.75088167

>  <minimizedRMSD>  (1) 
3.63315368

$$$$
