
     RDKit          3D

 39 42  0  0  1  0  0  0  0  0999 V2000
   40.0140   32.1700   41.1900 C   0  0  0  0  0  0  0  0  0  0  0  0
   39.6150   30.8910   41.6670 C   0  0  0  0  0  0  0  0  0  0  0  0
   38.2960   30.5300   41.5120 C   0  0  0  0  0  0  0  0  0  0  0  0
   37.4360   31.4080   40.9110 N   0  0  0  0  0  0  0  0  0  0  0  0
   37.8360   32.6250   40.4620 C   0  0  0  0  0  0  0  0  0  0  0  0
   39.1350   33.0070   40.6030 N   0  0  0  0  0  0  0  0  0  0  0  0
   36.8840   33.4850   39.8470 N   0  0  0  0  0  0  0  0  0  0  0  0
   37.8120   29.2850   41.9530 N   0  0  0  0  0  0  0  0  0  0  0  0
   37.9090   28.9290   43.3480 C   0  0  0  0  0  0  0  0  0  0  0  0
   36.8530   27.8510   43.6110 C   0  0  0  0  0  0  0  0  0  0  0  0
   36.9590   26.7090   42.7660 N   0  0  0  0  0  0  0  0  0  0  0  0
   37.5100   26.9520   41.4760 C   0  0  0  0  0  0  0  0  0  0  0  0
   37.2150   28.3560   41.0190 C   0  0  2  0  0  0  0  0  0  0  0  0
   37.5590   28.5880   39.6090 C   0  0  0  0  0  0  0  0  0  0  0  0
   36.5740   28.9420   38.6850 C   0  0  0  0  0  0  0  0  0  0  0  0
   36.8120   29.1740   37.3570 C   0  0  0  0  0  0  0  0  0  0  0  0
   38.0970   29.0390   36.9770 N   0  0  0  0  0  0  0  0  0  0  0  0
   39.0670   28.7000   37.8410 C   0  0  0  0  0  0  0  0  0  0  0  0
   38.8260   28.4700   39.1550 N   0  0  0  0  0  0  0  0  0  0  0  0
   40.3970   28.6030   37.2360 C   0  0  0  0  0  0  0  0  0  0  0  0
   41.1240   27.5990   36.6910 N   0  0  0  0  0  0  0  0  0  0  0  0
   42.2710   28.0710   36.2960 O   0  0  0  0  0  0  0  0  0  0  0  0
   42.3510   29.3750   36.5550 C   0  0  0  0  0  0  0  0  0  0  0  0
   41.1870   29.7130   37.1410 N   0  0  0  0  0  0  0  0  0  0  0  0
   41.0625   32.4832   41.3024 H   0  0  0  0  0  0  0  0  0  0  0  0
   40.3372   30.2123   42.1443 H   0  0  0  0  0  0  0  0  0  0  0  0
   35.9047   33.1818   39.7475 H   0  0  0  0  0  0  0  0  0  0  0  0
   37.1741   34.4108   39.5012 H   0  0  0  0  0  0  0  0  0  0  0  0
   38.9125   28.5362   43.5685 H   0  0  0  0  0  0  0  0  0  0  0  0
   37.7411   29.8069   43.9892 H   0  0  0  0  0  0  0  0  0  0  0  0
   36.9529   27.5180   44.6546 H   0  0  0  0  0  0  0  0  0  0  0  0
   35.8754   28.3093   43.4007 H   0  0  0  0  0  0  0  0  0  0  0  0
   37.5557   26.0167   43.2410 H   0  0  0  0  0  0  0  0  0  0  0  0
   38.5998   26.8087   41.5175 H   0  0  0  0  0  0  0  0  0  0  0  0
   37.0558   26.2485   40.7627 H   0  0  0  0  0  0  0  0  0  0  0  0
   36.1284   28.5266   41.0319 H   0  0  0  0  0  0  0  0  0  0  0  0
   35.5401   29.0409   39.0474 H   0  0  0  0  0  0  0  0  0  0  0  0
   36.0133   29.4501   36.6528 H   0  0  0  0  0  0  0  0  0  0  0  0
   43.1977   30.0417   36.3345 H   0  0  0  0  0  0  0  0  0  0  0  0
  1  2  2  0
  3  2  1  0
  3  8  1  0
  4  3  2  0
  5  6  2  0
  5  4  1  0
  6  1  1  0
  7  5  1  0
  8  9  1  0
  9 10  1  0
 11 10  1  0
 12 11  1  0
 13 12  1  0
 13  8  1  0
 14 13  1  0
 15 14  2  0
 16 15  1  0
 17 16  2  0
 17 18  1  0
 18 19  2  0
 19 14  1  0
 20 18  1  0
 21 20  2  0
 22 23  1  0
 22 21  1  0
 23 24  2  0
 24 20  1  0
  1 25  1  0
  2 26  1  0
  7 27  1  0
  7 28  1  0
  9 29  1  0
  9 30  1  0
 10 31  1  0
 10 32  1  0
 11 33  1  0
 12 34  1  0
 12 35  1  0
 13 36  1  6
 15 37  1  0
 16 38  1  0
 23 39  1  0
M  ISO  8  25  14  26  14  29  13  30  13  31  13  32  13  33   5  34  13
M  ISO  5  35  13  36  13  37  14  38  14  39  14
M  END
>  <minimizedAffinity>  (1) 
-5.66415596

>  <minimizedRMSD>  (1) 
1.39074433

$$$$
