
     RDKit          3D

 32 35  0  0  0  0  0  0  0  0999 V2000
   37.8470   25.3050   42.0220 C   0  0  0  0  0  0  0  0  0  0  0  0
   39.0670   25.6530   42.4350 N   0  0  0  0  0  0  0  0  0  0  0  0
   38.9770   26.7310   43.1700 O   0  0  0  0  0  0  0  0  0  0  0  0
   37.7080   27.1170   43.2590 C   0  0  0  0  0  0  0  0  0  0  0  0
   37.0100   26.2160   42.5360 N   0  0  0  0  0  0  0  0  0  0  0  0
   36.3460   22.8340   39.8640 C   0  0  0  0  0  0  0  0  0  0  0  0
   37.5950   22.3180   40.1050 N   0  0  0  0  0  0  0  0  0  0  0  0
   38.2450   23.1430   40.8910 O   0  0  0  0  0  0  0  0  0  0  0  0
   37.5010   24.1750   41.1860 C   0  0  0  0  0  0  0  0  0  0  0  0
   36.3160   24.0000   40.5560 N   0  0  0  0  0  0  0  0  0  0  0  0
   34.0810   21.2360   37.3150 C   0  0  0  0  0  0  0  0  0  0  0  0
   35.2600   21.5930   37.9420 C   0  0  0  0  0  0  0  0  0  0  0  0
   35.2120   22.3690   39.0810 C   0  0  0  0  0  0  0  0  0  0  0  0
   33.9890   22.7550   39.5470 N   0  0  0  0  0  0  0  0  0  0  0  0
   32.8570   22.3800   38.8990 C   0  0  0  0  0  0  0  0  0  0  0  0
   32.9020   21.6280   37.7940 N   0  0  0  0  0  0  0  0  0  0  0  0
   37.1770   28.2780   43.9890 C   0  0  0  0  0  0  0  0  0  0  0  0
   37.2770   29.4420   43.1120 N   0  0  0  0  0  0  0  0  0  0  0  0
   37.7800   29.4610   39.6960 N   0  0  0  0  0  0  0  0  0  0  0  0
   38.0670   29.2760   40.9950 N   0  0  0  0  0  0  0  0  0  0  0  0
   36.9880   29.6310   41.7520 C   0  0  0  0  0  0  0  0  0  0  0  0
   36.0150   30.0470   40.8700 C   0  0  0  0  0  0  0  0  0  0  0  0
   36.5280   29.9340   39.5850 C   0  0  0  0  0  0  0  0  0  0  0  0
   34.1173   20.6181   36.4057 H   0  0  0  0  0  0  0  0  0  0  0  0
   36.2272   21.2613   37.5364 H   0  0  0  0  0  0  0  0  0  0  0  0
   31.8810   22.7017   39.2913 H   0  0  0  0  0  0  0  0  0  0  0  0
   36.1251   28.1016   44.2579 H   0  0  0  0  0  0  0  0  0  0  0  0
   37.7487   28.4441   44.9140 H   0  0  0  0  0  0  0  0  0  0  0  0
   37.6276   30.2880   43.5834 H   0  0  0  0  0  0  0  0  0  0  0  0
   38.4183   29.2705   38.9104 H   0  0  0  0  0  0  0  0  0  0  0  0
   35.0097   30.4052   41.1367 H   0  0  0  0  0  0  0  0  0  0  0  0
   36.0061   30.1852   38.6498 H   0  0  0  0  0  0  0  0  0  0  0  0
  1  2  2  0
  1  5  1  0
  2  3  1  0
  3  4  1  0
  4 17  1  0
  5  4  2  0
  6  7  2  0
  6 10  1  0
  7  8  1  0
  8  9  1  0
  9  1  1  0
 10  9  2  0
 11 16  2  0
 11 12  1  0
 12 13  2  0
 13 14  1  0
 13  6  1  0
 15 14  2  0
 16 15  1  0
 18 17  1  0
 19 20  1  0
 20 21  2  0
 21 18  1  0
 22 21  1  0
 23 19  1  0
 23 22  2  0
 11 24  1  0
 12 25  1  0
 15 26  1  0
 17 27  1  0
 17 28  1  0
 18 29  1  0
 19 30  1  0
 22 31  1  0
 23 32  1  0
M  ISO  8  24  14  25  14  26  14  27   8  28   8  30   9  31  14  32  14
M  END
>  <minimizedAffinity>  (1) 
-4.79493713

>  <minimizedRMSD>  (1) 
4.61253357

$$$$
