
     RDKit          3D

 37 40  0  0  1  0  0  0  0  0999 V2000
   38.2320   26.1350   41.9940 C   0  0  0  0  0  0  0  0  0  0  0  0
   38.8090   26.3840   43.1830 N   0  0  0  0  0  0  0  0  0  0  0  0
   38.9030   27.6690   43.3470 O   0  0  0  0  0  0  0  0  0  0  0  0
   38.4090   28.3040   42.3080 C   0  0  0  0  0  0  0  0  0  0  0  0
   37.9870   27.3400   41.4570 N   0  0  0  0  0  0  0  0  0  0  0  0
   36.9260   23.2520   40.2840 C   0  0  0  0  0  0  0  0  0  0  0  0
   38.0530   22.7560   40.8980 N   0  0  0  0  0  0  0  0  0  0  0  0
   38.6250   23.7300   41.5640 O   0  0  0  0  0  0  0  0  0  0  0  0
   37.9450   24.8330   41.4250 C   0  0  0  0  0  0  0  0  0  0  0  0
   36.8920   24.5550   40.6360 N   0  0  0  0  0  0  0  0  0  0  0  0
   35.0780   21.2150   37.7020 C   0  0  0  0  0  0  0  0  0  0  0  0
   36.1380   21.7090   38.4320 C   0  0  0  0  0  0  0  0  0  0  0  0
   35.9190   22.6380   39.4280 C   0  0  0  0  0  0  0  0  0  0  0  0
   34.6370   23.0470   39.6660 N   0  0  0  0  0  0  0  0  0  0  0  0
   33.6240   22.5250   38.9130 C   0  0  0  0  0  0  0  0  0  0  0  0
   33.8350   21.6270   37.9500 N   0  0  0  0  0  0  0  0  0  0  0  0
   38.3120   29.7580   42.0700 C   0  0  0  0  0  0  0  0  0  0  0  0
   36.9260   30.1140   41.9010 N   0  0  0  0  0  0  0  0  0  0  0  0
   36.4020   32.0040   40.6850 N   0  0  0  0  0  0  0  0  0  0  0  0
   37.7340   32.5010   40.3910 C   0  0  0  0  0  0  0  0  0  0  0  0
   38.0110   31.7490   39.0830 C   0  0  0  0  0  0  0  0  0  0  0  0
   37.6230   30.3380   39.5440 C   0  0  0  0  0  0  0  0  0  0  0  0
   36.5570   30.5580   40.5970 C   0  0  1  0  0  0  0  0  0  0  0  0
   35.2595   20.4750   36.9086 H   0  0  0  0  0  0  0  0  0  0  0  0
   37.1600   21.3618   38.2199 H   0  0  0  0  0  0  0  0  0  0  0  0
   32.5941   22.8583   39.1085 H   0  0  0  0  0  0  0  0  0  0  0  0
   38.7301   30.3013   42.9303 H   0  0  0  0  0  0  0  0  0  0  0  0
   38.8774   30.0251   41.1651 H   0  0  0  0  0  0  0  0  0  0  0  0
   36.3566   29.2858   42.1264 H   0  0  0  0  0  0  0  0  0  0  0  0
   36.1029   32.2863   41.6293 H   0  0  0  0  0  0  0  0  0  0  0  0
   37.7408   33.5913   40.2453 H   0  0  0  0  0  0  0  0  0  0  0  0
   38.4766   32.3398   41.1864 H   0  0  0  0  0  0  0  0  0  0  0  0
   39.0680   31.8115   38.7851 H   0  0  0  0  0  0  0  0  0  0  0  0
   37.4803   32.1239   38.1954 H   0  0  0  0  0  0  0  0  0  0  0  0
   37.2232   29.7515   38.7037 H   0  0  0  0  0  0  0  0  0  0  0  0
   38.4842   29.7758   39.9343 H   0  0  0  0  0  0  0  0  0  0  0  0
   35.6583   29.9956   40.3037 H   0  0  0  0  0  0  0  0  0  0  0  0
  1  2  2  0
  2  3  1  0
  4  3  1  0
  5  1  1  0
  5  4  2  0
  6 10  1  0
  6  7  2  0
  7  8  1  0
  9  8  1  0
  9  1  1  0
 10  9  2  0
 11 16  2  0
 11 12  1  0
 12 13  2  0
 13 14  1  0
 13  6  1  0
 15 14  2  0
 16 15  1  0
 17  4  1  0
 18 17  1  0
 20 19  1  0
 21 22  1  0
 21 20  1  0
 22 23  1  0
 23 19  1  0
 23 18  1  0
 11 24  1  0
 12 25  1  0
 15 26  1  0
 17 27  1  0
 17 28  1  0
 18 29  1  0
 19 30  1  0
 20 31  1  0
 20 32  1  0
 21 33  1  0
 21 34  1  0
 22 35  1  0
 22 36  1  0
 23 37  1  6
M  ISO  8  24  14  25  14  26  14  27   8  28   8  29   5  30   5  31  13
M  ISO  6  32  13  33  13  34  13  35  13  36  13  37  13
M  END
>  <minimizedAffinity>  (1) 
-4.62393188

>  <minimizedRMSD>  (1) 
4.94254303

$$$$
