
     RDKit          3D

 32 35  0  0  0  0  0  0  0  0999 V2000
   37.8620   25.3400   42.1200 C   0  0  0  0  0  0  0  0  0  0  0  0
   39.0170   25.5280   42.7500 N   0  0  0  0  0  0  0  0  0  0  0  0
   38.9360   26.6440   43.4280 O   0  0  0  0  0  0  0  0  0  0  0  0
   37.7560   27.2070   43.2670 C   0  0  0  0  0  0  0  0  0  0  0  0
   37.0820   26.3810   42.4410 N   0  0  0  0  0  0  0  0  0  0  0  0
   36.3760   22.9400   39.8750 C   0  0  0  0  0  0  0  0  0  0  0  0
   37.5840   22.3890   40.1570 N   0  0  0  0  0  0  0  0  0  0  0  0
   38.2300   23.1840   40.9770 O   0  0  0  0  0  0  0  0  0  0  0  0
   37.5010   24.2320   41.2500 C   0  0  0  0  0  0  0  0  0  0  0  0
   36.3410   24.1040   40.5760 N   0  0  0  0  0  0  0  0  0  0  0  0
   34.1430   21.6180   37.1240 C   0  0  0  0  0  0  0  0  0  0  0  0
   35.3070   21.9630   37.7930 C   0  0  0  0  0  0  0  0  0  0  0  0
   35.2530   22.5210   39.0400 C   0  0  0  0  0  0  0  0  0  0  0  0
   34.0100   22.7240   39.5970 N   0  0  0  0  0  0  0  0  0  0  0  0
   32.8970   22.3760   38.9150 C   0  0  0  0  0  0  0  0  0  0  0  0
   32.9570   21.8280   37.6910 N   0  0  0  0  0  0  0  0  0  0  0  0
   37.2800   28.4660   43.8610 C   0  0  0  0  0  0  0  0  0  0  0  0
   37.8530   29.5690   43.0990 N   0  0  0  0  0  0  0  0  0  0  0  0
   37.5110   29.8550   41.7620 C   0  0  0  0  0  0  0  0  0  0  0  0
   36.3750   30.5250   41.3530 C   0  0  0  0  0  0  0  0  0  0  0  0
   36.3540   30.6310   39.9930 C   0  0  0  0  0  0  0  0  0  0  0  0
   37.5160   30.0010   39.5980 C   0  0  0  0  0  0  0  0  0  0  0  0
   38.1290   29.5820   40.6660 O   0  0  0  0  0  0  0  0  0  0  0  0
   34.1995   21.1692   36.1213 H   0  0  0  0  0  0  0  0  0  0  0  0
   36.2826   21.7863   37.3165 H   0  0  0  0  0  0  0  0  0  0  0  0
   31.9130   22.5466   39.3760 H   0  0  0  0  0  0  0  0  0  0  0  0
   36.1819   28.5098   43.8127 H   0  0  0  0  0  0  0  0  0  0  0  0
   37.5862   28.5306   44.9156 H   0  0  0  0  0  0  0  0  0  0  0  0
   38.5462   30.1727   43.5636 H   0  0  0  0  0  0  0  0  0  0  0  0
   35.5987   30.9168   42.0267 H   0  0  0  0  0  0  0  0  0  0  0  0
   35.5903   31.1068   39.3603 H   0  0  0  0  0  0  0  0  0  0  0  0
   37.8632   29.8751   38.5618 H   0  0  0  0  0  0  0  0  0  0  0  0
  1  5  1  0
  1  2  2  0
  2  3  1  0
  4  3  1  0
  4 17  1  0
  5  4  2  0
  6  7  2  0
  6 10  1  0
  7  8  1  0
  8  9  1  0
  9  1  1  0
 10  9  2  0
 11 16  2  0
 11 12  1  0
 12 13  2  0
 13 14  1  0
 13  6  1  0
 15 14  2  0
 16 15  1  0
 18 17  1  0
 19 18  1  0
 20 19  2  0
 21 20  1  0
 22 21  2  0
 22 23  1  0
 23 19  1  0
 11 24  1  0
 12 25  1  0
 15 26  1  0
 17 27  1  0
 17 28  1  0
 18 29  1  0
 20 30  1  0
 21 31  1  0
 22 32  1  0
M  ISO  8  24  14  25  14  26  14  27   8  28   8  30  14  31  14  32  14
M  END
>  <minimizedAffinity>  (1) 
-4.59959841

>  <minimizedRMSD>  (1) 
4.56800127

$$$$
