
     RDKit          3D

 33 36  0  0  0  0  0  0  0  0999 V2000
   38.4230   25.0670   39.9750 C   0  0  0  0  0  0  0  0  0  0  0  0
   39.7380   25.0750   39.8080 N   0  0  0  0  0  0  0  0  0  0  0  0
   40.2990   24.8960   40.9830 O   0  0  0  0  0  0  0  0  0  0  0  0
   39.4050   24.7700   41.9180 C   0  0  0  0  0  0  0  0  0  0  0  0
   38.2200   24.8780   41.2820 N   0  0  0  0  0  0  0  0  0  0  0  0
   35.7110   26.0280   37.7970 C   0  0  0  0  0  0  0  0  0  0  0  0
   36.1560   24.8630   37.2420 N   0  0  0  0  0  0  0  0  0  0  0  0
   37.1570   24.4080   37.9550 O   0  0  0  0  0  0  0  0  0  0  0  0
   37.4020   25.2240   38.9680 C   0  0  0  0  0  0  0  0  0  0  0  0
   36.5120   26.2340   38.8840 N   0  0  0  0  0  0  0  0  0  0  0  0
   33.3710   28.9700   37.5230 C   0  0  0  0  0  0  0  0  0  0  0  0
   34.4410   28.2050   37.9660 C   0  0  0  0  0  0  0  0  0  0  0  0
   34.6490   26.9600   37.4500 C   0  0  0  0  0  0  0  0  0  0  0  0
   33.7710   26.4960   36.4860 N   0  0  0  0  0  0  0  0  0  0  0  0
   32.7430   27.2780   36.0860 C   0  0  0  0  0  0  0  0  0  0  0  0
   32.5360   28.5050   36.5920 N   0  0  0  0  0  0  0  0  0  0  0  0
   39.6300   24.5610   43.3470 C   0  0  0  0  0  0  0  0  0  0  0  0
   39.9430   25.8270   43.9520 N   0  0  0  0  0  0  0  0  0  0  0  0
   39.4130   27.0650   43.6270 C   0  0  0  0  0  0  0  0  0  0  0  0
   38.1230   27.4200   43.8960 C   0  0  0  0  0  0  0  0  0  0  0  0
   37.5970   28.6450   43.5690 C   0  0  0  0  0  0  0  0  0  0  0  0
   38.3740   29.5530   42.9530 N   0  0  0  0  0  0  0  0  0  0  0  0
   39.6400   29.2350   42.6770 C   0  0  0  0  0  0  0  0  0  0  0  0
   40.1460   28.0260   43.0040 N   0  0  0  0  0  0  0  0  0  0  0  0
   33.2093   29.9729   37.9450 H   0  0  0  0  0  0  0  0  0  0  0  0
   35.1213   28.6030   38.7334 H   0  0  0  0  0  0  0  0  0  0  0  0
   32.0523   26.8962   35.3197 H   0  0  0  0  0  0  0  0  0  0  0  0
   38.7224   24.1443   43.8080 H   0  0  0  0  0  0  0  0  0  0  0  0
   40.4615   23.8568   43.4974 H   0  0  0  0  0  0  0  0  0  0  0  0
   40.6386   25.8119   44.7115 H   0  0  0  0  0  0  0  0  0  0  0  0
   37.4732   26.6890   44.3993 H   0  0  0  0  0  0  0  0  0  0  0  0
   36.5498   28.8815   43.8086 H   0  0  0  0  0  0  0  0  0  0  0  0
   40.2839   29.9712   42.1737 H   0  0  0  0  0  0  0  0  0  0  0  0
  1  5  1  0
  2  1  2  0
  2  3  1  0
  3  4  1  0
  4 17  1  0
  5  4  2  0
  6 10  1  0
  7  6  2  0
  7  8  1  0
  8  9  1  0
  9  1  1  0
 10  9  2  0
 11 12  2  0
 13  6  1  0
 13 12  1  0
 14 13  2  0
 15 14  1  0
 15 16  2  0
 16 11  1  0
 17 18  1  0
 19 20  2  0
 19 18  1  0
 21 20  1  0
 22 21  2  0
 23 22  1  0
 23 24  2  0
 24 19  1  0
 11 25  1  0
 12 26  1  0
 15 27  1  0
 17 28  1  0
 17 29  1  0
 18 30  1  0
 20 31  1  0
 21 32  1  0
 23 33  1  0
M  ISO  8  25  14  26  14  27  14  28   8  29   8  31  14  32  14  33  14
M  END
>  <minimizedAffinity>  (1) 
-4.38327265

>  <minimizedRMSD>  (1) 
3.43130541

$$$$
