
     RDKit          3D

 26 28  0  0  0  0  0  0  0  0999 V2000
   38.6950   29.8210   40.1350 C   0  0  0  0  0  0  0  0  0  0  0  0
   38.7760   29.4490   38.9470 O   0  0  0  0  0  0  0  0  0  0  0  0
   38.2160   31.2010   40.1860 C   0  0  0  0  0  0  0  0  0  0  0  0
   36.8910   31.6520   40.2080 C   0  0  0  0  0  0  0  0  0  0  0  0
   36.8860   33.0160   40.2550 N   0  0  0  0  0  0  0  0  0  0  0  0
   38.1500   33.4850   40.2670 C   0  0  0  0  0  0  0  0  0  0  0  0
   38.7700   34.7050   40.3060 C   0  0  0  0  0  0  0  0  0  0  0  0
   40.1550   34.8360   40.3040 C   0  0  0  0  0  0  0  0  0  0  0  0
   40.9730   33.7220   40.2610 C   0  0  0  0  0  0  0  0  0  0  0  0
   40.3190   32.5080   40.2220 C   0  0  0  0  0  0  0  0  0  0  0  0
   38.9560   32.3550   40.2230 C   0  0  0  0  0  0  0  0  0  0  0  0
   39.0060   29.0580   41.3090 C   0  0  0  0  0  0  0  0  0  0  0  0
   37.9330   28.4560   41.9620 C   0  0  0  0  0  0  0  0  0  0  0  0
   38.2250   27.7100   43.1080 C   0  0  0  0  0  0  0  0  0  0  0  0
   39.5120   27.6010   43.5340 N   0  0  0  0  0  0  0  0  0  0  0  0
   40.5170   28.2060   42.8640 C   0  0  0  0  0  0  0  0  0  0  0  0
   40.2450   28.9170   41.7720 N   0  0  0  0  0  0  0  0  0  0  0  0
   35.9977   31.0104   40.1903 H   0  0  0  0  0  0  0  0  0  0  0  0
   36.0393   33.6021   40.2780 H   0  0  0  0  0  0  0  0  0  0  0  0
   38.1512   35.6138   40.3401 H   0  0  0  0  0  0  0  0  0  0  0  0
   40.6053   35.8391   40.3371 H   0  0  0  0  0  0  0  0  0  0  0  0
   42.0703   33.7986   40.2581 H   0  0  0  0  0  0  0  0  0  0  0  0
   40.9349   31.5972   40.1876 H   0  0  0  0  0  0  0  0  0  0  0  0
   36.9023   28.5627   41.5928 H   0  0  0  0  0  0  0  0  0  0  0  0
   37.4161   27.2127   43.6634 H   0  0  0  0  0  0  0  0  0  0  0  0
   41.5540   28.1117   43.2187 H   0  0  0  0  0  0  0  0  0  0  0  0
  1  3  1  0
  1 12  1  0
  2  1  2  0
  3  4  2  0
  3 11  1  0
  4  5  1  0
  5  6  1  0
  6  7  2  0
  8  7  1  0
  9  8  2  0
 10 11  2  0
 10  9  1  0
 11  6  1  0
 12 17  1  0
 12 13  2  0
 13 14  1  0
 14 15  2  0
 16 15  1  0
 17 16  2  0
  4 18  1  0
  5 19  1  0
  7 20  1  0
  8 21  1  0
  9 22  1  0
 10 23  1  0
 13 24  1  0
 14 25  1  0
 16 26  1  0
M  ISO  8  18  14  19   9  20  14  21  14  22  14  23  14  24  14  25  14
M  ISO  1  26  14
M  END
>  <minimizedAffinity>  (1) 
-4.75856781

>  <minimizedRMSD>  (1) 
5.246315

$$$$
