
     RDKit          3D

 19 19  0  0  0  0  0  0  0  0999 V2000
   37.8360   29.2620   40.2600 C   0  0  0  0  0  0  0  0  0  0  0  0
   38.1180   28.6440   39.2110 O   0  0  0  0  0  0  0  0  0  0  0  0
   37.8130   30.6800   40.0240 N   0  0  0  0  0  0  0  0  0  0  0  0
   36.8040   31.5460   40.4960 C   0  0  0  0  0  0  0  0  0  0  0  0
   35.8310   31.0580   41.1860 N   0  0  0  0  0  0  0  0  0  0  0  0
   36.8520   32.9550   40.2180 N   0  0  0  0  0  0  0  0  0  0  0  0
   35.0830   31.6610   41.5440 H   0  0  0  0  0  0  0  0  0  0  0  0
   37.5560   28.7440   41.5720 C   0  0  0  0  0  0  0  0  0  0  0  0
   36.7860   27.5790   41.6070 C   0  0  0  0  0  0  0  0  0  0  0  0
   36.4970   27.0500   42.8770 C   0  0  0  0  0  0  0  0  0  0  0  0
   36.9750   27.6940   43.9620 N   0  0  0  0  0  0  0  0  0  0  0  0
   37.7210   28.8270   43.8770 C   0  0  0  0  0  0  0  0  0  0  0  0
   38.0080   29.3480   42.6660 N   0  0  0  0  0  0  0  0  0  0  0  0
   38.5823   31.0899   39.4753 H   0  0  0  0  0  0  0  0  0  0  0  0
   36.1082   33.5749   40.5692 H   0  0  0  0  0  0  0  0  0  0  0  0
   37.6303   33.3451   39.6675 H   0  0  0  0  0  0  0  0  0  0  0  0
   36.4236   27.0991   40.6860 H   0  0  0  0  0  0  0  0  0  0  0  0
   35.8966   26.1345   42.9834 H   0  0  0  0  0  0  0  0  0  0  0  0
   38.0888   29.3166   44.7908 H   0  0  0  0  0  0  0  0  0  0  0  0
  1  8  1  0
  2  1  2  0
  3  1  1  0
  3  4  1  0
  4  5  2  0
  5  7  1  0
  6  4  1  0
  8  9  2  0
  8 13  1  0
  9 10  1  0
 10 11  2  0
 12 11  1  0
 13 12  2  0
  3 14  1  0
  6 15  1  0
  6 16  1  0
  9 17  1  0
 10 18  1  0
 12 19  1  0
M  ISO  3  17  14  18  14  19  14
M  END
>  <minimizedAffinity>  (1) 
-4.54261017

>  <minimizedRMSD>  (1) 
2.57377982

$$$$
