
     RDKit          3D

 28 29  0  0  0  0  0  0  0  0999 V2000
   37.8430   24.2260   41.2070 C   0  0  0  0  0  0  0  0  0  0  0  0
   36.5350   24.2860   40.7390 C   0  0  0  0  0  0  0  0  0  0  0  0
   36.0670   23.2740   39.8720 C   0  0  0  0  0  0  0  0  0  0  0  0
   36.9350   22.2700   39.5290 N   0  0  0  0  0  0  0  0  0  0  0  0
   38.1920   22.2540   40.0080 C   0  0  0  0  0  0  0  0  0  0  0  0
   38.6040   23.2110   40.8140 N   0  0  0  0  0  0  0  0  0  0  0  0
   38.1750   25.3140   42.0720 C   0  0  0  0  0  0  0  0  0  0  0  0
   39.0390   25.1720   42.9930 O   0  0  0  0  0  0  0  0  0  0  0  0
   37.5780   26.6850   42.0110 C   0  0  0  0  0  0  0  0  0  0  0  0
   38.5370   27.5260   41.2370 C   0  0  0  0  0  0  0  0  0  0  0  0
   38.6730   28.9410   41.7100 C   0  0  0  0  0  0  0  0  0  0  0  0
   37.4810   29.4680   42.4330 C   0  0  0  0  0  0  0  0  0  0  0  0
   37.3310   28.5800   43.6640 C   0  0  0  0  0  0  0  0  0  0  0  0
   37.0680   27.1620   43.3070 C   0  0  0  0  0  0  0  0  0  0  0  0
   35.8731   25.1113   41.0402 H   0  0  0  0  0  0  0  0  0  0  0  0
   35.0378   23.2910   39.4840 H   0  0  0  0  0  0  0  0  0  0  0  0
   38.8768   21.4406   39.7262 H   0  0  0  0  0  0  0  0  0  0  0  0
   36.6265   26.7239   41.4604 H   0  0  0  0  0  0  0  0  0  0  0  0
   38.2010   27.5484   40.1898 H   0  0  0  0  0  0  0  0  0  0  0  0
   39.5257   27.0633   41.3725 H   0  0  0  0  0  0  0  0  0  0  0  0
   39.5377   28.9951   42.3878 H   0  0  0  0  0  0  0  0  0  0  0  0
   38.7927   29.5617   40.8098 H   0  0  0  0  0  0  0  0  0  0  0  0
   37.6425   30.5146   42.7304 H   0  0  0  0  0  0  0  0  0  0  0  0
   36.5792   29.4513   41.8033 H   0  0  0  0  0  0  0  0  0  0  0  0
   38.2593   28.6305   44.2520 H   0  0  0  0  0  0  0  0  0  0  0  0
   36.4697   28.9473   44.2412 H   0  0  0  0  0  0  0  0  0  0  0  0
   35.9774   27.0187   43.3056 H   0  0  0  0  0  0  0  0  0  0  0  0
   37.6167   26.5757   44.0588 H   0  0  0  0  0  0  0  0  0  0  0  0
  1  7  1  0
  2  1  2  0
  3  2  1  0
  4  3  2  0
  4  5  1  0
  5  6  2  0
  6  1  1  0
  7  8  2  0
  9  7  1  0
  9 14  1  0
 10 11  1  0
 10  9  1  0
 11 12  1  0
 12 13  1  0
 14 13  1  0
  2 15  1  0
  3 16  1  0
  5 17  1  0
  9 18  1  0
 10 19  1  0
 10 20  1  0
 11 21  1  0
 11 22  1  0
 12 23  1  0
 12 24  1  0
 13 25  1  0
 13 26  1  0
 14 27  1  0
 14 28  1  0
M  ISO  8  15  14  16  14  17  14  18  13  19  13  20  13  21  13  22  13
M  ISO  6  23  13  24  13  25  13  26  13  27  13  28  13
M  END
>  <minimizedAffinity>  (1) 
-3.82960272

>  <minimizedRMSD>  (1) 
5.84818792

$$$$
