
     RDKit          3D

 25 26  0  0  0  0  0  0  0  0999 V2000
   36.5430   24.9260   40.3460 C   0  0  0  0  0  0  0  0  0  0  0  0
   35.9380   23.6820   40.1570 C   0  0  0  0  0  0  0  0  0  0  0  0
   35.2780   23.4300   38.9560 C   0  0  0  0  0  0  0  0  0  0  0  0
   35.2470   24.4030   38.0130 N   0  0  0  0  0  0  0  0  0  0  0  0
   35.8420   25.6010   38.2230 C   0  0  0  0  0  0  0  0  0  0  0  0
   36.4710   25.8400   39.3690 N   0  0  0  0  0  0  0  0  0  0  0  0
   37.2060   25.1280   41.5980 C   0  0  0  0  0  0  0  0  0  0  0  0
   37.5700   24.2080   42.3600 O   0  0  0  0  0  0  0  0  0  0  0  0
   37.5100   26.5050   42.0790 C   0  0  0  0  0  0  0  0  0  0  0  0
   38.8790   26.5780   42.7130 C   0  0  0  0  0  0  0  0  0  0  0  0
   38.8380   27.7010   43.7100 C   0  0  0  0  0  0  0  0  0  0  0  0
   37.4130   28.1870   43.7100 C   0  0  0  0  0  0  0  0  0  0  0  0
   36.6260   26.9970   43.1720 C   0  0  0  0  0  0  0  0  0  0  0  0
   35.9816   22.9137   40.9430 H   0  0  0  0  0  0  0  0  0  0  0  0
   34.7914   22.4599   38.7766 H   0  0  0  0  0  0  0  0  0  0  0  0
   35.8047   26.3771   37.4444 H   0  0  0  0  0  0  0  0  0  0  0  0
   37.3903   27.1052   41.1650 H   0  0  0  0  0  0  0  0  0  0  0  0
   39.1122   25.6301   43.2201 H   0  0  0  0  0  0  0  0  0  0  0  0
   39.6559   26.7529   41.9541 H   0  0  0  0  0  0  0  0  0  0  0  0
   39.1205   27.3384   44.7093 H   0  0  0  0  0  0  0  0  0  0  0  0
   39.5431   28.5041   43.4494 H   0  0  0  0  0  0  0  0  0  0  0  0
   37.0865   28.4453   44.7282 H   0  0  0  0  0  0  0  0  0  0  0  0
   37.2729   29.0978   43.1093 H   0  0  0  0  0  0  0  0  0  0  0  0
   35.6461   27.3099   42.7823 H   0  0  0  0  0  0  0  0  0  0  0  0
   36.3993   26.2362   43.9335 H   0  0  0  0  0  0  0  0  0  0  0  0
  1  7  1  0
  2  1  2  0
  3  2  1  0
  4  5  1  0
  4  3  2  0
  5  6  2  0
  6  1  1  0
  7  9  1  0
  7  8  2  0
  9 10  1  0
  9 13  1  0
 10 11  1  0
 11 12  1  0
 13 12  1  0
  2 14  1  0
  3 15  1  0
  5 16  1  0
  9 17  1  0
 10 18  1  0
 10 19  1  0
 11 20  1  0
 11 21  1  0
 12 22  1  0
 12 23  1  0
 13 24  1  0
 13 25  1  0
M  ISO  8  14  14  15  14  16  14  17  13  18  13  19  13  20  13  21  13
M  ISO  4  22  13  23  13  24  13  25  13
M  END
>  <minimizedAffinity>  (1) 
-3.71184373

>  <minimizedRMSD>  (1) 
5.98131227

$$$$
