
     RDKit          3D

 20 21  0  0  0  0  0  0  0  0999 V2000
   38.1010   26.6620   42.9300 C   0  0  0  0  0  0  0  0  0  0  0  0
   37.5390   25.5630   42.2600 C   0  0  0  0  0  0  0  0  0  0  0  0
   38.3030   24.3850   42.3040 C   0  0  0  0  0  0  0  0  0  0  0  0
   39.4870   24.3660   42.9620 N   0  0  0  0  0  0  0  0  0  0  0  0
   39.9730   25.4590   43.5880 C   0  0  0  0  0  0  0  0  0  0  0  0
   39.2900   26.6090   43.5780 N   0  0  0  0  0  0  0  0  0  0  0  0
   37.3090   27.8740   42.8770 C   0  0  0  0  0  0  0  0  0  0  0  0
   37.5030   28.9040   43.6030 O   0  0  0  0  0  0  0  0  0  0  0  0
   36.2320   28.1210   42.0470 O   0  0  0  0  0  0  0  0  0  0  0  0
   36.2880   28.7670   40.8010 C   0  0  0  0  0  0  0  0  0  0  0  0
   35.9160   30.2100   40.6850 C   0  0  0  0  0  0  0  0  0  0  0  0
   34.9650   29.1820   40.1640 C   0  0  0  0  0  0  0  0  0  0  0  0
   36.5718   25.6205   41.7392 H   0  0  0  0  0  0  0  0  0  0  0  0
   37.9390   23.4759   41.8030 H   0  0  0  0  0  0  0  0  0  0  0  0
   40.9392   25.4033   44.1109 H   0  0  0  0  0  0  0  0  0  0  0  0
   37.1666   28.1760   40.5030 H   0  0  0  0  0  0  0  0  0  0  0  0
   35.6601   30.7824   41.5889 H   0  0  0  0  0  0  0  0  0  0  0  0
   36.4018   31.0976   40.2537 H   0  0  0  0  0  0  0  0  0  0  0  0
   34.0166   28.9917   40.6878 H   0  0  0  0  0  0  0  0  0  0  0  0
   34.4679   28.9936   39.2010 H   0  0  0  0  0  0  0  0  0  0  0  0
  1  6  2  0
  2  3  2  0
  2  1  1  0
  3  4  1  0
  4  5  2  0
  6  5  1  0
  7  1  1  0
  7  8  2  0
  9  7  1  0
 10  9  1  0
 11 10  1  0
 12 11  1  0
 12 10  1  0
  2 13  1  0
  3 14  1  0
  5 15  1  0
 10 16  1  0
 11 17  1  0
 11 18  1  0
 12 19  1  0
 12 20  1  0
M  ISO  8  13  14  14  14  15  14  16  13  17  13  18  13  19  13  20  13
M  END
>  <minimizedAffinity>  (1) 
-3.73453212

>  <minimizedRMSD>  (1) 
3.18062377

$$$$
