
     RDKit          3D

 16 16  0  0  0  0  0  0  0  0999 V2000
   37.0750   28.9570   42.2630 C   0  0  0  0  0  0  0  0  0  0  0  0
   36.1210   28.2160   41.5910 C   0  0  0  0  0  0  0  0  0  0  0  0
   35.4550   28.8700   40.5470 C   0  0  0  0  0  0  0  0  0  0  0  0
   35.7730   30.1620   40.2570 N   0  0  0  0  0  0  0  0  0  0  0  0
   36.7150   30.8330   40.9520 C   0  0  0  0  0  0  0  0  0  0  0  0
   37.3680   30.2350   41.9540 N   0  0  0  0  0  0  0  0  0  0  0  0
   37.7600   28.2670   43.3460 C   0  0  0  0  0  0  0  0  0  0  0  0
   37.2690   27.8880   44.4440 O   0  0  0  0  0  0  0  0  0  0  0  0
   39.1150   27.9070   43.3340 O   0  0  0  0  0  0  0  0  0  0  0  0
   39.6080   26.7100   43.8660 C   0  0  0  0  0  0  0  0  0  0  0  0
   35.8979   27.1732   41.8606 H   0  0  0  0  0  0  0  0  0  0  0  0
   34.6821   28.3449   39.9666 H   0  0  0  0  0  0  0  0  0  0  0  0
   36.9468   31.8767   40.6931 H   0  0  0  0  0  0  0  0  0  0  0  0
   39.5870   26.7609   44.9646 H   0  0  0  0  0  0  0  0  0  0  0  0
   38.9818   25.8721   43.5257 H   0  0  0  0  0  0  0  0  0  0  0  0
   40.6427   26.5562   43.5257 H   0  0  0  0  0  0  0  0  0  0  0  0
  1  7  1  0
  2  1  2  0
  3  2  1  0
  4  3  2  0
  4  5  1  0
  5  6  2  0
  6  1  1  0
  7  8  2  0
  9  7  1  0
  9 10  1  0
  2 11  1  0
  3 12  1  0
  5 13  1  0
 10 14  1  0
 10 15  1  0
 10 16  1  0
M  ISO  6  11  14  12  14  13  14  14   8  15   8  16   8
M  END
>  <minimizedAffinity>  (1) 
-3.19026232

>  <minimizedRMSD>  (1) 
4.18593502

$$$$
