
     RDKit          3D

 22 22  0  0  0  0  0  0  0  0999 V2000
   39.2800   25.7910   42.3470 C   0  0  0  0  0  0  0  0  0  0  0  0
   38.7830   24.5110   42.5170 C   0  0  0  0  0  0  0  0  0  0  0  0
   38.6100   23.7310   41.3810 C   0  0  0  0  0  0  0  0  0  0  0  0
   38.9340   24.2640   40.1740 N   0  0  0  0  0  0  0  0  0  0  0  0
   39.4210   25.5310   40.0470 C   0  0  0  0  0  0  0  0  0  0  0  0
   39.5980   26.3040   41.1350 N   0  0  0  0  0  0  0  0  0  0  0  0
   39.4460   26.5680   43.5590 C   0  0  0  0  0  0  0  0  0  0  0  0
   40.5410   26.7710   44.1770 O   0  0  0  0  0  0  0  0  0  0  0  0
   38.4170   27.2210   44.2430 O   0  0  0  0  0  0  0  0  0  0  0  0
   37.5600   28.1760   43.7320 C   0  0  0  0  0  0  0  0  0  0  0  0
   36.5080   27.6640   42.8070 C   0  0  0  0  0  0  0  0  0  0  0  0
   38.3710   29.2650   43.0590 C   0  0  0  0  0  0  0  0  0  0  0  0
   38.5337   24.1249   43.5164 H   0  0  0  0  0  0  0  0  0  0  0  0
   38.2197   22.7054   41.4567 H   0  0  0  0  0  0  0  0  0  0  0  0
   39.6706   25.9238   39.0503 H   0  0  0  0  0  0  0  0  0  0  0  0
   37.0009   28.5685   44.5941 H   0  0  0  0  0  0  0  0  0  0  0  0
   35.6710   27.2567   43.3931 H   0  0  0  0  0  0  0  0  0  0  0  0
   36.1455   28.4864   42.1728 H   0  0  0  0  0  0  0  0  0  0  0  0
   36.9316   26.8713   42.1728 H   0  0  0  0  0  0  0  0  0  0  0  0
   38.8423   29.8979   43.8254 H   0  0  0  0  0  0  0  0  0  0  0  0
   39.1500   28.8073   42.4316 H   0  0  0  0  0  0  0  0  0  0  0  0
   37.7093   29.8802   42.4316 H   0  0  0  0  0  0  0  0  0  0  0  0
  1  2  2  0
  1  7  1  0
  3  2  1  0
  4  3  2  0
  5  4  1  0
  5  6  2  0
  6  1  1  0
  7  8  2  0
  7  9  1  0
 10  9  1  0
 11 10  1  0
 12 10  1  0
  2 13  1  0
  3 14  1  0
  5 15  1  0
 10 16  1  0
 11 17  1  0
 11 18  1  0
 11 19  1  0
 12 20  1  0
 12 21  1  0
 12 22  1  0
M  ISO  8  13  14  14  14  15  14  16   8  17   8  18   8  19   8  20   8
M  ISO  2  21   8  22   8
M  END
>  <minimizedAffinity>  (1) 
-3.16691685

>  <minimizedRMSD>  (1) 
4.8845458

$$$$
