
     RDKit          3D

 40 42  0  0  1  0  0  0  0  0999 V2000
   39.9270   31.7940   39.8670 C   0  0  0  0  0  0  0  0  0  0  0  0
   39.5360   30.6680   40.6360 C   0  0  0  0  0  0  0  0  0  0  0  0
   38.2450   30.6130   41.0870 C   0  0  0  0  0  0  0  0  0  0  0  0
   37.3820   31.6430   40.7810 N   0  0  0  0  0  0  0  0  0  0  0  0
   37.7840   32.7080   40.0430 C   0  0  0  0  0  0  0  0  0  0  0  0
   39.0570   32.7860   39.5850 N   0  0  0  0  0  0  0  0  0  0  0  0
   36.8460   33.7390   39.7610 N   0  0  0  0  0  0  0  0  0  0  0  0
   37.7670   29.5390   41.8560 N   0  0  0  0  0  0  0  0  0  0  0  0
   38.3860   29.2290   43.1210 C   0  0  0  0  0  0  0  0  0  0  0  0
   37.3640   28.4380   43.9500 C   0  0  0  0  0  0  0  0  0  0  0  0
   36.8890   27.2590   43.3050 N   0  0  0  0  0  0  0  0  0  0  0  0
   36.8570   27.3180   41.8810 C   0  0  0  0  0  0  0  0  0  0  0  0
   36.6570   28.7290   41.3990 C   0  0  2  0  0  0  0  0  0  0  0  0
   36.3960   28.8130   39.9550 C   0  0  0  0  0  0  0  0  0  0  0  0
   35.1470   29.1890   39.4720 C   0  0  0  0  0  0  0  0  0  0  0  0
   34.8200   29.2910   38.1500 C   0  0  0  0  0  0  0  0  0  0  0  0
   35.8070   29.0000   37.2980 N   0  0  0  0  0  0  0  0  0  0  0  0
   37.0300   28.6320   37.7210 C   0  0  0  0  0  0  0  0  0  0  0  0
   37.3570   28.5300   39.0390 N   0  0  0  0  0  0  0  0  0  0  0  0
   38.0500   28.3310   36.6630 C   0  0  0  0  0  0  0  0  0  0  0  0
   37.2950   28.4020   35.3310 C   0  0  0  0  0  0  0  0  0  0  0  0
   40.9595   31.8597   39.4933 H   0  0  0  0  0  0  0  0  0  0  0  0
   40.2497   29.8624   40.8633 H   0  0  0  0  0  0  0  0  0  0  0  0
   37.1312   34.5560   39.2024 H   0  0  0  0  0  0  0  0  0  0  0  0
   35.8814   33.6687   40.1154 H   0  0  0  0  0  0  0  0  0  0  0  0
   39.2892   28.6223   42.9591 H   0  0  0  0  0  0  0  0  0  0  0  0
   38.6820   30.1499   43.6448 H   0  0  0  0  0  0  0  0  0  0  0  0
   37.8380   28.1471   44.8991 H   0  0  0  0  0  0  0  0  0  0  0  0
   36.4942   29.0949   44.0978 H   0  0  0  0  0  0  0  0  0  0  0  0
   37.5017   26.4774   43.5780 H   0  0  0  0  0  0  0  0  0  0  0  0
   37.8089   26.9350   41.4846 H   0  0  0  0  0  0  0  0  0  0  0  0
   36.0146   26.7061   41.5260 H   0  0  0  0  0  0  0  0  0  0  0  0
   35.7367   29.1388   41.8407 H   0  0  0  0  0  0  0  0  0  0  0  0
   34.3647   29.4214   40.2095 H   0  0  0  0  0  0  0  0  0  0  0  0
   33.8173   29.5908   37.8114 H   0  0  0  0  0  0  0  0  0  0  0  0
   38.8588   29.0762   36.6862 H   0  0  0  0  0  0  0  0  0  0  0  0
   38.5158   27.3462   36.8150 H   0  0  0  0  0  0  0  0  0  0  0  0
   36.2171   28.5034   35.5255 H   0  0  0  0  0  0  0  0  0  0  0  0
   37.6471   29.2710   34.7558 H   0  0  0  0  0  0  0  0  0  0  0  0
   37.4789   27.4826   34.7558 H   0  0  0  0  0  0  0  0  0  0  0  0
  1  2  2  0
  2  3  1  0
  3  8  1  0
  4  3  2  0
  5  4  1  0
  6  1  1  0
  6  5  2  0
  7  5  1  0
  8  9  1  0
  9 10  1  0
 11 10  1  0
 12 11  1  0
 13  8  1  0
 13 12  1  0
 14 13  1  0
 15 14  2  0
 16 15  1  0
 17 18  1  0
 17 16  2  0
 18 19  2  0
 19 14  1  0
 20 18  1  0
 21 20  1  0
  1 22  1  0
  2 23  1  0
  7 24  1  0
  7 25  1  0
  9 26  1  0
  9 27  1  0
 10 28  1  0
 10 29  1  0
 11 30  1  0
 12 31  1  0
 12 32  1  0
 13 33  1  1
 15 34  1  0
 16 35  1  0
 20 36  1  0
 20 37  1  0
 21 38  1  0
 21 39  1  0
 21 40  1  0
M  ISO  8  22  14  23  14  26  13  27  13  28  13  29  13  30   5  31  13
M  ISO  8  32  13  33  13  34  14  35  14  36   8  37   8  38   8  39   8
M  ISO  1  40   8
M  END
>  <minimizedAffinity>  (1) 
-5.53413725

>  <minimizedRMSD>  (1) 
0.359640509

$$$$
