
     RDKit          3D

 37 39  0  0  1  0  0  0  0  0999 V2000
   36.6600   29.7770   41.7570 C   0  0  2  0  0  0  0  0  0  0  0  0
   35.6990   28.9190   40.8920 C   0  0  0  0  0  0  0  0  0  0  0  0
   36.0020   29.1540   39.4510 C   0  0  0  0  0  0  0  0  0  0  0  0
   36.3940   30.6140   39.4840 C   0  0  0  0  0  0  0  0  0  0  0  0
   37.0420   30.8440   40.8390 C   0  0  2  0  0  0  0  0  0  0  0  0
   38.4830   31.0180   40.6960 N   0  0  0  0  0  0  0  0  0  0  0  0
   39.3260   31.5180   41.6150 C   0  0  0  0  0  0  0  0  0  0  0  0
   40.6740   31.6340   41.3620 C   0  0  0  0  0  0  0  0  0  0  0  0
   41.2320   31.2470   40.1620 C   0  0  0  0  0  0  0  0  0  0  0  0
   42.6220   31.3680   39.9040 N   0  0  0  0  0  0  0  0  0  0  0  0
   40.3700   30.7490   39.2550 N   0  0  0  0  0  0  0  0  0  0  0  0
   39.0460   30.6400   39.5160 C   0  0  0  0  0  0  0  0  0  0  0  0
   38.3540   30.1570   38.5780 O   0  0  0  0  0  0  0  0  0  0  0  0
   37.7610   29.0780   42.1630 O   0  0  0  0  0  0  0  0  0  0  0  0
   37.7540   28.1390   43.2400 C   0  0  0  0  0  0  0  0  0  0  0  0
   37.1930   28.5830   44.2710 O   0  0  0  0  0  0  0  0  0  0  0  0
   38.3460   26.8210   43.0800 C   0  0  0  0  0  0  0  0  0  0  0  0
   37.5330   25.9330   42.3240 C   0  0  0  0  0  0  0  0  0  0  0  0
   38.0640   24.6180   42.1690 C   0  0  0  0  0  0  0  0  0  0  0  0
   39.2560   24.3150   42.7260 N   0  0  0  0  0  0  0  0  0  0  0  0
   39.9730   25.2260   43.4330 C   0  0  0  0  0  0  0  0  0  0  0  0
   39.5080   26.4590   43.5980 N   0  0  0  0  0  0  0  0  0  0  0  0
   36.1902   30.1258   42.6885 H   0  0  0  0  0  0  0  0  0  0  0  0
   35.8402   27.8543   41.1297 H   0  0  0  0  0  0  0  0  0  0  0  0
   34.6570   29.2010   41.1034 H   0  0  0  0  0  0  0  0  0  0  0  0
   35.1184   28.9854   38.8179 H   0  0  0  0  0  0  0  0  0  0  0  0
   36.7661   28.4846   39.0291 H   0  0  0  0  0  0  0  0  0  0  0  0
   37.1073   30.8364   38.6767 H   0  0  0  0  0  0  0  0  0  0  0  0
   35.5219   31.2684   39.3386 H   0  0  0  0  0  0  0  0  0  0  0  0
   36.6742   31.7815   41.2814 H   0  0  0  0  0  0  0  0  0  0  0  0
   38.9309   31.8412   42.5894 H   0  0  0  0  0  0  0  0  0  0  0  0
   41.3278   32.0492   42.1431 H   0  0  0  0  0  0  0  0  0  0  0  0
   43.0052   31.0689   38.9959 H   0  0  0  0  0  0  0  0  0  0  0  0
   43.2478   31.7550   40.6248 H   0  0  0  0  0  0  0  0  0  0  0  0
   36.5682   26.2366   41.8916 H   0  0  0  0  0  0  0  0  0  0  0  0
   37.5075   23.8580   41.6010 H   0  0  0  0  0  0  0  0  0  0  0  0
   40.9416   24.9420   43.8702 H   0  0  0  0  0  0  0  0  0  0  0  0
  1 14  1  0
  2  1  1  0
  3  4  1  0
  3  2  1  0
  4  5  1  0
  5  1  1  0
  6  5  1  0
  6  7  1  0
  8  7  2  0
  9  8  1  0
 10  9  1  0
 11 12  1  0
 11  9  2  0
 12  6  1  0
 13 12  2  0
 14 15  1  0
 15 16  2  0
 17 15  1  0
 17 22  1  0
 18 17  2  0
 19 18  1  0
 19 20  2  0
 20 21  1  0
 21 22  2  0
  1 23  1  1
  2 24  1  0
  2 25  1  0
  3 26  1  0
  3 27  1  0
  4 28  1  0
  4 29  1  0
  5 30  1  1
  7 31  1  0
  8 32  1  0
 10 33  1  0
 10 34  1  0
 18 35  1  0
 19 36  1  0
 21 37  1  0
M  ISO  8  23  13  24  13  25  13  26  13  27  13  28  13  29  13  30  13
M  ISO  5  31  14  32  14  35  14  36  14  37  14
M  END
>  <minimizedAffinity>  (1) 
-5.09819651

>  <minimizedRMSD>  (1) 
0.33924669

$$$$
