
     RDKit          3D

 38 40  0  0  1  0  0  0  0  0999 V2000
   38.8650   30.2950   40.1350 C   0  0  2  0  0  0  0  0  0  0  0  0
   37.9290   30.9250   39.0600 C   0  0  0  0  0  0  0  0  0  0  0  0
   36.7720   31.5740   39.7240 C   0  0  0  0  0  0  0  0  0  0  0  0
   36.5980   30.7090   40.9420 C   0  0  0  0  0  0  0  0  0  0  0  0
   37.9850   30.2280   41.3110 C   0  0  1  0  0  0  0  0  0  0  0  0
   37.9540   28.9380   41.9640 N   0  0  0  0  0  0  0  0  0  0  0  0
   38.2440   29.0130   43.3720 C   0  0  0  0  0  0  0  0  0  0  0  0
   37.1770   28.2180   44.0960 C   0  0  0  0  0  0  0  0  0  0  0  0
   36.4470   27.4610   43.0150 C   0  0  0  0  0  0  0  0  0  0  0  0
   36.6350   28.3800   41.8250 C   0  0  0  0  0  0  0  0  0  0  0  0
   39.9170   31.1150   40.4160 O   0  0  0  0  0  0  0  0  0  0  0  0
   41.0320   31.3320   39.5590 C   0  0  0  0  0  0  0  0  0  0  0  0
   41.6250   30.2660   39.2740 O   0  0  0  0  0  0  0  0  0  0  0  0
   41.3860   32.6610   39.0980 C   0  0  0  0  0  0  0  0  0  0  0  0
   42.1030   32.6570   37.8750 C   0  0  0  0  0  0  0  0  0  0  0  0
   42.4900   33.9130   37.3610 C   0  0  0  0  0  0  0  0  0  0  0  0
   42.1500   35.0290   38.0740 N   0  0  0  0  0  0  0  0  0  0  0  0
   41.4650   34.9690   39.2360 C   0  0  0  0  0  0  0  0  0  0  0  0
   41.0960   33.7880   39.7280 N   0  0  0  0  0  0  0  0  0  0  0  0
   39.2933   29.3326   39.8181 H   0  0  0  0  0  0  0  0  0  0  0  0
   37.5674   30.1372   38.3828 H   0  0  0  0  0  0  0  0  0  0  0  0
   38.4887   31.6775   38.4851 H   0  0  0  0  0  0  0  0  0  0  0  0
   36.9991   32.6144   39.9997 H   0  0  0  0  0  0  0  0  0  0  0  0
   35.8742   31.6429   39.0921 H   0  0  0  0  0  0  0  0  0  0  0  0
   36.1634   31.2927   41.7669 H   0  0  0  0  0  0  0  0  0  0  0  0
   35.9176   29.8672   40.7456 H   0  0  0  0  0  0  0  0  0  0  0  0
   38.4173   30.9017   42.0655 H   0  0  0  0  0  0  0  0  0  0  0  0
   39.2360   28.5834   43.5752 H   0  0  0  0  0  0  0  0  0  0  0  0
   38.2483   30.0588   43.7130 H   0  0  0  0  0  0  0  0  0  0  0  0
   37.6352   27.5209   44.8131 H   0  0  0  0  0  0  0  0  0  0  0  0
   36.5008   28.8666   44.6724 H   0  0  0  0  0  0  0  0  0  0  0  0
   36.9016   26.4752   42.8374 H   0  0  0  0  0  0  0  0  0  0  0  0
   35.3953   27.2424   43.2518 H   0  0  0  0  0  0  0  0  0  0  0  0
   35.8785   29.1785   41.8346 H   0  0  0  0  0  0  0  0  0  0  0  0
   36.5230   27.8385   40.8741 H   0  0  0  0  0  0  0  0  0  0  0  0
   42.3459   31.7202   37.3520 H   0  0  0  0  0  0  0  0  0  0  0  0
   43.0478   33.9917   36.4162 H   0  0  0  0  0  0  0  0  0  0  0  0
   41.2123   35.8939   39.7751 H   0  0  0  0  0  0  0  0  0  0  0  0
  1 11  1  0
  1  5  1  0
  2  3  1  0
  2  1  1  0
  3  4  1  0
  4  5  1  0
  5  6  1  0
  6  7  1  0
  7  8  1  0
  9  8  1  0
 10  6  1  0
 10  9  1  0
 12 11  1  0
 13 12  2  0
 14 12  1  0
 14 19  1  0
 15 14  2  0
 16 15  1  0
 16 17  2  0
 17 18  1  0
 18 19  2  0
  1 20  1  6
  2 21  1  0
  2 22  1  0
  3 23  1  0
  3 24  1  0
  4 25  1  0
  4 26  1  0
  5 27  1  1
  7 28  1  0
  7 29  1  0
  8 30  1  0
  8 31  1  0
  9 32  1  0
  9 33  1  0
 10 34  1  0
 10 35  1  0
 15 36  1  0
 16 37  1  0
 18 38  1  0
M  ISO  8  20  13  21  13  22  13  23  13  24  13  25  13  26  13  27  13
M  ISO  8  28  13  29  13  30  13  31  13  32  13  33  13  34  13  35  13
M  ISO  3  36  14  37  14  38  14
M  END
>  <minimizedAffinity>  (1) 
-4.77055836

>  <minimizedRMSD>  (1) 
6.81706572

$$$$
