
     RDKit          3D

 29 30  0  0  1  0  0  0  0  0999 V2000
   36.6670   29.7940   41.8310 C   0  0  2  0  0  0  0  0  0  0  0  0
   35.7550   28.9850   40.8640 C   0  0  0  0  0  0  0  0  0  0  0  0
   36.1310   29.3180   39.4590 C   0  0  0  0  0  0  0  0  0  0  0  0
   36.4890   30.7770   39.6090 C   0  0  0  0  0  0  0  0  0  0  0  0
   37.0630   30.9280   41.0100 C   0  0  2  0  0  0  0  0  0  0  0  0
   38.5670   31.1050   40.8550 C   0  0  0  0  0  0  0  0  0  0  0  0
   38.7770   32.2560   40.1100 F   0  0  0  0  0  0  0  0  0  0  0  0
   39.1580   31.3370   42.0960 F   0  0  0  0  0  0  0  0  0  0  0  0
   39.1830   30.0820   40.2040 F   0  0  0  0  0  0  0  0  0  0  0  0
   37.7480   29.0830   42.2450 O   0  0  0  0  0  0  0  0  0  0  0  0
   37.7210   28.1080   43.2890 C   0  0  0  0  0  0  0  0  0  0  0  0
   37.1400   28.5190   44.3210 O   0  0  0  0  0  0  0  0  0  0  0  0
   38.3160   26.7970   43.1040 C   0  0  0  0  0  0  0  0  0  0  0  0
   37.5210   25.9190   42.3210 C   0  0  0  0  0  0  0  0  0  0  0  0
   38.0500   24.6130   42.1280 C   0  0  0  0  0  0  0  0  0  0  0  0
   39.2380   24.3050   42.6860 N   0  0  0  0  0  0  0  0  0  0  0  0
   39.9530   25.1950   43.4270 C   0  0  0  0  0  0  0  0  0  0  0  0
   39.4770   26.4290   43.6230 N   0  0  0  0  0  0  0  0  0  0  0  0
   36.1565   30.0736   42.7644 H   0  0  0  0  0  0  0  0  0  0  0  0
   35.8940   27.9079   41.0388 H   0  0  0  0  0  0  0  0  0  0  0  0
   34.7004   29.2432   41.0404 H   0  0  0  0  0  0  0  0  0  0  0  0
   35.2870   29.1758   38.7681 H   0  0  0  0  0  0  0  0  0  0  0  0
   36.9301   28.6907   39.0372 H   0  0  0  0  0  0  0  0  0  0  0  0
   37.2375   31.0659   38.8565 H   0  0  0  0  0  0  0  0  0  0  0  0
   35.6113   31.4236   39.4621 H   0  0  0  0  0  0  0  0  0  0  0  0
   36.6717   31.8091   41.5397 H   0  0  0  0  0  0  0  0  0  0  0  0
   36.5572   26.2292   41.8910 H   0  0  0  0  0  0  0  0  0  0  0  0
   37.5000   23.8679   41.5344 H   0  0  0  0  0  0  0  0  0  0  0  0
   40.9189   24.9002   43.8630 H   0  0  0  0  0  0  0  0  0  0  0  0
  1 10  1  0
  2  1  1  0
  3  4  1  0
  3  2  1  0
  4  5  1  0
  5  1  1  0
  6  5  1  0
  6  8  1  0
  7  6  1  0
  9  6  1  0
 10 11  1  0
 11 12  2  0
 13 11  1  0
 13 18  1  0
 14 13  2  0
 15 14  1  0
 15 16  2  0
 16 17  1  0
 17 18  2  0
  1 19  1  1
  2 20  1  0
  2 21  1  0
  3 22  1  0
  3 23  1  0
  4 24  1  0
  4 25  1  0
  5 26  1  1
 14 27  1  0
 15 28  1  0
 17 29  1  0
M  ISO  8  19  13  20  13  21  13  22  13  23  13  24  13  25  13  26  13
M  ISO  3  27  14  28  14  29  14
M  END
>  <minimizedAffinity>  (1) 
-4.60634804

>  <minimizedRMSD>  (1) 
0.133656263

$$$$
