
     RDKit          3D

 28 29  0  0  1  0  0  0  0  0999 V2000
   36.8620   29.8830   41.3300 C   0  0  2  0  0  0  0  0  0  0  0  0
   35.6110   29.0840   40.8380 C   0  0  0  0  0  0  0  0  0  0  0  0
   35.6300   28.9920   39.3620 C   0  0  0  0  0  0  0  0  0  0  0  0
   36.3730   30.2290   38.9500 C   0  0  0  0  0  0  0  0  0  0  0  0
   37.2460   30.6190   40.1330 C   0  0  1  0  0  0  0  0  0  0  0  0
   37.2020   32.1240   40.3160 C   0  0  0  0  0  0  0  0  0  0  0  0
   37.0530   32.8500   39.3290 O   0  0  0  0  0  0  0  0  0  0  0  0
   37.8470   29.0500   41.7390 O   0  0  0  0  0  0  0  0  0  0  0  0
   37.7890   28.1920   42.8720 C   0  0  0  0  0  0  0  0  0  0  0  0
   37.3890   28.7870   43.8990 O   0  0  0  0  0  0  0  0  0  0  0  0
   38.1600   26.7990   42.7830 C   0  0  0  0  0  0  0  0  0  0  0  0
   37.1490   25.9800   42.2140 C   0  0  0  0  0  0  0  0  0  0  0  0
   37.4090   24.6100   42.0910 C   0  0  0  0  0  0  0  0  0  0  0  0
   38.6240   24.1510   42.5310 N   0  0  0  0  0  0  0  0  0  0  0  0
   39.5560   24.9730   43.0680 C   0  0  0  0  0  0  0  0  0  0  0  0
   39.3080   26.2830   43.1850 N   0  0  0  0  0  0  0  0  0  0  0  0
   36.6628   30.5292   42.1976 H   0  0  0  0  0  0  0  0  0  0  0  0
   35.6307   28.0718   41.2682 H   0  0  0  0  0  0  0  0  0  0  0  0
   34.6962   29.6032   41.1599 H   0  0  0  0  0  0  0  0  0  0  0  0
   36.1581   28.0859   39.0302 H   0  0  0  0  0  0  0  0  0  0  0  0
   34.6243   28.9264   38.9212 H   0  0  0  0  0  0  0  0  0  0  0  0
   36.9973   30.0220   38.0683 H   0  0  0  0  0  0  0  0  0  0  0  0
   35.6799   31.0398   38.6812 H   0  0  0  0  0  0  0  0  0  0  0  0
   38.2915   30.3407   39.9343 H   0  0  0  0  0  0  0  0  0  0  0  0
   37.3020   32.5644   41.3190 H   0  0  0  0  0  0  0  0  0  0  0  0
   36.1923   26.4084   41.8806 H   0  0  0  0  0  0  0  0  0  0  0  0
   36.6651   23.9259   41.6568 H   0  0  0  0  0  0  0  0  0  0  0  0
   40.5185   24.5637   43.4087 H   0  0  0  0  0  0  0  0  0  0  0  0
  1  8  1  0
  2  1  1  0
  3  2  1  0
  4  3  1  0
  4  5  1  0
  5  6  1  0
  5  1  1  0
  7  6  2  0
  8  9  1  0
  9 10  2  0
 11  9  1  0
 11 16  1  0
 12 11  2  0
 13 12  1  0
 13 14  2  0
 14 15  1  0
 15 16  2  0
  1 17  1  1
  2 18  1  0
  2 19  1  0
  3 20  1  0
  3 21  1  0
  4 22  1  0
  4 23  1  0
  5 24  1  6
  6 25  1  0
 12 26  1  0
 13 27  1  0
 15 28  1  0
M  ISO  8  17  13  18  13  19  13  20  13  21  13  22  13  23  13  24  13
M  ISO  4  25   6  26  14  27  14  28  14
M  END
>  <minimizedAffinity>  (1) 
-4.34766102

>  <minimizedRMSD>  (1) 
0.878897727

$$$$
