
     RDKit          3D

 43 46  0  0  1  0  0  0  0  0999 V2000
   38.9680   30.7590   40.4070 C   0  0  2  0  0  0  0  0  0  0  0  0
   38.1460   31.6010   39.2690 C   0  0  0  0  0  0  0  0  0  0  0  0
   36.9120   32.1170   39.8540 C   0  0  0  0  0  0  0  0  0  0  0  0
   36.5710   31.0130   40.7870 C   0  0  0  0  0  0  0  0  0  0  0  0
   37.9120   30.5300   41.3320 C   0  0  1  0  0  0  0  0  0  0  0  0
   37.8360   29.1230   41.8530 C   0  0  0  0  0  0  0  0  0  0  0  0
   39.0060   28.5170   42.4920 C   0  0  0  0  0  0  0  0  0  0  0  0
   37.8960   28.9620   43.3920 C   0  0  0  0  0  0  0  0  0  0  0  0
   39.8700   31.5990   40.8930 O   0  0  0  0  0  0  0  0  0  0  0  0
   40.8170   32.3520   40.1190 C   0  0  0  0  0  0  0  0  0  0  0  0
   41.3990   31.7350   39.2440 O   0  0  0  0  0  0  0  0  0  0  0  0
   40.9700   33.7710   40.4590 C   0  0  0  0  0  0  0  0  0  0  0  0
   40.0010   34.6300   39.8530 C   0  0  0  0  0  0  0  0  0  0  0  0
   40.1110   36.0030   40.1120 C   0  0  0  0  0  0  0  0  0  0  0  0
   41.1300   36.4180   40.9170 N   0  0  0  0  0  0  0  0  0  0  0  0
   42.0230   35.5690   41.4690 C   0  0  0  0  0  0  0  0  0  0  0  0
   41.9190   34.2610   41.2240 N   0  0  0  0  0  0  0  0  0  0  0  0
   43.1010   36.0420   42.3260 C   0  0  0  0  0  0  0  0  0  0  0  0
   42.8090   36.9110   43.3380 C   0  0  0  0  0  0  0  0  0  0  0  0
   43.8310   37.3610   44.1520 C   0  0  0  0  0  0  0  0  0  0  0  0
   45.1310   36.9680   43.9850 C   0  0  0  0  0  0  0  0  0  0  0  0
   45.4090   36.0910   42.9600 C   0  0  0  0  0  0  0  0  0  0  0  0
   44.4110   35.6280   42.1360 C   0  0  0  0  0  0  0  0  0  0  0  0
   39.4928   29.8399   40.1073 H   0  0  0  0  0  0  0  0  0  0  0  0
   37.9044   30.9392   38.4242 H   0  0  0  0  0  0  0  0  0  0  0  0
   38.7633   32.4374   38.9093 H   0  0  0  0  0  0  0  0  0  0  0  0
   37.0811   33.0630   40.3892 H   0  0  0  0  0  0  0  0  0  0  0  0
   36.1255   32.3591   39.1241 H   0  0  0  0  0  0  0  0  0  0  0  0
   35.9312   31.3799   41.6031 H   0  0  0  0  0  0  0  0  0  0  0  0
   36.0127   30.2072   40.2880 H   0  0  0  0  0  0  0  0  0  0  0  0
   38.1610   31.1414   42.2119 H   0  0  0  0  0  0  0  0  0  0  0  0
   37.1678   28.8080   41.0380 H   0  0  0  0  0  0  0  0  0  0  0  0
   39.1985   27.4420   42.3607 H   0  0  0  0  0  0  0  0  0  0  0  0
   40.0851   28.7273   42.4560 H   0  0  0  0  0  0  0  0  0  0  0  0
   38.0229   29.8421   44.0395 H   0  0  0  0  0  0  0  0  0  0  0  0
   37.2675   28.4959   44.1651 H   0  0  0  0  0  0  0  0  0  0  0  0
   39.2027   34.2301   39.2105 H   0  0  0  0  0  0  0  0  0  0  0  0
   39.3990   36.7217   39.6802 H   0  0  0  0  0  0  0  0  0  0  0  0
   41.7750   37.2480   43.5029 H   0  0  0  0  0  0  0  0  0  0  0  0
   43.5903   38.0617   44.9651 H   0  0  0  0  0  0  0  0  0  0  0  0
   45.9270   37.3399   44.6469 H   0  0  0  0  0  0  0  0  0  0  0  0
   46.4444   35.7564   42.7985 H   0  0  0  0  0  0  0  0  0  0  0  0
   44.6521   34.9269   41.3233 H   0  0  0  0  0  0  0  0  0  0  0  0
  1  9  1  0
  1  5  1  0
  2  3  1  0
  2  1  1  0
  3  4  1  0
  4  5  1  0
  5  6  1  0
  6  7  1  0
  6  8  1  0
  7  8  1  0
 10 12  1  0
 10  9  1  0
 11 10  2  0
 12 17  2  0
 13 14  2  0
 13 12  1  0
 14 15  1  0
 15 16  2  0
 16 18  1  0
 17 16  1  0
 18 19  2  0
 19 20  1  0
 21 20  2  0
 22 21  1  0
 23 18  1  0
 23 22  2  0
  1 24  1  6
  2 25  1  0
  2 26  1  0
  3 27  1  0
  3 28  1  0
  4 29  1  0
  4 30  1  0
  5 31  1  1
  6 32  1  0
  7 33  1  0
  7 34  1  0
  8 35  1  0
  8 36  1  0
 13 37  1  0
 14 38  1  0
 19 39  1  0
 20 40  1  0
 21 41  1  0
 22 42  1  0
 23 43  1  0
M  ISO  8  24  13  25  13  26  13  27  13  28  13  29  13  30  13  31  13
M  ISO  8  32  13  33  13  34  13  35  13  36  13  37  14  38  14  39  14
M  ISO  4  40  14  41  14  42  14  43  14
M  END
>  <minimizedAffinity>  (1) 
-6.33338499

>  <minimizedRMSD>  (1) 
2.53521323

$$$$
