
     RDKit          3D

 40 43  0  0  1  0  0  0  0  0999 V2000
   37.9280   28.9370   41.0560 C   0  0  2  0  0  0  0  0  0  0  0  0
   37.2120   29.0990   39.5910 C   0  0  0  0  0  0  0  0  0  0  0  0
   35.7900   29.3720   39.7720 C   0  0  0  0  0  0  0  0  0  0  0  0
   35.5130   28.5770   41.0060 C   0  0  0  0  0  0  0  0  0  0  0  0
   36.7690   28.7210   41.8580 C   0  0  1  0  0  0  0  0  0  0  0  0
   36.9010   27.6030   42.8520 C   0  0  0  0  0  0  0  0  0  0  0  0
   38.1080   27.4890   43.6740 C   0  0  0  0  0  0  0  0  0  0  0  0
   36.8800   28.0070   44.3480 C   0  0  0  0  0  0  0  0  0  0  0  0
   38.4750   30.1180   41.3150 O   0  0  0  0  0  0  0  0  0  0  0  0
   39.2640   30.8890   40.3970 C   0  0  0  0  0  0  0  0  0  0  0  0
   40.1230   30.2760   39.7830 O   0  0  0  0  0  0  0  0  0  0  0  0
   38.9580   32.3150   40.2850 C   0  0  0  0  0  0  0  0  0  0  0  0
   37.6760   32.5860   39.6950 C   0  0  0  0  0  0  0  0  0  0  0  0
   37.3200   33.9310   39.5080 C   0  0  0  0  0  0  0  0  0  0  0  0
   38.2260   34.8790   39.9030 N   0  0  0  0  0  0  0  0  0  0  0  0
   39.4140   34.5750   40.4530 C   0  0  0  0  0  0  0  0  0  0  0  0
   39.7490   33.3040   40.6300 N   0  0  0  0  0  0  0  0  0  0  0  0
   40.3020   35.6670   40.8400 C   0  0  0  0  0  0  0  0  0  0  0  0
   41.4640   35.3930   41.5330 C   0  0  0  0  0  0  0  0  0  0  0  0
   42.1000   36.6120   41.7630 C   0  0  0  0  0  0  0  0  0  0  0  0
   41.3140   37.5760   41.2080 N   0  0  0  0  0  0  0  0  0  0  0  0
   40.2370   37.0060   40.6550 N   0  0  0  0  0  0  0  0  0  0  0  0
   38.7008   28.1644   41.1819 H   0  0  0  0  0  0  0  0  0  0  0  0
   37.3366   28.1689   39.0171 H   0  0  0  0  0  0  0  0  0  0  0  0
   37.6787   29.9321   39.0450 H   0  0  0  0  0  0  0  0  0  0  0  0
   35.5993   30.4440   39.9286 H   0  0  0  0  0  0  0  0  0  0  0  0
   35.1604   29.1110   38.9086 H   0  0  0  0  0  0  0  0  0  0  0  0
   34.6375   28.9793   41.5367 H   0  0  0  0  0  0  0  0  0  0  0  0
   35.2868   27.5250   40.7778 H   0  0  0  0  0  0  0  0  0  0  0  0
   36.6672   29.6316   42.4666 H   0  0  0  0  0  0  0  0  0  0  0  0
   36.3563   26.9040   42.2003 H   0  0  0  0  0  0  0  0  0  0  0  0
   38.4904   26.4920   43.9382 H   0  0  0  0  0  0  0  0  0  0  0  0
   39.1348   27.8699   43.5710 H   0  0  0  0  0  0  0  0  0  0  0  0
   36.8085   29.0657   44.6379 H   0  0  0  0  0  0  0  0  0  0  0  0
   36.2878   27.7343   45.2340 H   0  0  0  0  0  0  0  0  0  0  0  0
   36.9991   31.7703   39.4010 H   0  0  0  0  0  0  0  0  0  0  0  0
   36.3540   34.2117   39.0629 H   0  0  0  0  0  0  0  0  0  0  0  0
   41.8207   34.4003   41.8448 H   0  0  0  0  0  0  0  0  0  0  0  0
   43.0528   36.7657   42.2908 H   0  0  0  0  0  0  0  0  0  0  0  0
   41.5169   38.5858   41.2131 H   0  0  0  0  0  0  0  0  0  0  0  0
  1  9  1  0
  1  5  1  0
  2  3  1  0
  2  1  1  0
  3  4  1  0
  4  5  1  0
  5  6  1  0
  6  7  1  0
  6  8  1  0
  7  8  1  0
 10  9  1  0
 11 10  2  0
 12 10  1  0
 12 17  1  0
 13 12  2  0
 14 13  1  0
 14 15  2  0
 15 16  1  0
 16 17  2  0
 16 18  1  0
 18 19  1  0
 19 20  2  0
 21 20  1  0
 22 18  2  0
 22 21  1  0
  1 23  1  6
  2 24  1  0
  2 25  1  0
  3 26  1  0
  3 27  1  0
  4 28  1  0
  4 29  1  0
  5 30  1  1
  6 31  1  0
  7 32  1  0
  7 33  1  0
  8 34  1  0
  8 35  1  0
 13 36  1  0
 14 37  1  0
 19 38  1  0
 20 39  1  0
 21 40  1  0
M  ISO  8  23  13  24  13  25  13  26  13  27  13  28  13  29  13  30  13
M  ISO  8  31  13  32  13  33  13  34  13  35  13  36  14  37  14  38  14
M  ISO  2  39  14  40   9
M  END
>  <minimizedAffinity>  (1) 
-5.67087889

>  <minimizedRMSD>  (1) 
0.726544738

$$$$
