
     RDKit          3D

 45 47  0  0  1  0  0  0  0  0999 V2000
   37.9380   29.1620   41.3210 C   0  0  2  0  0  0  0  0  0  0  0  0
   37.4060   29.3050   39.7830 C   0  0  0  0  0  0  0  0  0  0  0  0
   35.9530   29.4510   39.7880 C   0  0  0  0  0  0  0  0  0  0  0  0
   35.5980   28.5800   40.9390 C   0  0  0  0  0  0  0  0  0  0  0  0
   36.7180   28.7980   41.9530 C   0  0  1  0  0  0  0  0  0  0  0  0
   36.8310   27.6540   42.9230 C   0  0  0  0  0  0  0  0  0  0  0  0
   38.0410   27.5010   43.7330 C   0  0  0  0  0  0  0  0  0  0  0  0
   36.8170   28.0310   44.4260 C   0  0  0  0  0  0  0  0  0  0  0  0
   38.3290   30.3770   41.6870 O   0  0  0  0  0  0  0  0  0  0  0  0
   39.4420   31.0940   41.1300 C   0  0  0  0  0  0  0  0  0  0  0  0
   40.4930   30.4800   41.0620 O   0  0  0  0  0  0  0  0  0  0  0  0
   39.1870   32.4760   40.7000 C   0  0  0  0  0  0  0  0  0  0  0  0
   37.8310   32.7370   40.3310 C   0  0  0  0  0  0  0  0  0  0  0  0
   37.5270   34.0330   39.8870 C   0  0  0  0  0  0  0  0  0  0  0  0
   38.5430   34.9440   39.8390 N   0  0  0  0  0  0  0  0  0  0  0  0
   39.8090   34.6420   40.2010 C   0  0  0  0  0  0  0  0  0  0  0  0
   40.1010   33.4250   40.6210 N   0  0  0  0  0  0  0  0  0  0  0  0
   40.8740   35.6700   40.1310 C   0  0  0  0  0  0  0  0  0  0  0  0
   41.8340   35.5870   41.2830 C   0  0  0  0  0  0  0  0  0  0  0  0
   41.6950   35.4350   38.8630 C   0  0  0  0  0  0  0  0  0  0  0  0
   40.1900   37.0160   40.0190 C   0  0  0  0  0  0  0  0  0  0  0  0
   38.7657   28.4674   41.5268 H   0  0  0  0  0  0  0  0  0  0  0  0
   37.6833   28.4060   39.2129 H   0  0  0  0  0  0  0  0  0  0  0  0
   37.8641   30.1886   39.3146 H   0  0  0  0  0  0  0  0  0  0  0  0
   35.6502   30.4945   39.9596 H   0  0  0  0  0  0  0  0  0  0  0  0
   35.4618   29.1827   38.8411 H   0  0  0  0  0  0  0  0  0  0  0  0
   34.6275   28.8759   41.3640 H   0  0  0  0  0  0  0  0  0  0  0  0
   35.5024   27.5239   40.6466 H   0  0  0  0  0  0  0  0  0  0  0  0
   36.4504   29.6652   42.5746 H   0  0  0  0  0  0  0  0  0  0  0  0
   36.2717   26.9763   42.2612 H   0  0  0  0  0  0  0  0  0  0  0  0
   38.4066   26.4922   43.9754 H   0  0  0  0  0  0  0  0  0  0  0  0
   39.0743   27.8643   43.6318 H   0  0  0  0  0  0  0  0  0  0  0  0
   36.7644   29.0852   44.7357 H   0  0  0  0  0  0  0  0  0  0  0  0
   36.2218   27.7528   45.3082 H   0  0  0  0  0  0  0  0  0  0  0  0
   37.0591   31.9557   40.3924 H   0  0  0  0  0  0  0  0  0  0  0  0
   36.5043   34.3059   39.5876 H   0  0  0  0  0  0  0  0  0  0  0  0
   41.2758   35.6353   42.2296 H   0  0  0  0  0  0  0  0  0  0  0  0
   42.3873   34.6377   41.2316 H   0  0  0  0  0  0  0  0  0  0  0  0
   42.5420   36.4273   41.2316 H   0  0  0  0  0  0  0  0  0  0  0  0
   42.7189   35.1419   39.1382 H   0  0  0  0  0  0  0  0  0  0  0  0
   41.2313   34.6335   38.2692 H   0  0  0  0  0  0  0  0  0  0  0  0
   41.7256   36.3605   38.2692 H   0  0  0  0  0  0  0  0  0  0  0  0
   39.9896   37.4104   41.0261 H   0  0  0  0  0  0  0  0  0  0  0  0
   40.8424   37.7147   39.4747 H   0  0  0  0  0  0  0  0  0  0  0  0
   39.2410   36.9009   39.4747 H   0  0  0  0  0  0  0  0  0  0  0  0
  1  9  1  0
  1  5  1  0
  2  3  1  0
  2  1  1  0
  3  4  1  0
  4  5  1  0
  5  6  1  0
  6  7  1  0
  6  8  1  0
  7  8  1  0
 10  9  1  0
 11 10  2  0
 12 10  1  0
 13 12  2  0
 14 13  1  0
 15 14  2  0
 15 16  1  0
 16 17  2  0
 17 12  1  0
 18 16  1  0
 18 19  1  0
 20 18  1  0
 21 18  1  0
  1 22  1  6
  2 23  1  0
  2 24  1  0
  3 25  1  0
  3 26  1  0
  4 27  1  0
  4 28  1  0
  5 29  1  1
  6 30  1  0
  7 31  1  0
  7 32  1  0
  8 33  1  0
  8 34  1  0
 13 35  1  0
 14 36  1  0
 19 37  1  0
 19 38  1  0
 19 39  1  0
 20 40  1  0
 20 41  1  0
 20 42  1  0
 21 43  1  0
 21 44  1  0
 21 45  1  0
M  ISO  8  22  13  23  13  24  13  25  13  26  13  27  13  28  13  29  13
M  ISO  8  30  13  31  13  32  13  33  13  34  13  35  14  36  14  37   8
M  ISO  8  38   8  39   8  40   8  41   8  42   8  43   8  44   8  45   8
M  END
>  <minimizedAffinity>  (1) 
-5.55215073

>  <minimizedRMSD>  (1) 
0.630522609

$$$$
