
     RDKit          3D

 40 43  0  0  1  0  0  0  0  0999 V2000
   37.9010   29.1560   41.2640 C   0  0  2  0  0  0  0  0  0  0  0  0
   37.3210   29.2610   39.7410 C   0  0  0  0  0  0  0  0  0  0  0  0
   35.8660   29.3770   39.7840 C   0  0  0  0  0  0  0  0  0  0  0  0
   35.5640   28.5170   40.9590 C   0  0  0  0  0  0  0  0  0  0  0  0
   36.7060   28.7760   41.9370 C   0  0  1  0  0  0  0  0  0  0  0  0
   36.8800   27.6460   42.9150 C   0  0  0  0  0  0  0  0  0  0  0  0
   38.0920   27.5640   43.7310 C   0  0  0  0  0  0  0  0  0  0  0  0
   36.8440   28.0340   44.4140 C   0  0  0  0  0  0  0  0  0  0  0  0
   38.2730   30.3870   41.6010 O   0  0  0  0  0  0  0  0  0  0  0  0
   39.2530   31.1750   40.9050 C   0  0  0  0  0  0  0  0  0  0  0  0
   40.3130   30.6250   40.6670 O   0  0  0  0  0  0  0  0  0  0  0  0
   38.8640   32.5460   40.5520 C   0  0  0  0  0  0  0  0  0  0  0  0
   37.6070   32.6530   39.8810 C   0  0  0  0  0  0  0  0  0  0  0  0
   37.1860   33.9370   39.5070 C   0  0  0  0  0  0  0  0  0  0  0  0
   38.0050   34.9850   39.8110 N   0  0  0  0  0  0  0  0  0  0  0  0
   39.1860   34.8350   40.4470 C   0  0  0  0  0  0  0  0  0  0  0  0
   39.5820   33.6250   40.7990 N   0  0  0  0  0  0  0  0  0  0  0  0
   40.0130   36.0190   40.7390 C   0  0  0  0  0  0  0  0  0  0  0  0
   40.8490   36.6210   39.6770 C   0  0  0  0  0  0  0  0  0  0  0  0
   39.5470   37.2890   40.0530 C   0  0  0  0  0  0  0  0  0  0  0  0
   38.7508   28.4843   41.4555 H   0  0  0  0  0  0  0  0  0  0  0  0
   37.6009   28.3581   39.1785 H   0  0  0  0  0  0  0  0  0  0  0  0
   37.7461   30.1464   39.2457 H   0  0  0  0  0  0  0  0  0  0  0  0
   35.5455   30.4165   39.9477 H   0  0  0  0  0  0  0  0  0  0  0  0
   35.3537   29.0839   38.8558 H   0  0  0  0  0  0  0  0  0  0  0  0
   34.5994   28.7980   41.4068 H   0  0  0  0  0  0  0  0  0  0  0  0
   35.4849   27.4544   40.6858 H   0  0  0  0  0  0  0  0  0  0  0  0
   36.4312   29.6447   42.5533 H   0  0  0  0  0  0  0  0  0  0  0  0
   36.3611   26.9343   42.2561 H   0  0  0  0  0  0  0  0  0  0  0  0
   38.5088   26.5779   43.9837 H   0  0  0  0  0  0  0  0  0  0  0  0
   39.1052   27.9802   43.6299 H   0  0  0  0  0  0  0  0  0  0  0  0
   36.7361   29.0866   44.7146 H   0  0  0  0  0  0  0  0  0  0  0  0
   36.2619   27.7325   45.2973 H   0  0  0  0  0  0  0  0  0  0  0  0
   36.9948   31.7646   39.6667 H   0  0  0  0  0  0  0  0  0  0  0  0
   36.2294   34.0939   38.9870 H   0  0  0  0  0  0  0  0  0  0  0  0
   40.2402   35.6891   41.7635 H   0  0  0  0  0  0  0  0  0  0  0  0
   40.9446   36.1170   38.7040 H   0  0  0  0  0  0  0  0  0  0  0  0
   41.8962   36.9516   39.6129 H   0  0  0  0  0  0  0  0  0  0  0  0
   39.5516   38.2457   40.5959 H   0  0  0  0  0  0  0  0  0  0  0  0
   38.6412   37.6053   39.5149 H   0  0  0  0  0  0  0  0  0  0  0  0
  1  9  1  0
  1  5  1  0
  2  3  1  0
  2  1  1  0
  3  4  1  0
  4  5  1  0
  5  6  1  0
  6  7  1  0
  6  8  1  0
  7  8  1  0
 10  9  1  0
 11 10  2  0
 12 17  1  0
 12 10  1  0
 13 12  2  0
 14 15  2  0
 14 13  1  0
 15 16  1  0
 16 18  1  0
 16 17  2  0
 19 20  1  0
 19 18  1  0
 20 18  1  0
  1 21  1  6
  2 22  1  0
  2 23  1  0
  3 24  1  0
  3 25  1  0
  4 26  1  0
  4 27  1  0
  5 28  1  1
  6 29  1  0
  7 30  1  0
  7 31  1  0
  8 32  1  0
  8 33  1  0
 13 34  1  0
 14 35  1  0
 18 36  1  0
 19 37  1  0
 19 38  1  0
 20 39  1  0
 20 40  1  0
M  ISO  8  21  13  22  13  23  13  24  13  25  13  26  13  27  13  28  13
M  ISO  8  29  13  30  13  31  13  32  13  33  13  34  14  35  14  36  13
M  ISO  4  37  13  38  13  39  13  40  13
M  END
>  <minimizedAffinity>  (1) 
-5.54916525

>  <minimizedRMSD>  (1) 
0.746261239

$$$$
