
     RDKit          3D

 21 23  0  0  0  0  0  0  0  0999 V2000
   37.0650   27.9470   41.5330 N   0  0  0  0  0  0  0  0  0  0  0  0
   36.7700   27.3770   42.7140 C   0  0  0  0  0  0  0  0  0  0  0  0
   37.8360   27.3390   43.5210 N   0  0  0  0  0  0  0  0  0  0  0  0
   38.8500   27.8990   42.8430 C   0  0  0  0  0  0  0  0  0  0  0  0
   40.1720   28.1490   43.1240 C   0  0  0  0  0  0  0  0  0  0  0  0
   41.0150   28.7390   42.2610 N   0  0  0  0  0  0  0  0  0  0  0  0
   40.5080   29.0930   41.0640 C   0  0  0  0  0  0  0  0  0  0  0  0
   39.2240   28.8510   40.7900 N   0  0  0  0  0  0  0  0  0  0  0  0
   38.3520   28.2740   41.6030 C   0  0  0  0  0  0  0  0  0  0  0  0
   36.2810   27.3620   39.3090 C   0  0  0  0  0  0  0  0  0  0  0  0
   36.1770   28.1410   40.4700 C   0  0  0  0  0  0  0  0  0  0  0  0
   35.1730   29.1010   40.5250 C   0  0  0  0  0  0  0  0  0  0  0  0
   34.3440   29.2380   39.4590 N   0  0  0  0  0  0  0  0  0  0  0  0
   34.4720   28.4680   38.3500 C   0  0  0  0  0  0  0  0  0  0  0  0
   35.4320   27.5390   38.2790 N   0  0  0  0  0  0  0  0  0  0  0  0
   35.7761   26.9901   42.9832 H   0  0  0  0  0  0  0  0  0  0  0  0
   40.5604   27.8497   44.1087 H   0  0  0  0  0  0  0  0  0  0  0  0
   41.1499   29.5798   40.3150 H   0  0  0  0  0  0  0  0  0  0  0  0
   37.0670   26.5957   39.2386 H   0  0  0  0  0  0  0  0  0  0  0  0
   35.0528   29.7368   41.4146 H   0  0  0  0  0  0  0  0  0  0  0  0
   33.7827   28.6081   37.5043 H   0  0  0  0  0  0  0  0  0  0  0  0
  1  9  1  0
  1  2  1  0
  2  3  2  0
  4  5  2  0
  4  3  1  0
  6  5  1  0
  7  6  2  0
  8  7  1  0
  8  9  2  0
  9  4  1  0
 10 11  2  0
 11 12  1  0
 11  1  1  0
 13 12  2  0
 14 13  1  0
 15 14  2  0
 15 10  1  0
  2 16  1  0
  5 17  1  0
  7 18  1  0
 10 19  1  0
 12 20  1  0
 14 21  1  0
M  ISO  6  16  14  17  14  18  14  19  14  20  14  21  14
M  END
>  <minimizedAffinity>  (1) 
-3.56652689

>  <minimizedRMSD>  (1) 
4.83781385

$$$$
