
     RDKit          3D

 39 41  0  0  1  0  0  0  0  0999 V2000
   37.9440   29.1290   41.2140 C   0  0  2  0  0  0  0  0  0  0  0  0
   37.3320   29.2880   39.7000 C   0  0  0  0  0  0  0  0  0  0  0  0
   35.8880   29.4300   39.7770 C   0  0  0  0  0  0  0  0  0  0  0  0
   35.5730   28.5940   40.9620 C   0  0  0  0  0  0  0  0  0  0  0  0
   36.7520   28.7930   41.9100 C   0  0  1  0  0  0  0  0  0  0  0  0
   36.8920   27.6540   42.8790 C   0  0  0  0  0  0  0  0  0  0  0  0
   38.0970   27.5410   43.7040 C   0  0  0  0  0  0  0  0  0  0  0  0
   36.8510   28.0210   44.3810 C   0  0  0  0  0  0  0  0  0  0  0  0
   38.3790   30.3370   41.5430 O   0  0  0  0  0  0  0  0  0  0  0  0
   39.3830   31.0860   40.8390 C   0  0  0  0  0  0  0  0  0  0  0  0
   40.3910   30.4720   40.5370 O   0  0  0  0  0  0  0  0  0  0  0  0
   39.0850   32.4920   40.5580 C   0  0  0  0  0  0  0  0  0  0  0  0
   37.7810   32.7160   40.0080 C   0  0  0  0  0  0  0  0  0  0  0  0
   37.4290   34.0330   39.6870 C   0  0  0  0  0  0  0  0  0  0  0  0
   38.3540   35.0070   39.9230 N   0  0  0  0  0  0  0  0  0  0  0  0
   39.5730   34.7530   40.4430 C   0  0  0  0  0  0  0  0  0  0  0  0
   39.9030   33.5080   40.7450 N   0  0  0  0  0  0  0  0  0  0  0  0
   40.4740   35.9140   40.6440 C   0  0  0  0  0  0  0  0  0  0  0  0
   39.8260   37.1570   40.0730 C   0  0  0  0  0  0  0  0  0  0  0  0
   38.7625   28.4143   41.3850 H   0  0  0  0  0  0  0  0  0  0  0  0
   37.5822   28.3958   39.1072 H   0  0  0  0  0  0  0  0  0  0  0  0
   37.7642   30.1784   39.2200 H   0  0  0  0  0  0  0  0  0  0  0  0
   35.5949   30.4784   39.9351 H   0  0  0  0  0  0  0  0  0  0  0  0
   35.3576   29.1293   38.8614 H   0  0  0  0  0  0  0  0  0  0  0  0
   34.6371   28.9284   41.4334 H   0  0  0  0  0  0  0  0  0  0  0  0
   35.4309   27.5363   40.6956 H   0  0  0  0  0  0  0  0  0  0  0  0
   36.5372   29.6708   42.5372 H   0  0  0  0  0  0  0  0  0  0  0  0
   36.3620   26.9615   42.2086 H   0  0  0  0  0  0  0  0  0  0  0  0
   38.4959   26.5450   43.9466 H   0  0  0  0  0  0  0  0  0  0  0  0
   39.1177   27.9420   43.6175 H   0  0  0  0  0  0  0  0  0  0  0  0
   36.7572   29.0710   44.6953 H   0  0  0  0  0  0  0  0  0  0  0  0
   36.2567   27.7163   45.2550 H   0  0  0  0  0  0  0  0  0  0  0  0
   37.0813   31.8832   39.8437 H   0  0  0  0  0  0  0  0  0  0  0  0
   36.4437   34.2727   39.2607 H   0  0  0  0  0  0  0  0  0  0  0  0
   40.6558   36.0558   41.7196 H   0  0  0  0  0  0  0  0  0  0  0  0
   41.4305   35.7300   40.1329 H   0  0  0  0  0  0  0  0  0  0  0  0
   39.4882   37.8050   40.8951 H   0  0  0  0  0  0  0  0  0  0  0  0
   40.5559   37.6998   39.4544 H   0  0  0  0  0  0  0  0  0  0  0  0
   38.9630   36.8695   39.4544 H   0  0  0  0  0  0  0  0  0  0  0  0
  1  9  1  0
  1  5  1  0
  2  3  1  0
  2  1  1  0
  3  4  1  0
  4  5  1  0
  5  6  1  0
  6  7  1  0
  6  8  1  0
  7  8  1  0
 10  9  1  0
 11 10  2  0
 12 17  1  0
 12 10  1  0
 13 12  2  0
 14 15  2  0
 14 13  1  0
 15 16  1  0
 16 18  1  0
 16 17  2  0
 19 18  1  0
  1 20  1  6
  2 21  1  0
  2 22  1  0
  3 23  1  0
  3 24  1  0
  4 25  1  0
  4 26  1  0
  5 27  1  1
  6 28  1  0
  7 29  1  0
  7 30  1  0
  8 31  1  0
  8 32  1  0
 13 33  1  0
 14 34  1  0
 18 35  1  0
 18 36  1  0
 19 37  1  0
 19 38  1  0
 19 39  1  0
M  ISO  8  20  13  21  13  22  13  23  13  24  13  25  13  26  13  27  13
M  ISO  8  28  13  29  13  30  13  31  13  32  13  33  14  34  14  35   8
M  ISO  4  36   8  37   8  38   8  39   8
M  END
>  <minimizedAffinity>  (1) 
-5.2503438

>  <minimizedRMSD>  (1) 
0.385974973

$$$$
