
     RDKit          3D

 17 18  0  0  0  0  0  0  0  0999 V2000
   37.4170   29.4490   42.1450 C   0  0  0  0  0  0  0  0  0  0  0  0
   37.4480   28.0840   41.8210 C   0  0  0  0  0  0  0  0  0  0  0  0
   36.5850   27.6100   40.8360 C   0  0  0  0  0  0  0  0  0  0  0  0
   35.7500   28.5080   40.2380 N   0  0  0  0  0  0  0  0  0  0  0  0
   35.7470   29.8100   40.5730 C   0  0  0  0  0  0  0  0  0  0  0  0
   36.5740   30.2710   41.5180 N   0  0  0  0  0  0  0  0  0  0  0  0
   38.2980   27.1210   42.4180 C   0  0  0  0  0  0  0  0  0  0  0  0
   39.1950   27.3820   43.4990 C   0  0  0  0  0  0  0  0  0  0  0  0
   39.9540   26.3500   43.9740 C   0  0  0  0  0  0  0  0  0  0  0  0
   39.7780   25.0600   43.3250 C   0  0  0  0  0  0  0  0  0  0  0  0
   38.4750   25.3960   42.0050 S   0  0  0  0  0  0  0  0  0  0  0  0
   38.0911   29.8431   42.9198 H   0  0  0  0  0  0  0  0  0  0  0  0
   36.5769   26.5479   40.5500 H   0  0  0  0  0  0  0  0  0  0  0  0
   35.0587   30.5021   40.0657 H   0  0  0  0  0  0  0  0  0  0  0  0
   39.2725   28.3878   43.9375 H   0  0  0  0  0  0  0  0  0  0  0  0
   40.6619   26.4875   44.8046 H   0  0  0  0  0  0  0  0  0  0  0  0
   40.2861   24.1110   43.5515 H   0  0  0  0  0  0  0  0  0  0  0  0
  2  1  2  0
  2  7  1  0
  3  2  1  0
  4  5  1  0
  4  3  2  0
  5  6  2  0
  6  1  1  0
  7  8  2  0
  8  9  1  0
 10  9  2  0
 11  7  1  0
 11 10  1  0
  1 12  1  0
  3 13  1  0
  5 14  1  0
  8 15  1  0
  9 16  1  0
 10 17  1  0
M  ISO  6  12  14  13  14  14  14  15  14  16  14  17  14
M  END
>  <minimizedAffinity>  (1) 
-3.55247021

>  <minimizedRMSD>  (1) 
2.65701532

$$$$
