
     RDKit          3D

 36 38  0  0  1  0  0  0  0  0999 V2000
   37.9730   29.3090   41.0870 C   0  0  2  0  0  0  0  0  0  0  0  0
   37.3020   29.4760   39.6090 C   0  0  0  0  0  0  0  0  0  0  0  0
   35.8590   29.6090   39.7480 C   0  0  0  0  0  0  0  0  0  0  0  0
   35.5910   28.7560   40.9350 C   0  0  0  0  0  0  0  0  0  0  0  0
   36.8180   28.9250   41.8250 C   0  0  1  0  0  0  0  0  0  0  0  0
   37.0340   27.7480   42.7350 C   0  0  0  0  0  0  0  0  0  0  0  0
   38.2560   27.6620   43.5400 C   0  0  0  0  0  0  0  0  0  0  0  0
   37.0020   28.0430   44.2540 C   0  0  0  0  0  0  0  0  0  0  0  0
   38.3960   30.5150   41.4390 O   0  0  0  0  0  0  0  0  0  0  0  0
   39.4960   31.2200   40.8370 C   0  0  0  0  0  0  0  0  0  0  0  0
   40.4880   30.5580   40.5960 O   0  0  0  0  0  0  0  0  0  0  0  0
   39.2920   32.6500   40.5750 C   0  0  0  0  0  0  0  0  0  0  0  0
   37.9680   32.9920   40.1570 C   0  0  0  0  0  0  0  0  0  0  0  0
   37.7090   34.3390   39.8780 C   0  0  0  0  0  0  0  0  0  0  0  0
   38.7390   35.2230   40.0270 N   0  0  0  0  0  0  0  0  0  0  0  0
   39.9740   34.8530   40.4240 C   0  0  0  0  0  0  0  0  0  0  0  0
   40.2180   33.5810   40.6870 N   0  0  0  0  0  0  0  0  0  0  0  0
   41.0110   35.9220   40.5460 C   0  0  0  0  0  0  0  0  0  0  0  0
   38.8184   28.6145   41.2009 H   0  0  0  0  0  0  0  0  0  0  0  0
   37.5323   28.5903   38.9987 H   0  0  0  0  0  0  0  0  0  0  0  0
   37.7092   30.3725   39.1186 H   0  0  0  0  0  0  0  0  0  0  0  0
   35.5684   30.6540   39.9313 H   0  0  0  0  0  0  0  0  0  0  0  0
   35.2949   29.3153   38.8505 H   0  0  0  0  0  0  0  0  0  0  0  0
   34.6842   29.0942   41.4578 H   0  0  0  0  0  0  0  0  0  0  0  0
   35.4210   27.7047   40.6595 H   0  0  0  0  0  0  0  0  0  0  0  0
   36.6139   29.7707   42.4982 H   0  0  0  0  0  0  0  0  0  0  0  0
   36.5309   27.0603   42.0394 H   0  0  0  0  0  0  0  0  0  0  0  0
   38.7102   26.6785   43.7311 H   0  0  0  0  0  0  0  0  0  0  0  0
   39.2526   28.1205   43.4586 H   0  0  0  0  0  0  0  0  0  0  0  0
   36.8595   29.0711   44.6183 H   0  0  0  0  0  0  0  0  0  0  0  0
   36.4398   27.6673   45.1216 H   0  0  0  0  0  0  0  0  0  0  0  0
   37.1840   32.2268   40.0586 H   0  0  0  0  0  0  0  0  0  0  0  0
   36.7132   34.6728   39.5510 H   0  0  0  0  0  0  0  0  0  0  0  0
   41.2065   36.1235   41.6096 H   0  0  0  0  0  0  0  0  0  0  0  0
   41.9396   35.5893   40.0591 H   0  0  0  0  0  0  0  0  0  0  0  0
   40.6503   36.8401   40.0591 H   0  0  0  0  0  0  0  0  0  0  0  0
  1  9  1  0
  1  5  1  0
  2  3  1  0
  2  1  1  0
  3  4  1  0
  4  5  1  0
  5  6  1  0
  6  7  1  0
  6  8  1  0
  7  8  1  0
 10  9  1  0
 11 10  2  0
 12 17  1  0
 12 10  1  0
 13 12  2  0
 14 15  2  0
 14 13  1  0
 15 16  1  0
 16 18  1  0
 16 17  2  0
  1 19  1  6
  2 20  1  0
  2 21  1  0
  3 22  1  0
  3 23  1  0
  4 24  1  0
  4 25  1  0
  5 26  1  1
  6 27  1  0
  7 28  1  0
  7 29  1  0
  8 30  1  0
  8 31  1  0
 13 32  1  0
 14 33  1  0
 18 34  1  0
 18 35  1  0
 18 36  1  0
M  ISO  8  19  13  20  13  21  13  22  13  23  13  24  13  25  13  26  13
M  ISO  8  27  13  28  13  29  13  30  13  31  13  32  14  33  14  34   8
M  ISO  2  35   8  36   8
M  END
>  <minimizedAffinity>  (1) 
-5.03241301

>  <minimizedRMSD>  (1) 
0.0975877345

$$$$
