
     RDKit          3D

 50 54  0  0  1  0  0  0  0  0999 V2000
   35.7520   28.3420   39.1250 C   0  0  0  0  0  0  0  0  0  0  0  0
   35.0920   27.6280   38.4330 O   0  0  0  0  0  0  0  0  0  0  0  0
   36.3810   29.6290   38.7610 C   0  0  0  0  0  0  0  0  0  0  0  0
   36.7860   29.7380   37.3780 C   0  0  0  0  0  0  0  0  0  0  0  0
   37.4100   30.9190   36.9790 C   0  0  0  0  0  0  0  0  0  0  0  0
   37.5910   31.8880   37.9280 N   0  0  0  0  0  0  0  0  0  0  0  0
   37.1920   31.7430   39.2190 C   0  0  0  0  0  0  0  0  0  0  0  0
   36.6110   30.6260   39.5660 N   0  0  0  0  0  0  0  0  0  0  0  0
   37.4620   32.8880   40.1220 C   0  0  0  0  0  0  0  0  0  0  0  0
   38.8820   33.1660   40.3620 C   0  0  0  0  0  0  0  0  0  0  0  0
   39.6340   32.0850   40.6590 N   0  0  0  0  0  0  0  0  0  0  0  0
   40.9470   32.1230   40.9390 C   0  0  0  0  0  0  0  0  0  0  0  0
   41.6150   33.3140   40.9360 N   0  0  0  0  0  0  0  0  0  0  0  0
   40.8960   34.3860   40.6470 C   0  0  0  0  0  0  0  0  0  0  0  0
   41.4940   35.6520   40.6130 C   0  0  0  0  0  0  0  0  0  0  0  0
   40.7500   36.7740   40.3070 C   0  0  0  0  0  0  0  0  0  0  0  0
   39.3960   36.7020   40.0200 C   0  0  0  0  0  0  0  0  0  0  0  0
   38.7820   35.4700   40.0470 C   0  0  0  0  0  0  0  0  0  0  0  0
   39.5460   34.3690   40.3560 C   0  0  0  0  0  0  0  0  0  0  0  0
   35.9830   27.9400   40.4920 O   0  0  0  0  0  0  0  0  0  0  0  0
   37.1030   27.4670   40.9720 C   0  0  2  0  0  0  0  0  0  0  0  0
   37.3220   26.0970   40.0230 C   0  0  0  0  0  0  0  0  0  0  0  0
   36.8610   24.9410   40.7380 C   0  0  0  0  0  0  0  0  0  0  0  0
   37.1690   25.3000   42.1340 C   0  0  0  0  0  0  0  0  0  0  0  0
   36.9450   26.8200   42.1970 C   0  0  1  0  0  0  0  0  0  0  0  0
   37.7130   27.4370   43.3250 C   0  0  0  0  0  0  0  0  0  0  0  0
   37.6750   28.8870   43.5110 C   0  0  0  0  0  0  0  0  0  0  0  0
   36.8870   28.0750   44.4760 C   0  0  0  0  0  0  0  0  0  0  0  0
   36.6083   28.9187   36.6659 H   0  0  0  0  0  0  0  0  0  0  0  0
   37.7440   31.0662   35.9413 H   0  0  0  0  0  0  0  0  0  0  0  0
   37.0084   33.7867   39.6787 H   0  0  0  0  0  0  0  0  0  0  0  0
   37.0321   32.6183   41.0979 H   0  0  0  0  0  0  0  0  0  0  0  0
   41.4856   31.1924   41.1713 H   0  0  0  0  0  0  0  0  0  0  0  0
   42.5671   35.7534   40.8323 H   0  0  0  0  0  0  0  0  0  0  0  0
   41.2471   37.7551   40.2905 H   0  0  0  0  0  0  0  0  0  0  0  0
   38.8243   37.6095   39.7759 H   0  0  0  0  0  0  0  0  0  0  0  0
   37.7089   35.3690   39.8273 H   0  0  0  0  0  0  0  0  0  0  0  0
   37.8452   28.2775   41.0191 H   0  0  0  0  0  0  0  0  0  0  0  0
   38.3903   25.9808   39.7878 H   0  0  0  0  0  0  0  0  0  0  0  0
   36.7504   26.2026   39.0892 H   0  0  0  0  0  0  0  0  0  0  0  0
   35.7815   24.7865   40.5941 H   0  0  0  0  0  0  0  0  0  0  0  0
   37.3279   24.0010   40.4088 H   0  0  0  0  0  0  0  0  0  0  0  0
   36.4938   24.7781   42.8281 H   0  0  0  0  0  0  0  0  0  0  0  0
   38.1909   25.0146   42.4244 H   0  0  0  0  0  0  0  0  0  0  0  0
   35.8804   26.9752   42.4264 H   0  0  0  0  0  0  0  0  0  0  0  0
   38.5180   26.6923   43.2387 H   0  0  0  0  0  0  0  0  0  0  0  0
   38.5782   29.4107   43.8573 H   0  0  0  0  0  0  0  0  0  0  0  0
   37.4236   29.7281   42.8481 H   0  0  0  0  0  0  0  0  0  0  0  0
   35.7877   28.0767   44.4380 H   0  0  0  0  0  0  0  0  0  0  0  0
   36.8393   27.9698   45.5699 H   0  0  0  0  0  0  0  0  0  0  0  0
  1 20  1  0
  2  1  2  0
  3  1  1  0
  3  8  1  0
  4  3  2  0
  5  4  1  0
  5  6  2  0
  6  7  1  0
  7  8  2  0
  7  9  1  0
  9 10  1  0
 10 11  2  0
 11 12  1  0
 13 12  2  0
 14 13  1  0
 15 14  2  0
 16 15  1  0
 17 18  1  0
 17 16  2  0
 18 19  2  0
 19 10  1  0
 19 14  1  0
 20 21  1  0
 21 25  1  0
 22 23  1  0
 22 21  1  0
 23 24  1  0
 24 25  1  0
 25 26  1  0
 26 27  1  0
 26 28  1  0
 27 28  1  0
  4 29  1  0
  5 30  1  0
  9 31  1  0
  9 32  1  0
 12 33  1  0
 15 34  1  0
 16 35  1  0
 17 36  1  0
 18 37  1  0
 21 38  1  1
 22 39  1  0
 22 40  1  0
 23 41  1  0
 23 42  1  0
 24 43  1  0
 24 44  1  0
 25 45  1  1
 26 46  1  0
 27 47  1  0
 27 48  1  0
 28 49  1  0
 28 50  1  0
M  ISO  8  29  14  30  14  31   8  32   8  33  14  34  14  35  14  36  14
M  ISO  8  37  14  38  13  39  13  40  13  41  13  42  13  43  13  44  13
M  ISO  6  45  13  46  13  47  13  48  13  49  13  50  13
M  END
>  <minimizedAffinity>  (1) 
-7.16621113

>  <minimizedRMSD>  (1) 
4.18165016

$$$$
