
     RDKit          3D

 47 51  0  0  1  0  0  0  0  0999 V2000
   39.6730   30.8120   41.0660 C   0  0  0  0  0  0  0  0  0  0  0  0
   40.6170   30.0850   40.9760 O   0  0  0  0  0  0  0  0  0  0  0  0
   39.5970   32.2480   40.7170 C   0  0  0  0  0  0  0  0  0  0  0  0
   38.2540   32.7530   40.5390 C   0  0  0  0  0  0  0  0  0  0  0  0
   38.1090   34.0950   40.1800 C   0  0  0  0  0  0  0  0  0  0  0  0
   39.2530   34.8290   40.0230 N   0  0  0  0  0  0  0  0  0  0  0  0
   40.4820   34.3130   40.2000 C   0  0  0  0  0  0  0  0  0  0  0  0
   40.6280   33.0430   40.5410 N   0  0  0  0  0  0  0  0  0  0  0  0
   41.6480   35.2230   39.9820 C   0  0  0  0  0  0  0  0  0  0  0  0
   42.0930   35.8070   41.2350 N   0  0  0  0  0  0  0  0  0  0  0  0
   41.5590   36.7780   41.9910 C   0  0  0  0  0  0  0  0  0  0  0  0
   42.3280   36.9920   43.0830 N   0  0  0  0  0  0  0  0  0  0  0  0
   43.3670   36.1610   43.0460 C   0  0  0  0  0  0  0  0  0  0  0  0
   44.4840   35.8820   43.8340 C   0  0  0  0  0  0  0  0  0  0  0  0
   45.3890   34.9230   43.4830 N   0  0  0  0  0  0  0  0  0  0  0  0
   45.2060   34.2140   42.3320 C   0  0  0  0  0  0  0  0  0  0  0  0
   44.1370   34.4730   41.5660 N   0  0  0  0  0  0  0  0  0  0  0  0
   43.2250   35.4110   41.8820 C   0  0  0  0  0  0  0  0  0  0  0  0
   38.4360   30.2610   41.5640 O   0  0  0  0  0  0  0  0  0  0  0  0
   37.9680   29.0690   41.3010 C   0  0  2  0  0  0  0  0  0  0  0  0
   37.3740   29.2740   39.7440 C   0  0  0  0  0  0  0  0  0  0  0  0
   35.9570   29.5150   39.8000 C   0  0  0  0  0  0  0  0  0  0  0  0
   35.5620   28.6940   40.9600 C   0  0  0  0  0  0  0  0  0  0  0  0
   36.7510   28.8070   41.9300 C   0  0  1  0  0  0  0  0  0  0  0  0
   36.7840   27.6520   42.8850 C   0  0  0  0  0  0  0  0  0  0  0  0
   37.9530   27.4640   43.7420 C   0  0  0  0  0  0  0  0  0  0  0  0
   36.7310   27.9910   44.4020 C   0  0  0  0  0  0  0  0  0  0  0  0
   37.3777   32.1035   40.6812 H   0  0  0  0  0  0  0  0  0  0  0  0
   37.1159   34.5434   40.0297 H   0  0  0  0  0  0  0  0  0  0  0  0
   42.4749   34.6485   39.5390 H   0  0  0  0  0  0  0  0  0  0  0  0
   41.3381   36.0346   39.3073 H   0  0  0  0  0  0  0  0  0  0  0  0
   40.6313   37.3209   41.7571 H   0  0  0  0  0  0  0  0  0  0  0  0
   44.6393   36.4502   44.7630 H   0  0  0  0  0  0  0  0  0  0  0  0
   45.9277   33.4384   42.0358 H   0  0  0  0  0  0  0  0  0  0  0  0
   38.7363   28.3204   41.5445 H   0  0  0  0  0  0  0  0  0  0  0  0
   37.5686   28.3658   39.1546 H   0  0  0  0  0  0  0  0  0  0  0  0
   37.8737   30.1320   39.2706 H   0  0  0  0  0  0  0  0  0  0  0  0
   35.7373   30.5796   39.9683 H   0  0  0  0  0  0  0  0  0  0  0  0
   35.4234   29.2637   38.8715 H   0  0  0  0  0  0  0  0  0  0  0  0
   34.6443   29.0877   41.4213 H   0  0  0  0  0  0  0  0  0  0  0  0
   35.3445   27.6521   40.6822 H   0  0  0  0  0  0  0  0  0  0  0  0
   36.5839   29.7072   42.5397 H   0  0  0  0  0  0  0  0  0  0  0  0
   36.2257   27.0066   42.1909 H   0  0  0  0  0  0  0  0  0  0  0  0
   38.2939   26.4441   43.9734 H   0  0  0  0  0  0  0  0  0  0  0  0
   38.9938   27.8159   43.6878 H   0  0  0  0  0  0  0  0  0  0  0  0
   36.6865   29.0376   44.7377 H   0  0  0  0  0  0  0  0  0  0  0  0
   36.1042   27.7002   45.2579 H   0  0  0  0  0  0  0  0  0  0  0  0
  1 19  1  0
  2  1  2  0
  3  1  1  0
  4  3  2  0
  5  4  1  0
  6  5  2  0
  6  7  1  0
  7  8  2  0
  8  3  1  0
  9  7  1  0
  9 10  1  0
 10 18  1  0
 10 11  1  0
 11 12  2  0
 13 12  1  0
 13 14  2  0
 15 14  1  0
 16 15  2  0
 17 18  2  0
 17 16  1  0
 18 13  1  0
 20 19  1  0
 20 24  1  0
 21 22  1  0
 21 20  1  0
 22 23  1  0
 23 24  1  0
 24 25  1  0
 25 26  1  0
 25 27  1  0
 26 27  1  0
  4 28  1  0
  5 29  1  0
  9 30  1  0
  9 31  1  0
 11 32  1  0
 14 33  1  0
 16 34  1  0
 20 35  1  6
 21 36  1  0
 21 37  1  0
 22 38  1  0
 22 39  1  0
 23 40  1  0
 23 41  1  0
 24 42  1  1
 25 43  1  0
 26 44  1  0
 26 45  1  0
 27 46  1  0
 27 47  1  0
M  ISO  8  28  14  29  14  30   8  31   8  32  14  33  14  34  14  35  13
M  ISO  8  36  13  37  13  38  13  39  13  40  13  41  13  42  13  43  13
M  ISO  4  44  13  45  13  46  13  47  13
M  END
>  <minimizedAffinity>  (1) 
-6.66009426

>  <minimizedRMSD>  (1) 
1.23107886

$$$$
