
     RDKit          3D

 17 18  0  0  0  0  0  0  0  0999 V2000
   36.7440   31.2250   40.8110 C   0  0  0  0  0  0  0  0  0  0  0  0
   37.3160   29.9430   40.8320 C   0  0  0  0  0  0  0  0  0  0  0  0
   38.0460   29.5390   39.7000 C   0  0  0  0  0  0  0  0  0  0  0  0
   38.1500   30.4100   38.6620 N   0  0  0  0  0  0  0  0  0  0  0  0
   37.5840   31.6360   38.6780 C   0  0  0  0  0  0  0  0  0  0  0  0
   36.8780   32.0540   39.7480 N   0  0  0  0  0  0  0  0  0  0  0  0
   37.1890   29.0720   41.9210 N   0  0  0  0  0  0  0  0  0  0  0  0
   37.7980   29.2510   43.0990 N   0  0  0  0  0  0  0  0  0  0  0  0
   37.4520   28.2190   43.9170 C   0  0  0  0  0  0  0  0  0  0  0  0
   36.6000   27.3610   43.2400 C   0  0  0  0  0  0  0  0  0  0  0  0
   36.4680   27.9410   41.9950 C   0  0  0  0  0  0  0  0  0  0  0  0
   36.1694   31.5668   41.6845 H   0  0  0  0  0  0  0  0  0  0  0  0
   38.5191   28.5469   39.6560 H   0  0  0  0  0  0  0  0  0  0  0  0
   37.7001   32.3005   37.8091 H   0  0  0  0  0  0  0  0  0  0  0  0
   37.7953   28.0869   44.9537 H   0  0  0  0  0  0  0  0  0  0  0  0
   36.1370   26.4339   43.6090 H   0  0  0  0  0  0  0  0  0  0  0  0
   35.8568   27.5335   41.1762 H   0  0  0  0  0  0  0  0  0  0  0  0
  1  2  2  0
  2  7  1  0
  3  2  1  0
  4  5  1  0
  4  3  2  0
  5  6  2  0
  6  1  1  0
  7 11  1  0
  7  8  1  0
  8  9  2  0
 10  9  1  0
 11 10  2  0
  1 12  1  0
  3 13  1  0
  5 14  1  0
  9 15  1  0
 10 16  1  0
 11 17  1  0
M  ISO  6  12  14  13  14  14  14  15  14  16  14  17  14
M  END
>  <minimizedAffinity>  (1) 
-3.52730846

>  <minimizedRMSD>  (1) 
3.86122322

$$$$
