
     RDKit          3D

 43 46  0  0  1  0  0  0  0  0999 V2000
   37.9110   29.1820   41.3500 C   0  0  2  0  0  0  0  0  0  0  0  0
   37.3580   29.3800   39.7790 C   0  0  0  0  0  0  0  0  0  0  0  0
   35.9290   29.5330   39.7890 C   0  0  0  0  0  0  0  0  0  0  0  0
   35.5420   28.6750   40.9240 C   0  0  0  0  0  0  0  0  0  0  0  0
   36.6930   28.8340   41.9340 C   0  0  1  0  0  0  0  0  0  0  0  0
   36.7610   27.6690   42.8740 C   0  0  0  0  0  0  0  0  0  0  0  0
   37.9380   27.5010   43.7230 C   0  0  0  0  0  0  0  0  0  0  0  0
   36.7020   27.9840   44.3950 C   0  0  0  0  0  0  0  0  0  0  0  0
   38.2990   30.3920   41.6490 O   0  0  0  0  0  0  0  0  0  0  0  0
   39.5810   30.9730   41.3330 C   0  0  0  0  0  0  0  0  0  0  0  0
   40.5550   30.2980   41.4710 O   0  0  0  0  0  0  0  0  0  0  0  0
   39.5100   32.3720   40.8560 C   0  0  0  0  0  0  0  0  0  0  0  0
   38.1700   32.8480   40.5870 C   0  0  0  0  0  0  0  0  0  0  0  0
   38.0320   34.1520   40.1090 C   0  0  0  0  0  0  0  0  0  0  0  0
   39.1750   34.8810   39.9310 N   0  0  0  0  0  0  0  0  0  0  0  0
   40.4070   34.3940   40.1950 C   0  0  0  0  0  0  0  0  0  0  0  0
   40.5380   33.1630   40.6470 N   0  0  0  0  0  0  0  0  0  0  0  0
   41.5560   35.3080   39.9450 C   0  0  0  0  0  0  0  0  0  0  0  0
   42.1340   35.7300   41.2100 N   0  0  0  0  0  0  0  0  0  0  0  0
   41.6840   36.7790   41.9470 C   0  0  0  0  0  0  0  0  0  0  0  0
   42.4220   36.9380   43.0870 C   0  0  0  0  0  0  0  0  0  0  0  0
   43.3530   35.9510   43.0460 N   0  0  0  0  0  0  0  0  0  0  0  0
   43.1690   35.2370   41.9170 C   0  0  0  0  0  0  0  0  0  0  0  0
   38.7147   28.4761   41.6064 H   0  0  0  0  0  0  0  0  0  0  0  0
   37.6279   28.4968   39.1814 H   0  0  0  0  0  0  0  0  0  0  0  0
   37.8193   30.2762   39.3385 H   0  0  0  0  0  0  0  0  0  0  0  0
   35.6395   30.5801   39.9614 H   0  0  0  0  0  0  0  0  0  0  0  0
   35.4451   29.2608   38.8394 H   0  0  0  0  0  0  0  0  0  0  0  0
   34.5910   29.0133   41.3612 H   0  0  0  0  0  0  0  0  0  0  0  0
   35.3885   27.6277   40.6247 H   0  0  0  0  0  0  0  0  0  0  0  0
   36.4557   29.7103   42.5551 H   0  0  0  0  0  0  0  0  0  0  0  0
   36.2178   27.0184   42.1728 H   0  0  0  0  0  0  0  0  0  0  0  0
   38.3083   26.4877   43.9378 H   0  0  0  0  0  0  0  0  0  0  0  0
   38.9684   27.8826   43.6708 H   0  0  0  0  0  0  0  0  0  0  0  0
   36.6288   29.0238   44.7462 H   0  0  0  0  0  0  0  0  0  0  0  0
   36.0860   27.6631   45.2480 H   0  0  0  0  0  0  0  0  0  0  0  0
   37.2926   32.2057   40.7532 H   0  0  0  0  0  0  0  0  0  0  0  0
   37.0425   34.5766   39.8843 H   0  0  0  0  0  0  0  0  0  0  0  0
   42.3189   34.7818   39.3524 H   0  0  0  0  0  0  0  0  0  0  0  0
   41.2033   36.1923   39.3940 H   0  0  0  0  0  0  0  0  0  0  0  0
   40.8350   37.4182   41.6630 H   0  0  0  0  0  0  0  0  0  0  0  0
   42.2898   37.7008   43.8684 H   0  0  0  0  0  0  0  0  0  0  0  0
   43.7790   34.3727   41.6155 H   0  0  0  0  0  0  0  0  0  0  0  0
  1  9  1  0
  1  5  1  0
  2  3  1  0
  2  1  1  0
  3  4  1  0
  4  5  1  0
  5  6  1  0
  6  7  1  0
  6  8  1  0
  7  8  1  0
 10 11  2  0
 10  9  1  0
 12 10  1  0
 13 12  2  0
 14 13  1  0
 15 14  2  0
 15 16  1  0
 16 17  2  0
 17 12  1  0
 18 16  1  0
 18 19  1  0
 19 23  1  0
 19 20  1  0
 20 21  2  0
 22 21  1  0
 23 22  2  0
  1 24  1  6
  2 25  1  0
  2 26  1  0
  3 27  1  0
  3 28  1  0
  4 29  1  0
  4 30  1  0
  5 31  1  1
  6 32  1  0
  7 33  1  0
  7 34  1  0
  8 35  1  0
  8 36  1  0
 13 37  1  0
 14 38  1  0
 18 39  1  0
 18 40  1  0
 20 41  1  0
 21 42  1  0
 23 43  1  0
M  ISO  8  24  13  25  13  26  13  27  13  28  13  29  13  30  13  31  13
M  ISO  8  32  13  33  13  34  13  35  13  36  13  37  14  38  14  39   8
M  ISO  4  40   8  41  14  42  14  43  14
M  END
>  <minimizedAffinity>  (1) 
-5.96659946

>  <minimizedRMSD>  (1) 
1.07959187

$$$$
