
     RDKit          3D

 43 46  0  0  1  0  0  0  0  0999 V2000
   37.7970   29.3640   41.2370 C   0  0  2  0  0  0  0  0  0  0  0  0
   37.1460   29.5430   39.6990 C   0  0  0  0  0  0  0  0  0  0  0  0
   35.7130   29.5790   39.7900 C   0  0  0  0  0  0  0  0  0  0  0  0
   35.4610   28.6650   40.9180 C   0  0  0  0  0  0  0  0  0  0  0  0
   36.6450   28.9000   41.8720 C   0  0  1  0  0  0  0  0  0  0  0  0
   36.8660   27.7260   42.7760 C   0  0  0  0  0  0  0  0  0  0  0  0
   38.0640   27.6780   43.6120 C   0  0  0  0  0  0  0  0  0  0  0  0
   36.7900   27.9930   44.3070 C   0  0  0  0  0  0  0  0  0  0  0  0
   38.0970   30.5960   41.5440 O   0  0  0  0  0  0  0  0  0  0  0  0
   39.4230   31.1050   41.8060 C   0  0  0  0  0  0  0  0  0  0  0  0
   39.9510   30.8020   42.8310 O   0  0  0  0  0  0  0  0  0  0  0  0
   39.9660   31.9560   40.7240 C   0  0  0  0  0  0  0  0  0  0  0  0
   40.4310   31.2340   39.5630 C   0  0  0  0  0  0  0  0  0  0  0  0
   40.9810   31.9720   38.5150 C   0  0  0  0  0  0  0  0  0  0  0  0
   41.0360   33.3310   38.6680 N   0  0  0  0  0  0  0  0  0  0  0  0
   40.5880   33.9670   39.7740 C   0  0  0  0  0  0  0  0  0  0  0  0
   40.0730   33.2660   40.7550 N   0  0  0  0  0  0  0  0  0  0  0  0
   40.7230   35.4490   39.7940 C   0  0  0  0  0  0  0  0  0  0  0  0
   41.4920   35.8430   40.9470 C   0  0  0  0  0  0  0  0  0  0  0  0
   41.4320   36.7920   41.8970 C   0  0  0  0  0  0  0  0  0  0  0  0
   42.3660   36.8850   42.8860 C   0  0  0  0  0  0  0  0  0  0  0  0
   43.4040   35.9150   42.8490 C   0  0  0  0  0  0  0  0  0  0  0  0
   42.9570   34.9030   41.3480 S   0  0  0  0  0  0  0  0  0  0  0  0
   38.6705   28.7261   41.4369 H   0  0  0  0  0  0  0  0  0  0  0  0
   37.4528   28.6948   39.0694 H   0  0  0  0  0  0  0  0  0  0  0  0
   37.5100   30.4799   39.2521 H   0  0  0  0  0  0  0  0  0  0  0  0
   35.3507   30.5944   40.0083 H   0  0  0  0  0  0  0  0  0  0  0  0
   35.1997   29.2923   38.8603 H   0  0  0  0  0  0  0  0  0  0  0  0
   34.5088   28.9091   41.4117 H   0  0  0  0  0  0  0  0  0  0  0  0
   35.3820   27.6155   40.5980 H   0  0  0  0  0  0  0  0  0  0  0  0
   36.3622   29.7376   42.5266 H   0  0  0  0  0  0  0  0  0  0  0  0
   36.3981   27.0335   42.0609 H   0  0  0  0  0  0  0  0  0  0  0  0
   38.5543   26.7108   43.7968 H   0  0  0  0  0  0  0  0  0  0  0  0
   39.0409   28.1811   43.5612 H   0  0  0  0  0  0  0  0  0  0  0  0
   36.5986   29.0075   44.6867 H   0  0  0  0  0  0  0  0  0  0  0  0
   36.2273   27.5794   45.1569 H   0  0  0  0  0  0  0  0  0  0  0  0
   40.3540   30.1381   39.5070 H   0  0  0  0  0  0  0  0  0  0  0  0
   41.3549   31.4823   37.6037 H   0  0  0  0  0  0  0  0  0  0  0  0
   41.2348   35.7835   38.8795 H   0  0  0  0  0  0  0  0  0  0  0  0
   39.7249   35.9087   39.8429 H   0  0  0  0  0  0  0  0  0  0  0  0
   40.6040   37.5158   41.8759 H   0  0  0  0  0  0  0  0  0  0  0  0
   42.3190   37.6618   43.6634 H   0  0  0  0  0  0  0  0  0  0  0  0
   44.2564   35.7922   43.5334 H   0  0  0  0  0  0  0  0  0  0  0  0
  1  9  1  0
  1  5  1  0
  2  3  1  0
  2  1  1  0
  3  4  1  0
  4  5  1  0
  5  6  1  0
  6  7  1  0
  6  8  1  0
  7  8  1  0
  9 10  1  0
 10 11  2  0
 12 17  1  0
 12 10  1  0
 13 12  2  0
 14 15  2  0
 14 13  1  0
 15 16  1  0
 16 18  1  0
 16 17  2  0
 18 19  1  0
 19 23  1  0
 19 20  2  0
 20 21  1  0
 22 21  2  0
 23 22  1  0
  1 24  1  6
  2 25  1  0
  2 26  1  0
  3 27  1  0
  3 28  1  0
  4 29  1  0
  4 30  1  0
  5 31  1  1
  6 32  1  0
  7 33  1  0
  7 34  1  0
  8 35  1  0
  8 36  1  0
 13 37  1  0
 14 38  1  0
 18 39  1  0
 18 40  1  0
 20 41  1  0
 21 42  1  0
 22 43  1  0
M  ISO  8  24  13  25  13  26  13  27  13  28  13  29  13  30  13  31  13
M  ISO  8  32  13  33  13  34  13  35  13  36  13  37  14  38  14  39   8
M  ISO  4  40   8  41  14  42  14  43  14
M  END
>  <minimizedAffinity>  (1) 
-5.91074705

>  <minimizedRMSD>  (1) 
2.49253178

$$$$
