
     RDKit          3D

 46 49  0  0  1  0  0  0  0  0999 V2000
   37.9830   29.5990   40.8940 O   0  0  0  0  0  0  0  0  0  0  0  0
   38.2330   28.3240   41.0410 C   0  0  2  0  0  0  0  0  0  0  0  0
   38.3960   27.8190   39.4480 C   0  0  0  0  0  0  0  0  0  0  0  0
   37.1570   27.2460   39.0000 C   0  0  0  0  0  0  0  0  0  0  0  0
   36.6540   26.6190   40.2370 C   0  0  0  0  0  0  0  0  0  0  0  0
   37.0990   27.5760   41.3580 C   0  0  1  0  0  0  0  0  0  0  0  0
   37.1730   26.8750   42.6800 C   0  0  0  0  0  0  0  0  0  0  0  0
   37.7840   27.5560   43.8210 C   0  0  0  0  0  0  0  0  0  0  0  0
   36.3060   27.4510   43.8340 C   0  0  0  0  0  0  0  0  0  0  0  0
   38.6410   30.6720   41.6040 C   0  0  0  0  0  0  0  0  0  0  0  0
   39.2430   30.4060   42.6000 O   0  0  0  0  0  0  0  0  0  0  0  0
   38.4790   31.9980   40.9730 C   0  0  0  0  0  0  0  0  0  0  0  0
   37.2880   32.1410   40.1670 C   0  0  0  0  0  0  0  0  0  0  0  0
   37.0850   33.3560   39.5160 C   0  0  0  0  0  0  0  0  0  0  0  0
   38.0350   34.3300   39.6900 N   0  0  0  0  0  0  0  0  0  0  0  0
   39.1340   34.1570   40.4520 C   0  0  0  0  0  0  0  0  0  0  0  0
   39.3270   32.9980   41.0730 N   0  0  0  0  0  0  0  0  0  0  0  0
   40.0800   35.2960   40.5590 C   0  0  0  0  0  0  0  0  0  0  0  0
   41.4540   34.8420   40.1450 C   0  0  0  0  0  0  0  0  0  0  0  0
   42.4690   34.6510   41.0510 C   0  0  0  0  0  0  0  0  0  0  0  0
   43.7060   34.2290   40.5710 C   0  0  0  0  0  0  0  0  0  0  0  0
   43.9000   34.0100   39.2290 C   0  0  0  0  0  0  0  0  0  0  0  0
   42.8590   34.2130   38.3570 C   0  0  0  0  0  0  0  0  0  0  0  0
   41.6310   34.6280   38.8030 C   0  0  0  0  0  0  0  0  0  0  0  0
   39.0377   28.2015   41.7809 H   0  0  0  0  0  0  0  0  0  0  0  0
   38.6522   28.6808   38.8142 H   0  0  0  0  0  0  0  0  0  0  0  0
   39.1947   27.0656   39.3812 H   0  0  0  0  0  0  0  0  0  0  0  0
   36.4666   28.0198   38.6331 H   0  0  0  0  0  0  0  0  0  0  0  0
   37.2665   26.5474   38.1574 H   0  0  0  0  0  0  0  0  0  0  0  0
   35.5577   26.5319   40.2116 H   0  0  0  0  0  0  0  0  0  0  0  0
   37.0406   25.5988   40.3778 H   0  0  0  0  0  0  0  0  0  0  0  0
   36.3108   28.3367   41.4583 H   0  0  0  0  0  0  0  0  0  0  0  0
   37.3153   25.8959   42.1993 H   0  0  0  0  0  0  0  0  0  0  0  0
   38.3726   26.9734   44.5450 H   0  0  0  0  0  0  0  0  0  0  0  0
   38.4820   28.4014   43.9108 H   0  0  0  0  0  0  0  0  0  0  0  0
   35.6831   28.3428   43.6706 H   0  0  0  0  0  0  0  0  0  0  0  0
   35.5460   27.0584   44.5255 H   0  0  0  0  0  0  0  0  0  0  0  0
   36.5652   31.3174   40.0706 H   0  0  0  0  0  0  0  0  0  0  0  0
   36.1985   33.5273   38.8877 H   0  0  0  0  0  0  0  0  0  0  0  0
   39.7486   36.1121   39.9001 H   0  0  0  0  0  0  0  0  0  0  0  0
   40.1082   35.6552   41.5983 H   0  0  0  0  0  0  0  0  0  0  0  0
   42.3090   34.8265   42.1251 H   0  0  0  0  0  0  0  0  0  0  0  0
   44.5368   34.0693   41.2741 H   0  0  0  0  0  0  0  0  0  0  0  0
   44.8795   33.6754   38.8566 H   0  0  0  0  0  0  0  0  0  0  0  0
   43.0131   34.0396   37.2817 H   0  0  0  0  0  0  0  0  0  0  0  0
   40.8028   34.7864   38.0966 H   0  0  0  0  0  0  0  0  0  0  0  0
  1  2  1  0
  1 10  1  0
  2  6  1  0
  3  2  1  0
  4  3  1  0
  4  5  1  0
  5  6  1  0
  6  7  1  0
  7  8  1  0
  7  9  1  0
  8  9  1  0
 10 11  2  0
 12 17  1  0
 12 10  1  0
 13 12  2  0
 14 15  2  0
 14 13  1  0
 15 16  1  0
 16 18  1  0
 16 17  2  0
 19 18  1  0
 19 20  2  0
 21 20  1  0
 22 21  2  0
 23 24  2  0
 23 22  1  0
 24 19  1  0
  2 25  1  1
  3 26  1  0
  3 27  1  0
  4 28  1  0
  4 29  1  0
  5 30  1  0
  5 31  1  0
  6 32  1  1
  7 33  1  0
  8 34  1  0
  8 35  1  0
  9 36  1  0
  9 37  1  0
 13 38  1  0
 14 39  1  0
 18 40  1  0
 18 41  1  0
 20 42  1  0
 21 43  1  0
 22 44  1  0
 23 45  1  0
 24 46  1  0
M  ISO  8  25  13  26  13  27  13  28  13  29  13  30  13  31  13  32  13
M  ISO  8  33  13  34  13  35  13  36  13  37  13  38  14  39  14  40   8
M  ISO  6  41   8  42  14  43  14  44  14  45  14  46  14
M  END
>  <minimizedAffinity>  (1) 
-5.66300011

>  <minimizedRMSD>  (1) 
1.94630992

$$$$
