
     RDKit          3D

 44 47  0  0  1  0  0  0  0  0999 V2000
   38.2450   28.4560   41.0050 C   0  0  2  0  0  0  0  0  0  0  0  0
   38.3590   28.0310   39.3820 C   0  0  0  0  0  0  0  0  0  0  0  0
   37.1080   27.4800   38.9450 C   0  0  0  0  0  0  0  0  0  0  0  0
   36.6380   26.7970   40.1630 C   0  0  0  0  0  0  0  0  0  0  0  0
   37.1190   27.6970   41.3140 C   0  0  1  0  0  0  0  0  0  0  0  0
   37.2160   26.9340   42.5980 C   0  0  0  0  0  0  0  0  0  0  0  0
   37.8150   27.5700   43.7680 C   0  0  0  0  0  0  0  0  0  0  0  0
   36.3360   27.4210   43.7820 C   0  0  0  0  0  0  0  0  0  0  0  0
   38.0050   29.7350   40.9190 O   0  0  0  0  0  0  0  0  0  0  0  0
   38.7020   30.7840   41.6160 C   0  0  0  0  0  0  0  0  0  0  0  0
   39.2990   30.4990   42.6060 O   0  0  0  0  0  0  0  0  0  0  0  0
   38.5810   32.1150   40.9810 C   0  0  0  0  0  0  0  0  0  0  0  0
   37.3620   32.3160   40.2310 C   0  0  0  0  0  0  0  0  0  0  0  0
   37.1950   33.5430   39.5840 C   0  0  0  0  0  0  0  0  0  0  0  0
   38.1960   34.4610   39.7090 N   0  0  0  0  0  0  0  0  0  0  0  0
   39.3200   34.2300   40.4230 C   0  0  0  0  0  0  0  0  0  0  0  0
   39.4750   33.0780   41.0300 N   0  0  0  0  0  0  0  0  0  0  0  0
   40.3380   35.3260   40.4690 C   0  0  0  0  0  0  0  0  0  0  0  0
   41.6120   34.8610   39.9110 C   0  0  0  0  0  0  0  0  0  0  0  0
   41.8370   34.7270   38.5590 C   0  0  0  0  0  0  0  0  0  0  0  0
   43.0890   34.2750   38.1510 C   0  0  0  0  0  0  0  0  0  0  0  0
   44.0360   33.9850   39.0850 N   0  0  0  0  0  0  0  0  0  0  0  0
   43.7860   34.1260   40.4020 C   0  0  0  0  0  0  0  0  0  0  0  0
   42.5790   34.5620   40.8180 N   0  0  0  0  0  0  0  0  0  0  0  0
   39.0638   28.2940   41.7215 H   0  0  0  0  0  0  0  0  0  0  0  0
   38.5956   28.9238   38.7845 H   0  0  0  0  0  0  0  0  0  0  0  0
   39.1552   27.2831   39.2529 H   0  0  0  0  0  0  0  0  0  0  0  0
   36.4090   28.2704   38.6339 H   0  0  0  0  0  0  0  0  0  0  0  0
   37.1934   26.8203   38.0690 H   0  0  0  0  0  0  0  0  0  0  0  0
   35.5411   26.7150   40.1649 H   0  0  0  0  0  0  0  0  0  0  0  0
   37.0234   25.7699   40.2438 H   0  0  0  0  0  0  0  0  0  0  0  0
   36.3416   28.4595   41.4697 H   0  0  0  0  0  0  0  0  0  0  0  0
   37.3826   25.9855   42.0664 H   0  0  0  0  0  0  0  0  0  0  0  0
   38.4247   26.9672   44.4571 H   0  0  0  0  0  0  0  0  0  0  0  0
   38.4894   28.4291   43.8991 H   0  0  0  0  0  0  0  0  0  0  0  0
   35.6862   28.3012   43.6681 H   0  0  0  0  0  0  0  0  0  0  0  0
   35.5907   26.9703   44.4539 H   0  0  0  0  0  0  0  0  0  0  0  0
   36.5934   31.5313   40.1717 H   0  0  0  0  0  0  0  0  0  0  0  0
   36.2909   33.7604   38.9963 H   0  0  0  0  0  0  0  0  0  0  0  0
   39.9757   36.1826   39.8817 H   0  0  0  0  0  0  0  0  0  0  0  0
   40.4940   35.6258   41.5158 H   0  0  0  0  0  0  0  0  0  0  0  0
   41.0535   34.9691   37.8258 H   0  0  0  0  0  0  0  0  0  0  0  0
   43.3116   34.1530   37.0807 H   0  0  0  0  0  0  0  0  0  0  0  0
   44.5669   33.8853   41.1383 H   0  0  0  0  0  0  0  0  0  0  0  0
  1  5  1  0
  2  1  1  0
  3  2  1  0
  3  4  1  0
  4  5  1  0
  5  6  1  0
  6  7  1  0
  6  8  1  0
  7  8  1  0
  9  1  1  0
  9 10  1  0
 10 11  2  0
 12 17  1  0
 12 10  1  0
 13 12  2  0
 14 15  2  0
 14 13  1  0
 15 16  1  0
 16 18  1  0
 16 17  2  0
 19 18  1  0
 19 24  1  0
 20 19  2  0
 21 20  1  0
 21 22  2  0
 22 23  1  0
 23 24  2  0
  1 25  1  1
  2 26  1  0
  2 27  1  0
  3 28  1  0
  3 29  1  0
  4 30  1  0
  4 31  1  0
  5 32  1  1
  6 33  1  0
  7 34  1  0
  7 35  1  0
  8 36  1  0
  8 37  1  0
 13 38  1  0
 14 39  1  0
 18 40  1  0
 18 41  1  0
 20 42  1  0
 21 43  1  0
 23 44  1  0
M  ISO  8  25  13  26  13  27  13  28  13  29  13  30  13  31  13  32  13
M  ISO  8  33  13  34  13  35  13  36  13  37  13  38  14  39  14  40   8
M  ISO  4  41   8  42  14  43  14  44  14
M  END
>  <minimizedAffinity>  (1) 
-5.62447929

>  <minimizedRMSD>  (1) 
1.81018567

$$$$
