
     RDKit          3D

 43 46  0  0  1  0  0  0  0  0999 V2000
   38.6450   27.5800   41.8060 C   0  0  2  0  0  0  0  0  0  0  0  0
   39.0290   26.4150   40.6600 C   0  0  0  0  0  0  0  0  0  0  0  0
   37.8570   25.6460   40.3490 C   0  0  0  0  0  0  0  0  0  0  0  0
   37.1610   25.6290   41.6490 C   0  0  0  0  0  0  0  0  0  0  0  0
   37.4580   27.0090   42.2600 C   0  0  1  0  0  0  0  0  0  0  0  0
   37.3060   26.9920   43.7480 C   0  0  0  0  0  0  0  0  0  0  0  0
   37.2230   28.2580   44.4760 C   0  0  0  0  0  0  0  0  0  0  0  0
   35.9560   27.5030   44.3260 C   0  0  0  0  0  0  0  0  0  0  0  0
   38.4620   28.6330   41.0580 O   0  0  0  0  0  0  0  0  0  0  0  0
   38.6480   30.0050   41.4630 C   0  0  0  0  0  0  0  0  0  0  0  0
   39.1630   30.2160   42.5190 O   0  0  0  0  0  0  0  0  0  0  0  0
   38.1680   30.9970   40.4780 C   0  0  0  0  0  0  0  0  0  0  0  0
   37.7010   30.4270   39.2340 C   0  0  0  0  0  0  0  0  0  0  0  0
   37.2670   31.3090   38.2410 C   0  0  0  0  0  0  0  0  0  0  0  0
   37.3140   32.6450   38.5190 N   0  0  0  0  0  0  0  0  0  0  0  0
   37.7590   33.1320   39.7000 C   0  0  0  0  0  0  0  0  0  0  0  0
   38.1700   32.3000   40.6400 N   0  0  0  0  0  0  0  0  0  0  0  0
   37.7640   34.6190   39.8820 C   0  0  0  0  0  0  0  0  0  0  0  0
   39.1380   35.1100   40.0810 C   0  0  0  0  0  0  0  0  0  0  0  0
   39.3900   36.4710   40.0680 C   0  0  0  0  0  0  0  0  0  0  0  0
   40.7470   36.6650   40.2770 C   0  0  0  0  0  0  0  0  0  0  0  0
   41.2640   35.3760   40.4110 C   0  0  0  0  0  0  0  0  0  0  0  0
   40.2810   34.5120   40.2890 O   0  0  0  0  0  0  0  0  0  0  0  0
   39.3226   27.8433   42.6316 H   0  0  0  0  0  0  0  0  0  0  0  0
   39.3985   26.9058   39.7475 H   0  0  0  0  0  0  0  0  0  0  0  0
   39.8088   25.7501   41.0597 H   0  0  0  0  0  0  0  0  0  0  0  0
   37.2490   26.1362   39.5744 H   0  0  0  0  0  0  0  0  0  0  0  0
   38.0719   24.6465   39.9429 H   0  0  0  0  0  0  0  0  0  0  0  0
   36.0788   25.4899   41.5093 H   0  0  0  0  0  0  0  0  0  0  0  0
   37.4973   24.8038   42.2939 H   0  0  0  0  0  0  0  0  0  0  0  0
   36.6876   27.6985   41.8844 H   0  0  0  0  0  0  0  0  0  0  0  0
   37.9241   26.0870   43.8421 H   0  0  0  0  0  0  0  0  0  0  0  0
   37.6875   28.3402   45.4697 H   0  0  0  0  0  0  0  0  0  0  0  0
   37.5209   29.2890   44.2345 H   0  0  0  0  0  0  0  0  0  0  0  0
   35.1658   27.8694   43.6542 H   0  0  0  0  0  0  0  0  0  0  0  0
   35.1842   27.1083   45.0032 H   0  0  0  0  0  0  0  0  0  0  0  0
   37.6879   29.3386   39.0751 H   0  0  0  0  0  0  0  0  0  0  0  0
   36.9010   30.9407   37.2712 H   0  0  0  0  0  0  0  0  0  0  0  0
   37.3357   35.0946   38.9873 H   0  0  0  0  0  0  0  0  0  0  0  0
   37.1645   34.8707   40.7692 H   0  0  0  0  0  0  0  0  0  0  0  0
   38.6418   37.2632   39.9176 H   0  0  0  0  0  0  0  0  0  0  0  0
   41.2924   37.6190   40.3260 H   0  0  0  0  0  0  0  0  0  0  0  0
   42.3199   35.1244   40.5893 H   0  0  0  0  0  0  0  0  0  0  0  0
  1  5  1  0
  2  1  1  0
  3  2  1  0
  3  4  1  0
  4  5  1  0
  5  6  1  0
  6  8  1  0
  6  7  1  0
  8  7  1  0
  9 10  1  0
  9  1  1  0
 10 11  2  0
 12 17  1  0
 12 10  1  0
 13 12  2  0
 14 15  2  0
 14 13  1  0
 15 16  1  0
 16 18  1  0
 16 17  2  0
 18 19  1  0
 19 23  1  0
 20 19  2  0
 20 21  1  0
 21 22  2  0
 23 22  1  0
  1 24  1  1
  2 25  1  0
  2 26  1  0
  3 27  1  0
  3 28  1  0
  4 29  1  0
  4 30  1  0
  5 31  1  6
  6 32  1  0
  7 33  1  0
  7 34  1  0
  8 35  1  0
  8 36  1  0
 13 37  1  0
 14 38  1  0
 18 39  1  0
 18 40  1  0
 20 41  1  0
 21 42  1  0
 22 43  1  0
M  ISO  8  24  13  25  13  26  13  27  13  28  13  29  13  30  13  31  13
M  ISO  8  32  13  33  13  34  13  35  13  36  13  37  14  38  14  39   8
M  ISO  4  40   8  41  14  42  14  43  14
M  END
>  <minimizedAffinity>  (1) 
-5.41467714

>  <minimizedRMSD>  (1) 
2.81856012

$$$$
