
     RDKit          3D

 37 39  0  0  1  0  0  0  0  0999 V2000
   37.9690   29.2890   41.1340 C   0  0  2  0  0  0  0  0  0  0  0  0
   37.2490   29.4760   39.6270 C   0  0  0  0  0  0  0  0  0  0  0  0
   35.8280   29.6000   39.7910 C   0  0  0  0  0  0  0  0  0  0  0  0
   35.5820   28.7320   40.9570 C   0  0  0  0  0  0  0  0  0  0  0  0
   36.8280   28.9120   41.8380 C   0  0  1  0  0  0  0  0  0  0  0  0
   37.0240   27.7430   42.7550 C   0  0  0  0  0  0  0  0  0  0  0  0
   38.2300   27.6690   43.5770 C   0  0  0  0  0  0  0  0  0  0  0  0
   36.9760   28.0290   44.2830 C   0  0  0  0  0  0  0  0  0  0  0  0
   38.3650   30.5050   41.3890 O   0  0  0  0  0  0  0  0  0  0  0  0
   39.4980   31.1750   40.8030 C   0  0  0  0  0  0  0  0  0  0  0  0
   40.4660   30.5250   40.5550 O   0  0  0  0  0  0  0  0  0  0  0  0
   39.2920   32.6210   40.5750 C   0  0  0  0  0  0  0  0  0  0  0  0
   37.9660   32.9780   40.1240 C   0  0  0  0  0  0  0  0  0  0  0  0
   37.7100   34.3250   39.8650 C   0  0  0  0  0  0  0  0  0  0  0  0
   38.7360   35.2070   40.0590 N   0  0  0  0  0  0  0  0  0  0  0  0
   39.9570   34.8370   40.4800 C   0  0  0  0  0  0  0  0  0  0  0  0
   40.1980   33.5610   40.7240 N   0  0  0  0  0  0  0  0  0  0  0  0
   40.9820   35.9010   40.6500 C   0  0  0  0  0  0  0  0  0  0  0  0
   40.9230   36.3320   41.9700 O   0  0  0  0  0  0  0  0  0  0  0  0
   38.8093   28.6009   41.3082 H   0  0  0  0  0  0  0  0  0  0  0  0
   37.4714   28.5984   39.0023 H   0  0  0  0  0  0  0  0  0  0  0  0
   37.6436   30.3801   39.1402 H   0  0  0  0  0  0  0  0  0  0  0  0
   35.5380   30.6407   39.9981 H   0  0  0  0  0  0  0  0  0  0  0  0
   35.2504   29.3202   38.8976 H   0  0  0  0  0  0  0  0  0  0  0  0
   34.6763   29.0496   41.4944 H   0  0  0  0  0  0  0  0  0  0  0  0
   35.4191   27.6824   40.6710 H   0  0  0  0  0  0  0  0  0  0  0  0
   36.6351   29.7803   42.4852 H   0  0  0  0  0  0  0  0  0  0  0  0
   36.5256   27.0571   42.0542 H   0  0  0  0  0  0  0  0  0  0  0  0
   38.6939   26.6899   43.7671 H   0  0  0  0  0  0  0  0  0  0  0  0
   39.2206   28.1424   43.5086 H   0  0  0  0  0  0  0  0  0  0  0  0
   36.8196   29.0529   44.6534 H   0  0  0  0  0  0  0  0  0  0  0  0
   36.4123   27.6417   45.1445 H   0  0  0  0  0  0  0  0  0  0  0  0
   37.1858   32.2143   39.9896 H   0  0  0  0  0  0  0  0  0  0  0  0
   36.7223   34.6634   39.5187 H   0  0  0  0  0  0  0  0  0  0  0  0
   41.9817   35.4976   40.4311 H   0  0  0  0  0  0  0  0  0  0  0  0
   40.7903   36.7368   39.9610 H   0  0  0  0  0  0  0  0  0  0  0  0
   41.0292   35.5560   42.5756 H   0  0  0  0  0  0  0  0  0  0  0  0
  1  9  1  0
  1  5  1  0
  2  3  1  0
  2  1  1  0
  3  4  1  0
  4  5  1  0
  5  6  1  0
  6  7  1  0
  6  8  1  0
  7  8  1  0
 10  9  1  0
 11 10  2  0
 12 17  1  0
 12 10  1  0
 13 12  2  0
 14 15  2  0
 14 13  1  0
 15 16  1  0
 16 18  1  0
 16 17  2  0
 18 19  1  0
  1 20  1  6
  2 21  1  0
  2 22  1  0
  3 23  1  0
  3 24  1  0
  4 25  1  0
  4 26  1  0
  5 27  1  1
  6 28  1  0
  7 29  1  0
  7 30  1  0
  8 31  1  0
  8 32  1  0
 13 33  1  0
 14 34  1  0
 18 35  1  0
 18 36  1  0
 19 37  1  0
M  ISO  8  20  13  21  13  22  13  23  13  24  13  25  13  26  13  27  13
M  ISO  8  28  13  29  13  30  13  31  13  32  13  33  14  34  14  35   8
M  ISO  2  36   8  37   3
M  END
>  <minimizedAffinity>  (1) 
-5.23023844

>  <minimizedRMSD>  (1) 
0.0546194352

$$$$
