
     RDKit          3D

 48 51  0  0  1  0  0  0  0  0999 V2000
   38.6670   27.5900   41.0820 C   0  0  2  0  0  0  0  0  0  0  0  0
   38.9020   26.7000   39.6770 C   0  0  0  0  0  0  0  0  0  0  0  0
   37.6460   26.1460   39.2500 C   0  0  0  0  0  0  0  0  0  0  0  0
   36.9840   25.8850   40.5410 C   0  0  0  0  0  0  0  0  0  0  0  0
   37.4360   27.0440   41.4440 C   0  0  1  0  0  0  0  0  0  0  0  0
   37.3200   26.6870   42.8940 C   0  0  0  0  0  0  0  0  0  0  0  0
   37.7510   27.6480   43.9090 C   0  0  0  0  0  0  0  0  0  0  0  0
   36.2830   27.4810   43.7360 C   0  0  0  0  0  0  0  0  0  0  0  0
   38.5780   28.8060   40.6140 O   0  0  0  0  0  0  0  0  0  0  0  0
   39.0380   30.0040   41.2760 C   0  0  0  0  0  0  0  0  0  0  0  0
   39.7650   29.8850   42.2110 O   0  0  0  0  0  0  0  0  0  0  0  0
   38.5320   31.2570   40.6740 C   0  0  0  0  0  0  0  0  0  0  0  0
   37.4890   31.0760   39.6870 C   0  0  0  0  0  0  0  0  0  0  0  0
   36.9830   32.2170   39.0630 C   0  0  0  0  0  0  0  0  0  0  0  0
   37.5120   33.4140   39.4340 N   0  0  0  0  0  0  0  0  0  0  0  0
   38.4870   33.5450   40.3610 C   0  0  0  0  0  0  0  0  0  0  0  0
   38.9670   32.4650   40.9530 N   0  0  0  0  0  0  0  0  0  0  0  0
   38.9690   34.9260   40.6430 C   0  0  0  0  0  0  0  0  0  0  0  0
   40.3770   34.9650   40.8930 N   0  0  0  0  0  0  0  0  0  0  0  0
   41.2000   35.0560   39.7230 C   0  0  0  0  0  0  0  0  0  0  0  0
   40.8720   36.4280   39.1850 C   0  0  0  0  0  0  0  0  0  0  0  0
   40.7220   37.2380   40.4600 C   0  0  0  0  0  0  0  0  0  0  0  0
   40.6660   36.2100   41.5790 C   0  0  0  0  0  0  0  0  0  0  0  0
   39.3877   27.5814   41.9130 H   0  0  0  0  0  0  0  0  0  0  0  0
   39.3013   27.3556   38.8891 H   0  0  0  0  0  0  0  0  0  0  0  0
   39.6166   25.8866   39.8712 H   0  0  0  0  0  0  0  0  0  0  0  0
   37.0752   26.8651   38.6442 H   0  0  0  0  0  0  0  0  0  0  0  0
   37.7433   25.2575   38.6089 H   0  0  0  0  0  0  0  0  0  0  0  0
   35.8902   25.8860   40.4247 H   0  0  0  0  0  0  0  0  0  0  0  0
   37.2491   24.9017   40.9568 H   0  0  0  0  0  0  0  0  0  0  0  0
   36.7313   27.8720   41.2772 H   0  0  0  0  0  0  0  0  0  0  0  0
   37.5422   25.6287   42.6926 H   0  0  0  0  0  0  0  0  0  0  0  0
   38.2312   27.2828   44.8288 H   0  0  0  0  0  0  0  0  0  0  0  0
   38.4205   28.5206   43.8884 H   0  0  0  0  0  0  0  0  0  0  0  0
   35.6825   28.2779   43.2729 H   0  0  0  0  0  0  0  0  0  0  0  0
   35.4317   27.2308   44.3862 H   0  0  0  0  0  0  0  0  0  0  0  0
   37.1086   30.0745   39.4376 H   0  0  0  0  0  0  0  0  0  0  0  0
   36.1901   32.1512   38.3034 H   0  0  0  0  0  0  0  0  0  0  0  0
   38.7453   35.5637   39.7751 H   0  0  0  0  0  0  0  0  0  0  0  0
   38.4549   35.2859   41.5464 H   0  0  0  0  0  0  0  0  0  0  0  0
   42.2661   34.9771   39.9821 H   0  0  0  0  0  0  0  0  0  0  0  0
   41.0147   34.2497   38.9981 H   0  0  0  0  0  0  0  0  0  0  0  0
   41.6876   36.8170   38.5577 H   0  0  0  0  0  0  0  0  0  0  0  0
   39.9829   36.4502   38.5377 H   0  0  0  0  0  0  0  0  0  0  0  0
   41.5833   37.9088   40.5948 H   0  0  0  0  0  0  0  0  0  0  0  0
   39.8252   37.8746   40.4404 H   0  0  0  0  0  0  0  0  0  0  0  0
   39.8696   36.4556   42.2969 H   0  0  0  0  0  0  0  0  0  0  0  0
   41.5970   36.1669   42.1632 H   0  0  0  0  0  0  0  0  0  0  0  0
  1  5  1  0
  2  1  1  0
  3  2  1  0
  3  4  1  0
  4  5  1  0
  5  6  1  0
  6  8  1  0
  6  7  1  0
  8  7  1  0
  9  1  1  0
  9 10  1  0
 10 11  2  0
 12 17  1  0
 12 10  1  0
 13 12  2  0
 14 15  2  0
 14 13  1  0
 15 16  1  0
 16 18  1  0
 16 17  2  0
 18 19  1  0
 19 23  1  0
 20 19  1  0
 21 20  1  0
 21 22  1  0
 22 23  1  0
  1 24  1  1
  2 25  1  0
  2 26  1  0
  3 27  1  0
  3 28  1  0
  4 29  1  0
  4 30  1  0
  5 31  1  1
  6 32  1  0
  7 33  1  0
  7 34  1  0
  8 35  1  0
  8 36  1  0
 13 37  1  0
 14 38  1  0
 18 39  1  0
 18 40  1  0
 20 41  1  0
 20 42  1  0
 21 43  1  0
 21 44  1  0
 22 45  1  0
 22 46  1  0
 23 47  1  0
 23 48  1  0
M  ISO  8  24  13  25  13  26  13  27  13  28  13  29  13  30  13  31  13
M  ISO  8  32  13  33  13  34  13  35  13  36  13  37  14  38  14  39   8
M  ISO  8  40   8  41  13  42  13  43  13  44  13  45  13  46  13  47  13
M  ISO  1  48  13
M  END
>  <minimizedAffinity>  (1) 
-5.14423847

>  <minimizedRMSD>  (1) 
2.22378087

$$$$
