
     RDKit          3D

 37 39  0  0  1  0  0  0  0  0999 V2000
   37.9250   29.1550   41.4000 C   0  0  2  0  0  0  0  0  0  0  0  0
   37.4810   29.2230   39.7820 C   0  0  0  0  0  0  0  0  0  0  0  0
   36.0490   29.2220   39.6800 C   0  0  0  0  0  0  0  0  0  0  0  0
   35.6690   28.3710   40.8220 C   0  0  0  0  0  0  0  0  0  0  0  0
   36.7080   28.7000   41.9070 C   0  0  1  0  0  0  0  0  0  0  0  0
   36.8320   27.5880   42.9050 C   0  0  0  0  0  0  0  0  0  0  0  0
   37.9980   27.5400   43.7840 C   0  0  0  0  0  0  0  0  0  0  0  0
   36.7250   27.9770   44.4060 C   0  0  0  0  0  0  0  0  0  0  0  0
   38.1570   30.4130   41.6660 O   0  0  0  0  0  0  0  0  0  0  0  0
   39.2390   31.2040   41.1300 C   0  0  0  0  0  0  0  0  0  0  0  0
   40.3210   30.7060   41.0640 O   0  0  0  0  0  0  0  0  0  0  0  0
   38.8450   32.5660   40.7150 C   0  0  0  0  0  0  0  0  0  0  0  0
   37.6150   32.6360   39.9590 C   0  0  0  0  0  0  0  0  0  0  0  0
   37.2000   33.8890   39.5120 C   0  0  0  0  0  0  0  0  0  0  0  0
   37.9890   34.9610   39.8260 N   0  0  0  0  0  0  0  0  0  0  0  0
   39.1250   34.8500   40.5330 C   0  0  0  0  0  0  0  0  0  0  0  0
   39.5270   33.6630   40.9610 N   0  0  0  0  0  0  0  0  0  0  0  0
   39.8910   36.1090   40.7850 C   0  0  0  0  0  0  0  0  0  0  0  0
   41.1320   36.2170   39.4390 S   0  0  0  0  0  0  0  0  0  0  0  0
   38.7765   28.5541   41.7519 H   0  0  0  0  0  0  0  0  0  0  0  0
   37.8805   30.1429   39.3302 H   0  0  0  0  0  0  0  0  0  0  0  0
   37.8877   28.3489   39.2524 H   0  0  0  0  0  0  0  0  0  0  0  0
   35.6389   30.2375   39.7827 H   0  0  0  0  0  0  0  0  0  0  0  0
   35.6705   28.8644   38.7111 H   0  0  0  0  0  0  0  0  0  0  0  0
   34.6539   28.6151   41.1684 H   0  0  0  0  0  0  0  0  0  0  0  0
   35.6578   27.3020   40.5627 H   0  0  0  0  0  0  0  0  0  0  0  0
   36.3226   29.5674   42.4630 H   0  0  0  0  0  0  0  0  0  0  0  0
   36.3471   26.8687   42.2287 H   0  0  0  0  0  0  0  0  0  0  0  0
   38.4260   26.5648   44.0594 H   0  0  0  0  0  0  0  0  0  0  0  0
   39.0033   27.9833   43.7299 H   0  0  0  0  0  0  0  0  0  0  0  0
   36.5806   29.0270   44.7003 H   0  0  0  0  0  0  0  0  0  0  0  0
   36.1135   27.6624   45.2645 H   0  0  0  0  0  0  0  0  0  0  0  0
   37.0269   31.7316   39.7440 H   0  0  0  0  0  0  0  0  0  0  0  0
   36.2747   34.0109   38.9298 H   0  0  0  0  0  0  0  0  0  0  0  0
   39.2183   36.9789   40.7564 H   0  0  0  0  0  0  0  0  0  0  0  0
   40.3684   36.1009   41.7760 H   0  0  0  0  0  0  0  0  0  0  0  0
   42.3854   36.3261   39.9812 H   0  0  0  0  0  0  0  0  0  0  0  0
  1  9  1  0
  1  5  1  0
  2  1  1  0
  3  2  1  0
  3  4  1  0
  4  5  1  0
  5  6  1  0
  6  7  1  0
  6  8  1  0
  7  8  1  0
 10  9  1  0
 11 10  2  0
 12 17  1  0
 12 10  1  0
 13 12  2  0
 14 15  2  0
 14 13  1  0
 15 16  1  0
 16 18  1  0
 16 17  2  0
 19 18  1  0
  1 20  1  6
  2 21  1  0
  2 22  1  0
  3 23  1  0
  3 24  1  0
  4 25  1  0
  4 26  1  0
  5 27  1  1
  6 28  1  0
  7 29  1  0
  7 30  1  0
  8 31  1  0
  8 32  1  0
 13 33  1  0
 14 34  1  0
 18 35  1  0
 18 36  1  0
 19 37  1  0
M  ISO  8  20  13  21  13  22  13  23  13  24  13  25  13  26  13  27  13
M  ISO  8  28  13  29  13  30  13  31  13  32  13  33  14  34  14  35   8
M  ISO  2  36   8  37  11
M  END
>  <minimizedAffinity>  (1) 
-4.80099344

>  <minimizedRMSD>  (1) 
0.599798024

$$$$
