
     RDKit          3D

 22 22  0  0  0  0  0  0  0  0999 V2000
   38.4160   28.6970   43.3100 C   0  0  0  0  0  0  0  0  0  0  0  0
   38.9280   27.3910   43.1550 C   0  0  0  0  0  0  0  0  0  0  0  0
   38.2150   26.4920   42.3640 C   0  0  0  0  0  0  0  0  0  0  0  0
   37.0640   26.9270   41.7850 N   0  0  0  0  0  0  0  0  0  0  0  0
   36.5920   28.1800   41.9460 C   0  0  0  0  0  0  0  0  0  0  0  0
   37.2610   29.0590   42.7010 N   0  0  0  0  0  0  0  0  0  0  0  0
   38.6220   25.0880   42.1060 C   0  0  0  0  0  0  0  0  0  0  0  0
   37.3240   24.2820   42.0910 C   0  0  0  0  0  0  0  0  0  0  0  0
   39.5960   24.5920   43.1380 C   0  0  0  0  0  0  0  0  0  0  0  0
   39.2230   24.9280   40.7270 C   0  0  0  0  0  0  0  0  0  0  0  0
   38.9585   29.4262   43.9296 H   0  0  0  0  0  0  0  0  0  0  0  0
   39.8655   27.0905   43.6458 H   0  0  0  0  0  0  0  0  0  0  0  0
   35.6544   28.4802   41.4553 H   0  0  0  0  0  0  0  0  0  0  0  0
   37.0039   24.0832   43.1244 H   0  0  0  0  0  0  0  0  0  0  0  0
   36.5430   24.8543   41.5689 H   0  0  0  0  0  0  0  0  0  0  0  0
   37.4906   23.3283   41.5689 H   0  0  0  0  0  0  0  0  0  0  0  0
   39.1991   24.7941   44.1438 H   0  0  0  0  0  0  0  0  0  0  0  0
   39.7432   23.5091   43.0127 H   0  0  0  0  0  0  0  0  0  0  0  0
   40.5584   25.1098   43.0127 H   0  0  0  0  0  0  0  0  0  0  0  0
   40.2822   24.6460   40.8191 H   0  0  0  0  0  0  0  0  0  0  0  0
   38.6808   24.1429   40.1796 H   0  0  0  0  0  0  0  0  0  0  0  0
   39.1429   25.8787   40.1796 H   0  0  0  0  0  0  0  0  0  0  0  0
  2  1  2  0
  3  2  1  0
  4  5  1  0
  4  3  2  0
  5  6  2  0
  6  1  1  0
  7  3  1  0
  7  9  1  0
  8  7  1  0
 10  7  1  0
  1 11  1  0
  2 12  1  0
  5 13  1  0
  8 14  1  0
  8 15  1  0
  8 16  1  0
  9 17  1  0
  9 18  1  0
  9 19  1  0
 10 20  1  0
 10 21  1  0
 10 22  1  0
M  ISO  8  11  14  12  14  13  14  14   8  15   8  16   8  17   8  18   8
M  ISO  4  19   8  20   8  21   8  22   8
M  END
>  <minimizedAffinity>  (1) 
-3.36116076

>  <minimizedRMSD>  (1) 
2.54153419

$$$$
