
     RDKit          3D

 36 38  0  0  0  0  0  0  0  0999 V2000
   38.3990   27.6510   42.6460 C   0  0  0  0  0  0  0  0  0  0  0  0
   36.8420   24.3500   41.5240 C   0  0  0  0  0  0  0  0  0  0  0  0
   37.4970   25.2720   42.3540 C   0  0  0  0  0  0  0  0  0  0  0  0
   37.7260   26.5550   41.8830 C   0  0  0  0  0  0  0  0  0  0  0  0
   37.2900   26.8410   40.6160 N   0  0  0  0  0  0  0  0  0  0  0  0
   36.6630   25.9430   39.8340 C   0  0  0  0  0  0  0  0  0  0  0  0
   36.4420   24.7120   40.2840 N   0  0  0  0  0  0  0  0  0  0  0  0
   39.1680   26.9390   43.7640 C   0  0  0  0  0  0  0  0  0  0  0  0
   37.3940   28.6160   43.1900 C   0  0  0  0  0  0  0  0  0  0  0  0
   39.4330   28.3300   41.8060 C   0  0  0  0  0  0  0  0  0  0  0  0
   39.2950   29.7730   41.6340 C   0  0  0  0  0  0  0  0  0  0  0  0
   40.0600   30.6460   42.4200 C   0  0  0  0  0  0  0  0  0  0  0  0
   39.7900   31.9280   42.1490 N   0  0  0  0  0  0  0  0  0  0  0  0
   38.8410   31.9660   41.1810 C   0  0  0  0  0  0  0  0  0  0  0  0
   38.1530   32.9430   40.4720 C   0  0  0  0  0  0  0  0  0  0  0  0
   37.2180   32.6150   39.5060 C   0  0  0  0  0  0  0  0  0  0  0  0
   36.9510   31.2730   39.2260 C   0  0  0  0  0  0  0  0  0  0  0  0
   37.6240   30.3030   39.9180 C   0  0  0  0  0  0  0  0  0  0  0  0
   38.5470   30.6410   40.8740 C   0  0  0  0  0  0  0  0  0  0  0  0
   36.6529   23.3278   41.8836 H   0  0  0  0  0  0  0  0  0  0  0  0
   37.8238   24.9810   43.3632 H   0  0  0  0  0  0  0  0  0  0  0  0
   36.3338   26.2274   38.8237 H   0  0  0  0  0  0  0  0  0  0  0  0
   38.7968   27.2827   44.7408 H   0  0  0  0  0  0  0  0  0  0  0  0
   39.0194   25.8526   43.6769 H   0  0  0  0  0  0  0  0  0  0  0  0
   40.2398   27.1706   43.6769 H   0  0  0  0  0  0  0  0  0  0  0  0
   37.4197   28.5913   44.2894 H   0  0  0  0  0  0  0  0  0  0  0  0
   37.6337   29.6310   42.8403 H   0  0  0  0  0  0  0  0  0  0  0  0
   36.3895   28.3353   42.8403 H   0  0  0  0  0  0  0  0  0  0  0  0
   40.4135   28.1418   42.2678 H   0  0  0  0  0  0  0  0  0  0  0  0
   39.3102   27.9062   40.7984 H   0  0  0  0  0  0  0  0  0  0  0  0
   40.7943   30.3164   43.1698 H   0  0  0  0  0  0  0  0  0  0  0  0
   40.2275   32.7452   42.5981 H   0  0  0  0  0  0  0  0  0  0  0  0
   38.3565   34.0031   40.6837 H   0  0  0  0  0  0  0  0  0  0  0  0
   36.6867   33.4087   38.9604 H   0  0  0  0  0  0  0  0  0  0  0  0
   36.2103   30.9996   38.4601 H   0  0  0  0  0  0  0  0  0  0  0  0
   37.4227   29.2427   39.7054 H   0  0  0  0  0  0  0  0  0  0  0  0
  1  9  1  0
  1  8  1  0
  2  3  2  0
  4  3  1  0
  4  1  1  0
  5  4  2  0
  6  7  2  0
  6  5  1  0
  7  2  1  0
 10  1  1  0
 11 10  1  0
 11 12  2  0
 13 12  1  0
 14 13  1  0
 15 14  2  0
 16 15  1  0
 17 16  2  0
 17 18  1  0
 18 19  2  0
 19 14  1  0
 19 11  1  0
  2 20  1  0
  3 21  1  0
  6 22  1  0
  8 23  1  0
  8 24  1  0
  8 25  1  0
  9 26  1  0
  9 27  1  0
  9 28  1  0
 10 29  1  0
 10 30  1  0
 12 31  1  0
 13 32  1  0
 15 33  1  0
 16 34  1  0
 17 35  1  0
 18 36  1  0
M  ISO  8  20  14  21  14  22  14  23   8  24   8  25   8  26   8  27   8
M  ISO  8  28   8  29   8  30   8  31  14  32   9  33  14  34  14  35  14
M  ISO  1  36  14
M  END
>  <minimizedAffinity>  (1) 
-5.23678684

>  <minimizedRMSD>  (1) 
7.12057257

$$$$
