
     RDKit          3D

 19 19  0  0  0  0  0  0  0  0999 V2000
   37.4140   29.6930   42.1120 C   0  0  0  0  0  0  0  0  0  0  0  0
   36.5040   28.6200   41.9480 C   0  0  0  0  0  0  0  0  0  0  0  0
   35.5690   28.7200   40.9180 C   0  0  0  0  0  0  0  0  0  0  0  0
   35.5800   29.8330   40.1310 N   0  0  0  0  0  0  0  0  0  0  0  0
   36.4610   30.8320   40.3180 C   0  0  0  0  0  0  0  0  0  0  0  0
   37.3800   30.7640   41.3080 N   0  0  0  0  0  0  0  0  0  0  0  0
   36.5890   27.4590   42.8680 C   0  0  0  0  0  0  0  0  0  0  0  0
   37.1030   27.9310   44.2360 C   0  0  0  0  0  0  0  0  0  0  0  0
   37.4700   26.3920   42.2690 C   0  0  0  0  0  0  0  0  0  0  0  0
   38.1636   29.6459   42.9156 H   0  0  0  0  0  0  0  0  0  0  0  0
   34.8375   27.9170   40.7442 H   0  0  0  0  0  0  0  0  0  0  0  0
   36.4338   31.7127   39.6595 H   0  0  0  0  0  0  0  0  0  0  0  0
   35.5924   27.0170   43.0143 H   0  0  0  0  0  0  0  0  0  0  0  0
   36.5453   27.4188   45.0339 H   0  0  0  0  0  0  0  0  0  0  0  0
   38.1734   27.6946   44.3270 H   0  0  0  0  0  0  0  0  0  0  0  0
   36.9585   29.0177   44.3270 H   0  0  0  0  0  0  0  0  0  0  0  0
   37.9466   25.8148   43.0751 H   0  0  0  0  0  0  0  0  0  0  0  0
   36.8605   25.7195   41.6475 H   0  0  0  0  0  0  0  0  0  0  0  0
   38.2457   26.8632   41.6475 H   0  0  0  0  0  0  0  0  0  0  0  0
  2  1  2  0
  2  7  1  0
  3  2  1  0
  4  5  1  0
  4  3  2  0
  5  6  2  0
  6  1  1  0
  7  8  1  0
  9  7  1  0
  1 10  1  0
  3 11  1  0
  5 12  1  0
  7 13  1  0
  8 14  1  0
  8 15  1  0
  8 16  1  0
  9 17  1  0
  9 18  1  0
  9 19  1  0
M  ISO  8  10  14  11  14  12  14  13   8  14   8  15   8  16   8  17   8
M  ISO  2  18   8  19   8
M  END
>  <minimizedAffinity>  (1) 
-3.43973231

>  <minimizedRMSD>  (1) 
2.23283911

$$$$
