
     RDKit          3D

 38 40  0  0  0  0  0  0  0  0999 V2000
   38.0340   25.2080   41.4610 C   0  0  0  0  0  0  0  0  0  0  0  0
   38.5930   28.5250   43.2300 C   0  0  0  0  0  0  0  0  0  0  0  0
   38.8940   27.4210   42.3990 C   0  0  0  0  0  0  0  0  0  0  0  0
   37.9400   26.4300   42.2810 C   0  0  0  0  0  0  0  0  0  0  0  0
   36.7570   26.5690   42.9720 N   0  0  0  0  0  0  0  0  0  0  0  0
   36.5090   27.6450   43.7600 C   0  0  0  0  0  0  0  0  0  0  0  0
   37.4180   28.6090   43.8850 N   0  0  0  0  0  0  0  0  0  0  0  0
   36.6930   24.5040   41.5510 C   0  0  0  0  0  0  0  0  0  0  0  0
   39.1450   24.3070   41.9930 C   0  0  0  0  0  0  0  0  0  0  0  0
   38.3220   25.4750   40.0130 C   0  0  0  0  0  0  0  0  0  0  0  0
   37.1580   25.4800   39.1230 C   0  0  0  0  0  0  0  0  0  0  0  0
   36.5950   24.3550   38.5570 C   0  0  0  0  0  0  0  0  0  0  0  0
   35.4600   24.2810   37.7800 C   0  0  0  0  0  0  0  0  0  0  0  0
   34.8190   25.4840   37.5460 C   0  0  0  0  0  0  0  0  0  0  0  0
   35.3010   26.6800   38.0670 C   0  0  0  0  0  0  0  0  0  0  0  0
   34.6600   27.8870   37.8040 C   0  0  0  0  0  0  0  0  0  0  0  0
   35.1480   29.0850   38.2980 C   0  0  0  0  0  0  0  0  0  0  0  0
   36.2940   29.1030   39.0660 C   0  0  0  0  0  0  0  0  0  0  0  0
   36.8980   27.8910   39.3040 C   0  0  0  0  0  0  0  0  0  0  0  0
   36.4480   26.6540   38.8350 C   0  0  0  0  0  0  0  0  0  0  0  0
   39.3326   29.3312   43.3441 H   0  0  0  0  0  0  0  0  0  0  0  0
   39.8538   27.3542   41.8658 H   0  0  0  0  0  0  0  0  0  0  0  0
   35.5525   27.7211   44.2979 H   0  0  0  0  0  0  0  0  0  0  0  0
   36.4234   24.3625   42.6080 H   0  0  0  0  0  0  0  0  0  0  0  0
   35.9242   25.1148   41.0551 H   0  0  0  0  0  0  0  0  0  0  0  0
   36.7592   23.5243   41.0551 H   0  0  0  0  0  0  0  0  0  0  0  0
   39.1311   24.3182   43.0929 H   0  0  0  0  0  0  0  0  0  0  0  0
   38.9866   23.2791   41.6348 H   0  0  0  0  0  0  0  0  0  0  0  0
   40.1180   24.6743   41.6348 H   0  0  0  0  0  0  0  0  0  0  0  0
   38.8064   26.4600   39.9410 H   0  0  0  0  0  0  0  0  0  0  0  0
   38.9539   24.6406   39.6747 H   0  0  0  0  0  0  0  0  0  0  0  0
   37.1140   23.4043   38.7489 H   0  0  0  0  0  0  0  0  0  0  0  0
   35.0884   23.3290   37.3730 H   0  0  0  0  0  0  0  0  0  0  0  0
   33.9058   25.4951   36.9329 H   0  0  0  0  0  0  0  0  0  0  0  0
   33.7467   27.8894   37.1909 H   0  0  0  0  0  0  0  0  0  0  0  0
   34.6206   30.0248   38.0775 H   0  0  0  0  0  0  0  0  0  0  0  0
   36.7044   30.0410   39.4682 H   0  0  0  0  0  0  0  0  0  0  0  0
   37.8126   27.8955   39.9151 H   0  0  0  0  0  0  0  0  0  0  0  0
  1  8  1  0
  1  9  1  0
  1  4  1  0
  2  7  2  0
  3  2  1  0
  4  3  2  0
  4  5  1  0
  5  6  2  0
  6  7  1  0
 10  1  1  0
 11 10  1  0
 12 11  2  0
 13 12  1  0
 14 13  2  0
 14 15  1  0
 15 20  2  0
 16 15  1  0
 16 17  2  0
 17 18  1  0
 18 19  2  0
 20 11  1  0
 20 19  1  0
  2 21  1  0
  3 22  1  0
  6 23  1  0
  8 24  1  0
  8 25  1  0
  8 26  1  0
  9 27  1  0
  9 28  1  0
  9 29  1  0
 10 30  1  0
 10 31  1  0
 12 32  1  0
 13 33  1  0
 14 34  1  0
 16 35  1  0
 17 36  1  0
 18 37  1  0
 19 38  1  0
M  ISO  8  21  14  22  14  23  14  24   8  25   8  26   8  27   8  28   8
M  ISO  8  29   8  30   8  31   8  32  14  33  14  34  14  35  14  36  14
M  ISO  2  37  14  38  14
M  END
>  <minimizedAffinity>  (1) 
-4.74650335

>  <minimizedRMSD>  (1) 
2.77286315

$$$$
