
     RDKit          3D

 29 30  0  0  0  0  0  0  0  0999 V2000
   37.3370   27.6240   43.2160 C   0  0  0  0  0  0  0  0  0  0  0  0
   37.0320   30.7640   41.0610 C   0  0  0  0  0  0  0  0  0  0  0  0
   37.5340   29.8930   42.0360 C   0  0  0  0  0  0  0  0  0  0  0  0
   36.9240   28.6550   42.2270 C   0  0  0  0  0  0  0  0  0  0  0  0
   35.8480   28.3640   41.4310 N   0  0  0  0  0  0  0  0  0  0  0  0
   35.3850   29.2190   40.5000 C   0  0  0  0  0  0  0  0  0  0  0  0
   35.9710   30.4070   40.3170 N   0  0  0  0  0  0  0  0  0  0  0  0
   37.1050   26.2890   42.5280 C   0  0  0  0  0  0  0  0  0  0  0  0
   36.5440   27.7650   44.4920 C   0  0  0  0  0  0  0  0  0  0  0  0
   38.8100   27.7290   43.5070 C   0  0  0  0  0  0  0  0  0  0  0  0
   39.6090   26.5920   43.0550 C   0  0  0  0  0  0  0  0  0  0  0  0
   40.2320   26.3550   41.8400 C   0  0  0  0  0  0  0  0  0  0  0  0
   40.8910   25.1400   41.8400 C   0  0  0  0  0  0  0  0  0  0  0  0
   40.6600   24.6470   43.0640 N   0  0  0  0  0  0  0  0  0  0  0  0
   39.9110   25.4990   43.7690 N   0  0  0  0  0  0  0  0  0  0  0  0
   37.5075   31.7434   40.9036 H   0  0  0  0  0  0  0  0  0  0  0  0
   38.4022   30.1837   42.6456 H   0  0  0  0  0  0  0  0  0  0  0  0
   34.5175   28.9381   39.8847 H   0  0  0  0  0  0  0  0  0  0  0  0
   36.9686   25.5043   43.2867 H   0  0  0  0  0  0  0  0  0  0  0  0
   36.2043   26.3520   41.8996 H   0  0  0  0  0  0  0  0  0  0  0  0
   37.9741   26.0444   41.8996 H   0  0  0  0  0  0  0  0  0  0  0  0
   37.2148   27.6457   45.3556 H   0  0  0  0  0  0  0  0  0  0  0  0
   36.0768   28.7603   44.5253 H   0  0  0  0  0  0  0  0  0  0  0  0
   35.7623   26.9918   44.5253 H   0  0  0  0  0  0  0  0  0  0  0  0
   39.1925   28.6338   43.0119 H   0  0  0  0  0  0  0  0  0  0  0  0
   38.9068   27.7581   44.6023 H   0  0  0  0  0  0  0  0  0  0  0  0
   40.2054   27.0459   40.9845 H   0  0  0  0  0  0  0  0  0  0  0  0
   41.4707   24.6837   41.0241 H   0  0  0  0  0  0  0  0  0  0  0  0
   41.0093   23.7423   43.4110 H   0  0  0  0  0  0  0  0  0  0  0  0
  1 10  1  0
  1  9  1  0
  2  3  2  0
  3  4  1  0
  4  1  1  0
  5  4  2  0
  6  5  1  0
  7  6  2  0
  7  2  1  0
  8  1  1  0
 11 10  1  0
 11 15  2  0
 12 13  2  0
 12 11  1  0
 13 14  1  0
 14 15  1  0
  2 16  1  0
  3 17  1  0
  6 18  1  0
  8 19  1  0
  8 20  1  0
  8 21  1  0
  9 22  1  0
  9 23  1  0
  9 24  1  0
 10 25  1  0
 10 26  1  0
 12 27  1  0
 13 28  1  0
 14 29  1  0
M  ISO  8  16  14  17  14  18  14  19   8  20   8  21   8  22   8  23   8
M  ISO  6  24   8  25   8  26   8  27  14  28  14  29   9
M  END
>  <minimizedAffinity>  (1) 
-4.63713121

>  <minimizedRMSD>  (1) 
3.51417947

$$$$
