
     RDKit          3D

 33 35  0  0  0  0  0  0  0  0999 V2000
   37.4570   25.8410   41.7070 C   0  0  0  0  0  0  0  0  0  0  0  0
   41.1620   25.6700   40.8760 C   0  0  0  0  0  0  0  0  0  0  0  0
   39.7860   25.9110   40.6910 C   0  0  0  0  0  0  0  0  0  0  0  0
   38.9200   25.6440   41.7360 C   0  0  0  0  0  0  0  0  0  0  0  0
   39.4520   25.1560   42.8990 N   0  0  0  0  0  0  0  0  0  0  0  0
   40.7750   24.9330   43.0510 C   0  0  0  0  0  0  0  0  0  0  0  0
   41.6200   25.1860   42.0540 N   0  0  0  0  0  0  0  0  0  0  0  0
   36.8380   24.5360   42.1760 C   0  0  0  0  0  0  0  0  0  0  0  0
   36.9740   26.2200   40.3300 C   0  0  0  0  0  0  0  0  0  0  0  0
   37.0130   26.9150   42.6830 C   0  0  0  0  0  0  0  0  0  0  0  0
   37.6310   28.1910   42.4630 N   0  0  0  0  0  0  0  0  0  0  0  0
   38.8020   28.5670   43.0320 C   0  0  0  0  0  0  0  0  0  0  0  0
   39.0740   29.8190   42.6040 N   0  0  0  0  0  0  0  0  0  0  0  0
   38.0910   30.2150   41.7820 C   0  0  0  0  0  0  0  0  0  0  0  0
   37.9220   31.4150   41.0950 C   0  0  0  0  0  0  0  0  0  0  0  0
   36.8240   31.5780   40.3120 N   0  0  0  0  0  0  0  0  0  0  0  0
   35.9420   30.5380   40.2480 C   0  0  0  0  0  0  0  0  0  0  0  0
   36.0860   29.3550   40.9110 N   0  0  0  0  0  0  0  0  0  0  0  0
   37.1690   29.1930   41.6830 C   0  0  0  0  0  0  0  0  0  0  0  0
   41.8680   25.8765   40.0582 H   0  0  0  0  0  0  0  0  0  0  0  0
   39.4084   26.3034   39.7353 H   0  0  0  0  0  0  0  0  0  0  0  0
   41.1570   24.5398   44.0047 H   0  0  0  0  0  0  0  0  0  0  0  0
   36.8258   24.5103   43.2756 H   0  0  0  0  0  0  0  0  0  0  0  0
   35.8084   24.4611   41.7960 H   0  0  0  0  0  0  0  0  0  0  0  0
   37.4314   23.6913   41.7960 H   0  0  0  0  0  0  0  0  0  0  0  0
   36.1114   26.8969   40.4174 H   0  0  0  0  0  0  0  0  0  0  0  0
   37.7836   26.7264   39.7839 H   0  0  0  0  0  0  0  0  0  0  0  0
   36.6747   25.3132   39.7839 H   0  0  0  0  0  0  0  0  0  0  0  0
   35.9236   27.0373   42.5916 H   0  0  0  0  0  0  0  0  0  0  0  0
   37.3175   26.5811   43.6859 H   0  0  0  0  0  0  0  0  0  0  0  0
   39.4173   27.9641   43.7160 H   0  0  0  0  0  0  0  0  0  0  0  0
   38.6671   32.2192   41.1853 H   0  0  0  0  0  0  0  0  0  0  0  0
   35.0506   30.6633   39.6158 H   0  0  0  0  0  0  0  0  0  0  0  0
  1  4  1  0
  1  8  1  0
  1 10  1  0
  2  7  2  0
  3  2  1  0
  3  4  2  0
  4  5  1  0
  5  6  2  0
  7  6  1  0
  9  1  1  0
 11 10  1  0
 11 12  1  0
 13 12  2  0
 14 13  1  0
 15 14  2  0
 16 15  1  0
 17 16  2  0
 17 18  1  0
 18 19  2  0
 19 14  1  0
 19 11  1  0
  2 20  1  0
  3 21  1  0
  6 22  1  0
  8 23  1  0
  8 24  1  0
  8 25  1  0
  9 26  1  0
  9 27  1  0
  9 28  1  0
 10 29  1  0
 10 30  1  0
 12 31  1  0
 15 32  1  0
 17 33  1  0
M  ISO  8  20  14  21  14  22  14  23   8  24   8  25   8  26   8  27   8
M  ISO  6  28   8  29   8  30   8  31  14  32  14  33  14
M  END
>  <minimizedAffinity>  (1) 
-4.61702251

>  <minimizedRMSD>  (1) 
6.81511259

$$$$
