
     RDKit          3D

 17 18  0  0  0  0  0  0  0  0999 V2000
   36.3850   30.1110   41.4120 C   0  0  0  0  0  0  0  0  0  0  0  0
   37.3940   29.4170   42.1210 C   0  0  0  0  0  0  0  0  0  0  0  0
   38.6790   29.9830   42.1350 C   0  0  0  0  0  0  0  0  0  0  0  0
   38.8870   31.1510   41.4780 N   0  0  0  0  0  0  0  0  0  0  0  0
   37.8940   31.7890   40.8080 C   0  0  0  0  0  0  0  0  0  0  0  0
   36.6470   31.2630   40.7800 N   0  0  0  0  0  0  0  0  0  0  0  0
   37.1020   28.1330   42.8240 C   0  0  0  0  0  0  0  0  0  0  0  0
   38.1550   27.5200   43.6670 C   0  0  0  0  0  0  0  0  0  0  0  0
   36.9710   28.1460   44.3140 C   0  0  0  0  0  0  0  0  0  0  0  0
   35.3664   29.6969   41.3791 H   0  0  0  0  0  0  0  0  0  0  0  0
   39.5028   29.4875   42.6697 H   0  0  0  0  0  0  0  0  0  0  0  0
   38.1028   32.7350   40.2869 H   0  0  0  0  0  0  0  0  0  0  0  0
   36.4767   27.7854   41.9884 H   0  0  0  0  0  0  0  0  0  0  0  0
   38.2761   26.4268   43.6851 H   0  0  0  0  0  0  0  0  0  0  0  0
   39.2441   27.6441   43.7587 H   0  0  0  0  0  0  0  0  0  0  0  0
   37.0805   29.0895   44.8688 H   0  0  0  0  0  0  0  0  0  0  0  0
   36.2080   27.8137   45.0333 H   0  0  0  0  0  0  0  0  0  0  0  0
  1  2  2  0
  2  3  1  0
  2  7  1  0
  4  3  2  0
  5  4  1  0
  6  5  2  0
  6  1  1  0
  7  8  1  0
  7  9  1  0
  8  9  1  0
  1 10  1  0
  3 11  1  0
  5 12  1  0
  7 13  1  0
  8 14  1  0
  8 15  1  0
  9 16  1  0
  9 17  1  0
M  ISO  8  10  14  11  14  12  14  13  13  14  13  15  13  16  13  17  13
M  END
>  <minimizedAffinity>  (1) 
-3.34807515

>  <minimizedRMSD>  (1) 
2.81036735

$$$$
