
     RDKit          3D

 35 36  0  0  0  0  0  0  0  0999 V2000
   37.6580   26.0430   41.7000 C   0  0  0  0  0  0  0  0  0  0  0  0
   41.1950   25.0310   42.7370 C   0  0  0  0  0  0  0  0  0  0  0  0
   40.0020   25.0210   41.9920 C   0  0  0  0  0  0  0  0  0  0  0  0
   38.9970   25.8970   42.3620 C   0  0  0  0  0  0  0  0  0  0  0  0
   39.2460   26.7140   43.4360 N   0  0  0  0  0  0  0  0  0  0  0  0
   40.3810   26.7160   44.1340 C   0  0  0  0  0  0  0  0  0  0  0  0
   41.3560   25.8750   43.7850 N   0  0  0  0  0  0  0  0  0  0  0  0
   36.8560   24.8040   42.1310 C   0  0  0  0  0  0  0  0  0  0  0  0
   37.8380   26.0920   40.2110 C   0  0  0  0  0  0  0  0  0  0  0  0
   36.9140   27.2180   42.2320 C   0  0  0  0  0  0  0  0  0  0  0  0
   36.9650   28.4400   41.5660 N   0  0  0  0  0  0  0  0  0  0  0  0
   35.5850   28.7580   41.0790 C   0  0  0  0  0  0  0  0  0  0  0  0
   35.7490   29.7400   39.9260 C   0  0  0  0  0  0  0  0  0  0  0  0
   36.2220   30.9150   40.5040 O   0  0  0  0  0  0  0  0  0  0  0  0
   37.4490   30.7050   41.0630 C   0  0  0  0  0  0  0  0  0  0  0  0
   37.3780   29.6370   42.1930 C   0  0  0  0  0  0  0  0  0  0  0  0
   42.0095   24.3435   42.4649 H   0  0  0  0  0  0  0  0  0  0  0  0
   39.8719   24.3370   41.1404 H   0  0  0  0  0  0  0  0  0  0  0  0
   40.5120   27.4006   44.9850 H   0  0  0  0  0  0  0  0  0  0  0  0
   36.8227   24.7526   43.2293 H   0  0  0  0  0  0  0  0  0  0  0  0
   35.8318   24.8746   41.7360 H   0  0  0  0  0  0  0  0  0  0  0  0
   37.3397   23.8985   41.7360 H   0  0  0  0  0  0  0  0  0  0  0  0
   38.8749   26.3743   39.9761 H   0  0  0  0  0  0  0  0  0  0  0  0
   37.6214   25.1022   39.7827 H   0  0  0  0  0  0  0  0  0  0  0  0
   37.1496   26.8354   39.7827 H   0  0  0  0  0  0  0  0  0  0  0  0
   35.8542   26.9269   42.2786 H   0  0  0  0  0  0  0  0  0  0  0  0
   37.4259   27.4292   43.1825 H   0  0  0  0  0  0  0  0  0  0  0  0
   35.0847   27.8425   40.7303 H   0  0  0  0  0  0  0  0  0  0  0  0
   34.9686   29.1873   41.8826 H   0  0  0  0  0  0  0  0  0  0  0  0
   34.7827   29.9167   39.4309 H   0  0  0  0  0  0  0  0  0  0  0  0
   36.4368   29.3569   39.1578 H   0  0  0  0  0  0  0  0  0  0  0  0
   38.1434   30.3573   40.2839 H   0  0  0  0  0  0  0  0  0  0  0  0
   37.7989   31.6517   41.5003 H   0  0  0  0  0  0  0  0  0  0  0  0
   36.6495   29.9387   42.9600 H   0  0  0  0  0  0  0  0  0  0  0  0
   38.3481   29.5160   42.6973 H   0  0  0  0  0  0  0  0  0  0  0  0
  1  8  1  0
  1 10  1  0
  1  4  1  0
  2  7  2  0
  3  4  2  0
  3  2  1  0
  4  5  1  0
  5  6  2  0
  7  6  1  0
  9  1  1  0
 11 16  1  0
 11 10  1  0
 12 11  1  0
 13 14  1  0
 13 12  1  0
 14 15  1  0
 15 16  1  0
  2 17  1  0
  3 18  1  0
  6 19  1  0
  8 20  1  0
  8 21  1  0
  8 22  1  0
  9 23  1  0
  9 24  1  0
  9 25  1  0
 10 26  1  0
 10 27  1  0
 12 28  1  0
 12 29  1  0
 13 30  1  0
 13 31  1  0
 15 32  1  0
 15 33  1  0
 16 34  1  0
 16 35  1  0
M  ISO  8  17  14  18  14  19  14  20   8  21   8  22   8  23   8  24   8
M  ISO  8  25   8  26   8  27   8  28  13  29  13  30  13  31  13  32  13
M  ISO  3  33  13  34  13  35  13
M  END
>  <minimizedAffinity>  (1) 
-4.19644976

>  <minimizedRMSD>  (1) 
5.73234081

$$$$
