
     RDKit          3D

 32 33  0  0  0  0  0  0  0  0999 V2000
   38.1800   25.4740   41.9890 C   0  0  0  0  0  0  0  0  0  0  0  0
   38.1580   29.0450   43.2780 C   0  0  0  0  0  0  0  0  0  0  0  0
   38.5220   27.6880   43.2010 C   0  0  0  0  0  0  0  0  0  0  0  0
   37.9260   26.9090   42.2230 C   0  0  0  0  0  0  0  0  0  0  0  0
   37.0160   27.4960   41.3840 N   0  0  0  0  0  0  0  0  0  0  0  0
   36.6850   28.8090   41.4820 C   0  0  0  0  0  0  0  0  0  0  0  0
   37.2470   29.5710   42.4150 N   0  0  0  0  0  0  0  0  0  0  0  0
   36.8960   24.7410   42.3340 C   0  0  0  0  0  0  0  0  0  0  0  0
   39.3350   24.9840   42.8400 C   0  0  0  0  0  0  0  0  0  0  0  0
   38.4800   25.1570   40.5450 C   0  0  0  0  0  0  0  0  0  0  0  0
   37.8180   23.9700   40.0570 N   0  0  0  0  0  0  0  0  0  0  0  0
   38.3400   22.7610   40.3620 C   0  0  0  0  0  0  0  0  0  0  0  0
   37.7680   21.5750   39.9340 C   0  0  0  0  0  0  0  0  0  0  0  0
   36.6170   21.6570   39.1660 C   0  0  0  0  0  0  0  0  0  0  0  0
   36.0550   20.6300   38.7510 O   0  0  0  0  0  0  0  0  0  0  0  0
   36.0860   22.8710   38.8550 N   0  0  0  0  0  0  0  0  0  0  0  0
   36.7000   23.9820   39.3090 C   0  0  0  0  0  0  0  0  0  0  0  0
   36.1830   25.0880   39.0040 O   0  0  0  0  0  0  0  0  0  0  0  0
   38.6151   29.6879   44.0446 H   0  0  0  0  0  0  0  0  0  0  0  0
   39.2579   27.2586   43.8967 H   0  0  0  0  0  0  0  0  0  0  0  0
   35.9503   29.2431   40.7879 H   0  0  0  0  0  0  0  0  0  0  0  0
   36.7906   24.6808   43.4273 H   0  0  0  0  0  0  0  0  0  0  0  0
   36.0383   25.2855   41.9123 H   0  0  0  0  0  0  0  0  0  0  0  0
   36.9288   23.7256   41.9123 H   0  0  0  0  0  0  0  0  0  0  0  0
   39.0784   25.0929   43.9041 H   0  0  0  0  0  0  0  0  0  0  0  0
   39.5315   23.9250   42.6167 H   0  0  0  0  0  0  0  0  0  0  0  0
   40.2331   25.5786   42.6167 H   0  0  0  0  0  0  0  0  0  0  0  0
   38.1595   26.0103   39.9292 H   0  0  0  0  0  0  0  0  0  0  0  0
   39.5619   24.9701   40.4771 H   0  0  0  0  0  0  0  0  0  0  0  0
   39.2535   22.7178   40.9732 H   0  0  0  0  0  0  0  0  0  0  0  0
   38.2111   20.6024   40.1941 H   0  0  0  0  0  0  0  0  0  0  0  0
   35.2316   22.9396   38.2838 H   0  0  0  0  0  0  0  0  0  0  0  0
  1  4  1  0
  1  8  1  0
  1  9  1  0
  3  2  2  0
  4  3  1  0
  5  6  1  0
  5  4  2  0
  6  7  2  0
  7  2  1  0
 10  1  1  0
 11 12  1  0
 11 10  1  0
 13 12  2  0
 14 13  1  0
 15 14  2  0
 16 14  1  0
 16 17  1  0
 17 11  1  0
 18 17  2  0
  2 19  1  0
  3 20  1  0
  6 21  1  0
  8 22  1  0
  8 23  1  0
  8 24  1  0
  9 25  1  0
  9 26  1  0
  9 27  1  0
 10 28  1  0
 10 29  1  0
 12 30  1  0
 13 31  1  0
 16 32  1  0
M  ISO  8  19  14  20  14  21  14  22   8  23   8  24   8  25   8  26   8
M  ISO  6  27   8  28   8  29   8  30  14  31  14  32   9
M  END
>  <minimizedAffinity>  (1) 
-4.14936543

>  <minimizedRMSD>  (1) 
4.50583267

$$$$
