
     RDKit          3D

 33 34  0  0  0  0  0  0  0  0999 V2000
   38.2640   25.2450   42.0750 C   0  0  0  0  0  0  0  0  0  0  0  0
   37.3620   28.6110   43.5910 C   0  0  0  0  0  0  0  0  0  0  0  0
   37.2190   27.2510   43.2380 C   0  0  0  0  0  0  0  0  0  0  0  0
   38.2450   26.6480   42.5240 C   0  0  0  0  0  0  0  0  0  0  0  0
   39.3420   27.4010   42.2030 N   0  0  0  0  0  0  0  0  0  0  0  0
   39.4610   28.7040   42.5510 C   0  0  0  0  0  0  0  0  0  0  0  0
   38.4720   29.3030   43.2440 N   0  0  0  0  0  0  0  0  0  0  0  0
   36.8890   24.6720   42.3590 C   0  0  0  0  0  0  0  0  0  0  0  0
   39.3490   24.4540   42.7780 C   0  0  0  0  0  0  0  0  0  0  0  0
   38.4820   25.1230   40.5830 C   0  0  0  0  0  0  0  0  0  0  0  0
   37.4300   24.3900   39.9100 N   0  0  0  0  0  0  0  0  0  0  0  0
   37.4970   23.0260   39.8950 C   0  0  0  0  0  0  0  0  0  0  0  0
   36.5410   22.2710   39.2800 C   0  0  0  0  0  0  0  0  0  0  0  0
   35.4590   22.8420   38.6430 C   0  0  0  0  0  0  0  0  0  0  0  0
   34.4580   22.0630   37.9990 N   0  0  0  0  0  0  0  0  0  0  0  0
   35.4280   24.1900   38.6790 N   0  0  0  0  0  0  0  0  0  0  0  0
   36.3710   24.9350   39.2860 C   0  0  0  0  0  0  0  0  0  0  0  0
   36.2840   26.1890   39.2850 O   0  0  0  0  0  0  0  0  0  0  0  0
   36.5620   29.1135   44.1544 H   0  0  0  0  0  0  0  0  0  0  0  0
   36.3192   26.6852   43.5212 H   0  0  0  0  0  0  0  0  0  0  0  0
   40.3605   29.2712   42.2696 H   0  0  0  0  0  0  0  0  0  0  0  0
   36.7358   24.6082   43.4464 H   0  0  0  0  0  0  0  0  0  0  0  0
   36.1214   25.3251   41.9183 H   0  0  0  0  0  0  0  0  0  0  0  0
   36.8124   23.6671   41.9183 H   0  0  0  0  0  0  0  0  0  0  0  0
   39.2228   24.5460   43.8669 H   0  0  0  0  0  0  0  0  0  0  0  0
   39.2767   23.3952   42.4887 H   0  0  0  0  0  0  0  0  0  0  0  0
   40.3349   24.8467   42.4887 H   0  0  0  0  0  0  0  0  0  0  0  0
   38.5331   26.1344   40.1535 H   0  0  0  0  0  0  0  0  0  0  0  0
   39.4169   24.5627   40.4344 H   0  0  0  0  0  0  0  0  0  0  0  0
   38.3414   22.5242   40.3903 H   0  0  0  0  0  0  0  0  0  0  0  0
   36.6360   21.1752   39.2926 H   0  0  0  0  0  0  0  0  0  0  0  0
   34.5261   21.0353   37.9988 H   0  0  0  0  0  0  0  0  0  0  0  0
   33.6651   22.5267   37.5330 H   0  0  0  0  0  0  0  0  0  0  0  0
  1  8  1  0
  1  4  1  0
  1  9  1  0
  3  2  2  0
  4  3  1  0
  5  4  2  0
  5  6  1  0
  6  7  2  0
  7  2  1  0
 10  1  1  0
 11 10  1  0
 12 11  1  0
 13 12  2  0
 14 16  2  0
 14 13  1  0
 15 14  1  0
 16 17  1  0
 17 11  1  0
 18 17  2  0
  2 19  1  0
  3 20  1  0
  6 21  1  0
  8 22  1  0
  8 23  1  0
  8 24  1  0
  9 25  1  0
  9 26  1  0
  9 27  1  0
 10 28  1  0
 10 29  1  0
 12 30  1  0
 13 31  1  0
 15 32  1  0
 15 33  1  0
M  ISO  8  19  14  20  14  21  14  22   8  23   8  24   8  25   8  26   8
M  ISO  5  27   8  28   8  29   8  30  14  31  14
M  END
>  <minimizedAffinity>  (1) 
-4.09677696

>  <minimizedRMSD>  (1) 
4.75090551

$$$$
