
     RDKit          3D

 35 36  0  0  0  0  0  0  0  0999 V2000
   37.7280   26.0330   42.1880 C   0  0  0  0  0  0  0  0  0  0  0  0
   40.8450   26.8200   44.1990 C   0  0  0  0  0  0  0  0  0  0  0  0
   39.5300   26.9370   43.7370 C   0  0  0  0  0  0  0  0  0  0  0  0
   39.0790   26.0610   42.7720 C   0  0  0  0  0  0  0  0  0  0  0  0
   39.9580   25.1130   42.3150 N   0  0  0  0  0  0  0  0  0  0  0  0
   41.2250   25.0190   42.7770 C   0  0  0  0  0  0  0  0  0  0  0  0
   41.6610   25.8620   43.7060 N   0  0  0  0  0  0  0  0  0  0  0  0
   37.8320   26.7740   40.8420 C   0  0  0  0  0  0  0  0  0  0  0  0
   36.7320   26.7400   43.0840 C   0  0  0  0  0  0  0  0  0  0  0  0
   37.2370   24.6730   41.8650 C   0  0  0  0  0  0  0  0  0  0  0  0
   37.0270   24.3100   40.4380 C   0  0  0  0  0  0  0  0  0  0  0  0
   38.1020   23.2680   40.1070 C   0  0  0  0  0  0  0  0  0  0  0  0
   37.3360   21.9850   39.8780 C   0  0  0  0  0  0  0  0  0  0  0  0
   36.0800   22.4860   39.2080 C   0  0  0  0  0  0  0  0  0  0  0  0
   35.7250   23.6940   40.0910 C   0  0  0  0  0  0  0  0  0  0  0  0
   41.2174   27.5122   44.9685 H   0  0  0  0  0  0  0  0  0  0  0  0
   38.8652   27.7164   44.1376 H   0  0  0  0  0  0  0  0  0  0  0  0
   41.8966   24.2423   42.3824 H   0  0  0  0  0  0  0  0  0  0  0  0
   37.9827   27.8481   41.0254 H   0  0  0  0  0  0  0  0  0  0  0  0
   38.6832   26.3768   40.2696 H   0  0  0  0  0  0  0  0  0  0  0  0
   36.9043   26.6264   40.2696 H   0  0  0  0  0  0  0  0  0  0  0  0
   36.9911   26.5561   44.1371 H   0  0  0  0  0  0  0  0  0  0  0  0
   36.7607   27.8211   42.8828 H   0  0  0  0  0  0  0  0  0  0  0  0
   35.7209   26.3563   42.8828 H   0  0  0  0  0  0  0  0  0  0  0  0
   37.9657   23.9593   42.2768 H   0  0  0  0  0  0  0  0  0  0  0  0
   36.2270   24.6433   42.2997 H   0  0  0  0  0  0  0  0  0  0  0  0
   37.0674   25.2533   39.8736 H   0  0  0  0  0  0  0  0  0  0  0  0
   38.6555   23.5562   39.2011 H   0  0  0  0  0  0  0  0  0  0  0  0
   38.8473   23.1698   40.9100 H   0  0  0  0  0  0  0  0  0  0  0  0
   37.8923   21.2987   39.2226 H   0  0  0  0  0  0  0  0  0  0  0  0
   37.1497   21.4092   40.7966 H   0  0  0  0  0  0  0  0  0  0  0  0
   36.2726   22.7904   38.1686 H   0  0  0  0  0  0  0  0  0  0  0  0
   35.2805   21.7342   39.1326 H   0  0  0  0  0  0  0  0  0  0  0  0
   35.0955   24.4061   39.5373 H   0  0  0  0  0  0  0  0  0  0  0  0
   35.1554   23.3997   40.9849 H   0  0  0  0  0  0  0  0  0  0  0  0
  1  4  1  0
  1  9  1  0
  3  2  2  0
  4  3  1  0
  5  4  2  0
  5  6  1  0
  6  7  2  0
  7  2  1  0
  8  1  1  0
 10  1  1  0
 11 10  1  0
 12 11  1  0
 13 12  1  0
 14 13  1  0
 14 15  1  0
 15 11  1  0
  2 16  1  0
  3 17  1  0
  6 18  1  0
  8 19  1  0
  8 20  1  0
  8 21  1  0
  9 22  1  0
  9 23  1  0
  9 24  1  0
 10 25  1  0
 10 26  1  0
 11 27  1  0
 12 28  1  0
 12 29  1  0
 13 30  1  0
 13 31  1  0
 14 32  1  0
 14 33  1  0
 15 34  1  0
 15 35  1  0
M  ISO  8  16  14  17  14  18  14  19   8  20   8  21   8  22   8  23   8
M  ISO  8  24   8  25   8  26   8  27  13  28  13  29  13  30  13  31  13
M  ISO  4  32  13  33  13  34  13  35  13
M  END
>  <minimizedAffinity>  (1) 
-4.02982521

>  <minimizedRMSD>  (1) 
4.11429691

$$$$
