
     RDKit          3D

 30 31  0  0  0  0  0  0  0  0999 V2000
   38.3820   25.2000   42.2260 C   0  0  0  0  0  0  0  0  0  0  0  0
   37.4630   28.6780   43.4810 C   0  0  0  0  0  0  0  0  0  0  0  0
   37.3240   27.3110   43.2090 C   0  0  0  0  0  0  0  0  0  0  0  0
   38.3860   26.6520   42.5750 C   0  0  0  0  0  0  0  0  0  0  0  0
   39.4900   27.3760   42.2630 N   0  0  0  0  0  0  0  0  0  0  0  0
   39.5990   28.6920   42.5360 C   0  0  0  0  0  0  0  0  0  0  0  0
   38.5890   29.3420   43.1420 N   0  0  0  0  0  0  0  0  0  0  0  0
   36.9640   24.7290   42.4740 C   0  0  0  0  0  0  0  0  0  0  0  0
   39.3840   24.4300   43.0240 C   0  0  0  0  0  0  0  0  0  0  0  0
   38.6440   25.0070   40.7490 C   0  0  0  0  0  0  0  0  0  0  0  0
   37.9130   23.8700   40.1750 C   0  0  0  0  0  0  0  0  0  0  0  0
   36.7420   23.9920   39.4510 C   0  0  0  0  0  0  0  0  0  0  0  0
   36.1990   22.8090   38.9890 C   0  0  0  0  0  0  0  0  0  0  0  0
   36.7310   21.6090   39.2010 N   0  0  0  0  0  0  0  0  0  0  0  0
   37.8640   21.5150   39.9030 C   0  0  0  0  0  0  0  0  0  0  0  0
   38.4320   22.6360   40.3730 N   0  0  0  0  0  0  0  0  0  0  0  0
   36.6435   29.2182   43.9777 H   0  0  0  0  0  0  0  0  0  0  0  0
   36.4070   26.7699   43.4853 H   0  0  0  0  0  0  0  0  0  0  0  0
   40.5156   29.2352   42.2626 H   0  0  0  0  0  0  0  0  0  0  0  0
   36.7819   24.6685   43.5571 H   0  0  0  0  0  0  0  0  0  0  0  0
   36.2570   25.4406   42.0225 H   0  0  0  0  0  0  0  0  0  0  0  0
   36.8233   23.7359   42.0225 H   0  0  0  0  0  0  0  0  0  0  0  0
   39.1908   24.5785   44.0967 H   0  0  0  0  0  0  0  0  0  0  0  0
   39.3021   23.3602   42.7813 H   0  0  0  0  0  0  0  0  0  0  0  0
   40.3966   24.7845   42.7813 H   0  0  0  0  0  0  0  0  0  0  0  0
   38.3410   25.9214   40.2179 H   0  0  0  0  0  0  0  0  0  0  0  0
   39.7176   24.7976   40.6323 H   0  0  0  0  0  0  0  0  0  0  0  0
   36.2730   24.9676   39.2555 H   0  0  0  0  0  0  0  0  0  0  0  0
   35.2664   22.8631   38.4083 H   0  0  0  0  0  0  0  0  0  0  0  0
   38.3239   20.5339   40.0926 H   0  0  0  0  0  0  0  0  0  0  0  0
  1  8  1  0
  1  4  1  0
  1  9  1  0
  3  2  2  0
  4  3  1  0
  5  6  1  0
  5  4  2  0
  6  7  2  0
  7  2  1  0
 10  1  1  0
 11 16  1  0
 11 10  1  0
 12 11  2  0
 13 14  2  0
 13 12  1  0
 14 15  1  0
 15 16  2  0
  2 17  1  0
  3 18  1  0
  6 19  1  0
  8 20  1  0
  8 21  1  0
  8 22  1  0
  9 23  1  0
  9 24  1  0
  9 25  1  0
 10 26  1  0
 10 27  1  0
 12 28  1  0
 13 29  1  0
 15 30  1  0
M  ISO  8  17  14  18  14  19  14  20   8  21   8  22   8  23   8  24   8
M  ISO  6  25   8  26   8  27   8  28  14  29  14  30  14
M  END
>  <minimizedAffinity>  (1) 
-3.92587852

>  <minimizedRMSD>  (1) 
2.5508523

$$$$
