
     RDKit          3D

 28 29  0  0  0  0  0  0  0  0999 V2000
   38.8620   25.1680   42.2210 C   0  0  0  0  0  0  0  0  0  0  0  0
   36.6760   28.2640   42.3880 C   0  0  0  0  0  0  0  0  0  0  0  0
   37.0320   26.9150   42.1710 C   0  0  0  0  0  0  0  0  0  0  0  0
   38.3430   26.5330   42.4030 C   0  0  0  0  0  0  0  0  0  0  0  0
   39.2200   27.4880   42.8330 N   0  0  0  0  0  0  0  0  0  0  0  0
   38.8520   28.7690   43.0320 C   0  0  0  0  0  0  0  0  0  0  0  0
   37.6030   29.1600   42.8150 N   0  0  0  0  0  0  0  0  0  0  0  0
   37.6220   24.2580   42.2110 C   0  0  0  0  0  0  0  0  0  0  0  0
   39.8150   24.7750   43.3160 C   0  0  0  0  0  0  0  0  0  0  0  0
   39.5050   24.9650   40.8810 C   0  0  0  0  0  0  0  0  0  0  0  0
   38.5780   24.3350   39.8890 C   0  0  0  0  0  0  0  0  0  0  0  0
   38.6520   22.8940   39.5810 C   0  0  0  0  0  0  0  0  0  0  0  0
   37.3550   22.6970   38.3710 S   0  0  0  0  0  0  0  0  0  0  0  0
   36.8970   24.5470   38.4430 C   0  0  0  0  0  0  0  0  0  0  0  0
   37.6310   24.9630   39.2050 N   0  0  0  0  0  0  0  0  0  0  0  0
   35.6410   28.5914   42.2100 H   0  0  0  0  0  0  0  0  0  0  0  0
   36.2856   26.1845   41.8257 H   0  0  0  0  0  0  0  0  0  0  0  0
   39.5971   29.5001   43.3789 H   0  0  0  0  0  0  0  0  0  0  0  0
   37.3210   24.0371   43.2457 H   0  0  0  0  0  0  0  0  0  0  0  0
   36.7977   24.7671   41.6901 H   0  0  0  0  0  0  0  0  0  0  0  0
   37.8605   23.3190   41.6901 H   0  0  0  0  0  0  0  0  0  0  0  0
   39.3493   24.9671   44.2939 H   0  0  0  0  0  0  0  0  0  0  0  0
   40.0540   23.7049   43.2275 H   0  0  0  0  0  0  0  0  0  0  0  0
   40.7388   25.3656   43.2275 H   0  0  0  0  0  0  0  0  0  0  0  0
   39.8260   25.9427   40.4922 H   0  0  0  0  0  0  0  0  0  0  0  0
   40.3581   24.2845   41.0197 H   0  0  0  0  0  0  0  0  0  0  0  0
   39.3331   22.1345   39.9924 H   0  0  0  0  0  0  0  0  0  0  0  0
   36.1143   25.0808   37.8841 H   0  0  0  0  0  0  0  0  0  0  0  0
  1  4  1  0
  1  9  1  0
  2  7  2  0
  3  2  1  0
  3  4  2  0
  4  5  1  0
  5  6  2  0
  7  6  1  0
  8  1  1  0
 10  1  1  0
 11 10  1  0
 12 11  2  0
 13 14  1  0
 13 12  1  0
 14 15  2  0
 15 11  1  0
  2 16  1  0
  3 17  1  0
  6 18  1  0
  8 19  1  0
  8 20  1  0
  8 21  1  0
  9 22  1  0
  9 23  1  0
  9 24  1  0
 10 25  1  0
 10 26  1  0
 12 27  1  0
 14 28  1  0
M  ISO  8  16  14  17  14  18  14  19   8  20   8  21   8  22   8  23   8
M  ISO  5  24   8  25   8  26   8  27  14  28  14
M  END
>  <minimizedAffinity>  (1) 
-3.57018805

>  <minimizedRMSD>  (1) 
3.19097257

$$$$
