
     RDKit          3D

 48 50  0  0  0  0  0  0  0  0999 V2000
   36.0370   30.5640   41.0390 C   0  0  0  0  0  0  0  0  0  0  0  0
   37.2400   31.3700   40.7410 C   0  0  0  0  0  0  0  0  0  0  0  0
   37.3650   32.5880   40.0850 C   0  0  0  0  0  0  0  0  0  0  0  0
   38.6720   32.9990   40.0180 C   0  0  0  0  0  0  0  0  0  0  0  0
   39.3480   32.0060   40.6470 N   0  0  0  0  0  0  0  0  0  0  0  0
   38.5100   31.0680   41.0610 N   0  0  0  0  0  0  0  0  0  0  0  0
   39.3000   34.1990   39.4340 C   0  0  0  0  0  0  0  0  0  0  0  0
   38.8310   35.4410   40.1590 C   0  0  0  0  0  0  0  0  0  0  0  0
   39.9070   35.8650   41.1410 C   0  0  0  0  0  0  0  0  0  0  0  0
   41.0570   36.4420   40.3080 C   0  0  0  0  0  0  0  0  0  0  0  0
   41.4590   35.4470   39.2500 C   0  0  0  0  0  0  0  0  0  0  0  0
   40.8290   34.0960   39.4630 C   0  0  0  0  0  0  0  0  0  0  0  0
   40.7850   31.9610   40.8450 C   0  0  0  0  0  0  0  0  0  0  0  0
   41.2970   33.0280   41.5040 F   0  0  0  0  0  0  0  0  0  0  0  0
   41.4550   31.8580   39.6250 F   0  0  0  0  0  0  0  0  0  0  0  0
   41.1450   30.8120   41.5440 F   0  0  0  0  0  0  0  0  0  0  0  0
   35.9010   29.3440   40.2210 C   0  0  0  0  0  0  0  0  0  0  0  0
   37.0030   26.7810   42.7800 C   0  0  0  0  0  0  0  0  0  0  0  0
   36.5730   27.9620   42.1870 C   0  0  0  0  0  0  0  0  0  0  0  0
   36.3580   28.1060   40.8410 C   0  0  0  0  0  0  0  0  0  0  0  0
   36.5910   27.0050   40.0980 N   0  0  0  0  0  0  0  0  0  0  0  0
   37.0090   25.8440   40.6440 C   0  0  0  0  0  0  0  0  0  0  0  0
   37.2120   25.7280   41.9500 N   0  0  0  0  0  0  0  0  0  0  0  0
   34.3990   29.1140   39.9610 C   0  0  0  0  0  0  0  0  0  0  0  0
   36.5880   29.5480   38.8680 C   0  0  0  0  0  0  0  0  0  0  0  0
   36.0765   30.2658   42.0971 H   0  0  0  0  0  0  0  0  0  0  0  0
   35.1692   31.1975   40.8032 H   0  0  0  0  0  0  0  0  0  0  0  0
   36.5184   33.1544   39.6696 H   0  0  0  0  0  0  0  0  0  0  0  0
   38.9916   34.2694   38.3805 H   0  0  0  0  0  0  0  0  0  0  0  0
   38.6528   36.2483   39.4334 H   0  0  0  0  0  0  0  0  0  0  0  0
   37.8944   35.2309   40.6962 H   0  0  0  0  0  0  0  0  0  0  0  0
   39.5145   36.6298   41.8273 H   0  0  0  0  0  0  0  0  0  0  0  0
   40.2462   35.0140   41.7498 H   0  0  0  0  0  0  0  0  0  0  0  0
   40.7293   37.3758   39.8277 H   0  0  0  0  0  0  0  0  0  0  0  0
   41.9165   36.6486   40.9627 H   0  0  0  0  0  0  0  0  0  0  0  0
   42.5530   35.3336   39.2693 H   0  0  0  0  0  0  0  0  0  0  0  0
   41.1104   35.8302   38.2796 H   0  0  0  0  0  0  0  0  0  0  0  0
   41.1455   33.7001   40.4393 H   0  0  0  0  0  0  0  0  0  0  0  0
   41.1530   33.4240   38.6547 H   0  0  0  0  0  0  0  0  0  0  0  0
   37.1654   26.7038   43.8652 H   0  0  0  0  0  0  0  0  0  0  0  0
   36.3947   28.8322   42.8358 H   0  0  0  0  0  0  0  0  0  0  0  0
   37.1852   24.9753   39.9925 H   0  0  0  0  0  0  0  0  0  0  0  0
   33.8689   29.0328   40.9214 H   0  0  0  0  0  0  0  0  0  0  0  0
   33.9922   29.9603   39.3880 H   0  0  0  0  0  0  0  0  0  0  0  0
   34.2641   28.1847   39.3880 H   0  0  0  0  0  0  0  0  0  0  0  0
   37.6311   29.8577   39.0294 H   0  0  0  0  0  0  0  0  0  0  0  0
   36.5689   28.6054   38.3013 H   0  0  0  0  0  0  0  0  0  0  0  0
   36.0576   30.3274   38.3013 H   0  0  0  0  0  0  0  0  0  0  0  0
  2  1  1  0
  2  6  2  0
  3  2  1  0
  4  3  2  0
  4  5  1  0
  5 13  1  0
  5  6  1  0
  7 12  1  0
  7  4  1  0
  7  8  1  0
  8  9  1  0
 10  9  1  0
 11 12  1  0
 11 10  1  0
 13 14  1  0
 13 16  1  0
 15 13  1  0
 17 20  1  0
 17  1  1  0
 19 18  2  0
 20 19  1  0
 21 22  1  0
 21 20  2  0
 22 23  2  0
 23 18  1  0
 24 17  1  0
 25 17  1  0
  1 26  1  0
  1 27  1  0
  3 28  1  0
  7 29  1  0
  8 30  1  0
  8 31  1  0
  9 32  1  0
  9 33  1  0
 10 34  1  0
 10 35  1  0
 11 36  1  0
 11 37  1  0
 12 38  1  0
 12 39  1  0
 18 40  1  0
 19 41  1  0
 22 42  1  0
 24 43  1  0
 24 44  1  0
 24 45  1  0
 25 46  1  0
 25 47  1  0
 25 48  1  0
M  ISO  8  26   8  27   8  28  14  29  13  30  13  31  13  32  13  33  13
M  ISO  8  34  13  35  13  36  13  37  13  38  13  39  13  40  14  41  14
M  ISO  7  42  14  43   8  44   8  45   8  46   8  47   8  48   8
M  END
>  <minimizedAffinity>  (1) 
-5.70381069

>  <minimizedRMSD>  (1) 
1.11841941

$$$$
