
     RDKit          3D

 38 39  0  0  0  0  0  0  0  0999 V2000
   35.9670   29.4180   40.1580 C   0  0  0  0  0  0  0  0  0  0  0  0
   36.9390   26.9790   42.8850 C   0  0  0  0  0  0  0  0  0  0  0  0
   36.5360   28.1310   42.2160 C   0  0  0  0  0  0  0  0  0  0  0  0
   36.3940   28.2100   40.8540 C   0  0  0  0  0  0  0  0  0  0  0  0
   36.6750   27.0800   40.1780 N   0  0  0  0  0  0  0  0  0  0  0  0
   37.0690   25.9410   40.7910 C   0  0  0  0  0  0  0  0  0  0  0  0
   37.1980   25.8910   42.1180 N   0  0  0  0  0  0  0  0  0  0  0  0
   34.4790   29.1710   39.8400 C   0  0  0  0  0  0  0  0  0  0  0  0
   36.7150   29.5560   38.8280 C   0  0  0  0  0  0  0  0  0  0  0  0
   36.0660   30.6750   40.9230 C   0  0  0  0  0  0  0  0  0  0  0  0
   37.3350   31.4070   40.7320 C   0  0  0  0  0  0  0  0  0  0  0  0
   37.5690   32.6650   40.1870 C   0  0  0  0  0  0  0  0  0  0  0  0
   38.9110   32.9710   40.1990 C   0  0  0  0  0  0  0  0  0  0  0  0
   39.4840   31.8920   40.7520 N   0  0  0  0  0  0  0  0  0  0  0  0
   38.5600   30.9910   41.0570 N   0  0  0  0  0  0  0  0  0  0  0  0
   40.9060   31.7190   40.9880 C   0  0  0  0  0  0  0  0  0  0  0  0
   41.4930   32.7610   41.6350 F   0  0  0  0  0  0  0  0  0  0  0  0
   41.5970   31.5120   39.7930 F   0  0  0  0  0  0  0  0  0  0  0  0
   41.1400   30.5680   41.7410 F   0  0  0  0  0  0  0  0  0  0  0  0
   39.6350   34.1570   39.7420 C   0  0  0  0  0  0  0  0  0  0  0  0
   39.0890   35.4570   40.2550 C   0  0  0  0  0  0  0  0  0  0  0  0
   37.0421   26.9524   43.9798 H   0  0  0  0  0  0  0  0  0  0  0  0
   36.3191   29.0289   42.8133 H   0  0  0  0  0  0  0  0  0  0  0  0
   37.2855   25.0460   40.1892 H   0  0  0  0  0  0  0  0  0  0  0  0
   33.9140   29.0772   40.7791 H   0  0  0  0  0  0  0  0  0  0  0  0
   34.0835   30.0158   39.2570 H   0  0  0  0  0  0  0  0  0  0  0  0
   34.3777   28.2437   39.2570 H   0  0  0  0  0  0  0  0  0  0  0  0
   37.7793   29.7524   39.0246 H   0  0  0  0  0  0  0  0  0  0  0  0
   36.6143   28.6241   38.2523 H   0  0  0  0  0  0  0  0  0  0  0  0
   36.2884   30.3906   38.2523 H   0  0  0  0  0  0  0  0  0  0  0  0
   35.2398   31.3321   40.6136 H   0  0  0  0  0  0  0  0  0  0  0  0
   36.0193   30.3996   41.9870 H   0  0  0  0  0  0  0  0  0  0  0  0
   36.7836   33.3292   39.7970 H   0  0  0  0  0  0  0  0  0  0  0  0
   40.6805   34.0695   40.0724 H   0  0  0  0  0  0  0  0  0  0  0  0
   39.5299   34.1844   38.6474 H   0  0  0  0  0  0  0  0  0  0  0  0
   39.0929   35.4478   41.3550 H   0  0  0  0  0  0  0  0  0  0  0  0
   39.7150   36.2859   39.8931 H   0  0  0  0  0  0  0  0  0  0  0  0
   38.0588   35.5904   39.8931 H   0  0  0  0  0  0  0  0  0  0  0  0
  1  4  1  0
  1 10  1  0
  3  2  2  0
  4  3  1  0
  5  6  1  0
  5  4  2  0
  6  7  2  0
  7  2  1  0
  8  1  1  0
  9  1  1  0
 11 10  1  0
 11 15  2  0
 12 13  2  0
 12 11  1  0
 13 14  1  0
 14 16  1  0
 14 15  1  0
 16 17  1  0
 16 19  1  0
 18 16  1  0
 20 13  1  0
 20 21  1  0
  2 22  1  0
  3 23  1  0
  6 24  1  0
  8 25  1  0
  8 26  1  0
  8 27  1  0
  9 28  1  0
  9 29  1  0
  9 30  1  0
 10 31  1  0
 10 32  1  0
 12 33  1  0
 20 34  1  0
 20 35  1  0
 21 36  1  0
 21 37  1  0
 21 38  1  0
M  ISO  8  22  14  23  14  24  14  25   8  26   8  27   8  28   8  29   8
M  ISO  8  30   8  31   8  32   8  33  14  34   8  35   8  36   8  37   8
M  ISO  1  38   8
M  END
>  <minimizedAffinity>  (1) 
-4.98061323

>  <minimizedRMSD>  (1) 
1.1500622

$$$$
