
     RDKit          3D

 12 12  0  0  0  0  0  0  0  0999 V2000
   38.3330   29.5350   42.9100 C   0  0  0  0  0  0  0  0  0  0  0  0
   37.3740   28.5210   43.0260 C   0  0  0  0  0  0  0  0  0  0  0  0
   36.5360   28.2900   41.9390 C   0  0  0  0  0  0  0  0  0  0  0  0
   36.6890   29.0590   40.8170 N   0  0  0  0  0  0  0  0  0  0  0  0
   37.6210   30.0250   40.7400 C   0  0  0  0  0  0  0  0  0  0  0  0
   38.4390   30.2590   41.7880 N   0  0  0  0  0  0  0  0  0  0  0  0
   37.2650   27.7510   44.2310 C   0  0  0  0  0  0  0  0  0  0  0  0
   36.5650   28.2070   45.1740 O   0  0  0  0  0  0  0  0  0  0  0  0
   39.0094   29.7400   43.7529 H   0  0  0  0  0  0  0  0  0  0  0  0
   35.7663   27.5053   41.9807 H   0  0  0  0  0  0  0  0  0  0  0  0
   37.7169   30.6247   39.8229 H   0  0  0  0  0  0  0  0  0  0  0  0
   37.7808   26.7844   44.3296 H   0  0  0  0  0  0  0  0  0  0  0  0
  1  2  2  0
  2  7  1  0
  3  2  1  0
  4  3  2  0
  5  4  1  0
  5  6  2  0
  6  1  1  0
  7  8  2  0
  1  9  1  0
  3 10  1  0
  5 11  1  0
  7 12  1  0
M  ISO  4   9  14  10  14  11  14  12   6
M  END
>  <minimizedAffinity>  (1) 
-2.63525701

>  <minimizedRMSD>  (1) 
1.18069196

$$$$
