
     RDKit          3D

 50 54  0  0  1  0  0  0  0  0999 V2000
   36.2600   29.6960   40.0020 C   0  0  0  0  0  0  0  0  0  0  0  0
   37.0920   30.7590   39.6660 C   0  0  0  0  0  0  0  0  0  0  0  0
   38.0900   30.9350   40.6060 C   0  0  0  0  0  0  0  0  0  0  0  0
   37.8490   29.9740   41.5070 N   0  0  0  0  0  0  0  0  0  0  0  0
   36.7930   29.2580   41.1590 N   0  0  0  0  0  0  0  0  0  0  0  0
   39.1600   31.9640   40.5970 C   0  0  2  0  0  0  0  0  0  0  0  0
   38.7060   33.4240   40.8940 C   0  0  0  0  0  0  0  0  0  0  0  0
   39.2820   32.9970   39.5860 C   0  0  1  0  0  0  0  0  0  0  0  0
   40.6080   33.5230   39.2570 N   0  0  0  0  0  0  0  0  0  0  0  0
   41.2790   34.6520   39.6200 C   0  0  0  0  0  0  0  0  0  0  0  0
   42.4850   34.6220   39.0100 N   0  0  0  0  0  0  0  0  0  0  0  0
   42.5890   33.4960   38.2680 C   0  0  0  0  0  0  0  0  0  0  0  0
   43.6390   33.0530   37.4830 C   0  0  0  0  0  0  0  0  0  0  0  0
   43.4720   31.8640   36.8350 N   0  0  0  0  0  0  0  0  0  0  0  0
   42.3100   31.1680   36.9790 C   0  0  0  0  0  0  0  0  0  0  0  0
   41.2850   31.6180   37.7570 N   0  0  0  0  0  0  0  0  0  0  0  0
   41.4100   32.8030   38.4220 C   0  0  0  0  0  0  0  0  0  0  0  0
   38.6190   29.7440   42.7060 C   0  0  0  0  0  0  0  0  0  0  0  0
   39.1960   30.8630   43.2330 F   0  0  0  0  0  0  0  0  0  0  0  0
   39.6370   28.8340   42.4950 F   0  0  0  0  0  0  0  0  0  0  0  0
   37.8260   29.1770   43.7040 F   0  0  0  0  0  0  0  0  0  0  0  0
   35.0810   29.1530   39.2860 C   0  0  0  0  0  0  0  0  0  0  0  0
   35.4090   28.3980   38.0720 C   0  0  0  0  0  0  0  0  0  0  0  0
   37.2430   25.2250   38.9480 C   0  0  0  0  0  0  0  0  0  0  0  0
   36.2630   26.2250   38.8580 C   0  0  0  0  0  0  0  0  0  0  0  0
   36.4290   27.3790   38.1560 C   0  0  0  0  0  0  0  0  0  0  0  0
   37.6110   27.5060   37.5440 N   0  0  0  0  0  0  0  0  0  0  0  0
   38.5840   26.5760   37.6000 C   0  0  0  0  0  0  0  0  0  0  0  0
   38.4000   25.4500   38.2950 N   0  0  0  0  0  0  0  0  0  0  0  0
   34.1350   27.6370   37.6260 C   0  0  0  0  0  0  0  0  0  0  0  0
   35.7360   29.3940   36.9420 C   0  0  0  0  0  0  0  0  0  0  0  0
   36.9711   31.3805   38.7665 H   0  0  0  0  0  0  0  0  0  0  0  0
   39.8772   31.2250   40.9836 H   0  0  0  0  0  0  0  0  0  0  0  0
   37.6374   33.6702   40.9802 H   0  0  0  0  0  0  0  0  0  0  0  0
   38.9309   34.1894   41.6513 H   0  0  0  0  0  0  0  0  0  0  0  0
   38.9445   33.0486   38.5403 H   0  0  0  0  0  0  0  0  0  0  0  0
   40.9072   35.4433   40.2875 H   0  0  0  0  0  0  0  0  0  0  0  0
   44.5679   33.6342   37.3857 H   0  0  0  0  0  0  0  0  0  0  0  0
   42.1948   30.2106   36.4497 H   0  0  0  0  0  0  0  0  0  0  0  0
   34.5388   28.4851   39.9715 H   0  0  0  0  0  0  0  0  0  0  0  0
   34.4795   30.0171   38.9675 H   0  0  0  0  0  0  0  0  0  0  0  0
   37.0751   24.3026   39.5234 H   0  0  0  0  0  0  0  0  0  0  0  0
   35.3093   26.0678   39.3831 H   0  0  0  0  0  0  0  0  0  0  0  0
   39.5338   26.7444   37.0713 H   0  0  0  0  0  0  0  0  0  0  0  0
   33.5773   27.3039   38.5137 H   0  0  0  0  0  0  0  0  0  0  0  0
   33.5011   28.3045   37.0239 H   0  0  0  0  0  0  0  0  0  0  0  0
   34.4222   26.7624   37.0239 H   0  0  0  0  0  0  0  0  0  0  0  0
   36.0509   30.3533   37.3785 H   0  0  0  0  0  0  0  0  0  0  0  0
   36.5485   28.9896   36.3205 H   0  0  0  0  0  0  0  0  0  0  0  0
   34.8419   29.5499   36.3205 H   0  0  0  0  0  0  0  0  0  0  0  0
  1  5  2  0
  2  1  1  0
  2  3  2  0
  3  4  1  0
  4 18  1  0
  5  4  1  0
  6  3  1  0
  6  7  1  0
  8  6  1  0
  8  7  1  0
  9  8  1  0
  9 10  1  0
 11 10  2  0
 12 17  2  0
 12 11  1  0
 13 12  1  0
 14 15  1  0
 14 13  2  0
 15 16  2  0
 16 17  1  0
 17  9  1  0
 18 19  1  0
 18 21  1  0
 20 18  1  0
 22  1  1  0
 23 26  1  0
 23 22  1  0
 25 24  2  0
 26 25  1  0
 27 28  1  0
 27 26  2  0
 28 29  2  0
 29 24  1  0
 30 23  1  0
 31 23  1  0
  2 32  1  0
  6 33  1  1
  7 34  1  0
  7 35  1  0
  8 36  1  6
 10 37  1  0
 13 38  1  0
 15 39  1  0
 22 40  1  0
 22 41  1  0
 24 42  1  0
 25 43  1  0
 28 44  1  0
 30 45  1  0
 30 46  1  0
 30 47  1  0
 31 48  1  0
 31 49  1  0
 31 50  1  0
M  ISO  8  32  14  33  13  34  13  35  13  36  13  37  14  38  14  39  14
M  ISO  8  40   8  41   8  42  14  43  14  44  14  45   8  46   8  47   8
M  ISO  3  48   8  49   8  50   8
M  END
>  <minimizedAffinity>  (1) 
-5.60528374

>  <minimizedRMSD>  (1) 
3.70999408

$$$$
