
     RDKit          3D

 53 56  0  0  1  0  0  0  0  0999 V2000
   36.0540   29.3600   39.5910 C   0  0  0  0  0  0  0  0  0  0  0  0
   36.7020   30.5840   39.5110 C   0  0  0  0  0  0  0  0  0  0  0  0
   38.0070   30.4920   39.9620 C   0  0  0  0  0  0  0  0  0  0  0  0
   38.1300   29.2070   40.3110 N   0  0  0  0  0  0  0  0  0  0  0  0
   37.0030   28.5530   40.0980 N   0  0  0  0  0  0  0  0  0  0  0  0
   39.0100   31.5910   40.0340 C   0  0  2  0  0  0  0  0  0  0  0  0
   39.2570   32.1980   41.4460 C   0  0  0  0  0  0  0  0  0  0  0  0
   38.6450   32.9690   40.3310 C   0  0  1  0  0  0  0  0  0  0  0  0
   39.3540   34.1560   39.7040 C   0  0  1  0  0  0  0  0  0  0  0  0
   38.7920   35.4530   40.1670 C   0  0  0  0  0  0  0  0  0  0  0  0
   39.7110   36.6250   40.1300 C   0  0  0  0  0  0  0  0  0  0  0  0
   41.1590   36.3290   39.9560 C   0  0  0  0  0  0  0  0  0  0  0  0
   41.4560   35.0570   40.7280 C   0  0  0  0  0  0  0  0  0  0  0  0
   40.8150   33.9670   39.8730 C   0  0  0  0  0  0  0  0  0  0  0  0
   39.3240   28.6080   40.8580 C   0  0  0  0  0  0  0  0  0  0  0  0
   39.6670   29.0510   42.1010 F   0  0  0  0  0  0  0  0  0  0  0  0
   40.4200   28.8150   40.0440 F   0  0  0  0  0  0  0  0  0  0  0  0
   39.1890   27.2210   40.9380 F   0  0  0  0  0  0  0  0  0  0  0  0
   34.6660   29.0050   39.2110 C   0  0  0  0  0  0  0  0  0  0  0  0
   34.5260   28.5450   37.8160 C   0  0  0  0  0  0  0  0  0  0  0  0
   35.6260   24.9410   37.6930 C   0  0  0  0  0  0  0  0  0  0  0  0
   35.5880   26.3220   37.9190 C   0  0  0  0  0  0  0  0  0  0  0  0
   34.5450   27.1220   37.5700 C   0  0  0  0  0  0  0  0  0  0  0  0
   33.5160   26.4930   36.9740 N   0  0  0  0  0  0  0  0  0  0  0  0
   33.5060   25.1700   36.7360 C   0  0  0  0  0  0  0  0  0  0  0  0
   34.5400   24.4020   37.0870 N   0  0  0  0  0  0  0  0  0  0  0  0
   33.1470   29.0130   37.3020 C   0  0  0  0  0  0  0  0  0  0  0  0
   35.5720   29.2590   36.9460 C   0  0  0  0  0  0  0  0  0  0  0  0
   36.2381   31.5087   39.1372 H   0  0  0  0  0  0  0  0  0  0  0  0
   39.5947   31.1338   39.2221 H   0  0  0  0  0  0  0  0  0  0  0  0
   38.6475   31.8796   42.3045 H   0  0  0  0  0  0  0  0  0  0  0  0
   40.1191   32.3215   42.1179 H   0  0  0  0  0  0  0  0  0  0  0  0
   37.7085   33.5354   40.2209 H   0  0  0  0  0  0  0  0  0  0  0  0
   39.1724   34.2043   38.6202 H   0  0  0  0  0  0  0  0  0  0  0  0
   37.7533   35.5421   40.5180 H   0  0  0  0  0  0  0  0  0  0  0  0
   39.3386   37.6556   40.2263 H   0  0  0  0  0  0  0  0  0  0  0  0
   41.3881   36.1844   38.8899 H   0  0  0  0  0  0  0  0  0  0  0  0
   41.7739   37.1621   40.3272 H   0  0  0  0  0  0  0  0  0  0  0  0
   42.5403   34.8973   40.8215 H   0  0  0  0  0  0  0  0  0  0  0  0
   41.0688   35.0789   41.7574 H   0  0  0  0  0  0  0  0  0  0  0  0
   40.9904   32.9936   40.3545 H   0  0  0  0  0  0  0  0  0  0  0  0
   41.2736   34.0160   38.8744 H   0  0  0  0  0  0  0  0  0  0  0  0
   34.3197   28.2010   39.8770 H   0  0  0  0  0  0  0  0  0  0  0  0
   34.0651   29.9214   39.3064 H   0  0  0  0  0  0  0  0  0  0  0  0
   36.4891   24.3275   37.9906 H   0  0  0  0  0  0  0  0  0  0  0  0
   36.4551   26.7889   38.4090 H   0  0  0  0  0  0  0  0  0  0  0  0
   32.6336   24.7139   36.2452 H   0  0  0  0  0  0  0  0  0  0  0  0
   32.4927   29.2350   38.1579 H   0  0  0  0  0  0  0  0  0  0  0  0
   33.2717   29.9192   36.6910 H   0  0  0  0  0  0  0  0  0  0  0  0
   32.6944   28.2182   36.6910 H   0  0  0  0  0  0  0  0  0  0  0  0
   36.3066   29.7605   37.5932 H   0  0  0  0  0  0  0  0  0  0  0  0
   36.0855   28.5221   36.3110 H   0  0  0  0  0  0  0  0  0  0  0  0
   35.0728   30.0057   36.3110 H   0  0  0  0  0  0  0  0  0  0  0  0
  1  5  2  0
  2  1  1  0
  2  3  2  0
  3  6  1  0
  3  4  1  0
  4 15  1  0
  5  4  1  0
  6  8  1  0
  6  7  1  0
  8  7  1  0
  9 14  1  0
  9 10  1  0
  9  8  1  0
 11 10  2  0
 12 11  1  0
 12 13  1  0
 14 13  1  0
 15 18  1  0
 15 16  1  0
 17 15  1  0
 19  1  1  0
 20 19  1  0
 21 22  2  0
 23 20  1  0
 23 22  1  0
 24 23  2  0
 25 24  1  0
 25 26  2  0
 26 21  1  0
 27 20  1  0
 28 20  1  0
  2 29  1  0
  6 30  1  6
  7 31  1  0
  7 32  1  0
  8 33  1  1
  9 34  1  6
 10 35  1  0
 11 36  1  0
 12 37  1  0
 12 38  1  0
 13 39  1  0
 13 40  1  0
 14 41  1  0
 14 42  1  0
 19 43  1  0
 19 44  1  0
 21 45  1  0
 22 46  1  0
 25 47  1  0
 27 48  1  0
 27 49  1  0
 27 50  1  0
 28 51  1  0
 28 52  1  0
 28 53  1  0
M  ISO  8  29  14  30  13  31  13  32  13  33  13  34  13  35  13  36  13
M  ISO  8  37  13  38  13  39  13  40  13  41  13  42  13  43   8  44   8
M  ISO  8  45  14  46  14  47  14  48   8  49   8  50   8  51   8  52   8
M  ISO  1  53   8
M  END
>  <minimizedAffinity>  (1) 
-5.27418184

>  <minimizedRMSD>  (1) 
3.71203256

$$$$
