
     RDKit          3D

 44 47  0  0  1  0  0  0  0  0999 V2000
   36.9960   30.0780   39.2170 C   0  0  0  0  0  0  0  0  0  0  0  0
   37.4390   31.3430   39.5840 C   0  0  0  0  0  0  0  0  0  0  0  0
   38.7690   31.5250   39.2450 C   0  0  0  0  0  0  0  0  0  0  0  0
   39.1120   30.3620   38.6780 N   0  0  0  0  0  0  0  0  0  0  0  0
   38.0930   29.5300   38.6600 N   0  0  0  0  0  0  0  0  0  0  0  0
   39.5850   32.7390   39.4840 C   0  0  2  0  0  0  0  0  0  0  0  0
   40.4940   32.7250   40.7440 C   0  0  0  0  0  0  0  0  0  0  0  0
   39.3600   33.6770   40.5700 C   0  0  1  0  0  0  0  0  0  0  0  0
   39.6390   35.1240   40.4310 C   0  0  0  0  0  0  0  0  0  0  0  0
   38.8540   36.0860   39.9350 N   0  0  0  0  0  0  0  0  0  0  0  0
   39.4700   37.2300   39.9920 O   0  0  0  0  0  0  0  0  0  0  0  0
   40.6710   37.0880   40.5170 C   0  0  0  0  0  0  0  0  0  0  0  0
   40.7770   35.7730   40.7930 N   0  0  0  0  0  0  0  0  0  0  0  0
   40.4230   30.0520   38.1610 C   0  0  0  0  0  0  0  0  0  0  0  0
   41.4040   29.9660   39.1070 F   0  0  0  0  0  0  0  0  0  0  0  0
   40.8460   30.9840   37.2330 F   0  0  0  0  0  0  0  0  0  0  0  0
   40.4080   28.8300   37.4790 F   0  0  0  0  0  0  0  0  0  0  0  0
   35.6570   29.4660   39.3770 C   0  0  0  0  0  0  0  0  0  0  0  0
   35.2000   28.7040   38.2100 C   0  0  0  0  0  0  0  0  0  0  0  0
   36.4050   25.2580   39.1420 C   0  0  0  0  0  0  0  0  0  0  0  0
   36.1770   26.6330   39.1220 C   0  0  0  0  0  0  0  0  0  0  0  0
   35.4130   27.2740   38.1960 C   0  0  0  0  0  0  0  0  0  0  0  0
   34.8630   26.4820   37.2600 N   0  0  0  0  0  0  0  0  0  0  0  0
   35.0530   25.1460   37.2330 C   0  0  0  0  0  0  0  0  0  0  0  0
   35.8020   24.5440   38.1450 N   0  0  0  0  0  0  0  0  0  0  0  0
   33.6620   28.8750   38.0930 C   0  0  0  0  0  0  0  0  0  0  0  0
   35.7850   29.3430   36.9370 C   0  0  0  0  0  0  0  0  0  0  0  0
   36.8144   32.1010   40.0793 H   0  0  0  0  0  0  0  0  0  0  0  0
   39.6786   32.8808   38.3972 H   0  0  0  0  0  0  0  0  0  0  0  0
   40.4263   31.9032   41.4721 H   0  0  0  0  0  0  0  0  0  0  0  0
   41.5723   32.8012   40.9476 H   0  0  0  0  0  0  0  0  0  0  0  0
   38.4643   33.9259   41.1581 H   0  0  0  0  0  0  0  0  0  0  0  0
   41.4227   37.8719   40.6917 H   0  0  0  0  0  0  0  0  0  0  0  0
   35.6895   28.7864   40.2414 H   0  0  0  0  0  0  0  0  0  0  0  0
   34.9455   30.2940   39.5118 H   0  0  0  0  0  0  0  0  0  0  0  0
   37.0296   24.7789   39.9103 H   0  0  0  0  0  0  0  0  0  0  0  0
   36.6468   27.2417   39.9086 H   0  0  0  0  0  0  0  0  0  0  0  0
   34.5785   24.5476   36.4413 H   0  0  0  0  0  0  0  0  0  0  0  0
   33.2209   28.9240   39.0995 H   0  0  0  0  0  0  0  0  0  0  0  0
   33.4367   29.8037   37.5483 H   0  0  0  0  0  0  0  0  0  0  0  0
   33.2382   28.0184   37.5483 H   0  0  0  0  0  0  0  0  0  0  0  0
   36.5032   30.1275   37.2174 H   0  0  0  0  0  0  0  0  0  0  0  0
   36.2973   28.5725   36.3421 H   0  0  0  0  0  0  0  0  0  0  0  0
   34.9724   29.7854   36.3421 H   0  0  0  0  0  0  0  0  0  0  0  0
  1 18  1  0
  1  2  1  0
  3  6  1  0
  3  2  2  0
  4  3  1  0
  5  4  1  0
  5  1  2  0
  6  8  1  0
  6  7  1  0
  8  7  1  0
  9  8  1  0
  9 13  1  0
 10 11  1  0
 10  9  2  0
 11 12  1  0
 12 13  2  0
 14  4  1  0
 14 15  1  0
 16 14  1  0
 17 14  1  0
 19 18  1  0
 21 20  2  0
 22 19  1  0
 22 21  1  0
 23 22  2  0
 24 23  1  0
 24 25  2  0
 25 20  1  0
 26 19  1  0
 27 19  1  0
  2 28  1  0
  6 29  1  6
  7 30  1  0
  7 31  1  0
  8 32  1  1
 12 33  1  0
 18 34  1  0
 18 35  1  0
 20 36  1  0
 21 37  1  0
 24 38  1  0
 26 39  1  0
 26 40  1  0
 26 41  1  0
 27 42  1  0
 27 43  1  0
 27 44  1  0
M  ISO  8  28  14  29  13  30  13  31  13  32  13  33  14  34   8  35   8
M  ISO  8  36  14  37  14  38  14  39   8  40   8  41   8  42   8  43   8
M  ISO  1  44   8
M  END
>  <minimizedAffinity>  (1) 
-5.17258549

>  <minimizedRMSD>  (1) 
2.96379542

$$$$
