
     RDKit          3D

 41 43  0  0  1  0  0  0  0  0999 V2000
   36.1040   30.6270   40.8570 C   0  0  0  0  0  0  0  0  0  0  0  0
   37.3610   31.3220   40.4900 C   0  0  0  0  0  0  0  0  0  0  0  0
   37.6030   32.6780   40.3150 C   0  0  0  0  0  0  0  0  0  0  0  0
   38.9190   32.9110   39.9620 C   0  0  0  0  0  0  0  0  0  0  0  0
   39.4630   31.6870   39.9290 N   0  0  0  0  0  0  0  0  0  0  0  0
   38.5640   30.7710   40.2330 N   0  0  0  0  0  0  0  0  0  0  0  0
   39.5530   34.2290   39.6960 C   0  0  2  0  0  0  0  0  0  0  0  0
   40.5170   34.7630   40.7910 C   0  0  0  0  0  0  0  0  0  0  0  0
   39.2430   35.4450   40.4230 C   0  0  1  0  0  0  0  0  0  0  0  0
   39.2340   36.6660   39.6690 N   0  0  0  0  0  0  0  0  0  0  0  0
   40.8400   31.4000   39.6160 C   0  0  0  0  0  0  0  0  0  0  0  0
   41.7360   31.8200   40.5560 F   0  0  0  0  0  0  0  0  0  0  0  0
   41.2250   31.9660   38.4180 F   0  0  0  0  0  0  0  0  0  0  0  0
   41.0350   30.0270   39.4490 F   0  0  0  0  0  0  0  0  0  0  0  0
   35.8830   29.3640   40.1300 C   0  0  0  0  0  0  0  0  0  0  0  0
   37.0250   26.8450   42.6870 C   0  0  0  0  0  0  0  0  0  0  0  0
   36.5790   28.0190   42.0690 C   0  0  0  0  0  0  0  0  0  0  0  0
   36.3440   28.1390   40.7350 C   0  0  0  0  0  0  0  0  0  0  0  0
   36.5730   27.0310   40.0140 N   0  0  0  0  0  0  0  0  0  0  0  0
   37.0030   25.8760   40.5570 C   0  0  0  0  0  0  0  0  0  0  0  0
   37.2250   25.7780   41.8610 N   0  0  0  0  0  0  0  0  0  0  0  0
   34.3570   29.1680   39.9640 C   0  0  0  0  0  0  0  0  0  0  0  0
   36.4480   29.5070   38.7020 C   0  0  0  0  0  0  0  0  0  0  0  0
   36.1329   30.4056   41.9341 H   0  0  0  0  0  0  0  0  0  0  0  0
   35.2773   31.2997   40.5849 H   0  0  0  0  0  0  0  0  0  0  0  0
   36.8452   33.4653   40.4410 H   0  0  0  0  0  0  0  0  0  0  0  0
   39.5683   33.9994   38.6203 H   0  0  0  0  0  0  0  0  0  0  0  0
   40.6127   34.2402   41.7541 H   0  0  0  0  0  0  0  0  0  0  0  0
   41.5800   35.0400   40.8493 H   0  0  0  0  0  0  0  0  0  0  0  0
   38.4031   35.7970   41.0399 H   0  0  0  0  0  0  0  0  0  0  0  0
   39.2281   37.4683   40.3149 H   0  0  0  0  0  0  0  0  0  0  0  0
   40.0747   36.7092   39.0755 H   0  0  0  0  0  0  0  0  0  0  0  0
   37.2031   26.7865   43.7709 H   0  0  0  0  0  0  0  0  0  0  0  0
   36.4076   28.9013   42.7032 H   0  0  0  0  0  0  0  0  0  0  0  0
   37.1724   25.0023   39.9105 H   0  0  0  0  0  0  0  0  0  0  0  0
   33.8851   29.1074   40.9558 H   0  0  0  0  0  0  0  0  0  0  0  0
   33.9362   30.0195   39.4091 H   0  0  0  0  0  0  0  0  0  0  0  0
   34.1650   28.2378   39.4091 H   0  0  0  0  0  0  0  0  0  0  0  0
   37.5132   29.7766   38.7544 H   0  0  0  0  0  0  0  0  0  0  0  0
   36.3373   28.5525   38.1666 H   0  0  0  0  0  0  0  0  0  0  0  0
   35.8965   30.2939   38.1666 H   0  0  0  0  0  0  0  0  0  0  0  0
  2  1  1  0
  3  2  1  0
  4  3  2  0
  5  4  1  0
  5  6  1  0
  6  2  2  0
  7  4  1  0
  7  9  1  0
  7  8  1  0
  9  8  1  0
 10  9  1  0
 11  5  1  0
 11 12  1  0
 13 11  1  0
 14 11  1  0
 15 18  1  0
 15  1  1  0
 17 16  2  0
 18 17  1  0
 19 20  1  0
 19 18  2  0
 20 21  2  0
 21 16  1  0
 22 15  1  0
 23 15  1  0
  1 24  1  0
  1 25  1  0
  3 26  1  0
  7 27  1  6
  8 28  1  0
  8 29  1  0
  9 30  1  1
 10 31  1  0
 10 32  1  0
 16 33  1  0
 17 34  1  0
 20 35  1  0
 22 36  1  0
 22 37  1  0
 22 38  1  0
 23 39  1  0
 23 40  1  0
 23 41  1  0
M  ISO  8  24   8  25   8  26  14  27  13  28  13  29  13  30  13  31   5
M  ISO  8  32   5  33  14  34  14  35  14  36   8  37   8  38   8  39   8
M  ISO  2  40   8  41   8
M  END
>  <minimizedAffinity>  (1) 
-5.1216383

>  <minimizedRMSD>  (1) 
0.736861289

$$$$
