
     RDKit          3D

 53 56  0  0  1  0  0  0  0  0999 V2000
   36.3310   28.9480   40.3010 C   0  0  0  0  0  0  0  0  0  0  0  0
   37.3770   29.8660   40.3340 C   0  0  0  0  0  0  0  0  0  0  0  0
   38.3740   29.4540   41.1960 C   0  0  0  0  0  0  0  0  0  0  0  0
   37.9220   28.2900   41.6790 N   0  0  0  0  0  0  0  0  0  0  0  0
   36.7420   27.9970   41.1630 N   0  0  0  0  0  0  0  0  0  0  0  0
   39.6400   30.1720   41.4980 C   0  0  2  0  0  0  0  0  0  0  0  0
   39.6820   30.9740   42.8240 C   0  0  0  0  0  0  0  0  0  0  0  0
   39.7790   31.6190   41.4980 C   0  0  1  0  0  0  0  0  0  0  0  0
   40.9650   32.1720   40.9630 N   0  0  0  0  0  0  0  0  0  0  0  0
   42.1220   32.0840   41.7810 C   0  0  0  0  0  0  0  0  0  0  0  0
   43.0540   33.2430   41.7560 C   0  0  0  0  0  0  0  0  0  0  0  0
   42.2290   34.4520   41.7750 N   0  0  0  0  0  0  0  0  0  0  0  0
   41.6090   34.5110   40.4770 C   0  0  0  0  0  0  0  0  0  0  0  0
   40.8680   33.2630   40.0880 C   0  0  0  0  0  0  0  0  0  0  0  0
   38.6120   27.4670   42.6410 C   0  0  0  0  0  0  0  0  0  0  0  0
   38.7580   28.0340   43.8740 F   0  0  0  0  0  0  0  0  0  0  0  0
   39.8780   27.1230   42.2080 F   0  0  0  0  0  0  0  0  0  0  0  0
   37.9330   26.2580   42.8300 F   0  0  0  0  0  0  0  0  0  0  0  0
   35.0730   28.9790   39.5180 C   0  0  0  0  0  0  0  0  0  0  0  0
   35.2160   28.5460   38.1280 C   0  0  0  0  0  0  0  0  0  0  0  0
   36.0610   24.8850   37.8400 C   0  0  0  0  0  0  0  0  0  0  0  0
   35.4040   26.0900   38.0880 C   0  0  0  0  0  0  0  0  0  0  0  0
   35.9340   27.3210   37.8560 C   0  0  0  0  0  0  0  0  0  0  0  0
   37.1850   27.3240   37.3500 N   0  0  0  0  0  0  0  0  0  0  0  0
   37.8630   26.1840   37.0930 C   0  0  0  0  0  0  0  0  0  0  0  0
   37.3230   24.9950   37.3280 N   0  0  0  0  0  0  0  0  0  0  0  0
   33.7960   28.3120   37.5480 C   0  0  0  0  0  0  0  0  0  0  0  0
   35.8200   29.7080   37.3100 C   0  0  0  0  0  0  0  0  0  0  0  0
   37.4056   30.7976   39.7499 H   0  0  0  0  0  0  0  0  0  0  0  0
   40.2046   29.3745   40.9929 H   0  0  0  0  0  0  0  0  0  0  0  0
   38.7743   31.0891   43.4346 H   0  0  0  0  0  0  0  0  0  0  0  0
   40.2858   30.9557   43.7433 H   0  0  0  0  0  0  0  0  0  0  0  0
   39.2252   32.4696   41.0739 H   0  0  0  0  0  0  0  0  0  0  0  0
   41.7852   31.9508   42.8197 H   0  0  0  0  0  0  0  0  0  0  0  0
   42.6998   31.2427   41.3706 H   0  0  0  0  0  0  0  0  0  0  0  0
   43.6659   33.2168   40.8423 H   0  0  0  0  0  0  0  0  0  0  0  0
   43.7365   33.2183   42.6183 H   0  0  0  0  0  0  0  0  0  0  0  0
   41.5139   34.3889   42.5136 H   0  0  0  0  0  0  0  0  0  0  0  0
   40.8971   35.3496   40.4731 H   0  0  0  0  0  0  0  0  0  0  0  0
   42.4210   34.6359   39.7456 H   0  0  0  0  0  0  0  0  0  0  0  0
   39.8030   33.5230   39.9969 H   0  0  0  0  0  0  0  0  0  0  0  0
   41.3416   32.9261   39.1541 H   0  0  0  0  0  0  0  0  0  0  0  0
   34.3445   28.3185   40.0110 H   0  0  0  0  0  0  0  0  0  0  0  0
   34.7475   30.0293   39.4879 H   0  0  0  0  0  0  0  0  0  0  0  0
   35.5939   23.9101   38.0432 H   0  0  0  0  0  0  0  0  0  0  0  0
   34.3854   26.0414   38.5003 H   0  0  0  0  0  0  0  0  0  0  0  0
   38.8814   26.2426   36.6814 H   0  0  0  0  0  0  0  0  0  0  0  0
   33.0779   28.1937   38.3729 H   0  0  0  0  0  0  0  0  0  0  0  0
   33.5057   29.1744   36.9300 H   0  0  0  0  0  0  0  0  0  0  0  0
   33.7977   27.4020   36.9300 H   0  0  0  0  0  0  0  0  0  0  0  0
   36.2168   30.4714   37.9954 H   0  0  0  0  0  0  0  0  0  0  0  0
   36.6336   29.3260   36.6760 H   0  0  0  0  0  0  0  0  0  0  0  0
   35.0398   30.1544   36.6760 H   0  0  0  0  0  0  0  0  0  0  0  0
  1  2  1  0
  1  5  2  0
  2  3  2  0
  3  6  1  0
  3  4  1  0
  4 15  1  0
  5  4  1  0
  6  7  1  0
  8  6  1  0
  8  7  1  0
  9  8  1  0
  9 10  1  0
 11 12  1  0
 11 10  1  0
 13 12  1  0
 14 13  1  0
 14  9  1  0
 15 18  1  0
 15 16  1  0
 17 15  1  0
 19  1  1  0
 20 19  1  0
 21 22  2  0
 23 22  1  0
 23 20  1  0
 24 23  2  0
 25 26  2  0
 25 24  1  0
 26 21  1  0
 27 20  1  0
 28 20  1  0
  2 29  1  0
  6 30  1  1
  7 31  1  0
  7 32  1  0
  8 33  1  6
 10 34  1  0
 10 35  1  0
 11 36  1  0
 11 37  1  0
 12 38  1  0
 13 39  1  0
 13 40  1  0
 14 41  1  0
 14 42  1  0
 19 43  1  0
 19 44  1  0
 21 45  1  0
 22 46  1  0
 25 47  1  0
 27 48  1  0
 27 49  1  0
 27 50  1  0
 28 51  1  0
 28 52  1  0
 28 53  1  0
M  ISO  8  29  14  30  13  31  13  32  13  33  13  34  13  35  13  36  13
M  ISO  8  37  13  38   5  39  13  40  13  41  13  42  13  43   8  44   8
M  ISO  8  45  14  46  14  47  14  48   8  49   8  50   8  51   8  52   8
M  ISO  1  53   8
M  END
>  <minimizedAffinity>  (1) 
-5.0550766

>  <minimizedRMSD>  (1) 
4.67804193

$$$$
