
     RDKit          3D

 40 42  0  0  1  0  0  0  0  0999 V2000
   36.0600   30.6320   40.8890 C   0  0  0  0  0  0  0  0  0  0  0  0
   37.3250   31.3620   40.6280 C   0  0  0  0  0  0  0  0  0  0  0  0
   37.5240   32.7040   40.3260 C   0  0  0  0  0  0  0  0  0  0  0  0
   38.8630   32.9870   40.1450 C   0  0  0  0  0  0  0  0  0  0  0  0
   39.4630   31.8060   40.3410 N   0  0  0  0  0  0  0  0  0  0  0  0
   38.5760   30.8640   40.6210 N   0  0  0  0  0  0  0  0  0  0  0  0
   39.4840   34.2920   39.8160 C   0  0  2  0  0  0  0  0  0  0  0  0
   40.3360   34.9410   40.9430 C   0  0  0  0  0  0  0  0  0  0  0  0
   39.0830   35.5540   40.4060 C   0  0  1  0  0  0  0  0  0  0  0  0
   39.1850   36.6550   39.5250 O   0  0  0  0  0  0  0  0  0  0  0  0
   40.8880   31.5690   40.2750 C   0  0  0  0  0  0  0  0  0  0  0  0
   41.5870   32.0560   41.3410 F   0  0  0  0  0  0  0  0  0  0  0  0
   41.4440   32.1300   39.1410 F   0  0  0  0  0  0  0  0  0  0  0  0
   41.1630   30.2090   40.1760 F   0  0  0  0  0  0  0  0  0  0  0  0
   35.9210   29.3820   40.1280 C   0  0  0  0  0  0  0  0  0  0  0  0
   37.0120   26.8530   42.7010 C   0  0  0  0  0  0  0  0  0  0  0  0
   36.5800   28.0360   42.0820 C   0  0  0  0  0  0  0  0  0  0  0  0
   36.3690   28.1530   40.7440 C   0  0  0  0  0  0  0  0  0  0  0  0
   36.6030   27.0460   40.0290 N   0  0  0  0  0  0  0  0  0  0  0  0
   37.0170   25.8890   40.5680 C   0  0  0  0  0  0  0  0  0  0  0  0
   37.2210   25.7900   41.8850 N   0  0  0  0  0  0  0  0  0  0  0  0
   34.4120   29.1570   39.8610 C   0  0  0  0  0  0  0  0  0  0  0  0
   36.5820   29.5640   38.7490 C   0  0  0  0  0  0  0  0  0  0  0  0
   36.0153   30.3906   41.9612 H   0  0  0  0  0  0  0  0  0  0  0  0
   35.2406   31.2919   40.5679 H   0  0  0  0  0  0  0  0  0  0  0  0
   36.7168   33.4465   40.2419 H   0  0  0  0  0  0  0  0  0  0  0  0
   39.5982   33.9767   38.7684 H   0  0  0  0  0  0  0  0  0  0  0  0
   40.3558   34.5024   41.9516 H   0  0  0  0  0  0  0  0  0  0  0  0
   41.3834   35.2518   41.0710 H   0  0  0  0  0  0  0  0  0  0  0  0
   38.1843   35.9340   40.9139 H   0  0  0  0  0  0  0  0  0  0  0  0
   39.2625   37.4911   40.0494 H   0  0  0  0  0  0  0  0  0  0  0  0
   37.1722   26.7913   43.7875 H   0  0  0  0  0  0  0  0  0  0  0  0
   36.4021   28.9180   42.7148 H   0  0  0  0  0  0  0  0  0  0  0  0
   37.1896   25.0160   39.9214 H   0  0  0  0  0  0  0  0  0  0  0  0
   33.8780   29.0774   40.8194 H   0  0  0  0  0  0  0  0  0  0  0  0
   34.0107   30.0052   39.2870 H   0  0  0  0  0  0  0  0  0  0  0  0
   34.2756   28.2286   39.2870 H   0  0  0  0  0  0  0  0  0  0  0  0
   37.6347   29.8539   38.8824 H   0  0  0  0  0  0  0  0  0  0  0  0
   36.5301   28.6182   38.1898 H   0  0  0  0  0  0  0  0  0  0  0  0
   36.0533   30.3500   38.1898 H   0  0  0  0  0  0  0  0  0  0  0  0
  2  1  1  0
  3  2  1  0
  4  3  2  0
  4  5  1  0
  5  6  1  0
  6  2  2  0
  7  4  1  0
  7  9  1  0
  7  8  1  0
  9  8  1  0
 10  9  1  0
 11  5  1  0
 11 12  1  0
 13 11  1  0
 14 11  1  0
 15 18  1  0
 15  1  1  0
 17 16  2  0
 18 17  1  0
 19 20  1  0
 19 18  2  0
 20 21  2  0
 21 16  1  0
 22 15  1  0
 23 15  1  0
  1 24  1  0
  1 25  1  0
  3 26  1  0
  7 27  1  6
  8 28  1  0
  8 29  1  0
  9 30  1  1
 10 31  1  0
 16 32  1  0
 17 33  1  0
 20 34  1  0
 22 35  1  0
 22 36  1  0
 22 37  1  0
 23 38  1  0
 23 39  1  0
 23 40  1  0
M  ISO  8  24   8  25   8  26  14  27  13  28  13  29  13  30  13  31   3
M  ISO  8  32  14  33  14  34  14  35   8  36   8  37   8  38   8  39   8
M  ISO  1  40   8
M  END
>  <minimizedAffinity>  (1) 
-5.12576103

>  <minimizedRMSD>  (1) 
0.440623015

$$$$
