
     RDKit          3D

 56 59  0  0  1  0  0  0  0  0999 V2000
   38.4630   29.0800   39.5720 C   0  0  1  0  0  0  0  0  0  0  0  0
   35.0290   29.1520   38.0310 C   0  0  0  0  0  0  0  0  0  0  0  0
   36.4140   29.1280   38.2160 C   0  0  0  0  0  0  0  0  0  0  0  0
   37.0300   29.0960   39.4130 C   0  0  0  0  0  0  0  0  0  0  0  0
   36.2040   29.0880   40.4600 N   0  0  0  0  0  0  0  0  0  0  0  0
   34.8700   29.1100   40.3570 C   0  0  0  0  0  0  0  0  0  0  0  0
   34.2850   29.1420   39.1650 N   0  0  0  0  0  0  0  0  0  0  0  0
   38.8290   27.5740   39.3790 C   0  0  0  0  0  0  0  0  0  0  0  0
   39.2990   29.8040   38.5990 C   0  0  0  0  0  0  0  0  0  0  0  0
   39.5450   31.2140   38.9950 C   0  0  0  0  0  0  0  0  0  0  0  0
   40.7450   31.8970   39.1140 C   0  0  0  0  0  0  0  0  0  0  0  0
   40.5700   33.1890   39.5460 C   0  0  0  0  0  0  0  0  0  0  0  0
   39.2530   33.2920   39.6850 N   0  0  0  0  0  0  0  0  0  0  0  0
   38.6520   32.1670   39.3720 N   0  0  0  0  0  0  0  0  0  0  0  0
   41.6180   34.2060   39.8090 C   0  0  2  0  0  0  0  0  0  0  0  0
   42.1540   34.9440   38.5340 C   0  0  0  0  0  0  0  0  0  0  0  0
   42.9980   34.0890   39.4400 C   0  0  1  0  0  0  0  0  0  0  0  0
   43.9170   34.6750   40.3150 O   0  0  0  0  0  0  0  0  0  0  0  0
   38.5540   34.4830   40.1160 C   0  0  0  0  0  0  0  0  0  0  0  0
   39.0180   35.6370   39.5350 F   0  0  0  0  0  0  0  0  0  0  0  0
   38.6260   34.6630   41.4730 F   0  0  0  0  0  0  0  0  0  0  0  0
   37.1980   34.3990   39.8090 F   0  0  0  0  0  0  0  0  0  0  0  0
   38.8580   29.4490   40.9810 C   0  0  0  0  0  0  0  0  0  0  0  0
   39.4180   28.5580   41.9520 C   0  0  0  0  0  0  0  0  0  0  0  0
   38.3890   28.5590   43.1510 C   0  0  0  0  0  0  0  0  0  0  0  0
   38.6080   27.3310   43.9450 C   0  0  0  0  0  0  0  0  0  0  0  0
   39.8850   26.6120   43.6850 C   0  0  0  0  0  0  0  0  0  0  0  0
   41.0170   27.5660   43.5700 C   0  0  0  0  0  0  0  0  0  0  0  0
   40.7110   28.7460   42.6290 C   0  0  0  0  0  0  0  0  0  0  0  0
   34.5720   29.1774   37.0308 H   0  0  0  0  0  0  0  0  0  0  0  0
   37.0480   29.1358   37.3171 H   0  0  0  0  0  0  0  0  0  0  0  0
   34.2526   29.1015   41.2674 H   0  0  0  0  0  0  0  0  0  0  0  0
   38.9452   27.0959   40.3628 H   0  0  0  0  0  0  0  0  0  0  0  0
   38.0271   27.0706   38.8191 H   0  0  0  0  0  0  0  0  0  0  0  0
   39.7725   27.4948   38.8191 H   0  0  0  0  0  0  0  0  0  0  0  0
   40.2668   29.2882   38.5133 H   0  0  0  0  0  0  0  0  0  0  0  0
   38.7596   29.8164   37.6404 H   0  0  0  0  0  0  0  0  0  0  0  0
   41.7264   31.4545   38.8881 H   0  0  0  0  0  0  0  0  0  0  0  0
   41.1529   34.4362   40.7789 H   0  0  0  0  0  0  0  0  0  0  0  0
   42.2700   36.0378   38.5251 H   0  0  0  0  0  0  0  0  0  0  0  0
   41.9070   34.9779   37.4626 H   0  0  0  0  0  0  0  0  0  0  0  0
   43.6764   33.2517   39.2196 H   0  0  0  0  0  0  0  0  0  0  0  0
   43.6413   34.4992   41.2494 H   0  0  0  0  0  0  0  0  0  0  0  0
   39.5938   30.2595   40.8729 H   0  0  0  0  0  0  0  0  0  0  0  0
   37.8633   29.6109   41.4218 H   0  0  0  0  0  0  0  0  0  0  0  0
   39.6097   27.6791   41.3188 H   0  0  0  0  0  0  0  0  0  0  0  0
   38.5525   29.4451   43.7819 H   0  0  0  0  0  0  0  0  0  0  0  0
   37.3580   28.5868   42.7685 H   0  0  0  0  0  0  0  0  0  0  0  0
   38.5874   27.6088   45.0092 H   0  0  0  0  0  0  0  0  0  0  0  0
   37.8079   26.6366   43.6490 H   0  0  0  0  0  0  0  0  0  0  0  0
   40.0825   25.9174   44.5148 H   0  0  0  0  0  0  0  0  0  0  0  0
   39.7916   26.0620   42.7370 H   0  0  0  0  0  0  0  0  0  0  0  0
   41.2440   27.9639   44.5701 H   0  0  0  0  0  0  0  0  0  0  0  0
   41.8704   27.0170   43.1454 H   0  0  0  0  0  0  0  0  0  0  0  0
   41.5062   28.8185   41.8724 H   0  0  0  0  0  0  0  0  0  0  0  0
   40.6632   29.6681   43.2268 H   0  0  0  0  0  0  0  0  0  0  0  0
  1  9  1  6
  1 23  1  0
  2  3  2  0
  2  7  1  0
  3  4  1  0
  4  1  1  0
  4  5  2  0
  6  5  1  0
  7  6  2  0
  8  1  1  0
  9 10  1  0
 10 11  1  0
 10 14  2  0
 11 12  2  0
 12 13  1  0
 12 15  1  0
 13 19  1  0
 14 13  1  0
 16 17  1  0
 16 15  1  0
 17 15  1  0
 17 18  1  0
 19 21  1  0
 20 19  1  0
 22 19  1  0
 23 24  1  0
 24 29  1  0
 24 25  1  0
 25 26  1  0
 27 26  1  0
 28 27  1  0
 29 28  1  0
  2 30  1  0
  3 31  1  0
  6 32  1  0
  8 33  1  0
  8 34  1  0
  8 35  1  0
  9 36  1  0
  9 37  1  0
 11 38  1  0
 15 39  1  1
 16 40  1  0
 16 41  1  0
 17 42  1  6
 18 43  1  0
 23 44  1  0
 23 45  1  0
 24 46  1  0
 25 47  1  0
 25 48  1  0
 26 49  1  0
 26 50  1  0
 27 51  1  0
 27 52  1  0
 28 53  1  0
 28 54  1  0
 29 55  1  0
 29 56  1  0
M  ISO  8  30  14  31  14  32  14  33   8  34   8  35   8  36   8  37   8
M  ISO  8  38  14  39  13  40  13  41  13  42  13  43   3  44   8  45   8
M  ISO  8  46  13  47  13  48  13  49  13  50  13  51  13  52  13  53  13
M  ISO  3  54  13  55  13  56  13
M  END
>  <minimizedAffinity>  (1) 
-5.86822796

>  <minimizedRMSD>  (1) 
5.18498659

$$$$
