
     RDKit          3D

 47 50  0  0  1  0  0  0  0  0999 V2000
   36.4910   31.1380   40.8330 C   0  0  0  0  0  0  0  0  0  0  0  0
   37.7540   31.8130   40.4560 C   0  0  0  0  0  0  0  0  0  0  0  0
   38.0230   33.1760   40.3490 C   0  0  0  0  0  0  0  0  0  0  0  0
   39.3260   33.4020   39.9540 C   0  0  0  0  0  0  0  0  0  0  0  0
   39.8370   32.1820   39.8260 N   0  0  0  0  0  0  0  0  0  0  0  0
   38.9400   31.2640   40.1140 N   0  0  0  0  0  0  0  0  0  0  0  0
   39.9910   34.7130   39.7330 C   0  0  2  0  0  0  0  0  0  0  0  0
   40.9520   35.1750   40.8860 C   0  0  0  0  0  0  0  0  0  0  0  0
   39.7080   35.9130   40.4660 C   0  0  1  0  0  0  0  0  0  0  0  0
   39.8100   37.1070   39.7440 O   0  0  0  0  0  0  0  0  0  0  0  0
   41.1870   31.8800   39.4350 C   0  0  0  0  0  0  0  0  0  0  0  0
   42.1350   32.2410   40.3620 F   0  0  0  0  0  0  0  0  0  0  0  0
   41.5400   32.5000   38.2640 F   0  0  0  0  0  0  0  0  0  0  0  0
   41.3530   30.5200   39.1910 F   0  0  0  0  0  0  0  0  0  0  0  0
   36.4510   29.7160   40.4490 C   0  0  1  0  0  0  0  0  0  0  0  0
   37.8590   28.1340   43.5760 C   0  0  0  0  0  0  0  0  0  0  0  0
   37.3640   29.0580   42.6460 C   0  0  0  0  0  0  0  0  0  0  0  0
   36.9590   28.7470   41.3970 C   0  0  0  0  0  0  0  0  0  0  0  0
   37.0640   27.4380   41.0850 N   0  0  0  0  0  0  0  0  0  0  0  0
   37.5300   26.5080   41.9350 C   0  0  0  0  0  0  0  0  0  0  0  0
   37.9210   26.8410   43.1560 N   0  0  0  0  0  0  0  0  0  0  0  0
   34.9600   29.3360   40.2800 C   0  0  0  0  0  0  0  0  0  0  0  0
   37.1370   29.5180   39.1010 C   0  0  0  0  0  0  0  0  0  0  0  0
   36.4030   29.9100   37.8930 C   0  0  0  0  0  0  0  0  0  0  0  0
   36.5220   29.4140   36.5470 C   0  0  0  0  0  0  0  0  0  0  0  0
   37.2230   30.7400   36.8790 C   0  0  0  0  0  0  0  0  0  0  0  0
   36.3702   31.2082   41.9241 H   0  0  0  0  0  0  0  0  0  0  0  0
   35.6780   31.6439   40.2916 H   0  0  0  0  0  0  0  0  0  0  0  0
   37.2903   33.9706   40.5533 H   0  0  0  0  0  0  0  0  0  0  0  0
   40.0164   34.5197   38.6504 H   0  0  0  0  0  0  0  0  0  0  0  0
   40.9867   34.6300   41.8409 H   0  0  0  0  0  0  0  0  0  0  0  0
   42.0224   35.4031   40.9963 H   0  0  0  0  0  0  0  0  0  0  0  0
   38.8522   36.2824   41.0502 H   0  0  0  0  0  0  0  0  0  0  0  0
   39.8751   37.8686   40.3732 H   0  0  0  0  0  0  0  0  0  0  0  0
   38.1782   28.4356   44.5846 H   0  0  0  0  0  0  0  0  0  0  0  0
   37.3011   30.1115   42.9561 H   0  0  0  0  0  0  0  0  0  0  0  0
   37.5876   25.4577   41.6133 H   0  0  0  0  0  0  0  0  0  0  0  0
   34.4971   29.2180   41.2709 H   0  0  0  0  0  0  0  0  0  0  0  0
   34.4399   30.1303   39.7245 H   0  0  0  0  0  0  0  0  0  0  0  0
   34.8835   28.3896   39.7245 H   0  0  0  0  0  0  0  0  0  0  0  0
   38.0706   30.0993   39.1201 H   0  0  0  0  0  0  0  0  0  0  0  0
   37.2563   28.4283   39.0097 H   0  0  0  0  0  0  0  0  0  0  0  0
   35.4987   29.9708   38.5163 H   0  0  0  0  0  0  0  0  0  0  0  0
   35.6413   29.4156   35.8879 H   0  0  0  0  0  0  0  0  0  0  0  0
   36.8584   28.4613   36.1120 H   0  0  0  0  0  0  0  0  0  0  0  0
   38.3193   30.7926   36.9525 H   0  0  0  0  0  0  0  0  0  0  0  0
   37.2155   31.7700   36.4930 H   0  0  0  0  0  0  0  0  0  0  0  0
  2  1  1  0
  3  2  1  0
  4  3  2  0
  5  4  1  0
  5  6  1  0
  6  2  2  0
  7  4  1  0
  7  9  1  0
  7  8  1  0
  9  8  1  0
 10  9  1  0
 11  5  1  0
 11 12  1  0
 13 11  1  0
 14 11  1  0
 15 23  1  6
 15  1  1  0
 15 18  1  0
 17 16  2  0
 18 17  1  0
 19 18  2  0
 19 20  1  0
 20 21  2  0
 21 16  1  0
 22 15  1  0
 24 23  1  0
 25 26  1  0
 25 24  1  0
 26 24  1  0
  1 27  1  0
  1 28  1  0
  3 29  1  0
  7 30  1  6
  8 31  1  0
  8 32  1  0
  9 33  1  1
 10 34  1  0
 16 35  1  0
 17 36  1  0
 20 37  1  0
 22 38  1  0
 22 39  1  0
 22 40  1  0
 23 41  1  0
 23 42  1  0
 24 43  1  0
 25 44  1  0
 25 45  1  0
 26 46  1  0
 26 47  1  0
M  ISO  8  27   8  28   8  29  14  30  13  31  13  32  13  33  13  34   3
M  ISO  8  35  14  36  14  37  14  38   8  39   8  40   8  41   8  42   8
M  ISO  5  43  13  44  13  45  13  46  13  47  13
M  END
>  <minimizedAffinity>  (1) 
-5.51507711

>  <minimizedRMSD>  (1) 
1.27500999

$$$$
