
     RDKit          3D

 55 58  0  0  1  0  0  0  0  0999 V2000
   36.3830   29.4400   40.2610 C   0  0  1  0  0  0  0  0  0  0  0  0
   37.1210   27.3480   43.2940 C   0  0  0  0  0  0  0  0  0  0  0  0
   36.8260   28.4210   42.4460 C   0  0  0  0  0  0  0  0  0  0  0  0
   36.6820   28.3160   41.1090 C   0  0  0  0  0  0  0  0  0  0  0  0
   36.8410   27.0830   40.6230 N   0  0  0  0  0  0  0  0  0  0  0  0
   37.1220   26.0150   41.3750 C   0  0  0  0  0  0  0  0  0  0  0  0
   37.2610   26.1390   42.6970 N   0  0  0  0  0  0  0  0  0  0  0  0
   34.9330   29.1480   39.7500 C   0  0  0  0  0  0  0  0  0  0  0  0
   36.3380   30.7930   40.8390 C   0  0  0  0  0  0  0  0  0  0  0  0
   37.5820   31.5640   40.5840 C   0  0  0  0  0  0  0  0  0  0  0  0
   37.7480   32.9150   40.3440 C   0  0  0  0  0  0  0  0  0  0  0  0
   39.0650   33.2500   40.1230 C   0  0  0  0  0  0  0  0  0  0  0  0
   39.7020   32.0870   40.2330 N   0  0  0  0  0  0  0  0  0  0  0  0
   38.8620   31.1130   40.4980 N   0  0  0  0  0  0  0  0  0  0  0  0
   39.6290   34.5930   39.8260 C   0  0  2  0  0  0  0  0  0  0  0  0
   40.5090   35.2040   40.9730 C   0  0  0  0  0  0  0  0  0  0  0  0
   39.2290   35.8130   40.4700 C   0  0  1  0  0  0  0  0  0  0  0  0
   39.2600   36.9580   39.6710 O   0  0  0  0  0  0  0  0  0  0  0  0
   41.1290   31.9050   40.0860 C   0  0  0  0  0  0  0  0  0  0  0  0
   41.8590   32.3620   41.1490 F   0  0  0  0  0  0  0  0  0  0  0  0
   41.6200   32.5320   38.9710 F   0  0  0  0  0  0  0  0  0  0  0  0
   41.4420   30.5570   39.9250 F   0  0  0  0  0  0  0  0  0  0  0  0
   37.2570   29.4290   39.0120 C   0  0  0  0  0  0  0  0  0  0  0  0
   36.6860   29.1990   37.7650 N   0  0  0  0  0  0  0  0  0  0  0  0
   36.1960   30.0690   36.8440 C   0  0  0  0  0  0  0  0  0  0  0  0
   35.5690   29.2650   35.6630 C   0  0  0  0  0  0  0  0  0  0  0  0
   36.8110   28.7990   34.8930 C   0  0  0  0  0  0  0  0  0  0  0  0
   37.7030   28.0080   35.8380 C   0  0  0  0  0  0  0  0  0  0  0  0
   37.0730   27.9000   37.2050 C   0  0  0  0  0  0  0  0  0  0  0  0
   37.2327   27.4777   44.3806 H   0  0  0  0  0  0  0  0  0  0  0  0
   36.7034   29.4157   42.8995 H   0  0  0  0  0  0  0  0  0  0  0  0
   37.2394   25.0286   40.9025 H   0  0  0  0  0  0  0  0  0  0  0  0
   34.2613   29.0127   40.6105 H   0  0  0  0  0  0  0  0  0  0  0  0
   34.5819   29.9935   39.1401 H   0  0  0  0  0  0  0  0  0  0  0  0
   34.9366   28.2325   39.1401 H   0  0  0  0  0  0  0  0  0  0  0  0
   35.4897   31.3367   40.3978 H   0  0  0  0  0  0  0  0  0  0  0  0
   36.2288   30.6868   41.9284 H   0  0  0  0  0  0  0  0  0  0  0  0
   36.9213   33.6406   40.3310 H   0  0  0  0  0  0  0  0  0  0  0  0
   39.7042   34.3337   38.7596 H   0  0  0  0  0  0  0  0  0  0  0  0
   40.5525   34.7259   41.9627 H   0  0  0  0  0  0  0  0  0  0  0  0
   41.5541   35.5231   41.0990 H   0  0  0  0  0  0  0  0  0  0  0  0
   38.3300   36.1521   41.0055 H   0  0  0  0  0  0  0  0  0  0  0  0
   39.2818   37.7624   40.2477 H   0  0  0  0  0  0  0  0  0  0  0  0
   37.7483   30.4118   38.9597 H   0  0  0  0  0  0  0  0  0  0  0  0
   37.9000   28.5491   39.1615 H   0  0  0  0  0  0  0  0  0  0  0  0
   35.4254   30.7017   37.3087 H   0  0  0  0  0  0  0  0  0  0  0  0
   37.0097   30.7060   36.4671 H   0  0  0  0  0  0  0  0  0  0  0  0
   34.9828   28.4095   36.0297 H   0  0  0  0  0  0  0  0  0  0  0  0
   34.8659   29.8516   35.0535 H   0  0  0  0  0  0  0  0  0  0  0  0
   36.5062   28.1607   34.0506 H   0  0  0  0  0  0  0  0  0  0  0  0
   37.3581   29.6697   34.5023 H   0  0  0  0  0  0  0  0  0  0  0  0
   37.8545   26.9978   35.4299 H   0  0  0  0  0  0  0  0  0  0  0  0
   38.6661   28.5307   35.9340 H   0  0  0  0  0  0  0  0  0  0  0  0
   36.1742   27.2706   37.1274 H   0  0  0  0  0  0  0  0  0  0  0  0
   37.8249   27.4635   37.8788 H   0  0  0  0  0  0  0  0  0  0  0  0
  1 23  1  6
  1  9  1  0
  1  4  1  0
  3  2  2  0
  4  3  1  0
  5  4  2  0
  5  6  1  0
  6  7  2  0
  7  2  1  0
  8  1  1  0
 10  9  1  0
 11 10  1  0
 12 13  1  0
 12 11  2  0
 13 14  1  0
 14 10  2  0
 15 12  1  0
 15 17  1  0
 15 16  1  0
 17 16  1  0
 18 17  1  0
 19 13  1  0
 19 20  1  0
 21 19  1  0
 22 19  1  0
 24 23  1  0
 25 24  1  0
 26 25  1  0
 27 26  1  0
 27 28  1  0
 28 29  1  0
 29 24  1  0
  2 30  1  0
  3 31  1  0
  6 32  1  0
  8 33  1  0
  8 34  1  0
  8 35  1  0
  9 36  1  0
  9 37  1  0
 11 38  1  0
 15 39  1  6
 16 40  1  0
 16 41  1  0
 17 42  1  1
 18 43  1  0
 23 44  1  0
 23 45  1  0
 25 46  1  0
 25 47  1  0
 26 48  1  0
 26 49  1  0
 27 50  1  0
 27 51  1  0
 28 52  1  0
 28 53  1  0
 29 54  1  0
 29 55  1  0
M  ISO  8  30  14  31  14  32  14  33   8  34   8  35   8  36   8  37   8
M  ISO  8  38  14  39  13  40  13  41  13  42  13  43   3  44   8  45   8
M  ISO  8  46  13  47  13  48  13  49  13  50  13  51  13  52  13  53  13
M  ISO  2  54  13  55  13
M  END
>  <minimizedAffinity>  (1) 
-5.47501612

>  <minimizedRMSD>  (1) 
1.60369587

$$$$
