
     RDKit          3D

 41 43  0  0  1  0  0  0  0  0999 V2000
   36.0600   30.6420   40.9130 C   0  0  0  0  0  0  0  0  0  0  0  0
   37.3250   31.3680   40.6450 C   0  0  0  0  0  0  0  0  0  0  0  0
   37.5210   32.7110   40.3330 C   0  0  0  0  0  0  0  0  0  0  0  0
   38.8600   32.9870   40.1430 C   0  0  0  0  0  0  0  0  0  0  0  0
   39.4550   31.8150   40.3430 N   0  0  0  0  0  0  0  0  0  0  0  0
   38.5690   30.8850   40.6320 N   0  0  0  0  0  0  0  0  0  0  0  0
   39.4800   34.3020   39.8020 C   0  0  2  0  0  0  0  0  0  0  0  0
   40.3180   34.9530   40.9600 C   0  0  0  0  0  0  0  0  0  0  0  0
   39.0740   35.5580   40.3680 C   0  0  1  0  0  0  0  0  0  0  0  0
   39.1830   36.6630   39.5180 O   0  0  0  0  0  0  0  0  0  0  0  0
   40.8750   31.5800   40.2610 C   0  0  0  0  0  0  0  0  0  0  0  0
   41.5870   32.0700   41.3250 F   0  0  0  0  0  0  0  0  0  0  0  0
   41.4300   32.1320   39.1360 F   0  0  0  0  0  0  0  0  0  0  0  0
   41.1550   30.2180   40.1700 F   0  0  0  0  0  0  0  0  0  0  0  0
   35.9010   29.4050   40.1410 C   0  0  1  0  0  0  0  0  0  0  0  0
   37.0220   26.8440   42.6780 C   0  0  0  0  0  0  0  0  0  0  0  0
   36.5810   28.0300   42.0690 C   0  0  0  0  0  0  0  0  0  0  0  0
   36.3590   28.1700   40.7470 C   0  0  0  0  0  0  0  0  0  0  0  0
   36.5930   27.0710   40.0210 N   0  0  0  0  0  0  0  0  0  0  0  0
   37.0150   25.9110   40.5380 C   0  0  0  0  0  0  0  0  0  0  0  0
   37.2270   25.7910   41.8420 N   0  0  0  0  0  0  0  0  0  0  0  0
   34.3990   29.1750   39.8880 C   0  0  0  0  0  0  0  0  0  0  0  0
   36.5460   29.5820   38.7560 C   0  0  0  0  0  0  0  0  0  0  0  0
   35.6250   29.0970   37.8180 O   0  0  0  0  0  0  0  0  0  0  0  0
   36.0284   30.3874   41.9827 H   0  0  0  0  0  0  0  0  0  0  0  0
   35.2414   31.3112   40.6096 H   0  0  0  0  0  0  0  0  0  0  0  0
   36.7145   33.4543   40.2490 H   0  0  0  0  0  0  0  0  0  0  0  0
   39.6065   33.9877   38.7555 H   0  0  0  0  0  0  0  0  0  0  0  0
   40.3064   34.5226   41.9722 H   0  0  0  0  0  0  0  0  0  0  0  0
   41.3619   35.2604   41.1203 H   0  0  0  0  0  0  0  0  0  0  0  0
   38.1543   35.9347   40.8393 H   0  0  0  0  0  0  0  0  0  0  0  0
   39.2644   37.4884   40.0586 H   0  0  0  0  0  0  0  0  0  0  0  0
   37.1909   26.7712   43.7625 H   0  0  0  0  0  0  0  0  0  0  0  0
   36.4049   28.9034   42.7142 H   0  0  0  0  0  0  0  0  0  0  0  0
   37.1876   25.0496   39.8760 H   0  0  0  0  0  0  0  0  0  0  0  0
   33.8731   29.0945   40.8508 H   0  0  0  0  0  0  0  0  0  0  0  0
   33.9897   30.0209   39.3163 H   0  0  0  0  0  0  0  0  0  0  0  0
   34.2616   28.2453   39.3163 H   0  0  0  0  0  0  0  0  0  0  0  0
   36.7542   30.6456   38.5679 H   0  0  0  0  0  0  0  0  0  0  0  0
   37.5001   29.0383   38.6914 H   0  0  0  0  0  0  0  0  0  0  0  0
   34.8552   28.6916   38.2905 H   0  0  0  0  0  0  0  0  0  0  0  0
  2  1  1  0
  3  2  1  0
  4  3  2  0
  4  5  1  0
  5  6  1  0
  6  2  2  0
  7  4  1  0
  7  9  1  0
  7  8  1  0
  9  8  1  0
 10  9  1  0
 11  5  1  0
 11 12  1  0
 13 11  1  0
 14 11  1  0
 15 23  1  6
 15 18  1  0
 15  1  1  0
 17 16  2  0
 18 17  1  0
 19 20  1  0
 19 18  2  0
 20 21  2  0
 21 16  1  0
 22 15  1  0
 24 23  1  0
  1 25  1  0
  1 26  1  0
  3 27  1  0
  7 28  1  6
  8 29  1  0
  8 30  1  0
  9 31  1  1
 10 32  1  0
 16 33  1  0
 17 34  1  0
 20 35  1  0
 22 36  1  0
 22 37  1  0
 22 38  1  0
 23 39  1  0
 23 40  1  0
 24 41  1  0
M  ISO  8  25   8  26   8  27  14  28  13  29  13  30  13  31  13  32   3
M  ISO  8  33  14  34  14  35  14  36   8  37   8  38   8  39   8  40   8
M  ISO  1  41   3
M  END
>  <minimizedAffinity>  (1) 
-4.96762276

>  <minimizedRMSD>  (1) 
0.226796627

$$$$
