
     RDKit          3D

 44 47  0  0  1  0  0  0  0  0999 V2000
   39.7430   31.1280   42.4390 C   0  0  0  0  0  0  0  0  0  0  0  0
   38.9950   30.0050   42.7720 C   0  0  0  0  0  0  0  0  0  0  0  0
   37.9590   29.6210   41.9150 C   0  0  0  0  0  0  0  0  0  0  0  0
   37.7590   30.3700   40.8240 N   0  0  0  0  0  0  0  0  0  0  0  0
   38.4870   31.4520   40.5130 C   0  0  0  0  0  0  0  0  0  0  0  0
   39.4880   31.8370   41.3270 N   0  0  0  0  0  0  0  0  0  0  0  0
   37.1260   28.4830   42.1490 N   0  0  0  0  0  0  0  0  0  0  0  0
   36.8660   28.0530   43.5400 C   0  0  0  0  0  0  0  0  0  0  0  0
   36.7690   26.5350   43.4830 C   0  0  0  0  0  0  0  0  0  0  0  0
   37.7820   26.0360   42.4920 C   0  0  0  0  0  0  0  0  0  0  0  0
   37.2980   26.3730   41.1070 C   0  0  0  0  0  0  0  0  0  0  0  0
   36.5150   27.7110   41.1550 C   0  0  2  0  0  0  0  0  0  0  0  0
   36.3080   28.2120   39.8120 C   0  0  0  0  0  0  0  0  0  0  0  0
   35.0810   28.8650   39.6120 C   0  0  0  0  0  0  0  0  0  0  0  0
   34.7400   29.4770   38.4140 C   0  0  0  0  0  0  0  0  0  0  0  0
   35.6330   29.4600   37.3380 C   0  0  0  0  0  0  0  0  0  0  0  0
   36.8350   28.8320   37.4950 C   0  0  0  0  0  0  0  0  0  0  0  0
   37.7840   28.7560   36.4870 C   0  0  0  0  0  0  0  0  0  0  0  0
   39.0170   28.1150   36.6280 C   0  0  0  0  0  0  0  0  0  0  0  0
   39.2500   27.5350   37.8750 C   0  0  0  0  0  0  0  0  0  0  0  0
   38.3270   27.6040   38.8700 C   0  0  0  0  0  0  0  0  0  0  0  0
   37.1240   28.2420   38.7030 C   0  0  0  0  0  0  0  0  0  0  0  0
   38.0580   32.0980   39.2380 C   0  0  0  0  0  0  0  0  0  0  0  0
   38.6540   31.4850   38.1470 F   0  0  0  0  0  0  0  0  0  0  0  0
   38.3710   33.4230   39.2640 F   0  0  0  0  0  0  0  0  0  0  0  0
   36.6800   32.0270   39.1270 F   0  0  0  0  0  0  0  0  0  0  0  0
   40.5627   31.4435   43.1013 H   0  0  0  0  0  0  0  0  0  0  0  0
   39.2123   29.4330   43.6861 H   0  0  0  0  0  0  0  0  0  0  0  0
   37.6913   28.3613   44.1987 H   0  0  0  0  0  0  0  0  0  0  0  0
   35.9486   28.5064   43.9434 H   0  0  0  0  0  0  0  0  0  0  0  0
   36.9795   26.1110   44.4759 H   0  0  0  0  0  0  0  0  0  0  0  0
   35.7571   26.2304   43.1775 H   0  0  0  0  0  0  0  0  0  0  0  0
   38.7516   26.5221   42.6752 H   0  0  0  0  0  0  0  0  0  0  0  0
   37.9066   24.9479   42.5944 H   0  0  0  0  0  0  0  0  0  0  0  0
   36.6374   25.5724   40.7426 H   0  0  0  0  0  0  0  0  0  0  0  0
   38.1575   26.4706   40.4274 H   0  0  0  0  0  0  0  0  0  0  0  0
   35.4653   27.6649   41.4807 H   0  0  0  0  0  0  0  0  0  0  0  0
   34.3586   28.8926   40.4411 H   0  0  0  0  0  0  0  0  0  0  0  0
   33.7654   29.9764   38.3106 H   0  0  0  0  0  0  0  0  0  0  0  0
   35.3723   29.9428   36.3846 H   0  0  0  0  0  0  0  0  0  0  0  0
   37.5526   29.2277   35.5206 H   0  0  0  0  0  0  0  0  0  0  0  0
   39.7534   28.0707   35.8120 H   0  0  0  0  0  0  0  0  0  0  0  0
   40.2001   27.0112   38.0566 H   0  0  0  0  0  0  0  0  0  0  0  0
   38.5513   27.1340   39.8389 H   0  0  0  0  0  0  0  0  0  0  0  0
  1  2  2  0
  3  7  1  0
  3  2  1  0
  4  3  2  0
  5  4  1  0
  5  6  2  0
  6  1  1  0
  7  8  1  0
  9  8  1  0
 10  9  1  0
 11 12  1  0
 11 10  1  0
 12  7  1  0
 13 12  1  0
 14 13  2  0
 15 14  1  0
 16 17  1  0
 16 15  2  0
 17 22  2  0
 18 19  2  0
 18 17  1  0
 19 20  1  0
 20 21  2  0
 22 21  1  0
 22 13  1  0
 23 25  1  0
 23  5  1  0
 24 23  1  0
 26 23  1  0
  1 27  1  0
  2 28  1  0
  8 29  1  0
  8 30  1  0
  9 31  1  0
  9 32  1  0
 10 33  1  0
 10 34  1  0
 11 35  1  0
 11 36  1  0
 12 37  1  1
 14 38  1  0
 15 39  1  0
 16 40  1  0
 18 41  1  0
 19 42  1  0
 20 43  1  0
 21 44  1  0
M  ISO  8  27  14  28  14  29  13  30  13  31  13  32  13  33  13  34  13
M  ISO  8  35  13  36  13  37  13  38  14  39  14  40  14  41  14  42  14
M  ISO  2  43  14  44  14
M  END
>  <minimizedAffinity>  (1) 
-6.04122591

>  <minimizedRMSD>  (1) 
1.39616036

$$$$
