
     RDKit          3D

 42 45  0  0  1  0  0  0  0  0999 V2000
   39.2720   30.9890   42.2030 C   0  0  0  0  0  0  0  0  0  0  0  0
   38.6860   29.7340   42.3720 C   0  0  0  0  0  0  0  0  0  0  0  0
   37.9070   29.2150   41.3420 C   0  0  0  0  0  0  0  0  0  0  0  0
   37.7680   29.9650   40.2390 N   0  0  0  0  0  0  0  0  0  0  0  0
   38.3340   31.1720   40.0830 C   0  0  0  0  0  0  0  0  0  0  0  0
   39.0880   31.6930   41.0590 N   0  0  0  0  0  0  0  0  0  0  0  0
   37.2580   27.9430   41.4010 N   0  0  0  0  0  0  0  0  0  0  0  0
   36.8350   27.4100   42.7170 C   0  0  0  0  0  0  0  0  0  0  0  0
   37.0510   25.9200   42.6570 C   0  0  0  0  0  0  0  0  0  0  0  0
   38.2670   25.6290   41.8250 C   0  0  0  0  0  0  0  0  0  0  0  0
   37.9590   25.9340   40.3870 C   0  0  0  0  0  0  0  0  0  0  0  0
   36.9730   27.1270   40.3020 C   0  0  2  0  0  0  0  0  0  0  0  0
   37.0000   27.6720   38.9490 C   0  0  0  0  0  0  0  0  0  0  0  0
   38.2370   27.5350   38.3750 N   0  0  0  0  0  0  0  0  0  0  0  0
   38.4910   27.8960   37.1050 C   0  0  0  0  0  0  0  0  0  0  0  0
   37.5230   28.4280   36.3010 N   0  0  0  0  0  0  0  0  0  0  0  0
   36.2970   28.5810   36.8250 C   0  0  0  0  0  0  0  0  0  0  0  0
   35.2150   29.1110   36.1250 C   0  0  0  0  0  0  0  0  0  0  0  0
   33.9620   29.2460   36.7300 C   0  0  0  0  0  0  0  0  0  0  0  0
   33.7550   28.8550   38.0520 C   0  0  0  0  0  0  0  0  0  0  0  0
   34.8270   28.3310   38.7400 C   0  0  0  0  0  0  0  0  0  0  0  0
   36.0330   28.2110   38.1280 C   0  0  0  0  0  0  0  0  0  0  0  0
   38.0220   31.7900   38.7540 C   0  0  0  0  0  0  0  0  0  0  0  0
   38.9170   31.3620   37.7860 F   0  0  0  0  0  0  0  0  0  0  0  0
   38.0550   33.1470   38.8530 F   0  0  0  0  0  0  0  0  0  0  0  0
   36.7290   31.4640   38.3820 F   0  0  0  0  0  0  0  0  0  0  0  0
   39.8909   31.4124   43.0078 H   0  0  0  0  0  0  0  0  0  0  0  0
   38.8368   29.1656   43.3016 H   0  0  0  0  0  0  0  0  0  0  0  0
   37.4432   27.8513   43.5204 H   0  0  0  0  0  0  0  0  0  0  0  0
   35.7835   27.6541   42.9288 H   0  0  0  0  0  0  0  0  0  0  0  0
   37.1993   25.5287   43.6743 H   0  0  0  0  0  0  0  0  0  0  0  0
   36.1713   25.4375   42.2061 H   0  0  0  0  0  0  0  0  0  0  0  0
   39.1047   26.2562   42.1640 H   0  0  0  0  0  0  0  0  0  0  0  0
   38.5444   24.5697   41.9294 H   0  0  0  0  0  0  0  0  0  0  0  0
   38.8901   26.1917   39.8610 H   0  0  0  0  0  0  0  0  0  0  0  0
   37.5007   25.0504   39.9188 H   0  0  0  0  0  0  0  0  0  0  0  0
   35.9035   26.8934   40.4098 H   0  0  0  0  0  0  0  0  0  0  0  0
   39.5055   27.7593   36.7025 H   0  0  0  0  0  0  0  0  0  0  0  0
   35.3489   29.4281   35.0802 H   0  0  0  0  0  0  0  0  0  0  0  0
   33.1255   29.6677   36.1534 H   0  0  0  0  0  0  0  0  0  0  0  0
   32.7696   28.9613   38.5292 H   0  0  0  0  0  0  0  0  0  0  0  0
   34.7061   28.0098   39.7851 H   0  0  0  0  0  0  0  0  0  0  0  0
  1  2  2  0
  3  7  1  0
  3  2  1  0
  4  3  2  0
  5  4  1  0
  5  6  2  0
  6  1  1  0
  7  8  1  0
  9  8  1  0
 10  9  1  0
 11 10  1  0
 12 11  1  0
 12  7  1  0
 13 12  1  0
 14 13  2  0
 15 14  1  0
 16 17  1  0
 16 15  2  0
 17 22  2  0
 18 19  2  0
 18 17  1  0
 19 20  1  0
 20 21  2  0
 22 21  1  0
 22 13  1  0
 23 25  1  0
 23  5  1  0
 24 23  1  0
 26 23  1  0
  1 27  1  0
  2 28  1  0
  8 29  1  0
  8 30  1  0
  9 31  1  0
  9 32  1  0
 10 33  1  0
 10 34  1  0
 11 35  1  0
 11 36  1  0
 12 37  1  1
 15 38  1  0
 18 39  1  0
 19 40  1  0
 20 41  1  0
 21 42  1  0
M  ISO  8  27  14  28  14  29  13  30  13  31  13  32  13  33  13  34  13
M  ISO  8  35  13  36  13  37  13  38  14  39  14  40  14  41  14  42  14
M  END
>  <minimizedAffinity>  (1) 
-5.71641588

>  <minimizedRMSD>  (1) 
2.16350031

$$$$
