
     RDKit          3D

 37 38  0  0  1  0  0  0  0  0999 V2000
   40.0380   31.1810   42.3850 C   0  0  0  0  0  0  0  0  0  0  0  0
   39.2390   30.0810   42.6830 C   0  0  0  0  0  0  0  0  0  0  0  0
   38.0380   29.9310   41.9950 C   0  0  0  0  0  0  0  0  0  0  0  0
   37.7390   30.8730   41.0830 N   0  0  0  0  0  0  0  0  0  0  0  0
   38.5150   31.9200   40.8070 C   0  0  0  0  0  0  0  0  0  0  0  0
   39.6710   32.0880   41.4520 N   0  0  0  0  0  0  0  0  0  0  0  0
   37.1260   28.8450   42.1930 N   0  0  0  0  0  0  0  0  0  0  0  0
   37.0690   28.2190   43.5430 C   0  0  0  0  0  0  0  0  0  0  0  0
   36.7620   26.7610   43.2950 C   0  0  0  0  0  0  0  0  0  0  0  0
   37.5390   26.3330   42.0660 C   0  0  0  0  0  0  0  0  0  0  0  0
   36.8770   26.9310   40.8670 C   0  0  0  0  0  0  0  0  0  0  0  0
   36.2530   28.3120   41.2410 C   0  0  2  0  0  0  0  0  0  0  0  0
   37.9440   32.7990   39.7310 C   0  0  0  0  0  0  0  0  0  0  0  0
   38.7570   32.7910   38.6070 F   0  0  0  0  0  0  0  0  0  0  0  0
   37.8200   34.0690   40.1990 F   0  0  0  0  0  0  0  0  0  0  0  0
   36.6680   32.3720   39.4140 F   0  0  0  0  0  0  0  0  0  0  0  0
   35.9900   29.0030   39.9390 C   0  0  0  0  0  0  0  0  0  0  0  0
   36.4690   28.3190   38.7120 C   0  0  0  0  0  0  0  0  0  0  0  0
   34.4870   29.1650   39.8110 C   0  0  0  0  0  0  0  0  0  0  0  0
   40.9894   31.3154   42.9206 H   0  0  0  0  0  0  0  0  0  0  0  0
   39.5487   29.3486   43.4430 H   0  0  0  0  0  0  0  0  0  0  0  0
   38.0347   28.3269   44.0586 H   0  0  0  0  0  0  0  0  0  0  0  0
   36.3110   28.6941   44.1831 H   0  0  0  0  0  0  0  0  0  0  0  0
   37.0709   26.1595   44.1626 H   0  0  0  0  0  0  0  0  0  0  0  0
   35.6828   26.6136   43.1411 H   0  0  0  0  0  0  0  0  0  0  0  0
   38.5764   26.6918   42.1370 H   0  0  0  0  0  0  0  0  0  0  0  0
   37.5526   25.2360   41.9865 H   0  0  0  0  0  0  0  0  0  0  0  0
   36.0840   26.2559   40.5130 H   0  0  0  0  0  0  0  0  0  0  0  0
   37.6246   27.0735   40.0727 H   0  0  0  0  0  0  0  0  0  0  0  0
   35.2717   28.3603   41.7356 H   0  0  0  0  0  0  0  0  0  0  0  0
   36.5579   29.9438   39.9869 H   0  0  0  0  0  0  0  0  0  0  0  0
   37.0791   27.4477   38.9924 H   0  0  0  0  0  0  0  0  0  0  0  0
   35.6057   27.9860   38.1171 H   0  0  0  0  0  0  0  0  0  0  0  0
   37.0771   29.0164   38.1171 H   0  0  0  0  0  0  0  0  0  0  0  0
   34.0368   29.2135   40.8135 H   0  0  0  0  0  0  0  0  0  0  0  0
   34.2635   30.0924   39.2634 H   0  0  0  0  0  0  0  0  0  0  0  0
   34.0710   28.3065   39.2634 H   0  0  0  0  0  0  0  0  0  0  0  0
  1  2  2  0
  3  7  1  0
  3  2  1  0
  4  3  2  0
  5  4  1  0
  5  6  2  0
  6  1  1  0
  7  8  1  0
  9  8  1  0
 10  9  1  0
 11 12  1  0
 11 10  1  0
 12  7  1  0
 13 15  1  0
 13  5  1  0
 14 13  1  0
 16 13  1  0
 17 12  1  0
 18 17  1  0
 19 17  1  0
  1 20  1  0
  2 21  1  0
  8 22  1  0
  8 23  1  0
  9 24  1  0
  9 25  1  0
 10 26  1  0
 10 27  1  0
 11 28  1  0
 11 29  1  0
 12 30  1  1
 17 31  1  0
 18 32  1  0
 18 33  1  0
 18 34  1  0
 19 35  1  0
 19 36  1  0
 19 37  1  0
M  ISO  8  20  14  21  14  22  13  23  13  24  13  25  13  26  13  27  13
M  ISO  8  28  13  29  13  30  13  31   8  32   8  33   8  34   8  35   8
M  ISO  2  36   8  37   8
M  END
>  <minimizedAffinity>  (1) 
-5.55482435

>  <minimizedRMSD>  (1) 
1.63521838

$$$$
