
     RDKit          3D

 40 41  0  0  1  0  0  0  0  0999 V2000
   39.7250   31.0910   42.5640 C   0  0  0  0  0  0  0  0  0  0  0  0
   39.0160   29.8790   42.6580 C   0  0  0  0  0  0  0  0  0  0  0  0
   37.9640   29.6570   41.7780 C   0  0  0  0  0  0  0  0  0  0  0  0
   37.6930   30.6120   40.8930 N   0  0  0  0  0  0  0  0  0  0  0  0
   38.3730   31.7600   40.8100 C   0  0  0  0  0  0  0  0  0  0  0  0
   39.3910   32.0100   41.6420 N   0  0  0  0  0  0  0  0  0  0  0  0
   37.1780   28.4590   41.7790 N   0  0  0  0  0  0  0  0  0  0  0  0
   36.9800   27.7470   43.0720 C   0  0  0  0  0  0  0  0  0  0  0  0
   36.9540   26.2590   42.7090 C   0  0  0  0  0  0  0  0  0  0  0  0
   37.9570   26.0250   41.6050 C   0  0  0  0  0  0  0  0  0  0  0  0
   37.3980   26.6230   40.3280 C   0  0  0  0  0  0  0  0  0  0  0  0
   36.5700   27.8590   40.6870 C   0  0  2  0  0  0  0  0  0  0  0  0
   37.8720   32.6490   39.7130 C   0  0  0  0  0  0  0  0  0  0  0  0
   38.7230   32.5950   38.6160 F   0  0  0  0  0  0  0  0  0  0  0  0
   37.7470   33.9290   40.1530 F   0  0  0  0  0  0  0  0  0  0  0  0
   36.6180   32.2400   39.3090 F   0  0  0  0  0  0  0  0  0  0  0  0
   36.0920   28.4400   39.4590 C   0  0  0  0  0  0  0  0  0  0  0  0
   34.8690   29.3250   39.6020 C   0  0  0  0  0  0  0  0  0  0  0  0
   35.5490   27.2180   38.6650 C   0  0  0  0  0  0  0  0  0  0  0  0
   37.1070   29.0160   38.5080 C   0  0  0  0  0  0  0  0  0  0  0  0
   40.5606   31.2881   43.2518 H   0  0  0  0  0  0  0  0  0  0  0  0
   39.2884   29.1247   43.4109 H   0  0  0  0  0  0  0  0  0  0  0  0
   37.8094   27.9617   43.7619 H   0  0  0  0  0  0  0  0  0  0  0  0
   36.0567   28.0634   43.5793 H   0  0  0  0  0  0  0  0  0  0  0  0
   37.2218   25.6563   43.5893 H   0  0  0  0  0  0  0  0  0  0  0  0
   35.9472   25.9668   42.3758 H   0  0  0  0  0  0  0  0  0  0  0  0
   38.9108   26.5110   41.8582 H   0  0  0  0  0  0  0  0  0  0  0  0
   38.1372   24.9477   41.4750 H   0  0  0  0  0  0  0  0  0  0  0  0
   36.7597   25.8840   39.8216 H   0  0  0  0  0  0  0  0  0  0  0  0
   38.2207   26.9054   39.6547 H   0  0  0  0  0  0  0  0  0  0  0  0
   35.5725   27.8150   41.1485 H   0  0  0  0  0  0  0  0  0  0  0  0
   34.6525   29.4817   40.6690 H   0  0  0  0  0  0  0  0  0  0  0  0
   35.0602   30.2953   39.1203 H   0  0  0  0  0  0  0  0  0  0  0  0
   34.0071   28.8400   39.1203 H   0  0  0  0  0  0  0  0  0  0  0  0
   35.2060   26.4460   39.3695 H   0  0  0  0  0  0  0  0  0  0  0  0
   34.7077   27.5365   38.0319 H   0  0  0  0  0  0  0  0  0  0  0  0
   36.3492   26.8071   38.0319 H   0  0  0  0  0  0  0  0  0  0  0  0
   37.9240   29.4796   39.0803 H   0  0  0  0  0  0  0  0  0  0  0  0
   37.5126   28.2135   37.8744 H   0  0  0  0  0  0  0  0  0  0  0  0
   36.6260   29.7757   37.8744 H   0  0  0  0  0  0  0  0  0  0  0  0
  1  2  2  0
  3  7  1  0
  3  2  1  0
  4  3  2  0
  5  4  1  0
  5  6  2  0
  6  1  1  0
  7  8  1  0
  9  8  1  0
 10  9  1  0
 11 12  1  0
 11 10  1  0
 12  7  1  0
 13 15  1  0
 13  5  1  0
 14 13  1  0
 16 13  1  0
 17 18  1  0
 17 12  1  0
 19 17  1  0
 20 17  1  0
  1 21  1  0
  2 22  1  0
  8 23  1  0
  8 24  1  0
  9 25  1  0
  9 26  1  0
 10 27  1  0
 10 28  1  0
 11 29  1  0
 11 30  1  0
 12 31  1  1
 18 32  1  0
 18 33  1  0
 18 34  1  0
 19 35  1  0
 19 36  1  0
 19 37  1  0
 20 38  1  0
 20 39  1  0
 20 40  1  0
M  ISO  8  21  14  22  14  23  13  24  13  25  13  26  13  27  13  28  13
M  ISO  8  29  13  30  13  31  13  32   8  33   8  34   8  35   8  36   8
M  ISO  4  37   8  38   8  39   8  40   8
M  END
>  <minimizedAffinity>  (1) 
-5.42125511

>  <minimizedRMSD>  (1) 
1.22108734

$$$$
