
     RDKit          3D

 31 32  0  0  1  0  0  0  0  0999 V2000
   39.2560   30.0510   42.6740 C   0  0  0  0  0  0  0  0  0  0  0  0
   38.6930   28.7720   42.6360 C   0  0  0  0  0  0  0  0  0  0  0  0
   37.7590   28.4900   41.6230 C   0  0  0  0  0  0  0  0  0  0  0  0
   37.4560   29.4650   40.7450 N   0  0  0  0  0  0  0  0  0  0  0  0
   38.0170   30.6890   40.8080 C   0  0  0  0  0  0  0  0  0  0  0  0
   38.9150   30.9860   41.7680 N   0  0  0  0  0  0  0  0  0  0  0  0
   37.1390   27.2170   41.5120 N   0  0  0  0  0  0  0  0  0  0  0  0
   36.8970   26.3780   42.6690 C   0  0  0  0  0  0  0  0  0  0  0  0
   37.0830   24.9460   42.2150 C   0  0  0  0  0  0  0  0  0  0  0  0
   38.1810   24.8970   41.1910 C   0  0  0  0  0  0  0  0  0  0  0  0
   37.6600   25.5270   39.9200 C   0  0  0  0  0  0  0  0  0  0  0  0
   36.7110   26.6670   40.2750 C   0  0  2  0  0  0  0  0  0  0  0  0
   37.5310   31.6030   39.7350 C   0  0  0  0  0  0  0  0  0  0  0  0
   38.4950   31.8360   38.7940 F   0  0  0  0  0  0  0  0  0  0  0  0
   37.0750   32.7820   40.2900 F   0  0  0  0  0  0  0  0  0  0  0  0
   36.4060   31.0270   39.1270 F   0  0  0  0  0  0  0  0  0  0  0  0
   36.5610   27.6390   39.1560 C   0  0  0  0  0  0  0  0  0  0  0  0
   39.9890   30.2970   43.4564 H   0  0  0  0  0  0  0  0  0  0  0  0
   38.9724   28.0084   43.3768 H   0  0  0  0  0  0  0  0  0  0  0  0
   37.6137   26.6184   43.4681 H   0  0  0  0  0  0  0  0  0  0  0  0
   35.8847   26.5379   43.0687 H   0  0  0  0  0  0  0  0  0  0  0  0
   37.3538   24.3180   43.0766 H   0  0  0  0  0  0  0  0  0  0  0  0
   36.1472   24.5708   41.7751 H   0  0  0  0  0  0  0  0  0  0  0  0
   39.0557   25.4565   41.5540 H   0  0  0  0  0  0  0  0  0  0  0  0
   38.4856   23.8564   41.0057 H   0  0  0  0  0  0  0  0  0  0  0  0
   37.1217   24.7713   39.3291 H   0  0  0  0  0  0  0  0  0  0  0  0
   38.5022   25.9185   39.3306 H   0  0  0  0  0  0  0  0  0  0  0  0
   35.6830   26.3018   40.4157 H   0  0  0  0  0  0  0  0  0  0  0  0
   36.4053   28.6481   39.5652 H   0  0  0  0  0  0  0  0  0  0  0  0
   37.4711   27.6303   38.5383 H   0  0  0  0  0  0  0  0  0  0  0  0
   35.6958   27.3563   38.5383 H   0  0  0  0  0  0  0  0  0  0  0  0
  2  1  2  0
  3  2  1  0
  4  5  1  0
  4  3  2  0
  5  6  2  0
  6  1  1  0
  7  3  1  0
  7  8  1  0
  9  8  1  0
 10  9  1  0
 11 12  1  0
 11 10  1  0
 12  7  1  0
 13 15  1  0
 13  5  1  0
 14 13  1  0
 16 13  1  0
 17 12  1  0
  1 18  1  0
  2 19  1  0
  8 20  1  0
  8 21  1  0
  9 22  1  0
  9 23  1  0
 10 24  1  0
 10 25  1  0
 11 26  1  0
 11 27  1  0
 12 28  1  1
 17 29  1  0
 17 30  1  0
 17 31  1  0
M  ISO  8  18  14  19  14  20  13  21  13  22  13  23  13  24  13  25  13
M  ISO  6  26  13  27  13  28  13  29   8  30   8  31   8
M  END
>  <minimizedAffinity>  (1) 
-4.59726715

>  <minimizedRMSD>  (1) 
0.023449067

$$$$
