
     RDKit          3D

 31 34  0  0  0  0  0  0  0  0999 V2000
   37.6750   28.8000   43.4990 C   0  0  0  0  0  0  0  0  0  0  0  0
   37.8430   27.4190   43.2890 C   0  0  0  0  0  0  0  0  0  0  0  0
   37.6210   26.9340   42.0120 C   0  0  0  0  0  0  0  0  0  0  0  0
   37.2540   27.8150   41.0310 N   0  0  0  0  0  0  0  0  0  0  0  0
   37.1020   29.1330   41.2700 C   0  0  0  0  0  0  0  0  0  0  0  0
   37.3170   29.6080   42.5120 N   0  0  0  0  0  0  0  0  0  0  0  0
   37.7220   25.6100   41.5470 N   0  0  0  0  0  0  0  0  0  0  0  0
   37.0040   24.6080   42.0090 C   0  0  0  0  0  0  0  0  0  0  0  0
   37.3710   23.4900   41.3280 N   0  0  0  0  0  0  0  0  0  0  0  0
   38.3290   23.8190   40.4360 C   0  0  0  0  0  0  0  0  0  0  0  0
   39.0630   23.1400   39.4970 C   0  0  0  0  0  0  0  0  0  0  0  0
   38.8700   21.8930   39.3550 O   0  0  0  0  0  0  0  0  0  0  0  0
   39.9780   23.8310   38.7480 N   0  0  0  0  0  0  0  0  0  0  0  0
   40.1780   25.1420   38.9010 C   0  0  0  0  0  0  0  0  0  0  0  0
   41.1260   25.8510   38.1260 N   0  0  0  0  0  0  0  0  0  0  0  0
   39.4580   25.8110   39.8220 N   0  0  0  0  0  0  0  0  0  0  0  0
   38.5610   25.1740   40.5680 C   0  0  0  0  0  0  0  0  0  0  0  0
   41.9530   22.4850   36.0730 N   0  0  0  0  0  0  0  0  0  0  0  0
   41.4300   23.4580   36.7520 N   0  0  0  0  0  0  0  0  0  0  0  0
   40.6880   23.0300   37.8020 C   0  0  0  0  0  0  0  0  0  0  0  0
   40.8140   21.6720   37.6910 C   0  0  0  0  0  0  0  0  0  0  0  0
   41.5990   21.3150   36.6170 C   0  0  0  0  0  0  0  0  0  0  0  0
   37.8443   29.2171   44.5027 H   0  0  0  0  0  0  0  0  0  0  0  0
   38.1399   26.7494   44.1097 H   0  0  0  0  0  0  0  0  0  0  0  0
   36.8053   29.8139   40.4586 H   0  0  0  0  0  0  0  0  0  0  0  0
   36.2444   24.6650   42.8026 H   0  0  0  0  0  0  0  0  0  0  0  0
   41.2554   26.8627   38.2696 H   0  0  0  0  0  0  0  0  0  0  0  0
   41.6867   25.3554   37.4183 H   0  0  0  0  0  0  0  0  0  0  0  0
   42.5502   22.5959   35.2412 H   0  0  0  0  0  0  0  0  0  0  0  0
   40.3446   20.9517   38.3772 H   0  0  0  0  0  0  0  0  0  0  0  0
   41.8716   20.3028   36.2838 H   0  0  0  0  0  0  0  0  0  0  0  0
  2  1  2  0
  3  2  1  0
  4  5  1  0
  4  3  2  0
  5  6  2  0
  6  1  1  0
  7  8  1  0
  7  3  1  0
  9  8  2  0
 10 17  2  0
 10  9  1  0
 11 10  1  0
 12 11  2  0
 13 14  1  0
 13 11  1  0
 14 16  2  0
 15 14  1  0
 16 17  1  0
 17  7  1  0
 18 22  1  0
 18 19  1  0
 19 20  2  0
 20 13  1  0
 21 20  1  0
 22 21  2  0
  1 23  1  0
  2 24  1  0
  5 25  1  0
  8 26  1  0
 15 27  1  0
 15 28  1  0
 18 29  1  0
 21 30  1  0
 22 31  1  0
M  ISO  7  23  14  24  14  25  14  26  14  29   9  30  14  31  14
M  END
>  <minimizedAffinity>  (1) 
-4.40782213

>  <minimizedRMSD>  (1) 
0.143009663

$$$$
