
     RDKit          3D

 36 38  0  0  0  0  0  0  0  0999 V2000
   37.6640   28.7420   43.5330 C   0  0  0  0  0  0  0  0  0  0  0  0
   37.8210   27.3630   43.3130 C   0  0  0  0  0  0  0  0  0  0  0  0
   37.6550   26.9190   42.0120 C   0  0  0  0  0  0  0  0  0  0  0  0
   37.3550   27.8240   41.0330 N   0  0  0  0  0  0  0  0  0  0  0  0
   37.2140   29.1390   41.2860 C   0  0  0  0  0  0  0  0  0  0  0  0
   37.3740   29.5850   42.5530 N   0  0  0  0  0  0  0  0  0  0  0  0
   37.7520   25.6080   41.5080 N   0  0  0  0  0  0  0  0  0  0  0  0
   36.9740   24.6090   41.9210 C   0  0  0  0  0  0  0  0  0  0  0  0
   37.3310   23.4940   41.2340 N   0  0  0  0  0  0  0  0  0  0  0  0
   38.3460   23.8190   40.3860 C   0  0  0  0  0  0  0  0  0  0  0  0
   39.1020   23.1290   39.4610 C   0  0  0  0  0  0  0  0  0  0  0  0
   38.8810   21.9110   39.2820 O   0  0  0  0  0  0  0  0  0  0  0  0
   40.0640   23.8100   38.7760 N   0  0  0  0  0  0  0  0  0  0  0  0
   40.2950   25.1110   38.9710 C   0  0  0  0  0  0  0  0  0  0  0  0
   41.3040   25.8380   38.2580 N   0  0  0  0  0  0  0  0  0  0  0  0
   39.5570   25.7810   39.8730 N   0  0  0  0  0  0  0  0  0  0  0  0
   38.6130   25.1690   40.5640 C   0  0  0  0  0  0  0  0  0  0  0  0
   40.8750   23.1220   37.7990 C   0  0  0  0  0  0  0  0  0  0  0  0
   42.3490   23.3770   38.0720 C   0  0  0  0  0  0  0  0  0  0  0  0
   40.5920   23.5990   36.3880 C   0  0  0  0  0  0  0  0  0  0  0  0
   40.6990   21.6290   37.7780 C   0  0  0  0  0  0  0  0  0  0  0  0
   37.7860   29.1347   44.5532 H   0  0  0  0  0  0  0  0  0  0  0  0
   38.0636   26.6711   44.1330 H   0  0  0  0  0  0  0  0  0  0  0  0
   36.9722   29.8405   40.4740 H   0  0  0  0  0  0  0  0  0  0  0  0
   36.1833   24.6756   42.6828 H   0  0  0  0  0  0  0  0  0  0  0  0
   41.4441   26.8413   38.4439 H   0  0  0  0  0  0  0  0  0  0  0  0
   41.8889   25.3570   37.5598 H   0  0  0  0  0  0  0  0  0  0  0  0
   42.5210   23.4067   39.1581 H   0  0  0  0  0  0  0  0  0  0  0  0
   42.9493   22.5694   37.6277 H   0  0  0  0  0  0  0  0  0  0  0  0
   42.6431   24.3394   37.6277 H   0  0  0  0  0  0  0  0  0  0  0  0
   40.0311   24.5445   36.4262 H   0  0  0  0  0  0  0  0  0  0  0  0
   41.5422   23.7576   35.8570 H   0  0  0  0  0  0  0  0  0  0  0  0
   39.9974   22.8410   35.8570 H   0  0  0  0  0  0  0  0  0  0  0  0
   40.6544   21.2505   38.8099 H   0  0  0  0  0  0  0  0  0  0  0  0
   39.7650   21.3772   37.2544 H   0  0  0  0  0  0  0  0  0  0  0  0
   41.5489   21.1669   37.2544 H   0  0  0  0  0  0  0  0  0  0  0  0
  2  1  2  0
  3  2  1  0
  4  5  1  0
  4  3  2  0
  5  6  2  0
  6  1  1  0
  7  8  1  0
  7  3  1  0
  9  8  2  0
 10 17  2  0
 10  9  1  0
 11 10  1  0
 12 11  2  0
 13 14  1  0
 13 11  1  0
 14 16  2  0
 15 14  1  0
 16 17  1  0
 17  7  1  0
 18 19  1  0
 18 13  1  0
 20 18  1  0
 21 18  1  0
  1 22  1  0
  2 23  1  0
  5 24  1  0
  8 25  1  0
 15 26  1  0
 15 27  1  0
 19 28  1  0
 19 29  1  0
 19 30  1  0
 20 31  1  0
 20 32  1  0
 20 33  1  0
 21 34  1  0
 21 35  1  0
 21 36  1  0
M  ISO  8  22  14  23  14  24  14  25  14  28   8  29   8  30   8  31   8
M  ISO  5  32   8  33   8  34   8  35   8  36   8
M  END
>  <minimizedAffinity>  (1) 
-4.19319487

>  <minimizedRMSD>  (1) 
0.238497287

$$$$
