
     RDKit          3D

 27 29  0  0  0  0  0  0  0  0999 V2000
   37.6460   28.7340   43.5590 C   0  0  0  0  0  0  0  0  0  0  0  0
   37.7650   27.3610   43.3210 C   0  0  0  0  0  0  0  0  0  0  0  0
   37.6340   26.9130   42.0190 C   0  0  0  0  0  0  0  0  0  0  0  0
   37.3950   27.8360   41.0430 N   0  0  0  0  0  0  0  0  0  0  0  0
   37.2850   29.1530   41.2990 C   0  0  0  0  0  0  0  0  0  0  0  0
   37.4130   29.5880   42.5590 N   0  0  0  0  0  0  0  0  0  0  0  0
   37.7110   25.5960   41.5190 N   0  0  0  0  0  0  0  0  0  0  0  0
   36.9010   24.6210   41.8920 C   0  0  0  0  0  0  0  0  0  0  0  0
   37.2570   23.5050   41.2200 N   0  0  0  0  0  0  0  0  0  0  0  0
   38.3100   23.8020   40.4150 C   0  0  0  0  0  0  0  0  0  0  0  0
   39.0910   23.1000   39.5150 C   0  0  0  0  0  0  0  0  0  0  0  0
   38.8450   21.8820   39.3250 O   0  0  0  0  0  0  0  0  0  0  0  0
   40.0940   23.7710   38.8760 N   0  0  0  0  0  0  0  0  0  0  0  0
   40.3480   25.0670   39.0850 C   0  0  0  0  0  0  0  0  0  0  0  0
   41.3960   25.7300   38.4060 N   0  0  0  0  0  0  0  0  0  0  0  0
   39.5920   25.7550   39.9600 N   0  0  0  0  0  0  0  0  0  0  0  0
   38.6040   25.1520   40.6080 C   0  0  0  0  0  0  0  0  0  0  0  0
   40.8740   22.9750   37.9470 C   0  0  0  0  0  0  0  0  0  0  0  0
   40.5500   21.6530   37.9760 F   0  0  0  0  0  0  0  0  0  0  0  0
   42.2110   23.0660   38.3550 F   0  0  0  0  0  0  0  0  0  0  0  0
   40.7770   23.4750   36.6430 F   0  0  0  0  0  0  0  0  0  0  0  0
   37.7458   29.1164   44.5856 H   0  0  0  0  0  0  0  0  0  0  0  0
   37.9571   26.6581   44.1450 H   0  0  0  0  0  0  0  0  0  0  0  0
   37.0921   29.8640   40.4822 H   0  0  0  0  0  0  0  0  0  0  0  0
   36.0815   24.7037   42.6211 H   0  0  0  0  0  0  0  0  0  0  0  0
   41.5733   26.7291   38.5829 H   0  0  0  0  0  0  0  0  0  0  0  0
   41.9821   25.2139   37.7344 H   0  0  0  0  0  0  0  0  0  0  0  0
  2  1  2  0
  3  2  1  0
  4  5  1  0
  4  3  2  0
  5  6  2  0
  6  1  1  0
  7  8  1  0
  7  3  1  0
  9  8  2  0
 10 17  2  0
 10  9  1  0
 11 10  1  0
 12 11  2  0
 13 14  1  0
 13 11  1  0
 14 16  2  0
 15 14  1  0
 16 17  1  0
 17  7  1  0
 18 19  1  0
 18 20  1  0
 18 13  1  0
 21 18  1  0
  1 22  1  0
  2 23  1  0
  5 24  1  0
  8 25  1  0
 15 26  1  0
 15 27  1  0
M  ISO  4  22  14  23  14  24  14  25  14
M  END
>  <minimizedAffinity>  (1) 
-4.1700058

>  <minimizedRMSD>  (1) 
0.311606407

$$$$
