
     RDKit          3D

 31 34  0  0  0  0  0  0  0  0999 V2000
   37.6570   28.6150   43.5950 C   0  0  0  0  0  0  0  0  0  0  0  0
   37.8370   27.2630   43.3000 C   0  0  0  0  0  0  0  0  0  0  0  0
   37.6450   26.8430   41.9820 C   0  0  0  0  0  0  0  0  0  0  0  0
   37.2930   27.7700   41.0690 N   0  0  0  0  0  0  0  0  0  0  0  0
   37.1260   29.0720   41.3790 C   0  0  0  0  0  0  0  0  0  0  0  0
   37.3100   29.4790   42.6460 N   0  0  0  0  0  0  0  0  0  0  0  0
   37.7710   25.5390   41.4550 N   0  0  0  0  0  0  0  0  0  0  0  0
   37.0460   24.5120   41.8550 C   0  0  0  0  0  0  0  0  0  0  0  0
   37.4470   23.4330   41.1290 N   0  0  0  0  0  0  0  0  0  0  0  0
   38.4330   23.8240   40.2740 C   0  0  0  0  0  0  0  0  0  0  0  0
   39.1990   23.1920   39.3240 C   0  0  0  0  0  0  0  0  0  0  0  0
   39.0340   21.9630   39.1110 O   0  0  0  0  0  0  0  0  0  0  0  0
   40.1080   23.9250   38.6520 N   0  0  0  0  0  0  0  0  0  0  0  0
   40.3060   25.2470   38.8630 C   0  0  0  0  0  0  0  0  0  0  0  0
   41.2680   26.0100   38.1460 N   0  0  0  0  0  0  0  0  0  0  0  0
   39.5510   25.8650   39.7970 N   0  0  0  0  0  0  0  0  0  0  0  0
   38.6490   25.1790   40.4760 C   0  0  0  0  0  0  0  0  0  0  0  0
   40.9020   23.2480   37.6630 C   0  0  0  0  0  0  0  0  0  0  0  0
   42.0740   22.6010   37.7820 C   0  0  0  0  0  0  0  0  0  0  0  0
   42.6720   22.0170   36.7050 C   0  0  0  0  0  0  0  0  0  0  0  0
   41.8790   22.1890   35.4350 C   0  0  0  0  0  0  0  0  0  0  0  0
   40.3880   23.1750   36.0150 S   0  0  0  0  0  0  0  0  0  0  0  0
   37.8041   28.9703   44.6256 H   0  0  0  0  0  0  0  0  0  0  0  0
   38.1225   26.5471   44.0848 H   0  0  0  0  0  0  0  0  0  0  0  0
   36.8413   29.7950   40.6004 H   0  0  0  0  0  0  0  0  0  0  0  0
   36.2648   24.5253   42.6293 H   0  0  0  0  0  0  0  0  0  0  0  0
   41.3802   27.0145   38.3442 H   0  0  0  0  0  0  0  0  0  0  0  0
   41.8527   25.5582   37.4284 H   0  0  0  0  0  0  0  0  0  0  0  0
   42.5599   22.5415   38.7671 H   0  0  0  0  0  0  0  0  0  0  0  0
   43.6297   21.4785   36.7573 H   0  0  0  0  0  0  0  0  0  0  0  0
   42.1139   21.8281   34.4228 H   0  0  0  0  0  0  0  0  0  0  0  0
  2  1  2  0
  3  2  1  0
  4  5  1  0
  4  3  2  0
  5  6  2  0
  6  1  1  0
  7  8  1  0
  7  3  1  0
  9  8  2  0
 10 17  2  0
 10  9  1  0
 11 10  1  0
 12 11  2  0
 13 14  1  0
 13 11  1  0
 14 16  2  0
 15 14  1  0
 16 17  1  0
 17  7  1  0
 18 19  2  0
 18 13  1  0
 20 19  1  0
 21 22  1  0
 21 20  2  0
 22 18  1  0
  1 23  1  0
  2 24  1  0
  5 25  1  0
  8 26  1  0
 15 27  1  0
 15 28  1  0
 19 29  1  0
 20 30  1  0
 21 31  1  0
M  ISO  7  23  14  24  14  25  14  26  14  29  14  30  14  31  14
M  END
>  <minimizedAffinity>  (1) 
-4.16431665

>  <minimizedRMSD>  (1) 
0.266418457

$$$$
