
     RDKit          3D

 24 26  0  0  0  0  0  0  0  0999 V2000
   38.4270   32.5370   40.6370 C   0  0  0  0  0  0  0  0  0  0  0  0
   37.1820   32.3040   40.0680 C   0  0  0  0  0  0  0  0  0  0  0  0
   36.7510   31.1320   40.6420 C   0  0  0  0  0  0  0  0  0  0  0  0
   37.6650   30.6690   41.5070 N   0  0  0  0  0  0  0  0  0  0  0  0
   38.6810   31.5260   41.5000 N   0  0  0  0  0  0  0  0  0  0  0  0
   40.6390   33.5710   40.0800 C   0  0  0  0  0  0  0  0  0  0  0  0
   39.2710   33.6810   40.3270 C   0  0  0  0  0  0  0  0  0  0  0  0
   38.6660   34.9450   40.2790 C   0  0  0  0  0  0  0  0  0  0  0  0
   39.4760   36.0220   39.9850 N   0  0  0  0  0  0  0  0  0  0  0  0
   40.8110   35.8620   39.7510 C   0  0  0  0  0  0  0  0  0  0  0  0
   41.3850   34.6440   39.7990 N   0  0  0  0  0  0  0  0  0  0  0  0
   37.8040   29.5520   42.3780 C   0  0  0  0  0  0  0  0  0  0  0  0
   38.8880   28.6750   42.4740 C   0  0  0  0  0  0  0  0  0  0  0  0
   38.5960   27.7670   43.4260 N   0  0  0  0  0  0  0  0  0  0  0  0
   37.3760   28.0590   43.9120 C   0  0  0  0  0  0  0  0  0  0  0  0
   36.8890   29.1430   43.2790 N   0  0  0  0  0  0  0  0  0  0  0  0
   36.6573   32.9205   39.3233 H   0  0  0  0  0  0  0  0  0  0  0  0
   35.7907   30.6424   40.4226 H   0  0  0  0  0  0  0  0  0  0  0  0
   41.1145   32.5798   40.1172 H   0  0  0  0  0  0  0  0  0  0  0  0
   37.5899   35.0724   40.4680 H   0  0  0  0  0  0  0  0  0  0  0  0
   41.4287   36.7422   39.5193 H   0  0  0  0  0  0  0  0  0  0  0  0
   39.8126   28.7181   41.8797 H   0  0  0  0  0  0  0  0  0  0  0  0
   36.8568   27.4990   44.7037 H   0  0  0  0  0  0  0  0  0  0  0  0
   35.9746   29.5838   43.4534 H   0  0  0  0  0  0  0  0  0  0  0  0
  1  5  2  0
  2  1  1  0
  2  3  2  0
  3  4  1  0
  4 12  1  0
  5  4  1  0
  6  7  2  0
  7  1  1  0
  8  7  1  0
  9  8  2  0
 10 11  2  0
 10  9  1  0
 11  6  1  0
 12 13  2  0
 12 16  1  0
 13 14  1  0
 14 15  2  0
 16 15  1  0
  2 17  1  0
  3 18  1  0
  6 19  1  0
  8 20  1  0
 10 21  1  0
 13 22  1  0
 15 23  1  0
 16 24  1  0
M  ISO  8  17  14  18  14  19  14  20  14  21  14  22  14  23  14  24   9
M  END
>  <minimizedAffinity>  (1) 
-5.4128294

>  <minimizedRMSD>  (1) 
6.20921087

$$$$
