
     RDKit          3D

 37 40  0  0  0  0  0  0  0  0999 V2000
   37.7300   28.7190   43.5420 C   0  0  0  0  0  0  0  0  0  0  0  0
   37.9170   27.3520   43.2970 C   0  0  0  0  0  0  0  0  0  0  0  0
   37.6710   26.8870   41.9950 C   0  0  0  0  0  0  0  0  0  0  0  0
   37.2710   27.7800   41.0670 N   0  0  0  0  0  0  0  0  0  0  0  0
   37.1000   29.0890   41.3330 C   0  0  0  0  0  0  0  0  0  0  0  0
   37.3350   29.5440   42.5820 N   0  0  0  0  0  0  0  0  0  0  0  0
   37.7840   25.5780   41.5000 N   0  0  0  0  0  0  0  0  0  0  0  0
   37.0930   24.5530   41.9550 C   0  0  0  0  0  0  0  0  0  0  0  0
   37.4620   23.4500   41.2410 N   0  0  0  0  0  0  0  0  0  0  0  0
   38.3930   23.8270   40.3420 C   0  0  0  0  0  0  0  0  0  0  0  0
   39.1270   23.1770   39.3620 C   0  0  0  0  0  0  0  0  0  0  0  0
   38.9710   21.9450   39.1800 O   0  0  0  0  0  0  0  0  0  0  0  0
   40.0000   23.8980   38.6240 N   0  0  0  0  0  0  0  0  0  0  0  0
   40.1920   25.2300   38.7960 C   0  0  0  0  0  0  0  0  0  0  0  0
   41.1110   25.9690   38.0130 N   0  0  0  0  0  0  0  0  0  0  0  0
   39.4770   25.8590   39.7480 N   0  0  0  0  0  0  0  0  0  0  0  0
   38.6050   25.1840   40.4990 C   0  0  0  0  0  0  0  0  0  0  0  0
   42.1550   22.1140   35.4600 C   0  0  0  0  0  0  0  0  0  0  0  0
   40.9000   22.6950   35.2870 C   0  0  0  0  0  0  0  0  0  0  0  0
   40.1940   23.2830   36.3390 C   0  0  0  0  0  0  0  0  0  0  0  0
   40.7810   23.2810   37.6030 C   0  0  0  0  0  0  0  0  0  0  0  0
   42.0260   22.7090   37.7960 C   0  0  0  0  0  0  0  0  0  0  0  0
   42.7010   22.1330   36.7340 C   0  0  0  0  0  0  0  0  0  0  0  0
   42.9750   21.3960   34.0840 S   0  0  0  0  0  0  0  0  0  0  0  0
   43.7270   22.4760   33.3180 O   0  0  0  0  0  0  0  0  0  0  0  0
   43.8880   20.2800   34.4840 O   0  0  0  0  0  0  0  0  0  0  0  0
   37.9146   29.1157   44.5512 H   0  0  0  0  0  0  0  0  0  0  0  0
   38.2442   26.6688   44.0946 H   0  0  0  0  0  0  0  0  0  0  0  0
   36.7726   29.7794   40.5417 H   0  0  0  0  0  0  0  0  0  0  0  0
   36.3506   24.5811   42.7662 H   0  0  0  0  0  0  0  0  0  0  0  0
   41.2286   26.9795   38.1738 H   0  0  0  0  0  0  0  0  0  0  0  0
   41.6621   25.4962   37.2825 H   0  0  0  0  0  0  0  0  0  0  0  0
   40.4484   22.6903   34.2840 H   0  0  0  0  0  0  0  0  0  0  0  0
   39.2043   23.7341   36.1748 H   0  0  0  0  0  0  0  0  0  0  0  0
   42.4810   22.7121   38.7975 H   0  0  0  0  0  0  0  0  0  0  0  0
   43.6896   21.6817   36.9041 H   0  0  0  0  0  0  0  0  0  0  0  0
   42.0257   20.8408   33.2670 H   0  0  0  0  0  0  0  0  0  0  0  0
  2  1  2  0
  3  2  1  0
  4  5  1  0
  4  3  2  0
  5  6  2  0
  6  1  1  0
  7  8  1  0
  7  3  1  0
  9  8  2  0
 10 17  2  0
 10  9  1  0
 11 10  1  0
 12 11  2  0
 13 14  1  0
 13 11  1  0
 14 16  2  0
 15 14  1  0
 16 17  1  0
 17  7  1  0
 18 23  2  0
 19 18  1  0
 19 20  2  0
 20 21  1  0
 21 22  2  0
 21 13  1  0
 23 22  1  0
 24 26  2  0
 24 18  1  0
 25 24  2  0
  1 27  1  0
  2 28  1  0
  5 29  1  0
  8 30  1  0
 15 31  1  0
 15 32  1  0
 19 33  1  0
 20 34  1  0
 22 35  1  0
 23 36  1  0
 24 37  1  0
M  ISO  8  27  14  28  14  29  14  30  14  33  14  34  14  35  14  36  14
M  ISO  1  37  11
M  END
>  <minimizedAffinity>  (1) 
-4.1102128

>  <minimizedRMSD>  (1) 
0.469948292

$$$$
