
     RDKit          3D

 27 29  0  0  0  0  0  0  0  0999 V2000
   37.6690   28.7330   43.5350 C   0  0  0  0  0  0  0  0  0  0  0  0
   37.8300   27.3700   43.2830 C   0  0  0  0  0  0  0  0  0  0  0  0
   37.6290   26.9100   41.9950 C   0  0  0  0  0  0  0  0  0  0  0  0
   37.2830   27.8140   41.0270 N   0  0  0  0  0  0  0  0  0  0  0  0
   37.1320   29.1270   41.2870 C   0  0  0  0  0  0  0  0  0  0  0  0
   37.3280   29.5750   42.5420 N   0  0  0  0  0  0  0  0  0  0  0  0
   37.7320   25.6020   41.5150 N   0  0  0  0  0  0  0  0  0  0  0  0
   36.9990   24.5830   41.9460 C   0  0  0  0  0  0  0  0  0  0  0  0
   37.3730   23.4770   41.2530 N   0  0  0  0  0  0  0  0  0  0  0  0
   38.3560   23.8220   40.3780 C   0  0  0  0  0  0  0  0  0  0  0  0
   39.0980   23.1450   39.4420 C   0  0  0  0  0  0  0  0  0  0  0  0
   38.9110   21.9130   39.2690 O   0  0  0  0  0  0  0  0  0  0  0  0
   40.0130   23.8370   38.7360 N   0  0  0  0  0  0  0  0  0  0  0  0
   40.2250   25.1550   38.9070 C   0  0  0  0  0  0  0  0  0  0  0  0
   41.1890   25.8740   38.1410 N   0  0  0  0  0  0  0  0  0  0  0  0
   39.5010   25.8290   39.8220 N   0  0  0  0  0  0  0  0  0  0  0  0
   38.5820   25.1730   40.5460 C   0  0  0  0  0  0  0  0  0  0  0  0
   40.7890   23.1040   37.7500 C   0  0  0  0  0  0  0  0  0  0  0  0
   37.8219   29.1220   44.5525 H   0  0  0  0  0  0  0  0  0  0  0  0
   38.1104   26.6777   44.0905 H   0  0  0  0  0  0  0  0  0  0  0  0
   36.8520   29.8249   40.4841 H   0  0  0  0  0  0  0  0  0  0  0  0
   36.2253   24.6268   42.7267 H   0  0  0  0  0  0  0  0  0  0  0  0
   41.3242   26.8827   38.2993 H   0  0  0  0  0  0  0  0  0  0  0  0
   41.7502   25.3846   37.4293 H   0  0  0  0  0  0  0  0  0  0  0  0
   41.4964   22.4358   38.2630 H   0  0  0  0  0  0  0  0  0  0  0  0
   40.1123   22.5077   37.1203 H   0  0  0  0  0  0  0  0  0  0  0  0
   41.3458   23.8136   37.1203 H   0  0  0  0  0  0  0  0  0  0  0  0
  2  1  2  0
  3  2  1  0
  4  5  1  0
  4  3  2  0
  5  6  2  0
  6  1  1  0
  7  8  1  0
  7  3  1  0
  9  8  2  0
 10 17  2  0
 10  9  1  0
 11 10  1  0
 12 11  2  0
 13 14  1  0
 13 11  1  0
 14 16  2  0
 15 14  1  0
 16 17  1  0
 17  7  1  0
 18 13  1  0
  1 19  1  0
  2 20  1  0
  5 21  1  0
  8 22  1  0
 15 23  1  0
 15 24  1  0
 18 25  1  0
 18 26  1  0
 18 27  1  0
M  ISO  7  19  14  20  14  21  14  22  14  25   8  26   8  27   8
M  END
>  <minimizedAffinity>  (1) 
-4.09863567

>  <minimizedRMSD>  (1) 
0.118981361

$$$$
