
     RDKit          3D

 24 26  0  0  0  0  0  0  0  0999 V2000
   38.4120   32.4140   40.6660 C   0  0  0  0  0  0  0  0  0  0  0  0
   37.1060   32.2280   40.2270 C   0  0  0  0  0  0  0  0  0  0  0  0
   36.7600   30.9860   40.7100 C   0  0  0  0  0  0  0  0  0  0  0  0
   37.7720   30.4410   41.3950 N   0  0  0  0  0  0  0  0  0  0  0  0
   38.7750   31.3130   41.3660 N   0  0  0  0  0  0  0  0  0  0  0  0
   37.8520   27.9570   43.8720 N   0  0  0  0  0  0  0  0  0  0  0  0
   37.4860   29.1170   43.3210 N   0  0  0  0  0  0  0  0  0  0  0  0
   38.0650   29.2540   42.1080 C   0  0  0  0  0  0  0  0  0  0  0  0
   38.8300   28.1270   41.8910 C   0  0  0  0  0  0  0  0  0  0  0  0
   38.6710   27.3380   43.0150 C   0  0  0  0  0  0  0  0  0  0  0  0
   40.5880   33.5710   40.2360 C   0  0  0  0  0  0  0  0  0  0  0  0
   39.1960   33.6090   40.3860 C   0  0  0  0  0  0  0  0  0  0  0  0
   38.5400   34.8200   40.2660 C   0  0  0  0  0  0  0  0  0  0  0  0
   39.3130   35.9330   40.0000 N   0  0  0  0  0  0  0  0  0  0  0  0
   40.6570   35.8570   39.8610 C   0  0  0  0  0  0  0  0  0  0  0  0
   41.3000   34.6710   39.9790 N   0  0  0  0  0  0  0  0  0  0  0  0
   36.4897   32.9162   39.6299 H   0  0  0  0  0  0  0  0  0  0  0  0
   35.7826   30.5061   40.5537 H   0  0  0  0  0  0  0  0  0  0  0  0
   37.5563   27.6023   44.7927 H   0  0  0  0  0  0  0  0  0  0  0  0
   39.4416   27.9020   41.0048 H   0  0  0  0  0  0  0  0  0  0  0  0
   39.1427   26.3578   43.1783 H   0  0  0  0  0  0  0  0  0  0  0  0
   41.1097   32.6074   40.3327 H   0  0  0  0  0  0  0  0  0  0  0  0
   37.4482   34.8939   40.3777 H   0  0  0  0  0  0  0  0  0  0  0  0
   41.2340   36.7694   39.6497 H   0  0  0  0  0  0  0  0  0  0  0  0
  1  5  2  0
  2  1  1  0
  2  3  2  0
  3  4  1  0
  4  8  1  0
  5  4  1  0
  7  6  1  0
  8  7  2  0
  9  8  1  0
  9 10  2  0
 10  6  1  0
 11 12  2  0
 12  1  1  0
 13 12  1  0
 14 13  2  0
 15 16  2  0
 15 14  1  0
 16 11  1  0
  2 17  1  0
  3 18  1  0
  6 19  1  0
  9 20  1  0
 10 21  1  0
 11 22  1  0
 13 23  1  0
 15 24  1  0
M  ISO  8  17  14  18  14  19   9  20  14  21  14  22  14  23  14  24  14
M  END
>  <minimizedAffinity>  (1) 
-5.18739319

>  <minimizedRMSD>  (1) 
6.08565378

$$$$
