
     RDKit          3D

 33 35  0  0  0  0  0  0  0  0999 V2000
   37.8210   33.9640   39.9020 C   0  0  0  0  0  0  0  0  0  0  0  0
   37.2370   32.7530   39.5300 C   0  0  0  0  0  0  0  0  0  0  0  0
   37.9770   31.5990   39.7000 C   0  0  0  0  0  0  0  0  0  0  0  0
   39.2360   31.7110   40.2240 N   0  0  0  0  0  0  0  0  0  0  0  0
   39.7730   32.8950   40.5750 C   0  0  0  0  0  0  0  0  0  0  0  0
   39.0520   34.0130   40.4070 N   0  0  0  0  0  0  0  0  0  0  0  0
   37.6360   30.2650   39.4120 N   0  0  0  0  0  0  0  0  0  0  0  0
   37.3320   29.8400   38.1950 C   0  0  0  0  0  0  0  0  0  0  0  0
   37.0580   28.5170   38.2810 N   0  0  0  0  0  0  0  0  0  0  0  0
   37.1920   28.1220   39.5650 C   0  0  0  0  0  0  0  0  0  0  0  0
   37.0540   26.9360   40.2680 C   0  0  0  0  0  0  0  0  0  0  0  0
   36.7190   25.9080   39.6300 O   0  0  0  0  0  0  0  0  0  0  0  0
   37.2880   26.9460   41.6130 N   0  0  0  0  0  0  0  0  0  0  0  0
   37.6420   28.0450   42.2700 C   0  0  0  0  0  0  0  0  0  0  0  0
   37.8780   28.0240   43.6710 N   0  0  0  0  0  0  0  0  0  0  0  0
   37.7820   29.2090   41.6090 N   0  0  0  0  0  0  0  0  0  0  0  0
   37.5660   29.2530   40.2930 C   0  0  0  0  0  0  0  0  0  0  0  0
   37.1210   25.6630   42.2750 C   0  0  0  0  0  0  0  0  0  0  0  0
   36.5490   24.7250   41.4750 F   0  0  0  0  0  0  0  0  0  0  0  0
   36.2430   25.8660   43.3350 F   0  0  0  0  0  0  0  0  0  0  0  0
   38.3380   25.2060   42.7940 F   0  0  0  0  0  0  0  0  0  0  0  0
   37.2770   30.5890   36.9150 C   0  0  0  0  0  0  0  0  0  0  0  0
   36.5910   29.8120   35.8160 C   0  0  0  0  0  0  0  0  0  0  0  0
   37.2529   34.8974   39.7756 H   0  0  0  0  0  0  0  0  0  0  0  0
   36.2192   32.7181   39.1143 H   0  0  0  0  0  0  0  0  0  0  0  0
   40.7890   32.9443   40.9937 H   0  0  0  0  0  0  0  0  0  0  0  0
   38.1516   28.8881   44.1602 H   0  0  0  0  0  0  0  0  0  0  0  0
   37.7754   27.1446   44.1974 H   0  0  0  0  0  0  0  0  0  0  0  0
   36.7268   31.5273   37.0793 H   0  0  0  0  0  0  0  0  0  0  0  0
   38.3123   30.7765   36.5940 H   0  0  0  0  0  0  0  0  0  0  0  0
   35.9252   29.0578   36.2608 H   0  0  0  0  0  0  0  0  0  0  0  0
   36.0009   30.5006   35.1935 H   0  0  0  0  0  0  0  0  0  0  0  0
   37.3475   29.3118   35.1935 H   0  0  0  0  0  0  0  0  0  0  0  0
  1  6  2  0
  2  3  2  0
  2  1  1  0
  3  4  1  0
  4  5  2  0
  6  5  1  0
  7  3  1  0
  7 17  1  0
  8  9  2  0
  8  7  1  0
  9 10  1  0
 10 11  1  0
 10 17  2  0
 11 13  1  0
 12 11  2  0
 13 14  1  0
 13 18  1  0
 14 15  1  0
 16 14  2  0
 17 16  1  0
 18 21  1  0
 18 20  1  0
 19 18  1  0
 22  8  1  0
 23 22  1  0
  1 24  1  0
  2 25  1  0
  5 26  1  0
 15 27  1  0
 15 28  1  0
 22 29  1  0
 22 30  1  0
 23 31  1  0
 23 32  1  0
 23 33  1  0
M  ISO  8  24  14  25  14  26  14  29   8  30   8  31   8  32   8  33   8
M  END
>  <minimizedAffinity>  (1) 
-5.73735809

>  <minimizedRMSD>  (1) 
5.98291397

$$$$
