
     RDKit          3D

 30 32  0  0  0  0  0  0  0  0999 V2000
   42.6890   33.5850   39.9550 C   0  0  0  0  0  0  0  0  0  0  0  0
   41.4170   33.2150   40.3950 C   0  0  0  0  0  0  0  0  0  0  0  0
   41.0060   31.9130   40.2040 C   0  0  0  0  0  0  0  0  0  0  0  0
   41.8730   31.0520   39.5900 N   0  0  0  0  0  0  0  0  0  0  0  0
   43.0980   31.4330   39.1740 C   0  0  0  0  0  0  0  0  0  0  0  0
   43.4910   32.6940   39.3610 N   0  0  0  0  0  0  0  0  0  0  0  0
   39.7930   31.2970   40.5490 N   0  0  0  0  0  0  0  0  0  0  0  0
   38.6220   31.6760   40.0910 C   0  0  0  0  0  0  0  0  0  0  0  0
   37.6750   30.8730   40.6220 N   0  0  0  0  0  0  0  0  0  0  0  0
   38.2930   29.9720   41.4340 C   0  0  0  0  0  0  0  0  0  0  0  0
   37.8700   28.9220   42.2320 C   0  0  0  0  0  0  0  0  0  0  0  0
   36.6440   28.6560   42.2920 O   0  0  0  0  0  0  0  0  0  0  0  0
   38.8190   28.2180   42.9260 N   0  0  0  0  0  0  0  0  0  0  0  0
   40.1310   28.5100   42.8570 C   0  0  0  0  0  0  0  0  0  0  0  0
   41.0810   27.7660   43.5840 N   0  0  0  0  0  0  0  0  0  0  0  0
   40.5380   29.5260   42.0840 N   0  0  0  0  0  0  0  0  0  0  0  0
   39.6520   30.2420   41.3880 C   0  0  0  0  0  0  0  0  0  0  0  0
   38.3130   27.1350   43.7410 C   0  0  0  0  0  0  0  0  0  0  0  0
   37.4060   27.5460   44.6640 F   0  0  0  0  0  0  0  0  0  0  0  0
   39.4080   26.6440   44.4750 F   0  0  0  0  0  0  0  0  0  0  0  0
   37.8130   26.0990   42.9610 F   0  0  0  0  0  0  0  0  0  0  0  0
   38.1910   32.7490   39.1630 C   0  0  0  0  0  0  0  0  0  0  0  0
   36.8170   32.6960   38.9750 F   0  0  0  0  0  0  0  0  0  0  0  0
   38.4280   34.0110   39.7130 F   0  0  0  0  0  0  0  0  0  0  0  0
   38.7910   32.6250   37.9230 F   0  0  0  0  0  0  0  0  0  0  0  0
   43.0353   34.6192   40.0980 H   0  0  0  0  0  0  0  0  0  0  0  0
   40.7567   33.9466   40.8837 H   0  0  0  0  0  0  0  0  0  0  0  0
   43.7674   30.7101   38.6847 H   0  0  0  0  0  0  0  0  0  0  0  0
   42.0810   28.0040   43.5188 H   0  0  0  0  0  0  0  0  0  0  0  0
   40.7756   26.9840   44.1807 H   0  0  0  0  0  0  0  0  0  0  0  0
  1  2  2  0
  3  2  1  0
  3  7  1  0
  4  3  2  0
  5  6  2  0
  5  4  1  0
  6  1  1  0
  7 17  1  0
  8  7  1  0
  8  9  2  0
  9 10  1  0
 10 11  1  0
 11 12  2  0
 11 13  1  0
 13 18  1  0
 14 13  1  0
 14 15  1  0
 16 14  2  0
 17 10  2  0
 17 16  1  0
 18 20  1  0
 18 19  1  0
 21 18  1  0
 22 24  1  0
 22  8  1  0
 23 22  1  0
 25 22  1  0
  1 26  1  0
  2 27  1  0
  5 28  1  0
 15 29  1  0
 15 30  1  0
M  ISO  3  26  14  27  14  28  14
M  END
>  <minimizedAffinity>  (1) 
-5.71441936

>  <minimizedRMSD>  (1) 
7.41785097

$$$$
