
     RDKit          3D

 34 36  0  0  0  0  0  0  0  0999 V2000
   37.8100   27.6500   43.8150 C   0  0  0  0  0  0  0  0  0  0  0  0
   38.9220   27.4990   42.9920 C   0  0  0  0  0  0  0  0  0  0  0  0
   38.7910   27.7790   41.6550 C   0  0  0  0  0  0  0  0  0  0  0  0
   37.5840   28.1880   41.2020 N   0  0  0  0  0  0  0  0  0  0  0  0
   36.5110   28.3320   41.9990 C   0  0  0  0  0  0  0  0  0  0  0  0
   36.6360   28.0610   43.3040 N   0  0  0  0  0  0  0  0  0  0  0  0
   39.7650   27.7010   40.6280 N   0  0  0  0  0  0  0  0  0  0  0  0
   40.3930   26.5770   40.2980 C   0  0  0  0  0  0  0  0  0  0  0  0
   41.2380   26.8750   39.2890 N   0  0  0  0  0  0  0  0  0  0  0  0
   41.1330   28.1890   38.9950 C   0  0  0  0  0  0  0  0  0  0  0  0
   41.7250   29.0480   38.0880 C   0  0  0  0  0  0  0  0  0  0  0  0
   42.5880   28.5790   37.2980 O   0  0  0  0  0  0  0  0  0  0  0  0
   41.3490   30.3530   38.0900 N   0  0  0  0  0  0  0  0  0  0  0  0
   40.4260   30.8350   38.9400 C   0  0  0  0  0  0  0  0  0  0  0  0
   40.0550   32.1980   38.9220 N   0  0  0  0  0  0  0  0  0  0  0  0
   39.8450   30.0070   39.8250 N   0  0  0  0  0  0  0  0  0  0  0  0
   40.1790   28.7230   39.8600 C   0  0  0  0  0  0  0  0  0  0  0  0
   40.1960   25.3070   40.9110 N   0  0  0  0  0  0  0  0  0  0  0  0
   40.9800   24.9100   42.0290 C   0  0  0  0  0  0  0  0  0  0  0  0
   42.2180   25.2580   42.0850 N   0  0  0  0  0  0  0  0  0  0  0  0
   40.4120   24.1350   43.0770 N   0  0  0  0  0  0  0  0  0  0  0  0
   42.7280   25.8140   41.3850 H   0  0  0  0  0  0  0  0  0  0  0  0
   42.0010   31.2050   37.1210 C   0  0  0  0  0  0  0  0  0  0  0  0
   43.0470   31.8980   37.6630 F   0  0  0  0  0  0  0  0  0  0  0  0
   41.0560   32.1830   36.7490 F   0  0  0  0  0  0  0  0  0  0  0  0
   42.3940   30.5010   35.9890 F   0  0  0  0  0  0  0  0  0  0  0  0
   37.8919   27.4318   44.8900 H   0  0  0  0  0  0  0  0  0  0  0  0
   39.8848   27.1626   43.4041 H   0  0  0  0  0  0  0  0  0  0  0  0
   35.5478   28.6664   41.5863 H   0  0  0  0  0  0  0  0  0  0  0  0
   39.3455   32.5474   39.5819 H   0  0  0  0  0  0  0  0  0  0  0  0
   40.4940   32.8424   38.2490 H   0  0  0  0  0  0  0  0  0  0  0  0
   39.4775   24.6687   40.5405 H   0  0  0  0  0  0  0  0  0  0  0  0
   40.9906   23.8539   43.8814 H   0  0  0  0  0  0  0  0  0  0  0  0
   39.4219   23.8547   43.0318 H   0  0  0  0  0  0  0  0  0  0  0  0
  2  1  2  0
  3  2  1  0
  4  3  2  0
  4  5  1  0
  5  6  2  0
  6  1  1  0
  7  3  1  0
  8  7  1  0
  8 18  1  0
  9  8  2  0
 10  9  1  0
 10 17  2  0
 11 13  1  0
 11 10  1  0
 12 11  2  0
 13 14  1  0
 14 16  2  0
 15 14  1  0
 16 17  1  0
 17  7  1  0
 18 19  1  0
 19 20  2  0
 19 21  1  0
 22 20  1  0
 23 24  1  0
 23 13  1  0
 25 23  1  0
 26 23  1  0
  1 27  1  0
  2 28  1  0
  5 29  1  0
 15 30  1  0
 15 31  1  0
 18 32  1  0
 21 33  1  0
 21 34  1  0
M  ISO  3  27  14  28  14  29  14
M  END
>  <minimizedAffinity>  (1) 
-5.01363325

>  <minimizedRMSD>  (1) 
5.6664629

$$$$
