
     RDKit          3D

 39 41  0  0  0  0  0  0  0  0999 V2000
   40.7750   30.1070   40.4120 C   0  0  0  0  0  0  0  0  0  0  0  0
   40.1780   28.9170   40.8260 C   0  0  0  0  0  0  0  0  0  0  0  0
   38.9160   28.5970   40.3270 C   0  0  0  0  0  0  0  0  0  0  0  0
   38.3490   29.4670   39.4700 N   0  0  0  0  0  0  0  0  0  0  0  0
   38.9440   30.6120   39.0830 C   0  0  0  0  0  0  0  0  0  0  0  0
   40.1530   30.9160   39.5630 N   0  0  0  0  0  0  0  0  0  0  0  0
   38.1340   27.4670   40.5970 N   0  0  0  0  0  0  0  0  0  0  0  0
   37.6990   27.1290   41.7890 C   0  0  0  0  0  0  0  0  0  0  0  0
   36.9870   25.9910   41.6650 N   0  0  0  0  0  0  0  0  0  0  0  0
   36.9810   25.6180   40.3600 C   0  0  0  0  0  0  0  0  0  0  0  0
   36.4340   24.5730   39.6420 C   0  0  0  0  0  0  0  0  0  0  0  0
   35.7630   23.7050   40.2490 O   0  0  0  0  0  0  0  0  0  0  0  0
   36.6510   24.5370   38.3050 N   0  0  0  0  0  0  0  0  0  0  0  0
   37.3670   25.4640   37.6590 C   0  0  0  0  0  0  0  0  0  0  0  0
   37.5770   25.4020   36.2620 N   0  0  0  0  0  0  0  0  0  0  0  0
   37.9050   26.4870   38.3490 N   0  0  0  0  0  0  0  0  0  0  0  0
   37.7230   26.5690   39.6600 C   0  0  0  0  0  0  0  0  0  0  0  0
   36.0500   23.4130   37.6030 C   0  0  0  0  0  0  0  0  0  0  0  0
   35.3330   22.6030   38.4240 F   0  0  0  0  0  0  0  0  0  0  0  0
   37.1140   22.6350   37.1060 F   0  0  0  0  0  0  0  0  0  0  0  0
   35.2900   23.8360   36.5210 F   0  0  0  0  0  0  0  0  0  0  0  0
   37.8560   27.7520   43.1390 C   0  0  0  0  0  0  0  0  0  0  0  0
   36.6450   27.4750   44.0140 C   0  0  0  0  0  0  0  0  0  0  0  0
   37.9030   29.2840   43.0500 C   0  0  0  0  0  0  0  0  0  0  0  0
   39.1440   27.3410   43.8210 C   0  0  0  0  0  0  0  0  0  0  0  0
   41.7709   30.3781   40.7925 H   0  0  0  0  0  0  0  0  0  0  0  0
   40.6910   28.2457   41.5304 H   0  0  0  0  0  0  0  0  0  0  0  0
   38.4394   31.2898   38.3788 H   0  0  0  0  0  0  0  0  0  0  0  0
   38.1330   26.1306   35.7920 H   0  0  0  0  0  0  0  0  0  0  0  0
   37.1740   24.6283   35.7145 H   0  0  0  0  0  0  0  0  0  0  0  0
   36.9350   27.5413   45.0730 H   0  0  0  0  0  0  0  0  0  0  0  0
   35.8614   28.2171   43.8012 H   0  0  0  0  0  0  0  0  0  0  0  0
   36.2620   26.4660   43.8012 H   0  0  0  0  0  0  0  0  0  0  0  0
   37.9161   29.7100   44.0641 H   0  0  0  0  0  0  0  0  0  0  0  0
   38.8110   29.5923   42.5111 H   0  0  0  0  0  0  0  0  0  0  0  0
   37.0156   29.6474   42.5111 H   0  0  0  0  0  0  0  0  0  0  0  0
   39.0109   27.3835   44.9121 H   0  0  0  0  0  0  0  0  0  0  0  0
   39.4053   26.3148   43.5232 H   0  0  0  0  0  0  0  0  0  0  0  0
   39.9514   28.0261   43.5232 H   0  0  0  0  0  0  0  0  0  0  0  0
  1  2  2  0
  3  7  1  0
  3  2  1  0
  4  3  2  0
  5  4  1  0
  5  6  2  0
  6  1  1  0
  7  8  1  0
  8 22  1  0
  9  8  2  0
 10  9  1  0
 11 12  2  0
 11 10  1  0
 13 11  1  0
 14 13  1  0
 14 16  2  0
 15 14  1  0
 16 17  1  0
 17 10  2  0
 17  7  1  0
 18 13  1  0
 18 19  1  0
 20 18  1  0
 21 18  1  0
 22 25  1  0
 22 23  1  0
 24 22  1  0
  1 26  1  0
  2 27  1  0
  5 28  1  0
 15 29  1  0
 15 30  1  0
 23 31  1  0
 23 32  1  0
 23 33  1  0
 24 34  1  0
 24 35  1  0
 24 36  1  0
 25 37  1  0
 25 38  1  0
 25 39  1  0
M  ISO  8  26  14  27  14  28  14  31   8  32   8  33   8  34   8  35   8
M  ISO  4  36   8  37   8  38   8  39   8
M  END
>  <minimizedAffinity>  (1) 
-4.79066896

>  <minimizedRMSD>  (1) 
3.80127358

$$$$
