
     RDKit          3D

 30 32  0  0  0  0  0  0  0  0999 V2000
   37.1580   28.1960   43.6040 C   0  0  0  0  0  0  0  0  0  0  0  0
   38.4150   28.7340   43.3190 C   0  0  0  0  0  0  0  0  0  0  0  0
   39.0250   28.3520   42.1320 C   0  0  0  0  0  0  0  0  0  0  0  0
   38.3770   27.4850   41.3130 N   0  0  0  0  0  0  0  0  0  0  0  0
   37.1620   26.9820   41.6150 C   0  0  0  0  0  0  0  0  0  0  0  0
   36.5640   27.3450   42.7600 N   0  0  0  0  0  0  0  0  0  0  0  0
   40.2790   28.7490   41.6220 N   0  0  0  0  0  0  0  0  0  0  0  0
   41.4260   28.5410   42.2310 C   0  0  0  0  0  0  0  0  0  0  0  0
   42.4140   29.0450   41.4670 N   0  0  0  0  0  0  0  0  0  0  0  0
   41.8570   29.5850   40.3490 C   0  0  0  0  0  0  0  0  0  0  0  0
   42.3320   30.2290   39.2270 C   0  0  0  0  0  0  0  0  0  0  0  0
   43.5740   30.4120   39.1160 O   0  0  0  0  0  0  0  0  0  0  0  0
   41.4390   30.6360   38.2920 N   0  0  0  0  0  0  0  0  0  0  0  0
   40.1170   30.4390   38.4120 C   0  0  0  0  0  0  0  0  0  0  0  0
   39.2130   30.8730   37.4260 N   0  0  0  0  0  0  0  0  0  0  0  0
   39.6520   29.8110   39.5060 N   0  0  0  0  0  0  0  0  0  0  0  0
   40.4810   29.3950   40.4440 C   0  0  0  0  0  0  0  0  0  0  0  0
   42.0080   31.3090   37.1340 C   0  0  0  0  0  0  0  0  0  0  0  0
   43.1490   31.9910   37.4320 F   0  0  0  0  0  0  0  0  0  0  0  0
   41.0590   32.2650   36.7180 F   0  0  0  0  0  0  0  0  0  0  0  0
   42.2200   30.4160   36.0790 F   0  0  0  0  0  0  0  0  0  0  0  0
   41.6830   27.8670   43.5460 C   0  0  0  0  0  0  0  0  0  0  0  0
   36.6483   28.4766   44.5375 H   0  0  0  0  0  0  0  0  0  0  0  0
   38.9043   29.4356   44.0106 H   0  0  0  0  0  0  0  0  0  0  0  0
   36.6659   26.2803   40.9284 H   0  0  0  0  0  0  0  0  0  0  0  0
   38.2032   30.7081   37.5447 H   0  0  0  0  0  0  0  0  0  0  0  0
   39.5607   31.3557   36.5852 H   0  0  0  0  0  0  0  0  0  0  0  0
   41.4219   28.5518   44.3663 H   0  0  0  0  0  0  0  0  0  0  0  0
   41.0686   26.9574   43.6181 H   0  0  0  0  0  0  0  0  0  0  0  0
   42.7470   27.5974   43.6181 H   0  0  0  0  0  0  0  0  0  0  0  0
  2  1  2  0
  3  2  1  0
  4  5  1  0
  4  3  2  0
  5  6  2  0
  6  1  1  0
  7  3  1  0
  7  8  1  0
  8 22  1  0
  9  8  2  0
 10 17  2  0
 10  9  1  0
 11 10  1  0
 12 11  2  0
 13 14  1  0
 13 11  1  0
 14 16  2  0
 15 14  1  0
 16 17  1  0
 17  7  1  0
 18 19  1  0
 18 13  1  0
 20 18  1  0
 21 18  1  0
  1 23  1  0
  2 24  1  0
  5 25  1  0
 15 26  1  0
 15 27  1  0
 22 28  1  0
 22 29  1  0
 22 30  1  0
M  ISO  6  23  14  24  14  25  14  28   8  29   8  30   8
M  END
>  <minimizedAffinity>  (1) 
-4.66772318

>  <minimizedRMSD>  (1) 
6.2162962

$$$$
