
     RDKit          3D

 50 54  0  0  1  0  0  0  0  0999 V2000
   43.0700   31.2110   37.5100 C   0  0  0  0  0  0  0  0  0  0  0  0
   42.2530   31.4080   38.6190 C   0  0  0  0  0  0  0  0  0  0  0  0
   41.1650   30.5830   38.7850 C   0  0  0  0  0  0  0  0  0  0  0  0
   40.9660   29.6210   37.8360 N   0  0  0  0  0  0  0  0  0  0  0  0
   41.7670   29.4490   36.7760 C   0  0  0  0  0  0  0  0  0  0  0  0
   42.8160   30.2470   36.6180 N   0  0  0  0  0  0  0  0  0  0  0  0
   40.1970   30.5650   39.7960 N   0  0  0  0  0  0  0  0  0  0  0  0
   39.4070   31.5870   40.0530 C   0  0  0  0  0  0  0  0  0  0  0  0
   38.5980   31.2220   41.0860 N   0  0  0  0  0  0  0  0  0  0  0  0
   38.9040   29.9610   41.4560 C   0  0  0  0  0  0  0  0  0  0  0  0
   38.4370   29.0780   42.4180 C   0  0  0  0  0  0  0  0  0  0  0  0
   37.5060   29.4410   43.1820 O   0  0  0  0  0  0  0  0  0  0  0  0
   39.0150   27.8520   42.4870 N   0  0  0  0  0  0  0  0  0  0  0  0
   40.0160   27.4700   41.6620 C   0  0  0  0  0  0  0  0  0  0  0  0
   40.5910   26.1830   41.7600 N   0  0  0  0  0  0  0  0  0  0  0  0
   40.4740   28.3140   40.7310 N   0  0  0  0  0  0  0  0  0  0  0  0
   39.9390   29.5330   40.6200 C   0  0  0  0  0  0  0  0  0  0  0  0
   39.2950   32.9700   39.4660 C   0  0  1  0  0  0  0  0  0  0  0  0
   38.1620   33.8110   40.0950 C   0  0  0  0  0  0  0  0  0  0  0  0
   39.6170   34.1310   40.2780 C   0  0  2  0  0  0  0  0  0  0  0  0
   40.2740   35.3140   39.6740 C   0  0  0  0  0  0  0  0  0  0  0  0
   40.0630   36.5920   40.4450 C   0  0  0  0  0  0  0  0  0  0  0  0
   40.6730   36.5350   41.8230 C   0  0  0  0  0  0  0  0  0  0  0  0
   42.1600   36.2440   41.6900 C   0  0  0  0  0  0  0  0  0  0  0  0
   42.3270   34.9010   41.0480 C   0  0  0  0  0  0  0  0  0  0  0  0
   41.7770   35.0060   39.6330 C   0  0  0  0  0  0  0  0  0  0  0  0
   38.4910   26.9720   43.5070 C   0  0  0  0  0  0  0  0  0  0  0  0
   37.6390   27.6040   44.3660 F   0  0  0  0  0  0  0  0  0  0  0  0
   39.5970   26.5930   44.3120 F   0  0  0  0  0  0  0  0  0  0  0  0
   37.9370   25.8260   42.9600 F   0  0  0  0  0  0  0  0  0  0  0  0
   43.9442   31.8624   37.3635 H   0  0  0  0  0  0  0  0  0  0  0  0
   42.4720   32.2044   39.3455 H   0  0  0  0  0  0  0  0  0  0  0  0
   41.5576   28.6548   36.0442 H   0  0  0  0  0  0  0  0  0  0  0  0
   41.3528   25.9094   41.1230 H   0  0  0  0  0  0  0  0  0  0  0  0
   40.2484   25.5184   42.4684 H   0  0  0  0  0  0  0  0  0  0  0  0
   39.6187   32.6552   38.4629 H   0  0  0  0  0  0  0  0  0  0  0  0
   37.5250   34.4493   39.4651 H   0  0  0  0  0  0  0  0  0  0  0  0
   37.3009   33.6201   40.7524 H   0  0  0  0  0  0  0  0  0  0  0  0
   40.2318   34.3070   41.1730 H   0  0  0  0  0  0  0  0  0  0  0  0
   39.8331   35.4823   38.6804 H   0  0  0  0  0  0  0  0  0  0  0  0
   40.5233   37.4215   39.8881 H   0  0  0  0  0  0  0  0  0  0  0  0
   38.9793   36.7401   40.5620 H   0  0  0  0  0  0  0  0  0  0  0  0
   40.5293   37.5000   42.3310 H   0  0  0  0  0  0  0  0  0  0  0  0
   40.1888   35.7430   42.4132 H   0  0  0  0  0  0  0  0  0  0  0  0
   42.6344   37.0152   41.0654 H   0  0  0  0  0  0  0  0  0  0  0  0
   42.6347   36.2485   42.6823 H   0  0  0  0  0  0  0  0  0  0  0  0
   43.3920   34.6272   41.0188 H   0  0  0  0  0  0  0  0  0  0  0  0
   41.7921   34.1270   41.6179 H   0  0  0  0  0  0  0  0  0  0  0  0
   41.9391   34.0532   39.1078 H   0  0  0  0  0  0  0  0  0  0  0  0
   42.2970   35.8179   39.1034 H   0  0  0  0  0  0  0  0  0  0  0  0
  1  2  2  0
  2  3  1  0
  3  7  1  0
  4  3  2  0
  5  4  1  0
  6  5  2  0
  6  1  1  0
  7  8  1  0
  7 17  1  0
  8  9  2  0
  9 10  1  0
 10 11  1  0
 11 13  1  0
 11 12  2  0
 13 27  1  0
 14 15  1  0
 14 13  1  0
 16 14  2  0
 17 16  1  0
 17 10  2  0
 18  8  1  0
 18 19  1  0
 18 20  1  0
 19 20  1  0
 21 20  1  0
 21 22  1  0
 22 23  1  0
 24 23  1  0
 25 24  1  0
 26 21  1  0
 26 25  1  0
 27 29  1  0
 27 28  1  0
 30 27  1  0
  1 31  1  0
  2 32  1  0
  5 33  1  0
 15 34  1  0
 15 35  1  0
 18 36  1  6
 19 37  1  0
 19 38  1  0
 20 39  1  1
 21 40  1  0
 22 41  1  0
 22 42  1  0
 23 43  1  0
 23 44  1  0
 24 45  1  0
 24 46  1  0
 25 47  1  0
 25 48  1  0
 26 49  1  0
 26 50  1  0
M  ISO  8  31  14  32  14  33  14  36  13  37  13  38  13  39  13  40  13
M  ISO  8  41  13  42  13  43  13  44  13  45  13  46  13  47  13  48  13
M  ISO  2  49  13  50  13
M  END
>  <minimizedAffinity>  (1) 
-6.87443113

>  <minimizedRMSD>  (1) 
1.72162509

$$$$
