
     RDKit          3D

 41 45  0  0  1  0  0  0  0  0999 V2000
   42.9370   31.3200   37.5140 C   0  0  0  0  0  0  0  0  0  0  0  0
   42.1970   31.4400   38.6740 C   0  0  0  0  0  0  0  0  0  0  0  0
   41.1110   30.6140   38.8710 C   0  0  0  0  0  0  0  0  0  0  0  0
   40.8390   29.7150   37.8810 N   0  0  0  0  0  0  0  0  0  0  0  0
   41.5650   29.6080   36.7590 C   0  0  0  0  0  0  0  0  0  0  0  0
   42.6110   30.4110   36.5790 N   0  0  0  0  0  0  0  0  0  0  0  0
   40.2200   30.5430   39.9450 N   0  0  0  0  0  0  0  0  0  0  0  0
   39.4670   31.5580   40.3220 C   0  0  0  0  0  0  0  0  0  0  0  0
   38.7300   31.1410   41.3870 N   0  0  0  0  0  0  0  0  0  0  0  0
   39.0420   29.8540   41.6620 C   0  0  0  0  0  0  0  0  0  0  0  0
   38.6440   28.9150   42.5910 C   0  0  0  0  0  0  0  0  0  0  0  0
   37.7760   29.2400   43.4470 O   0  0  0  0  0  0  0  0  0  0  0  0
   39.2010   27.6820   42.5460 N   0  0  0  0  0  0  0  0  0  0  0  0
   40.1280   27.3470   41.6270 C   0  0  0  0  0  0  0  0  0  0  0  0
   40.6920   26.0450   41.5970 N   0  0  0  0  0  0  0  0  0  0  0  0
   40.5300   28.2410   40.7180 N   0  0  0  0  0  0  0  0  0  0  0  0
   40.0060   29.4720   40.7250 C   0  0  0  0  0  0  0  0  0  0  0  0
   39.3290   32.9770   39.8190 C   0  0  1  0  0  0  0  0  0  0  0  0
   37.8660   33.4380   39.6830 C   0  0  0  0  0  0  0  0  0  0  0  0
   38.8190   34.0120   40.7020 C   0  0  2  0  0  0  0  0  0  0  0  0
   39.3400   35.3970   40.4800 C   0  0  0  0  0  0  0  0  0  0  0  0
   40.6070   35.8240   40.8800 C   0  0  0  0  0  0  0  0  0  0  0  0
   40.6160   37.1400   40.4620 C   0  0  0  0  0  0  0  0  0  0  0  0
   39.4020   37.4640   39.8430 C   0  0  0  0  0  0  0  0  0  0  0  0
   38.6840   36.3650   39.8900 O   0  0  0  0  0  0  0  0  0  0  0  0
   38.7410   26.7470   43.5440 C   0  0  0  0  0  0  0  0  0  0  0  0
   37.8760   27.3080   44.4430 F   0  0  0  0  0  0  0  0  0  0  0  0
   39.8770   26.3870   44.3050 F   0  0  0  0  0  0  0  0  0  0  0  0
   38.2160   25.5970   42.9670 F   0  0  0  0  0  0  0  0  0  0  0  0
   43.8045   31.9769   37.3532 H   0  0  0  0  0  0  0  0  0  0  0  0
   42.4715   32.1872   39.4331 H   0  0  0  0  0  0  0  0  0  0  0  0
   41.2986   28.8635   35.9943 H   0  0  0  0  0  0  0  0  0  0  0  0
   41.3994   25.8064   40.8874 H   0  0  0  0  0  0  0  0  0  0  0  0
   40.3939   25.3386   42.2848 H   0  0  0  0  0  0  0  0  0  0  0  0
   40.2272   32.9227   39.1863 H   0  0  0  0  0  0  0  0  0  0  0  0
   37.5475   34.0368   38.8170 H   0  0  0  0  0  0  0  0  0  0  0  0
   36.8760   32.9588   39.7010 H   0  0  0  0  0  0  0  0  0  0  0  0
   38.7675   34.1395   41.7934 H   0  0  0  0  0  0  0  0  0  0  0  0
   41.3962   35.2575   41.3960 H   0  0  0  0  0  0  0  0  0  0  0  0
   41.4575   37.8356   40.5962 H   0  0  0  0  0  0  0  0  0  0  0  0
   39.1117   38.4325   39.4098 H   0  0  0  0  0  0  0  0  0  0  0  0
  1  2  2  0
  2  3  1  0
  3  7  1  0
  4  3  2  0
  5  4  1  0
  6  5  2  0
  6  1  1  0
  7  8  1  0
  7 17  1  0
  8  9  2  0
  9 10  1  0
 10 11  1  0
 11 12  2  0
 13 11  1  0
 13 26  1  0
 14 13  1  0
 15 14  1  0
 16 17  1  0
 16 14  2  0
 17 10  2  0
 18  8  1  0
 18 20  1  0
 19 18  1  0
 19 20  1  0
 21 20  1  0
 21 22  2  0
 23 22  1  0
 24 25  1  0
 24 23  2  0
 25 21  1  0
 26 28  1  0
 26 27  1  0
 29 26  1  0
  1 30  1  0
  2 31  1  0
  5 32  1  0
 15 33  1  0
 15 34  1  0
 18 35  1  6
 19 36  1  0
 19 37  1  0
 20 38  1  1
 22 39  1  0
 23 40  1  0
 24 41  1  0
M  ISO  8  30  14  31  14  32  14  35  13  36  13  37  13  38  13  39  14
M  ISO  2  40  14  41  14
M  END
>  <minimizedAffinity>  (1) 
-6.77816629

>  <minimizedRMSD>  (1) 
1.43376601

$$$$
