
     RDKit          3D

 41 45  0  0  1  0  0  0  0  0999 V2000
   42.9050   31.2420   37.4820 C   0  0  0  0  0  0  0  0  0  0  0  0
   42.1830   31.3930   38.6740 C   0  0  0  0  0  0  0  0  0  0  0  0
   41.0940   30.5730   38.8710 C   0  0  0  0  0  0  0  0  0  0  0  0
   40.8000   29.6710   37.8830 N   0  0  0  0  0  0  0  0  0  0  0  0
   41.5090   29.5500   36.7580 C   0  0  0  0  0  0  0  0  0  0  0  0
   42.5600   30.3400   36.5650 N   0  0  0  0  0  0  0  0  0  0  0  0
   40.2000   30.5040   39.9570 N   0  0  0  0  0  0  0  0  0  0  0  0
   39.4570   31.5170   40.3320 C   0  0  0  0  0  0  0  0  0  0  0  0
   38.7150   31.0980   41.3940 N   0  0  0  0  0  0  0  0  0  0  0  0
   39.0180   29.8130   41.6630 C   0  0  0  0  0  0  0  0  0  0  0  0
   38.6100   28.8760   42.5940 C   0  0  0  0  0  0  0  0  0  0  0  0
   37.7410   29.2030   43.4460 O   0  0  0  0  0  0  0  0  0  0  0  0
   39.1690   27.6380   42.5460 N   0  0  0  0  0  0  0  0  0  0  0  0
   40.0950   27.2980   41.6350 C   0  0  0  0  0  0  0  0  0  0  0  0
   40.6570   25.9970   41.6110 N   0  0  0  0  0  0  0  0  0  0  0  0
   40.4990   28.1950   40.7270 N   0  0  0  0  0  0  0  0  0  0  0  0
   39.9800   29.4240   40.7320 C   0  0  0  0  0  0  0  0  0  0  0  0
   39.3340   32.9410   39.8400 C   0  0  1  0  0  0  0  0  0  0  0  0
   37.8760   33.4240   39.7370 C   0  0  0  0  0  0  0  0  0  0  0  0
   38.8440   33.9730   40.7420 C   0  0  2  0  0  0  0  0  0  0  0  0
   39.4280   35.3150   40.6110 C   0  0  0  0  0  0  0  0  0  0  0  0
   38.9620   36.4200   39.9140 C   0  0  0  0  0  0  0  0  0  0  0  0
   39.8180   37.4740   40.0570 N   0  0  0  0  0  0  0  0  0  0  0  0
   40.8220   37.0060   40.8530 C   0  0  0  0  0  0  0  0  0  0  0  0
   40.5930   35.7320   41.1810 N   0  0  0  0  0  0  0  0  0  0  0  0
   38.7030   26.7050   43.5500 C   0  0  0  0  0  0  0  0  0  0  0  0
   37.8350   27.2720   44.4410 F   0  0  0  0  0  0  0  0  0  0  0  0
   39.8390   26.3590   44.3250 F   0  0  0  0  0  0  0  0  0  0  0  0
   38.1940   25.5500   42.9810 F   0  0  0  0  0  0  0  0  0  0  0  0
   43.7787   31.8849   37.2994 H   0  0  0  0  0  0  0  0  0  0  0  0
   42.4760   32.1405   39.4260 H   0  0  0  0  0  0  0  0  0  0  0  0
   41.2264   28.8050   35.9997 H   0  0  0  0  0  0  0  0  0  0  0  0
   41.3662   25.7553   40.9042 H   0  0  0  0  0  0  0  0  0  0  0  0
   40.3562   25.2933   42.3003 H   0  0  0  0  0  0  0  0  0  0  0  0
   40.2210   32.8815   39.1921 H   0  0  0  0  0  0  0  0  0  0  0  0
   37.5507   34.0370   38.8836 H   0  0  0  0  0  0  0  0  0  0  0  0
   36.8809   32.9562   39.7667 H   0  0  0  0  0  0  0  0  0  0  0  0
   38.7740   34.1009   41.8323 H   0  0  0  0  0  0  0  0  0  0  0  0
   38.0318   36.4438   39.3274 H   0  0  0  0  0  0  0  0  0  0  0  0
   41.6938   37.5929   41.1776 H   0  0  0  0  0  0  0  0  0  0  0  0
   41.2040   35.1529   41.7745 H   0  0  0  0  0  0  0  0  0  0  0  0
  1  2  2  0
  2  3  1  0
  3  7  1  0
  4  3  2  0
  5  4  1  0
  6  5  2  0
  6  1  1  0
  7  8  1  0
  7 17  1  0
  8  9  2  0
  9 10  1  0
 10 11  1  0
 11 12  2  0
 13 11  1  0
 13 26  1  0
 14 13  1  0
 15 14  1  0
 16 17  1  0
 16 14  2  0
 17 10  2  0
 18  8  1  0
 18 20  1  0
 19 18  1  0
 19 20  1  0
 21 20  1  0
 21 25  1  0
 22 23  1  0
 22 21  2  0
 23 24  2  0
 24 25  1  0
 26 28  1  0
 26 27  1  0
 29 26  1  0
  1 30  1  0
  2 31  1  0
  5 32  1  0
 15 33  1  0
 15 34  1  0
 18 35  1  6
 19 36  1  0
 19 37  1  0
 20 38  1  1
 22 39  1  0
 24 40  1  0
 25 41  1  0
M  ISO  8  30  14  31  14  32  14  35  13  36  13  37  13  38  13  39  14
M  ISO  2  40  14  41   9
M  END
>  <minimizedAffinity>  (1) 
-6.71772337

>  <minimizedRMSD>  (1) 
1.51373863

$$$$
