
     RDKit          3D

 46 49  0  0  1  0  0  0  0  0999 V2000
   43.3890   31.6450   37.7410 C   0  0  0  0  0  0  0  0  0  0  0  0
   42.5720   31.7990   38.8630 C   0  0  0  0  0  0  0  0  0  0  0  0
   41.4590   30.9960   38.9680 C   0  0  0  0  0  0  0  0  0  0  0  0
   41.2330   30.1000   37.9550 N   0  0  0  0  0  0  0  0  0  0  0  0
   42.0350   29.9760   36.8920 C   0  0  0  0  0  0  0  0  0  0  0  0
   43.1110   30.7530   36.7930 N   0  0  0  0  0  0  0  0  0  0  0  0
   40.4770   30.9410   39.9790 N   0  0  0  0  0  0  0  0  0  0  0  0
   39.7230   31.9610   40.2990 C   0  0  0  0  0  0  0  0  0  0  0  0
   38.8930   31.5580   41.3000 N   0  0  0  0  0  0  0  0  0  0  0  0
   39.1590   30.2570   41.5870 C   0  0  0  0  0  0  0  0  0  0  0  0
   38.6630   29.3290   42.4790 C   0  0  0  0  0  0  0  0  0  0  0  0
   37.7380   29.6660   43.2620 O   0  0  0  0  0  0  0  0  0  0  0  0
   39.2120   28.0770   42.4620 N   0  0  0  0  0  0  0  0  0  0  0  0
   40.1990   27.7300   41.6220 C   0  0  0  0  0  0  0  0  0  0  0  0
   40.7330   26.4230   41.6400 N   0  0  0  0  0  0  0  0  0  0  0  0
   40.6800   28.6250   40.7610 N   0  0  0  0  0  0  0  0  0  0  0  0
   40.1900   29.8650   40.7230 C   0  0  0  0  0  0  0  0  0  0  0  0
   39.6600   33.3870   39.7970 C   0  0  1  0  0  0  0  0  0  0  0  0
   38.3410   34.0980   40.1510 C   0  0  0  0  0  0  0  0  0  0  0  0
   39.6710   34.4900   40.7440 C   0  0  2  0  0  0  0  0  0  0  0  0
   40.3510   35.7680   40.3220 C   0  0  0  0  0  0  0  0  0  0  0  0
   41.2580   35.4060   39.1540 C   0  0  0  0  0  0  0  0  0  0  0  0
   41.2290   36.3210   41.4420 C   0  0  0  0  0  0  0  0  0  0  0  0
   39.4000   36.8310   39.8800 C   0  0  0  0  0  0  0  0  0  0  0  0
   38.6440   27.1530   43.4240 C   0  0  0  0  0  0  0  0  0  0  0  0
   37.7300   27.7250   44.2530 F   0  0  0  0  0  0  0  0  0  0  0  0
   39.7160   26.7560   44.2650 F   0  0  0  0  0  0  0  0  0  0  0  0
   38.1360   26.0240   42.8030 F   0  0  0  0  0  0  0  0  0  0  0  0
   44.2840   32.2762   37.6381 H   0  0  0  0  0  0  0  0  0  0  0  0
   42.8109   32.5401   39.6400 H   0  0  0  0  0  0  0  0  0  0  0  0
   41.8076   29.2393   36.1074 H   0  0  0  0  0  0  0  0  0  0  0  0
   41.4906   26.1672   40.9908 H   0  0  0  0  0  0  0  0  0  0  0  0
   40.3649   25.7254   42.3024 H   0  0  0  0  0  0  0  0  0  0  0  0
   40.2587   33.1808   38.8975 H   0  0  0  0  0  0  0  0  0  0  0  0
   37.8434   34.7490   39.4171 H   0  0  0  0  0  0  0  0  0  0  0  0
   37.3553   33.7991   40.5371 H   0  0  0  0  0  0  0  0  0  0  0  0
   40.0142   34.6239   41.7805 H   0  0  0  0  0  0  0  0  0  0  0  0
   42.2154   35.0239   39.5379 H   0  0  0  0  0  0  0  0  0  0  0  0
   40.7740   34.6321   38.5401 H   0  0  0  0  0  0  0  0  0  0  0  0
   41.4399   36.3004   38.5401 H   0  0  0  0  0  0  0  0  0  0  0  0
   40.7961   36.0484   42.4158 H   0  0  0  0  0  0  0  0  0  0  0  0
   42.2404   35.8966   41.3586 H   0  0  0  0  0  0  0  0  0  0  0  0
   41.2831   37.4165   41.3586 H   0  0  0  0  0  0  0  0  0  0  0  0
   38.9618   37.3208   40.7621 H   0  0  0  0  0  0  0  0  0  0  0  0
   39.9382   37.5765   39.2762 H   0  0  0  0  0  0  0  0  0  0  0  0
   38.5995   36.3788   39.2762 H   0  0  0  0  0  0  0  0  0  0  0  0
  1  2  2  0
  2  3  1  0
  3  7  1  0
  4  3  2  0
  5  4  1  0
  6  5  2  0
  6  1  1  0
  7  8  1  0
  7 17  1  0
  8  9  2  0
  9 10  1  0
 10 11  1  0
 11 12  2  0
 13 11  1  0
 13 25  1  0
 14 15  1  0
 14 13  1  0
 16 14  2  0
 17 16  1  0
 17 10  2  0
 18 19  1  0
 18  8  1  0
 18 20  1  0
 19 20  1  0
 21 20  1  0
 21 23  1  0
 22 21  1  0
 24 21  1  0
 25 26  1  0
 25 27  1  0
 28 25  1  0
  1 29  1  0
  2 30  1  0
  5 31  1  0
 15 32  1  0
 15 33  1  0
 18 34  1  6
 19 35  1  0
 19 36  1  0
 20 37  1  1
 22 38  1  0
 22 39  1  0
 22 40  1  0
 23 41  1  0
 23 42  1  0
 23 43  1  0
 24 44  1  0
 24 45  1  0
 24 46  1  0
M  ISO  8  29  14  30  14  31  14  34  13  35  13  36  13  37  13  38   8
M  ISO  8  39   8  40   8  41   8  42   8  43   8  44   8  45   8  46   8
M  END
>  <minimizedAffinity>  (1) 
-6.44607592

>  <minimizedRMSD>  (1) 
1.82833207

$$$$
