
     RDKit          3D

 41 45  0  0  1  0  0  0  0  0999 V2000
   43.0290   30.8580   37.2100 C   0  0  0  0  0  0  0  0  0  0  0  0
   42.3540   31.0360   38.4210 C   0  0  0  0  0  0  0  0  0  0  0  0
   41.2900   30.2060   38.6890 C   0  0  0  0  0  0  0  0  0  0  0  0
   40.9730   29.2670   37.7480 N   0  0  0  0  0  0  0  0  0  0  0  0
   41.6360   29.1190   36.5960 C   0  0  0  0  0  0  0  0  0  0  0  0
   42.6660   29.9210   36.3350 N   0  0  0  0  0  0  0  0  0  0  0  0
   40.4430   30.1660   39.8190 N   0  0  0  0  0  0  0  0  0  0  0  0
   39.7020   31.1780   40.1920 C   0  0  0  0  0  0  0  0  0  0  0  0
   39.0210   30.7840   41.3040 N   0  0  0  0  0  0  0  0  0  0  0  0
   39.3650   29.5140   41.5970 C   0  0  0  0  0  0  0  0  0  0  0  0
   39.0140   28.6060   42.5840 C   0  0  0  0  0  0  0  0  0  0  0  0
   38.1820   28.9520   43.4670 O   0  0  0  0  0  0  0  0  0  0  0  0
   39.5960   27.3760   42.5470 N   0  0  0  0  0  0  0  0  0  0  0  0
   40.4830   27.0210   41.6020 C   0  0  0  0  0  0  0  0  0  0  0  0
   41.0590   25.7270   41.6060 N   0  0  0  0  0  0  0  0  0  0  0  0
   40.8230   27.8900   40.6530 N   0  0  0  0  0  0  0  0  0  0  0  0
   40.2910   29.1060   40.6330 C   0  0  0  0  0  0  0  0  0  0  0  0
   39.5270   32.5780   39.6550 C   0  0  1  0  0  0  0  0  0  0  0  0
   38.0560   32.9750   39.4570 C   0  0  0  0  0  0  0  0  0  0  0  0
   38.9300   33.5970   40.5050 C   0  0  2  0  0  0  0  0  0  0  0  0
   39.3810   34.9690   40.3910 C   0  0  0  0  0  0  0  0  0  0  0  0
   38.8250   36.1830   39.9850 C   0  0  0  0  0  0  0  0  0  0  0  0
   39.5790   37.3220   40.0100 C   0  0  0  0  0  0  0  0  0  0  0  0
   40.9000   37.3260   40.4290 C   0  0  0  0  0  0  0  0  0  0  0  0
   41.1380   35.4730   40.8530 S   0  0  0  0  0  0  0  0  0  0  0  0
   39.1840   26.4740   43.6110 C   0  0  0  0  0  0  0  0  0  0  0  0
   38.3400   27.0510   44.5150 F   0  0  0  0  0  0  0  0  0  0  0  0
   40.3580   26.1600   44.3360 F   0  0  0  0  0  0  0  0  0  0  0  0
   38.6620   25.2920   43.0950 F   0  0  0  0  0  0  0  0  0  0  0  0
   43.8832   31.5093   36.9729 H   0  0  0  0  0  0  0  0  0  0  0  0
   42.6630   31.8133   39.1354 H   0  0  0  0  0  0  0  0  0  0  0  0
   41.3345   28.3455   35.8743 H   0  0  0  0  0  0  0  0  0  0  0  0
   41.7381   25.4633   40.8778 H   0  0  0  0  0  0  0  0  0  0  0  0
   40.7988   25.0497   42.3371 H   0  0  0  0  0  0  0  0  0  0  0  0
   40.4500   32.5549   39.0570 H   0  0  0  0  0  0  0  0  0  0  0  0
   37.7487   33.5526   38.5728 H   0  0  0  0  0  0  0  0  0  0  0  0
   37.0884   32.4520   39.4387 H   0  0  0  0  0  0  0  0  0  0  0  0
   38.8193   33.7310   41.5912 H   0  0  0  0  0  0  0  0  0  0  0  0
   37.7797   36.2228   39.6449 H   0  0  0  0  0  0  0  0  0  0  0  0
   39.1218   38.2687   39.6864 H   0  0  0  0  0  0  0  0  0  0  0  0
   41.6131   38.1606   40.4987 H   0  0  0  0  0  0  0  0  0  0  0  0
  1  2  2  0
  2  3  1  0
  3  7  1  0
  4  3  2  0
  5  4  1  0
  6  5  2  0
  6  1  1  0
  7  8  1  0
  7 17  1  0
  8  9  2  0
  9 10  1  0
 10 11  1  0
 11 12  2  0
 13 11  1  0
 13 26  1  0
 14 15  1  0
 14 13  1  0
 16 14  2  0
 17 16  1  0
 17 10  2  0
 18  8  1  0
 18 20  1  0
 19 18  1  0
 19 20  1  0
 21 20  1  0
 21 25  1  0
 22 23  1  0
 22 21  2  0
 23 24  2  0
 24 25  1  0
 26 28  1  0
 26 27  1  0
 29 26  1  0
  1 30  1  0
  2 31  1  0
  5 32  1  0
 15 33  1  0
 15 34  1  0
 18 35  1  6
 19 36  1  0
 19 37  1  0
 20 38  1  1
 22 39  1  0
 23 40  1  0
 24 41  1  0
M  ISO  8  30  14  31  14  32  14  35  13  36  13  37  13  38  13  39  14
M  ISO  2  40  14  41  14
M  END
>  <minimizedAffinity>  (1) 
-6.11688757

>  <minimizedRMSD>  (1) 
1.51097822

$$$$
