
     RDKit          3D

 47 51  0  0  1  0  0  0  0  0999 V2000
   42.8020   30.9840   37.3900 C   0  0  0  0  0  0  0  0  0  0  0  0
   42.0250   31.1860   38.5390 C   0  0  0  0  0  0  0  0  0  0  0  0
   40.9260   30.3710   38.7150 C   0  0  0  0  0  0  0  0  0  0  0  0
   40.6710   29.4240   37.7580 N   0  0  0  0  0  0  0  0  0  0  0  0
   41.4400   29.2620   36.6710 C   0  0  0  0  0  0  0  0  0  0  0  0
   42.5010   30.0450   36.4960 N   0  0  0  0  0  0  0  0  0  0  0  0
   39.9830   30.3520   39.7630 N   0  0  0  0  0  0  0  0  0  0  0  0
   39.2240   31.3760   40.0630 C   0  0  0  0  0  0  0  0  0  0  0  0
   38.4400   31.0080   41.1120 N   0  0  0  0  0  0  0  0  0  0  0  0
   38.7380   29.7310   41.4510 C   0  0  0  0  0  0  0  0  0  0  0  0
   38.2920   28.8380   42.4060 C   0  0  0  0  0  0  0  0  0  0  0  0
   37.3870   29.2040   43.2090 O   0  0  0  0  0  0  0  0  0  0  0  0
   38.8530   27.6020   42.4340 N   0  0  0  0  0  0  0  0  0  0  0  0
   39.8100   27.2270   41.5800 C   0  0  0  0  0  0  0  0  0  0  0  0
   40.3740   25.9250   41.6360 N   0  0  0  0  0  0  0  0  0  0  0  0
   40.2500   28.0840   40.6520 N   0  0  0  0  0  0  0  0  0  0  0  0
   39.7410   29.3090   40.5730 C   0  0  0  0  0  0  0  0  0  0  0  0
   39.1180   32.7720   39.4930 C   0  0  1  0  0  0  0  0  0  0  0  0
   37.7140   33.3880   39.6580 C   0  0  0  0  0  0  0  0  0  0  0  0
   38.9280   33.9070   40.3820 C   0  0  2  0  0  0  0  0  0  0  0  0
   39.5650   35.1420   39.9610 N   0  0  0  0  0  0  0  0  0  0  0  0
   39.6220   36.0190   41.0660 C   0  0  0  0  0  0  0  0  0  0  0  0
   40.9620   36.6140   41.3840 C   0  0  0  0  0  0  0  0  0  0  0  0
   41.9700   35.6530   41.1460 O   0  0  0  0  0  0  0  0  0  0  0  0
   41.9970   35.5830   39.7370 C   0  0  0  0  0  0  0  0  0  0  0  0
   40.7970   34.8020   39.3290 C   0  0  0  0  0  0  0  0  0  0  0  0
   38.3400   26.7150   43.4610 C   0  0  0  0  0  0  0  0  0  0  0  0
   37.4110   27.3060   44.2690 F   0  0  0  0  0  0  0  0  0  0  0  0
   39.4350   26.4210   44.3120 F   0  0  0  0  0  0  0  0  0  0  0  0
   37.8800   25.5250   42.9170 F   0  0  0  0  0  0  0  0  0  0  0  0
   43.6846   31.6188   37.2226 H   0  0  0  0  0  0  0  0  0  0  0  0
   42.2818   31.9646   39.2723 H   0  0  0  0  0  0  0  0  0  0  0  0
   41.1950   28.4872   35.9296 H   0  0  0  0  0  0  0  0  0  0  0  0
   41.1109   25.6538   40.9694 H   0  0  0  0  0  0  0  0  0  0  0  0
   40.0462   25.2518   42.3433 H   0  0  0  0  0  0  0  0  0  0  0  0
   39.8367   32.5822   38.6822 H   0  0  0  0  0  0  0  0  0  0  0  0
   37.2600   33.9691   38.8418 H   0  0  0  0  0  0  0  0  0  0  0  0
   36.7147   33.0251   39.9402 H   0  0  0  0  0  0  0  0  0  0  0  0
   39.1103   34.1184   41.4460 H   0  0  0  0  0  0  0  0  0  0  0  0
   38.9268   36.8486   40.8697 H   0  0  0  0  0  0  0  0  0  0  0  0
   39.3646   35.4017   41.9393 H   0  0  0  0  0  0  0  0  0  0  0  0
   41.1344   37.4928   40.7452 H   0  0  0  0  0  0  0  0  0  0  0  0
   40.9873   36.9195   42.4404 H   0  0  0  0  0  0  0  0  0  0  0  0
   41.9570   36.5941   39.3055 H   0  0  0  0  0  0  0  0  0  0  0  0
   42.9219   35.1062   39.3803 H   0  0  0  0  0  0  0  0  0  0  0  0
   40.6640   34.9374   38.2455 H   0  0  0  0  0  0  0  0  0  0  0  0
   41.0058   33.7681   39.6413 H   0  0  0  0  0  0  0  0  0  0  0  0
  1  2  2  0
  2  3  1  0
  3  7  1  0
  4  3  2  0
  5  4  1  0
  6  5  2  0
  6  1  1  0
  7  8  1  0
  7 17  1  0
  8  9  2  0
  9 10  1  0
 10 11  1  0
 11 13  1  0
 11 12  2  0
 13 27  1  0
 14 15  1  0
 14 13  1  0
 16 14  2  0
 17 16  1  0
 17 10  2  0
 18 19  1  0
 18  8  1  0
 18 20  1  0
 19 20  1  0
 21 20  1  0
 21 22  1  0
 22 23  1  0
 24 23  1  0
 25 24  1  0
 26 25  1  0
 26 21  1  0
 27 28  1  0
 27 29  1  0
 30 27  1  0
  1 31  1  0
  2 32  1  0
  5 33  1  0
 15 34  1  0
 15 35  1  0
 18 36  1  6
 19 37  1  0
 19 38  1  0
 20 39  1  1
 22 40  1  0
 22 41  1  0
 23 42  1  0
 23 43  1  0
 25 44  1  0
 25 45  1  0
 26 46  1  0
 26 47  1  0
M  ISO  8  31  14  32  14  33  14  36  13  37  13  38  13  39  13  40  13
M  ISO  7  41  13  42  13  43  13  44  13  45  13  46  13  47  13
M  END
>  <minimizedAffinity>  (1) 
-6.08529139

>  <minimizedRMSD>  (1) 
1.51327956

$$$$
