
     RDKit          3D

 40 44  0  0  1  0  0  0  0  0999 V2000
   42.5260   31.5350   37.0440 C   0  0  0  0  0  0  0  0  0  0  0  0
   41.7720   31.5570   38.2210 C   0  0  0  0  0  0  0  0  0  0  0  0
   41.1000   30.4050   38.5710 C   0  0  0  0  0  0  0  0  0  0  0  0
   41.2210   29.3280   37.7400 N   0  0  0  0  0  0  0  0  0  0  0  0
   41.9510   29.3370   36.6180 C   0  0  0  0  0  0  0  0  0  0  0  0
   42.6020   30.4490   36.2780 N   0  0  0  0  0  0  0  0  0  0  0  0
   40.2770   30.1500   39.6900 N   0  0  0  0  0  0  0  0  0  0  0  0
   39.1840   30.8230   39.9410 C   0  0  0  0  0  0  0  0  0  0  0  0
   38.6540   30.3110   41.0860 N   0  0  0  0  0  0  0  0  0  0  0  0
   39.4440   29.3090   41.5350 C   0  0  0  0  0  0  0  0  0  0  0  0
   39.4290   28.4440   42.6060 C   0  0  0  0  0  0  0  0  0  0  0  0
   38.4860   28.5240   43.4380 O   0  0  0  0  0  0  0  0  0  0  0  0
   40.4420   27.5390   42.7130 N   0  0  0  0  0  0  0  0  0  0  0  0
   41.4390   27.4640   41.8250 C   0  0  0  0  0  0  0  0  0  0  0  0
   42.4710   26.5080   41.9650 N   0  0  0  0  0  0  0  0  0  0  0  0
   41.4740   28.2980   40.7740 N   0  0  0  0  0  0  0  0  0  0  0  0
   40.5000   29.2040   40.6270 C   0  0  0  0  0  0  0  0  0  0  0  0
   38.5070   31.9770   39.2460 C   0  0  1  0  0  0  0  0  0  0  0  0
   38.1360   31.6750   37.7840 C   0  0  0  0  0  0  0  0  0  0  0  0
   37.1060   31.8750   38.8690 C   0  0  1  0  0  0  0  0  0  0  0  0
   36.3170   30.6940   39.1620 N   0  0  0  0  0  0  0  0  0  0  0  0
   36.1060   29.6490   38.3210 C   0  0  0  0  0  0  0  0  0  0  0  0
   35.3220   28.7200   38.9220 N   0  0  0  0  0  0  0  0  0  0  0  0
   35.0420   29.1850   40.1430 C   0  0  0  0  0  0  0  0  0  0  0  0
   35.6450   30.3670   40.2710 N   0  0  0  0  0  0  0  0  0  0  0  0
   40.3640   26.6600   43.8610 C   0  0  0  0  0  0  0  0  0  0  0  0
   39.1790   26.7630   44.5370 F   0  0  0  0  0  0  0  0  0  0  0  0
   41.3440   27.1110   44.7740 F   0  0  0  0  0  0  0  0  0  0  0  0
   40.6520   25.3460   43.5170 F   0  0  0  0  0  0  0  0  0  0  0  0
   43.0721   32.4410   36.7423 H   0  0  0  0  0  0  0  0  0  0  0  0
   41.7168   32.4609   38.8455 H   0  0  0  0  0  0  0  0  0  0  0  0
   42.0127   28.4391   35.9855 H   0  0  0  0  0  0  0  0  0  0  0  0
   43.2309   26.4651   41.2710 H   0  0  0  0  0  0  0  0  0  0  0  0
   42.4630   25.8544   42.7610 H   0  0  0  0  0  0  0  0  0  0  0  0
   39.0678   32.7430   39.8017 H   0  0  0  0  0  0  0  0  0  0  0  0
   38.3117   30.6759   37.3585 H   0  0  0  0  0  0  0  0  0  0  0  0
   38.3518   32.1191   36.8010 H   0  0  0  0  0  0  0  0  0  0  0  0
   36.2594   32.5488   39.0670 H   0  0  0  0  0  0  0  0  0  0  0  0
   36.5115   29.5679   37.3017 H   0  0  0  0  0  0  0  0  0  0  0  0
   34.4260   28.6837   40.9041 H   0  0  0  0  0  0  0  0  0  0  0  0
  1  2  2  0
  2  3  1  0
  3  7  1  0
  4  3  2  0
  5  4  1  0
  6  5  2  0
  6  1  1  0
  7  8  1  0
  7 17  1  0
  8  9  2  0
  9 10  1  0
 10 11  1  0
 11 13  1  0
 11 12  2  0
 13 26  1  0
 14 15  1  0
 14 13  1  0
 16 14  2  0
 17 16  1  0
 17 10  2  0
 18  8  1  0
 19 20  1  0
 19 18  1  0
 20 21  1  0
 20 18  1  0
 21 25  1  0
 22 23  2  0
 22 21  1  0
 23 24  1  0
 24 25  2  0
 26 27  1  0
 26 28  1  0
 29 26  1  0
  1 30  1  0
  2 31  1  0
  5 32  1  0
 15 33  1  0
 15 34  1  0
 18 35  1  6
 19 36  1  0
 19 37  1  0
 20 38  1  6
 22 39  1  0
 24 40  1  0
M  ISO  8  30  14  31  14  32  14  35  13  36  13  37  13  38  13  39  14
M  ISO  1  40  14
M  END
>  <minimizedAffinity>  (1) 
-5.94758606

>  <minimizedRMSD>  (1) 
1.44234693

$$$$
