
     RDKit          3D

 40 43  0  0  1  0  0  0  0  0999 V2000
   42.7250   31.3160   37.2000 C   0  0  0  0  0  0  0  0  0  0  0  0
   41.9610   31.4450   38.3530 C   0  0  0  0  0  0  0  0  0  0  0  0
   41.0240   30.4600   38.6310 C   0  0  0  0  0  0  0  0  0  0  0  0
   40.9190   29.4380   37.7550 N   0  0  0  0  0  0  0  0  0  0  0  0
   41.6680   29.3370   36.6470 C   0  0  0  0  0  0  0  0  0  0  0  0
   42.5680   30.2780   36.3770 N   0  0  0  0  0  0  0  0  0  0  0  0
   40.1380   30.3640   39.7250 N   0  0  0  0  0  0  0  0  0  0  0  0
   39.2290   31.2670   39.9990 C   0  0  0  0  0  0  0  0  0  0  0  0
   38.5730   30.8380   41.1130 N   0  0  0  0  0  0  0  0  0  0  0  0
   39.0960   29.6580   41.5160 C   0  0  0  0  0  0  0  0  0  0  0  0
   38.8520   28.7720   42.5420 C   0  0  0  0  0  0  0  0  0  0  0  0
   37.9380   29.0370   43.3700 O   0  0  0  0  0  0  0  0  0  0  0  0
   39.6090   27.6520   42.6210 N   0  0  0  0  0  0  0  0  0  0  0  0
   40.5870   27.3800   41.7290 C   0  0  0  0  0  0  0  0  0  0  0  0
   41.3560   26.1970   41.8290 N   0  0  0  0  0  0  0  0  0  0  0  0
   40.8300   28.2320   40.7340 N   0  0  0  0  0  0  0  0  0  0  0  0
   40.1070   29.3560   40.6130 C   0  0  0  0  0  0  0  0  0  0  0  0
   38.8620   32.5780   39.3530 C   0  0  1  0  0  0  0  0  0  0  0  0
   37.3820   32.6350   38.9130 C   0  0  0  0  0  0  0  0  0  0  0  0
   37.9440   33.4800   40.0290 C   0  0  2  0  0  0  0  0  0  0  0  0
   37.9190   34.9530   39.8090 C   0  0  0  0  0  0  0  0  0  0  0  0
   39.2400   35.5430   40.2490 C   0  0  0  0  0  0  0  0  0  0  0  0
   39.3040   26.7660   43.7160 C   0  0  0  0  0  0  0  0  0  0  0  0
   38.3000   27.2210   44.5110 F   0  0  0  0  0  0  0  0  0  0  0  0
   40.4500   26.7330   44.5370 F   0  0  0  0  0  0  0  0  0  0  0  0
   39.0540   25.4660   43.2630 F   0  0  0  0  0  0  0  0  0  0  0  0
   43.4743   32.0850   36.9609 H   0  0  0  0  0  0  0  0  0  0  0  0
   42.0951   32.3040   39.0268 H   0  0  0  0  0  0  0  0  0  0  0  0
   41.5388   28.4823   35.9668 H   0  0  0  0  0  0  0  0  0  0  0  0
   42.0977   26.0052   41.1406 H   0  0  0  0  0  0  0  0  0  0  0  0
   41.1742   25.5274   42.5903 H   0  0  0  0  0  0  0  0  0  0  0  0
   39.8540   32.7347   38.9042 H   0  0  0  0  0  0  0  0  0  0  0  0
   37.1020   33.0925   37.9526 H   0  0  0  0  0  0  0  0  0  0  0  0
   36.5579   31.9157   38.7969 H   0  0  0  0  0  0  0  0  0  0  0  0
   37.7520   33.6321   41.1014 H   0  0  0  0  0  0  0  0  0  0  0  0
   37.7596   35.1630   38.7411 H   0  0  0  0  0  0  0  0  0  0  0  0
   37.1012   35.4004   40.3929 H   0  0  0  0  0  0  0  0  0  0  0  0
   39.2848   35.5630   41.3479 H   0  0  0  0  0  0  0  0  0  0  0  0
   40.0643   34.9275   39.8596 H   0  0  0  0  0  0  0  0  0  0  0  0
   39.3318   36.5677   39.8596 H   0  0  0  0  0  0  0  0  0  0  0  0
  1  2  2  0
  2  3  1  0
  3  7  1  0
  4  3  2  0
  5  4  1  0
  6  5  2  0
  6  1  1  0
  7  8  1  0
  7 17  1  0
  8  9  2  0
  9 10  1  0
 10 11  1  0
 11 13  1  0
 11 12  2  0
 13 23  1  0
 14 15  1  0
 14 13  1  0
 16 14  2  0
 17 16  1  0
 17 10  2  0
 18  8  1  0
 18 20  1  0
 19 18  1  0
 19 20  1  0
 21 20  1  0
 21 22  1  0
 23 24  1  0
 23 25  1  0
 26 23  1  0
  1 27  1  0
  2 28  1  0
  5 29  1  0
 15 30  1  0
 15 31  1  0
 18 32  1  6
 19 33  1  0
 19 34  1  0
 20 35  1  1
 21 36  1  0
 21 37  1  0
 22 38  1  0
 22 39  1  0
 22 40  1  0
M  ISO  8  27  14  28  14  29  14  32  13  33  13  34  13  35  13  36   8
M  ISO  4  37   8  38   8  39   8  40   8
M  END
>  <minimizedAffinity>  (1) 
-5.75123024

>  <minimizedRMSD>  (1) 
0.513583064

$$$$
