
     RDKit          3D

 37 40  0  0  1  0  0  0  0  0999 V2000
   42.5990   31.1420   37.0270 C   0  0  0  0  0  0  0  0  0  0  0  0
   41.8360   31.2960   38.1950 C   0  0  0  0  0  0  0  0  0  0  0  0
   40.9820   30.2680   38.5330 C   0  0  0  0  0  0  0  0  0  0  0  0
   40.9460   29.1810   37.7030 N   0  0  0  0  0  0  0  0  0  0  0  0
   41.6830   29.0640   36.5990 C   0  0  0  0  0  0  0  0  0  0  0  0
   42.5080   30.0510   36.2700 N   0  0  0  0  0  0  0  0  0  0  0  0
   40.1080   30.1530   39.6360 N   0  0  0  0  0  0  0  0  0  0  0  0
   39.1280   30.9900   39.8650 C   0  0  0  0  0  0  0  0  0  0  0  0
   38.4980   30.5650   40.9970 N   0  0  0  0  0  0  0  0  0  0  0  0
   39.1090   29.4560   41.4560 C   0  0  0  0  0  0  0  0  0  0  0  0
   38.9290   28.6050   42.5300 C   0  0  0  0  0  0  0  0  0  0  0  0
   37.9940   28.8310   43.3380 O   0  0  0  0  0  0  0  0  0  0  0  0
   39.7870   27.5550   42.6570 N   0  0  0  0  0  0  0  0  0  0  0  0
   40.7840   27.3190   41.7920 C   0  0  0  0  0  0  0  0  0  0  0  0
   41.6630   26.2110   41.9550 N   0  0  0  0  0  0  0  0  0  0  0  0
   40.9660   28.1400   40.7460 N   0  0  0  0  0  0  0  0  0  0  0  0
   40.1560   29.1820   40.5760 C   0  0  0  0  0  0  0  0  0  0  0  0
   38.6640   32.2340   39.1640 C   0  0  1  0  0  0  0  0  0  0  0  0
   37.5700   31.9640   38.1100 C   0  0  0  0  0  0  0  0  0  0  0  0
   37.3230   32.7450   39.3800 C   0  0  2  0  0  0  0  0  0  0  0  0
   37.0750   34.2400   39.2880 C   0  0  0  0  0  0  0  0  0  0  0  0
   39.5460   26.7000   43.8030 C   0  0  0  0  0  0  0  0  0  0  0  0
   38.5120   27.1260   44.5830 F   0  0  0  0  0  0  0  0  0  0  0  0
   40.6940   26.7950   44.6200 F   0  0  0  0  0  0  0  0  0  0  0  0
   39.3910   25.3660   43.4250 F   0  0  0  0  0  0  0  0  0  0  0  0
   43.2904   31.9441   36.7294 H   0  0  0  0  0  0  0  0  0  0  0  0
   41.9163   32.2006   38.8157 H   0  0  0  0  0  0  0  0  0  0  0  0
   41.6091   28.1643   35.9704 H   0  0  0  0  0  0  0  0  0  0  0  0
   42.4215   26.0512   41.2767 H   0  0  0  0  0  0  0  0  0  0  0  0
   41.5405   25.5692   42.7512 H   0  0  0  0  0  0  0  0  0  0  0  0
   39.6500   32.7191   39.2142 H   0  0  0  0  0  0  0  0  0  0  0  0
   37.5944   32.4744   37.1359 H   0  0  0  0  0  0  0  0  0  0  0  0
   37.1354   31.0793   37.6217 H   0  0  0  0  0  0  0  0  0  0  0  0
   36.5986   32.6542   40.2028 H   0  0  0  0  0  0  0  0  0  0  0  0
   37.0048   34.6631   40.3010 H   0  0  0  0  0  0  0  0  0  0  0  0
   37.9063   34.7170   38.7482 H   0  0  0  0  0  0  0  0  0  0  0  0
   36.1342   34.4231   38.7482 H   0  0  0  0  0  0  0  0  0  0  0  0
  1  2  2  0
  2  3  1  0
  3  7  1  0
  4  3  2  0
  5  4  1  0
  6  5  2  0
  6  1  1  0
  7  8  1  0
  7 17  1  0
  8  9  2  0
  9 10  1  0
 10 11  1  0
 11 13  1  0
 11 12  2  0
 13 22  1  0
 14 15  1  0
 14 13  1  0
 16 14  2  0
 17 16  1  0
 17 10  2  0
 18 20  1  0
 18  8  1  0
 19 18  1  0
 19 20  1  0
 21 20  1  0
 22 23  1  0
 22 24  1  0
 25 22  1  0
  1 26  1  0
  2 27  1  0
  5 28  1  0
 15 29  1  0
 15 30  1  0
 18 31  1  6
 19 32  1  0
 19 33  1  0
 20 34  1  1
 21 35  1  0
 21 36  1  0
 21 37  1  0
M  ISO  8  26  14  27  14  28  14  31  13  32  13  33  13  34  13  35   8
M  ISO  2  36   8  37   8
M  END
>  <minimizedAffinity>  (1) 
-5.6052494

>  <minimizedRMSD>  (1) 
0.350750834

$$$$
