
     RDKit          3D

 24 26  0  0  0  0  0  0  0  0999 V2000
   37.6430   30.4710   40.8310 C   0  0  0  0  0  0  0  0  0  0  0  0
   37.4910   29.5330   39.8160 C   0  0  0  0  0  0  0  0  0  0  0  0
   37.2210   28.3710   40.4910 C   0  0  0  0  0  0  0  0  0  0  0  0
   37.2070   28.5840   41.8330 N   0  0  0  0  0  0  0  0  0  0  0  0
   37.4670   29.8730   42.0290 N   0  0  0  0  0  0  0  0  0  0  0  0
   39.0780   32.5230   41.0900 C   0  0  0  0  0  0  0  0  0  0  0  0
   37.9470   31.8830   40.5850 C   0  0  0  0  0  0  0  0  0  0  0  0
   37.0560   32.6270   39.8050 C   0  0  0  0  0  0  0  0  0  0  0  0
   37.3360   33.9500   39.5750 N   0  0  0  0  0  0  0  0  0  0  0  0
   38.4650   34.5250   40.0970 C   0  0  0  0  0  0  0  0  0  0  0  0
   39.3260   33.8110   40.8480 N   0  0  0  0  0  0  0  0  0  0  0  0
   36.9670   27.6560   42.9220 C   0  0  0  0  0  0  0  0  0  0  0  0
   37.0550   28.0790   44.3230 C   0  0  0  0  0  0  0  0  0  0  0  0
   38.2140   27.2730   43.7640 C   0  0  0  0  0  0  0  0  0  0  0  0
   37.5689   29.6869   38.7296 H   0  0  0  0  0  0  0  0  0  0  0  0
   37.0401   27.3978   40.0113 H   0  0  0  0  0  0  0  0  0  0  0  0
   39.7862   31.9492   41.7058 H   0  0  0  0  0  0  0  0  0  0  0  0
   36.1516   32.1620   39.3856 H   0  0  0  0  0  0  0  0  0  0  0  0
   38.6717   35.5872   39.8996 H   0  0  0  0  0  0  0  0  0  0  0  0
   36.1826   27.1363   42.3522 H   0  0  0  0  0  0  0  0  0  0  0  0
   37.1990   29.1434   44.5603 H   0  0  0  0  0  0  0  0  0  0  0  0
   36.3971   27.9621   45.1968 H   0  0  0  0  0  0  0  0  0  0  0  0
   38.3746   26.2322   44.0818 H   0  0  0  0  0  0  0  0  0  0  0  0
   39.3028   27.4023   43.6760 H   0  0  0  0  0  0  0  0  0  0  0  0
  1  5  2  0
  2  3  2  0
  2  1  1  0
  3  4  1  0
  4  5  1  0
  4 12  1  0
  7  1  1  0
  7  6  2  0
  8  7  1  0
  9  8  2  0
  9 10  1  0
 10 11  2  0
 11  6  1  0
 12 14  1  0
 12 13  1  0
 14 13  1  0
  2 15  1  0
  3 16  1  0
  6 17  1  0
  8 18  1  0
 10 19  1  0
 12 20  1  0
 13 21  1  0
 13 22  1  0
 14 23  1  0
 14 24  1  0
M  ISO  8  15  14  16  14  17  14  18  14  19  14  20  13  21  13  22  13
M  ISO  2  23  13  24  13
M  END
>  <minimizedAffinity>  (1) 
-4.34370756

>  <minimizedRMSD>  (1) 
4.2489233

$$$$
