
     RDKit          3D

 18 19  0  0  0  0  0  0  0  0999 V2000
   37.6710   30.2100   41.6450 C   0  0  0  0  0  0  0  0  0  0  0  0
   37.6090   28.8190   41.8870 C   0  0  0  0  0  0  0  0  0  0  0  0
   36.4950   28.0990   41.4570 C   0  0  0  0  0  0  0  0  0  0  0  0
   35.5030   28.7790   40.8140 N   0  0  0  0  0  0  0  0  0  0  0  0
   35.5870   30.1280   40.5920 C   0  0  0  0  0  0  0  0  0  0  0  0
   36.6660   30.8290   41.0090 N   0  0  0  0  0  0  0  0  0  0  0  0
   38.6860   28.1150   42.5790 C   0  0  0  0  0  0  0  0  0  0  0  0
   39.9580   28.6390   42.7440 C   0  0  0  0  0  0  0  0  0  0  0  0
   40.7160   27.7110   43.4380 C   0  0  0  0  0  0  0  0  0  0  0  0
   39.8670   26.6660   43.6630 C   0  0  0  0  0  0  0  0  0  0  0  0
   38.6930   26.9350   43.1490 O   0  0  0  0  0  0  0  0  0  0  0  0
   40.0930   25.4570   44.3190 O   0  0  0  0  0  0  0  0  0  0  0  0
   38.5462   30.7864   41.9793 H   0  0  0  0  0  0  0  0  0  0  0  0
   36.4186   27.0156   41.6311 H   0  0  0  0  0  0  0  0  0  0  0  0
   34.7693   30.6462   40.0697 H   0  0  0  0  0  0  0  0  0  0  0  0
   40.3047   29.6198   42.3865 H   0  0  0  0  0  0  0  0  0  0  0  0
   41.7699   27.7969   43.7412 H   0  0  0  0  0  0  0  0  0  0  0  0
   39.3628   24.7934   44.3993 H   0  0  0  0  0  0  0  0  0  0  0  0
  1  2  2  0
  2  7  1  0
  3  2  1  0
  4  3  2  0
  5  4  1  0
  5  6  2  0
  6  1  1  0
  7  8  2  0
  7 11  1  0
  8  9  1  0
  9 10  2  0
 10 12  1  0
 11 10  1  0
  1 13  1  0
  3 14  1  0
  5 15  1  0
  8 16  1  0
  9 17  1  0
 12 18  1  0
M  ISO  6  13  14  14  14  15  14  16  14  17  14  18   3
M  END
>  <minimizedAffinity>  (1) 
-3.66407871

>  <minimizedRMSD>  (1) 
0.293335348

$$$$
