
     RDKit          3D

 19 20  0  0  0  0  0  0  0  0999 V2000
   38.6320   28.0510   42.5040 C   0  0  0  0  0  0  0  0  0  0  0  0
   39.8650   28.6900   42.7250 C   0  0  0  0  0  0  0  0  0  0  0  0
   40.6420   27.7390   43.4030 C   0  0  0  0  0  0  0  0  0  0  0  0
   39.8510   26.6210   43.5440 C   0  0  0  0  0  0  0  0  0  0  0  0
   38.6960   26.8350   43.0130 O   0  0  0  0  0  0  0  0  0  0  0  0
   37.4370   30.1370   41.7510 C   0  0  0  0  0  0  0  0  0  0  0  0
   37.5360   28.7360   41.8090 C   0  0  0  0  0  0  0  0  0  0  0  0
   36.5600   27.9420   41.1840 C   0  0  0  0  0  0  0  0  0  0  0  0
   35.5410   28.6030   40.5360 N   0  0  0  0  0  0  0  0  0  0  0  0
   35.4720   29.9490   40.4970 C   0  0  0  0  0  0  0  0  0  0  0  0
   36.4060   30.6960   41.0960 N   0  0  0  0  0  0  0  0  0  0  0  0
   40.1820   25.3830   44.1660 N   0  0  0  0  0  0  0  0  0  0  0  0
   40.1557   29.7094   42.4314 H   0  0  0  0  0  0  0  0  0  0  0  0
   41.6777   27.8621   43.7526 H   0  0  0  0  0  0  0  0  0  0  0  0
   38.1954   30.7686   42.2366 H   0  0  0  0  0  0  0  0  0  0  0  0
   36.6078   26.8434   41.2111 H   0  0  0  0  0  0  0  0  0  0  0  0
   34.6403   30.4371   39.9679 H   0  0  0  0  0  0  0  0  0  0  0  0
   39.4880   24.6228   44.2016 H   0  0  0  0  0  0  0  0  0  0  0  0
   41.1154   25.2481   44.5802 H   0  0  0  0  0  0  0  0  0  0  0  0
  1  2  2  0
  1  5  1  0
  2  3  1  0
  3  4  2  0
  4 12  1  0
  5  4  1  0
  6  7  2  0
  7  1  1  0
  8  7  1  0
  9  8  2  0
 10  9  1  0
 10 11  2  0
 11  6  1  0
  2 13  1  0
  3 14  1  0
  6 15  1  0
  8 16  1  0
 10 17  1  0
 12 18  1  0
 12 19  1  0
M  ISO  5  13  14  14  14  15  14  16  14  17  14
M  END
>  <minimizedAffinity>  (1) 
-3.55617166

>  <minimizedRMSD>  (1) 
0.44994092

$$$$
