
     RDKit          3D

 24 25  0  0  0  0  0  0  0  0999 V2000
   38.0040   28.2810   41.7550 C   0  0  0  0  0  0  0  0  0  0  0  0
   38.5860   28.6230   42.9800 C   0  0  0  0  0  0  0  0  0  0  0  0
   38.9370   29.9580   42.8760 C   0  0  0  0  0  0  0  0  0  0  0  0
   38.5540   30.3510   41.6050 C   0  0  0  0  0  0  0  0  0  0  0  0
   38.0170   29.3550   40.9860 O   0  0  0  0  0  0  0  0  0  0  0  0
   37.4930   25.9360   42.4370 C   0  0  0  0  0  0  0  0  0  0  0  0
   37.4920   26.9460   41.4500 C   0  0  0  0  0  0  0  0  0  0  0  0
   37.0000   26.6420   40.1950 C   0  0  0  0  0  0  0  0  0  0  0  0
   36.5300   25.3890   39.9360 N   0  0  0  0  0  0  0  0  0  0  0  0
   36.5450   24.4350   40.9170 C   0  0  0  0  0  0  0  0  0  0  0  0
   37.0260   24.7130   42.1550 N   0  0  0  0  0  0  0  0  0  0  0  0
   38.7630   31.6820   41.1430 N   0  0  0  0  0  0  0  0  0  0  0  0
   37.7570   32.3030   40.3510 C   0  0  0  0  0  0  0  0  0  0  0  0
   36.5180   32.0980   40.5780 N   0  0  0  0  0  0  0  0  0  0  0  0
   38.1230   33.1870   39.2690 N   0  0  0  0  0  0  0  0  0  0  0  0
   36.2110   31.4730   41.3440 H   0  0  0  0  0  0  0  0  0  0  0  0
   38.7345   27.9652   43.8490 H   0  0  0  0  0  0  0  0  0  0  0  0
   39.4205   30.5786   43.6448 H   0  0  0  0  0  0  0  0  0  0  0  0
   37.8796   26.1551   43.4432 H   0  0  0  0  0  0  0  0  0  0  0  0
   36.9877   27.4093   39.4069 H   0  0  0  0  0  0  0  0  0  0  0  0
   36.1613   23.4275   40.6986 H   0  0  0  0  0  0  0  0  0  0  0  0
   39.6291   32.1873   41.3786 H   0  0  0  0  0  0  0  0  0  0  0  0
   39.1163   33.3685   39.0658 H   0  0  0  0  0  0  0  0  0  0  0  0
   37.3907   33.6359   38.7006 H   0  0  0  0  0  0  0  0  0  0  0  0
  1  2  2  0
  3  2  1  0
  4  3  2  0
  5  4  1  0
  5  1  1  0
  7  1  1  0
  7  6  2  0
  8  7  1  0
  9  8  2  0
  9 10  1  0
 10 11  2  0
 11  6  1  0
 12  4  1  0
 13 14  2  0
 13 12  1  0
 14 16  1  0
 15 13  1  0
  2 17  1  0
  3 18  1  0
  6 19  1  0
  8 20  1  0
 10 21  1  0
 12 22  1  0
 15 23  1  0
 15 24  1  0
M  ISO  5  17  14  18  14  19  14  20  14  21  14
M  END
>  <minimizedAffinity>  (1) 
-4.55773687

>  <minimizedRMSD>  (1) 
5.94490337

$$$$
