
     RDKit          3D

 31 33  0  0  0  0  0  0  0  0999 V2000
   37.5350   29.6310   41.4510 C   0  0  0  0  0  0  0  0  0  0  0  0
   36.2400   29.2210   41.1020 C   0  0  0  0  0  0  0  0  0  0  0  0
   36.1020   27.9390   41.6050 C   0  0  0  0  0  0  0  0  0  0  0  0
   37.3140   27.6410   42.2280 C   0  0  0  0  0  0  0  0  0  0  0  0
   38.1220   28.6450   42.1200 O   0  0  0  0  0  0  0  0  0  0  0  0
   37.2950   31.9000   40.4770 C   0  0  0  0  0  0  0  0  0  0  0  0
   38.0890   30.9320   41.1090 C   0  0  0  0  0  0  0  0  0  0  0  0
   39.3920   31.2600   41.3850 C   0  0  0  0  0  0  0  0  0  0  0  0
   39.8740   32.4800   41.0500 N   0  0  0  0  0  0  0  0  0  0  0  0
   39.0680   33.4100   40.4280 C   0  0  0  0  0  0  0  0  0  0  0  0
   37.7850   33.1040   40.1490 N   0  0  0  0  0  0  0  0  0  0  0  0
   39.6850   34.6570   40.1250 N   0  0  0  0  0  0  0  0  0  0  0  0
   40.9050   35.0740   39.7470 C   0  0  0  0  0  0  0  0  0  0  0  0
   40.8760   36.4460   39.6040 C   0  0  0  0  0  0  0  0  0  0  0  0
   39.6150   36.8400   39.9050 N   0  0  0  0  0  0  0  0  0  0  0  0
   38.8880   35.7480   40.2210 C   0  0  0  0  0  0  0  0  0  0  0  0
   37.5430   26.3870   42.8670 N   0  0  0  0  0  0  0  0  0  0  0  0
   38.3990   25.4390   42.2330 C   0  0  0  0  0  0  0  0  0  0  0  0
   39.4270   25.8050   41.5740 N   0  0  0  0  0  0  0  0  0  0  0  0
   38.1070   24.0280   42.3290 N   0  0  0  0  0  0  0  0  0  0  0  0
   39.6680   26.8110   41.4920 H   0  0  0  0  0  0  0  0  0  0  0  0
   35.4889   29.7991   40.5437 H   0  0  0  0  0  0  0  0  0  0  0  0
   35.2181   27.2886   41.5291 H   0  0  0  0  0  0  0  0  0  0  0  0
   36.2456   31.6659   40.2450 H   0  0  0  0  0  0  0  0  0  0  0  0
   40.0478   30.5290   41.8804 H   0  0  0  0  0  0  0  0  0  0  0  0
   41.7805   34.4294   39.5795 H   0  0  0  0  0  0  0  0  0  0  0  0
   41.7131   37.0935   39.3042 H   0  0  0  0  0  0  0  0  0  0  0  0
   37.8262   35.7444   40.5084 H   0  0  0  0  0  0  0  0  0  0  0  0
   37.0981   26.1699   43.7702 H   0  0  0  0  0  0  0  0  0  0  0  0
   38.7244   23.3420   41.8716 H   0  0  0  0  0  0  0  0  0  0  0  0
   37.2814   23.7076   42.8549 H   0  0  0  0  0  0  0  0  0  0  0  0
  1  5  1  0
  2  1  2  0
  2  3  1  0
  3  4  2  0
  4 17  1  0
  5  4  1  0
  6  7  2  0
  7  8  1  0
  7  1  1  0
  9  8  2  0
 10  9  1  0
 11 10  2  0
 11  6  1  0
 12 16  1  0
 12 10  1  0
 13 12  1  0
 14 13  2  0
 14 15  1  0
 15 16  2  0
 18 20  1  0
 18 17  1  0
 19 18  2  0
 21 19  1  0
  2 22  1  0
  3 23  1  0
  6 24  1  0
  8 25  1  0
 13 26  1  0
 14 27  1  0
 16 28  1  0
 17 29  1  0
 20 30  1  0
 20 31  1  0
M  ISO  7  22  14  23  14  24  14  25  14  26  14  27  14  28  14
M  END
>  <minimizedAffinity>  (1) 
-5.78116131

>  <minimizedRMSD>  (1) 
8.99417973

$$$$
