
     RDKit          3D

 35 38  0  0  0  0  0  0  0  0999 V2000
   37.8190   27.3830   41.6640 C   0  0  0  0  0  0  0  0  0  0  0  0
   37.9830   28.4990   40.8190 C   0  0  0  0  0  0  0  0  0  0  0  0
   37.5490   28.4100   39.5110 C   0  0  0  0  0  0  0  0  0  0  0  0
   36.9750   27.2410   39.0820 N   0  0  0  0  0  0  0  0  0  0  0  0
   36.8310   26.1810   39.9190 C   0  0  0  0  0  0  0  0  0  0  0  0
   37.2570   26.2650   41.2100 N   0  0  0  0  0  0  0  0  0  0  0  0
   36.2380   24.9580   39.4950 N   0  0  0  0  0  0  0  0  0  0  0  0
   36.3560   23.7820   40.1580 C   0  0  0  0  0  0  0  0  0  0  0  0
   35.7080   22.7910   39.5540 N   0  0  0  0  0  0  0  0  0  0  0  0
   35.1380   23.3050   38.4570 C   0  0  0  0  0  0  0  0  0  0  0  0
   34.3550   22.7470   37.4660 C   0  0  0  0  0  0  0  0  0  0  0  0
   33.9330   23.5630   36.4770 N   0  0  0  0  0  0  0  0  0  0  0  0
   34.2710   24.8770   36.4670 C   0  0  0  0  0  0  0  0  0  0  0  0
   35.0440   25.4460   37.4380 N   0  0  0  0  0  0  0  0  0  0  0  0
   35.4730   24.6430   38.4340 C   0  0  0  0  0  0  0  0  0  0  0  0
   38.6040   29.7280   41.3290 C   0  0  0  0  0  0  0  0  0  0  0  0
   39.4150   29.7700   42.4720 C   0  0  0  0  0  0  0  0  0  0  0  0
   39.7990   31.0930   42.6130 C   0  0  0  0  0  0  0  0  0  0  0  0
   39.2090   31.7730   41.5650 C   0  0  0  0  0  0  0  0  0  0  0  0
   38.5220   30.9530   40.8360 O   0  0  0  0  0  0  0  0  0  0  0  0
   39.3800   33.1760   41.3800 N   0  0  0  0  0  0  0  0  0  0  0  0
   38.5480   33.8530   40.4470 C   0  0  0  0  0  0  0  0  0  0  0  0
   37.3370   33.5310   40.2600 N   0  0  0  0  0  0  0  0  0  0  0  0
   39.1100   34.9500   39.6860 N   0  0  0  0  0  0  0  0  0  0  0  0
   36.9060   32.7550   40.7970 H   0  0  0  0  0  0  0  0  0  0  0  0
   38.1587   27.4364   42.7089 H   0  0  0  0  0  0  0  0  0  0  0  0
   37.6619   29.2624   38.8250 H   0  0  0  0  0  0  0  0  0  0  0  0
   36.9246   23.6610   41.0918 H   0  0  0  0  0  0  0  0  0  0  0  0
   34.0860   21.6805   37.4818 H   0  0  0  0  0  0  0  0  0  0  0  0
   33.9076   25.5093   35.6435 H   0  0  0  0  0  0  0  0  0  0  0  0
   39.6895   28.9264   43.1223 H   0  0  0  0  0  0  0  0  0  0  0  0
   40.4422   31.5160   43.3987 H   0  0  0  0  0  0  0  0  0  0  0  0
   40.0948   33.6910   41.9137 H   0  0  0  0  0  0  0  0  0  0  0  0
   38.5268   35.4558   39.0041 H   0  0  0  0  0  0  0  0  0  0  0  0
   40.0928   35.2243   39.8268 H   0  0  0  0  0  0  0  0  0  0  0  0
  2 16  1  0
  2  1  2  0
  3  2  1  0
  4  3  2  0
  4  5  1  0
  5  6  2  0
  6  1  1  0
  7  5  1  0
  7  8  1  0
  9  8  2  0
 10  9  1  0
 11 10  2  0
 12 11  1  0
 13 12  2  0
 13 14  1  0
 14 15  2  0
 15 10  1  0
 15  7  1  0
 16 17  2  0
 17 18  1  0
 19 18  2  0
 20 16  1  0
 20 19  1  0
 21 19  1  0
 22 21  1  0
 23 22  2  0
 23 25  1  0
 24 22  1  0
  1 26  1  0
  3 27  1  0
  8 28  1  0
 11 29  1  0
 13 30  1  0
 17 31  1  0
 18 32  1  0
 21 33  1  0
 24 34  1  0
 24 35  1  0
M  ISO  7  26  14  27  14  28  14  29  14  30  14  31  14  32  14
M  END
>  <minimizedAffinity>  (1) 
-5.57338524

>  <minimizedRMSD>  (1) 
2.09552884

$$$$
