
     RDKit          3D

 33 35  0  0  0  0  0  0  0  0999 V2000
   37.8230   28.2500   41.4510 C   0  0  0  0  0  0  0  0  0  0  0  0
   38.2240   28.4690   42.7720 C   0  0  0  0  0  0  0  0  0  0  0  0
   38.6310   29.7870   42.8370 C   0  0  0  0  0  0  0  0  0  0  0  0
   38.4580   30.2970   41.5610 C   0  0  0  0  0  0  0  0  0  0  0  0
   37.9880   29.3790   40.7860 O   0  0  0  0  0  0  0  0  0  0  0  0
   37.3560   25.8160   41.7990 C   0  0  0  0  0  0  0  0  0  0  0  0
   37.3200   26.9650   40.9680 C   0  0  0  0  0  0  0  0  0  0  0  0
   36.7980   26.8440   39.6940 C   0  0  0  0  0  0  0  0  0  0  0  0
   36.3370   25.6460   39.2630 N   0  0  0  0  0  0  0  0  0  0  0  0
   36.3820   24.5430   40.0900 C   0  0  0  0  0  0  0  0  0  0  0  0
   36.8910   24.6630   41.3310 N   0  0  0  0  0  0  0  0  0  0  0  0
   35.8960   23.2560   39.6530 C   0  0  0  0  0  0  0  0  0  0  0  0
   34.5310   23.0790   39.5150 C   0  0  0  0  0  0  0  0  0  0  0  0
   34.0340   21.8590   39.0990 C   0  0  0  0  0  0  0  0  0  0  0  0
   34.8480   20.7820   38.8050 C   0  0  0  0  0  0  0  0  0  0  0  0
   36.2080   21.0260   38.9640 C   0  0  0  0  0  0  0  0  0  0  0  0
   36.7000   22.2150   39.3700 N   0  0  0  0  0  0  0  0  0  0  0  0
   38.7770   31.6480   41.2440 N   0  0  0  0  0  0  0  0  0  0  0  0
   37.8690   32.3880   40.4200 C   0  0  0  0  0  0  0  0  0  0  0  0
   36.6000   32.2280   40.5060 N   0  0  0  0  0  0  0  0  0  0  0  0
   38.4060   33.3400   39.4710 N   0  0  0  0  0  0  0  0  0  0  0  0
   36.2010   31.5480   41.1580 H   0  0  0  0  0  0  0  0  0  0  0  0
   38.2168   27.7385   43.5943 H   0  0  0  0  0  0  0  0  0  0  0  0
   39.0134   30.3211   43.7193 H   0  0  0  0  0  0  0  0  0  0  0  0
   37.7640   25.8790   42.8186 H   0  0  0  0  0  0  0  0  0  0  0  0
   36.7571   27.7204   39.0305 H   0  0  0  0  0  0  0  0  0  0  0  0
   33.8427   23.9080   39.7361 H   0  0  0  0  0  0  0  0  0  0  0  0
   32.9452   21.7401   38.9976 H   0  0  0  0  0  0  0  0  0  0  0  0
   34.4527   19.8109   38.4723 H   0  0  0  0  0  0  0  0  0  0  0  0
   36.9155   20.2117   38.7487 H   0  0  0  0  0  0  0  0  0  0  0  0
   39.6406   32.0829   41.5990 H   0  0  0  0  0  0  0  0  0  0  0  0
   39.4245   33.4740   39.3962 H   0  0  0  0  0  0  0  0  0  0  0  0
   37.7696   33.8834   38.8705 H   0  0  0  0  0  0  0  0  0  0  0  0
  1  2  2  0
  2  3  1  0
  4  3  2  0
  5  1  1  0
  5  4  1  0
  7  1  1  0
  7  6  2  0
  8  7  1  0
  9  8  2  0
  9 10  1  0
 10 11  2  0
 11  6  1  0
 12 10  1  0
 13 12  2  0
 14 13  1  0
 15 16  1  0
 15 14  2  0
 16 17  2  0
 17 12  1  0
 18  4  1  0
 19 20  2  0
 19 18  1  0
 20 22  1  0
 21 19  1  0
  2 23  1  0
  3 24  1  0
  6 25  1  0
  8 26  1  0
 13 27  1  0
 14 28  1  0
 15 29  1  0
 16 30  1  0
 18 31  1  0
 21 32  1  0
 21 33  1  0
M  ISO  8  23  14  24  14  25  14  26  14  27  14  28  14  29  14  30  14
M  END
>  <minimizedAffinity>  (1) 
-5.19826746

>  <minimizedRMSD>  (1) 
0.777671158

$$$$
