
     RDKit          3D

 25 26  0  0  0  0  0  0  0  0999 V2000
   38.0290   28.3900   41.6980 C   0  0  0  0  0  0  0  0  0  0  0  0
   38.6030   28.6760   42.9320 C   0  0  0  0  0  0  0  0  0  0  0  0
   38.9660   30.0090   42.8870 C   0  0  0  0  0  0  0  0  0  0  0  0
   38.5940   30.4600   41.6320 C   0  0  0  0  0  0  0  0  0  0  0  0
   38.0540   29.4940   40.9700 O   0  0  0  0  0  0  0  0  0  0  0  0
   37.4790   26.0190   42.2820 C   0  0  0  0  0  0  0  0  0  0  0  0
   37.5070   27.0760   41.3310 C   0  0  0  0  0  0  0  0  0  0  0  0
   37.0240   26.8210   40.0500 C   0  0  0  0  0  0  0  0  0  0  0  0
   36.5470   25.5850   39.7480 N   0  0  0  0  0  0  0  0  0  0  0  0
   36.5400   24.6040   40.6900 C   0  0  0  0  0  0  0  0  0  0  0  0
   37.0010   24.8280   41.9360 N   0  0  0  0  0  0  0  0  0  0  0  0
   36.0390   23.3660   40.3200 O   0  0  0  0  0  0  0  0  0  0  0  0
   38.8170   31.8060   41.2260 N   0  0  0  0  0  0  0  0  0  0  0  0
   37.8530   32.4420   40.4030 C   0  0  0  0  0  0  0  0  0  0  0  0
   36.5940   32.2100   40.5330 N   0  0  0  0  0  0  0  0  0  0  0  0
   38.2680   33.3750   39.3900 N   0  0  0  0  0  0  0  0  0  0  0  0
   36.2540   31.5600   41.2590 H   0  0  0  0  0  0  0  0  0  0  0  0
   38.7404   27.9816   43.7740 H   0  0  0  0  0  0  0  0  0  0  0  0
   39.4507   30.5916   43.6843 H   0  0  0  0  0  0  0  0  0  0  0  0
   37.8526   26.1869   43.3029 H   0  0  0  0  0  0  0  0  0  0  0  0
   37.0286   27.6144   39.2881 H   0  0  0  0  0  0  0  0  0  0  0  0
   36.0162   22.6250   40.9761 H   0  0  0  0  0  0  0  0  0  0  0  0
   39.6643   32.3096   41.5250 H   0  0  0  0  0  0  0  0  0  0  0  0
   39.2684   33.5829   39.2600 H   0  0  0  0  0  0  0  0  0  0  0  0
   37.5648   33.8352   38.7945 H   0  0  0  0  0  0  0  0  0  0  0  0
  1  2  2  0
  3  2  1  0
  4  3  2  0
  5  4  1  0
  5  1  1  0
  7  1  1  0
  7  6  2  0
  8  7  1  0
  9  8  2  0
  9 10  1  0
 10 11  2  0
 11  6  1  0
 12 10  1  0
 13  4  1  0
 14 15  2  0
 14 13  1  0
 15 17  1  0
 16 14  1  0
  2 18  1  0
  3 19  1  0
  6 20  1  0
  8 21  1  0
 12 22  1  0
 13 23  1  0
 16 24  1  0
 16 25  1  0
M  ISO  5  18  14  19  14  20  14  21  14  22   3
M  END
>  <minimizedAffinity>  (1) 
-4.66854763

>  <minimizedRMSD>  (1) 
0.201486737

$$$$
