
     RDKit          3D

 26 27  0  0  0  0  0  0  0  0999 V2000
   38.0440   28.4190   41.6620 C   0  0  0  0  0  0  0  0  0  0  0  0
   38.6060   28.7020   42.9080 C   0  0  0  0  0  0  0  0  0  0  0  0
   38.9730   30.0300   42.8830 C   0  0  0  0  0  0  0  0  0  0  0  0
   38.6180   30.4970   41.6240 C   0  0  0  0  0  0  0  0  0  0  0  0
   38.0850   29.5400   40.9480 O   0  0  0  0  0  0  0  0  0  0  0  0
   37.4600   26.0710   42.2310 C   0  0  0  0  0  0  0  0  0  0  0  0
   37.5250   27.1070   41.2830 C   0  0  0  0  0  0  0  0  0  0  0  0
   37.0900   26.8610   39.9900 C   0  0  0  0  0  0  0  0  0  0  0  0
   36.6120   25.6280   39.6660 N   0  0  0  0  0  0  0  0  0  0  0  0
   36.5600   24.6420   40.6030 C   0  0  0  0  0  0  0  0  0  0  0  0
   36.9850   24.8680   41.8830 N   0  0  0  0  0  0  0  0  0  0  0  0
   36.0470   23.3830   40.1860 N   0  0  0  0  0  0  0  0  0  0  0  0
   38.8510   31.8470   41.2360 N   0  0  0  0  0  0  0  0  0  0  0  0
   37.8900   32.4880   40.3980 C   0  0  0  0  0  0  0  0  0  0  0  0
   36.6310   32.2580   40.5090 N   0  0  0  0  0  0  0  0  0  0  0  0
   38.3300   33.4230   39.3920 N   0  0  0  0  0  0  0  0  0  0  0  0
   36.2900   31.5980   41.2210 H   0  0  0  0  0  0  0  0  0  0  0  0
   38.7315   28.0013   43.7466 H   0  0  0  0  0  0  0  0  0  0  0  0
   39.4489   30.6022   43.6930 H   0  0  0  0  0  0  0  0  0  0  0  0
   37.8003   26.2489   43.2618 H   0  0  0  0  0  0  0  0  0  0  0  0
   37.1307   27.6563   39.2311 H   0  0  0  0  0  0  0  0  0  0  0  0
   35.9866   22.6037   40.8568 H   0  0  0  0  0  0  0  0  0  0  0  0
   35.7358   23.2503   39.2131 H   0  0  0  0  0  0  0  0  0  0  0  0
   39.6929   32.3489   41.5525 H   0  0  0  0  0  0  0  0  0  0  0  0
   39.3337   33.6259   39.2813 H   0  0  0  0  0  0  0  0  0  0  0  0
   37.6405   33.8878   38.7842 H   0  0  0  0  0  0  0  0  0  0  0  0
  1  2  2  0
  3  2  1  0
  4  3  2  0
  5  4  1  0
  5  1  1  0
  7  1  1  0
  7  6  2  0
  8  7  1  0
  9  8  2  0
  9 10  1  0
 10 11  2  0
 11  6  1  0
 12 10  1  0
 13  4  1  0
 14 15  2  0
 14 13  1  0
 15 17  1  0
 16 14  1  0
  2 18  1  0
  3 19  1  0
  6 20  1  0
  8 21  1  0
 12 22  1  0
 12 23  1  0
 13 24  1  0
 16 25  1  0
 16 26  1  0
M  ISO  4  18  14  19  14  20  14  21  14
M  END
>  <minimizedAffinity>  (1) 
-4.64918184

>  <minimizedRMSD>  (1) 
0.269181877

$$$$
