
     RDKit          3D

 31 33  0  0  0  0  0  0  0  0999 V2000
   38.6340   29.7350   41.4110 C   0  0  0  0  0  0  0  0  0  0  0  0
   39.5040   29.7910   42.5170 C   0  0  0  0  0  0  0  0  0  0  0  0
   39.8870   31.1150   42.6290 C   0  0  0  0  0  0  0  0  0  0  0  0
   39.2360   31.7870   41.5960 C   0  0  0  0  0  0  0  0  0  0  0  0
   38.5160   30.9560   40.9070 O   0  0  0  0  0  0  0  0  0  0  0  0
   38.4980   27.2540   41.3560 C   0  0  0  0  0  0  0  0  0  0  0  0
   38.0040   28.5040   40.9550 C   0  0  0  0  0  0  0  0  0  0  0  0
   36.9130   28.5310   40.1230 C   0  0  0  0  0  0  0  0  0  0  0  0
   36.3290   27.3640   39.6990 N   0  0  0  0  0  0  0  0  0  0  0  0
   36.8450   26.1590   40.1160 C   0  0  0  0  0  0  0  0  0  0  0  0
   37.9200   26.1120   40.9360 N   0  0  0  0  0  0  0  0  0  0  0  0
   36.2720   24.9250   39.7020 N   0  0  0  0  0  0  0  0  0  0  0  0
   36.1480   23.7150   40.2590 N   0  0  0  0  0  0  0  0  0  0  0  0
   35.5090   22.8930   39.4190 C   0  0  0  0  0  0  0  0  0  0  0  0
   35.2110   23.6090   38.2740 C   0  0  0  0  0  0  0  0  0  0  0  0
   35.6980   24.8850   38.4700 C   0  0  0  0  0  0  0  0  0  0  0  0
   39.3960   33.1890   41.3970 N   0  0  0  0  0  0  0  0  0  0  0  0
   38.5580   33.8520   40.4530 C   0  0  0  0  0  0  0  0  0  0  0  0
   37.3330   33.5020   40.2930 N   0  0  0  0  0  0  0  0  0  0  0  0
   39.0870   34.9340   39.6590 N   0  0  0  0  0  0  0  0  0  0  0  0
   36.9320   32.7380   40.8550 H   0  0  0  0  0  0  0  0  0  0  0  0
   39.8148   28.9540   43.1595 H   0  0  0  0  0  0  0  0  0  0  0  0
   40.5654   31.5484   43.3786 H   0  0  0  0  0  0  0  0  0  0  0  0
   39.3708   27.2055   42.0237 H   0  0  0  0  0  0  0  0  0  0  0  0
   36.5030   29.4969   39.7930 H   0  0  0  0  0  0  0  0  0  0  0  0
   35.2644   21.8369   39.6056 H   0  0  0  0  0  0  0  0  0  0  0  0
   34.6881   23.2345   37.3816 H   0  0  0  0  0  0  0  0  0  0  0  0
   35.6335   25.7203   37.7572 H   0  0  0  0  0  0  0  0  0  0  0  0
   40.1057   33.7150   41.9267 H   0  0  0  0  0  0  0  0  0  0  0  0
   38.4838   35.4146   38.9764 H   0  0  0  0  0  0  0  0  0  0  0  0
   40.0680   35.2259   39.7747 H   0  0  0  0  0  0  0  0  0  0  0  0
  1  2  2  0
  2  3  1  0
  4  3  2  0
  5  1  1  0
  5  4  1  0
  7  6  2  0
  7  1  1  0
  8  7  1  0
  9 10  1  0
  9  8  2  0
 10 11  2  0
 11  6  1  0
 12 10  1  0
 12 13  1  0
 14 13  2  0
 15 16  2  0
 15 14  1  0
 16 12  1  0
 17  4  1  0
 18 17  1  0
 19 18  2  0
 19 21  1  0
 20 18  1  0
  2 22  1  0
  3 23  1  0
  6 24  1  0
  8 25  1  0
 14 26  1  0
 15 27  1  0
 16 28  1  0
 17 29  1  0
 20 30  1  0
 20 31  1  0
M  ISO  7  22  14  23  14  24  14  25  14  26  14  27  14  28  14
M  END
>  <minimizedAffinity>  (1) 
-5.38733292

>  <minimizedRMSD>  (1) 
1.92572582

$$$$
