
     RDKit          3D

 36 39  0  0  0  0  0  0  0  0999 V2000
   38.5550   27.2850   41.2950 C   0  0  0  0  0  0  0  0  0  0  0  0
   38.0020   28.5420   40.9670 C   0  0  0  0  0  0  0  0  0  0  0  0
   36.8660   28.5610   40.2160 C   0  0  0  0  0  0  0  0  0  0  0  0
   36.2880   27.3920   39.7980 N   0  0  0  0  0  0  0  0  0  0  0  0
   36.8630   26.1800   40.1410 C   0  0  0  0  0  0  0  0  0  0  0  0
   37.9800   26.1360   40.8790 N   0  0  0  0  0  0  0  0  0  0  0  0
   36.2720   24.9660   39.7160 N   0  0  0  0  0  0  0  0  0  0  0  0
   36.1600   23.7410   40.2720 N   0  0  0  0  0  0  0  0  0  0  0  0
   35.4750   22.9720   39.3980 C   0  0  0  0  0  0  0  0  0  0  0  0
   35.1470   23.6990   38.2810 C   0  0  0  0  0  0  0  0  0  0  0  0
   35.6530   24.9480   38.4930 C   0  0  0  0  0  0  0  0  0  0  0  0
   38.6420   29.7660   41.4280 C   0  0  0  0  0  0  0  0  0  0  0  0
   39.5180   29.8190   42.5280 C   0  0  0  0  0  0  0  0  0  0  0  0
   39.9040   31.1410   42.6340 C   0  0  0  0  0  0  0  0  0  0  0  0
   39.2470   31.8220   41.5980 C   0  0  0  0  0  0  0  0  0  0  0  0
   38.5190   30.9920   40.9120 O   0  0  0  0  0  0  0  0  0  0  0  0
   39.4010   33.2190   41.3860 N   0  0  0  0  0  0  0  0  0  0  0  0
   38.5530   33.8760   40.4450 C   0  0  0  0  0  0  0  0  0  0  0  0
   37.3300   33.5150   40.2650 N   0  0  0  0  0  0  0  0  0  0  0  0
   39.0840   34.9700   39.6770 N   0  0  0  0  0  0  0  0  0  0  0  0
   36.9400   32.7450   40.8080 H   0  0  0  0  0  0  0  0  0  0  0  0
   35.4960   26.0100   37.5040 C   0  0  0  0  0  0  0  0  0  0  0  0
   36.3300   26.6150   36.6330 N   0  0  0  0  0  0  0  0  0  0  0  0
   35.6870   27.5220   35.9590 O   0  0  0  0  0  0  0  0  0  0  0  0
   34.4340   27.5360   36.3630 C   0  0  0  0  0  0  0  0  0  0  0  0
   34.2790   26.6030   37.3290 N   0  0  0  0  0  0  0  0  0  0  0  0
   39.4719   27.2407   41.9011 H   0  0  0  0  0  0  0  0  0  0  0  0
   36.4089   29.5235   39.9429 H   0  0  0  0  0  0  0  0  0  0  0  0
   35.2170   21.9148   39.5584 H   0  0  0  0  0  0  0  0  0  0  0  0
   34.5918   23.3477   37.3987 H   0  0  0  0  0  0  0  0  0  0  0  0
   39.8303   28.9820   43.1698 H   0  0  0  0  0  0  0  0  0  0  0  0
   40.5880   31.5725   43.3796 H   0  0  0  0  0  0  0  0  0  0  0  0
   40.1151   33.7500   41.9046 H   0  0  0  0  0  0  0  0  0  0  0  0
   38.4871   35.4565   38.9929 H   0  0  0  0  0  0  0  0  0  0  0  0
   40.0611   35.2669   39.8111 H   0  0  0  0  0  0  0  0  0  0  0  0
   33.6439   28.1975   35.9782 H   0  0  0  0  0  0  0  0  0  0  0  0
  2  1  2  0
  2 12  1  0
  3  2  1  0
  4  5  1  0
  4  3  2  0
  5  6  2  0
  6  1  1  0
  7  5  1  0
  7  8  1  0
  9  8  2  0
 10 11  2  0
 10  9  1  0
 11  7  1  0
 12 13  2  0
 13 14  1  0
 15 14  2  0
 16 12  1  0
 16 15  1  0
 17 15  1  0
 18 17  1  0
 19 18  2  0
 19 21  1  0
 20 18  1  0
 22 11  1  0
 23 22  2  0
 24 25  1  0
 24 23  1  0
 25 26  2  0
 26 22  1  0
  1 27  1  0
  3 28  1  0
  9 29  1  0
 10 30  1  0
 13 31  1  0
 14 32  1  0
 17 33  1  0
 20 34  1  0
 20 35  1  0
 25 36  1  0
M  ISO  7  27  14  28  14  29  14  30  14  31  14  32  14  36  14
M  END
>  <minimizedAffinity>  (1) 
-5.68924952

>  <minimizedRMSD>  (1) 
0.190562963

$$$$
