
     RDKit          3D

 38 41  0  0  0  0  0  0  0  0999 V2000
   38.5330   27.2620   41.2640 C   0  0  0  0  0  0  0  0  0  0  0  0
   38.0030   28.5070   40.9330 C   0  0  0  0  0  0  0  0  0  0  0  0
   36.8640   28.5480   40.1590 C   0  0  0  0  0  0  0  0  0  0  0  0
   36.2820   27.3800   39.7350 N   0  0  0  0  0  0  0  0  0  0  0  0
   36.8360   26.1690   40.0820 C   0  0  0  0  0  0  0  0  0  0  0  0
   37.9450   26.1260   40.8370 N   0  0  0  0  0  0  0  0  0  0  0  0
   36.2520   24.9530   39.6560 N   0  0  0  0  0  0  0  0  0  0  0  0
   36.1960   23.7170   40.1910 N   0  0  0  0  0  0  0  0  0  0  0  0
   35.5090   22.9090   39.3700 C   0  0  0  0  0  0  0  0  0  0  0  0
   35.1180   23.6600   38.2790 C   0  0  0  0  0  0  0  0  0  0  0  0
   35.5930   24.9300   38.4810 C   0  0  0  0  0  0  0  0  0  0  0  0
   38.6220   29.7460   41.3860 C   0  0  0  0  0  0  0  0  0  0  0  0
   39.4850   29.7970   42.5080 C   0  0  0  0  0  0  0  0  0  0  0  0
   39.8660   31.1110   42.6250 C   0  0  0  0  0  0  0  0  0  0  0  0
   39.2300   31.7910   41.5850 C   0  0  0  0  0  0  0  0  0  0  0  0
   38.5190   30.9700   40.8910 O   0  0  0  0  0  0  0  0  0  0  0  0
   39.3820   33.1990   41.3720 N   0  0  0  0  0  0  0  0  0  0  0  0
   38.5490   33.8600   40.4350 C   0  0  0  0  0  0  0  0  0  0  0  0
   37.3270   33.5040   40.2590 N   0  0  0  0  0  0  0  0  0  0  0  0
   39.0940   34.9470   39.6760 N   0  0  0  0  0  0  0  0  0  0  0  0
   36.9330   32.7290   40.7860 H   0  0  0  0  0  0  0  0  0  0  0  0
   35.3280   25.9260   37.4890 N   0  0  0  0  0  0  0  0  0  0  0  0
   36.2560   26.1950   36.5900 N   0  0  0  0  0  0  0  0  0  0  0  0
   35.8520   27.1500   35.7360 C   0  0  0  0  0  0  0  0  0  0  0  0
   34.5730   27.5130   36.1220 C   0  0  0  0  0  0  0  0  0  0  0  0
   34.2850   26.7270   37.2170 C   0  0  0  0  0  0  0  0  0  0  0  0
   39.4419   27.2048   41.8810 H   0  0  0  0  0  0  0  0  0  0  0  0
   36.4216   29.5161   39.8812 H   0  0  0  0  0  0  0  0  0  0  0  0
   35.2959   21.8426   39.5355 H   0  0  0  0  0  0  0  0  0  0  0  0
   34.5371   23.3070   37.4142 H   0  0  0  0  0  0  0  0  0  0  0  0
   39.7873   28.9580   43.1520 H   0  0  0  0  0  0  0  0  0  0  0  0
   40.5363   31.5405   43.3841 H   0  0  0  0  0  0  0  0  0  0  0  0
   40.0928   33.7284   41.8969 H   0  0  0  0  0  0  0  0  0  0  0  0
   38.5064   35.4414   38.9896 H   0  0  0  0  0  0  0  0  0  0  0  0
   40.0732   35.2336   39.8170 H   0  0  0  0  0  0  0  0  0  0  0  0
   36.4260   27.5633   34.8936 H   0  0  0  0  0  0  0  0  0  0  0  0
   33.9244   28.2683   35.6542 H   0  0  0  0  0  0  0  0  0  0  0  0
   33.3422   26.7521   37.7832 H   0  0  0  0  0  0  0  0  0  0  0  0
  2  1  2  0
  2 12  1  0
  3  2  1  0
  4  5  1  0
  4  3  2  0
  5  6  2  0
  6  1  1  0
  7  5  1  0
  7  8  1  0
  9  8  2  0
 10 11  2  0
 10  9  1  0
 11  7  1  0
 12 13  2  0
 13 14  1  0
 15 14  2  0
 16 12  1  0
 16 15  1  0
 17 15  1  0
 18 17  1  0
 19 18  2  0
 19 21  1  0
 20 18  1  0
 22 11  1  0
 23 22  1  0
 24 25  1  0
 24 23  2  0
 25 26  2  0
 26 22  1  0
  1 27  1  0
  3 28  1  0
  9 29  1  0
 10 30  1  0
 13 31  1  0
 14 32  1  0
 17 33  1  0
 20 34  1  0
 20 35  1  0
 24 36  1  0
 25 37  1  0
 26 38  1  0
M  ISO  8  27  14  28  14  29  14  30  14  31  14  32  14  36  14  37  14
M  ISO  1  38  14
M  END
>  <minimizedAffinity>  (1) 
-5.66966867

>  <minimizedRMSD>  (1) 
0.247599348

$$$$
