
     RDKit          3D

 34 36  0  0  0  0  0  0  0  0999 V2000
   38.5460   27.2670   41.2960 C   0  0  0  0  0  0  0  0  0  0  0  0
   38.0040   28.5190   40.9480 C   0  0  0  0  0  0  0  0  0  0  0  0
   36.8810   28.5470   40.1770 C   0  0  0  0  0  0  0  0  0  0  0  0
   36.2970   27.3810   39.7530 N   0  0  0  0  0  0  0  0  0  0  0  0
   36.8630   26.1700   40.1190 C   0  0  0  0  0  0  0  0  0  0  0  0
   37.9690   26.1260   40.8780 N   0  0  0  0  0  0  0  0  0  0  0  0
   36.2690   24.9530   39.6870 N   0  0  0  0  0  0  0  0  0  0  0  0
   36.1650   23.7300   40.2480 N   0  0  0  0  0  0  0  0  0  0  0  0
   35.5000   22.9110   39.4240 C   0  0  0  0  0  0  0  0  0  0  0  0
   35.1700   23.6380   38.3010 C   0  0  0  0  0  0  0  0  0  0  0  0
   35.6580   24.9060   38.4880 C   0  0  0  0  0  0  0  0  0  0  0  0
   38.6330   29.7550   41.4030 C   0  0  0  0  0  0  0  0  0  0  0  0
   39.4990   29.8100   42.5220 C   0  0  0  0  0  0  0  0  0  0  0  0
   39.8820   31.1260   42.6320 C   0  0  0  0  0  0  0  0  0  0  0  0
   39.2400   31.8040   41.5900 C   0  0  0  0  0  0  0  0  0  0  0  0
   38.5230   30.9780   40.8960 O   0  0  0  0  0  0  0  0  0  0  0  0
   39.3900   33.2070   41.3680 N   0  0  0  0  0  0  0  0  0  0  0  0
   38.5470   33.8640   40.4390 C   0  0  0  0  0  0  0  0  0  0  0  0
   37.3260   33.5070   40.2650 N   0  0  0  0  0  0  0  0  0  0  0  0
   39.0820   34.9580   39.6760 N   0  0  0  0  0  0  0  0  0  0  0  0
   36.9350   32.7350   40.8050 H   0  0  0  0  0  0  0  0  0  0  0  0
   35.4930   25.9980   37.4650 C   0  0  0  0  0  0  0  0  0  0  0  0
   36.7130   26.5780   37.1820 F   0  0  0  0  0  0  0  0  0  0  0  0
   34.8840   25.4750   36.3150 F   0  0  0  0  0  0  0  0  0  0  0  0
   34.6500   26.9740   37.9120 F   0  0  0  0  0  0  0  0  0  0  0  0
   39.4525   27.2213   41.9174 H   0  0  0  0  0  0  0  0  0  0  0  0
   36.4390   29.5132   39.8922 H   0  0  0  0  0  0  0  0  0  0  0  0
   35.2612   21.8533   39.6092 H   0  0  0  0  0  0  0  0  0  0  0  0
   34.6199   23.2712   37.4219 H   0  0  0  0  0  0  0  0  0  0  0  0
   39.8023   28.9736   43.1689 H   0  0  0  0  0  0  0  0  0  0  0  0
   40.5563   31.5580   43.3861 H   0  0  0  0  0  0  0  0  0  0  0  0
   40.1079   33.7383   41.8811 H   0  0  0  0  0  0  0  0  0  0  0  0
   38.4868   35.4503   38.9946 H   0  0  0  0  0  0  0  0  0  0  0  0
   40.0606   35.2498   39.8105 H   0  0  0  0  0  0  0  0  0  0  0  0
  2  1  2  0
  2 12  1  0
  3  2  1  0
  4  5  1  0
  4  3  2  0
  5  6  2  0
  6  1  1  0
  7  5  1  0
  7  8  1  0
  9  8  2  0
 10 11  2  0
 10  9  1  0
 11  7  1  0
 12 13  2  0
 13 14  1  0
 15 14  2  0
 16 12  1  0
 16 15  1  0
 17 15  1  0
 18 17  1  0
 19 18  2  0
 19 21  1  0
 20 18  1  0
 22 25  1  0
 22 11  1  0
 23 22  1  0
 24 22  1  0
  1 26  1  0
  3 27  1  0
  9 28  1  0
 10 29  1  0
 13 30  1  0
 14 31  1  0
 17 32  1  0
 20 33  1  0
 20 34  1  0
M  ISO  6  26  14  27  14  28  14  29  14  30  14  31  14
M  END
>  <minimizedAffinity>  (1) 
-5.5873313

>  <minimizedRMSD>  (1) 
0.400485128

$$$$
