
     RDKit          3D

 37 39  0  0  0  0  0  0  0  0999 V2000
   38.4760   27.2450   41.3020 C   0  0  0  0  0  0  0  0  0  0  0  0
   37.9850   28.4920   40.9190 C   0  0  0  0  0  0  0  0  0  0  0  0
   36.8850   28.5290   40.0900 C   0  0  0  0  0  0  0  0  0  0  0  0
   36.3030   27.3650   39.6640 N   0  0  0  0  0  0  0  0  0  0  0  0
   36.8180   26.1640   40.0660 C   0  0  0  0  0  0  0  0  0  0  0  0
   37.8980   26.1010   40.8790 N   0  0  0  0  0  0  0  0  0  0  0  0
   36.2430   24.9310   39.6470 N   0  0  0  0  0  0  0  0  0  0  0  0
   36.1400   23.7110   40.2140 N   0  0  0  0  0  0  0  0  0  0  0  0
   35.5020   22.8740   39.4050 C   0  0  0  0  0  0  0  0  0  0  0  0
   35.1880   23.5920   38.2780 C   0  0  0  0  0  0  0  0  0  0  0  0
   35.6540   24.8940   38.4250 C   0  0  0  0  0  0  0  0  0  0  0  0
   38.6050   29.7250   41.3730 C   0  0  0  0  0  0  0  0  0  0  0  0
   39.4570   29.7770   42.4960 C   0  0  0  0  0  0  0  0  0  0  0  0
   39.8460   31.0870   42.6210 C   0  0  0  0  0  0  0  0  0  0  0  0
   39.2160   31.7720   41.5710 C   0  0  0  0  0  0  0  0  0  0  0  0
   38.5080   30.9500   40.8720 O   0  0  0  0  0  0  0  0  0  0  0  0
   39.3780   33.1810   41.3600 N   0  0  0  0  0  0  0  0  0  0  0  0
   38.5330   33.8400   40.4340 C   0  0  0  0  0  0  0  0  0  0  0  0
   37.3160   33.4930   40.2620 N   0  0  0  0  0  0  0  0  0  0  0  0
   39.0780   34.9320   39.6740 N   0  0  0  0  0  0  0  0  0  0  0  0
   36.9170   32.7180   40.8050 H   0  0  0  0  0  0  0  0  0  0  0  0
   35.4880   25.9510   37.3930 C   0  0  0  0  0  0  0  0  0  0  0  0
   34.0250   26.1480   37.0420 C   0  0  0  0  0  0  0  0  0  0  0  0
   39.3535   27.1921   41.9633 H   0  0  0  0  0  0  0  0  0  0  0  0
   36.4729   29.4971   39.7692 H   0  0  0  0  0  0  0  0  0  0  0  0
   35.2710   21.8162   39.5990 H   0  0  0  0  0  0  0  0  0  0  0  0
   34.6537   23.2005   37.3998 H   0  0  0  0  0  0  0  0  0  0  0  0
   39.7506   28.9363   43.1418 H   0  0  0  0  0  0  0  0  0  0  0  0
   40.5131   31.5118   43.3855 H   0  0  0  0  0  0  0  0  0  0  0  0
   40.0989   33.7066   41.8747 H   0  0  0  0  0  0  0  0  0  0  0  0
   38.4878   35.4306   38.9929 H   0  0  0  0  0  0  0  0  0  0  0  0
   40.0587   35.2157   39.8106 H   0  0  0  0  0  0  0  0  0  0  0  0
   35.8952   26.8971   37.7792 H   0  0  0  0  0  0  0  0  0  0  0  0
   36.0259   25.6400   36.4853 H   0  0  0  0  0  0  0  0  0  0  0  0
   33.4337   26.2276   37.9661 H   0  0  0  0  0  0  0  0  0  0  0  0
   33.9102   27.0697   36.4527 H   0  0  0  0  0  0  0  0  0  0  0  0
   33.6705   25.2895   36.4527 H   0  0  0  0  0  0  0  0  0  0  0  0
  2  1  2  0
  2 12  1  0
  3  2  1  0
  4  5  1  0
  4  3  2  0
  5  6  2  0
  6  1  1  0
  7  5  1  0
  7  8  1  0
  9  8  2  0
 10 11  2  0
 10  9  1  0
 11  7  1  0
 12 13  2  0
 13 14  1  0
 15 14  2  0
 16 12  1  0
 16 15  1  0
 17 15  1  0
 18 17  1  0
 19 18  2  0
 19 21  1  0
 20 18  1  0
 22 11  1  0
 23 22  1  0
  1 24  1  0
  3 25  1  0
  9 26  1  0
 10 27  1  0
 13 28  1  0
 14 29  1  0
 17 30  1  0
 20 31  1  0
 20 32  1  0
 22 33  1  0
 22 34  1  0
 23 35  1  0
 23 36  1  0
 23 37  1  0
M  ISO  8  24  14  25  14  26  14  27  14  28  14  29  14  33   8  34   8
M  ISO  3  35   8  36   8  37   8
M  END
>  <minimizedAffinity>  (1) 
-5.45000553

>  <minimizedRMSD>  (1) 
0.0498968065

$$$$
