
     RDKit          3D

 27 29  0  0  0  0  0  0  0  0999 V2000
   38.9530   31.9770   40.1230 C   0  0  0  0  0  0  0  0  0  0  0  0
   38.8830   31.4170   41.3550 N   0  0  0  0  0  0  0  0  0  0  0  0
   38.1670   30.3560   41.6770 C   0  0  0  0  0  0  0  0  0  0  0  0
   37.4270   29.7290   40.7790 N   0  0  0  0  0  0  0  0  0  0  0  0
   37.4060   30.1820   39.5110 C   0  0  0  0  0  0  0  0  0  0  0  0
   36.6300   29.5250   38.5680 C   0  0  0  0  0  0  0  0  0  0  0  0
   36.5910   29.9650   37.2710 C   0  0  0  0  0  0  0  0  0  0  0  0
   37.3460   31.0830   36.9350 C   0  0  0  0  0  0  0  0  0  0  0  0
   38.0950   31.6920   37.9150 C   0  0  0  0  0  0  0  0  0  0  0  0
   38.1700   31.2940   39.2180 C   0  0  0  0  0  0  0  0  0  0  0  0
   39.7860   35.4610   40.1390 C   0  0  0  0  0  0  0  0  0  0  0  0
   40.9570   35.6420   39.4170 C   0  0  0  0  0  0  0  0  0  0  0  0
   41.5120   34.4790   38.8780 C   0  0  0  0  0  0  0  0  0  0  0  0
   40.8570   33.3360   39.1180 N   0  0  0  0  0  0  0  0  0  0  0  0
   39.7500   33.1450   39.7960 C   0  0  0  0  0  0  0  0  0  0  0  0
   39.2470   34.2610   40.2950 N   0  0  0  0  0  0  0  0  0  0  0  0
   42.7360   34.3990   38.0810 C   0  0  0  0  0  0  0  0  0  0  0  0
   43.8810   34.2430   38.5930 O   0  0  0  0  0  0  0  0  0  0  0  0
   42.6080   34.5040   36.7000 O   0  0  0  0  0  0  0  0  0  0  0  0
   38.1865   29.9863   42.7128 H   0  0  0  0  0  0  0  0  0  0  0  0
   36.0413   28.6440   38.8635 H   0  0  0  0  0  0  0  0  0  0  0  0
   35.9795   29.4482   36.5167 H   0  0  0  0  0  0  0  0  0  0  0  0
   37.3445   31.4727   35.9063 H   0  0  0  0  0  0  0  0  0  0  0  0
   38.6833   32.5746   37.6235 H   0  0  0  0  0  0  0  0  0  0  0  0
   39.2939   36.3341   40.5923 H   0  0  0  0  0  0  0  0  0  0  0  0
   41.4161   36.6320   39.2788 H   0  0  0  0  0  0  0  0  0  0  0  0
   41.7136   34.6263   36.2937 H   0  0  0  0  0  0  0  0  0  0  0  0
  1  2  2  0
  2  3  1  0
  4  3  2  0
  5  4  1  0
  6  5  2  0
  7  6  1  0
  8  7  2  0
  8  9  1  0
  9 10  2  0
 10  5  1  0
 10  1  1  0
 11 16  2  0
 12 11  1  0
 13 14  1  0
 13 12  2  0
 14 15  2  0
 15  1  1  0
 15 16  1  0
 17 18  2  0
 17 13  1  0
 19 17  1  0
  3 20  1  0
  6 21  1  0
  7 22  1  0
  8 23  1  0
  9 24  1  0
 11 25  1  0
 12 26  1  0
 19 27  1  0
M  ISO  8  20  14  21  14  22  14  23  14  24  14  25  14  26  14  27   3
M  END
>  <minimizedAffinity>  (1) 
-5.7701292

>  <minimizedRMSD>  (1) 
6.78341055

$$$$
