
     RDKit          3D

 43 46  0  0  0  0  0  0  0  0999 V2000
   40.6750   29.5840   37.5930 C   0  0  0  0  0  0  0  0  0  0  0  0
   41.4770   30.6970   37.8170 C   0  0  0  0  0  0  0  0  0  0  0  0
   41.0810   31.5360   38.8470 C   0  0  0  0  0  0  0  0  0  0  0  0
   39.9700   31.1870   39.5170 N   0  0  0  0  0  0  0  0  0  0  0  0
   39.1960   30.1430   39.3250 C   0  0  0  0  0  0  0  0  0  0  0  0
   39.5970   29.3550   38.3330 N   0  0  0  0  0  0  0  0  0  0  0  0
   37.9850   29.6540   39.9660 C   0  0  0  0  0  0  0  0  0  0  0  0
   36.7390   29.7950   39.4420 N   0  0  0  0  0  0  0  0  0  0  0  0
   35.6200   29.3680   39.9900 C   0  0  0  0  0  0  0  0  0  0  0  0
   35.6290   28.7350   41.1530 N   0  0  0  0  0  0  0  0  0  0  0  0
   36.7980   28.5320   41.7740 C   0  0  0  0  0  0  0  0  0  0  0  0
   36.8280   27.8690   42.9970 C   0  0  0  0  0  0  0  0  0  0  0  0
   38.0000   27.6430   43.6610 C   0  0  0  0  0  0  0  0  0  0  0  0
   39.1700   28.1000   43.0700 C   0  0  0  0  0  0  0  0  0  0  0  0
   39.0960   28.7500   41.8610 C   0  0  0  0  0  0  0  0  0  0  0  0
   37.9390   28.9950   41.1670 C   0  0  0  0  0  0  0  0  0  0  0  0
   41.7770   32.7810   39.2720 C   0  0  0  0  0  0  0  0  0  0  0  0
   41.6610   33.8480   38.2380 C   0  0  0  0  0  0  0  0  0  0  0  0
   43.2750   32.4870   39.4290 C   0  0  0  0  0  0  0  0  0  0  0  0
   41.2920   33.2540   40.6160 C   0  0  0  0  0  0  0  0  0  0  0  0
   40.5780   34.5450   40.4290 C   0  0  0  0  0  0  0  0  0  0  0  0
   41.0680   35.8470   40.5600 C   0  0  0  0  0  0  0  0  0  0  0  0
   40.0490   36.7390   40.2930 C   0  0  0  0  0  0  0  0  0  0  0  0
   38.9860   35.9140   40.0130 C   0  0  0  0  0  0  0  0  0  0  0  0
   39.3020   34.6430   40.0940 O   0  0  0  0  0  0  0  0  0  0  0  0
   40.9381   28.8810   36.7889 H   0  0  0  0  0  0  0  0  0  0  0  0
   42.3733   30.9001   37.2125 H   0  0  0  0  0  0  0  0  0  0  0  0
   34.6639   29.5398   39.4739 H   0  0  0  0  0  0  0  0  0  0  0  0
   35.8843   27.5181   43.4401 H   0  0  0  0  0  0  0  0  0  0  0  0
   38.0162   27.1185   44.6278 H   0  0  0  0  0  0  0  0  0  0  0  0
   40.1416   27.9444   43.5617 H   0  0  0  0  0  0  0  0  0  0  0  0
   40.0385   29.1010   41.4155 H   0  0  0  0  0  0  0  0  0  0  0  0
   41.5547   34.8258   38.7305 H   0  0  0  0  0  0  0  0  0  0  0  0
   42.5642   33.8499   37.6102 H   0  0  0  0  0  0  0  0  0  0  0  0
   40.7785   33.6558   37.6102 H   0  0  0  0  0  0  0  0  0  0  0  0
   43.5288   32.4372   40.4982 H   0  0  0  0  0  0  0  0  0  0  0  0
   43.5120   31.5252   38.9507 H   0  0  0  0  0  0  0  0  0  0  0  0
   43.8579   33.2879   38.9507 H   0  0  0  0  0  0  0  0  0  0  0  0
   40.6066   32.5093   41.0469 H   0  0  0  0  0  0  0  0  0  0  0  0
   42.1434   33.3882   41.2995 H   0  0  0  0  0  0  0  0  0  0  0  0
   42.0990   36.1174   40.8319 H   0  0  0  0  0  0  0  0  0  0  0  0
   40.0800   37.8385   40.3021 H   0  0  0  0  0  0  0  0  0  0  0  0
   37.9820   36.2786   39.7502 H   0  0  0  0  0  0  0  0  0  0  0  0
  1  2  2  0
  1  6  1  0
  2  3  1  0
  3 17  1  0
  3  4  2  0
  5  4  1  0
  5  7  1  0
  6  5  2  0
  7 16  1  0
  8  7  2  0
  8  9  1  0
  9 10  2  0
 10 11  1  0
 11 12  1  0
 12 13  2  0
 14 13  1  0
 15 14  2  0
 16 11  2  0
 16 15  1  0
 17 19  1  0
 17 20  1  0
 18 17  1  0
 21 22  2  0
 21 20  1  0
 23 22  1  0
 24 25  1  0
 24 23  2  0
 25 21  1  0
  1 26  1  0
  2 27  1  0
  9 28  1  0
 12 29  1  0
 13 30  1  0
 14 31  1  0
 15 32  1  0
 18 33  1  0
 18 34  1  0
 18 35  1  0
 19 36  1  0
 19 37  1  0
 19 38  1  0
 20 39  1  0
 20 40  1  0
 22 41  1  0
 23 42  1  0
 24 43  1  0
M  ISO  8  26  14  27  14  28  14  29  14  30  14  31  14  32  14  33   8
M  ISO  8  34   8  35   8  36   8  37   8  38   8  39   8  40   8  41  14
M  ISO  2  42  14  43  14
M  END
>  <minimizedAffinity>  (1) 
-5.87982321

>  <minimizedRMSD>  (1) 
7.5343833

$$$$
