
     RDKit          3D

 42 45  0  0  0  0  0  0  0  0999 V2000
   36.6320   30.3070   38.7800 C   0  0  0  0  0  0  0  0  0  0  0  0
   36.5670   29.3950   39.8320 C   0  0  0  0  0  0  0  0  0  0  0  0
   37.6680   29.3510   40.6780 C   0  0  0  0  0  0  0  0  0  0  0  0
   38.6740   30.1910   40.3910 N   0  0  0  0  0  0  0  0  0  0  0  0
   38.7580   31.0560   39.4080 C   0  0  0  0  0  0  0  0  0  0  0  0
   37.6920   31.0790   38.6120 N   0  0  0  0  0  0  0  0  0  0  0  0
   39.7800   32.0060   38.9990 C   0  0  0  0  0  0  0  0  0  0  0  0
   40.7650   31.7230   38.0980 N   0  0  0  0  0  0  0  0  0  0  0  0
   41.7110   32.5410   37.6940 C   0  0  0  0  0  0  0  0  0  0  0  0
   41.7720   33.7730   38.1670 N   0  0  0  0  0  0  0  0  0  0  0  0
   40.8650   34.1840   39.0590 C   0  0  0  0  0  0  0  0  0  0  0  0
   40.9260   35.4830   39.5610 C   0  0  0  0  0  0  0  0  0  0  0  0
   40.0090   35.9370   40.4790 C   0  0  0  0  0  0  0  0  0  0  0  0
   39.0270   35.0520   40.8840 C   0  0  0  0  0  0  0  0  0  0  0  0
   39.0050   33.7750   40.3610 C   0  0  0  0  0  0  0  0  0  0  0  0
   39.8970   33.2890   39.4490 C   0  0  0  0  0  0  0  0  0  0  0  0
   37.8030   28.4620   41.8470 C   0  0  0  0  0  0  0  0  0  0  0  0
   36.4560   27.9750   42.3230 C   0  0  0  0  0  0  0  0  0  0  0  0
   38.3770   29.2780   43.0200 C   0  0  0  0  0  0  0  0  0  0  0  0
   38.7550   27.3290   41.6160 C   0  0  0  0  0  0  0  0  0  0  0  0
   39.9670   27.3750   42.4660 C   0  0  0  0  0  0  0  0  0  0  0  0
   40.0360   26.5880   43.7720 C   0  0  0  0  0  0  0  0  0  0  0  0
   41.6780   26.9940   44.3610 S   0  0  0  0  0  0  0  0  0  0  0  0
   42.0380   28.1070   42.8620 C   0  0  0  0  0  0  0  0  0  0  0  0
   41.0550   28.0690   42.1820 N   0  0  0  0  0  0  0  0  0  0  0  0
   35.7882   30.3856   38.0787 H   0  0  0  0  0  0  0  0  0  0  0  0
   35.6921   28.7458   39.9840 H   0  0  0  0  0  0  0  0  0  0  0  0
   42.4547   32.1986   36.9594 H   0  0  0  0  0  0  0  0  0  0  0  0
   41.7233   36.1578   39.2159 H   0  0  0  0  0  0  0  0  0  0  0  0
   40.0546   36.9622   40.8751 H   0  0  0  0  0  0  0  0  0  0  0  0
   38.2689   35.3634   41.6176 H   0  0  0  0  0  0  0  0  0  0  0  0
   38.2090   33.0981   40.7048 H   0  0  0  0  0  0  0  0  0  0  0  0
   36.4364   27.9679   43.4228 H   0  0  0  0  0  0  0  0  0  0  0  0
   35.6696   28.6457   41.9466 H   0  0  0  0  0  0  0  0  0  0  0  0
   36.2804   26.9565   41.9466 H   0  0  0  0  0  0  0  0  0  0  0  0
   38.0592   28.8262   43.9712 H   0  0  0  0  0  0  0  0  0  0  0  0
   39.4755   29.2786   42.9634 H   0  0  0  0  0  0  0  0  0  0  0  0
   38.0063   30.3121   42.9634 H   0  0  0  0  0  0  0  0  0  0  0  0
   38.2259   26.3863   41.8194 H   0  0  0  0  0  0  0  0  0  0  0  0
   39.0957   27.4084   40.5731 H   0  0  0  0  0  0  0  0  0  0  0  0
   39.2752   25.9401   44.2318 H   0  0  0  0  0  0  0  0  0  0  0  0
   42.9612   28.6704   42.6614 H   0  0  0  0  0  0  0  0  0  0  0  0
  1  2  2  0
  2  3  1  0
  3 17  1  0
  4  3  2  0
  5  4  1  0
  6  1  1  0
  6  5  2  0
  7  5  1  0
  7 16  1  0
  8  7  2  0
  9  8  1  0
  9 10  2  0
 10 11  1  0
 11 16  2  0
 11 12  1  0
 12 13  2  0
 13 14  1  0
 15 14  2  0
 16 15  1  0
 17 18  1  0
 17 19  1  0
 20 17  1  0
 20 21  1  0
 21 22  2  0
 22 23  1  0
 24 23  1  0
 25 21  1  0
 25 24  2  0
  1 26  1  0
  2 27  1  0
  9 28  1  0
 12 29  1  0
 13 30  1  0
 14 31  1  0
 15 32  1  0
 18 33  1  0
 18 34  1  0
 18 35  1  0
 19 36  1  0
 19 37  1  0
 19 38  1  0
 20 39  1  0
 20 40  1  0
 22 41  1  0
 24 42  1  0
M  ISO  8  26  14  27  14  28  14  29  14  30  14  31  14  32  14  33   8
M  ISO  8  34   8  35   8  36   8  37   8  38   8  39   8  40   8  41  14
M  ISO  1  42  14
M  END
>  <minimizedAffinity>  (1) 
-5.79156017

>  <minimizedRMSD>  (1) 
4.31800747

$$$$
