
     RDKit          3D

 43 46  0  0  0  0  0  0  0  0999 V2000
   40.8370   28.3280   42.9480 C   0  0  0  0  0  0  0  0  0  0  0  0
   39.6840   27.6670   43.3410 C   0  0  0  0  0  0  0  0  0  0  0  0
   38.5060   28.0660   42.7220 C   0  0  0  0  0  0  0  0  0  0  0  0
   38.6170   29.0450   41.8150 N   0  0  0  0  0  0  0  0  0  0  0  0
   39.6970   29.6860   41.4260 C   0  0  0  0  0  0  0  0  0  0  0  0
   40.8010   29.2850   42.0320 N   0  0  0  0  0  0  0  0  0  0  0  0
   39.9320   30.7520   40.4610 C   0  0  0  0  0  0  0  0  0  0  0  0
   40.9330   31.6600   40.5830 N   0  0  0  0  0  0  0  0  0  0  0  0
   41.1840   32.6420   39.7340 C   0  0  0  0  0  0  0  0  0  0  0  0
   40.4420   32.8140   38.6580 N   0  0  0  0  0  0  0  0  0  0  0  0
   39.4200   31.9850   38.4200 C   0  0  0  0  0  0  0  0  0  0  0  0
   38.6330   32.1570   37.2910 C   0  0  0  0  0  0  0  0  0  0  0  0
   37.5820   31.3190   37.0290 C   0  0  0  0  0  0  0  0  0  0  0  0
   37.3330   30.3000   37.9240 C   0  0  0  0  0  0  0  0  0  0  0  0
   38.1290   30.1580   39.0290 C   0  0  0  0  0  0  0  0  0  0  0  0
   39.1900   30.9730   39.3280 C   0  0  0  0  0  0  0  0  0  0  0  0
   37.1660   27.5040   42.9830 C   0  0  0  0  0  0  0  0  0  0  0  0
   36.1220   28.0990   42.0710 C   0  0  0  0  0  0  0  0  0  0  0  0
   36.7420   27.8680   44.4030 C   0  0  0  0  0  0  0  0  0  0  0  0
   37.1460   25.9950   42.8800 C   0  0  0  0  0  0  0  0  0  0  0  0
   37.2240   25.5610   41.4530 C   0  0  0  0  0  0  0  0  0  0  0  0
   36.6750   24.1380   41.2300 C   0  0  0  0  0  0  0  0  0  0  0  0
   38.1000   24.5180   40.9340 C   0  0  0  0  0  0  0  0  0  0  0  0
   41.7993   28.0533   43.4046 H   0  0  0  0  0  0  0  0  0  0  0  0
   39.7007   26.8713   44.1003 H   0  0  0  0  0  0  0  0  0  0  0  0
   42.0239   33.3252   39.9283 H   0  0  0  0  0  0  0  0  0  0  0  0
   38.8565   32.9792   36.5953 H   0  0  0  0  0  0  0  0  0  0  0  0
   36.9570   31.4543   36.1340 H   0  0  0  0  0  0  0  0  0  0  0  0
   36.4987   29.6043   37.7510 H   0  0  0  0  0  0  0  0  0  0  0  0
   37.9020   29.3353   39.7230 H   0  0  0  0  0  0  0  0  0  0  0  0
   35.3235   28.5541   42.6754 H   0  0  0  0  0  0  0  0  0  0  0  0
   36.5853   28.8687   41.4363 H   0  0  0  0  0  0  0  0  0  0  0  0
   35.6959   27.3081   41.4363 H   0  0  0  0  0  0  0  0  0  0  0  0
   37.3724   27.3268   45.1240 H   0  0  0  0  0  0  0  0  0  0  0  0
   36.8590   28.9512   44.5543 H   0  0  0  0  0  0  0  0  0  0  0  0
   35.6890   27.5883   44.5543 H   0  0  0  0  0  0  0  0  0  0  0  0
   38.0058   25.5843   43.4296 H   0  0  0  0  0  0  0  0  0  0  0  0
   36.2044   25.6241   43.3110 H   0  0  0  0  0  0  0  0  0  0  0  0
   37.0764   26.5939   41.1046 H   0  0  0  0  0  0  0  0  0  0  0  0
   36.4369   23.4914   42.0874 H   0  0  0  0  0  0  0  0  0  0  0  0
   35.8412   23.6870   40.6720 H   0  0  0  0  0  0  0  0  0  0  0  0
   38.9089   24.1245   41.5670 H   0  0  0  0  0  0  0  0  0  0  0  0
   38.7412   24.4350   40.0441 H   0  0  0  0  0  0  0  0  0  0  0  0
  1  2  2  0
  3 17  1  0
  3  2  1  0
  4  3  2  0
  5  4  1  0
  5  6  2  0
  6  1  1  0
  7  8  2  0
  7  5  1  0
  9  8  1  0
 10  9  2  0
 11 10  1  0
 11 16  2  0
 12 11  1  0
 13 12  2  0
 13 14  1  0
 14 15  2  0
 15 16  1  0
 16  7  1  0
 17 19  1  0
 18 17  1  0
 20 17  1  0
 21 20  1  0
 22 21  1  0
 23 22  1  0
 23 21  1  0
  1 24  1  0
  2 25  1  0
  9 26  1  0
 12 27  1  0
 13 28  1  0
 14 29  1  0
 15 30  1  0
 18 31  1  0
 18 32  1  0
 18 33  1  0
 19 34  1  0
 19 35  1  0
 19 36  1  0
 20 37  1  0
 20 38  1  0
 21 39  1  0
 22 40  1  0
 22 41  1  0
 23 42  1  0
 23 43  1  0
M  ISO  8  24  14  25  14  26  14  27  14  28  14  29  14  30  14  31   8
M  ISO  8  32   8  33   8  34   8  35   8  36   8  37   8  38   8  39  13
M  ISO  4  40  13  41  13  42  13  43  13
M  END
>  <minimizedAffinity>  (1) 
-5.26947689

>  <minimizedRMSD>  (1) 
2.13159442

$$$$
