
     RDKit          3D

 47 51  0  0  0  0  0  0  0  0999 V2000
   41.4450   30.1980   42.2750 C   0  0  0  0  0  0  0  0  0  0  0  0
   41.9270   29.0570   42.9060 C   0  0  0  0  0  0  0  0  0  0  0  0
   41.0370   27.9840   42.9950 C   0  0  0  0  0  0  0  0  0  0  0  0
   39.8330   28.1720   42.4660 N   0  0  0  0  0  0  0  0  0  0  0  0
   39.3450   29.2310   41.8640 C   0  0  0  0  0  0  0  0  0  0  0  0
   40.2130   30.2400   41.7940 N   0  0  0  0  0  0  0  0  0  0  0  0
   38.0650   29.5540   41.2530 C   0  0  0  0  0  0  0  0  0  0  0  0
   37.3980   30.7070   41.4550 N   0  0  0  0  0  0  0  0  0  0  0  0
   36.2390   31.0390   40.9240 C   0  0  0  0  0  0  0  0  0  0  0  0
   35.6100   30.2110   40.1040 N   0  0  0  0  0  0  0  0  0  0  0  0
   36.1660   29.0230   39.8180 C   0  0  0  0  0  0  0  0  0  0  0  0
   35.5160   28.1420   38.9570 C   0  0  0  0  0  0  0  0  0  0  0  0
   36.0550   26.9320   38.6490 C   0  0  0  0  0  0  0  0  0  0  0  0
   37.2800   26.5960   39.2180 C   0  0  0  0  0  0  0  0  0  0  0  0
   37.8810   27.5100   40.0660 C   0  0  0  0  0  0  0  0  0  0  0  0
   37.3780   28.7280   40.4010 C   0  0  0  0  0  0  0  0  0  0  0  0
   41.3450   26.6860   43.6230 C   0  0  0  0  0  0  0  0  0  0  0  0
   40.0890   25.9300   43.9700 C   0  0  0  0  0  0  0  0  0  0  0  0
   42.0630   26.9520   44.9620 C   0  0  0  0  0  0  0  0  0  0  0  0
   42.2820   25.8350   42.8040 C   0  0  0  0  0  0  0  0  0  0  0  0
   41.6550   25.6350   41.5150 N   0  0  0  0  0  0  0  0  0  0  0  0
   40.6310   24.7820   41.3040 C   0  0  0  0  0  0  0  0  0  0  0  0
   40.3090   24.8560   40.0030 N   0  0  0  0  0  0  0  0  0  0  0  0
   41.0990   25.7360   39.3620 C   0  0  0  0  0  0  0  0  0  0  0  0
   41.1560   26.1530   38.0470 C   0  0  0  0  0  0  0  0  0  0  0  0
   42.1000   27.0720   37.7690 N   0  0  0  0  0  0  0  0  0  0  0  0
   42.9370   27.5560   38.7090 C   0  0  0  0  0  0  0  0  0  0  0  0
   42.8780   27.1480   39.9890 N   0  0  0  0  0  0  0  0  0  0  0  0
   41.9600   26.2310   40.3440 C   0  0  0  0  0  0  0  0  0  0  0  0
   42.0969   31.0783   42.1741 H   0  0  0  0  0  0  0  0  0  0  0  0
   42.9482   29.0023   43.3110 H   0  0  0  0  0  0  0  0  0  0  0  0
   35.7892   32.0137   41.1641 H   0  0  0  0  0  0  0  0  0  0  0  0
   34.5493   28.4301   38.5183 H   0  0  0  0  0  0  0  0  0  0  0  0
   35.5376   26.2386   37.9696 H   0  0  0  0  0  0  0  0  0  0  0  0
   37.7579   25.6296   38.9995 H   0  0  0  0  0  0  0  0  0  0  0  0
   38.8483   27.2268   40.5066 H   0  0  0  0  0  0  0  0  0  0  0  0
   39.9880   25.8692   45.0637 H   0  0  0  0  0  0  0  0  0  0  0  0
   39.2178   26.4539   43.5499 H   0  0  0  0  0  0  0  0  0  0  0  0
   40.1441   24.9149   43.5499 H   0  0  0  0  0  0  0  0  0  0  0  0
   41.3895   26.7025   45.7951 H   0  0  0  0  0  0  0  0  0  0  0  0
   42.9678   26.3294   45.0229 H   0  0  0  0  0  0  0  0  0  0  0  0
   42.3438   28.0138   45.0229 H   0  0  0  0  0  0  0  0  0  0  0  0
   43.2468   26.3484   42.6791 H   0  0  0  0  0  0  0  0  0  0  0  0
   42.4735   24.8725   43.3008 H   0  0  0  0  0  0  0  0  0  0  0  0
   40.1489   24.1436   42.0590 H   0  0  0  0  0  0  0  0  0  0  0  0
   40.4752   25.7604   37.2773 H   0  0  0  0  0  0  0  0  0  0  0  0
   43.6889   28.3054   38.4207 H   0  0  0  0  0  0  0  0  0  0  0  0
  1  2  2  0
  2  3  1  0
  3 17  1  0
  4  3  2  0
  5  4  1  0
  6  5  2  0
  6  1  1  0
  7  8  2  0
  7  5  1  0
  9  8  1  0
 10  9  2  0
 11 10  1  0
 11 16  2  0
 12 11  1  0
 13 12  2  0
 13 14  1  0
 14 15  2  0
 15 16  1  0
 16  7  1  0
 17 18  1  0
 17 19  1  0
 20 17  1  0
 21 20  1  0
 22 21  1  0
 23 22  2  0
 24 23  1  0
 24 29  2  0
 25 24  1  0
 26 25  2  0
 26 27  1  0
 27 28  2  0
 28 29  1  0
 29 21  1  0
  1 30  1  0
  2 31  1  0
  9 32  1  0
 12 33  1  0
 13 34  1  0
 14 35  1  0
 15 36  1  0
 18 37  1  0
 18 38  1  0
 18 39  1  0
 19 40  1  0
 19 41  1  0
 19 42  1  0
 20 43  1  0
 20 44  1  0
 22 45  1  0
 25 46  1  0
 27 47  1  0
M  ISO  8  30  14  31  14  32  14  33  14  34  14  35  14  36  14  37   8
M  ISO  8  38   8  39   8  40   8  41   8  42   8  43   8  44   8  45  14
M  ISO  2  46  14  47  14
M  END
>  <minimizedAffinity>  (1) 
-4.67369747

>  <minimizedRMSD>  (1) 
4.48962402

$$$$
