
     RDKit          3D

 33 35  0  0  0  0  0  0  0  0999 V2000
   36.0580   26.4380   38.9450 C   0  0  0  0  0  0  0  0  0  0  0  0
   36.4100   25.1060   38.8890 C   0  0  0  0  0  0  0  0  0  0  0  0
   37.0080   24.8570   40.0930 C   0  0  0  0  0  0  0  0  0  0  0  0
   37.0240   25.9860   40.8570 N   0  0  0  0  0  0  0  0  0  0  0  0
   36.4390   26.9570   40.1470 N   0  0  0  0  0  0  0  0  0  0  0  0
   35.6930   28.4740   37.4970 C   0  0  0  0  0  0  0  0  0  0  0  0
   35.3850   27.1590   37.8760 C   0  0  0  0  0  0  0  0  0  0  0  0
   34.3550   26.4770   37.1910 C   0  0  0  0  0  0  0  0  0  0  0  0
   33.7110   27.1540   36.1810 N   0  0  0  0  0  0  0  0  0  0  0  0
   34.0660   28.4470   35.8610 C   0  0  0  0  0  0  0  0  0  0  0  0
   35.0620   29.1030   36.5260 N   0  0  0  0  0  0  0  0  0  0  0  0
   37.5970   25.9960   42.1730 C   0  0  0  0  0  0  0  0  0  0  0  0
   38.1600   27.3200   42.3700 N   0  0  0  0  0  0  0  0  0  0  0  0
   39.2770   27.6650   41.6750 C   0  0  0  0  0  0  0  0  0  0  0  0
   39.7600   28.9380   41.9120 C   0  0  0  0  0  0  0  0  0  0  0  0
   40.9680   29.4590   41.2300 C   0  0  0  0  0  0  0  0  0  0  0  0
   39.1510   29.8070   42.7950 C   0  0  0  0  0  0  0  0  0  0  0  0
   39.5750   30.9700   43.0240 O   0  0  0  0  0  0  0  0  0  0  0  0
   38.0560   29.3990   43.4440 N   0  0  0  0  0  0  0  0  0  0  0  0
   37.5530   28.1520   43.2340 C   0  0  0  0  0  0  0  0  0  0  0  0
   36.5350   27.7910   43.8470 O   0  0  0  0  0  0  0  0  0  0  0  0
   36.2462   24.4011   38.0606 H   0  0  0  0  0  0  0  0  0  0  0  0
   37.4180   23.8840   40.4014 H   0  0  0  0  0  0  0  0  0  0  0  0
   36.4951   29.0025   38.0330 H   0  0  0  0  0  0  0  0  0  0  0  0
   34.0787   25.4454   37.4546 H   0  0  0  0  0  0  0  0  0  0  0  0
   33.5332   28.9636   35.0491 H   0  0  0  0  0  0  0  0  0  0  0  0
   36.8206   25.7977   42.9266 H   0  0  0  0  0  0  0  0  0  0  0  0
   38.3675   25.2178   42.2762 H   0  0  0  0  0  0  0  0  0  0  0  0
   39.7644   26.9755   40.9700 H   0  0  0  0  0  0  0  0  0  0  0  0
   41.7052   29.7769   41.9820 H   0  0  0  0  0  0  0  0  0  0  0  0
   41.4035   28.6687   40.6009 H   0  0  0  0  0  0  0  0  0  0  0  0
   40.6921   30.3181   40.6009 H   0  0  0  0  0  0  0  0  0  0  0  0
   37.5894   30.0332   44.1081 H   0  0  0  0  0  0  0  0  0  0  0  0
  1  5  2  0
  2  1  1  0
  2  3  2  0
  3  4  1  0
  4 12  1  0
  5  4  1  0
  6  7  2  0
  7  1  1  0
  8  7  1  0
  9  8  2  0
 10  9  1  0
 10 11  2  0
 11  6  1  0
 12 13  1  0
 13 20  1  0
 14 15  2  0
 14 13  1  0
 15 17  1  0
 16 15  1  0
 17 18  2  0
 17 19  1  0
 20 19  1  0
 20 21  2  0
  2 22  1  0
  3 23  1  0
  6 24  1  0
  8 25  1  0
 10 26  1  0
 12 27  1  0
 12 28  1  0
 14 29  1  0
 16 30  1  0
 16 31  1  0
 16 32  1  0
 19 33  1  0
M  ISO  8  22  14  23  14  24  14  25  14  26  14  27   8  28   8  29  14
M  ISO  4  30   8  31   8  32   8  33   9
M  END
>  <minimizedAffinity>  (1) 
-4.38011122

>  <minimizedRMSD>  (1) 
5.44423294

$$$$
