
     RDKit          3D

 46 48  0  0  0  0  0  0  0  0999 V2000
   42.2640   30.2490   42.6570 C   0  0  0  0  0  0  0  0  0  0  0  0
   41.9570   28.9500   43.0860 C   0  0  0  0  0  0  0  0  0  0  0  0
   40.7020   28.4820   42.7610 C   0  0  0  0  0  0  0  0  0  0  0  0
   39.9070   29.3100   42.0710 N   0  0  0  0  0  0  0  0  0  0  0  0
   40.1620   30.5380   41.6510 C   0  0  0  0  0  0  0  0  0  0  0  0
   41.3740   30.9610   41.9770 N   0  0  0  0  0  0  0  0  0  0  0  0
   39.3990   31.5120   40.9000 C   0  0  0  0  0  0  0  0  0  0  0  0
   39.2160   32.7950   41.2990 N   0  0  0  0  0  0  0  0  0  0  0  0
   38.5280   33.7160   40.6420 C   0  0  0  0  0  0  0  0  0  0  0  0
   37.9410   33.4340   39.4910 N   0  0  0  0  0  0  0  0  0  0  0  0
   38.0410   32.1970   38.9770 C   0  0  0  0  0  0  0  0  0  0  0  0
   37.4350   31.8870   37.7760 C   0  0  0  0  0  0  0  0  0  0  0  0
   37.5260   30.6310   37.2340 C   0  0  0  0  0  0  0  0  0  0  0  0
   38.2440   29.6890   37.9280 C   0  0  0  0  0  0  0  0  0  0  0  0
   38.8380   30.0340   39.1270 C   0  0  0  0  0  0  0  0  0  0  0  0
   38.7710   31.2740   39.7040 C   0  0  0  0  0  0  0  0  0  0  0  0
   40.1680   27.1350   43.1170 C   0  0  0  0  0  0  0  0  0  0  0  0
   38.7450   27.2640   43.5910 C   0  0  0  0  0  0  0  0  0  0  0  0
   40.9720   26.5700   44.2620 C   0  0  0  0  0  0  0  0  0  0  0  0
   40.2270   26.1920   41.9460 C   0  0  0  0  0  0  0  0  0  0  0  0
   38.7760   26.0600   40.9950 S   0  0  0  0  0  0  0  0  0  0  0  0
   37.7530   24.6530   40.9970 C   0  0  0  0  0  0  0  0  0  0  0  0
   36.7570   24.5780   42.1070 C   0  0  0  0  0  0  0  0  0  0  0  0
   38.4690   23.3290   40.7870 C   0  0  0  0  0  0  0  0  0  0  0  0
   43.2494   30.6811   42.8856 H   0  0  0  0  0  0  0  0  0  0  0  0
   42.6770   28.3389   43.6501 H   0  0  0  0  0  0  0  0  0  0  0  0
   38.4435   34.7302   41.0595 H   0  0  0  0  0  0  0  0  0  0  0  0
   36.8673   32.6638   37.2428 H   0  0  0  0  0  0  0  0  0  0  0  0
   37.0411   30.3868   36.2773 H   0  0  0  0  0  0  0  0  0  0  0  0
   38.3457   28.6675   37.5327 H   0  0  0  0  0  0  0  0  0  0  0  0
   39.4064   29.2554   39.6568 H   0  0  0  0  0  0  0  0  0  0  0  0
   38.7236   27.2659   44.6908 H   0  0  0  0  0  0  0  0  0  0  0  0
   38.3169   28.2046   43.2143 H   0  0  0  0  0  0  0  0  0  0  0  0
   38.1547   26.4157   43.2143 H   0  0  0  0  0  0  0  0  0  0  0  0
   40.5235   26.8852   45.2157 H   0  0  0  0  0  0  0  0  0  0  0  0
   40.9729   25.4716   44.2025 H   0  0  0  0  0  0  0  0  0  0  0  0
   42.0057   26.9413   44.2025 H   0  0  0  0  0  0  0  0  0  0  0  0
   41.0347   26.5320   41.2812 H   0  0  0  0  0  0  0  0  0  0  0  0
   40.3883   25.1936   42.3787 H   0  0  0  0  0  0  0  0  0  0  0  0
   37.1612   24.8229   40.0855 H   0  0  0  0  0  0  0  0  0  0  0  0
   37.2812   24.6175   43.0733 H   0  0  0  0  0  0  0  0  0  0  0  0
   36.0606   25.4262   42.0327 H   0  0  0  0  0  0  0  0  0  0  0  0
   36.1955   23.6350   42.0327 H   0  0  0  0  0  0  0  0  0  0  0  0
   38.7099   22.8835   41.7635 H   0  0  0  0  0  0  0  0  0  0  0  0
   37.8176   22.6454   40.2228 H   0  0  0  0  0  0  0  0  0  0  0  0
   39.3977   23.4998   40.2228 H   0  0  0  0  0  0  0  0  0  0  0  0
  1  2  2  0
  3  2  1  0
  3 17  1  0
  4  3  2  0
  5  6  2  0
  5  4  1  0
  6  1  1  0
  7  8  2  0
  7  5  1  0
  9  8  1  0
 10  9  2  0
 11 10  1  0
 11 16  2  0
 12 11  1  0
 13 12  2  0
 13 14  1  0
 14 15  2  0
 15 16  1  0
 16  7  1  0
 17 18  1  0
 17 19  1  0
 20 17  1  0
 21 22  1  0
 21 20  1  0
 22 23  1  0
 24 22  1  0
  1 25  1  0
  2 26  1  0
  9 27  1  0
 12 28  1  0
 13 29  1  0
 14 30  1  0
 15 31  1  0
 18 32  1  0
 18 33  1  0
 18 34  1  0
 19 35  1  0
 19 36  1  0
 19 37  1  0
 20 38  1  0
 20 39  1  0
 22 40  1  0
 23 41  1  0
 23 42  1  0
 23 43  1  0
 24 44  1  0
 24 45  1  0
 24 46  1  0
M  ISO  8  25  14  26  14  27  14  28  14  29  14  30  14  31  14  32   8
M  ISO  8  33   8  34   8  35   8  36   8  37   8  38   8  39   8  40   8
M  ISO  6  41   8  42   8  43   8  44   8  45   8  46   8
M  END
>  <minimizedAffinity>  (1) 
-4.95153475

>  <minimizedRMSD>  (1) 
1.57511306

$$$$
