
     RDKit          3D

 42 45  0  0  0  0  0  0  0  0999 V2000
   41.8300   29.7430   42.7550 C   0  0  0  0  0  0  0  0  0  0  0  0
   41.4310   28.4280   43.0290 C   0  0  0  0  0  0  0  0  0  0  0  0
   40.1970   28.0540   42.5360 C   0  0  0  0  0  0  0  0  0  0  0  0
   39.5260   28.9790   41.8600 N   0  0  0  0  0  0  0  0  0  0  0  0
   39.8620   30.2210   41.5800 C   0  0  0  0  0  0  0  0  0  0  0  0
   41.0420   30.5520   42.0610 N   0  0  0  0  0  0  0  0  0  0  0  0
   39.2130   31.2940   40.8490 C   0  0  0  0  0  0  0  0  0  0  0  0
   39.1370   32.5700   41.2960 N   0  0  0  0  0  0  0  0  0  0  0  0
   38.5540   33.5740   40.6560 C   0  0  0  0  0  0  0  0  0  0  0  0
   37.9790   33.3930   39.4840 N   0  0  0  0  0  0  0  0  0  0  0  0
   37.9820   32.1820   38.9310 C   0  0  0  0  0  0  0  0  0  0  0  0
   37.3840   31.9630   37.6960 C   0  0  0  0  0  0  0  0  0  0  0  0
   37.3730   30.7260   37.1050 C   0  0  0  0  0  0  0  0  0  0  0  0
   37.9820   29.6960   37.7820 C   0  0  0  0  0  0  0  0  0  0  0  0
   38.5690   29.9440   39.0070 C   0  0  0  0  0  0  0  0  0  0  0  0
   38.6010   31.1580   39.6310 C   0  0  0  0  0  0  0  0  0  0  0  0
   39.6190   26.7150   42.7330 C   0  0  0  0  0  0  0  0  0  0  0  0
   38.1140   26.7960   42.7810 C   0  0  0  0  0  0  0  0  0  0  0  0
   40.0060   26.2230   44.1530 C   0  0  0  0  0  0  0  0  0  0  0  0
   40.0790   25.6740   41.7850 C   0  0  0  0  0  0  0  0  0  0  0  0
   39.4100   25.8440   40.1440 S   0  0  0  0  0  0  0  0  0  0  0  0
   38.3180   24.4390   39.8190 C   0  0  0  0  0  0  0  0  0  0  0  0
   38.5590   23.5750   40.8270 N   0  0  0  0  0  0  0  0  0  0  0  0
   37.8320   22.4970   40.7190 O   0  0  0  0  0  0  0  0  0  0  0  0
   37.1010   22.6330   39.6400 C   0  0  0  0  0  0  0  0  0  0  0  0
   37.3840   23.8180   39.0740 N   0  0  0  0  0  0  0  0  0  0  0  0
   42.8029   30.1061   43.1180 H   0  0  0  0  0  0  0  0  0  0  0  0
   42.0636   27.7348   43.6029 H   0  0  0  0  0  0  0  0  0  0  0  0
   38.5501   34.5755   41.1110 H   0  0  0  0  0  0  0  0  0  0  0  0
   36.9054   32.8068   37.1774 H   0  0  0  0  0  0  0  0  0  0  0  0
   36.8956   30.5639   36.1274 H   0  0  0  0  0  0  0  0  0  0  0  0
   38.0015   28.6838   37.3518 H   0  0  0  0  0  0  0  0  0  0  0  0
   39.0483   29.0973   39.5202 H   0  0  0  0  0  0  0  0  0  0  0  0
   37.7810   26.8139   43.8292 H   0  0  0  0  0  0  0  0  0  0  0  0
   37.7798   27.7134   42.2744 H   0  0  0  0  0  0  0  0  0  0  0  0
   37.6833   25.9197   42.2744 H   0  0  0  0  0  0  0  0  0  0  0  0
   39.5107   26.8526   44.9068 H   0  0  0  0  0  0  0  0  0  0  0  0
   39.6849   25.1785   44.2794 H   0  0  0  0  0  0  0  0  0  0  0  0
   41.0967   26.2891   44.2794 H   0  0  0  0  0  0  0  0  0  0  0  0
   41.1757   25.7265   41.7188 H   0  0  0  0  0  0  0  0  0  0  0  0
   39.7245   24.7086   42.1752 H   0  0  0  0  0  0  0  0  0  0  0  0
   36.3756   21.8983   39.2605 H   0  0  0  0  0  0  0  0  0  0  0  0
  1  2  2  0
  3 17  1  0
  3  2  1  0
  4  3  2  0
  5  4  1  0
  5  6  2  0
  6  1  1  0
  7  8  2  0
  7  5  1  0
  9  8  1  0
 10  9  2  0
 11 10  1  0
 11 16  2  0
 12 11  1  0
 13 12  2  0
 13 14  1  0
 14 15  2  0
 15 16  1  0
 16  7  1  0
 17 18  1  0
 17 19  1  0
 20 17  1  0
 21 20  1  0
 22 21  1  0
 22 23  2  0
 24 23  1  0
 25 24  1  0
 26 25  2  0
 26 22  1  0
  1 27  1  0
  2 28  1  0
  9 29  1  0
 12 30  1  0
 13 31  1  0
 14 32  1  0
 15 33  1  0
 18 34  1  0
 18 35  1  0
 18 36  1  0
 19 37  1  0
 19 38  1  0
 19 39  1  0
 20 40  1  0
 20 41  1  0
 25 42  1  0
M  ISO  8  27  14  28  14  29  14  30  14  31  14  32  14  33  14  34   8
M  ISO  8  35   8  36   8  37   8  38   8  39   8  40   8  41   8  42  14
M  END
>  <minimizedAffinity>  (1) 
-4.81073475

>  <minimizedRMSD>  (1) 
1.80337834

$$$$
