
     RDKit          3D

 44 47  0  0  0  0  0  0  0  0999 V2000
   41.4140   29.4570   42.7430 C   0  0  0  0  0  0  0  0  0  0  0  0
   40.7750   28.2870   43.1640 C   0  0  0  0  0  0  0  0  0  0  0  0
   39.4490   28.1580   42.7730 C   0  0  0  0  0  0  0  0  0  0  0  0
   38.9360   29.1580   42.0450 N   0  0  0  0  0  0  0  0  0  0  0  0
   39.5200   30.2680   41.6390 C   0  0  0  0  0  0  0  0  0  0  0  0
   40.7710   30.3630   42.0210 N   0  0  0  0  0  0  0  0  0  0  0  0
   39.0610   31.4030   40.8610 C   0  0  0  0  0  0  0  0  0  0  0  0
   39.1460   32.6940   41.3150 N   0  0  0  0  0  0  0  0  0  0  0  0
   38.7430   33.7590   40.6420 C   0  0  0  0  0  0  0  0  0  0  0  0
   38.2120   33.6430   39.4440 N   0  0  0  0  0  0  0  0  0  0  0  0
   38.0770   32.4370   38.8990 C   0  0  0  0  0  0  0  0  0  0  0  0
   37.5170   32.3110   37.6370 C   0  0  0  0  0  0  0  0  0  0  0  0
   37.3630   31.0730   37.0470 C   0  0  0  0  0  0  0  0  0  0  0  0
   37.7880   29.9560   37.7570 C   0  0  0  0  0  0  0  0  0  0  0  0
   38.3390   30.1420   39.0100 C   0  0  0  0  0  0  0  0  0  0  0  0
   38.5080   31.3420   39.6250 C   0  0  0  0  0  0  0  0  0  0  0  0
   38.6180   27.0000   43.1170 C   0  0  0  0  0  0  0  0  0  0  0  0
   37.4970   26.8370   42.1180 C   0  0  0  0  0  0  0  0  0  0  0  0
   37.8850   27.3130   44.4460 C   0  0  0  0  0  0  0  0  0  0  0  0
   39.3320   25.7170   43.2880 C   0  0  0  0  0  0  0  0  0  0  0  0
   40.0260   25.0400   41.7920 S   0  0  0  0  0  0  0  0  0  0  0  0
   38.9330   23.9720   40.8830 C   0  0  0  0  0  0  0  0  0  0  0  0
   39.2400   23.6620   39.5700 C   0  0  0  0  0  0  0  0  0  0  0  0
   38.2310   22.8150   39.1240 C   0  0  0  0  0  0  0  0  0  0  0  0
   37.3630   22.6340   40.1370 N   0  0  0  0  0  0  0  0  0  0  0  0
   37.7990   23.3320   41.1790 N   0  0  0  0  0  0  0  0  0  0  0  0
   42.4660   29.6279   43.0151 H   0  0  0  0  0  0  0  0  0  0  0  0
   41.2878   27.5209   43.7641 H   0  0  0  0  0  0  0  0  0  0  0  0
   38.8536   34.7571   41.0910 H   0  0  0  0  0  0  0  0  0  0  0  0
   37.1902   33.2122   37.0974 H   0  0  0  0  0  0  0  0  0  0  0  0
   36.9178   30.9732   36.0461 H   0  0  0  0  0  0  0  0  0  0  0  0
   37.6878   28.9469   37.3307 H   0  0  0  0  0  0  0  0  0  0  0  0
   38.6681   29.2449   39.5549 H   0  0  0  0  0  0  0  0  0  0  0  0
   36.5460   26.6987   42.6533 H   0  0  0  0  0  0  0  0  0  0  0  0
   37.4350   27.7356   41.4866 H   0  0  0  0  0  0  0  0  0  0  0  0
   37.6935   25.9580   41.4866 H   0  0  0  0  0  0  0  0  0  0  0  0
   38.5295   27.0378   45.2938 H   0  0  0  0  0  0  0  0  0  0  0  0
   37.6553   28.3877   44.4938 H   0  0  0  0  0  0  0  0  0  0  0  0
   36.9499   26.7357   44.4938 H   0  0  0  0  0  0  0  0  0  0  0  0
   40.1518   25.8748   44.0042 H   0  0  0  0  0  0  0  0  0  0  0  0
   38.5831   24.9909   43.6371 H   0  0  0  0  0  0  0  0  0  0  0  0
   40.1083   24.0148   38.9941 H   0  0  0  0  0  0  0  0  0  0  0  0
   38.1555   22.3712   38.1203 H   0  0  0  0  0  0  0  0  0  0  0  0
   36.5109   22.0560   40.1087 H   0  0  0  0  0  0  0  0  0  0  0  0
  1  2  2  0
  3 17  1  0
  3  2  1  0
  4  3  2  0
  5  6  2  0
  5  4  1  0
  6  1  1  0
  7  8  2  0
  7  5  1  0
  9  8  1  0
 10  9  2  0
 11 10  1  0
 11 16  2  0
 12 11  1  0
 13 12  2  0
 13 14  1  0
 14 15  2  0
 15 16  1  0
 16  7  1  0
 17 20  1  0
 17 19  1  0
 18 17  1  0
 21 20  1  0
 22 26  2  0
 22 21  1  0
 23 22  1  0
 24 23  2  0
 24 25  1  0
 25 26  1  0
  1 27  1  0
  2 28  1  0
  9 29  1  0
 12 30  1  0
 13 31  1  0
 14 32  1  0
 15 33  1  0
 18 34  1  0
 18 35  1  0
 18 36  1  0
 19 37  1  0
 19 38  1  0
 19 39  1  0
 20 40  1  0
 20 41  1  0
 23 42  1  0
 24 43  1  0
 25 44  1  0
M  ISO  8  27  14  28  14  29  14  30  14  31  14  32  14  33  14  34   8
M  ISO  8  35   8  36   8  37   8  38   8  39   8  40   8  41   8  42  14
M  ISO  2  43  14  44   9
M  END
>  <minimizedAffinity>  (1) 
-4.63427782

>  <minimizedRMSD>  (1) 
1.33520818

$$$$
