
     RDKit          3D

 44 47  0  0  0  0  0  0  0  0999 V2000
   41.0060   30.1770   42.5000 C   0  0  0  0  0  0  0  0  0  0  0  0
   40.5560   28.9860   43.0900 C   0  0  0  0  0  0  0  0  0  0  0  0
   39.2900   28.5710   42.7250 C   0  0  0  0  0  0  0  0  0  0  0  0
   38.6390   29.3430   41.8550 N   0  0  0  0  0  0  0  0  0  0  0  0
   39.0260   30.4590   41.2800 C   0  0  0  0  0  0  0  0  0  0  0  0
   40.2330   30.8340   41.6460 N   0  0  0  0  0  0  0  0  0  0  0  0
   38.4000   31.3610   40.3280 C   0  0  0  0  0  0  0  0  0  0  0  0
   38.1180   32.6570   40.5980 N   0  0  0  0  0  0  0  0  0  0  0  0
   37.5490   33.5020   39.7480 C   0  0  0  0  0  0  0  0  0  0  0  0
   37.2040   33.1330   38.5390 N   0  0  0  0  0  0  0  0  0  0  0  0
   37.4280   31.8690   38.1410 C   0  0  0  0  0  0  0  0  0  0  0  0
   37.0670   31.4710   36.8710 C   0  0  0  0  0  0  0  0  0  0  0  0
   37.2880   30.1760   36.4480 C   0  0  0  0  0  0  0  0  0  0  0  0
   37.8820   29.2960   37.3360 C   0  0  0  0  0  0  0  0  0  0  0  0
   38.2260   29.7420   38.5950 C   0  0  0  0  0  0  0  0  0  0  0  0
   38.0220   31.0200   39.0530 C   0  0  0  0  0  0  0  0  0  0  0  0
   38.6550   27.3580   43.2530 C   0  0  0  0  0  0  0  0  0  0  0  0
   37.9660   26.5880   42.1580 C   0  0  0  0  0  0  0  0  0  0  0  0
   37.4810   27.7840   44.1760 C   0  0  0  0  0  0  0  0  0  0  0  0
   39.5160   26.4760   44.0690 C   0  0  0  0  0  0  0  0  0  0  0  0
   39.9090   24.9220   43.2570 S   0  0  0  0  0  0  0  0  0  0  0  0
   41.5540   24.8980   42.5410 C   0  0  0  0  0  0  0  0  0  0  0  0
   41.6330   25.6160   41.1960 C   0  0  0  0  0  0  0  0  0  0  0  0
   42.3750   26.1120   42.4020 C   0  0  0  0  0  0  0  0  0  0  0  0
   42.0043   30.5673   42.7470 H   0  0  0  0  0  0  0  0  0  0  0  0
   41.1740   28.4172   43.8003 H   0  0  0  0  0  0  0  0  0  0  0  0
   37.3622   34.5383   40.0662 H   0  0  0  0  0  0  0  0  0  0  0  0
   36.5976   32.1938   36.1874 H   0  0  0  0  0  0  0  0  0  0  0  0
   37.0009   29.8532   35.4364 H   0  0  0  0  0  0  0  0  0  0  0  0
   38.0772   28.2543   37.0414 H   0  0  0  0  0  0  0  0  0  0  0  0
   38.6973   29.0226   39.2808 H   0  0  0  0  0  0  0  0  0  0  0  0
   37.2952   25.8384   42.6031 H   0  0  0  0  0  0  0  0  0  0  0  0
   37.3804   27.2804   41.5354 H   0  0  0  0  0  0  0  0  0  0  0  0
   38.7190   26.0826   41.5354 H   0  0  0  0  0  0  0  0  0  0  0  0
   37.7832   27.6743   45.2280 H   0  0  0  0  0  0  0  0  0  0  0  0
   37.2205   28.8340   43.9769 H   0  0  0  0  0  0  0  0  0  0  0  0
   36.6077   27.1454   43.9769 H   0  0  0  0  0  0  0  0  0  0  0  0
   40.4558   27.0059   44.2834 H   0  0  0  0  0  0  0  0  0  0  0  0
   38.9596   26.2338   44.9865 H   0  0  0  0  0  0  0  0  0  0  0  0
   41.7852   23.9138   42.9745 H   0  0  0  0  0  0  0  0  0  0  0  0
   40.7647   26.1712   40.8115 H   0  0  0  0  0  0  0  0  0  0  0  0
   41.9001   25.3346   40.1667 H   0  0  0  0  0  0  0  0  0  0  0  0
   43.4718   26.0351   42.4368 H   0  0  0  0  0  0  0  0  0  0  0  0
   42.4183   27.0738   42.9341 H   0  0  0  0  0  0  0  0  0  0  0  0
  1  2  2  0
  3  2  1  0
  3 17  1  0
  4  3  2  0
  5  6  2  0
  5  4  1  0
  6  1  1  0
  7  8  2  0
  7  5  1  0
  9  8  1  0
 10  9  2  0
 11 10  1  0
 11 16  2  0
 12 11  1  0
 13 12  2  0
 13 14  1  0
 14 15  2  0
 15 16  1  0
 16  7  1  0
 17 20  1  0
 17 19  1  0
 18 17  1  0
 21 20  1  0
 22 21  1  0
 23 24  1  0
 23 22  1  0
 24 22  1  0
  1 25  1  0
  2 26  1  0
  9 27  1  0
 12 28  1  0
 13 29  1  0
 14 30  1  0
 15 31  1  0
 18 32  1  0
 18 33  1  0
 18 34  1  0
 19 35  1  0
 19 36  1  0
 19 37  1  0
 20 38  1  0
 20 39  1  0
 22 40  1  0
 23 41  1  0
 23 42  1  0
 24 43  1  0
 24 44  1  0
M  ISO  8  25  14  26  14  27  14  28  14  29  14  30  14  31  14  32   8
M  ISO  8  33   8  34   8  35   8  36   8  37   8  38   8  39   8  40  13
M  ISO  4  41  13  42  13  43  13  44  13
M  END
>  <minimizedAffinity>  (1) 
-4.52660275

>  <minimizedRMSD>  (1) 
0.999097466

$$$$
