
     RDKit          3D

 41 44  0  0  0  0  0  0  0  0999 V2000
   36.3030   30.6920   41.2060 C   0  0  0  0  0  0  0  0  0  0  0  0
   35.9860   30.1450   39.8870 N   0  0  0  0  0  0  0  0  0  0  0  0
   35.0160   29.2280   39.6590 C   0  0  0  0  0  0  0  0  0  0  0  0
   34.9900   28.9420   38.3300 N   0  0  0  0  0  0  0  0  0  0  0  0
   35.9330   29.6670   37.7100 C   0  0  0  0  0  0  0  0  0  0  0  0
   36.3600   29.7920   36.3920 C   0  0  0  0  0  0  0  0  0  0  0  0
   35.7550   29.0800   35.5440 O   0  0  0  0  0  0  0  0  0  0  0  0
   37.3780   30.6470   36.0900 N   0  0  0  0  0  0  0  0  0  0  0  0
   37.9540   31.3580   37.0620 C   0  0  0  0  0  0  0  0  0  0  0  0
   39.0220   32.2530   36.7290 N   0  0  0  0  0  0  0  0  0  0  0  0
   37.5530   31.2530   38.3580 N   0  0  0  0  0  0  0  0  0  0  0  0
   36.5530   30.4200   38.6950 C   0  0  0  0  0  0  0  0  0  0  0  0
   37.4810   29.9910   41.7390 C   0  0  0  0  0  0  0  0  0  0  0  0
   38.6680   30.6260   42.1090 C   0  0  0  0  0  0  0  0  0  0  0  0
   39.7240   29.8700   42.6030 C   0  0  0  0  0  0  0  0  0  0  0  0
   39.5390   28.5090   42.7030 N   0  0  0  0  0  0  0  0  0  0  0  0
   38.3850   27.9450   42.3360 C   0  0  0  0  0  0  0  0  0  0  0  0
   37.3590   28.6360   41.8610 N   0  0  0  0  0  0  0  0  0  0  0  0
   38.3310   26.5300   42.4920 N   0  0  0  0  0  0  0  0  0  0  0  0
   37.0870   25.8110   42.4520 C   0  0  0  0  0  0  0  0  0  0  0  0
   37.3310   24.3610   42.1170 C   0  0  0  0  0  0  0  0  0  0  0  0
   38.2840   24.2850   41.0250 N   0  0  0  0  0  0  0  0  0  0  0  0
   39.5840   24.6140   41.6120 C   0  0  0  0  0  0  0  0  0  0  0  0
   39.4390   25.6510   42.7020 C   0  0  0  0  0  0  0  0  0  0  0  0
   35.4480   30.5452   41.8824 H   0  0  0  0  0  0  0  0  0  0  0  0
   36.5142   31.7684   41.1234 H   0  0  0  0  0  0  0  0  0  0  0  0
   34.3580   28.7874   40.4225 H   0  0  0  0  0  0  0  0  0  0  0  0
   37.7011   30.7439   35.1168 H   0  0  0  0  0  0  0  0  0  0  0  0
   39.4771   32.8089   37.4671 H   0  0  0  0  0  0  0  0  0  0  0  0
   39.3347   32.3406   35.7515 H   0  0  0  0  0  0  0  0  0  0  0  0
   38.7666   31.7171   42.0101 H   0  0  0  0  0  0  0  0  0  0  0  0
   40.6719   30.3408   42.9028 H   0  0  0  0  0  0  0  0  0  0  0  0
   36.5969   25.8789   43.4344 H   0  0  0  0  0  0  0  0  0  0  0  0
   36.4427   26.2535   41.6780 H   0  0  0  0  0  0  0  0  0  0  0  0
   37.7365   23.8416   42.9978 H   0  0  0  0  0  0  0  0  0  0  0  0
   36.3858   23.8826   41.8209 H   0  0  0  0  0  0  0  0  0  0  0  0
   38.0408   24.9622   40.2880 H   0  0  0  0  0  0  0  0  0  0  0  0
   40.0268   23.7023   42.0394 H   0  0  0  0  0  0  0  0  0  0  0  0
   40.2316   25.0233   40.8226 H   0  0  0  0  0  0  0  0  0  0  0  0
   40.3602   26.2509   42.7401 H   0  0  0  0  0  0  0  0  0  0  0  0
   39.2596   25.1144   43.6454 H   0  0  0  0  0  0  0  0  0  0  0  0
  1 13  1  0
  2  1  1  0
  3  2  1  0
  4  3  2  0
  5  4  1  0
  5 12  2  0
  6  5  1  0
  7  6  2  0
  8  6  1  0
  8  9  1  0
  9 11  2  0
 10  9  1  0
 11 12  1  0
 12  2  1  0
 13 18  1  0
 13 14  2  0
 14 15  1  0
 15 16  2  0
 17 19  1  0
 17 16  1  0
 18 17  2  0
 19 24  1  0
 20 19  1  0
 21 20  1  0
 22 23  1  0
 22 21  1  0
 23 24  1  0
  1 25  1  0
  1 26  1  0
  3 27  1  0
  8 28  1  0
 10 29  1  0
 10 30  1  0
 14 31  1  0
 15 32  1  0
 20 33  1  0
 20 34  1  0
 21 35  1  0
 21 36  1  0
 22 37  1  0
 23 38  1  0
 23 39  1  0
 24 40  1  0
 24 41  1  0
M  ISO  8  25   8  26   8  27  14  28   9  31  14  32  14  33  13  34  13
M  ISO  7  35  13  36  13  37   5  38  13  39  13  40  13  41  13
M  END
>  <minimizedAffinity>  (1) 
-6.2552886

>  <minimizedRMSD>  (1) 
1.3882966

$$$$
