
     RDKit          3D

 39 42  0  0  0  0  0  0  0  0999 V2000
   36.2990   30.5720   41.2370 C   0  0  0  0  0  0  0  0  0  0  0  0
   35.9820   30.0610   39.9090 N   0  0  0  0  0  0  0  0  0  0  0  0
   35.0180   29.1540   39.6470 C   0  0  0  0  0  0  0  0  0  0  0  0
   34.9940   28.9050   38.3220 N   0  0  0  0  0  0  0  0  0  0  0  0
   35.9300   29.6400   37.7220 C   0  0  0  0  0  0  0  0  0  0  0  0
   36.3580   29.7970   36.3960 C   0  0  0  0  0  0  0  0  0  0  0  0
   35.7530   29.1090   35.5420 O   0  0  0  0  0  0  0  0  0  0  0  0
   37.3800   30.6650   36.1210 N   0  0  0  0  0  0  0  0  0  0  0  0
   37.9540   31.3490   37.1230 C   0  0  0  0  0  0  0  0  0  0  0  0
   39.0120   32.2390   36.7900 N   0  0  0  0  0  0  0  0  0  0  0  0
   37.5460   31.2030   38.4040 N   0  0  0  0  0  0  0  0  0  0  0  0
   36.5520   30.3680   38.7250 C   0  0  0  0  0  0  0  0  0  0  0  0
   37.4520   29.8360   41.7680 C   0  0  0  0  0  0  0  0  0  0  0  0
   38.6690   30.4220   42.1100 C   0  0  0  0  0  0  0  0  0  0  0  0
   39.6850   29.6270   42.6010 C   0  0  0  0  0  0  0  0  0  0  0  0
   39.4490   28.2790   42.7370 N   0  0  0  0  0  0  0  0  0  0  0  0
   38.2660   27.7480   42.3990 C   0  0  0  0  0  0  0  0  0  0  0  0
   37.2690   28.4830   41.9230 N   0  0  0  0  0  0  0  0  0  0  0  0
   38.0850   26.3410   42.5630 N   0  0  0  0  0  0  0  0  0  0  0  0
   39.0620   25.2870   42.7760 C   0  0  0  0  0  0  0  0  0  0  0  0
   38.6600   24.3270   41.6530 C   0  0  0  0  0  0  0  0  0  0  0  0
   37.1500   24.5490   41.5070 C   0  0  0  0  0  0  0  0  0  0  0  0
   36.8290   25.6040   42.5550 C   0  0  0  0  0  0  0  0  0  0  0  0
   35.4341   30.4327   41.9022 H   0  0  0  0  0  0  0  0  0  0  0  0
   36.5377   31.6440   41.1761 H   0  0  0  0  0  0  0  0  0  0  0  0
   34.3572   28.6915   40.3949 H   0  0  0  0  0  0  0  0  0  0  0  0
   37.7061   30.7923   35.1523 H   0  0  0  0  0  0  0  0  0  0  0  0
   39.4794   32.7829   37.5293 H   0  0  0  0  0  0  0  0  0  0  0  0
   39.3109   32.3397   35.8095 H   0  0  0  0  0  0  0  0  0  0  0  0
   38.8183   31.5052   41.9902 H   0  0  0  0  0  0  0  0  0  0  0  0
   40.6579   30.0603   42.8763 H   0  0  0  0  0  0  0  0  0  0  0  0
   40.0919   25.6529   42.6520 H   0  0  0  0  0  0  0  0  0  0  0  0
   39.0607   24.8488   43.7850 H   0  0  0  0  0  0  0  0  0  0  0  0
   39.1849   24.5748   40.7186 H   0  0  0  0  0  0  0  0  0  0  0  0
   38.9172   23.2807   41.8746 H   0  0  0  0  0  0  0  0  0  0  0  0
   36.9042   24.9126   40.4984 H   0  0  0  0  0  0  0  0  0  0  0  0
   36.5711   23.6242   41.6467 H   0  0  0  0  0  0  0  0  0  0  0  0
   35.9846   26.2394   42.2497 H   0  0  0  0  0  0  0  0  0  0  0  0
   36.5179   25.2071   43.5326 H   0  0  0  0  0  0  0  0  0  0  0  0
  1 13  1  0
  2  1  1  0
  3  2  1  0
  4  3  2  0
  5  4  1  0
  5 12  2  0
  6  5  1  0
  7  6  2  0
  8  6  1  0
  8  9  1  0
  9 11  2  0
 10  9  1  0
 11 12  1  0
 12  2  1  0
 13 18  1  0
 13 14  2  0
 14 15  1  0
 15 16  2  0
 17 19  1  0
 17 16  1  0
 18 17  2  0
 19 20  1  0
 21 20  1  0
 22 21  1  0
 22 23  1  0
 23 19  1  0
  1 24  1  0
  1 25  1  0
  3 26  1  0
  8 27  1  0
 10 28  1  0
 10 29  1  0
 14 30  1  0
 15 31  1  0
 20 32  1  0
 20 33  1  0
 21 34  1  0
 21 35  1  0
 22 36  1  0
 22 37  1  0
 23 38  1  0
 23 39  1  0
M  ISO  8  24   8  25   8  26  14  27   9  30  14  31  14  32  13  33  13
M  ISO  6  34  13  35  13  36  13  37  13  38  13  39  13
M  END
>  <minimizedAffinity>  (1) 
-6.22173643

>  <minimizedRMSD>  (1) 
1.11802518

$$$$
