
     RDKit          3D

 35 38  0  0  0  0  0  0  0  0999 V2000
   36.3260   30.7640   41.1910 C   0  0  0  0  0  0  0  0  0  0  0  0
   35.9690   30.1700   39.9000 N   0  0  0  0  0  0  0  0  0  0  0  0
   35.0150   29.2440   39.7210 C   0  0  0  0  0  0  0  0  0  0  0  0
   34.9610   28.9280   38.4130 N   0  0  0  0  0  0  0  0  0  0  0  0
   35.8690   29.6390   37.7400 C   0  0  0  0  0  0  0  0  0  0  0  0
   36.2560   29.7280   36.4000 C   0  0  0  0  0  0  0  0  0  0  0  0
   35.6320   28.9840   35.5920 O   0  0  0  0  0  0  0  0  0  0  0  0
   37.2470   30.5820   36.0490 N   0  0  0  0  0  0  0  0  0  0  0  0
   37.8500   31.3340   36.9860 C   0  0  0  0  0  0  0  0  0  0  0  0
   38.8910   32.2270   36.6010 N   0  0  0  0  0  0  0  0  0  0  0  0
   37.4850   31.2580   38.2960 N   0  0  0  0  0  0  0  0  0  0  0  0
   36.4980   30.4190   38.6930 C   0  0  0  0  0  0  0  0  0  0  0  0
   37.5470   30.1070   41.6960 C   0  0  0  0  0  0  0  0  0  0  0  0
   38.7030   30.7880   42.0650 C   0  0  0  0  0  0  0  0  0  0  0  0
   39.7930   30.0650   42.5280 C   0  0  0  0  0  0  0  0  0  0  0  0
   39.6780   28.6850   42.6010 N   0  0  0  0  0  0  0  0  0  0  0  0
   38.5370   28.0820   42.2320 C   0  0  0  0  0  0  0  0  0  0  0  0
   37.4910   28.7580   41.7890 N   0  0  0  0  0  0  0  0  0  0  0  0
   38.4710   26.6250   42.3300 C   0  0  0  0  0  0  0  0  0  0  0  0
   37.3020   25.9510   41.9730 C   0  0  0  0  0  0  0  0  0  0  0  0
   37.1190   24.5810   42.0220 C   0  0  0  0  0  0  0  0  0  0  0  0
   38.1860   23.8840   42.4590 N   0  0  0  0  0  0  0  0  0  0  0  0
   39.3240   24.4970   42.8110 C   0  0  0  0  0  0  0  0  0  0  0  0
   39.4730   25.8530   42.7500 N   0  0  0  0  0  0  0  0  0  0  0  0
   35.5036   30.6155   41.9062 H   0  0  0  0  0  0  0  0  0  0  0  0
   36.5053   31.8424   41.0691 H   0  0  0  0  0  0  0  0  0  0  0  0
   34.3820   28.8142   40.5113 H   0  0  0  0  0  0  0  0  0  0  0  0
   37.5387   30.6552   35.0639 H   0  0  0  0  0  0  0  0  0  0  0  0
   39.3599   32.8079   37.3106 H   0  0  0  0  0  0  0  0  0  0  0  0
   39.1748   32.2918   35.6130 H   0  0  0  0  0  0  0  0  0  0  0  0
   38.7520   31.8844   41.9907 H   0  0  0  0  0  0  0  0  0  0  0  0
   40.7218   30.5720   42.8286 H   0  0  0  0  0  0  0  0  0  0  0  0
   36.4556   26.5604   41.6235 H   0  0  0  0  0  0  0  0  0  0  0  0
   36.1757   24.0980   41.7271 H   0  0  0  0  0  0  0  0  0  0  0  0
   40.1688   23.8860   43.1618 H   0  0  0  0  0  0  0  0  0  0  0  0
  1 13  1  0
  2  1  1  0
  3  2  1  0
  4  3  2  0
  5  4  1  0
  5 12  2  0
  6  5  1  0
  7  6  2  0
  8  6  1  0
  8  9  1  0
  9 11  2  0
 10  9  1  0
 11 12  1  0
 12  2  1  0
 13 18  1  0
 13 14  2  0
 14 15  1  0
 15 16  2  0
 17 19  1  0
 17 16  1  0
 18 17  2  0
 19 24  2  0
 20 21  2  0
 20 19  1  0
 21 22  1  0
 22 23  2  0
 24 23  1  0
  1 25  1  0
  1 26  1  0
  3 27  1  0
  8 28  1  0
 10 29  1  0
 10 30  1  0
 14 31  1  0
 15 32  1  0
 20 33  1  0
 21 34  1  0
 23 35  1  0
M  ISO  8  25   8  26   8  27  14  28   9  31  14  32  14  33  14  34  14
M  ISO  1  35  14
M  END
>  <minimizedAffinity>  (1) 
-6.07778502

>  <minimizedRMSD>  (1) 
1.62998939

$$$$
