
     RDKit          3D

 36 38  0  0  0  0  0  0  0  0999 V2000
   35.9690   30.2100   39.8930 N   0  0  0  0  0  0  0  0  0  0  0  0
   35.0510   29.2400   39.7430 C   0  0  0  0  0  0  0  0  0  0  0  0
   35.0180   28.8710   38.4460 N   0  0  0  0  0  0  0  0  0  0  0  0
   35.9060   29.5970   37.7630 C   0  0  0  0  0  0  0  0  0  0  0  0
   36.2960   29.6470   36.4190 C   0  0  0  0  0  0  0  0  0  0  0  0
   35.7160   28.8540   35.6290 O   0  0  0  0  0  0  0  0  0  0  0  0
   37.2640   30.5340   36.0490 N   0  0  0  0  0  0  0  0  0  0  0  0
   37.8240   31.3390   36.9650 C   0  0  0  0  0  0  0  0  0  0  0  0
   38.8310   32.2480   36.5250 N   0  0  0  0  0  0  0  0  0  0  0  0
   37.4460   31.2920   38.2640 N   0  0  0  0  0  0  0  0  0  0  0  0
   36.4980   30.4340   38.6750 C   0  0  0  0  0  0  0  0  0  0  0  0
   36.2840   30.8590   41.1620 C   0  0  0  0  0  0  0  0  0  0  0  0
   37.5260   30.2810   41.7020 C   0  0  0  0  0  0  0  0  0  0  0  0
   38.7830   30.9070   41.6330 C   0  0  0  0  0  0  0  0  0  0  0  0
   39.8820   30.2640   42.1770 C   0  0  0  0  0  0  0  0  0  0  0  0
   39.6840   29.0340   42.7620 N   0  0  0  0  0  0  0  0  0  0  0  0
   38.4640   28.4600   42.8110 C   0  0  0  0  0  0  0  0  0  0  0  0
   37.3970   29.0690   42.2910 N   0  0  0  0  0  0  0  0  0  0  0  0
   38.3670   27.1250   43.4700 C   0  0  0  0  0  0  0  0  0  0  0  0
   39.7170   26.6220   43.9070 C   0  0  0  0  0  0  0  0  0  0  0  0
   37.6480   26.1270   42.5910 C   0  0  0  0  0  0  0  0  0  0  0  0
   34.4291   28.8168   40.5456 H   0  0  0  0  0  0  0  0  0  0  0  0
   37.5654   30.5859   35.0655 H   0  0  0  0  0  0  0  0  0  0  0  0
   39.2834   32.8814   37.1996 H   0  0  0  0  0  0  0  0  0  0  0  0
   39.1059   32.2711   35.5326 H   0  0  0  0  0  0  0  0  0  0  0  0
   36.4197   31.9385   41.0002 H   0  0  0  0  0  0  0  0  0  0  0  0
   35.4607   30.7009   41.8742 H   0  0  0  0  0  0  0  0  0  0  0  0
   38.8916   31.8916   41.1546 H   0  0  0  0  0  0  0  0  0  0  0  0
   40.8817   30.7217   42.1427 H   0  0  0  0  0  0  0  0  0  0  0  0
   37.7628   27.2486   44.3808 H   0  0  0  0  0  0  0  0  0  0  0  0
   39.7637   26.6046   45.0059 H   0  0  0  0  0  0  0  0  0  0  0  0
   39.8733   25.6053   43.5172 H   0  0  0  0  0  0  0  0  0  0  0  0
   40.5004   27.2886   43.5172 H   0  0  0  0  0  0  0  0  0  0  0  0
   37.1212   25.3957   43.2216 H   0  0  0  0  0  0  0  0  0  0  0  0
   36.9211   26.6546   41.9559 H   0  0  0  0  0  0  0  0  0  0  0  0
   38.3786   25.6046   41.9559 H   0  0  0  0  0  0  0  0  0  0  0  0
  1 12  1  0
  2  1  1  0
  3  2  2  0
  4  3  1  0
  4 11  2  0
  5  4  1  0
  6  5  2  0
  7  5  1  0
  7  8  1  0
  8 10  2  0
  9  8  1  0
 10 11  1  0
 11  1  1  0
 12 13  1  0
 13 18  1  0
 14 13  2  0
 14 15  1  0
 15 16  2  0
 16 17  1  0
 17 19  1  0
 18 17  2  0
 19 20  1  0
 21 19  1  0
  2 22  1  0
  7 23  1  0
  9 24  1  0
  9 25  1  0
 12 26  1  0
 12 27  1  0
 14 28  1  0
 15 29  1  0
 19 30  1  0
 20 31  1  0
 20 32  1  0
 20 33  1  0
 21 34  1  0
 21 35  1  0
 21 36  1  0
M  ISO  8  22  14  23   9  26   8  27   8  28  14  29  14  30   8  31   8
M  ISO  5  32   8  33   8  34   8  35   8  36   8
M  END
>  <minimizedAffinity>  (1) 
-5.89806795

>  <minimizedRMSD>  (1) 
1.41710532

$$$$
