
     RDKit          3D

 29 31  0  0  0  0  0  0  0  0999 V2000
   35.9470   30.1680   39.9510 N   0  0  0  0  0  0  0  0  0  0  0  0
   35.0590   29.1710   39.8440 C   0  0  0  0  0  0  0  0  0  0  0  0
   34.9980   28.7740   38.5600 N   0  0  0  0  0  0  0  0  0  0  0  0
   35.8400   29.5070   37.8290 C   0  0  0  0  0  0  0  0  0  0  0  0
   36.1990   29.5480   36.4680 C   0  0  0  0  0  0  0  0  0  0  0  0
   35.6170   28.7240   35.7250 O   0  0  0  0  0  0  0  0  0  0  0  0
   37.1190   30.4460   36.0500 N   0  0  0  0  0  0  0  0  0  0  0  0
   37.6830   31.2880   36.9320 C   0  0  0  0  0  0  0  0  0  0  0  0
   38.6530   32.2270   36.4610 N   0  0  0  0  0  0  0  0  0  0  0  0
   37.3530   31.2670   38.2510 N   0  0  0  0  0  0  0  0  0  0  0  0
   36.4350   30.3840   38.7140 C   0  0  0  0  0  0  0  0  0  0  0  0
   36.2940   30.8670   41.1940 C   0  0  0  0  0  0  0  0  0  0  0  0
   37.5600   30.3040   41.7160 C   0  0  0  0  0  0  0  0  0  0  0  0
   38.8020   30.9060   41.5040 C   0  0  0  0  0  0  0  0  0  0  0  0
   39.9300   30.2870   42.0430 C   0  0  0  0  0  0  0  0  0  0  0  0
   39.7690   29.1200   42.7550 N   0  0  0  0  0  0  0  0  0  0  0  0
   38.5370   28.5870   42.9240 C   0  0  0  0  0  0  0  0  0  0  0  0
   37.4460   29.1500   42.4260 N   0  0  0  0  0  0  0  0  0  0  0  0
   38.3940   27.3430   43.6870 C   0  0  0  0  0  0  0  0  0  0  0  0
   39.3940   26.6890   44.1130 O   0  0  0  0  0  0  0  0  0  0  0  0
   34.4738   28.7454   40.6725 H   0  0  0  0  0  0  0  0  0  0  0  0
   37.3873   30.4846   35.0563 H   0  0  0  0  0  0  0  0  0  0  0  0
   39.0981   32.8819   37.1197 H   0  0  0  0  0  0  0  0  0  0  0  0
   38.9067   32.2485   35.4630 H   0  0  0  0  0  0  0  0  0  0  0  0
   36.4216   31.9407   40.9919 H   0  0  0  0  0  0  0  0  0  0  0  0
   35.4914   30.7363   41.9348 H   0  0  0  0  0  0  0  0  0  0  0  0
   38.8883   31.8400   40.9294 H   0  0  0  0  0  0  0  0  0  0  0  0
   40.9298   30.7235   41.9016 H   0  0  0  0  0  0  0  0  0  0  0  0
   37.3833   26.9633   43.8975 H   0  0  0  0  0  0  0  0  0  0  0  0
  1 12  1  0
  2  1  1  0
  3  2  2  0
  4  3  1  0
  4 11  2  0
  5  4  1  0
  6  5  2  0
  7  5  1  0
  7  8  1  0
  8 10  2  0
  9  8  1  0
 10 11  1  0
 11  1  1  0
 12 13  1  0
 13 18  1  0
 14 13  2  0
 14 15  1  0
 15 16  2  0
 16 17  1  0
 17 19  1  0
 18 17  2  0
 19 20  2  0
  2 21  1  0
  7 22  1  0
  9 23  1  0
  9 24  1  0
 12 25  1  0
 12 26  1  0
 14 27  1  0
 15 28  1  0
 19 29  1  0
M  ISO  7  21  14  22   9  25   8  26   8  27  14  28  14  29   6
M  END
>  <minimizedAffinity>  (1) 
-5.36046648

>  <minimizedRMSD>  (1) 
1.30833554

$$$$
