
     RDKit          3D

 29 31  0  0  0  0  0  0  0  0999 V2000
   35.9530   30.1730   39.9640 N   0  0  0  0  0  0  0  0  0  0  0  0
   35.0510   29.1810   39.8520 C   0  0  0  0  0  0  0  0  0  0  0  0
   34.9850   28.7910   38.5660 N   0  0  0  0  0  0  0  0  0  0  0  0
   35.8430   29.5260   37.8420 C   0  0  0  0  0  0  0  0  0  0  0  0
   36.1980   29.5670   36.4870 C   0  0  0  0  0  0  0  0  0  0  0  0
   35.6090   28.7480   35.7290 O   0  0  0  0  0  0  0  0  0  0  0  0
   37.1290   30.4520   36.0590 N   0  0  0  0  0  0  0  0  0  0  0  0
   37.7000   31.2830   36.9460 C   0  0  0  0  0  0  0  0  0  0  0  0
   38.6810   32.2180   36.4910 N   0  0  0  0  0  0  0  0  0  0  0  0
   37.3630   31.2550   38.2710 N   0  0  0  0  0  0  0  0  0  0  0  0
   36.4480   30.3930   38.7310 C   0  0  0  0  0  0  0  0  0  0  0  0
   36.2960   30.8490   41.2060 C   0  0  0  0  0  0  0  0  0  0  0  0
   37.5370   30.2630   41.7450 C   0  0  0  0  0  0  0  0  0  0  0  0
   38.8060   30.7930   41.5400 C   0  0  0  0  0  0  0  0  0  0  0  0
   39.9080   30.1630   42.0930 C   0  0  0  0  0  0  0  0  0  0  0  0
   39.6980   29.0190   42.8320 N   0  0  0  0  0  0  0  0  0  0  0  0
   38.4420   28.5470   43.0000 C   0  0  0  0  0  0  0  0  0  0  0  0
   37.3660   29.1310   42.4810 N   0  0  0  0  0  0  0  0  0  0  0  0
   38.3100   27.3600   43.7780 N   0  0  0  0  0  0  0  0  0  0  0  0
   34.4622   28.7570   40.6788 H   0  0  0  0  0  0  0  0  0  0  0  0
   37.3961   30.4875   35.0649 H   0  0  0  0  0  0  0  0  0  0  0  0
   39.1278   32.8619   37.1594 H   0  0  0  0  0  0  0  0  0  0  0  0
   38.9410   32.2478   35.4948 H   0  0  0  0  0  0  0  0  0  0  0  0
   36.4482   31.9211   41.0124 H   0  0  0  0  0  0  0  0  0  0  0  0
   35.4803   30.7256   41.9336 H   0  0  0  0  0  0  0  0  0  0  0  0
   38.9337   31.7074   40.9420 H   0  0  0  0  0  0  0  0  0  0  0  0
   40.9218   30.5641   41.9467 H   0  0  0  0  0  0  0  0  0  0  0  0
   37.3784   26.9522   43.9412 H   0  0  0  0  0  0  0  0  0  0  0  0
   39.1462   26.9101   44.1770 H   0  0  0  0  0  0  0  0  0  0  0  0
  1 12  1  0
  2  1  1  0
  3  2  2  0
  4  3  1  0
  4 11  2  0
  5  4  1  0
  6  5  2  0
  7  5  1  0
  7  8  1  0
  8 10  2  0
  9  8  1  0
 10 11  1  0
 11  1  1  0
 12 13  1  0
 13 18  1  0
 14 13  2  0
 14 15  1  0
 15 16  2  0
 16 17  1  0
 17 19  1  0
 18 17  2  0
  2 20  1  0
  7 21  1  0
  9 22  1  0
  9 23  1  0
 12 24  1  0
 12 25  1  0
 14 26  1  0
 15 27  1  0
 19 28  1  0
 19 29  1  0
M  ISO  6  20  14  21   9  24   8  25   8  26  14  27  14
M  END
>  <minimizedAffinity>  (1) 
-5.33113241

>  <minimizedRMSD>  (1) 
1.12742865

$$$$
