
     RDKit          3D

 42 46  0  0  0  0  0  0  0  0999 V2000
   37.3780   30.6180   41.5850 C   0  0  0  0  0  0  0  0  0  0  0  0
   38.5810   31.3060   41.3860 C   0  0  0  0  0  0  0  0  0  0  0  0
   39.7250   30.8360   42.0060 C   0  0  0  0  0  0  0  0  0  0  0  0
   39.6260   29.7010   42.7990 N   0  0  0  0  0  0  0  0  0  0  0  0
   38.4420   29.0800   42.9540 C   0  0  0  0  0  0  0  0  0  0  0  0
   37.3380   29.5080   42.3740 N   0  0  0  0  0  0  0  0  0  0  0  0
   36.0920   31.0090   40.9860 C   0  0  0  0  0  0  0  0  0  0  0  0
   35.8660   30.2250   39.7840 N   0  0  0  0  0  0  0  0  0  0  0  0
   35.0690   29.1470   39.7120 C   0  0  0  0  0  0  0  0  0  0  0  0
   35.0830   28.6600   38.4630 N   0  0  0  0  0  0  0  0  0  0  0  0
   35.8990   29.4290   37.7100 C   0  0  0  0  0  0  0  0  0  0  0  0
   36.2880   29.4030   36.3780 C   0  0  0  0  0  0  0  0  0  0  0  0
   35.8130   28.4910   35.6670 O   0  0  0  0  0  0  0  0  0  0  0  0
   37.1540   30.3580   35.9210 N   0  0  0  0  0  0  0  0  0  0  0  0
   37.6100   31.2950   36.7570 C   0  0  0  0  0  0  0  0  0  0  0  0
   38.5180   32.2930   36.2740 N   0  0  0  0  0  0  0  0  0  0  0  0
   37.2370   31.3340   38.0650 N   0  0  0  0  0  0  0  0  0  0  0  0
   36.3780   30.4010   38.5520 C   0  0  0  0  0  0  0  0  0  0  0  0
   38.4400   27.9390   43.7740 O   0  0  0  0  0  0  0  0  0  0  0  0
   39.2590   26.8650   43.5370 C   0  0  0  0  0  0  0  0  0  0  0  0
   40.5290   26.6920   43.9380 N   0  0  0  0  0  0  0  0  0  0  0  0
   41.1750   25.5660   43.6080 C   0  0  0  0  0  0  0  0  0  0  0  0
   40.6100   24.5790   42.8820 N   0  0  0  0  0  0  0  0  0  0  0  0
   39.3290   24.7130   42.4550 C   0  0  0  0  0  0  0  0  0  0  0  0
   38.8260   23.6600   41.7190 C   0  0  0  0  0  0  0  0  0  0  0  0
   37.5140   23.8070   41.2880 C   0  0  0  0  0  0  0  0  0  0  0  0
   36.7730   24.9290   41.5800 C   0  0  0  0  0  0  0  0  0  0  0  0
   37.3480   25.9380   42.3220 C   0  0  0  0  0  0  0  0  0  0  0  0
   38.6580   25.8700   42.7930 C   0  0  0  0  0  0  0  0  0  0  0  0
   38.6159   32.2024   40.7494 H   0  0  0  0  0  0  0  0  0  0  0  0
   40.6891   31.3490   41.8738 H   0  0  0  0  0  0  0  0  0  0  0  0
   35.2800   30.8231   41.7044 H   0  0  0  0  0  0  0  0  0  0  0  0
   36.1138   32.0787   40.7305 H   0  0  0  0  0  0  0  0  0  0  0  0
   34.4926   28.7275   40.5497 H   0  0  0  0  0  0  0  0  0  0  0  0
   37.4536   30.3548   34.9355 H   0  0  0  0  0  0  0  0  0  0  0  0
   38.8735   33.0184   36.9130 H   0  0  0  0  0  0  0  0  0  0  0  0
   38.8151   32.2849   35.2878 H   0  0  0  0  0  0  0  0  0  0  0  0
   42.2146   25.4401   43.9446 H   0  0  0  0  0  0  0  0  0  0  0  0
   39.4233   22.7653   41.4893 H   0  0  0  0  0  0  0  0  0  0  0  0
   37.0536   23.0026   40.6956 H   0  0  0  0  0  0  0  0  0  0  0  0
   35.7355   25.0194   41.2259 H   0  0  0  0  0  0  0  0  0  0  0  0
   36.7496   26.8320   42.5515 H   0  0  0  0  0  0  0  0  0  0  0  0
  1  6  1  0
  2  1  2  0
  2  3  1  0
  3  4  2  0
  4  5  1  0
  5 19  1  0
  6  5  2  0
  7  1  1  0
  8  7  1  0
  9  8  1  0
 10  9  2  0
 11 10  1  0
 11 18  2  0
 12 11  1  0
 13 12  2  0
 14 12  1  0
 14 15  1  0
 15 17  2  0
 16 15  1  0
 17 18  1  0
 18  8  1  0
 20 19  1  0
 20 21  2  0
 22 21  1  0
 23 22  2  0
 24 29  2  0
 24 23  1  0
 25 24  1  0
 26 27  1  0
 26 25  2  0
 27 28  2  0
 28 29  1  0
 29 20  1  0
  2 30  1  0
  3 31  1  0
  7 32  1  0
  7 33  1  0
  9 34  1  0
 14 35  1  0
 16 36  1  0
 16 37  1  0
 22 38  1  0
 25 39  1  0
 26 40  1  0
 27 41  1  0
 28 42  1  0
M  ISO  8  30  14  31  14  32   8  33   8  34  14  35   9  38  14  39  14
M  ISO  3  40  14  41  14  42  14
M  END
>  <minimizedAffinity>  (1) 
-7.13015413

>  <minimizedRMSD>  (1) 
1.39929914

$$$$
