
     RDKit          3D

 36 39  0  0  0  0  0  0  0  0999 V2000
   36.1790   30.9580   41.0390 C   0  0  0  0  0  0  0  0  0  0  0  0
   35.9100   30.2100   39.8230 N   0  0  0  0  0  0  0  0  0  0  0  0
   35.0810   29.1530   39.7440 C   0  0  0  0  0  0  0  0  0  0  0  0
   35.0640   28.7000   38.4760 N   0  0  0  0  0  0  0  0  0  0  0  0
   35.8790   29.4560   37.7230 C   0  0  0  0  0  0  0  0  0  0  0  0
   36.2460   29.4550   36.3780 C   0  0  0  0  0  0  0  0  0  0  0  0
   35.7300   28.5730   35.6710 O   0  0  0  0  0  0  0  0  0  0  0  0
   37.1200   30.3880   35.9300 N   0  0  0  0  0  0  0  0  0  0  0  0
   37.6300   31.3100   36.7790 C   0  0  0  0  0  0  0  0  0  0  0  0
   38.5470   32.2860   36.2980 N   0  0  0  0  0  0  0  0  0  0  0  0
   37.2840   31.3280   38.0920 N   0  0  0  0  0  0  0  0  0  0  0  0
   36.4090   30.4080   38.5850 C   0  0  0  0  0  0  0  0  0  0  0  0
   37.4630   30.5300   41.5960 C   0  0  0  0  0  0  0  0  0  0  0  0
   38.6730   31.2010   41.3990 C   0  0  0  0  0  0  0  0  0  0  0  0
   39.8220   30.7010   41.9740 C   0  0  0  0  0  0  0  0  0  0  0  0
   39.7260   29.5380   42.7340 N   0  0  0  0  0  0  0  0  0  0  0  0
   38.5300   28.9290   42.8920 C   0  0  0  0  0  0  0  0  0  0  0  0
   37.4190   29.3950   42.3460 N   0  0  0  0  0  0  0  0  0  0  0  0
   38.5620   27.7690   43.6770 O   0  0  0  0  0  0  0  0  0  0  0  0
   38.6030   26.5000   43.1690 C   0  0  0  0  0  0  0  0  0  0  0  0
   39.7900   25.8380   43.4880 C   0  0  0  0  0  0  0  0  0  0  0  0
   40.0010   24.5280   43.0490 C   0  0  0  0  0  0  0  0  0  0  0  0
   39.0230   23.9610   42.3200 N   0  0  0  0  0  0  0  0  0  0  0  0
   37.8750   24.6250   42.0210 C   0  0  0  0  0  0  0  0  0  0  0  0
   37.6380   25.8980   42.4330 N   0  0  0  0  0  0  0  0  0  0  0  0
   35.3798   30.7693   41.7709 H   0  0  0  0  0  0  0  0  0  0  0  0
   36.2168   32.0331   40.8096 H   0  0  0  0  0  0  0  0  0  0  0  0
   34.5087   28.7271   40.5813 H   0  0  0  0  0  0  0  0  0  0  0  0
   37.3977   30.3956   34.9382 H   0  0  0  0  0  0  0  0  0  0  0  0
   38.9364   32.9887   36.9426 H   0  0  0  0  0  0  0  0  0  0  0  0
   38.8214   32.2898   35.3052 H   0  0  0  0  0  0  0  0  0  0  0  0
   38.7083   32.1177   40.7920 H   0  0  0  0  0  0  0  0  0  0  0  0
   40.7888   31.2072   41.8361 H   0  0  0  0  0  0  0  0  0  0  0  0
   40.5600   26.3480   44.0855 H   0  0  0  0  0  0  0  0  0  0  0  0
   40.9266   23.9843   43.2892 H   0  0  0  0  0  0  0  0  0  0  0  0
   37.1081   24.1118   41.4222 H   0  0  0  0  0  0  0  0  0  0  0  0
  1 13  1  0
  2  1  1  0
  3  2  1  0
  4  3  2  0
  5  4  1  0
  5 12  2  0
  6  5  1  0
  7  6  2  0
  8  6  1  0
  8  9  1  0
  9 11  2  0
 10  9  1  0
 11 12  1  0
 12  2  1  0
 13 18  1  0
 14 13  2  0
 14 15  1  0
 15 16  2  0
 16 17  1  0
 17 19  1  0
 18 17  2  0
 20 21  2  0
 20 19  1  0
 22 21  1  0
 23 22  2  0
 24 23  1  0
 24 25  2  0
 25 20  1  0
  1 26  1  0
  1 27  1  0
  3 28  1  0
  8 29  1  0
 10 30  1  0
 10 31  1  0
 14 32  1  0
 15 33  1  0
 21 34  1  0
 22 35  1  0
 24 36  1  0
M  ISO  8  26   8  27   8  28  14  29   9  32  14  33  14  34  14  35  14
M  ISO  1  36  14
M  END
>  <minimizedAffinity>  (1) 
-6.17959929

>  <minimizedRMSD>  (1) 
2.10114694

$$$$
