
     RDKit          3D

 35 38  0  0  0  0  0  0  0  0999 V2000
   36.2780   30.8740   41.1680 C   0  0  0  0  0  0  0  0  0  0  0  0
   35.9460   30.1810   39.9290 N   0  0  0  0  0  0  0  0  0  0  0  0
   35.0520   29.1700   39.8250 C   0  0  0  0  0  0  0  0  0  0  0  0
   34.9910   28.7630   38.5360 N   0  0  0  0  0  0  0  0  0  0  0  0
   35.8400   29.5060   37.8150 C   0  0  0  0  0  0  0  0  0  0  0  0
   36.1890   29.5360   36.4720 C   0  0  0  0  0  0  0  0  0  0  0  0
   35.6280   28.7170   35.7080 O   0  0  0  0  0  0  0  0  0  0  0  0
   37.1190   30.4430   36.0320 N   0  0  0  0  0  0  0  0  0  0  0  0
   37.6790   31.2920   36.9130 C   0  0  0  0  0  0  0  0  0  0  0  0
   38.6430   32.2280   36.4420 N   0  0  0  0  0  0  0  0  0  0  0  0
   37.3520   31.2760   38.2170 N   0  0  0  0  0  0  0  0  0  0  0  0
   36.4360   30.3940   38.6920 C   0  0  0  0  0  0  0  0  0  0  0  0
   37.5170   30.3160   41.7120 C   0  0  0  0  0  0  0  0  0  0  0  0
   38.7850   30.8440   41.4700 C   0  0  0  0  0  0  0  0  0  0  0  0
   39.8960   30.2540   42.0220 C   0  0  0  0  0  0  0  0  0  0  0  0
   39.6930   29.1250   42.8200 N   0  0  0  0  0  0  0  0  0  0  0  0
   38.4510   28.6460   43.0310 C   0  0  0  0  0  0  0  0  0  0  0  0
   37.3680   29.2180   42.4930 N   0  0  0  0  0  0  0  0  0  0  0  0
   38.3590   27.5110   43.8450 O   0  0  0  0  0  0  0  0  0  0  0  0
   38.8260   26.3150   43.3200 C   0  0  0  0  0  0  0  0  0  0  0  0
   39.9690   25.6530   43.7220 C   0  0  0  0  0  0  0  0  0  0  0  0
   40.0000   24.5250   42.9070 C   0  0  0  0  0  0  0  0  0  0  0  0
   38.9040   24.5610   42.0730 C   0  0  0  0  0  0  0  0  0  0  0  0
   38.2300   25.6640   42.3660 O   0  0  0  0  0  0  0  0  0  0  0  0
   35.4633   30.7397   41.8948 H   0  0  0  0  0  0  0  0  0  0  0  0
   36.4117   31.9473   40.9678 H   0  0  0  0  0  0  0  0  0  0  0  0
   34.4683   28.7468   40.6558 H   0  0  0  0  0  0  0  0  0  0  0  0
   37.3859   30.4739   35.0377 H   0  0  0  0  0  0  0  0  0  0  0  0
   39.0844   32.8873   37.0988 H   0  0  0  0  0  0  0  0  0  0  0  0
   38.8989   32.2458   35.4445 H   0  0  0  0  0  0  0  0  0  0  0  0
   38.8958   31.7355   40.8352 H   0  0  0  0  0  0  0  0  0  0  0  0
   40.9049   30.6542   41.8430 H   0  0  0  0  0  0  0  0  0  0  0  0
   40.6861   25.9476   44.5024 H   0  0  0  0  0  0  0  0  0  0  0  0
   40.7689   23.7386   42.9257 H   0  0  0  0  0  0  0  0  0  0  0  0
   38.6386   23.8156   41.3088 H   0  0  0  0  0  0  0  0  0  0  0  0
  1 13  1  0
  2  1  1  0
  3  2  1  0
  4  3  2  0
  5  4  1  0
  5 12  2  0
  6  5  1  0
  7  6  2  0
  8  6  1  0
  8  9  1  0
  9 11  2  0
 10  9  1  0
 11 12  1  0
 12  2  1  0
 13 18  1  0
 14 13  2  0
 14 15  1  0
 15 16  2  0
 16 17  1  0
 17 19  1  0
 18 17  2  0
 20 21  2  0
 20 19  1  0
 22 21  1  0
 23 24  1  0
 23 22  2  0
 24 20  1  0
  1 25  1  0
  1 26  1  0
  3 27  1  0
  8 28  1  0
 10 29  1  0
 10 30  1  0
 14 31  1  0
 15 32  1  0
 21 33  1  0
 22 34  1  0
 23 35  1  0
M  ISO  8  25   8  26   8  27  14  28   9  31  14  32  14  33  14  34  14
M  ISO  1  35  14
M  END
>  <minimizedAffinity>  (1) 
-6.15971661

>  <minimizedRMSD>  (1) 
1.28982747

$$$$
