
     RDKit          3D

 35 38  0  0  0  0  0  0  0  0999 V2000
   36.1810   30.9210   41.0560 C   0  0  0  0  0  0  0  0  0  0  0  0
   35.9050   30.1880   39.8290 N   0  0  0  0  0  0  0  0  0  0  0  0
   35.0620   29.1340   39.7370 C   0  0  0  0  0  0  0  0  0  0  0  0
   35.0490   28.7010   38.4620 N   0  0  0  0  0  0  0  0  0  0  0  0
   35.8720   29.4610   37.7250 C   0  0  0  0  0  0  0  0  0  0  0  0
   36.2360   29.4670   36.3860 C   0  0  0  0  0  0  0  0  0  0  0  0
   35.7220   28.6040   35.6590 O   0  0  0  0  0  0  0  0  0  0  0  0
   37.1180   30.3950   35.9410 N   0  0  0  0  0  0  0  0  0  0  0  0
   37.6310   31.3010   36.8040 C   0  0  0  0  0  0  0  0  0  0  0  0
   38.5580   32.2730   36.3310 N   0  0  0  0  0  0  0  0  0  0  0  0
   37.2820   31.3040   38.1130 N   0  0  0  0  0  0  0  0  0  0  0  0
   36.4030   30.3900   38.5910 C   0  0  0  0  0  0  0  0  0  0  0  0
   37.4470   30.4430   41.6270 C   0  0  0  0  0  0  0  0  0  0  0  0
   38.6960   31.0250   41.3870 C   0  0  0  0  0  0  0  0  0  0  0  0
   39.8180   30.4990   41.9760 C   0  0  0  0  0  0  0  0  0  0  0  0
   39.6510   29.3940   42.7960 N   0  0  0  0  0  0  0  0  0  0  0  0
   38.4280   28.8620   43.0020 C   0  0  0  0  0  0  0  0  0  0  0  0
   37.3420   29.3530   42.4450 N   0  0  0  0  0  0  0  0  0  0  0  0
   38.3690   27.7480   43.8480 O   0  0  0  0  0  0  0  0  0  0  0  0
   38.9590   26.5110   43.4870 C   0  0  0  0  0  0  0  0  0  0  0  0
   40.0500   25.6200   43.7050 C   0  0  0  0  0  0  0  0  0  0  0  0
   40.0080   24.4860   42.9540 C   0  0  0  0  0  0  0  0  0  0  0  0
   39.0030   24.2220   42.0620 C   0  0  0  0  0  0  0  0  0  0  0  0
   37.8910   25.6550   42.1730 S   0  0  0  0  0  0  0  0  0  0  0  0
   35.3661   30.7544   41.7758 H   0  0  0  0  0  0  0  0  0  0  0  0
   36.2561   31.9962   40.8364 H   0  0  0  0  0  0  0  0  0  0  0  0
   34.4829   28.7021   40.5665 H   0  0  0  0  0  0  0  0  0  0  0  0
   37.3964   30.4101   34.9495 H   0  0  0  0  0  0  0  0  0  0  0  0
   38.9536   32.9667   36.9815 H   0  0  0  0  0  0  0  0  0  0  0  0
   38.8329   32.2823   35.3384 H   0  0  0  0  0  0  0  0  0  0  0  0
   38.7785   31.9019   40.7280 H   0  0  0  0  0  0  0  0  0  0  0  0
   40.8121   30.9374   41.8040 H   0  0  0  0  0  0  0  0  0  0  0  0
   40.8583   25.8314   44.4205 H   0  0  0  0  0  0  0  0  0  0  0  0
   40.8167   23.7491   43.0684 H   0  0  0  0  0  0  0  0  0  0  0  0
   38.8929   23.3363   41.4190 H   0  0  0  0  0  0  0  0  0  0  0  0
  1 13  1  0
  2  1  1  0
  3  2  1  0
  4  3  2  0
  5  4  1  0
  5 12  2  0
  6  5  1  0
  7  6  2  0
  8  6  1  0
  8  9  1  0
  9 11  2  0
 10  9  1  0
 11 12  1  0
 12  2  1  0
 13 18  1  0
 14 13  2  0
 14 15  1  0
 15 16  2  0
 16 17  1  0
 17 19  1  0
 18 17  2  0
 20 21  2  0
 20 19  1  0
 22 21  1  0
 23 24  1  0
 23 22  2  0
 24 20  1  0
  1 25  1  0
  1 26  1  0
  3 27  1  0
  8 28  1  0
 10 29  1  0
 10 30  1  0
 14 31  1  0
 15 32  1  0
 21 33  1  0
 22 34  1  0
 23 35  1  0
M  ISO  8  25   8  26   8  27  14  28   9  31  14  32  14  33  14  34  14
M  ISO  1  35  14
M  END
>  <minimizedAffinity>  (1) 
-6.12489939

>  <minimizedRMSD>  (1) 
1.46788025

$$$$
