
     RDKit          3D

 43 46  0  0  0  0  0  0  0  0999 V2000
   36.2610   30.7090   41.1930 C   0  0  0  0  0  0  0  0  0  0  0  0
   35.9650   30.1450   39.8790 N   0  0  0  0  0  0  0  0  0  0  0  0
   35.0210   29.2210   39.6410 C   0  0  0  0  0  0  0  0  0  0  0  0
   35.0160   28.9240   38.3260 N   0  0  0  0  0  0  0  0  0  0  0  0
   35.9600   29.6560   37.7080 C   0  0  0  0  0  0  0  0  0  0  0  0
   36.3920   29.7620   36.3930 C   0  0  0  0  0  0  0  0  0  0  0  0
   35.8110   29.0400   35.5490 O   0  0  0  0  0  0  0  0  0  0  0  0
   37.4080   30.6330   36.0930 N   0  0  0  0  0  0  0  0  0  0  0  0
   37.9640   31.3610   37.0670 C   0  0  0  0  0  0  0  0  0  0  0  0
   39.0140   32.2570   36.7440 N   0  0  0  0  0  0  0  0  0  0  0  0
   37.5470   31.2620   38.3490 N   0  0  0  0  0  0  0  0  0  0  0  0
   36.5460   30.4160   38.6930 C   0  0  0  0  0  0  0  0  0  0  0  0
   37.4490   30.0590   41.7310 C   0  0  0  0  0  0  0  0  0  0  0  0
   38.6750   30.7190   41.9750 C   0  0  0  0  0  0  0  0  0  0  0  0
   39.7420   30.0130   42.4860 C   0  0  0  0  0  0  0  0  0  0  0  0
   39.5560   28.6490   42.7450 N   0  0  0  0  0  0  0  0  0  0  0  0
   38.3580   28.0680   42.4920 C   0  0  0  0  0  0  0  0  0  0  0  0
   37.3270   28.7280   42.0030 N   0  0  0  0  0  0  0  0  0  0  0  0
   38.3020   26.6970   42.7950 O   0  0  0  0  0  0  0  0  0  0  0  0
   36.9710   25.0970   41.0390 N   0  0  0  0  0  0  0  0  0  0  0  0
   38.0390   25.1640   40.0820 C   0  0  0  0  0  0  0  0  0  0  0  0
   39.1030   26.0900   40.6560 C   0  0  0  0  0  0  0  0  0  0  0  0
   39.1780   25.8160   42.1370 C   0  0  0  0  0  0  0  0  0  0  0  0
   38.7760   24.3840   42.4420 C   0  0  0  0  0  0  0  0  0  0  0  0
   37.3300   24.1470   42.0720 C   0  0  0  0  0  0  0  0  0  0  0  0
   35.4094   30.5383   41.8680 H   0  0  0  0  0  0  0  0  0  0  0  0
   36.4380   31.7908   41.1020 H   0  0  0  0  0  0  0  0  0  0  0  0
   34.3576   28.7771   40.3978 H   0  0  0  0  0  0  0  0  0  0  0  0
   37.7409   30.7258   35.1227 H   0  0  0  0  0  0  0  0  0  0  0  0
   39.4524   32.8246   37.4833 H   0  0  0  0  0  0  0  0  0  0  0  0
   39.3385   32.3404   35.7700 H   0  0  0  0  0  0  0  0  0  0  0  0
   38.7767   31.7925   41.7576 H   0  0  0  0  0  0  0  0  0  0  0  0
   40.7066   30.5034   42.6838 H   0  0  0  0  0  0  0  0  0  0  0  0
   36.1060   24.7901   40.5717 H   0  0  0  0  0  0  0  0  0  0  0  0
   37.6654   25.5651   39.1283 H   0  0  0  0  0  0  0  0  0  0  0  0
   38.4547   24.1636   39.8913 H   0  0  0  0  0  0  0  0  0  0  0  0
   40.0756   25.8850   40.1847 H   0  0  0  0  0  0  0  0  0  0  0  0
   38.8493   27.1432   40.4653 H   0  0  0  0  0  0  0  0  0  0  0  0
   40.2118   25.9646   42.4823 H   0  0  0  0  0  0  0  0  0  0  0  0
   39.4139   23.6987   41.8646 H   0  0  0  0  0  0  0  0  0  0  0  0
   38.9005   24.2027   43.5198 H   0  0  0  0  0  0  0  0  0  0  0  0
   36.6898   24.2950   42.9542 H   0  0  0  0  0  0  0  0  0  0  0  0
   37.1920   23.1177   41.7094 H   0  0  0  0  0  0  0  0  0  0  0  0
  1 13  1  0
  2  1  1  0
  3  2  1  0
  4  3  2  0
  5  4  1  0
  5 12  2  0
  6  5  1  0
  7  6  2  0
  8  6  1  0
  8  9  1  0
  9 11  2  0
 10  9  1  0
 11 12  1  0
 12  2  1  0
 13 14  2  0
 13 18  1  0
 14 15  1  0
 15 16  2  0
 17 16  1  0
 17 19  1  0
 18 17  2  0
 20 25  1  0
 21 22  1  0
 21 20  1  0
 22 23  1  0
 23 24  1  0
 23 19  1  0
 25 24  1  0
  1 26  1  0
  1 27  1  0
  3 28  1  0
  8 29  1  0
 10 30  1  0
 10 31  1  0
 14 32  1  0
 15 33  1  0
 20 34  1  0
 21 35  1  0
 21 36  1  0
 22 37  1  0
 22 38  1  0
 23 39  1  0
 24 40  1  0
 24 41  1  0
 25 42  1  0
 25 43  1  0
M  ISO  8  26   8  27   8  28  14  29   9  32  14  33  14  34   5  35  13
M  ISO  8  36  13  37  13  38  13  39  13  40  13  41  13  42  13  43  13
M  END
>  <minimizedAffinity>  (1) 
-5.86859989

>  <minimizedRMSD>  (1) 
1.92210639

$$$$
