
     RDKit          3D

 34 36  0  0  0  0  0  0  0  0999 V2000
   35.9460   30.1320   39.8760 N   0  0  0  0  0  0  0  0  0  0  0  0
   34.9830   29.2130   39.6270 C   0  0  0  0  0  0  0  0  0  0  0  0
   34.9780   28.9330   38.3090 N   0  0  0  0  0  0  0  0  0  0  0  0
   35.9250   29.6570   37.6920 C   0  0  0  0  0  0  0  0  0  0  0  0
   36.3690   29.7830   36.3780 C   0  0  0  0  0  0  0  0  0  0  0  0
   35.7830   29.0770   35.5240 O   0  0  0  0  0  0  0  0  0  0  0  0
   37.3910   30.6420   36.0960 N   0  0  0  0  0  0  0  0  0  0  0  0
   37.9520   31.3520   37.0790 C   0  0  0  0  0  0  0  0  0  0  0  0
   39.0200   32.2480   36.7630 N   0  0  0  0  0  0  0  0  0  0  0  0
   37.5330   31.2410   38.3570 N   0  0  0  0  0  0  0  0  0  0  0  0
   36.5300   30.4090   38.6890 C   0  0  0  0  0  0  0  0  0  0  0  0
   36.2530   30.6810   41.1930 C   0  0  0  0  0  0  0  0  0  0  0  0
   37.3350   29.9120   41.7830 C   0  0  0  0  0  0  0  0  0  0  0  0
   38.6310   30.4200   42.0120 C   0  0  0  0  0  0  0  0  0  0  0  0
   39.5960   29.6070   42.5810 C   0  0  0  0  0  0  0  0  0  0  0  0
   39.2370   28.3050   42.9060 N   0  0  0  0  0  0  0  0  0  0  0  0
   37.9900   27.8630   42.6700 C   0  0  0  0  0  0  0  0  0  0  0  0
   37.0420   28.6220   42.1240 N   0  0  0  0  0  0  0  0  0  0  0  0
   37.7420   26.5410   43.0360 O   0  0  0  0  0  0  0  0  0  0  0  0
   37.1560   25.5860   42.2060 C   0  0  0  0  0  0  0  0  0  0  0  0
   37.9030   24.2760   42.1850 C   0  0  0  0  0  0  0  0  0  0  0  0
   34.3140   28.7678   40.3782 H   0  0  0  0  0  0  0  0  0  0  0  0
   37.7290   30.7428   35.1283 H   0  0  0  0  0  0  0  0  0  0  0  0
   39.4641   32.8032   37.5083 H   0  0  0  0  0  0  0  0  0  0  0  0
   39.3455   32.3385   35.7900 H   0  0  0  0  0  0  0  0  0  0  0  0
   36.5596   31.7326   41.0923 H   0  0  0  0  0  0  0  0  0  0  0  0
   35.3626   30.6257   41.8365 H   0  0  0  0  0  0  0  0  0  0  0  0
   38.8736   31.4577   41.7396 H   0  0  0  0  0  0  0  0  0  0  0  0
   40.6136   29.9796   42.7696 H   0  0  0  0  0  0  0  0  0  0  0  0
   36.1312   25.3981   42.5589 H   0  0  0  0  0  0  0  0  0  0  0  0
   37.1742   25.9883   41.1824 H   0  0  0  0  0  0  0  0  0  0  0  0
   38.0918   23.9450   43.2169 H   0  0  0  0  0  0  0  0  0  0  0  0
   37.3008   23.5189   41.6614 H   0  0  0  0  0  0  0  0  0  0  0  0
   38.8612   24.4087   41.6614 H   0  0  0  0  0  0  0  0  0  0  0  0
  1 12  1  0
  2  1  1  0
  3  2  2  0
  4  3  1  0
  4 11  2  0
  5  4  1  0
  6  5  2  0
  7  5  1  0
  7  8  1  0
  8 10  2  0
  9  8  1  0
 10 11  1  0
 11  1  1  0
 12 13  1  0
 13 14  2  0
 13 18  1  0
 14 15  1  0
 15 16  2  0
 17 16  1  0
 17 19  1  0
 18 17  2  0
 20 19  1  0
 21 20  1  0
  2 22  1  0
  7 23  1  0
  9 24  1  0
  9 25  1  0
 12 26  1  0
 12 27  1  0
 14 28  1  0
 15 29  1  0
 20 30  1  0
 20 31  1  0
 21 32  1  0
 21 33  1  0
 21 34  1  0
M  ISO  8  22  14  23   9  26   8  27   8  28  14  29  14  30   8  31   8
M  ISO  3  32   8  33   8  34   8
M  END
>  <minimizedAffinity>  (1) 
-5.41940212

>  <minimizedRMSD>  (1) 
1.10545874

$$$$
