
     RDKit          3D

 34 37  0  0  0  0  0  0  0  0999 V2000
   37.8020   30.0470   39.1360 C   0  0  0  0  0  0  0  0  0  0  0  0
   37.3380   29.0970   38.2260 C   0  0  0  0  0  0  0  0  0  0  0  0
   36.9930   29.4230   36.9440 C   0  0  0  0  0  0  0  0  0  0  0  0
   37.1170   30.7410   36.5680 C   0  0  0  0  0  0  0  0  0  0  0  0
   37.5740   31.7120   37.4420 C   0  0  0  0  0  0  0  0  0  0  0  0
   37.9150   31.3520   38.7300 C   0  0  0  0  0  0  0  0  0  0  0  0
   38.3820   32.4640   39.5490 C   0  0  0  0  0  0  0  0  0  0  0  0
   37.8020   33.1640   40.6020 C   0  0  0  0  0  0  0  0  0  0  0  0
   38.6430   34.1200   41.0470 N   0  0  0  0  0  0  0  0  0  0  0  0
   39.7770   34.0570   40.2940 C   0  0  0  0  0  0  0  0  0  0  0  0
   40.9530   34.7900   40.3100 C   0  0  0  0  0  0  0  0  0  0  0  0
   42.0120   34.5800   39.4560 C   0  0  0  0  0  0  0  0  0  0  0  0
   41.8310   33.5590   38.5440 C   0  0  0  0  0  0  0  0  0  0  0  0
   40.6940   32.8160   38.4930 C   0  0  0  0  0  0  0  0  0  0  0  0
   39.6430   33.0320   39.3490 C   0  0  0  0  0  0  0  0  0  0  0  0
   37.7010   29.3300   42.7410 C   0  0  0  0  0  0  0  0  0  0  0  0
   39.0360   29.0260   42.9920 C   0  0  0  0  0  0  0  0  0  0  0  0
   39.9610   29.0660   41.9370 C   0  0  0  0  0  0  0  0  0  0  0  0
   39.4910   29.4050   40.7100 N   0  0  0  0  0  0  0  0  0  0  0  0
   38.1720   29.6980   40.5010 C   0  0  0  0  0  0  0  0  0  0  0  0
   37.3060   29.6570   41.5070 N   0  0  0  0  0  0  0  0  0  0  0  0
   37.2466   28.0501   38.5510 H   0  0  0  0  0  0  0  0  0  0  0  0
   36.6299   28.6604   36.2394 H   0  0  0  0  0  0  0  0  0  0  0  0
   36.8449   31.0314   35.5425 H   0  0  0  0  0  0  0  0  0  0  0  0
   37.6643   32.7581   37.1140 H   0  0  0  0  0  0  0  0  0  0  0  0
   36.8010   32.9662   41.0128 H   0  0  0  0  0  0  0  0  0  0  0  0
   38.4609   34.7790   41.8173 H   0  0  0  0  0  0  0  0  0  0  0  0
   41.0465   35.5937   41.0552 H   0  0  0  0  0  0  0  0  0  0  0  0
   42.9329   35.1802   39.4970 H   0  0  0  0  0  0  0  0  0  0  0  0
   42.6388   33.3383   37.8307 H   0  0  0  0  0  0  0  0  0  0  0  0
   40.6136   32.0163   37.7420 H   0  0  0  0  0  0  0  0  0  0  0  0
   36.9687   29.3010   43.5613 H   0  0  0  0  0  0  0  0  0  0  0  0
   39.3629   28.7570   44.0073 H   0  0  0  0  0  0  0  0  0  0  0  0
   41.0237   28.8321   42.0983 H   0  0  0  0  0  0  0  0  0  0  0  0
  1 20  1  0
  2  1  2  0
  3  2  1  0
  4  3  2  0
  4  5  1  0
  5  6  2  0
  6  1  1  0
  6  7  1  0
  7  8  2  0
  8  9  1  0
 10 11  2  0
 10  9  1  0
 12 11  1  0
 13 12  2  0
 14 13  1  0
 14 15  2  0
 15  7  1  0
 15 10  1  0
 16 17  2  0
 18 17  1  0
 19 18  2  0
 20 19  1  0
 20 21  2  0
 21 16  1  0
  2 22  1  0
  3 23  1  0
  4 24  1  0
  5 25  1  0
  8 26  1  0
  9 27  1  0
 11 28  1  0
 12 29  1  0
 13 30  1  0
 14 31  1  0
 16 32  1  0
 17 33  1  0
 18 34  1  0
M  ISO  8  22  14  23  14  24  14  25  14  26  14  27   9  28  14  29  14
M  ISO  5  30  14  31  14  32  14  33  14  34  14
M  END
>  <minimizedAffinity>  (1) 
-5.33769751

>  <minimizedRMSD>  (1) 
4.16239262

$$$$
