
     RDKit          3D

 29 31  0  0  0  0  0  0  0  0999 V2000
   38.4060   31.1880   40.9820 C   0  0  0  0  0  0  0  0  0  0  0  0
   39.3000   32.1940   41.2710 C   0  0  0  0  0  0  0  0  0  0  0  0
   39.1500   33.4550   40.7490 C   0  0  0  0  0  0  0  0  0  0  0  0
   38.0800   33.6980   39.9230 C   0  0  0  0  0  0  0  0  0  0  0  0
   37.1700   32.7120   39.6150 C   0  0  0  0  0  0  0  0  0  0  0  0
   37.3390   31.4630   40.1470 C   0  0  0  0  0  0  0  0  0  0  0  0
   39.2130   27.6360   41.4270 C   0  0  0  0  0  0  0  0  0  0  0  0
   38.7170   27.3830   42.7030 C   0  0  0  0  0  0  0  0  0  0  0  0
   38.1200   28.4310   43.3780 C   0  0  0  0  0  0  0  0  0  0  0  0
   38.0470   29.6400   42.7720 N   0  0  0  0  0  0  0  0  0  0  0  0
   38.5430   29.8490   41.5220 C   0  0  0  0  0  0  0  0  0  0  0  0
   39.1170   28.8490   40.8670 N   0  0  0  0  0  0  0  0  0  0  0  0
   36.3080   30.5130   39.7360 C   0  0  0  0  0  0  0  0  0  0  0  0
   36.4310   30.2490   38.3720 C   0  0  0  0  0  0  0  0  0  0  0  0
   35.5730   29.3670   37.7160 C   0  0  0  0  0  0  0  0  0  0  0  0
   34.5760   28.7380   38.4310 C   0  0  0  0  0  0  0  0  0  0  0  0
   34.5120   29.0420   39.7590 C   0  0  0  0  0  0  0  0  0  0  0  0
   35.3260   29.8840   40.4020 N   0  0  0  0  0  0  0  0  0  0  0  0
   40.1522   31.9833   41.9338 H   0  0  0  0  0  0  0  0  0  0  0  0
   39.8699   34.2520   40.9868 H   0  0  0  0  0  0  0  0  0  0  0  0
   37.9471   34.7037   39.4977 H   0  0  0  0  0  0  0  0  0  0  0  0
   36.3194   32.9253   38.9509 H   0  0  0  0  0  0  0  0  0  0  0  0
   39.6946   26.8215   40.8661 H   0  0  0  0  0  0  0  0  0  0  0  0
   38.7974   26.3846   43.1578 H   0  0  0  0  0  0  0  0  0  0  0  0
   37.7116   28.2858   44.3890 H   0  0  0  0  0  0  0  0  0  0  0  0
   37.2254   30.7495   37.7989 H   0  0  0  0  0  0  0  0  0  0  0  0
   35.6904   29.1751   36.6393 H   0  0  0  0  0  0  0  0  0  0  0  0
   33.8749   28.0339   37.9591 H   0  0  0  0  0  0  0  0  0  0  0  0
   33.7240   28.5528   40.3504 H   0  0  0  0  0  0  0  0  0  0  0  0
  1  2  2  0
  1 11  1  0
  3  2  1  0
  4  3  2  0
  5  4  1  0
  5  6  2  0
  6  1  1  0
  7  8  2  0
  8  9  1  0
 10  9  2  0
 11 10  1  0
 12  7  1  0
 12 11  2  0
 13  6  1  0
 13 18  1  0
 14 13  2  0
 15 14  1  0
 15 16  2  0
 16 17  1  0
 17 18  2  0
  2 19  1  0
  3 20  1  0
  4 21  1  0
  5 22  1  0
  7 23  1  0
  8 24  1  0
  9 25  1  0
 14 26  1  0
 15 27  1  0
 16 28  1  0
 17 29  1  0
M  ISO  8  19  14  20  14  21  14  22  14  23  14  24  14  25  14  26  14
M  ISO  3  27  14  28  14  29  14
M  END
>  <minimizedAffinity>  (1) 
-5.23829603

>  <minimizedRMSD>  (1) 
4.66286325

$$$$
