
     RDKit          3D

 35 37  0  0  0  0  0  0  0  0999 V2000
   39.3310   34.0420   39.8560 C   0  0  0  0  0  0  0  0  0  0  0  0
   38.7950   35.2700   40.2520 C   0  0  0  0  0  0  0  0  0  0  0  0
   39.5600   36.4200   40.1740 C   0  0  0  0  0  0  0  0  0  0  0  0
   40.8580   36.3120   39.6970 C   0  0  0  0  0  0  0  0  0  0  0  0
   41.3860   35.0830   39.3050 C   0  0  0  0  0  0  0  0  0  0  0  0
   40.6160   33.9570   39.3890 C   0  0  0  0  0  0  0  0  0  0  0  0
   37.7890   30.9320   41.0780 C   0  0  0  0  0  0  0  0  0  0  0  0
   36.9700   30.5780   39.9790 C   0  0  0  0  0  0  0  0  0  0  0  0
   36.9700   31.4110   38.8480 C   0  0  0  0  0  0  0  0  0  0  0  0
   37.7550   32.5050   38.8770 N   0  0  0  0  0  0  0  0  0  0  0  0
   38.5360   32.8270   39.9500 C   0  0  0  0  0  0  0  0  0  0  0  0
   38.5400   32.0420   41.0220 N   0  0  0  0  0  0  0  0  0  0  0  0
   41.3110   32.8070   38.9250 N   0  0  0  0  0  0  0  0  0  0  0  0
   41.9370   31.6830   39.5890 C   0  0  0  0  0  0  0  0  0  0  0  0
   41.2820   30.3750   39.1740 C   0  0  0  0  0  0  0  0  0  0  0  0
   40.8740   30.4200   37.7170 C   0  0  0  0  0  0  0  0  0  0  0  0
   41.8340   31.4160   37.0470 C   0  0  0  0  0  0  0  0  0  0  0  0
   41.3880   32.7670   37.4880 C   0  0  0  0  0  0  0  0  0  0  0  0
   37.7621   35.3225   40.6267 H   0  0  0  0  0  0  0  0  0  0  0  0
   39.1502   37.3933   40.4818 H   0  0  0  0  0  0  0  0  0  0  0  0
   41.4832   37.2143   39.6267 H   0  0  0  0  0  0  0  0  0  0  0  0
   42.4180   35.0197   38.9296 H   0  0  0  0  0  0  0  0  0  0  0  0
   37.8095   30.2978   41.9765 H   0  0  0  0  0  0  0  0  0  0  0  0
   36.3478   29.6714   40.0100 H   0  0  0  0  0  0  0  0  0  0  0  0
   36.3505   31.1780   37.9694 H   0  0  0  0  0  0  0  0  0  0  0  0
   43.0031   31.6535   39.3195 H   0  0  0  0  0  0  0  0  0  0  0  0
   41.8190   31.8062   40.6757 H   0  0  0  0  0  0  0  0  0  0  0  0
   41.9946   29.5506   39.3242 H   0  0  0  0  0  0  0  0  0  0  0  0
   40.3831   30.2189   39.7885 H   0  0  0  0  0  0  0  0  0  0  0  0
   40.9737   29.4245   37.2598 H   0  0  0  0  0  0  0  0  0  0  0  0
   39.8240   30.7258   37.5986 H   0  0  0  0  0  0  0  0  0  0  0  0
   41.7722   31.3305   35.9521 H   0  0  0  0  0  0  0  0  0  0  0  0
   42.8798   31.2226   37.3280 H   0  0  0  0  0  0  0  0  0  0  0  0
   42.1081   33.5218   37.1392 H   0  0  0  0  0  0  0  0  0  0  0  0
   40.3956   32.9797   37.0638 H   0  0  0  0  0  0  0  0  0  0  0  0
  1 11  1  0
  1  2  2  0
  3  2  1  0
  4  3  2  0
  5  6  2  0
  5  4  1  0
  6  1  1  0
  8  7  2  0
  9 10  2  0
  9  8  1  0
 10 11  1  0
 11 12  2  0
 12  7  1  0
 13  6  1  0
 13 14  1  0
 15 14  1  0
 16 15  1  0
 17 18  1  0
 17 16  1  0
 18 13  1  0
  2 19  1  0
  3 20  1  0
  4 21  1  0
  5 22  1  0
  7 23  1  0
  8 24  1  0
  9 25  1  0
 14 26  1  0
 14 27  1  0
 15 28  1  0
 15 29  1  0
 16 30  1  0
 16 31  1  0
 17 32  1  0
 17 33  1  0
 18 34  1  0
 18 35  1  0
M  ISO  8  19  14  20  14  21  14  22  14  23  14  24  14  25  14  26  13
M  ISO  8  27  13  28  13  29  13  30  13  31  13  32  13  33  13  34  13
M  ISO  1  35  13
M  END
>  <minimizedAffinity>  (1) 
-4.92701244

>  <minimizedRMSD>  (1) 
4.27645063

$$$$
