
     RDKit          3D

 33 35  0  0  0  0  0  0  0  0999 V2000
   37.9940   30.7770   41.1510 C   0  0  0  0  0  0  0  0  0  0  0  0
   37.0240   31.5920   40.6060 C   0  0  0  0  0  0  0  0  0  0  0  0
   37.3330   32.7650   39.9610 C   0  0  0  0  0  0  0  0  0  0  0  0
   38.6650   33.1120   39.8740 C   0  0  0  0  0  0  0  0  0  0  0  0
   39.6520   32.3090   40.4140 C   0  0  0  0  0  0  0  0  0  0  0  0
   39.3040   31.1460   41.0490 C   0  0  0  0  0  0  0  0  0  0  0  0
   37.4050   28.2180   43.7220 C   0  0  0  0  0  0  0  0  0  0  0  0
   36.9700   27.1300   42.9670 C   0  0  0  0  0  0  0  0  0  0  0  0
   36.8930   27.3020   41.5990 C   0  0  0  0  0  0  0  0  0  0  0  0
   37.2380   28.5010   41.0860 N   0  0  0  0  0  0  0  0  0  0  0  0
   37.6550   29.5410   41.8330 C   0  0  0  0  0  0  0  0  0  0  0  0
   37.7390   29.3970   43.1640 N   0  0  0  0  0  0  0  0  0  0  0  0
   42.5720   29.1840   42.7630 C   0  0  0  0  0  0  0  0  0  0  0  0
   41.9550   28.5210   41.6960 C   0  0  0  0  0  0  0  0  0  0  0  0
   40.8750   29.1580   41.1200 C   0  0  0  0  0  0  0  0  0  0  0  0
   40.4300   30.3810   41.5740 C   0  0  0  0  0  0  0  0  0  0  0  0
   41.0630   31.0250   42.6420 C   0  0  0  0  0  0  0  0  0  0  0  0
   42.1460   30.4110   43.2380 C   0  0  0  0  0  0  0  0  0  0  0  0
   43.9430   28.4290   43.5340 S   0  0  0  0  0  0  0  0  0  0  0  0
   45.2040   29.2110   43.3360 O   0  0  0  0  0  0  0  0  0  0  0  0
   43.6990   28.3420   45.0220 O   0  0  0  0  0  0  0  0  0  0  0  0
   35.9688   31.2931   40.6905 H   0  0  0  0  0  0  0  0  0  0  0  0
   36.5476   33.4034   39.5302 H   0  0  0  0  0  0  0  0  0  0  0  0
   38.9472   34.0455   39.3652 H   0  0  0  0  0  0  0  0  0  0  0  0
   40.7094   32.6017   40.3344 H   0  0  0  0  0  0  0  0  0  0  0  0
   37.4781   28.1094   44.8142 H   0  0  0  0  0  0  0  0  0  0  0  0
   36.6995   26.1748   43.4408 H   0  0  0  0  0  0  0  0  0  0  0  0
   36.5592   26.4830   40.9449 H   0  0  0  0  0  0  0  0  0  0  0  0
   42.3118   27.5447   41.3360 H   0  0  0  0  0  0  0  0  0  0  0  0
   40.3561   28.6777   40.2773 H   0  0  0  0  0  0  0  0  0  0  0  0
   40.7048   32.0015   42.9999 H   0  0  0  0  0  0  0  0  0  0  0  0
   42.6641   30.8919   44.0808 H   0  0  0  0  0  0  0  0  0  0  0  0
   44.0878   27.1904   42.9668 H   0  0  0  0  0  0  0  0  0  0  0  0
  1 11  1  0
  2  1  2  0
  3  2  1  0
  4  3  2  0
  4  5  1  0
  5  6  2  0
  6  1  1  0
  6 16  1  0
  8  7  2  0
  9  8  1  0
 10  9  2  0
 10 11  1  0
 11 12  2  0
 12  7  1  0
 13 18  2  0
 13 19  1  0
 14 13  1  0
 15 16  1  0
 15 14  2  0
 16 17  2  0
 17 18  1  0
 19 21  2  0
 20 19  2  0
  2 22  1  0
  3 23  1  0
  4 24  1  0
  5 25  1  0
  7 26  1  0
  8 27  1  0
  9 28  1  0
 14 29  1  0
 15 30  1  0
 17 31  1  0
 18 32  1  0
 19 33  1  0
M  ISO  8  22  14  23  14  24  14  25  14  26  14  27  14  28  14  29  14
M  ISO  4  30  14  31  14  32  14  33  11
M  END
>  <minimizedAffinity>  (1) 
-4.64061213

>  <minimizedRMSD>  (1) 
1.62023389

$$$$
