
     RDKit          3D

 26 28  0  0  0  0  0  0  0  0999 V2000
   38.2910   31.1840   40.9440 C   0  0  0  0  0  0  0  0  0  0  0  0
   39.1960   32.1940   41.2700 C   0  0  0  0  0  0  0  0  0  0  0  0
   39.0740   33.4580   40.7440 C   0  0  0  0  0  0  0  0  0  0  0  0
   38.0190   33.6970   39.8770 C   0  0  0  0  0  0  0  0  0  0  0  0
   37.1250   32.7100   39.5500 C   0  0  0  0  0  0  0  0  0  0  0  0
   37.2500   31.4510   40.0770 C   0  0  0  0  0  0  0  0  0  0  0  0
   39.1440   27.6450   41.3960 C   0  0  0  0  0  0  0  0  0  0  0  0
   38.6450   27.4000   42.6960 C   0  0  0  0  0  0  0  0  0  0  0  0
   38.0370   28.4380   43.3770 C   0  0  0  0  0  0  0  0  0  0  0  0
   37.9590   29.6300   42.7470 N   0  0  0  0  0  0  0  0  0  0  0  0
   38.4380   29.8470   41.5130 C   0  0  0  0  0  0  0  0  0  0  0  0
   39.0330   28.8630   40.8260 N   0  0  0  0  0  0  0  0  0  0  0  0
   36.2890   30.4700   39.6990 N   0  0  0  0  0  0  0  0  0  0  0  0
   35.3200   29.7510   40.2950 C   0  0  0  0  0  0  0  0  0  0  0  0
   34.7240   28.9600   39.3970 N   0  0  0  0  0  0  0  0  0  0  0  0
   35.3160   29.1760   38.2250 C   0  0  0  0  0  0  0  0  0  0  0  0
   36.2590   30.0890   38.4150 N   0  0  0  0  0  0  0  0  0  0  0  0
   40.0231   31.9748   41.9612 H   0  0  0  0  0  0  0  0  0  0  0  0
   39.7892   34.2529   41.0022 H   0  0  0  0  0  0  0  0  0  0  0  0
   37.8964   34.6999   39.4420 H   0  0  0  0  0  0  0  0  0  0  0  0
   36.2992   32.9309   38.8577 H   0  0  0  0  0  0  0  0  0  0  0  0
   39.6305   26.8297   40.8404 H   0  0  0  0  0  0  0  0  0  0  0  0
   38.7386   26.4050   43.1555 H   0  0  0  0  0  0  0  0  0  0  0  0
   37.6332   28.2988   44.3907 H   0  0  0  0  0  0  0  0  0  0  0  0
   35.0575   29.8059   41.3618 H   0  0  0  0  0  0  0  0  0  0  0  0
   35.0682   28.6862   37.2717 H   0  0  0  0  0  0  0  0  0  0  0  0
  1  2  2  0
  1 11  1  0
  3  2  1  0
  4  3  2  0
  5  4  1  0
  5  6  2  0
  6  1  1  0
  7  8  2  0
  8  9  1  0
 10  9  2  0
 11 10  1  0
 12  7  1  0
 12 11  2  0
 13  6  1  0
 13 14  1  0
 15 14  2  0
 16 17  2  0
 16 15  1  0
 17 13  1  0
  2 18  1  0
  3 19  1  0
  4 20  1  0
  5 21  1  0
  7 22  1  0
  8 23  1  0
  9 24  1  0
 14 25  1  0
 16 26  1  0
M  ISO  8  18  14  19  14  20  14  21  14  22  14  23  14  24  14  25  14
M  ISO  1  26  14
M  END
>  <minimizedAffinity>  (1) 
-4.59728765

>  <minimizedRMSD>  (1) 
4.12774611

$$$$
