
     RDKit          3D

 33 35  0  0  0  0  0  0  0  0999 V2000
   37.9980   30.5640   41.3940 C   0  0  0  0  0  0  0  0  0  0  0  0
   37.0480   31.3370   40.7070 C   0  0  0  0  0  0  0  0  0  0  0  0
   37.3590   32.5630   40.1960 C   0  0  0  0  0  0  0  0  0  0  0  0
   38.6390   32.9930   40.3900 C   0  0  0  0  0  0  0  0  0  0  0  0
   39.5670   32.2410   41.0610 C   0  0  0  0  0  0  0  0  0  0  0  0
   39.3000   31.0030   41.5900 C   0  0  0  0  0  0  0  0  0  0  0  0
   37.0440   27.8010   43.6410 C   0  0  0  0  0  0  0  0  0  0  0  0
   36.9660   26.7310   42.7500 C   0  0  0  0  0  0  0  0  0  0  0  0
   37.2390   26.9670   41.3930 C   0  0  0  0  0  0  0  0  0  0  0  0
   37.5650   28.2260   41.0090 N   0  0  0  0  0  0  0  0  0  0  0  0
   37.6250   29.2370   41.9280 C   0  0  0  0  0  0  0  0  0  0  0  0
   37.3710   29.0250   43.2070 N   0  0  0  0  0  0  0  0  0  0  0  0
   40.3290   30.2690   42.2930 C   0  0  0  0  0  0  0  0  0  0  0  0
   41.1840   29.4010   41.4020 C   0  0  0  0  0  0  0  0  0  0  0  0
   42.5750   29.3960   42.0020 C   0  0  0  0  0  0  0  0  0  0  0  0
   42.4630   30.2600   43.2330 C   0  0  0  0  0  0  0  0  0  0  0  0
   41.4300   31.2680   42.7300 C   0  0  0  0  0  0  0  0  0  0  0  0
   36.0286   30.9445   40.5778 H   0  0  0  0  0  0  0  0  0  0  0  0
   36.6181   33.1716   39.6569 H   0  0  0  0  0  0  0  0  0  0  0  0
   38.9357   33.9757   39.9947 H   0  0  0  0  0  0  0  0  0  0  0  0
   40.5803   32.6514   41.1823 H   0  0  0  0  0  0  0  0  0  0  0  0
   36.8353   27.6383   44.7087 H   0  0  0  0  0  0  0  0  0  0  0  0
   36.6966   25.7244   43.1025 H   0  0  0  0  0  0  0  0  0  0  0  0
   37.1896   26.1496   40.6585 H   0  0  0  0  0  0  0  0  0  0  0  0
   39.7800   29.7087   43.0642 H   0  0  0  0  0  0  0  0  0  0  0  0
   41.2122   29.8155   40.3835 H   0  0  0  0  0  0  0  0  0  0  0  0
   40.7780   28.3807   41.3370 H   0  0  0  0  0  0  0  0  0  0  0  0
   42.8776   28.3734   42.2718 H   0  0  0  0  0  0  0  0  0  0  0  0
   43.3335   29.7697   41.2984 H   0  0  0  0  0  0  0  0  0  0  0  0
   42.0964   29.6935   44.1017 H   0  0  0  0  0  0  0  0  0  0  0  0
   43.4081   30.6931   43.5925 H   0  0  0  0  0  0  0  0  0  0  0  0
   41.8084   31.8632   41.8859 H   0  0  0  0  0  0  0  0  0  0  0  0
   41.1189   32.0353   43.4542 H   0  0  0  0  0  0  0  0  0  0  0  0
  1  6  1  0
  1 11  1  0
  2  1  2  0
  3  4  2  0
  3  2  1  0
  4  5  1  0
  5  6  2  0
  6 13  1  0
  8  7  2  0
  9  8  1  0
 10  9  2  0
 10 11  1  0
 11 12  2  0
 12  7  1  0
 13 17  1  0
 14 15  1  0
 14 13  1  0
 15 16  1  0
 17 16  1  0
  2 18  1  0
  3 19  1  0
  4 20  1  0
  5 21  1  0
  7 22  1  0
  8 23  1  0
  9 24  1  0
 13 25  1  0
 14 26  1  0
 14 27  1  0
 15 28  1  0
 15 29  1  0
 16 30  1  0
 16 31  1  0
 17 32  1  0
 17 33  1  0
M  ISO  8  18  14  19  14  20  14  21  14  22  14  23  14  24  14  25  13
M  ISO  8  26  13  27  13  28  13  29  13  30  13  31  13  32  13  33  13
M  END
>  <minimizedAffinity>  (1) 
-4.56203794

>  <minimizedRMSD>  (1) 
1.11140549

$$$$
