
     RDKit          3D

 32 33  0  0  0  0  0  0  0  0999 V2000
   38.0360   29.9760   40.0110 C   0  0  0  0  0  0  0  0  0  0  0  0
   39.0610   30.8990   39.7790 C   0  0  0  0  0  0  0  0  0  0  0  0
   39.0000   31.7370   38.6850 C   0  0  0  0  0  0  0  0  0  0  0  0
   37.9160   31.6240   37.8600 C   0  0  0  0  0  0  0  0  0  0  0  0
   36.9170   30.7200   38.0920 C   0  0  0  0  0  0  0  0  0  0  0  0
   36.9450   29.8750   39.1630 C   0  0  0  0  0  0  0  0  0  0  0  0
   38.7410   27.1650   42.2490 C   0  0  0  0  0  0  0  0  0  0  0  0
   38.1860   27.5780   43.4560 C   0  0  0  0  0  0  0  0  0  0  0  0
   37.5780   28.8170   43.4820 C   0  0  0  0  0  0  0  0  0  0  0  0
   37.5640   29.5340   42.3410 N   0  0  0  0  0  0  0  0  0  0  0  0
   38.1010   29.1300   41.1790 C   0  0  0  0  0  0  0  0  0  0  0  0
   38.6560   27.9720   41.1990 N   0  0  0  0  0  0  0  0  0  0  0  0
   35.8190   28.9270   39.1730 C   0  0  0  0  0  0  0  0  0  0  0  0
   34.8460   29.1020   38.0210 C   0  0  0  0  0  0  0  0  0  0  0  0
   34.9710   29.1010   40.4240 C   0  0  0  0  0  0  0  0  0  0  0  0
   36.2730   27.4780   39.2760 C   0  0  0  0  0  0  0  0  0  0  0  0
   39.9158   30.9566   40.4690 H   0  0  0  0  0  0  0  0  0  0  0  0
   39.7952   32.4699   38.4837 H   0  0  0  0  0  0  0  0  0  0  0  0
   37.8452   32.2816   36.9811 H   0  0  0  0  0  0  0  0  0  0  0  0
   36.0667   30.6725   37.3957 H   0  0  0  0  0  0  0  0  0  0  0  0
   39.2406   26.1885   42.1666 H   0  0  0  0  0  0  0  0  0  0  0  0
   38.2299   26.9430   44.3532 H   0  0  0  0  0  0  0  0  0  0  0  0
   37.1202   29.2061   44.4034 H   0  0  0  0  0  0  0  0  0  0  0  0
   33.8364   29.2836   38.4181 H   0  0  0  0  0  0  0  0  0  0  0  0
   35.1573   29.9586   37.4050 H   0  0  0  0  0  0  0  0  0  0  0  0
   34.8393   28.1907   37.4050 H   0  0  0  0  0  0  0  0  0  0  0  0
   35.6020   28.9715   41.3156 H   0  0  0  0  0  0  0  0  0  0  0  0
   34.5294   30.1085   40.4305 H   0  0  0  0  0  0  0  0  0  0  0  0
   34.1684   28.3488   40.4305 H   0  0  0  0  0  0  0  0  0  0  0  0
   36.3614   27.1959   40.3355 H   0  0  0  0  0  0  0  0  0  0  0  0
   35.5358   26.8269   38.7835 H   0  0  0  0  0  0  0  0  0  0  0  0
   37.2499   27.3640   38.7835 H   0  0  0  0  0  0  0  0  0  0  0  0
  1 11  1  0
  2  1  2  0
  3  2  1  0
  4  5  1  0
  4  3  2  0
  5  6  2  0
  6 13  1  0
  6  1  1  0
  7  8  2  0
  8  9  1  0
 10  9  2  0
 11 12  2  0
 11 10  1  0
 12  7  1  0
 13 16  1  0
 13 15  1  0
 14 13  1  0
  2 17  1  0
  3 18  1  0
  4 19  1  0
  5 20  1  0
  7 21  1  0
  8 22  1  0
  9 23  1  0
 14 24  1  0
 14 25  1  0
 14 26  1  0
 15 27  1  0
 15 28  1  0
 15 29  1  0
 16 30  1  0
 16 31  1  0
 16 32  1  0
M  ISO  8  17  14  18  14  19  14  20  14  21  14  22  14  23  14  24   8
M  ISO  8  25   8  26   8  27   8  28   8  29   8  30   8  31   8  32   8
M  END
>  <minimizedAffinity>  (1) 
-4.49238586

>  <minimizedRMSD>  (1) 
4.07453966

$$$$
