
     RDKit          3D

 23 24  0  0  0  0  0  0  0  0999 V2000
   37.7700   31.0020   41.0060 C   0  0  0  0  0  0  0  0  0  0  0  0
   36.8040   31.5370   40.1750 C   0  0  0  0  0  0  0  0  0  0  0  0
   37.0260   32.7550   39.5750 C   0  0  0  0  0  0  0  0  0  0  0  0
   38.1810   33.4450   39.7820 C   0  0  0  0  0  0  0  0  0  0  0  0
   39.1490   32.9340   40.6000 C   0  0  0  0  0  0  0  0  0  0  0  0
   38.9110   31.7210   41.1880 C   0  0  0  0  0  0  0  0  0  0  0  0
   37.7360   28.3370   43.5220 C   0  0  0  0  0  0  0  0  0  0  0  0
   37.2130   27.2590   42.7850 C   0  0  0  0  0  0  0  0  0  0  0  0
   36.8890   27.4780   41.4440 C   0  0  0  0  0  0  0  0  0  0  0  0
   37.0920   28.7110   40.9170 N   0  0  0  0  0  0  0  0  0  0  0  0
   37.6050   29.7280   41.6800 C   0  0  0  0  0  0  0  0  0  0  0  0
   37.9170   29.5310   42.9550 N   0  0  0  0  0  0  0  0  0  0  0  0
   40.0490   31.3340   41.9970 C   0  0  0  0  0  0  0  0  0  0  0  0
   41.0770   30.6930   41.6820 O   0  0  0  0  0  0  0  0  0  0  0  0
   40.6930   31.3240   43.2040 O   0  0  0  0  0  0  0  0  0  0  0  0
   35.8650   30.9932   39.9947 H   0  0  0  0  0  0  0  0  0  0  0  0
   36.2551   33.1796   38.9151 H   0  0  0  0  0  0  0  0  0  0  0  0
   38.3355   34.4164   39.2895 H   0  0  0  0  0  0  0  0  0  0  0  0
   40.0875   33.4788   40.7798 H   0  0  0  0  0  0  0  0  0  0  0  0
   37.9993   28.1935   44.5803 H   0  0  0  0  0  0  0  0  0  0  0  0
   37.0637   26.2736   43.2505 H   0  0  0  0  0  0  0  0  0  0  0  0
   36.4770   26.6658   40.8271 H   0  0  0  0  0  0  0  0  0  0  0  0
   41.5713   30.8759   43.2927 H   0  0  0  0  0  0  0  0  0  0  0  0
  1  6  1  0
  1 11  1  0
  2  1  2  0
  3  4  2  0
  3  2  1  0
  4  5  1  0
  5  6  2  0
  6 13  1  0
  8  7  2  0
  9  8  1  0
 10  9  2  0
 10 11  1  0
 11 12  2  0
 12  7  1  0
 13 15  1  0
 14 13  2  0
  2 16  1  0
  3 17  1  0
  4 18  1  0
  5 19  1  0
  7 20  1  0
  8 21  1  0
  9 22  1  0
 15 23  1  0
M  ISO  8  16  14  17  14  18  14  19  14  20  14  21  14  22  14  23   3
M  END
>  <minimizedAffinity>  (1) 
-4.44665289

>  <minimizedRMSD>  (1) 
0.441324234

$$$$
