
     RDKit          3D

 29 30  0  0  0  0  0  0  0  0999 V2000
   37.4470   31.7740   40.0020 C   0  0  0  0  0  0  0  0  0  0  0  0
   37.2080   33.1080   39.6480 C   0  0  0  0  0  0  0  0  0  0  0  0
   38.1000   34.0970   40.0090 C   0  0  0  0  0  0  0  0  0  0  0  0
   39.2230   33.7130   40.7270 C   0  0  0  0  0  0  0  0  0  0  0  0
   39.4530   32.4080   41.0710 C   0  0  0  0  0  0  0  0  0  0  0  0
   38.5740   31.4170   40.7180 C   0  0  0  0  0  0  0  0  0  0  0  0
   34.8300   29.2080   40.0720 C   0  0  0  0  0  0  0  0  0  0  0  0
   34.7670   28.8000   38.7430 C   0  0  0  0  0  0  0  0  0  0  0  0
   35.6230   29.4100   37.8480 C   0  0  0  0  0  0  0  0  0  0  0  0
   36.4660   30.3600   38.3070 N   0  0  0  0  0  0  0  0  0  0  0  0
   36.5010   30.7350   39.6190 C   0  0  0  0  0  0  0  0  0  0  0  0
   35.6790   30.1480   40.4730 N   0  0  0  0  0  0  0  0  0  0  0  0
   38.9790   30.0720   41.1770 C   0  0  0  0  0  0  0  0  0  0  0  0
   40.4510   29.7980   40.8420 C   0  0  0  0  0  0  0  0  0  0  0  0
   38.8710   29.9590   42.6980 C   0  0  0  0  0  0  0  0  0  0  0  0
   36.3036   33.3688   39.0787 H   0  0  0  0  0  0  0  0  0  0  0  0
   37.9272   35.1490   39.7379 H   0  0  0  0  0  0  0  0  0  0  0  0
   39.9509   34.4804   41.0292 H   0  0  0  0  0  0  0  0  0  0  0  0
   40.3583   32.1503   41.6402 H   0  0  0  0  0  0  0  0  0  0  0  0
   34.1602   28.7406   40.8088 H   0  0  0  0  0  0  0  0  0  0  0  0
   34.0618   28.0209   38.4179 H   0  0  0  0  0  0  0  0  0  0  0  0
   35.6185   29.1285   36.7846 H   0  0  0  0  0  0  0  0  0  0  0  0
   38.3119   29.3583   40.6715 H   0  0  0  0  0  0  0  0  0  0  0  0
   41.0254   29.6911   41.7740 H   0  0  0  0  0  0  0  0  0  0  0  0
   40.5271   28.8703   40.2559 H   0  0  0  0  0  0  0  0  0  0  0  0
   40.8558   30.6362   40.2559 H   0  0  0  0  0  0  0  0  0  0  0  0
   39.5579   30.6777   43.1688 H   0  0  0  0  0  0  0  0  0  0  0  0
   37.8394   30.1796   43.0097 H   0  0  0  0  0  0  0  0  0  0  0  0
   39.1380   28.9384   43.0097 H   0  0  0  0  0  0  0  0  0  0  0  0
  1  6  1  0
  2  1  2  0
  2  3  1  0
  3  4  2  0
  4  5  1  0
  6  5  2  0
  6 13  1  0
  7 12  2  0
  8  7  1  0
  9 10  1  0
  9  8  2  0
 10 11  2  0
 11  1  1  0
 11 12  1  0
 13 15  1  0
 14 13  1  0
  2 16  1  0
  3 17  1  0
  4 18  1  0
  5 19  1  0
  7 20  1  0
  8 21  1  0
  9 22  1  0
 13 23  1  0
 14 24  1  0
 14 25  1  0
 14 26  1  0
 15 27  1  0
 15 28  1  0
 15 29  1  0
M  ISO  8  16  14  17  14  18  14  19  14  20  14  21  14  22  14  23   8
M  ISO  6  24   8  25   8  26   8  27   8  28   8  29   8
M  END
>  <minimizedAffinity>  (1) 
-4.32073402

>  <minimizedRMSD>  (1) 
2.75063777

$$$$
