
     RDKit          3D

 22 23  0  0  0  0  0  0  0  0999 V2000
   37.8060   30.9930   41.0700 C   0  0  0  0  0  0  0  0  0  0  0  0
   36.9130   31.4820   40.1390 C   0  0  0  0  0  0  0  0  0  0  0  0
   37.1080   32.7260   39.5650 C   0  0  0  0  0  0  0  0  0  0  0  0
   38.1920   33.4770   39.9220 C   0  0  0  0  0  0  0  0  0  0  0  0
   39.0870   33.0020   40.8480 C   0  0  0  0  0  0  0  0  0  0  0  0
   38.8870   31.7680   41.4110 C   0  0  0  0  0  0  0  0  0  0  0  0
   37.6010   28.2620   43.5150 C   0  0  0  0  0  0  0  0  0  0  0  0
   37.2910   27.1700   42.6990 C   0  0  0  0  0  0  0  0  0  0  0  0
   37.1610   27.3970   41.3300 C   0  0  0  0  0  0  0  0  0  0  0  0
   37.3400   28.6570   40.8630 N   0  0  0  0  0  0  0  0  0  0  0  0
   37.6410   29.6930   41.6970 C   0  0  0  0  0  0  0  0  0  0  0  0
   37.7700   29.4960   43.0050 N   0  0  0  0  0  0  0  0  0  0  0  0
   39.8800   31.3790   42.3580 N   0  0  0  0  0  0  0  0  0  0  0  0
   36.0396   30.8786   39.8508 H   0  0  0  0  0  0  0  0  0  0  0  0
   36.3920   33.1092   38.8231 H   0  0  0  0  0  0  0  0  0  0  0  0
   38.3481   34.4657   39.4658 H   0  0  0  0  0  0  0  0  0  0  0  0
   39.9589   33.6074   41.1365 H   0  0  0  0  0  0  0  0  0  0  0  0
   37.7093   28.1091   44.5989 H   0  0  0  0  0  0  0  0  0  0  0  0
   37.1542   26.1645   43.1235 H   0  0  0  0  0  0  0  0  0  0  0  0
   36.9186   26.5722   40.6438 H   0  0  0  0  0  0  0  0  0  0  0  0
   40.6668   32.0098   42.5678 H   0  0  0  0  0  0  0  0  0  0  0  0
   39.8104   30.4673   42.8321 H   0  0  0  0  0  0  0  0  0  0  0  0
  1  6  1  0
  1 11  1  0
  2  1  2  0
  3  4  2  0
  3  2  1  0
  4  5  1  0
  5  6  2  0
  6 13  1  0
  8  7  2  0
  9  8  1  0
 10  9  2  0
 10 11  1  0
 11 12  2  0
 12  7  1  0
  2 14  1  0
  3 15  1  0
  4 16  1  0
  5 17  1  0
  7 18  1  0
  8 19  1  0
  9 20  1  0
 13 21  1  0
 13 22  1  0
M  ISO  7  14  14  15  14  16  14  17  14  18  14  19  14  20  14
M  END
>  <minimizedAffinity>  (1) 
-4.27242041

>  <minimizedRMSD>  (1) 
0.574710727

$$$$
