
     RDKit          3D

 26 27  0  0  0  0  0  0  0  0999 V2000
   37.9710   30.5480   41.4000 C   0  0  0  0  0  0  0  0  0  0  0  0
   37.0770   31.3140   40.6840 C   0  0  0  0  0  0  0  0  0  0  0  0
   37.3920   32.5490   40.1820 C   0  0  0  0  0  0  0  0  0  0  0  0
   38.6530   33.0230   40.4120 C   0  0  0  0  0  0  0  0  0  0  0  0
   39.5620   32.2820   41.1220 C   0  0  0  0  0  0  0  0  0  0  0  0
   39.2440   31.0360   41.6280 C   0  0  0  0  0  0  0  0  0  0  0  0
   37.0250   27.7930   43.6510 C   0  0  0  0  0  0  0  0  0  0  0  0
   36.9530   26.7220   42.7620 C   0  0  0  0  0  0  0  0  0  0  0  0
   37.2240   26.9540   41.4240 C   0  0  0  0  0  0  0  0  0  0  0  0
   37.5510   28.2190   41.0300 N   0  0  0  0  0  0  0  0  0  0  0  0
   37.6130   29.2400   41.9210 C   0  0  0  0  0  0  0  0  0  0  0  0
   37.3510   29.0060   43.2000 N   0  0  0  0  0  0  0  0  0  0  0  0
   40.2950   30.3030   42.3890 C   0  0  0  0  0  0  0  0  0  0  0  0
   41.4510   31.2240   42.7350 C   0  0  0  0  0  0  0  0  0  0  0  0
   36.0665   30.9165   40.5079 H   0  0  0  0  0  0  0  0  0  0  0  0
   36.6566   33.1379   39.6143 H   0  0  0  0  0  0  0  0  0  0  0  0
   38.9420   34.0105   40.0229 H   0  0  0  0  0  0  0  0  0  0  0  0
   40.5694   32.6893   41.2931 H   0  0  0  0  0  0  0  0  0  0  0  0
   36.8141   27.6392   44.7196 H   0  0  0  0  0  0  0  0  0  0  0  0
   36.6868   25.7149   43.1154 H   0  0  0  0  0  0  0  0  0  0  0  0
   37.1766   26.1340   40.6924 H   0  0  0  0  0  0  0  0  0  0  0  0
   39.8582   29.9079   43.3180 H   0  0  0  0  0  0  0  0  0  0  0  0
   40.6740   29.4808   41.7642 H   0  0  0  0  0  0  0  0  0  0  0  0
   41.5453   31.2992   43.8284 H   0  0  0  0  0  0  0  0  0  0  0  0
   42.3823   30.8177   42.3137 H   0  0  0  0  0  0  0  0  0  0  0  0
   41.2630   32.2226   42.3137 H   0  0  0  0  0  0  0  0  0  0  0  0
  1  6  1  0
  1 11  1  0
  2  1  2  0
  3  4  2  0
  3  2  1  0
  4  5  1  0
  5  6  2  0
  6 13  1  0
  8  7  2  0
  9  8  1  0
 10  9  2  0
 10 11  1  0
 11 12  2  0
 12  7  1  0
 13 14  1  0
  2 15  1  0
  3 16  1  0
  4 17  1  0
  5 18  1  0
  7 19  1  0
  8 20  1  0
  9 21  1  0
 13 22  1  0
 13 23  1  0
 14 24  1  0
 14 25  1  0
 14 26  1  0
M  ISO  8  15  14  16  14  17  14  18  14  19  14  20  14  21  14  22   8
M  ISO  4  23   8  24   8  25   8  26   8
M  END
>  <minimizedAffinity>  (1) 
-4.1923418

>  <minimizedRMSD>  (1) 
1.14173639

$$$$
