
     RDKit          3D

 23 24  0  0  0  0  0  0  0  0999 V2000
   37.9410   30.6080   41.3420 C   0  0  0  0  0  0  0  0  0  0  0  0
   36.9510   31.2220   40.5750 C   0  0  0  0  0  0  0  0  0  0  0  0
   37.1390   32.4810   40.0490 C   0  0  0  0  0  0  0  0  0  0  0  0
   38.3380   33.1110   40.3100 C   0  0  0  0  0  0  0  0  0  0  0  0
   39.3210   32.5190   41.0610 C   0  0  0  0  0  0  0  0  0  0  0  0
   39.1110   31.2650   41.5740 C   0  0  0  0  0  0  0  0  0  0  0  0
   37.1780   27.8550   43.6430 C   0  0  0  0  0  0  0  0  0  0  0  0
   37.3260   26.7320   42.7970 C   0  0  0  0  0  0  0  0  0  0  0  0
   37.6800   26.9420   41.4780 C   0  0  0  0  0  0  0  0  0  0  0  0
   37.8690   28.2080   41.0520 N   0  0  0  0  0  0  0  0  0  0  0  0
   37.7180   29.2670   41.8920 C   0  0  0  0  0  0  0  0  0  0  0  0
   37.3740   29.0990   43.1820 N   0  0  0  0  0  0  0  0  0  0  0  0
   40.1950   30.6480   42.3860 C   0  0  0  0  0  0  0  0  0  0  0  0
   36.0053   30.6925   40.3872 H   0  0  0  0  0  0  0  0  0  0  0  0
   36.3606   32.9668   39.4423 H   0  0  0  0  0  0  0  0  0  0  0  0
   38.5109   34.1184   39.9036 H   0  0  0  0  0  0  0  0  0  0  0  0
   40.2685   33.0450   41.2499 H   0  0  0  0  0  0  0  0  0  0  0  0
   36.8976   27.7060   44.6962 H   0  0  0  0  0  0  0  0  0  0  0  0
   37.1630   25.7139   43.1802 H   0  0  0  0  0  0  0  0  0  0  0  0
   37.8052   26.0937   40.7890 H   0  0  0  0  0  0  0  0  0  0  0  0
   39.9703   30.7759   43.4552 H   0  0  0  0  0  0  0  0  0  0  0  0
   40.2636   29.5755   42.1515 H   0  0  0  0  0  0  0  0  0  0  0  0
   41.1522   31.1366   42.1515 H   0  0  0  0  0  0  0  0  0  0  0  0
  1  6  1  0
  1 11  1  0
  2  1  2  0
  3  4  2  0
  3  2  1  0
  4  5  1  0
  5  6  2  0
  6 13  1  0
  8  7  2  0
  9  8  1  0
 10  9  2  0
 10 11  1  0
 11 12  2  0
 12  7  1  0
  2 14  1  0
  3 15  1  0
  4 16  1  0
  5 17  1  0
  7 18  1  0
  8 19  1  0
  9 20  1  0
 13 21  1  0
 13 22  1  0
 13 23  1  0
M  ISO  8  14  14  15  14  16  14  17  14  18  14  19  14  20  14  21   8
M  ISO  2  22   8  23   8
M  END
>  <minimizedAffinity>  (1) 
-4.12153816

>  <minimizedRMSD>  (1) 
1.04517114

$$$$
