
     RDKit          3D

 21 22  0  0  0  0  0  0  0  0999 V2000
   37.9300   30.8600   41.0690 C   0  0  0  0  0  0  0  0  0  0  0  0
   36.9390   31.3940   40.2530 C   0  0  0  0  0  0  0  0  0  0  0  0
   37.0480   32.6610   39.7240 C   0  0  0  0  0  0  0  0  0  0  0  0
   38.1810   33.3860   40.0350 C   0  0  0  0  0  0  0  0  0  0  0  0
   39.1710   32.8820   40.8390 C   0  0  0  0  0  0  0  0  0  0  0  0
   39.0420   31.6180   41.3530 C   0  0  0  0  0  0  0  0  0  0  0  0
   37.2370   28.0540   43.3230 C   0  0  0  0  0  0  0  0  0  0  0  0
   37.6110   26.9520   42.5220 C   0  0  0  0  0  0  0  0  0  0  0  0
   38.0860   27.1930   41.2460 C   0  0  0  0  0  0  0  0  0  0  0  0
   38.1640   28.4760   40.8370 N   0  0  0  0  0  0  0  0  0  0  0  0
   37.8000   29.5190   41.6200 C   0  0  0  0  0  0  0  0  0  0  0  0
   37.3350   29.3150   42.8660 N   0  0  0  0  0  0  0  0  0  0  0  0
   40.3260   30.9450   42.4020 S   0  0  0  0  0  0  0  0  0  0  0  0
   36.0478   30.7910   40.0247 H   0  0  0  0  0  0  0  0  0  0  0  0
   36.2620   33.0794   39.0781 H   0  0  0  0  0  0  0  0  0  0  0  0
   38.2932   34.4004   39.6247 H   0  0  0  0  0  0  0  0  0  0  0  0
   40.0606   33.4867   41.0693 H   0  0  0  0  0  0  0  0  0  0  0  0
   36.8582   27.8771   44.3405 H   0  0  0  0  0  0  0  0  0  0  0  0
   37.5262   25.9244   42.9052 H   0  0  0  0  0  0  0  0  0  0  0  0
   38.3900   26.3665   40.5868 H   0  0  0  0  0  0  0  0  0  0  0  0
   39.9830   31.1248   43.7161 H   0  0  0  0  0  0  0  0  0  0  0  0
  1  6  1  0
  1 11  1  0
  2  1  2  0
  3  4  2  0
  3  2  1  0
  4  5  1  0
  5  6  2  0
  6 13  1  0
  8  7  2  0
  9  8  1  0
 10  9  2  0
 10 11  1  0
 11 12  2  0
 12  7  1  0
  2 14  1  0
  3 15  1  0
  4 16  1  0
  5 17  1  0
  7 18  1  0
  8 19  1  0
  9 20  1  0
 13 21  1  0
M  ISO  8  14  14  15  14  16  14  17  14  18  14  19  14  20  14  21  11
M  END
>  <minimizedAffinity>  (1) 
-3.98722792

>  <minimizedRMSD>  (1) 
0.954464257

$$$$
