
     RDKit          3D

 34 36  0  0  0  0  0  0  0  0999 V2000
   37.2750   28.2460   43.8050 C   0  0  0  0  0  0  0  0  0  0  0  0
   37.1770   27.0490   43.0820 C   0  0  0  0  0  0  0  0  0  0  0  0
   37.2880   27.1200   41.7090 C   0  0  0  0  0  0  0  0  0  0  0  0
   37.4840   28.3110   41.1070 N   0  0  0  0  0  0  0  0  0  0  0  0
   37.5760   29.4690   41.8370 C   0  0  0  0  0  0  0  0  0  0  0  0
   37.4700   29.4020   43.1460 N   0  0  0  0  0  0  0  0  0  0  0  0
   37.1930   25.9240   40.9360 N   0  0  0  0  0  0  0  0  0  0  0  0
   36.5640   26.0370   39.7490 C   0  0  0  0  0  0  0  0  0  0  0  0
   36.4670   24.8850   38.9920 C   0  0  0  0  0  0  0  0  0  0  0  0
   37.0130   23.7250   39.5000 C   0  0  0  0  0  0  0  0  0  0  0  0
   36.8810   22.5740   38.6740 N   0  0  0  0  0  0  0  0  0  0  0  0
   37.6370   23.6830   40.7110 N   0  0  0  0  0  0  0  0  0  0  0  0
   37.7370   24.8080   41.4590 C   0  0  0  0  0  0  0  0  0  0  0  0
   38.3010   24.8280   42.5830 O   0  0  0  0  0  0  0  0  0  0  0  0
   37.7870   30.7120   41.1150 C   0  0  0  0  0  0  0  0  0  0  0  0
   36.7840   31.2270   40.2950 C   0  0  0  0  0  0  0  0  0  0  0  0
   36.9780   32.4030   39.6090 C   0  0  0  0  0  0  0  0  0  0  0  0
   38.1810   33.0530   39.7520 C   0  0  0  0  0  0  0  0  0  0  0  0
   39.1590   32.5410   40.5580 C   0  0  0  0  0  0  0  0  0  0  0  0
   38.9790   31.3690   41.2480 C   0  0  0  0  0  0  0  0  0  0  0  0
   40.1150   30.9270   42.0830 C   0  0  0  0  0  0  0  0  0  0  0  0
   41.2680   31.6590   41.8620 F   0  0  0  0  0  0  0  0  0  0  0  0
   40.3490   29.5780   42.0480 F   0  0  0  0  0  0  0  0  0  0  0  0
   39.8330   31.1810   43.4520 F   0  0  0  0  0  0  0  0  0  0  0  0
   37.1931   28.2398   44.9019 H   0  0  0  0  0  0  0  0  0  0  0  0
   37.0173   26.0873   43.5915 H   0  0  0  0  0  0  0  0  0  0  0  0
   36.1501   26.9951   39.4016 H   0  0  0  0  0  0  0  0  0  0  0  0
   35.9682   24.8930   38.0116 H   0  0  0  0  0  0  0  0  0  0  0  0
   37.2638   21.6699   38.9855 H   0  0  0  0  0  0  0  0  0  0  0  0
   36.4027   22.6449   37.7646 H   0  0  0  0  0  0  0  0  0  0  0  0
   35.8300   30.6885   40.1959 H   0  0  0  0  0  0  0  0  0  0  0  0
   36.1895   32.8138   38.9613 H   0  0  0  0  0  0  0  0  0  0  0  0
   38.3583   33.9949   39.2122 H   0  0  0  0  0  0  0  0  0  0  0  0
   40.1123   33.0811   40.6556 H   0  0  0  0  0  0  0  0  0  0  0  0
  2  1  2  0
  3  2  1  0
  4  3  2  0
  4  5  1  0
  5  6  2  0
  6  1  1  0
  7 13  1  0
  7  3  1  0
  8  7  1  0
  9 10  1  0
  9  8  2  0
 10 12  2  0
 11 10  1  0
 12 13  1  0
 13 14  2  0
 15 20  1  0
 15  5  1  0
 16 15  2  0
 17 18  2  0
 17 16  1  0
 18 19  1  0
 19 20  2  0
 20 21  1  0
 21 24  1  0
 22 21  1  0
 23 21  1  0
  1 25  1  0
  2 26  1  0
  8 27  1  0
  9 28  1  0
 11 29  1  0
 11 30  1  0
 16 31  1  0
 17 32  1  0
 18 33  1  0
 19 34  1  0
M  ISO  8  25  14  26  14  27  14  28  14  31  14  32  14  33  14  34  14
M  END
>  <minimizedAffinity>  (1) 
-5.92504883

>  <minimizedRMSD>  (1) 
1.13033783

$$$$
