
     RDKit          3D

 33 35  0  0  0  0  0  0  0  0999 V2000
   37.3410   28.3140   43.8360 C   0  0  0  0  0  0  0  0  0  0  0  0
   37.1240   27.1390   43.1010 C   0  0  0  0  0  0  0  0  0  0  0  0
   37.1370   27.2280   41.7350 C   0  0  0  0  0  0  0  0  0  0  0  0
   37.3530   28.4180   41.1550 N   0  0  0  0  0  0  0  0  0  0  0  0
   37.5600   29.5420   41.8790 C   0  0  0  0  0  0  0  0  0  0  0  0
   37.5500   29.4700   43.1880 N   0  0  0  0  0  0  0  0  0  0  0  0
   37.7850   30.7890   41.1540 C   0  0  0  0  0  0  0  0  0  0  0  0
   36.7890   31.3430   40.3440 C   0  0  0  0  0  0  0  0  0  0  0  0
   37.0000   32.5110   39.6650 C   0  0  0  0  0  0  0  0  0  0  0  0
   38.2230   33.1300   39.8000 C   0  0  0  0  0  0  0  0  0  0  0  0
   39.1980   32.5920   40.5890 C   0  0  0  0  0  0  0  0  0  0  0  0
   38.9930   31.4250   41.2710 C   0  0  0  0  0  0  0  0  0  0  0  0
   40.1440   30.9510   42.0970 C   0  0  0  0  0  0  0  0  0  0  0  0
   41.3030   31.6730   41.8750 F   0  0  0  0  0  0  0  0  0  0  0  0
   40.3550   29.5950   42.0260 F   0  0  0  0  0  0  0  0  0  0  0  0
   39.8770   31.1950   43.4670 F   0  0  0  0  0  0  0  0  0  0  0  0
   36.9220   26.0580   40.8870 C   0  0  0  0  0  0  0  0  0  0  0  0
   36.5820   26.1170   39.5520 C   0  0  0  0  0  0  0  0  0  0  0  0
   36.3840   24.9960   38.7730 C   0  0  0  0  0  0  0  0  0  0  0  0
   36.5300   23.7480   39.3430 C   0  0  0  0  0  0  0  0  0  0  0  0
   36.8670   23.6110   40.6720 C   0  0  0  0  0  0  0  0  0  0  0  0
   37.0520   24.7830   41.4010 C   0  0  0  0  0  0  0  0  0  0  0  0
   37.3398   28.2877   44.9357 H   0  0  0  0  0  0  0  0  0  0  0  0
   36.9491   26.1775   43.6058 H   0  0  0  0  0  0  0  0  0  0  0  0
   35.8199   30.8309   40.2515 H   0  0  0  0  0  0  0  0  0  0  0  0
   36.2145   32.9444   39.0284 H   0  0  0  0  0  0  0  0  0  0  0  0
   38.4166   34.0711   39.2644 H   0  0  0  0  0  0  0  0  0  0  0  0
   40.1662   33.1066   40.6778 H   0  0  0  0  0  0  0  0  0  0  0  0
   36.4629   27.1061   39.0856 H   0  0  0  0  0  0  0  0  0  0  0  0
   36.1133   25.0957   37.7115 H   0  0  0  0  0  0  0  0  0  0  0  0
   36.3751   22.8495   38.7276 H   0  0  0  0  0  0  0  0  0  0  0  0
   36.9846   22.6207   41.1361 H   0  0  0  0  0  0  0  0  0  0  0  0
   37.3212   24.6861   42.4631 H   0  0  0  0  0  0  0  0  0  0  0  0
  2  1  2  0
  3  2  1  0
  4  3  2  0
  4  5  1  0
  5  6  2  0
  6  1  1  0
  7 12  1  0
  7  5  1  0
  8  7  2  0
  9 10  2  0
  9  8  1  0
 10 11  1  0
 11 12  2  0
 12 13  1  0
 13 16  1  0
 14 13  1  0
 15 13  1  0
 17 22  1  0
 17  3  1  0
 18 17  2  0
 19 20  2  0
 19 18  1  0
 20 21  1  0
 21 22  2  0
  1 23  1  0
  2 24  1  0
  8 25  1  0
  9 26  1  0
 10 27  1  0
 11 28  1  0
 18 29  1  0
 19 30  1  0
 20 31  1  0
 21 32  1  0
 22 33  1  0
M  ISO  8  23  14  24  14  25  14  26  14  27  14  28  14  29  14  30  14
M  ISO  3  31  14  32  14  33  14
M  END
>  <minimizedAffinity>  (1) 
-5.77405643

>  <minimizedRMSD>  (1) 
1.27037013

$$$$
