
     RDKit          3D

 33 35  0  0  0  0  0  0  0  0999 V2000
   37.3390   28.3370   43.9070 C   0  0  0  0  0  0  0  0  0  0  0  0
   37.1210   27.1410   43.2130 C   0  0  0  0  0  0  0  0  0  0  0  0
   37.1370   27.1970   41.8450 C   0  0  0  0  0  0  0  0  0  0  0  0
   37.3540   28.3580   41.2110 N   0  0  0  0  0  0  0  0  0  0  0  0
   37.5640   29.5090   41.9160 C   0  0  0  0  0  0  0  0  0  0  0  0
   37.5540   29.4850   43.2320 N   0  0  0  0  0  0  0  0  0  0  0  0
   37.7950   30.7370   41.1600 C   0  0  0  0  0  0  0  0  0  0  0  0
   36.7780   31.2550   40.3400 C   0  0  0  0  0  0  0  0  0  0  0  0
   36.9900   32.4190   39.6210 C   0  0  0  0  0  0  0  0  0  0  0  0
   38.1980   33.0400   39.7300 C   0  0  0  0  0  0  0  0  0  0  0  0
   39.1790   32.5300   40.5290 C   0  0  0  0  0  0  0  0  0  0  0  0
   38.9970   31.3770   41.2530 C   0  0  0  0  0  0  0  0  0  0  0  0
   40.1410   30.9270   42.0830 C   0  0  0  0  0  0  0  0  0  0  0  0
   41.2970   31.6460   41.8340 F   0  0  0  0  0  0  0  0  0  0  0  0
   40.3570   29.5760   42.0450 F   0  0  0  0  0  0  0  0  0  0  0  0
   39.8760   31.2010   43.4420 F   0  0  0  0  0  0  0  0  0  0  0  0
   36.9230   26.0250   41.0030 C   0  0  0  0  0  0  0  0  0  0  0  0
   36.6180   26.2090   39.6710 C   0  0  0  0  0  0  0  0  0  0  0  0
   36.3930   25.1550   38.7790 C   0  0  0  0  0  0  0  0  0  0  0  0
   36.4840   23.8480   39.2540 C   0  0  0  0  0  0  0  0  0  0  0  0
   36.7890   23.6590   40.5850 C   0  0  0  0  0  0  0  0  0  0  0  0
   37.0030   24.7170   41.4360 C   0  0  0  0  0  0  0  0  0  0  0  0
   37.3350   28.3407   45.0070 H   0  0  0  0  0  0  0  0  0  0  0  0
   36.9440   26.1946   43.7450 H   0  0  0  0  0  0  0  0  0  0  0  0
   35.8115   30.7345   40.2693 H   0  0  0  0  0  0  0  0  0  0  0  0
   36.2009   32.8332   38.9762 H   0  0  0  0  0  0  0  0  0  0  0  0
   38.3847   33.9656   39.1657 H   0  0  0  0  0  0  0  0  0  0  0  0
   40.1424   33.0567   40.5953 H   0  0  0  0  0  0  0  0  0  0  0  0
   36.5479   27.2384   39.2897 H   0  0  0  0  0  0  0  0  0  0  0  0
   36.1494   25.3537   37.7249 H   0  0  0  0  0  0  0  0  0  0  0  0
   36.3170   22.9908   38.5852 H   0  0  0  0  0  0  0  0  0  0  0  0
   36.8631   22.6338   40.9767 H   0  0  0  0  0  0  0  0  0  0  0  0
   37.2444   24.5158   42.4902 H   0  0  0  0  0  0  0  0  0  0  0  0
  2  1  2  0
  3  2  1  0
  4  3  2  0
  4  5  1  0
  5  6  2  0
  6  1  1  0
  7 12  1  0
  7  5  1  0
  8  7  2  0
  9 10  2  0
  9  8  1  0
 10 11  1  0
 11 12  2  0
 12 13  1  0
 13 16  1  0
 14 13  1  0
 15 13  1  0
 17 22  1  0
 17  3  1  0
 18 17  2  0
 19 20  2  0
 19 18  1  0
 20 21  1  0
 21 22  2  0
  1 23  1  0
  2 24  1  0
  8 25  1  0
  9 26  1  0
 10 27  1  0
 11 28  1  0
 18 29  1  0
 19 30  1  0
 20 31  1  0
 21 32  1  0
 22 33  1  0
M  ISO  8  23  14  24  14  25  14  26  14  27  14  28  14  29  14  30  14
M  ISO  3  31  14  32  14  33  14
M  END
>  <minimizedAffinity>  (1) 
-5.77210903

>  <minimizedRMSD>  (1) 
1.27281237

$$$$
