
     RDKit          3D

 37 39  0  0  0  0  0  0  0  0999 V2000
   37.4030   28.2900   43.6760 C   0  0  0  0  0  0  0  0  0  0  0  0
   37.3690   27.1270   42.9270 C   0  0  0  0  0  0  0  0  0  0  0  0
   37.4990   27.2700   41.5700 C   0  0  0  0  0  0  0  0  0  0  0  0
   37.6530   28.4720   40.9970 N   0  0  0  0  0  0  0  0  0  0  0  0
   37.6830   29.6070   41.7720 C   0  0  0  0  0  0  0  0  0  0  0  0
   37.5580   29.4730   43.0740 N   0  0  0  0  0  0  0  0  0  0  0  0
   37.4700   26.1020   40.7570 N   0  0  0  0  0  0  0  0  0  0  0  0
   36.6870   26.0640   39.5350 C   0  0  0  0  0  0  0  0  0  0  0  0
   36.5450   24.6340   39.0620 C   0  0  0  0  0  0  0  0  0  0  0  0
   36.1880   23.8380   40.2240 N   0  0  0  0  0  0  0  0  0  0  0  0
   37.2350   23.7730   41.1930 C   0  0  0  0  0  0  0  0  0  0  0  0
   38.2080   24.8970   41.0880 C   0  0  0  0  0  0  0  0  0  0  0  0
   37.8520   30.8890   41.1050 C   0  0  0  0  0  0  0  0  0  0  0  0
   36.8140   31.4110   40.3190 C   0  0  0  0  0  0  0  0  0  0  0  0
   36.9570   32.6220   39.6800 C   0  0  0  0  0  0  0  0  0  0  0  0
   38.1330   33.2860   39.8400 C   0  0  0  0  0  0  0  0  0  0  0  0
   39.1410   32.7770   40.6040 C   0  0  0  0  0  0  0  0  0  0  0  0
   39.0170   31.5660   41.2510 C   0  0  0  0  0  0  0  0  0  0  0  0
   40.1870   31.1240   42.0520 C   0  0  0  0  0  0  0  0  0  0  0  0
   41.2860   31.9570   41.9000 F   0  0  0  0  0  0  0  0  0  0  0  0
   40.5000   29.8030   41.8950 F   0  0  0  0  0  0  0  0  0  0  0  0
   39.8810   31.2500   43.4330 F   0  0  0  0  0  0  0  0  0  0  0  0
   37.3021   28.2406   44.7703 H   0  0  0  0  0  0  0  0  0  0  0  0
   37.2442   26.1398   43.3959 H   0  0  0  0  0  0  0  0  0  0  0  0
   35.6895   26.4859   39.7271 H   0  0  0  0  0  0  0  0  0  0  0  0
   37.1959   26.6546   38.7589 H   0  0  0  0  0  0  0  0  0  0  0  0
   35.7556   24.5646   38.2991 H   0  0  0  0  0  0  0  0  0  0  0  0
   37.4814   24.2739   38.6110 H   0  0  0  0  0  0  0  0  0  0  0  0
   35.3562   24.2551   40.6657 H   0  0  0  0  0  0  0  0  0  0  0  0
   36.7839   23.7946   42.1960 H   0  0  0  0  0  0  0  0  0  0  0  0
   37.7919   22.8426   41.0081 H   0  0  0  0  0  0  0  0  0  0  0  0
   38.9432   24.6813   40.2988 H   0  0  0  0  0  0  0  0  0  0  0  0
   38.7441   25.0275   42.0396 H   0  0  0  0  0  0  0  0  0  0  0  0
   35.8758   30.8467   40.2121 H   0  0  0  0  0  0  0  0  0  0  0  0
   36.1481   33.0381   39.0615 H   0  0  0  0  0  0  0  0  0  0  0  0
   38.2742   34.2563   39.3414 H   0  0  0  0  0  0  0  0  0  0  0  0
   40.0764   33.3467   40.7067 H   0  0  0  0  0  0  0  0  0  0  0  0
  2  1  2  0
  3  2  1  0
  4  3  2  0
  4  5  1  0
  5  6  2  0
  6  1  1  0
  7 12  1  0
  7  3  1  0
  8  7  1  0
  9  8  1  0
  9 10  1  0
 10 11  1  0
 12 11  1  0
 13 18  1  0
 13  5  1  0
 14 13  2  0
 15 16  2  0
 15 14  1  0
 16 17  1  0
 17 18  2  0
 18 19  1  0
 19 22  1  0
 20 19  1  0
 21 19  1  0
  1 23  1  0
  2 24  1  0
  8 25  1  0
  8 26  1  0
  9 27  1  0
  9 28  1  0
 10 29  1  0
 11 30  1  0
 11 31  1  0
 12 32  1  0
 12 33  1  0
 14 34  1  0
 15 35  1  0
 16 36  1  0
 17 37  1  0
M  ISO  8  23  14  24  14  25  13  26  13  27  13  28  13  29   5  30  13
M  ISO  7  31  13  32  13  33  13  34  14  35  14  36  14  37  14
M  END
>  <minimizedAffinity>  (1) 
-5.6270442

>  <minimizedRMSD>  (1) 
0.782215357

$$$$
