
     RDKit          3D

 36 38  0  0  0  0  0  0  0  0999 V2000
   37.8090   30.7340   41.1530 C   0  0  0  0  0  0  0  0  0  0  0  0
   36.7900   31.2530   40.3360 C   0  0  0  0  0  0  0  0  0  0  0  0
   36.9930   32.4380   39.6530 C   0  0  0  0  0  0  0  0  0  0  0  0
   38.1880   33.0730   39.7960 C   0  0  0  0  0  0  0  0  0  0  0  0
   39.1740   32.5610   40.5930 C   0  0  0  0  0  0  0  0  0  0  0  0
   38.9900   31.3890   41.2760 C   0  0  0  0  0  0  0  0  0  0  0  0
   37.2740   28.2710   43.8370 C   0  0  0  0  0  0  0  0  0  0  0  0
   37.1830   27.0830   43.1330 C   0  0  0  0  0  0  0  0  0  0  0  0
   37.3050   27.1560   41.7700 C   0  0  0  0  0  0  0  0  0  0  0  0
   37.5050   28.3250   41.1440 N   0  0  0  0  0  0  0  0  0  0  0  0
   37.5920   29.4890   41.8670 C   0  0  0  0  0  0  0  0  0  0  0  0
   37.4750   29.4280   43.1860 N   0  0  0  0  0  0  0  0  0  0  0  0
   37.2210   25.9740   40.9840 N   0  0  0  0  0  0  0  0  0  0  0  0
   37.0040   24.6640   41.5690 C   0  0  0  0  0  0  0  0  0  0  0  0
   36.3340   23.8220   40.4750 C   0  0  0  0  0  0  0  0  0  0  0  0
   37.2400   23.5970   39.4480 O   0  0  0  0  0  0  0  0  0  0  0  0
   38.0300   24.6850   39.1710 C   0  0  0  0  0  0  0  0  0  0  0  0
   37.3480   26.0080   39.5440 C   0  0  0  0  0  0  0  0  0  0  0  0
   40.1410   30.9390   42.1100 C   0  0  0  0  0  0  0  0  0  0  0  0
   41.2930   31.6760   41.8840 F   0  0  0  0  0  0  0  0  0  0  0  0
   40.3680   29.5920   42.0700 F   0  0  0  0  0  0  0  0  0  0  0  0
   39.8670   31.1970   43.4760 F   0  0  0  0  0  0  0  0  0  0  0  0
   35.8336   30.7180   40.2402 H   0  0  0  0  0  0  0  0  0  0  0  0
   36.2064   32.8578   39.0087 H   0  0  0  0  0  0  0  0  0  0  0  0
   38.3643   34.0171   39.2597 H   0  0  0  0  0  0  0  0  0  0  0  0
   40.1290   33.0987   40.6867 H   0  0  0  0  0  0  0  0  0  0  0  0
   37.1814   28.2674   44.9331 H   0  0  0  0  0  0  0  0  0  0  0  0
   37.0200   26.1230   43.6447 H   0  0  0  0  0  0  0  0  0  0  0  0
   37.9627   24.2136   41.8655 H   0  0  0  0  0  0  0  0  0  0  0  0
   36.3799   24.7231   42.4729 H   0  0  0  0  0  0  0  0  0  0  0  0
   36.0122   22.8590   40.8982 H   0  0  0  0  0  0  0  0  0  0  0  0
   35.4583   24.3592   40.0819 H   0  0  0  0  0  0  0  0  0  0  0  0
   38.9667   24.5966   39.7408 H   0  0  0  0  0  0  0  0  0  0  0  0
   38.2194   24.6970   38.0875 H   0  0  0  0  0  0  0  0  0  0  0  0
   37.9659   26.8626   39.2310 H   0  0  0  0  0  0  0  0  0  0  0  0
   36.3734   26.1235   39.0471 H   0  0  0  0  0  0  0  0  0  0  0  0
  1  6  1  0
  1 11  1  0
  2  1  2  0
  3  4  2  0
  3  2  1  0
  4  5  1  0
  5  6  2  0
  6 19  1  0
  8  7  2  0
  9  8  1  0
 10  9  2  0
 10 11  1  0
 11 12  2  0
 12  7  1  0
 13 14  1  0
 13  9  1  0
 15 14  1  0
 16 15  1  0
 17 16  1  0
 17 18  1  0
 18 13  1  0
 19 22  1  0
 20 19  1  0
 21 19  1  0
  2 23  1  0
  3 24  1  0
  4 25  1  0
  5 26  1  0
  7 27  1  0
  8 28  1  0
 14 29  1  0
 14 30  1  0
 15 31  1  0
 15 32  1  0
 17 33  1  0
 17 34  1  0
 18 35  1  0
 18 36  1  0
M  ISO  8  23  14  24  14  25  14  26  14  27  14  28  14  29  13  30  13
M  ISO  6  31  13  32  13  33  13  34  13  35  13  36  13
M  END
>  <minimizedAffinity>  (1) 
-5.54808092

>  <minimizedRMSD>  (1) 
1.05857396

$$$$
