
     RDKit          3D

 30 31  0  0  0  0  0  0  0  0999 V2000
   37.3060   28.1400   43.8890 C   0  0  0  0  0  0  0  0  0  0  0  0
   37.5490   26.9150   43.2660 C   0  0  0  0  0  0  0  0  0  0  0  0
   37.8880   26.9210   41.9330 C   0  0  0  0  0  0  0  0  0  0  0  0
   37.9760   28.0870   41.2730 N   0  0  0  0  0  0  0  0  0  0  0  0
   37.7330   29.2810   41.9000 C   0  0  0  0  0  0  0  0  0  0  0  0
   37.4100   29.2630   43.1720 N   0  0  0  0  0  0  0  0  0  0  0  0
   38.1480   25.7060   41.2390 N   0  0  0  0  0  0  0  0  0  0  0  0
   38.6880   24.5550   41.9020 C   0  0  0  0  0  0  0  0  0  0  0  0
   39.5340   24.8010   42.8630 N   0  0  0  0  0  0  0  0  0  0  0  0
   38.2540   23.2570   41.4530 N   0  0  0  0  0  0  0  0  0  0  0  0
   39.9270   23.9650   43.3460 H   0  0  0  0  0  0  0  0  0  0  0  0
   37.8480   30.5040   41.1170 C   0  0  0  0  0  0  0  0  0  0  0  0
   36.8330   30.8830   40.2490 C   0  0  0  0  0  0  0  0  0  0  0  0
   36.9430   32.0430   39.5060 C   0  0  0  0  0  0  0  0  0  0  0  0
   38.0690   32.7970   39.6530 C   0  0  0  0  0  0  0  0  0  0  0  0
   39.0630   32.4220   40.5050 C   0  0  0  0  0  0  0  0  0  0  0  0
   38.9770   31.2680   41.2570 C   0  0  0  0  0  0  0  0  0  0  0  0
   40.1330   30.9800   42.1460 C   0  0  0  0  0  0  0  0  0  0  0  0
   41.1970   31.8350   41.9420 F   0  0  0  0  0  0  0  0  0  0  0  0
   40.5090   29.6580   42.1290 F   0  0  0  0  0  0  0  0  0  0  0  0
   39.7750   31.2280   43.4760 F   0  0  0  0  0  0  0  0  0  0  0  0
   37.0331   28.1806   44.9538 H   0  0  0  0  0  0  0  0  0  0  0  0
   37.4716   25.9710   43.8254 H   0  0  0  0  0  0  0  0  0  0  0  0
   37.9423   25.6519   40.2312 H   0  0  0  0  0  0  0  0  0  0  0  0
   38.6199   22.4068   41.9049 H   0  0  0  0  0  0  0  0  0  0  0  0
   37.5777   23.1790   40.6800 H   0  0  0  0  0  0  0  0  0  0  0  0
   35.9348   30.2555   40.1520 H   0  0  0  0  0  0  0  0  0  0  0  0
   36.1439   32.3494   38.8150 H   0  0  0  0  0  0  0  0  0  0  0  0
   38.1767   33.7253   39.0728 H   0  0  0  0  0  0  0  0  0  0  0  0
   39.9577   33.0554   40.5962 H   0  0  0  0  0  0  0  0  0  0  0  0
  2  1  2  0
  3  2  1  0
  4  5  1  0
  4  3  2  0
  5  6  2  0
  6  1  1  0
  7  8  1  0
  7  3  1  0
  8  9  2  0
  9 11  1  0
 10  8  1  0
 12 17  1  0
 12  5  1  0
 13 12  2  0
 14 15  2  0
 14 13  1  0
 15 16  1  0
 16 17  2  0
 17 18  1  0
 18 21  1  0
 19 18  1  0
 20 18  1  0
  1 22  1  0
  2 23  1  0
  7 24  1  0
 10 25  1  0
 10 26  1  0
 13 27  1  0
 14 28  1  0
 15 29  1  0
 16 30  1  0
M  ISO  6  22  14  23  14  27  14  28  14  29  14  30  14
M  END
>  <minimizedAffinity>  (1) 
-5.40215206

>  <minimizedRMSD>  (1) 
1.03753638

$$$$
