
     RDKit          3D

 30 32  0  0  0  0  0  0  0  0999 V2000
   37.7840   30.7550   41.1350 C   0  0  0  0  0  0  0  0  0  0  0  0
   36.7790   31.2850   40.3210 C   0  0  0  0  0  0  0  0  0  0  0  0
   36.9880   32.4660   39.6390 C   0  0  0  0  0  0  0  0  0  0  0  0
   38.1990   33.0970   39.7850 C   0  0  0  0  0  0  0  0  0  0  0  0
   39.1760   32.5730   40.5820 C   0  0  0  0  0  0  0  0  0  0  0  0
   38.9840   31.3980   41.2670 C   0  0  0  0  0  0  0  0  0  0  0  0
   37.3090   28.3020   43.8320 C   0  0  0  0  0  0  0  0  0  0  0  0
   37.1420   27.1040   43.1220 C   0  0  0  0  0  0  0  0  0  0  0  0
   37.2000   27.1910   41.7570 C   0  0  0  0  0  0  0  0  0  0  0  0
   37.4070   28.3710   41.1300 N   0  0  0  0  0  0  0  0  0  0  0  0
   37.5640   29.5130   41.8520 C   0  0  0  0  0  0  0  0  0  0  0  0
   37.5090   29.4360   43.1650 N   0  0  0  0  0  0  0  0  0  0  0  0
   37.0400   26.0110   40.9400 C   0  0  0  0  0  0  0  0  0  0  0  0
   36.7590   25.7550   39.6560 C   0  0  0  0  0  0  0  0  0  0  0  0
   36.6730   24.5020   39.1650 C   0  0  0  0  0  0  0  0  0  0  0  0
   36.9020   23.4830   40.1100 C   0  0  0  0  0  0  0  0  0  0  0  0
   37.2320   24.4090   41.6650 S   0  0  0  0  0  0  0  0  0  0  0  0
   40.1320   30.9470   42.0960 C   0  0  0  0  0  0  0  0  0  0  0  0
   41.2870   31.6690   41.8710 F   0  0  0  0  0  0  0  0  0  0  0  0
   40.3590   29.5900   42.0340 F   0  0  0  0  0  0  0  0  0  0  0  0
   39.8580   31.1870   43.4550 F   0  0  0  0  0  0  0  0  0  0  0  0
   35.8180   30.7587   40.2238 H   0  0  0  0  0  0  0  0  0  0  0  0
   36.2045   32.8914   38.9946 H   0  0  0  0  0  0  0  0  0  0  0  0
   38.3850   34.0404   39.2509 H   0  0  0  0  0  0  0  0  0  0  0  0
   40.1356   33.1022   40.6774 H   0  0  0  0  0  0  0  0  0  0  0  0
   37.2749   28.3042   44.9315 H   0  0  0  0  0  0  0  0  0  0  0  0
   36.9734   26.1455   43.6347 H   0  0  0  0  0  0  0  0  0  0  0  0
   36.5915   26.6015   38.9738 H   0  0  0  0  0  0  0  0  0  0  0  0
   36.4423   24.2924   38.1101 H   0  0  0  0  0  0  0  0  0  0  0  0
   36.8871   22.3940   39.9553 H   0  0  0  0  0  0  0  0  0  0  0  0
  1  6  1  0
  1 11  1  0
  2  1  2  0
  3  4  2  0
  3  2  1  0
  4  5  1  0
  5  6  2  0
  6 18  1  0
  8  7  2  0
  9  8  1  0
 10  9  2  0
 10 11  1  0
 11 12  2  0
 12  7  1  0
 13 17  1  0
 13  9  1  0
 14 13  2  0
 15 14  1  0
 15 16  2  0
 16 17  1  0
 18 21  1  0
 19 18  1  0
 20 18  1  0
  2 22  1  0
  3 23  1  0
  4 24  1  0
  5 25  1  0
  7 26  1  0
  8 27  1  0
 14 28  1  0
 15 29  1  0
 16 30  1  0
M  ISO  8  22  14  23  14  24  14  25  14  26  14  27  14  28  14  29  14
M  ISO  1  30  14
M  END
>  <minimizedAffinity>  (1) 
-5.30554867

>  <minimizedRMSD>  (1) 
1.06066442

$$$$
