
     RDKit          3D

 26 27  0  0  0  0  0  0  0  0999 V2000
   37.7620   30.7580   41.1290 C   0  0  0  0  0  0  0  0  0  0  0  0
   36.7630   31.3130   40.3400 C   0  0  0  0  0  0  0  0  0  0  0  0
   36.9580   32.5140   39.6980 C   0  0  0  0  0  0  0  0  0  0  0  0
   38.1740   33.1430   39.8660 C   0  0  0  0  0  0  0  0  0  0  0  0
   39.1470   32.5890   40.6420 C   0  0  0  0  0  0  0  0  0  0  0  0
   38.9600   31.3970   41.2820 C   0  0  0  0  0  0  0  0  0  0  0  0
   37.2470   28.1860   43.7130 C   0  0  0  0  0  0  0  0  0  0  0  0
   37.1250   27.0220   42.9550 C   0  0  0  0  0  0  0  0  0  0  0  0
   37.2240   27.1510   41.5800 C   0  0  0  0  0  0  0  0  0  0  0  0
   37.4270   28.3630   41.0350 N   0  0  0  0  0  0  0  0  0  0  0  0
   37.5410   29.4790   41.8060 C   0  0  0  0  0  0  0  0  0  0  0  0
   37.4490   29.3630   43.1090 N   0  0  0  0  0  0  0  0  0  0  0  0
   37.1120   25.9880   40.6480 C   0  0  0  0  0  0  0  0  0  0  0  0
   36.6250   24.8680   41.3310 F   0  0  0  0  0  0  0  0  0  0  0  0
   36.2950   26.2510   39.5680 F   0  0  0  0  0  0  0  0  0  0  0  0
   38.3990   25.6490   40.2770 F   0  0  0  0  0  0  0  0  0  0  0  0
   40.1040   30.9060   42.0970 C   0  0  0  0  0  0  0  0  0  0  0  0
   41.2650   31.6340   41.8900 F   0  0  0  0  0  0  0  0  0  0  0  0
   40.3100   29.5530   42.0190 F   0  0  0  0  0  0  0  0  0  0  0  0
   39.8360   31.1330   43.4730 F   0  0  0  0  0  0  0  0  0  0  0  0
   35.8041   30.7859   40.2270 H   0  0  0  0  0  0  0  0  0  0  0  0
   36.1703   32.9579   39.0715 H   0  0  0  0  0  0  0  0  0  0  0  0
   38.3606   34.1051   39.3665 H   0  0  0  0  0  0  0  0  0  0  0  0
   40.1066   33.1145   40.7559 H   0  0  0  0  0  0  0  0  0  0  0  0
   37.1771   28.1367   44.8097 H   0  0  0  0  0  0  0  0  0  0  0  0
   36.9574   26.0436   43.4289 H   0  0  0  0  0  0  0  0  0  0  0  0
  1  6  1  0
  1 11  1  0
  2  1  2  0
  3  4  2  0
  3  2  1  0
  4  5  1  0
  5  6  2  0
  6 17  1  0
  8  7  2  0
  9  8  1  0
 10  9  2  0
 10 11  1  0
 11 12  2  0
 12  7  1  0
 13 14  1  0
 13  9  1  0
 15 13  1  0
 16 13  1  0
 17 20  1  0
 18 17  1  0
 19 17  1  0
  2 21  1  0
  3 22  1  0
  4 23  1  0
  5 24  1  0
  7 25  1  0
  8 26  1  0
M  ISO  6  21  14  22  14  23  14  24  14  25  14  26  14
M  END
>  <minimizedAffinity>  (1) 
-5.11542606

>  <minimizedRMSD>  (1) 
0.825395286

$$$$
