
     RDKit          3D

 29 31  0  0  0  0  0  0  0  0999 V2000
   37.7790   30.7180   41.0970 C   0  0  0  0  0  0  0  0  0  0  0  0
   36.7880   31.2570   40.2780 C   0  0  0  0  0  0  0  0  0  0  0  0
   36.9760   32.4440   39.6220 C   0  0  0  0  0  0  0  0  0  0  0  0
   38.1670   33.0930   39.7910 C   0  0  0  0  0  0  0  0  0  0  0  0
   39.1490   32.5670   40.5980 C   0  0  0  0  0  0  0  0  0  0  0  0
   38.9690   31.3790   41.2580 C   0  0  0  0  0  0  0  0  0  0  0  0
   37.2400   28.2030   43.7160 C   0  0  0  0  0  0  0  0  0  0  0  0
   37.1940   27.0250   42.9930 C   0  0  0  0  0  0  0  0  0  0  0  0
   37.3480   27.1150   41.6130 C   0  0  0  0  0  0  0  0  0  0  0  0
   37.5310   28.3160   41.0510 N   0  0  0  0  0  0  0  0  0  0  0  0
   37.5720   29.4630   41.7860 C   0  0  0  0  0  0  0  0  0  0  0  0
   37.4270   29.3670   43.0840 N   0  0  0  0  0  0  0  0  0  0  0  0
   37.3130   25.8940   40.7640 C   0  0  0  0  0  0  0  0  0  0  0  0
   37.7580   25.9390   39.4180 C   0  0  0  0  0  0  0  0  0  0  0  0
   37.5070   24.2440   38.8640 S   0  0  0  0  0  0  0  0  0  0  0  0
   36.8230   23.7170   40.5700 C   0  0  0  0  0  0  0  0  0  0  0  0
   36.8720   24.7250   41.2120 N   0  0  0  0  0  0  0  0  0  0  0  0
   40.1140   30.9280   42.0990 C   0  0  0  0  0  0  0  0  0  0  0  0
   41.2640   31.6680   41.8870 F   0  0  0  0  0  0  0  0  0  0  0  0
   40.3470   29.5750   42.0310 F   0  0  0  0  0  0  0  0  0  0  0  0
   39.8120   31.1680   43.4620 F   0  0  0  0  0  0  0  0  0  0  0  0
   35.8367   30.7183   40.1564 H   0  0  0  0  0  0  0  0  0  0  0  0
   36.1902   32.8638   38.9768 H   0  0  0  0  0  0  0  0  0  0  0  0
   38.3425   34.0484   39.2749 H   0  0  0  0  0  0  0  0  0  0  0  0
   40.0979   33.1107   40.7161 H   0  0  0  0  0  0  0  0  0  0  0  0
   37.1229   28.1828   44.8096 H   0  0  0  0  0  0  0  0  0  0  0  0
   37.0417   26.0552   43.4892 H   0  0  0  0  0  0  0  0  0  0  0  0
   38.1566   26.7950   38.8538 H   0  0  0  0  0  0  0  0  0  0  0  0
   36.4691   22.7244   40.8855 H   0  0  0  0  0  0  0  0  0  0  0  0
  1  6  1  0
  1 11  1  0
  2  1  2  0
  3  4  2  0
  3  2  1  0
  4  5  1  0
  5  6  2  0
  6 18  1  0
  8  7  2  0
  9  8  1  0
 10  9  2  0
 10 11  1  0
 11 12  2  0
 12  7  1  0
 13 17  1  0
 13  9  1  0
 14 13  2  0
 15 14  1  0
 15 16  1  0
 16 17  2  0
 18 21  1  0
 19 18  1  0
 20 18  1  0
  2 22  1  0
  3 23  1  0
  4 24  1  0
  5 25  1  0
  7 26  1  0
  8 27  1  0
 14 28  1  0
 16 29  1  0
M  ISO  8  22  14  23  14  24  14  25  14  26  14  27  14  28  14  29  14
M  END
>  <minimizedAffinity>  (1) 
-5.09745884

>  <minimizedRMSD>  (1) 
0.897450745

$$$$
