
     RDKit          3D

 41 45  0  0  0  0  0  0  0  0999 V2000
   37.3200   28.2930   43.7690 C   0  0  0  0  0  0  0  0  0  0  0  0
   37.0970   27.1420   43.0370 C   0  0  0  0  0  0  0  0  0  0  0  0
   37.1170   27.2370   41.6630 C   0  0  0  0  0  0  0  0  0  0  0  0
   37.3460   28.4160   41.0760 N   0  0  0  0  0  0  0  0  0  0  0  0
   37.5640   29.5450   41.8150 C   0  0  0  0  0  0  0  0  0  0  0  0
   37.5440   29.4460   43.1200 N   0  0  0  0  0  0  0  0  0  0  0  0
   37.8070   30.7920   41.1120 C   0  0  0  0  0  0  0  0  0  0  0  0
   36.8190   31.3400   40.2920 C   0  0  0  0  0  0  0  0  0  0  0  0
   37.0430   32.5250   39.6230 C   0  0  0  0  0  0  0  0  0  0  0  0
   38.2500   33.1440   39.7810 C   0  0  0  0  0  0  0  0  0  0  0  0
   39.2170   32.5980   40.5910 C   0  0  0  0  0  0  0  0  0  0  0  0
   39.0020   31.4230   41.2580 C   0  0  0  0  0  0  0  0  0  0  0  0
   40.1340   30.9590   42.0920 C   0  0  0  0  0  0  0  0  0  0  0  0
   41.3050   31.6740   41.8840 F   0  0  0  0  0  0  0  0  0  0  0  0
   40.3520   29.5990   42.0370 F   0  0  0  0  0  0  0  0  0  0  0  0
   39.8490   31.1880   43.4670 F   0  0  0  0  0  0  0  0  0  0  0  0
   36.8940   26.0860   40.7960 C   0  0  0  0  0  0  0  0  0  0  0  0
   37.0040   24.7360   41.1070 C   0  0  0  0  0  0  0  0  0  0  0  0
   36.6970   24.0530   39.9720 N   0  0  0  0  0  0  0  0  0  0  0  0
   36.4070   24.9450   38.9870 C   0  0  0  0  0  0  0  0  0  0  0  0
   36.5370   26.1570   39.5280 N   0  0  0  0  0  0  0  0  0  0  0  0
   38.1470   28.9680   36.2720 N   0  0  0  0  0  0  0  0  0  0  0  0
   39.0810   28.0240   36.5790 C   0  0  0  0  0  0  0  0  0  0  0  0
   38.5060   27.2680   37.5320 N   0  0  0  0  0  0  0  0  0  0  0  0
   37.2840   27.6920   37.8200 C   0  0  0  0  0  0  0  0  0  0  0  0
   36.2840   27.2910   38.6960 C   0  0  0  0  0  0  0  0  0  0  0  0
   35.1120   27.9760   38.7350 N   0  0  0  0  0  0  0  0  0  0  0  0
   34.8860   29.0420   37.9450 C   0  0  0  0  0  0  0  0  0  0  0  0
   35.8540   29.4280   37.1010 N   0  0  0  0  0  0  0  0  0  0  0  0
   37.0350   28.7940   37.0120 C   0  0  0  0  0  0  0  0  0  0  0  0
   37.3139   28.2643   44.8686 H   0  0  0  0  0  0  0  0  0  0  0  0
   36.9094   26.1799   43.5362 H   0  0  0  0  0  0  0  0  0  0  0  0
   35.8548   30.8229   40.1786 H   0  0  0  0  0  0  0  0  0  0  0  0
   36.2672   32.9616   38.9769 H   0  0  0  0  0  0  0  0  0  0  0  0
   38.4503   34.0890   39.2548 H   0  0  0  0  0  0  0  0  0  0  0  0
   40.1812   33.1151   40.7050 H   0  0  0  0  0  0  0  0  0  0  0  0
   37.2842   24.3050   42.0795 H   0  0  0  0  0  0  0  0  0  0  0  0
   36.1219   24.7129   37.9503 H   0  0  0  0  0  0  0  0  0  0  0  0
   38.2740   29.7118   35.5709 H   0  0  0  0  0  0  0  0  0  0  0  0
   40.0842   27.9061   36.1435 H   0  0  0  0  0  0  0  0  0  0  0  0
   33.9298   29.5838   37.9906 H   0  0  0  0  0  0  0  0  0  0  0  0
  2  1  2  0
  3  2  1  0
  4  3  2  0
  4  5  1  0
  5  6  2  0
  6  1  1  0
  7 12  1  0
  7  5  1  0
  8  7  2  0
  9 10  2  0
  9  8  1  0
 10 11  1  0
 11 12  2  0
 12 13  1  0
 13 16  1  0
 14 13  1  0
 15 13  1  0
 17 18  2  0
 17  3  1  0
 19 18  1  0
 20 21  1  0
 20 19  2  0
 21 17  1  0
 22 23  1  0
 22 30  1  0
 23 24  2  0
 24 25  1  0
 25 26  2  0
 26 27  1  0
 26 21  1  0
 28 27  2  0
 29 28  1  0
 30 29  2  0
 30 25  1  0
  1 31  1  0
  2 32  1  0
  8 33  1  0
  9 34  1  0
 10 35  1  0
 11 36  1  0
 18 37  1  0
 20 38  1  0
 22 39  1  0
 23 40  1  0
 28 41  1  0
M  ISO  8  31  14  32  14  33  14  34  14  35  14  36  14  37  14  38  14
M  ISO  3  39   9  40  14  41  14
M  END
>  <minimizedAffinity>  (1) 
-6.34716845

>  <minimizedRMSD>  (1) 
1.2563597

$$$$
