
     RDKit          3D

 37 40  0  0  0  0  0  0  0  0999 V2000
   37.2060   28.2550   43.3300 C   0  0  0  0  0  0  0  0  0  0  0  0
   37.1840   27.1650   42.4790 C   0  0  0  0  0  0  0  0  0  0  0  0
   37.3880   27.3840   41.1330 C   0  0  0  0  0  0  0  0  0  0  0  0
   37.6010   28.6310   40.6910 N   0  0  0  0  0  0  0  0  0  0  0  0
   37.6220   29.7030   41.5300 C   0  0  0  0  0  0  0  0  0  0  0  0
   37.4220   29.4770   42.8230 N   0  0  0  0  0  0  0  0  0  0  0  0
   37.3870   26.3150   40.1540 C   0  0  0  0  0  0  0  0  0  0  0  0
   37.9140   25.0470   40.2570 C   0  0  0  0  0  0  0  0  0  0  0  0
   37.6630   24.4080   39.0730 N   0  0  0  0  0  0  0  0  0  0  0  0
   36.9960   25.2600   38.2600 C   0  0  0  0  0  0  0  0  0  0  0  0
   36.8420   26.4130   38.9420 N   0  0  0  0  0  0  0  0  0  0  0  0
   34.7940   29.0770   37.6600 N   0  0  0  0  0  0  0  0  0  0  0  0
   34.8870   27.9800   38.3970 N   0  0  0  0  0  0  0  0  0  0  0  0
   36.1720   27.5240   38.3560 C   0  0  0  0  0  0  0  0  0  0  0  0
   36.9090   28.3890   37.5490 C   0  0  0  0  0  0  0  0  0  0  0  0
   36.0110   29.3720   37.1150 C   0  0  0  0  0  0  0  0  0  0  0  0
   37.8560   31.0230   40.9870 C   0  0  0  0  0  0  0  0  0  0  0  0
   36.8730   31.6440   40.1970 C   0  0  0  0  0  0  0  0  0  0  0  0
   37.0940   32.8960   39.6830 C   0  0  0  0  0  0  0  0  0  0  0  0
   38.2870   33.5240   39.9520 C   0  0  0  0  0  0  0  0  0  0  0  0
   39.2380   32.9030   40.7250 C   0  0  0  0  0  0  0  0  0  0  0  0
   39.0410   31.6590   41.2480 C   0  0  0  0  0  0  0  0  0  0  0  0
   40.1500   31.1080   42.0640 C   0  0  0  0  0  0  0  0  0  0  0  0
   41.3170   31.8690   41.9630 F   0  0  0  0  0  0  0  0  0  0  0  0
   40.4110   29.7780   41.8300 F   0  0  0  0  0  0  0  0  0  0  0  0
   39.8210   31.1740   43.4330 F   0  0  0  0  0  0  0  0  0  0  0  0
   37.0481   28.1208   44.4103 H   0  0  0  0  0  0  0  0  0  0  0  0
   37.0084   26.1503   42.8657 H   0  0  0  0  0  0  0  0  0  0  0  0
   38.4384   24.6265   41.1277 H   0  0  0  0  0  0  0  0  0  0  0  0
   36.6463   25.0517   37.2381 H   0  0  0  0  0  0  0  0  0  0  0  0
   33.9333   29.6250   37.5192 H   0  0  0  0  0  0  0  0  0  0  0  0
   37.9786   28.3146   37.3030 H   0  0  0  0  0  0  0  0  0  0  0  0
   36.2426   30.2231   36.4577 H   0  0  0  0  0  0  0  0  0  0  0  0
   35.9253   31.1250   39.9908 H   0  0  0  0  0  0  0  0  0  0  0  0
   36.3292   33.3897   39.0655 H   0  0  0  0  0  0  0  0  0  0  0  0
   38.4810   34.5280   39.5466 H   0  0  0  0  0  0  0  0  0  0  0  0
   40.1853   33.4240   40.9278 H   0  0  0  0  0  0  0  0  0  0  0  0
  2  1  2  0
  3  2  1  0
  4  3  2  0
  4  5  1  0
  5  6  2  0
  6  1  1  0
  7  8  2  0
  7  3  1  0
  9  8  1  0
 10 11  1  0
 10  9  2  0
 11  7  1  0
 12 13  1  0
 14 13  2  0
 14 11  1  0
 15 14  1  0
 16 15  2  0
 16 12  1  0
 17 22  1  0
 17  5  1  0
 18 17  2  0
 19 20  2  0
 19 18  1  0
 20 21  1  0
 21 22  2  0
 22 23  1  0
 23 26  1  0
 24 23  1  0
 25 23  1  0
  1 27  1  0
  2 28  1  0
  8 29  1  0
 10 30  1  0
 12 31  1  0
 15 32  1  0
 16 33  1  0
 18 34  1  0
 19 35  1  0
 20 36  1  0
 21 37  1  0
M  ISO  8  27  14  28  14  29  14  30  14  31   9  32  14  33  14  34  14
M  ISO  3  35  14  36  14  37  14
M  END
>  <minimizedAffinity>  (1) 
-5.68727827

>  <minimizedRMSD>  (1) 
0.777396977

$$$$
