
     RDKit          3D

 33 35  0  0  0  0  0  0  0  0999 V2000
   37.6000   28.0880   43.8150 C   0  0  0  0  0  0  0  0  0  0  0  0
   38.0820   26.9550   43.1810 C   0  0  0  0  0  0  0  0  0  0  0  0
   38.5140   27.0790   41.8800 C   0  0  0  0  0  0  0  0  0  0  0  0
   38.4540   28.2750   41.2740 N   0  0  0  0  0  0  0  0  0  0  0  0
   37.9810   29.3780   41.8990 C   0  0  0  0  0  0  0  0  0  0  0  0
   37.5680   29.2570   43.1500 N   0  0  0  0  0  0  0  0  0  0  0  0
   37.9470   30.6360   41.1800 C   0  0  0  0  0  0  0  0  0  0  0  0
   36.8210   30.9740   40.4090 C   0  0  0  0  0  0  0  0  0  0  0  0
   36.7850   32.1650   39.7260 C   0  0  0  0  0  0  0  0  0  0  0  0
   37.8610   33.0050   39.8130 C   0  0  0  0  0  0  0  0  0  0  0  0
   38.9610   32.6730   40.5650 C   0  0  0  0  0  0  0  0  0  0  0  0
   39.0170   31.4850   41.2580 C   0  0  0  0  0  0  0  0  0  0  0  0
   40.2580   31.2490   42.0300 C   0  0  0  0  0  0  0  0  0  0  0  0
   41.2010   32.2460   41.8670 F   0  0  0  0  0  0  0  0  0  0  0  0
   40.7890   29.9970   41.8680 F   0  0  0  0  0  0  0  0  0  0  0  0
   39.9710   31.3070   43.4230 F   0  0  0  0  0  0  0  0  0  0  0  0
   39.0410   25.9510   41.1160 C   0  0  0  0  0  0  0  0  0  0  0  0
   40.3420   25.6920   40.7460 C   0  0  0  0  0  0  0  0  0  0  0  0
   40.3150   24.5240   40.0510 N   0  0  0  0  0  0  0  0  0  0  0  0
   39.0510   24.0630   39.9840 C   0  0  0  0  0  0  0  0  0  0  0  0
   38.3000   24.9560   40.6440 N   0  0  0  0  0  0  0  0  0  0  0  0
   36.8450   24.7720   40.7750 C   0  0  0  0  0  0  0  0  0  0  0  0
   36.4490   24.5490   42.0590 F   0  0  0  0  0  0  0  0  0  0  0  0
   36.4120   23.7390   39.9650 F   0  0  0  0  0  0  0  0  0  0  0  0
   36.2700   25.9230   40.2410 F   0  0  0  0  0  0  0  0  0  0  0  0
   37.2458   28.0325   44.8549 H   0  0  0  0  0  0  0  0  0  0  0  0
   38.1185   25.9863   43.7009 H   0  0  0  0  0  0  0  0  0  0  0  0
   35.9670   30.2830   40.3527 H   0  0  0  0  0  0  0  0  0  0  0  0
   35.9080   32.4380   39.1208 H   0  0  0  0  0  0  0  0  0  0  0  0
   37.8449   33.9624   39.2716 H   0  0  0  0  0  0  0  0  0  0  0  0
   39.8119   33.3683   40.6144 H   0  0  0  0  0  0  0  0  0  0  0  0
   41.2263   26.3073   40.9684 H   0  0  0  0  0  0  0  0  0  0  0  0
   38.7060   23.1430   39.4894 H   0  0  0  0  0  0  0  0  0  0  0  0
  2  1  2  0
  3  2  1  0
  4  3  2  0
  4  5  1  0
  5  6  2  0
  6  1  1  0
  7 12  1  0
  7  5  1  0
  8  7  2  0
  9 10  2  0
  9  8  1  0
 10 11  1  0
 11 12  2  0
 12 13  1  0
 13 16  1  0
 14 13  1  0
 15 13  1  0
 17  3  1  0
 18 17  2  0
 19 18  1  0
 20 19  2  0
 20 21  1  0
 21 22  1  0
 21 17  1  0
 22 23  1  0
 24 22  1  0
 25 22  1  0
  1 26  1  0
  2 27  1  0
  8 28  1  0
  9 29  1  0
 10 30  1  0
 11 31  1  0
 18 32  1  0
 20 33  1  0
M  ISO  8  26  14  27  14  28  14  29  14  30  14  31  14  32  14  33  14
M  END
>  <minimizedAffinity>  (1) 
-5.58807182

>  <minimizedRMSD>  (1) 
1.76464856

$$$$
