
     RDKit          3D

 39 41  0  0  0  0  0  0  0  0999 V2000
   37.4300   28.1230   43.6980 C   0  0  0  0  0  0  0  0  0  0  0  0
   37.8760   26.9850   43.0590 C   0  0  0  0  0  0  0  0  0  0  0  0
   38.3470   27.1110   41.7700 C   0  0  0  0  0  0  0  0  0  0  0  0
   38.3610   28.3160   41.1740 N   0  0  0  0  0  0  0  0  0  0  0  0
   37.9150   29.4270   41.8280 C   0  0  0  0  0  0  0  0  0  0  0  0
   37.4690   29.2970   43.0520 N   0  0  0  0  0  0  0  0  0  0  0  0
   37.9560   30.6940   41.1300 C   0  0  0  0  0  0  0  0  0  0  0  0
   36.8740   31.1020   40.3160 C   0  0  0  0  0  0  0  0  0  0  0  0
   36.9260   32.3060   39.6590 C   0  0  0  0  0  0  0  0  0  0  0  0
   38.0270   33.0970   39.8030 C   0  0  0  0  0  0  0  0  0  0  0  0
   39.0750   32.6990   40.5950 C   0  0  0  0  0  0  0  0  0  0  0  0
   39.0490   31.5090   41.2560 C   0  0  0  0  0  0  0  0  0  0  0  0
   40.2510   31.2100   42.0750 C   0  0  0  0  0  0  0  0  0  0  0  0
   41.2440   32.1600   41.9580 F   0  0  0  0  0  0  0  0  0  0  0  0
   40.7240   29.9380   41.9310 F   0  0  0  0  0  0  0  0  0  0  0  0
   39.9100   31.2830   43.4550 F   0  0  0  0  0  0  0  0  0  0  0  0
   38.8460   25.9780   40.9930 C   0  0  0  0  0  0  0  0  0  0  0  0
   40.1680   25.5610   40.8420 C   0  0  0  0  0  0  0  0  0  0  0  0
   40.1170   24.4680   40.0290 N   0  0  0  0  0  0  0  0  0  0  0  0
   38.8350   24.2180   39.6930 C   0  0  0  0  0  0  0  0  0  0  0  0
   38.0820   25.1550   40.2960 N   0  0  0  0  0  0  0  0  0  0  0  0
   36.6270   25.1810   40.1440 C   0  0  0  0  0  0  0  0  0  0  0  0
   36.2340   25.7480   38.7950 C   0  0  0  0  0  0  0  0  0  0  0  0
   36.0370   23.7890   40.2050 C   0  0  0  0  0  0  0  0  0  0  0  0
   37.0461   28.0678   44.7274 H   0  0  0  0  0  0  0  0  0  0  0  0
   37.8564   26.0072   43.5626 H   0  0  0  0  0  0  0  0  0  0  0  0
   35.9910   30.4547   40.2094 H   0  0  0  0  0  0  0  0  0  0  0  0
   36.0885   32.6291   39.0233 H   0  0  0  0  0  0  0  0  0  0  0  0
   38.0759   34.0632   39.2796 H   0  0  0  0  0  0  0  0  0  0  0  0
   39.9527   33.3540   40.6976 H   0  0  0  0  0  0  0  0  0  0  0  0
   41.0645   26.0183   41.2860 H   0  0  0  0  0  0  0  0  0  0  0  0
   38.4740   23.4029   39.0485 H   0  0  0  0  0  0  0  0  0  0  0  0
   36.2461   25.8029   40.9675 H   0  0  0  0  0  0  0  0  0  0  0  0
   35.6129   26.6441   38.9408 H   0  0  0  0  0  0  0  0  0  0  0  0
   37.1401   26.0174   38.2324 H   0  0  0  0  0  0  0  0  0  0  0  0
   35.6637   24.9941   38.2324 H   0  0  0  0  0  0  0  0  0  0  0  0
   35.9103   23.4902   41.2560 H   0  0  0  0  0  0  0  0  0  0  0  0
   35.0589   23.7829   39.7017 H   0  0  0  0  0  0  0  0  0  0  0  0
   36.7128   23.0819   39.7017 H   0  0  0  0  0  0  0  0  0  0  0  0
  2  1  2  0
  3  2  1  0
  4  3  2  0
  4  5  1  0
  5  6  2  0
  6  1  1  0
  7 12  1  0
  7  5  1  0
  8  7  2  0
  9 10  2  0
  9  8  1  0
 10 11  1  0
 11 12  2  0
 12 13  1  0
 13 16  1  0
 14 13  1  0
 15 13  1  0
 17  3  1  0
 18 17  2  0
 19 18  1  0
 20 19  2  0
 20 21  1  0
 21 17  1  0
 22 24  1  0
 22 21  1  0
 23 22  1  0
  1 25  1  0
  2 26  1  0
  8 27  1  0
  9 28  1  0
 10 29  1  0
 11 30  1  0
 18 31  1  0
 20 32  1  0
 22 33  1  0
 23 34  1  0
 23 35  1  0
 23 36  1  0
 24 37  1  0
 24 38  1  0
 24 39  1  0
M  ISO  8  25  14  26  14  27  14  28  14  29  14  30  14  31  14  32  14
M  ISO  7  33   8  34   8  35   8  36   8  37   8  38   8  39   8
M  END
>  <minimizedAffinity>  (1) 
-5.30975723

>  <minimizedRMSD>  (1) 
1.39377582

$$$$
