
     RDKit          3D

 35 39  0  0  0  0  0  0  0  0999 V2000
   38.9310   31.9910   40.6030 C   0  0  0  0  0  0  0  0  0  0  0  0
   38.9670   30.7880   41.3280 C   0  0  0  0  0  0  0  0  0  0  0  0
   37.7510   30.1450   41.5640 C   0  0  0  0  0  0  0  0  0  0  0  0
   36.6150   30.6970   41.0950 N   0  0  0  0  0  0  0  0  0  0  0  0
   36.6110   31.8530   40.4020 C   0  0  0  0  0  0  0  0  0  0  0  0
   37.7580   32.5140   40.1470 N   0  0  0  0  0  0  0  0  0  0  0  0
   37.7080   28.9360   42.2820 N   0  0  0  0  0  0  0  0  0  0  0  0
   37.9700   28.7360   43.5780 C   0  0  0  0  0  0  0  0  0  0  0  0
   37.8200   27.4180   43.9060 N   0  0  0  0  0  0  0  0  0  0  0  0
   37.4540   26.7710   42.7930 C   0  0  0  0  0  0  0  0  0  0  0  0
   37.1540   25.4580   42.4650 C   0  0  0  0  0  0  0  0  0  0  0  0
   36.8110   25.1480   41.2050 N   0  0  0  0  0  0  0  0  0  0  0  0
   36.7650   26.1220   40.2720 C   0  0  0  0  0  0  0  0  0  0  0  0
   37.0400   27.3870   40.5270 N   0  0  0  0  0  0  0  0  0  0  0  0
   37.3890   27.7370   41.7880 C   0  0  0  0  0  0  0  0  0  0  0  0
   36.4010   25.7900   38.9330 N   0  0  0  0  0  0  0  0  0  0  0  0
   35.6170   24.7920   38.4740 C   0  0  0  0  0  0  0  0  0  0  0  0
   35.6060   24.9360   37.1210 N   0  0  0  0  0  0  0  0  0  0  0  0
   36.3580   25.9850   36.7710 C   0  0  0  0  0  0  0  0  0  0  0  0
   36.6540   26.5290   35.5350 C   0  0  0  0  0  0  0  0  0  0  0  0
   36.1640   25.9920   34.5070 O   0  0  0  0  0  0  0  0  0  0  0  0
   37.4510   27.6150   35.3980 N   0  0  0  0  0  0  0  0  0  0  0  0
   37.9210   28.1110   36.5530 C   0  0  0  0  0  0  0  0  0  0  0  0
   38.7610   29.2450   36.5060 N   0  0  0  0  0  0  0  0  0  0  0  0
   37.6480   27.6030   37.7600 N   0  0  0  0  0  0  0  0  0  0  0  0
   36.8690   26.5380   37.9300 C   0  0  0  0  0  0  0  0  0  0  0  0
   39.8717   32.5232   40.3986 H   0  0  0  0  0  0  0  0  0  0  0  0
   39.9158   30.3696   41.6950 H   0  0  0  0  0  0  0  0  0  0  0  0
   35.6572   32.2634   40.0389 H   0  0  0  0  0  0  0  0  0  0  0  0
   38.2662   29.5255   44.2843 H   0  0  0  0  0  0  0  0  0  0  0  0
   37.1969   24.6731   43.2345 H   0  0  0  0  0  0  0  0  0  0  0  0
   35.0974   24.0253   39.0674 H   0  0  0  0  0  0  0  0  0  0  0  0
   37.6781   28.0270   34.4817 H   0  0  0  0  0  0  0  0  0  0  0  0
   39.1351   29.6453   37.3782 H   0  0  0  0  0  0  0  0  0  0  0  0
   38.9997   29.6719   35.5995 H   0  0  0  0  0  0  0  0  0  0  0  0
  1  2  2  0
  2  3  1  0
  3  7  1  0
  4  3  2  0
  5  4  1  0
  6  5  2  0
  6  1  1  0
  7  8  1  0
  8  9  2  0
 10  9  1  0
 11 10  2  0
 12 11  1  0
 13 14  1  0
 13 12  2  0
 14 15  2  0
 15  7  1  0
 15 10  1  0
 16 13  1  0
 17 16  1  0
 18 17  2  0
 19 18  1  0
 19 26  2  0
 20 19  1  0
 21 20  2  0
 22 20  1  0
 22 23  1  0
 23 25  2  0
 24 23  1  0
 25 26  1  0
 26 16  1  0
  1 27  1  0
  2 28  1  0
  5 29  1  0
  8 30  1  0
 11 31  1  0
 17 32  1  0
 22 33  1  0
 24 34  1  0
 24 35  1  0
M  ISO  7  27  14  28  14  29  14  30  14  31  14  32  14  33   9
M  END
>  <minimizedAffinity>  (1) 
-6.0320344

>  <minimizedRMSD>  (1) 
0.898748279

$$$$
