
     RDKit          3D

 37 41  0  0  0  0  0  0  0  0999 V2000
   39.7160   32.4830   40.8060 C   0  0  0  0  0  0  0  0  0  0  0  0
   39.5500   31.2310   41.4330 C   0  0  0  0  0  0  0  0  0  0  0  0
   38.2580   30.7000   41.4710 C   0  0  0  0  0  0  0  0  0  0  0  0
   37.2620   31.4120   40.9130 N   0  0  0  0  0  0  0  0  0  0  0  0
   37.4560   32.6030   40.3230 C   0  0  0  0  0  0  0  0  0  0  0  0
   38.6750   33.1590   40.2580 N   0  0  0  0  0  0  0  0  0  0  0  0
   38.0130   29.4500   42.0840 N   0  0  0  0  0  0  0  0  0  0  0  0
   38.1030   29.1300   43.3590 C   0  0  0  0  0  0  0  0  0  0  0  0
   37.7850   27.8170   43.5580 N   0  0  0  0  0  0  0  0  0  0  0  0
   37.4800   27.2880   42.3500 C   0  0  0  0  0  0  0  0  0  0  0  0
   37.0890   26.0650   41.8810 C   0  0  0  0  0  0  0  0  0  0  0  0
   36.8610   25.8970   40.5700 N   0  0  0  0  0  0  0  0  0  0  0  0
   37.0150   26.9210   39.7220 C   0  0  0  0  0  0  0  0  0  0  0  0
   37.3910   28.1210   40.1370 N   0  0  0  0  0  0  0  0  0  0  0  0
   37.6320   28.3320   41.4570 C   0  0  0  0  0  0  0  0  0  0  0  0
   36.8130   26.9390   38.2620 C   0  0  0  0  0  0  0  0  0  0  0  0
   37.6810   26.3280   37.3870 C   0  0  0  0  0  0  0  0  0  0  0  0
   37.5460   26.3100   36.0230 C   0  0  0  0  0  0  0  0  0  0  0  0
   36.4730   26.9370   35.4370 C   0  0  0  0  0  0  0  0  0  0  0  0
   35.5780   27.5600   36.2610 C   0  0  0  0  0  0  0  0  0  0  0  0
   34.5060   28.1840   35.6620 C   0  0  0  0  0  0  0  0  0  0  0  0
   33.5530   28.8360   36.4160 C   0  0  0  0  0  0  0  0  0  0  0  0
   33.7160   28.8390   37.8060 C   0  0  0  0  0  0  0  0  0  0  0  0
   34.8100   28.1960   38.3420 C   0  0  0  0  0  0  0  0  0  0  0  0
   35.7710   27.5420   37.6190 C   0  0  0  0  0  0  0  0  0  0  0  0
   40.7218   32.9259   40.7596 H   0  0  0  0  0  0  0  0  0  0  0  0
   40.4027   30.6942   41.8742 H   0  0  0  0  0  0  0  0  0  0  0  0
   36.5978   33.1331   39.8842 H   0  0  0  0  0  0  0  0  0  0  0  0
   38.3955   29.8280   44.1573 H   0  0  0  0  0  0  0  0  0  0  0  0
   36.9619   25.2219   42.5761 H   0  0  0  0  0  0  0  0  0  0  0  0
   38.5530   25.8128   37.8161 H   0  0  0  0  0  0  0  0  0  0  0  0
   38.2932   25.7960   35.4005 H   0  0  0  0  0  0  0  0  0  0  0  0
   36.3392   26.9376   34.3452 H   0  0  0  0  0  0  0  0  0  0  0  0
   34.4087   28.1619   34.5665 H   0  0  0  0  0  0  0  0  0  0  0  0
   32.6954   29.3358   35.9419 H   0  0  0  0  0  0  0  0  0  0  0  0
   32.9864   29.3438   38.4563 H   0  0  0  0  0  0  0  0  0  0  0  0
   34.9200   28.2091   39.4364 H   0  0  0  0  0  0  0  0  0  0  0  0
  1  2  2  0
  2  3  1  0
  3  7  1  0
  4  3  2  0
  5  4  1  0
  6  5  2  0
  6  1  1  0
  7  8  1  0
  8  9  2  0
 10  9  1  0
 11 10  2  0
 12 11  1  0
 13 14  1  0
 13 12  2  0
 14 15  2  0
 15  7  1  0
 15 10  1  0
 16 13  1  0
 17 16  2  0
 18 17  1  0
 19 18  2  0
 19 20  1  0
 20 25  2  0
 21 20  1  0
 21 22  2  0
 22 23  1  0
 23 24  2  0
 25 16  1  0
 25 24  1  0
  1 26  1  0
  2 27  1  0
  5 28  1  0
  8 29  1  0
 11 30  1  0
 17 31  1  0
 18 32  1  0
 19 33  1  0
 21 34  1  0
 22 35  1  0
 23 36  1  0
 24 37  1  0
M  ISO  8  26  14  27  14  28  14  29  14  30  14  31  14  32  14  33  14
M  ISO  4  34  14  35  14  36  14  37  14
M  END
>  <minimizedAffinity>  (1) 
-5.82502937

>  <minimizedRMSD>  (1) 
0.951099098

$$$$
