
     RDKit          3D

 31 34  0  0  0  0  0  0  0  0999 V2000
   39.2890   32.2410   40.9420 C   0  0  0  0  0  0  0  0  0  0  0  0
   39.1640   31.0150   41.6210 C   0  0  0  0  0  0  0  0  0  0  0  0
   37.9080   30.3940   41.5840 C   0  0  0  0  0  0  0  0  0  0  0  0
   36.9060   30.9930   40.9130 N   0  0  0  0  0  0  0  0  0  0  0  0
   37.0700   32.1740   40.2700 C   0  0  0  0  0  0  0  0  0  0  0  0
   38.2640   32.8060   40.2820 N   0  0  0  0  0  0  0  0  0  0  0  0
   37.7000   29.1680   42.2370 N   0  0  0  0  0  0  0  0  0  0  0  0
   37.6860   28.9190   43.5460 C   0  0  0  0  0  0  0  0  0  0  0  0
   37.4490   27.5950   43.7890 N   0  0  0  0  0  0  0  0  0  0  0  0
   37.3070   26.9830   42.5950 C   0  0  0  0  0  0  0  0  0  0  0  0
   37.0640   25.7040   42.1790 C   0  0  0  0  0  0  0  0  0  0  0  0
   36.9820   25.4420   40.8440 N   0  0  0  0  0  0  0  0  0  0  0  0
   37.1440   26.4420   39.9800 C   0  0  0  0  0  0  0  0  0  0  0  0
   37.3840   27.7050   40.3070 N   0  0  0  0  0  0  0  0  0  0  0  0
   37.4690   27.9910   41.6460 C   0  0  0  0  0  0  0  0  0  0  0  0
   37.0430   26.0750   38.5690 C   0  0  0  0  0  0  0  0  0  0  0  0
   38.0010   26.5060   37.6530 C   0  0  0  0  0  0  0  0  0  0  0  0
   38.0080   26.2240   36.3040 C   0  0  0  0  0  0  0  0  0  0  0  0
   36.9700   25.4450   35.8360 C   0  0  0  0  0  0  0  0  0  0  0  0
   35.9880   24.9870   36.6990 C   0  0  0  0  0  0  0  0  0  0  0  0
   36.0500   25.3110   38.0340 C   0  0  0  0  0  0  0  0  0  0  0  0
   40.2611   32.7556   40.9518 H   0  0  0  0  0  0  0  0  0  0  0  0
   40.0129   30.5646   42.1562 H   0  0  0  0  0  0  0  0  0  0  0  0
   36.2220   32.6232   39.7324 H   0  0  0  0  0  0  0  0  0  0  0  0
   37.8441   29.6776   44.3267 H   0  0  0  0  0  0  0  0  0  0  0  0
   36.9360   24.8951   42.9134 H   0  0  0  0  0  0  0  0  0  0  0  0
   38.8233   27.1253   38.0406 H   0  0  0  0  0  0  0  0  0  0  0  0
   38.7980   26.5995   35.6370 H   0  0  0  0  0  0  0  0  0  0  0  0
   36.9217   25.1853   34.7682 H   0  0  0  0  0  0  0  0  0  0  0  0
   35.1628   24.3673   36.3183 H   0  0  0  0  0  0  0  0  0  0  0  0
   35.2604   24.9355   38.7015 H   0  0  0  0  0  0  0  0  0  0  0  0
  1  2  2  0
  3  2  1  0
  3  7  1  0
  4  3  2  0
  5  6  2  0
  5  4  1  0
  6  1  1  0
  7  8  1  0
  8  9  2  0
 10  9  1  0
 11 10  2  0
 12 11  1  0
 13 14  1  0
 13 12  2  0
 14 15  2  0
 15  7  1  0
 15 10  1  0
 16 13  1  0
 17 16  2  0
 18 17  1  0
 19 18  2  0
 19 20  1  0
 20 21  2  0
 21 16  1  0
  1 22  1  0
  2 23  1  0
  5 24  1  0
  8 25  1  0
 11 26  1  0
 17 27  1  0
 18 28  1  0
 19 29  1  0
 20 30  1  0
 21 31  1  0
M  ISO  8  22  14  23  14  24  14  25  14  26  14  27  14  28  14  29  14
M  ISO  2  30  14  31  14
M  END
>  <minimizedAffinity>  (1) 
-4.92180777

>  <minimizedRMSD>  (1) 
0.0466495715

$$$$
