
     RDKit          3D

 34 37  0  0  0  0  0  0  0  0999 V2000
   39.0790   32.1330   40.6780 C   0  0  0  0  0  0  0  0  0  0  0  0
   39.0820   30.9070   41.3740 C   0  0  0  0  0  0  0  0  0  0  0  0
   37.8640   30.2790   41.5530 C   0  0  0  0  0  0  0  0  0  0  0  0
   36.7470   30.8690   41.0560 N   0  0  0  0  0  0  0  0  0  0  0  0
   36.7820   32.0380   40.3990 C   0  0  0  0  0  0  0  0  0  0  0  0
   37.9480   32.6880   40.2000 N   0  0  0  0  0  0  0  0  0  0  0  0
   37.7700   29.0500   42.2350 N   0  0  0  0  0  0  0  0  0  0  0  0
   37.9800   28.8100   43.5280 C   0  0  0  0  0  0  0  0  0  0  0  0
   37.7930   27.4890   43.8210 N   0  0  0  0  0  0  0  0  0  0  0  0
   37.4520   26.8690   42.6690 C   0  0  0  0  0  0  0  0  0  0  0  0
   37.1400   25.5860   42.2890 C   0  0  0  0  0  0  0  0  0  0  0  0
   36.8380   25.3180   41.0020 N   0  0  0  0  0  0  0  0  0  0  0  0
   36.8490   26.3140   40.1200 C   0  0  0  0  0  0  0  0  0  0  0  0
   37.1370   27.5770   40.4010 N   0  0  0  0  0  0  0  0  0  0  0  0
   37.4460   27.8690   41.6990 C   0  0  0  0  0  0  0  0  0  0  0  0
   35.8870   25.3790   36.0500 C   0  0  0  0  0  0  0  0  0  0  0  0
   36.6700   26.4570   36.3670 C   0  0  0  0  0  0  0  0  0  0  0  0
   36.9730   26.7510   37.6590 C   0  0  0  0  0  0  0  0  0  0  0  0
   36.5160   25.9880   38.7260 C   0  0  0  0  0  0  0  0  0  0  0  0
   35.7210   24.8950   38.3920 C   0  0  0  0  0  0  0  0  0  0  0  0
   35.4190   24.6050   37.0740 C   0  0  0  0  0  0  0  0  0  0  0  0
   35.5850   25.1310   34.3460 S   0  0  0  0  0  0  0  0  0  0  0  0
   36.7600   24.4350   33.7380 O   0  0  0  0  0  0  0  0  0  0  0  0
   35.4720   26.4740   33.6600 O   0  0  0  0  0  0  0  0  0  0  0  0
   40.0341   32.6552   40.5195 H   0  0  0  0  0  0  0  0  0  0  0  0
   40.0147   30.4686   41.7585 H   0  0  0  0  0  0  0  0  0  0  0  0
   35.8468   32.4732   40.0169 H   0  0  0  0  0  0  0  0  0  0  0  0
   38.2666   29.5756   44.2640 H   0  0  0  0  0  0  0  0  0  0  0  0
   37.1365   24.7772   43.0345 H   0  0  0  0  0  0  0  0  0  0  0  0
   37.0607   27.0963   35.5616 H   0  0  0  0  0  0  0  0  0  0  0  0
   37.6046   27.6271   37.8677 H   0  0  0  0  0  0  0  0  0  0  0  0
   35.3259   24.2504   39.1910 H   0  0  0  0  0  0  0  0  0  0  0  0
   34.7888   23.7329   36.8453 H   0  0  0  0  0  0  0  0  0  0  0  0
   34.4370   24.3982   34.1975 H   0  0  0  0  0  0  0  0  0  0  0  0
  1  2  2  0
  2  3  1  0
  3  7  1  0
  4  3  2  0
  5  4  1  0
  6  5  2  0
  6  1  1  0
  7  8  1  0
  8  9  2  0
 10  9  1  0
 11 10  2  0
 12 11  1  0
 13 14  1  0
 13 12  2  0
 14 15  2  0
 15  7  1  0
 15 10  1  0
 16 17  2  0
 16 21  1  0
 17 18  1  0
 18 19  2  0
 19 13  1  0
 20 19  1  0
 21 20  2  0
 22 16  1  0
 23 22  2  0
 24 22  2  0
  1 25  1  0
  2 26  1  0
  5 27  1  0
  8 28  1  0
 11 29  1  0
 17 30  1  0
 18 31  1  0
 20 32  1  0
 21 33  1  0
 22 34  1  0
M  ISO  8  25  14  26  14  27  14  28  14  29  14  30  14  31  14  32  14
M  ISO  2  33  14  34  11
M  END
>  <minimizedAffinity>  (1) 
-4.89476252

>  <minimizedRMSD>  (1) 
0.709393799

$$$$
