
     RDKit          3D

 29 32  0  0  0  0  0  0  0  0999 V2000
   39.3080   32.2860   41.0210 C   0  0  0  0  0  0  0  0  0  0  0  0
   39.1780   31.0480   41.6850 C   0  0  0  0  0  0  0  0  0  0  0  0
   37.9430   30.4170   41.5990 C   0  0  0  0  0  0  0  0  0  0  0  0
   36.9520   31.0090   40.8990 N   0  0  0  0  0  0  0  0  0  0  0  0
   37.1100   32.1950   40.2750 C   0  0  0  0  0  0  0  0  0  0  0  0
   38.3010   32.8470   40.3320 N   0  0  0  0  0  0  0  0  0  0  0  0
   37.7220   29.1690   42.2370 N   0  0  0  0  0  0  0  0  0  0  0  0
   37.6780   28.9010   43.5280 C   0  0  0  0  0  0  0  0  0  0  0  0
   37.4410   27.5730   43.7480 N   0  0  0  0  0  0  0  0  0  0  0  0
   37.3310   26.9750   42.5380 C   0  0  0  0  0  0  0  0  0  0  0  0
   37.1010   25.7030   42.0670 C   0  0  0  0  0  0  0  0  0  0  0  0
   37.0550   25.4640   40.7430 N   0  0  0  0  0  0  0  0  0  0  0  0
   37.2350   26.4860   39.8950 C   0  0  0  0  0  0  0  0  0  0  0  0
   37.4580   27.7310   40.2870 N   0  0  0  0  0  0  0  0  0  0  0  0
   37.5110   28.0020   41.6170 C   0  0  0  0  0  0  0  0  0  0  0  0
   37.1830   26.2230   38.4580 C   0  0  0  0  0  0  0  0  0  0  0  0
   36.0160   25.8490   37.8270 C   0  0  0  0  0  0  0  0  0  0  0  0
   35.8770   25.5830   36.4810 C   0  0  0  0  0  0  0  0  0  0  0  0
   37.0210   25.7180   35.7770 N   0  0  0  0  0  0  0  0  0  0  0  0
   38.1880   26.0790   36.3250 C   0  0  0  0  0  0  0  0  0  0  0  0
   38.2830   26.3340   37.6620 N   0  0  0  0  0  0  0  0  0  0  0  0
   40.2725   32.8127   41.0696 H   0  0  0  0  0  0  0  0  0  0  0  0
   40.0145   30.6034   42.2442 H   0  0  0  0  0  0  0  0  0  0  0  0
   36.2707   32.6362   39.7175 H   0  0  0  0  0  0  0  0  0  0  0  0
   37.8142   29.6485   44.3234 H   0  0  0  0  0  0  0  0  0  0  0  0
   36.9537   24.8758   42.7770 H   0  0  0  0  0  0  0  0  0  0  0  0
   35.1160   25.7543   38.4523 H   0  0  0  0  0  0  0  0  0  0  0  0
   34.9215   25.2878   36.0229 H   0  0  0  0  0  0  0  0  0  0  0  0
   39.0812   26.1711   35.6896 H   0  0  0  0  0  0  0  0  0  0  0  0
  1  2  2  0
  3  2  1  0
  3  7  1  0
  4  3  2  0
  5  6  2  0
  5  4  1  0
  6  1  1  0
  7  8  1  0
  8  9  2  0
 10  9  1  0
 11 10  2  0
 12 11  1  0
 13 14  1  0
 13 12  2  0
 14 15  2  0
 15  7  1  0
 15 10  1  0
 16 13  1  0
 17 16  2  0
 18 17  1  0
 19 20  1  0
 19 18  2  0
 20 21  2  0
 21 16  1  0
  1 22  1  0
  2 23  1  0
  5 24  1  0
  8 25  1  0
 11 26  1  0
 17 27  1  0
 18 28  1  0
 20 29  1  0
M  ISO  8  22  14  23  14  24  14  25  14  26  14  27  14  28  14  29  14
M  END
>  <minimizedAffinity>  (1) 
-4.81466866

>  <minimizedRMSD>  (1) 
0.13804765

$$$$
