
     RDKit          3D

 39 41  0  0  1  0  0  0  0  0999 V2000
   37.6840   30.0070   41.1520 C   0  0  0  0  0  0  0  0  0  0  0  0
   36.4540   29.5600   41.6560 C   0  0  0  0  0  0  0  0  0  0  0  0
   36.6520   28.2250   41.8760 C   0  0  0  0  0  0  0  0  0  0  0  0
   37.9200   27.8560   41.5370 N   0  0  0  0  0  0  0  0  0  0  0  0
   38.5350   28.9600   41.0950 N   0  0  0  0  0  0  0  0  0  0  0  0
   37.1260   32.1640   40.0120 C   0  0  0  0  0  0  0  0  0  0  0  0
   37.9560   31.3790   40.7650 C   0  0  0  0  0  0  0  0  0  0  0  0
   39.1580   31.9430   41.1980 C   0  0  0  0  0  0  0  0  0  0  0  0
   39.4740   33.2290   40.8690 N   0  0  0  0  0  0  0  0  0  0  0  0
   38.5770   33.9560   40.1020 C   0  0  0  0  0  0  0  0  0  0  0  0
   37.4080   33.4150   39.6790 N   0  0  0  0  0  0  0  0  0  0  0  0
   38.4140   26.5100   41.6910 C   0  0  1  0  0  0  0  0  0  0  0  0
   39.0220   26.3330   42.9850 N   0  0  0  0  0  0  0  0  0  0  0  0
   40.3370   26.6770   43.3130 C   0  0  0  0  0  0  0  0  0  0  0  0
   41.0900   27.0600   42.3790 N   0  0  0  0  0  0  0  0  0  0  0  0
   40.7940   26.5710   44.6360 N   0  0  0  0  0  0  0  0  0  0  0  0
   42.0920   27.3210   42.5540 H   0  0  0  0  0  0  0  0  0  0  0  0
   37.2830   25.5600   41.7270 N   0  0  0  0  0  0  0  0  0  0  0  0
   37.9100   24.2770   42.1970 C   0  0  0  0  0  0  0  0  0  0  0  0
   38.7170   23.8360   40.9890 C   0  0  0  0  0  0  0  0  0  0  0  0
   38.0330   24.4890   39.7860 C   0  0  0  0  0  0  0  0  0  0  0  0
   36.8170   25.0880   40.4720 C   0  0  0  0  0  0  0  0  0  0  0  0
   35.5411   30.1475   41.8333 H   0  0  0  0  0  0  0  0  0  0  0  0
   35.8892   27.5395   42.2738 H   0  0  0  0  0  0  0  0  0  0  0  0
   36.1749   31.7340   39.6650 H   0  0  0  0  0  0  0  0  0  0  0  0
   39.8536   31.3474   41.8074 H   0  0  0  0  0  0  0  0  0  0  0  0
   38.8188   34.9942   39.8307 H   0  0  0  0  0  0  0  0  0  0  0  0
   39.1134   26.3392   40.8593 H   0  0  0  0  0  0  0  0  0  0  0  0
   38.4412   25.9197   43.7285 H   0  0  0  0  0  0  0  0  0  0  0  0
   41.7645   26.8268   44.8677 H   0  0  0  0  0  0  0  0  0  0  0  0
   40.1589   26.2374   45.3751 H   0  0  0  0  0  0  0  0  0  0  0  0
   38.5607   24.4492   43.0670 H   0  0  0  0  0  0  0  0  0  0  0  0
   37.1751   23.5281   42.5273 H   0  0  0  0  0  0  0  0  0  0  0  0
   39.7580   24.1809   41.0743 H   0  0  0  0  0  0  0  0  0  0  0  0
   38.7512   22.7404   40.8964 H   0  0  0  0  0  0  0  0  0  0  0  0
   37.7491   23.7474   39.0248 H   0  0  0  0  0  0  0  0  0  0  0  0
   38.6546   25.2073   39.2313 H   0  0  0  0  0  0  0  0  0  0  0  0
   36.4097   25.9182   39.8763 H   0  0  0  0  0  0  0  0  0  0  0  0
   36.0095   24.3502   40.5880 H   0  0  0  0  0  0  0  0  0  0  0  0
  1  2  1  0
  2  3  2  0
  4 12  1  0
  4  3  1  0
  5  1  2  0
  5  4  1  0
  6  7  2  0
  7  1  1  0
  7  8  1  0
  9  8  2  0
 10  9  1  0
 11  6  1  0
 11 10  2  0
 12 18  1  0
 12 13  1  0
 13 14  1  0
 14 16  1  0
 15 17  1  0
 15 14  2  0
 18 19  1  0
 20 19  1  0
 21 22  1  0
 21 20  1  0
 22 18  1  0
  2 23  1  0
  3 24  1  0
  6 25  1  0
  8 26  1  0
 10 27  1  0
 12 28  1  6
 13 29  1  0
 16 30  1  0
 16 31  1  0
 19 32  1  0
 19 33  1  0
 20 34  1  0
 20 35  1  0
 21 36  1  0
 21 37  1  0
 22 38  1  0
 22 39  1  0
M  ISO  8  23  14  24  14  25  14  26  14  27  14  28   8  32  13  33  13
M  ISO  6  34  13  35  13  36  13  37  13  38  13  39  13
M  END
>  <minimizedAffinity>  (1) 
-4.88777399

>  <minimizedRMSD>  (1) 
3.79185224

$$$$
