
     RDKit          3D

 28 31  0  0  0  0  0  0  0  0999 V2000
   39.1080   32.1630   40.8370 C   0  0  0  0  0  0  0  0  0  0  0  0
   39.0550   30.9280   41.5260 C   0  0  0  0  0  0  0  0  0  0  0  0
   37.8170   30.2890   41.5770 C   0  0  0  0  0  0  0  0  0  0  0  0
   36.7530   30.8660   40.9810 N   0  0  0  0  0  0  0  0  0  0  0  0
   36.8460   32.0410   40.3350 C   0  0  0  0  0  0  0  0  0  0  0  0
   38.0270   32.7120   40.2520 N   0  0  0  0  0  0  0  0  0  0  0  0
   37.6790   29.0530   42.2460 N   0  0  0  0  0  0  0  0  0  0  0  0
   37.7730   28.8100   43.5550 C   0  0  0  0  0  0  0  0  0  0  0  0
   37.5780   27.4820   43.8160 N   0  0  0  0  0  0  0  0  0  0  0  0
   37.3550   26.8730   42.6450 C   0  0  0  0  0  0  0  0  0  0  0  0
   37.0960   25.5800   42.2280 C   0  0  0  0  0  0  0  0  0  0  0  0
   36.9160   25.3160   40.9130 N   0  0  0  0  0  0  0  0  0  0  0  0
   36.9940   26.3260   40.0270 C   0  0  0  0  0  0  0  0  0  0  0  0
   37.2390   27.5880   40.3510 N   0  0  0  0  0  0  0  0  0  0  0  0
   37.4240   27.8800   41.6750 C   0  0  0  0  0  0  0  0  0  0  0  0
   36.7820   25.9260   38.6140 C   0  0  0  0  0  0  0  0  0  0  0  0
   35.6570   25.2270   38.1520 C   0  0  0  0  0  0  0  0  0  0  0  0
   35.6310   24.9410   36.8100 C   0  0  0  0  0  0  0  0  0  0  0  0
   36.6960   25.3540   36.0200 C   0  0  0  0  0  0  0  0  0  0  0  0
   37.8180   26.1900   37.1640 S   0  0  0  0  0  0  0  0  0  0  0  0
   40.0692   32.6946   40.7772 H   0  0  0  0  0  0  0  0  0  0  0  0
   39.9479   30.4930   41.9987 H   0  0  0  0  0  0  0  0  0  0  0  0
   35.9490   32.4691   39.8637 H   0  0  0  0  0  0  0  0  0  0  0  0
   37.9792   29.5737   44.3194 H   0  0  0  0  0  0  0  0  0  0  0  0
   37.0363   24.7660   42.9654 H   0  0  0  0  0  0  0  0  0  0  0  0
   34.8423   24.9254   38.8267 H   0  0  0  0  0  0  0  0  0  0  0  0
   34.7837   24.3956   36.3689 H   0  0  0  0  0  0  0  0  0  0  0  0
   36.8275   25.2053   34.9381 H   0  0  0  0  0  0  0  0  0  0  0  0
  1  2  2  0
  2  3  1  0
  3  7  1  0
  4  3  2  0
  5  4  1  0
  6  5  2  0
  6  1  1  0
  7  8  1  0
  8  9  2  0
 10  9  1  0
 11 10  2  0
 12 11  1  0
 13 14  1  0
 13 12  2  0
 14 15  2  0
 15  7  1  0
 15 10  1  0
 16 13  1  0
 17 16  2  0
 18 17  1  0
 19 18  2  0
 19 20  1  0
 20 16  1  0
  1 21  1  0
  2 22  1  0
  5 23  1  0
  8 24  1  0
 11 25  1  0
 17 26  1  0
 18 27  1  0
 19 28  1  0
M  ISO  8  21  14  22  14  23  14  24  14  25  14  26  14  27  14  28  14
M  END
>  <minimizedAffinity>  (1) 
-4.72076893

>  <minimizedRMSD>  (1) 
0.268609822

$$$$
