
     RDKit          3D

 34 36  0  0  1  0  0  0  0  0999 V2000
   35.3660   28.0110   38.1690 C   0  0  0  0  0  0  0  0  0  0  0  0
   34.3840   28.7980   38.7790 C   0  0  0  0  0  0  0  0  0  0  0  0
   35.0630   29.4260   39.7870 C   0  0  0  0  0  0  0  0  0  0  0  0
   36.3680   29.0530   39.7970 N   0  0  0  0  0  0  0  0  0  0  0  0
   36.5390   28.1890   38.8050 N   0  0  0  0  0  0  0  0  0  0  0  0
   36.0010   26.9780   35.9690 C   0  0  0  0  0  0  0  0  0  0  0  0
   35.1220   27.1520   37.0300 C   0  0  0  0  0  0  0  0  0  0  0  0
   33.9160   26.4420   36.9930 C   0  0  0  0  0  0  0  0  0  0  0  0
   33.6550   25.6170   35.9300 N   0  0  0  0  0  0  0  0  0  0  0  0
   34.5870   25.4990   34.9100 C   0  0  0  0  0  0  0  0  0  0  0  0
   35.7570   26.1820   34.9350 N   0  0  0  0  0  0  0  0  0  0  0  0
   37.3010   29.6010   40.7650 C   0  0  1  0  0  0  0  0  0  0  0  0
   37.0540   30.9910   40.9850 N   0  0  0  0  0  0  0  0  0  0  0  0
   37.6580   32.0310   40.2530 C   0  0  0  0  0  0  0  0  0  0  0  0
   38.6010   31.7030   39.4560 N   0  0  0  0  0  0  0  0  0  0  0  0
   37.2610   33.3680   40.4060 N   0  0  0  0  0  0  0  0  0  0  0  0
   39.1100   32.4250   38.9010 H   0  0  0  0  0  0  0  0  0  0  0  0
   37.1080   28.8290   42.0670 C   0  0  0  0  0  0  0  0  0  0  0  0
   36.4450   27.6320   42.2490 C   0  0  0  0  0  0  0  0  0  0  0  0
   36.5330   27.3250   43.5910 C   0  0  0  0  0  0  0  0  0  0  0  0
   37.2460   28.3500   44.1650 C   0  0  0  0  0  0  0  0  0  0  0  0
   37.5680   29.2100   43.2550 O   0  0  0  0  0  0  0  0  0  0  0  0
   33.3208   28.8900   38.5123 H   0  0  0  0  0  0  0  0  0  0  0  0
   34.6120   30.1376   40.4943 H   0  0  0  0  0  0  0  0  0  0  0  0
   36.9521   27.5304   35.9864 H   0  0  0  0  0  0  0  0  0  0  0  0
   33.1853   26.5452   37.8087 H   0  0  0  0  0  0  0  0  0  0  0  0
   34.3713   24.8349   34.0601 H   0  0  0  0  0  0  0  0  0  0  0  0
   38.3314   29.5031   40.3926 H   0  0  0  0  0  0  0  0  0  0  0  0
   36.3898   31.2494   41.7286 H   0  0  0  0  0  0  0  0  0  0  0  0
   37.7212   34.1079   39.8568 H   0  0  0  0  0  0  0  0  0  0  0  0
   36.5094   33.6096   41.0675 H   0  0  0  0  0  0  0  0  0  0  0  0
   35.9425   27.0367   41.4724 H   0  0  0  0  0  0  0  0  0  0  0  0
   36.1178   26.4413   44.0976 H   0  0  0  0  0  0  0  0  0  0  0  0
   37.5026   28.4267   45.2319 H   0  0  0  0  0  0  0  0  0  0  0  0
  1  2  1  0
  1  5  2  0
  2  3  2  0
  3  4  1  0
  4 12  1  0
  5  4  1  0
  6  7  2  0
  7  1  1  0
  8  7  1  0
  9  8  2  0
 10 11  2  0
 10  9  1  0
 11  6  1  0
 12 13  1  0
 12 18  1  0
 14 16  1  0
 14 13  1  0
 15 14  2  0
 17 15  1  0
 18 19  2  0
 18 22  1  0
 19 20  1  0
 20 21  2  0
 22 21  1  0
  2 23  1  0
  3 24  1  0
  6 25  1  0
  8 26  1  0
 10 27  1  0
 12 28  1  6
 13 29  1  0
 16 30  1  0
 16 31  1  0
 19 32  1  0
 20 33  1  0
 21 34  1  0
M  ISO  8  23  14  24  14  25  14  26  14  27  14  28   8  32  14  33  14
M  ISO  1  34  14
M  END
>  <minimizedAffinity>  (1) 
-4.83713007

>  <minimizedRMSD>  (1) 
6.43460655

$$$$
