
     RDKit          3D

 22 24  0  0  0  0  0  0  0  0999 V2000
   39.0120   32.1030   40.9550 C   0  0  0  0  0  0  0  0  0  0  0  0
   38.9550   30.8800   41.6500 C   0  0  0  0  0  0  0  0  0  0  0  0
   37.7430   30.2140   41.6390 C   0  0  0  0  0  0  0  0  0  0  0  0
   36.7050   30.7650   40.9740 N   0  0  0  0  0  0  0  0  0  0  0  0
   36.7870   31.9310   40.3200 C   0  0  0  0  0  0  0  0  0  0  0  0
   37.9570   32.6220   40.3030 N   0  0  0  0  0  0  0  0  0  0  0  0
   37.5850   28.9780   42.3090 N   0  0  0  0  0  0  0  0  0  0  0  0
   37.6000   28.7430   43.6140 C   0  0  0  0  0  0  0  0  0  0  0  0
   37.4120   27.4140   43.8720 N   0  0  0  0  0  0  0  0  0  0  0  0
   37.2730   26.7870   42.6850 C   0  0  0  0  0  0  0  0  0  0  0  0
   37.0650   25.4940   42.2650 C   0  0  0  0  0  0  0  0  0  0  0  0
   36.9730   25.2150   40.9530 N   0  0  0  0  0  0  0  0  0  0  0  0
   37.0880   26.2180   40.0630 C   0  0  0  0  0  0  0  0  0  0  0  0
   37.2900   27.4860   40.4090 N   0  0  0  0  0  0  0  0  0  0  0  0
   37.3860   27.7920   41.7230 C   0  0  0  0  0  0  0  0  0  0  0  0
   36.9900   25.9090   38.7120 O   0  0  0  0  0  0  0  0  0  0  0  0
   39.9615   32.6584   40.9450 H   0  0  0  0  0  0  0  0  0  0  0  0
   39.8316   30.4740   42.1761 H   0  0  0  0  0  0  0  0  0  0  0  0
   35.9060   32.3298   39.7959 H   0  0  0  0  0  0  0  0  0  0  0  0
   37.7443   29.5140   44.3852 H   0  0  0  0  0  0  0  0  0  0  0  0
   36.9736   24.6853   43.0051 H   0  0  0  0  0  0  0  0  0  0  0  0
   36.8397   24.9726   38.4280 H   0  0  0  0  0  0  0  0  0  0  0  0
  1  2  2  0
  3  2  1  0
  3  7  1  0
  4  3  2  0
  5  4  1  0
  6  5  2  0
  6  1  1  0
  7  8  1  0
  8  9  2  0
 10  9  1  0
 11 10  2  0
 12 11  1  0
 13 14  1  0
 13 12  2  0
 14 15  2  0
 15  7  1  0
 15 10  1  0
 16 13  1  0
  1 17  1  0
  2 18  1  0
  5 19  1  0
  8 20  1  0
 11 21  1  0
 16 22  1  0
M  ISO  6  17  14  18  14  19  14  20  14  21  14  22   3
M  END
>  <minimizedAffinity>  (1) 
-4.51022816

>  <minimizedRMSD>  (1) 
0.258771658

$$$$
