
     RDKit          3D

 23 25  0  0  0  0  0  0  0  0999 V2000
   39.0100   32.1150   40.9360 C   0  0  0  0  0  0  0  0  0  0  0  0
   38.9660   30.8840   41.6270 C   0  0  0  0  0  0  0  0  0  0  0  0
   37.7250   30.2300   41.6280 C   0  0  0  0  0  0  0  0  0  0  0  0
   36.6670   30.7830   40.9930 N   0  0  0  0  0  0  0  0  0  0  0  0
   36.7760   31.9620   40.3500 C   0  0  0  0  0  0  0  0  0  0  0  0
   37.9400   32.6380   40.3130 N   0  0  0  0  0  0  0  0  0  0  0  0
   37.5870   28.9920   42.2960 N   0  0  0  0  0  0  0  0  0  0  0  0
   37.6520   28.7440   43.6080 C   0  0  0  0  0  0  0  0  0  0  0  0
   37.4670   27.4110   43.8580 N   0  0  0  0  0  0  0  0  0  0  0  0
   37.2810   26.8040   42.6840 C   0  0  0  0  0  0  0  0  0  0  0  0
   37.0520   25.5140   42.2800 C   0  0  0  0  0  0  0  0  0  0  0  0
   36.9050   25.2380   40.9550 N   0  0  0  0  0  0  0  0  0  0  0  0
   36.9910   26.2500   40.0740 C   0  0  0  0  0  0  0  0  0  0  0  0
   37.2110   27.5130   40.4050 N   0  0  0  0  0  0  0  0  0  0  0  0
   37.3610   27.8110   41.7200 C   0  0  0  0  0  0  0  0  0  0  0  0
   36.8320   25.9440   38.6560 C   0  0  0  0  0  0  0  0  0  0  0  0
   35.7370   25.9870   38.0600 O   0  0  0  0  0  0  0  0  0  0  0  0
   39.9599   32.6690   40.9064 H   0  0  0  0  0  0  0  0  0  0  0  0
   39.8486   30.4648   42.1322 H   0  0  0  0  0  0  0  0  0  0  0  0
   35.8942   32.3818   39.8438 H   0  0  0  0  0  0  0  0  0  0  0  0
   37.8298   29.5065   44.3806 H   0  0  0  0  0  0  0  0  0  0  0  0
   36.9873   24.7056   43.0232 H   0  0  0  0  0  0  0  0  0  0  0  0
   37.7261   25.6601   38.0816 H   0  0  0  0  0  0  0  0  0  0  0  0
  1  2  2  0
  2  3  1  0
  3  7  1  0
  4  3  2  0
  5  4  1  0
  6  5  2  0
  6  1  1  0
  7  8  1  0
  8  9  2  0
 10  9  1  0
 11 10  2  0
 12 11  1  0
 13 14  1  0
 13 12  2  0
 14 15  2  0
 15  7  1  0
 15 10  1  0
 16 13  1  0
 17 16  2  0
  1 18  1  0
  2 19  1  0
  5 20  1  0
  8 21  1  0
 11 22  1  0
 16 23  1  0
M  ISO  6  18  14  19  14  20  14  21  14  22  14  23   6
M  END
>  <minimizedAffinity>  (1) 
-4.43531895

>  <minimizedRMSD>  (1) 
0.619647741

$$$$
