
     RDKit          3D

 35 39  0  0  1  0  0  0  0  0999 V2000
   40.6400   33.1430   40.1440 C   0  0  0  0  0  0  0  0  0  0  0  0
   40.3420   31.9170   40.7750 C   0  0  0  0  0  0  0  0  0  0  0  0
   38.9840   31.6840   41.0570 C   0  0  0  0  0  0  0  0  0  0  0  0
   38.0750   32.6030   40.7260 N   0  0  0  0  0  0  0  0  0  0  0  0
   38.4110   33.7590   40.1260 C   0  0  0  0  0  0  0  0  0  0  0  0
   39.7050   34.0460   39.8250 N   0  0  0  0  0  0  0  0  0  0  0  0
   38.6030   30.4680   41.6860 N   0  0  0  0  0  0  0  0  0  0  0  0
   38.8760   30.0420   42.8960 C   0  0  0  0  0  0  0  0  0  0  0  0
   38.3290   28.7990   43.1090 N   0  0  0  0  0  0  0  0  0  0  0  0
   37.6940   28.4390   41.9910 C   0  0  0  0  0  0  0  0  0  0  0  0
   36.9800   27.3490   41.5870 C   0  0  0  0  0  0  0  0  0  0  0  0
   36.4540   27.3070   40.3350 N   0  0  0  0  0  0  0  0  0  0  0  0
   36.6540   28.3570   39.5110 C   0  0  0  0  0  0  0  0  0  0  0  0
   37.3420   29.4430   39.8570 N   0  0  0  0  0  0  0  0  0  0  0  0
   37.8750   29.5010   41.1040 C   0  0  0  0  0  0  0  0  0  0  0  0
   36.0710   28.2590   38.1380 C   0  0  1  0  0  0  0  0  0  0  0  0
   34.7500   29.0180   37.8970 C   0  0  0  0  0  0  0  0  0  0  0  0
   36.0360   29.3950   37.2350 C   0  0  2  0  0  0  0  0  0  0  0  0
   36.1740   29.2250   35.7550 C   0  0  0  0  0  0  0  0  0  0  0  0
   36.3590   30.2630   34.8410 C   0  0  0  0  0  0  0  0  0  0  0  0
   36.4350   29.6520   33.5890 C   0  0  0  0  0  0  0  0  0  0  0  0
   36.2990   28.3150   33.7790 N   0  0  0  0  0  0  0  0  0  0  0  0
   36.1450   28.0770   35.0700 N   0  0  0  0  0  0  0  0  0  0  0  0
   41.6896   33.3673   39.9029 H   0  0  0  0  0  0  0  0  0  0  0  0
   41.1244   31.1874   41.0310 H   0  0  0  0  0  0  0  0  0  0  0  0
   37.6242   34.4854   39.8743 H   0  0  0  0  0  0  0  0  0  0  0  0
   39.4625   30.6027   43.6388 H   0  0  0  0  0  0  0  0  0  0  0  0
   36.8301   26.5039   42.2750 H   0  0  0  0  0  0  0  0  0  0  0  0
   36.4473   27.2310   38.0305 H   0  0  0  0  0  0  0  0  0  0  0  0
   33.9384   28.5550   37.3165 H   0  0  0  0  0  0  0  0  0  0  0  0
   33.9994   29.5246   38.5214 H   0  0  0  0  0  0  0  0  0  0  0  0
   36.6332   30.3168   37.1742 H   0  0  0  0  0  0  0  0  0  0  0  0
   36.4301   31.3383   35.0615 H   0  0  0  0  0  0  0  0  0  0  0  0
   36.5788   30.1608   32.6244 H   0  0  0  0  0  0  0  0  0  0  0  0
   36.3135   27.6010   33.0368 H   0  0  0  0  0  0  0  0  0  0  0  0
  1  2  2  0
  2  3  1  0
  3  7  1  0
  4  3  2  0
  5  4  1  0
  6  5  2  0
  6  1  1  0
  7  8  1  0
  8  9  2  0
 10  9  1  0
 11 10  2  0
 12 11  1  0
 13 14  1  0
 13 12  2  0
 14 15  2  0
 15  7  1  0
 15 10  1  0
 16 13  1  0
 17 16  1  0
 18 17  1  0
 18 16  1  0
 19 18  1  0
 20 19  1  0
 21 22  1  0
 21 20  2  0
 22 23  1  0
 23 19  2  0
  1 24  1  0
  2 25  1  0
  5 26  1  0
  8 27  1  0
 11 28  1  0
 16 29  1  6
 17 30  1  0
 17 31  1  0
 18 32  1  1
 20 33  1  0
 21 34  1  0
 22 35  1  0
M  ISO  8  24  14  25  14  26  14  27  14  28  14  29  13  30  13  31  13
M  ISO  4  32  13  33  14  34  14  35   9
M  END
>  <minimizedAffinity>  (1) 
-5.578866

>  <minimizedRMSD>  (1) 
2.36551905

$$$$
