
     RDKit          3D

 41 45  0  0  1  0  0  0  0  0999 V2000
   39.0950   32.1860   40.9370 C   0  0  0  0  0  0  0  0  0  0  0  0
   39.0360   30.9470   41.6000 C   0  0  0  0  0  0  0  0  0  0  0  0
   37.8140   30.2880   41.6290 C   0  0  0  0  0  0  0  0  0  0  0  0
   36.7660   30.8580   41.0320 N   0  0  0  0  0  0  0  0  0  0  0  0
   36.8490   32.0440   40.4070 C   0  0  0  0  0  0  0  0  0  0  0  0
   38.0100   32.7120   40.3570 N   0  0  0  0  0  0  0  0  0  0  0  0
   37.6860   29.0270   42.2780 N   0  0  0  0  0  0  0  0  0  0  0  0
   37.7910   28.7490   43.5590 C   0  0  0  0  0  0  0  0  0  0  0  0
   37.6060   27.4130   43.7840 N   0  0  0  0  0  0  0  0  0  0  0  0
   37.3750   26.8320   42.5830 C   0  0  0  0  0  0  0  0  0  0  0  0
   37.1270   25.5560   42.1350 C   0  0  0  0  0  0  0  0  0  0  0  0
   36.9430   25.3190   40.8270 N   0  0  0  0  0  0  0  0  0  0  0  0
   37.0050   26.3480   39.9640 C   0  0  0  0  0  0  0  0  0  0  0  0
   37.2410   27.6010   40.3470 N   0  0  0  0  0  0  0  0  0  0  0  0
   37.4320   27.8710   41.6620 C   0  0  0  0  0  0  0  0  0  0  0  0
   36.8220   26.0250   38.5180 C   0  0  1  0  0  0  0  0  0  0  0  0
   35.4800   25.3630   38.1360 C   0  0  0  0  0  0  0  0  0  0  0  0
   35.8650   26.7350   37.6870 C   0  0  2  0  0  0  0  0  0  0  0  0
   36.0290   27.0440   36.2550 C   0  0  0  0  0  0  0  0  0  0  0  0
   37.2240   27.7960   35.8200 C   0  0  0  0  0  0  0  0  0  0  0  0
   36.7660   28.8160   34.7680 C   0  0  0  0  0  0  0  0  0  0  0  0
   35.4370   28.2310   34.3460 C   0  0  0  0  0  0  0  0  0  0  0  0
   34.8440   27.8520   35.7090 C   0  0  0  0  0  0  0  0  0  0  0  0
   40.0491   32.7317   40.8946 H   0  0  0  0  0  0  0  0  0  0  0  0
   39.9270   30.5149   42.0790 H   0  0  0  0  0  0  0  0  0  0  0  0
   35.9544   32.4718   39.9310 H   0  0  0  0  0  0  0  0  0  0  0  0
   37.9995   29.4911   44.3437 H   0  0  0  0  0  0  0  0  0  0  0  0
   37.0791   24.7242   42.8532 H   0  0  0  0  0  0  0  0  0  0  0  0
   37.8955   25.8138   38.4040 H   0  0  0  0  0  0  0  0  0  0  0  0
   35.4535   24.5285   37.4198 H   0  0  0  0  0  0  0  0  0  0  0  0
   34.6345   24.9118   38.6761 H   0  0  0  0  0  0  0  0  0  0  0  0
   35.4335   27.7434   37.7703 H   0  0  0  0  0  0  0  0  0  0  0  0
   36.1212   26.0224   35.8577 H   0  0  0  0  0  0  0  0  0  0  0  0
   37.6736   28.3169   36.6782 H   0  0  0  0  0  0  0  0  0  0  0  0
   37.9792   27.1160   35.3990 H   0  0  0  0  0  0  0  0  0  0  0  0
   36.6442   29.8180   35.2051 H   0  0  0  0  0  0  0  0  0  0  0  0
   37.4772   28.9604   33.9413 H   0  0  0  0  0  0  0  0  0  0  0  0
   34.8144   28.9740   33.8261 H   0  0  0  0  0  0  0  0  0  0  0  0
   35.5125   27.3959   33.6341 H   0  0  0  0  0  0  0  0  0  0  0  0
   34.6254   28.7359   36.3262 H   0  0  0  0  0  0  0  0  0  0  0  0
   33.8788   27.3251   35.6805 H   0  0  0  0  0  0  0  0  0  0  0  0
  1  2  2  0
  2  3  1  0
  3  7  1  0
  4  3  2  0
  5  4  1  0
  6  5  2  0
  6  1  1  0
  7  8  1  0
  8  9  2  0
 10  9  1  0
 11 10  2  0
 12 11  1  0
 13 14  1  0
 13 12  2  0
 14 15  2  0
 15  7  1  0
 15 10  1  0
 16 13  1  0
 17 16  1  0
 18 17  1  0
 18 16  1  0
 19 18  1  0
 20 19  1  0
 21 20  1  0
 22 21  1  0
 22 23  1  0
 23 19  1  0
  1 24  1  0
  2 25  1  0
  5 26  1  0
  8 27  1  0
 11 28  1  0
 16 29  1  6
 17 30  1  0
 17 31  1  0
 18 32  1  1
 19 33  1  0
 20 34  1  0
 20 35  1  0
 21 36  1  0
 21 37  1  0
 22 38  1  0
 22 39  1  0
 23 40  1  0
 23 41  1  0
M  ISO  8  24  14  25  14  26  14  27  14  28  14  29  13  30  13  31  13
M  ISO  8  32  13  33  13  34  13  35  13  36  13  37  13  38  13  39  13
M  ISO  2  40  13  41  13
M  END
>  <minimizedAffinity>  (1) 
-5.27961016

>  <minimizedRMSD>  (1) 
1.12101305

$$$$
