
     RDKit          3D

 33 37  0  0  1  0  0  0  0  0999 V2000
   39.0090   32.1530   40.8320 C   0  0  0  0  0  0  0  0  0  0  0  0
   38.9820   30.9270   41.5200 C   0  0  0  0  0  0  0  0  0  0  0  0
   37.7640   30.2570   41.6120 C   0  0  0  0  0  0  0  0  0  0  0  0
   36.6890   30.8100   41.0460 N   0  0  0  0  0  0  0  0  0  0  0  0
   36.7450   31.9880   40.3930 C   0  0  0  0  0  0  0  0  0  0  0  0
   37.8970   32.6600   40.2840 N   0  0  0  0  0  0  0  0  0  0  0  0
   37.6780   29.0110   42.2860 N   0  0  0  0  0  0  0  0  0  0  0  0
   37.8380   28.7550   43.5660 C   0  0  0  0  0  0  0  0  0  0  0  0
   37.6800   27.4100   43.8190 N   0  0  0  0  0  0  0  0  0  0  0  0
   37.4140   26.8150   42.6510 C   0  0  0  0  0  0  0  0  0  0  0  0
   37.1660   25.5280   42.2210 C   0  0  0  0  0  0  0  0  0  0  0  0
   36.9340   25.2700   40.9300 N   0  0  0  0  0  0  0  0  0  0  0  0
   36.9430   26.2810   40.0470 C   0  0  0  0  0  0  0  0  0  0  0  0
   37.1750   27.5490   40.3880 N   0  0  0  0  0  0  0  0  0  0  0  0
   37.4150   27.8370   41.6960 C   0  0  0  0  0  0  0  0  0  0  0  0
   36.7070   25.9490   38.6110 C   0  0  1  0  0  0  0  0  0  0  0  0
   35.5820   24.9550   38.3100 C   0  0  0  0  0  0  0  0  0  0  0  0
   35.5080   26.3780   37.9130 C   0  0  2  0  0  0  0  0  0  0  0  0
   35.6330   26.7930   36.4950 C   0  0  0  0  0  0  0  0  0  0  0  0
   35.5290   26.0260   35.3930 N   0  0  0  0  0  0  0  0  0  0  0  0
   35.6970   26.7300   34.3120 O   0  0  0  0  0  0  0  0  0  0  0  0
   35.9180   27.9890   34.6630 C   0  0  0  0  0  0  0  0  0  0  0  0
   35.8800   28.0270   36.0160 N   0  0  0  0  0  0  0  0  0  0  0  0
   39.9570   32.7036   40.7426 H   0  0  0  0  0  0  0  0  0  0  0  0
   39.8942   30.5099   41.9715 H   0  0  0  0  0  0  0  0  0  0  0  0
   35.8307   32.4027   39.9434 H   0  0  0  0  0  0  0  0  0  0  0  0
   38.0669   29.5119   44.3307 H   0  0  0  0  0  0  0  0  0  0  0  0
   37.1591   24.7038   42.9494 H   0  0  0  0  0  0  0  0  0  0  0  0
   37.7805   26.0496   38.3930 H   0  0  0  0  0  0  0  0  0  0  0  0
   35.7201   24.1718   37.5500 H   0  0  0  0  0  0  0  0  0  0  0  0
   34.9590   24.2636   38.8964 H   0  0  0  0  0  0  0  0  0  0  0  0
   34.7459   27.1540   38.0775 H   0  0  0  0  0  0  0  0  0  0  0  0
   36.0974   28.8378   33.9867 H   0  0  0  0  0  0  0  0  0  0  0  0
  1  2  2  0
  2  3  1  0
  3  7  1  0
  4  3  2  0
  5  4  1  0
  6  5  2  0
  6  1  1  0
  7  8  1  0
  8  9  2  0
 10  9  1  0
 11 10  2  0
 12 11  1  0
 13 14  1  0
 13 12  2  0
 14 15  2  0
 15  7  1  0
 15 10  1  0
 16 13  1  0
 17 16  1  0
 18 17  1  0
 18 16  1  0
 19 18  1  0
 20 19  2  0
 21 22  1  0
 21 20  1  0
 22 23  2  0
 23 19  1  0
  1 24  1  0
  2 25  1  0
  5 26  1  0
  8 27  1  0
 11 28  1  0
 16 29  1  6
 17 30  1  0
 17 31  1  0
 18 32  1  1
 22 33  1  0
M  ISO  8  24  14  25  14  26  14  27  14  28  14  29  13  30  13  31  13
M  ISO  2  32  13  33  14
M  END
>  <minimizedAffinity>  (1) 
-5.04653168

>  <minimizedRMSD>  (1) 
1.107476

$$$$
