
     RDKit          3D

 37 40  0  0  1  0  0  0  0  0999 V2000
   39.0680   32.1200   40.9570 C   0  0  0  0  0  0  0  0  0  0  0  0
   38.9870   30.9060   41.6670 C   0  0  0  0  0  0  0  0  0  0  0  0
   37.7510   30.2450   41.6310 C   0  0  0  0  0  0  0  0  0  0  0  0
   36.7440   30.7880   40.9450 N   0  0  0  0  0  0  0  0  0  0  0  0
   36.8610   31.9490   40.2800 C   0  0  0  0  0  0  0  0  0  0  0  0
   38.0320   32.6310   40.2800 N   0  0  0  0  0  0  0  0  0  0  0  0
   37.5910   29.0060   42.3180 N   0  0  0  0  0  0  0  0  0  0  0  0
   37.6210   28.7720   43.6070 C   0  0  0  0  0  0  0  0  0  0  0  0
   37.4360   27.4380   43.8720 N   0  0  0  0  0  0  0  0  0  0  0  0
   37.2870   26.8200   42.6910 C   0  0  0  0  0  0  0  0  0  0  0  0
   37.0790   25.5230   42.2610 C   0  0  0  0  0  0  0  0  0  0  0  0
   36.9770   25.2400   40.9580 N   0  0  0  0  0  0  0  0  0  0  0  0
   37.0790   26.2410   40.0620 C   0  0  0  0  0  0  0  0  0  0  0  0
   37.2790   27.5110   40.4130 N   0  0  0  0  0  0  0  0  0  0  0  0
   37.3860   27.8190   41.7210 C   0  0  0  0  0  0  0  0  0  0  0  0
   36.9830   25.8690   38.6210 C   0  0  1  0  0  0  0  0  0  0  0  0
   35.5850   25.9370   37.9810 C   0  0  0  0  0  0  0  0  0  0  0  0
   36.7050   26.8410   37.5820 C   0  0  2  0  0  0  0  0  0  0  0  0
   37.3480   26.7510   36.2250 C   0  0  0  0  0  0  0  0  0  0  0  0
   38.6000   25.9030   36.2410 C   0  0  0  0  0  0  0  0  0  0  0  0
   37.6740   28.1510   35.7480 C   0  0  0  0  0  0  0  0  0  0  0  0
   40.0205   32.6702   40.9589 H   0  0  0  0  0  0  0  0  0  0  0  0
   39.8466   30.4988   42.2195 H   0  0  0  0  0  0  0  0  0  0  0  0
   35.9973   32.3504   39.7296 H   0  0  0  0  0  0  0  0  0  0  0  0
   37.7743   29.5435   44.3759 H   0  0  0  0  0  0  0  0  0  0  0  0
   36.9963   24.7128   43.0004 H   0  0  0  0  0  0  0  0  0  0  0  0
   37.7827   25.1246   38.7494 H   0  0  0  0  0  0  0  0  0  0  0  0
   35.2422   25.1410   37.3036 H   0  0  0  0  0  0  0  0  0  0  0  0
   34.5524   26.0617   38.3392 H   0  0  0  0  0  0  0  0  0  0  0  0
   36.8119   27.9337   37.5151 H   0  0  0  0  0  0  0  0  0  0  0  0
   36.6402   26.2642   35.5379 H   0  0  0  0  0  0  0  0  0  0  0  0
   38.8945   25.7035   37.2819 H   0  0  0  0  0  0  0  0  0  0  0  0
   38.4044   24.9507   35.7264 H   0  0  0  0  0  0  0  0  0  0  0  0
   39.4118   26.4379   35.7264 H   0  0  0  0  0  0  0  0  0  0  0  0
   37.8270   28.8081   36.6168 H   0  0  0  0  0  0  0  0  0  0  0  0
   38.5906   28.1272   35.1404 H   0  0  0  0  0  0  0  0  0  0  0  0
   36.8411   28.5346   35.1404 H   0  0  0  0  0  0  0  0  0  0  0  0
  1  2  2  0
  3  2  1  0
  3  7  1  0
  4  3  2  0
  5  4  1  0
  6  5  2  0
  6  1  1  0
  7  8  1  0
  8  9  2  0
 10  9  1  0
 11 10  2  0
 12 11  1  0
 13 14  1  0
 13 12  2  0
 14 15  2  0
 15  7  1  0
 15 10  1  0
 16 13  1  0
 17 16  1  0
 18 17  1  0
 18 16  1  0
 19 20  1  0
 19 18  1  0
 21 19  1  0
  1 22  1  0
  2 23  1  0
  5 24  1  0
  8 25  1  0
 11 26  1  0
 16 27  1  6
 17 28  1  0
 17 29  1  0
 18 30  1  1
 19 31  1  0
 20 32  1  0
 20 33  1  0
 20 34  1  0
 21 35  1  0
 21 36  1  0
 21 37  1  0
M  ISO  8  22  14  23  14  24  14  25  14  26  14  27  13  28  13  29  13
M  ISO  8  30  13  31   8  32   8  33   8  34   8  35   8  36   8  37   8
M  END
>  <minimizedAffinity>  (1) 
-5.03488731

>  <minimizedRMSD>  (1) 
0.30728662

$$$$
