
     RDKit          3D

 35 39  0  0  1  0  0  0  0  0999 V2000
   39.0660   32.1480   41.0390 C   0  0  0  0  0  0  0  0  0  0  0  0
   38.9670   30.9200   41.7170 C   0  0  0  0  0  0  0  0  0  0  0  0
   37.7450   30.2600   41.6810 C   0  0  0  0  0  0  0  0  0  0  0  0
   36.7360   30.8200   41.0110 N   0  0  0  0  0  0  0  0  0  0  0  0
   36.8570   31.9960   40.3690 C   0  0  0  0  0  0  0  0  0  0  0  0
   38.0220   32.6690   40.3790 N   0  0  0  0  0  0  0  0  0  0  0  0
   37.5880   29.0060   42.3460 N   0  0  0  0  0  0  0  0  0  0  0  0
   37.6270   28.7490   43.6300 C   0  0  0  0  0  0  0  0  0  0  0  0
   37.4400   27.4060   43.8660 N   0  0  0  0  0  0  0  0  0  0  0  0
   37.2800   26.8220   42.6690 C   0  0  0  0  0  0  0  0  0  0  0  0
   37.0660   25.5300   42.2190 C   0  0  0  0  0  0  0  0  0  0  0  0
   36.9530   25.2730   40.9110 N   0  0  0  0  0  0  0  0  0  0  0  0
   37.0520   26.2940   40.0350 C   0  0  0  0  0  0  0  0  0  0  0  0
   37.2580   27.5590   40.4020 N   0  0  0  0  0  0  0  0  0  0  0  0
   37.3760   27.8390   41.7260 C   0  0  0  0  0  0  0  0  0  0  0  0
   36.9440   25.9550   38.5840 C   0  0  1  0  0  0  0  0  0  0  0  0
   35.5140   25.8190   38.0240 C   0  0  0  0  0  0  0  0  0  0  0  0
   36.4510   26.9080   37.6060 C   0  0  2  0  0  0  0  0  0  0  0  0
   36.9700   26.9680   36.1870 C   0  0  0  0  0  0  0  0  0  0  0  0
   37.8510   28.0900   35.7440 C   0  0  0  0  0  0  0  0  0  0  0  0
   36.4180   28.0160   35.2340 C   0  0  0  0  0  0  0  0  0  0  0  0
   40.0213   32.6932   41.0505 H   0  0  0  0  0  0  0  0  0  0  0  0
   39.8269   30.4968   42.2569 H   0  0  0  0  0  0  0  0  0  0  0  0
   35.9934   32.4122   39.8296 H   0  0  0  0  0  0  0  0  0  0  0  0
   37.7875   29.5043   44.4134 H   0  0  0  0  0  0  0  0  0  0  0  0
   36.9881   24.7067   42.9443 H   0  0  0  0  0  0  0  0  0  0  0  0
   37.8588   25.3462   38.6343 H   0  0  0  0  0  0  0  0  0  0  0  0
   35.2616   25.0034   37.3304 H   0  0  0  0  0  0  0  0  0  0  0  0
   34.4986   25.7618   38.4431 H   0  0  0  0  0  0  0  0  0  0  0  0
   36.4048   28.0070   37.5941 H   0  0  0  0  0  0  0  0  0  0  0  0
   37.0612   25.8718   36.1753 H   0  0  0  0  0  0  0  0  0  0  0  0
   38.1394   28.8757   36.4578 H   0  0  0  0  0  0  0  0  0  0  0  0
   38.8404   28.1566   35.2678 H   0  0  0  0  0  0  0  0  0  0  0  0
   35.6683   28.7413   35.5832 H   0  0  0  0  0  0  0  0  0  0  0  0
   35.9367   28.0016   34.2450 H   0  0  0  0  0  0  0  0  0  0  0  0
  1  2  2  0
  3  2  1  0
  3  7  1  0
  4  3  2  0
  5  6  2  0
  5  4  1  0
  6  1  1  0
  7  8  1  0
  8  9  2  0
 10  9  1  0
 11 10  2  0
 12 11  1  0
 13 14  1  0
 13 12  2  0
 14 15  2  0
 15  7  1  0
 15 10  1  0
 16 13  1  0
 17 16  1  0
 18 17  1  0
 18 16  1  0
 19 18  1  0
 20 19  1  0
 21 20  1  0
 21 19  1  0
  1 22  1  0
  2 23  1  0
  5 24  1  0
  8 25  1  0
 11 26  1  0
 16 27  1  6
 17 28  1  0
 17 29  1  0
 18 30  1  1
 19 31  1  0
 20 32  1  0
 20 33  1  0
 21 34  1  0
 21 35  1  0
M  ISO  8  22  14  23  14  24  14  25  14  26  14  27  13  28  13  29  13
M  ISO  6  30  13  31  13  32  13  33  13  34  13  35  13
M  END
>  <minimizedAffinity>  (1) 
-4.96626806

>  <minimizedRMSD>  (1) 
0.180383265

$$$$
