
     RDKit          3D

 36 40  0  0  1  0  0  0  0  0999 V2000
   38.3690   31.5490   40.7870 C   0  0  0  0  0  0  0  0  0  0  0  0
   38.8480   30.3640   41.3740 C   0  0  0  0  0  0  0  0  0  0  0  0
   37.8960   29.4160   41.7670 C   0  0  0  0  0  0  0  0  0  0  0  0
   36.6040   29.6850   41.5690 N   0  0  0  0  0  0  0  0  0  0  0  0
   36.1820   30.8280   41.0060 C   0  0  0  0  0  0  0  0  0  0  0  0
   37.0630   31.7720   40.6100 N   0  0  0  0  0  0  0  0  0  0  0  0
   38.3200   28.1920   42.3590 N   0  0  0  0  0  0  0  0  0  0  0  0
   38.9160   27.9980   43.5090 C   0  0  0  0  0  0  0  0  0  0  0  0
   39.1720   26.6640   43.7160 N   0  0  0  0  0  0  0  0  0  0  0  0
   38.7140   26.0070   42.6470 C   0  0  0  0  0  0  0  0  0  0  0  0
   38.6670   24.6990   42.2420 C   0  0  0  0  0  0  0  0  0  0  0  0
   38.1130   24.3620   41.0480 N   0  0  0  0  0  0  0  0  0  0  0  0
   37.6160   25.3400   40.2800 C   0  0  0  0  0  0  0  0  0  0  0  0
   37.6280   26.6320   40.6090 N   0  0  0  0  0  0  0  0  0  0  0  0
   38.1770   26.9840   41.7970 C   0  0  0  0  0  0  0  0  0  0  0  0
   37.0350   24.9250   38.9590 C   0  0  1  0  0  0  0  0  0  0  0  0
   35.6830   24.1880   39.0030 C   0  0  0  0  0  0  0  0  0  0  0  0
   35.8440   25.5490   38.4110 C   0  0  2  0  0  0  0  0  0  0  0  0
   35.7660   25.6950   36.9180 C   0  0  0  0  0  0  0  0  0  0  0  0
   34.9410   26.6140   36.3050 C   0  0  0  0  0  0  0  0  0  0  0  0
   34.9030   26.7120   34.9100 C   0  0  0  0  0  0  0  0  0  0  0  0
   35.6870   25.8930   34.1620 N   0  0  0  0  0  0  0  0  0  0  0  0
   36.5020   24.9850   34.7720 C   0  0  0  0  0  0  0  0  0  0  0  0
   36.5280   24.9010   36.1300 N   0  0  0  0  0  0  0  0  0  0  0  0
   39.0900   32.3144   40.4642 H   0  0  0  0  0  0  0  0  0  0  0  0
   39.9245   30.1897   41.5181 H   0  0  0  0  0  0  0  0  0  0  0  0
   35.1044   30.9981   40.8653 H   0  0  0  0  0  0  0  0  0  0  0  0
   39.1775   28.7985   44.2167 H   0  0  0  0  0  0  0  0  0  0  0  0
   39.0822   23.9133   42.8904 H   0  0  0  0  0  0  0  0  0  0  0  0
   38.0416   24.7502   38.5514 H   0  0  0  0  0  0  0  0  0  0  0  0
   35.5016   23.3166   38.3567 H   0  0  0  0  0  0  0  0  0  0  0  0
   35.0536   23.7294   39.7798 H   0  0  0  0  0  0  0  0  0  0  0  0
   35.3344   26.5090   38.5807 H   0  0  0  0  0  0  0  0  0  0  0  0
   34.3087   27.2743   36.9167 H   0  0  0  0  0  0  0  0  0  0  0  0
   34.2440   27.4459   34.4231 H   0  0  0  0  0  0  0  0  0  0  0  0
   37.1374   24.3215   34.1670 H   0  0  0  0  0  0  0  0  0  0  0  0
  1  2  2  0
  2  3  1  0
  3  7  1  0
  4  3  2  0
  5  4  1  0
  6  1  1  0
  6  5  2  0
  7  8  1  0
  8  9  2  0
 10  9  1  0
 11 10  2  0
 12 11  1  0
 13 14  1  0
 13 12  2  0
 14 15  2  0
 15  7  1  0
 15 10  1  0
 16 17  1  0
 16 13  1  0
 18 16  1  0
 18 17  1  0
 19 18  1  0
 20 19  2  0
 21 20  1  0
 22 23  1  0
 22 21  2  0
 23 24  2  0
 24 19  1  0
  1 25  1  0
  2 26  1  0
  5 27  1  0
  8 28  1  0
 11 29  1  0
 16 30  1  6
 17 31  1  0
 17 32  1  0
 18 33  1  1
 20 34  1  0
 21 35  1  0
 23 36  1  0
M  ISO  8  25  14  26  14  27  14  28  14  29  14  30  13  31  13  32  13
M  ISO  4  33  13  34  14  35  14  36  14
M  END
>  <minimizedAffinity>  (1) 
-4.83728504

>  <minimizedRMSD>  (1) 
1.68947744

$$$$
