
     RDKit          3D

 34 37  0  0  1  0  0  0  0  0999 V2000
   39.0240   32.1170   40.9690 C   0  0  0  0  0  0  0  0  0  0  0  0
   38.9380   30.8940   41.6570 C   0  0  0  0  0  0  0  0  0  0  0  0
   37.7170   30.2220   41.6360 C   0  0  0  0  0  0  0  0  0  0  0  0
   36.6930   30.7630   40.9700 N   0  0  0  0  0  0  0  0  0  0  0  0
   36.8100   31.9390   40.3190 C   0  0  0  0  0  0  0  0  0  0  0  0
   37.9760   32.6270   40.3120 N   0  0  0  0  0  0  0  0  0  0  0  0
   37.5680   28.9840   42.3100 N   0  0  0  0  0  0  0  0  0  0  0  0
   37.6030   28.7400   43.5990 C   0  0  0  0  0  0  0  0  0  0  0  0
   37.4230   27.4010   43.8480 N   0  0  0  0  0  0  0  0  0  0  0  0
   37.2700   26.7880   42.6680 C   0  0  0  0  0  0  0  0  0  0  0  0
   37.0630   25.4930   42.2520 C   0  0  0  0  0  0  0  0  0  0  0  0
   36.9550   25.2260   40.9240 N   0  0  0  0  0  0  0  0  0  0  0  0
   37.0510   26.2290   40.0460 C   0  0  0  0  0  0  0  0  0  0  0  0
   37.2500   27.5000   40.3980 N   0  0  0  0  0  0  0  0  0  0  0  0
   37.3650   27.8030   41.7210 C   0  0  0  0  0  0  0  0  0  0  0  0
   36.9490   25.8720   38.6030 C   0  0  1  0  0  0  0  0  0  0  0  0
   35.5680   25.9740   37.9510 C   0  0  0  0  0  0  0  0  0  0  0  0
   36.6900   26.8620   37.5700 C   0  0  2  0  0  0  0  0  0  0  0  0
   37.5210   26.6880   36.3360 C   0  0  0  0  0  0  0  0  0  0  0  0
   37.7590   28.1060   35.8200 C   0  0  0  0  0  0  0  0  0  0  0  0
   39.9760   32.6680   40.9709 H   0  0  0  0  0  0  0  0  0  0  0  0
   39.8050   30.4814   42.1937 H   0  0  0  0  0  0  0  0  0  0  0  0
   35.9404   32.3471   39.7831 H   0  0  0  0  0  0  0  0  0  0  0  0
   37.7558   29.5043   44.3752 H   0  0  0  0  0  0  0  0  0  0  0  0
   36.9855   24.6799   42.9888 H   0  0  0  0  0  0  0  0  0  0  0  0
   37.7309   25.1093   38.7328 H   0  0  0  0  0  0  0  0  0  0  0  0
   35.2193   25.1912   37.2614 H   0  0  0  0  0  0  0  0  0  0  0  0
   34.5351   26.1114   38.3035 H   0  0  0  0  0  0  0  0  0  0  0  0
   36.7094   27.9560   37.4573 H   0  0  0  0  0  0  0  0  0  0  0  0
   38.4760   26.1988   36.5782 H   0  0  0  0  0  0  0  0  0  0  0  0
   37.0240   26.0528   35.5880 H   0  0  0  0  0  0  0  0  0  0  0  0
   37.8741   28.7918   36.6723 H   0  0  0  0  0  0  0  0  0  0  0  0
   38.6729   28.1250   35.2081 H   0  0  0  0  0  0  0  0  0  0  0  0
   36.9014   28.4223   35.2081 H   0  0  0  0  0  0  0  0  0  0  0  0
  1  2  2  0
  3  2  1  0
  3  7  1  0
  4  3  2  0
  5  4  1  0
  6  5  2  0
  6  1  1  0
  7  8  1  0
  8  9  2  0
 10  9  1  0
 11 10  2  0
 12 11  1  0
 13 14  1  0
 13 12  2  0
 14 15  2  0
 15  7  1  0
 15 10  1  0
 16 13  1  0
 17 16  1  0
 18 17  1  0
 18 16  1  0
 19 18  1  0
 20 19  1  0
  1 21  1  0
  2 22  1  0
  5 23  1  0
  8 24  1  0
 11 25  1  0
 16 26  1  6
 17 27  1  0
 17 28  1  0
 18 29  1  1
 19 30  1  0
 19 31  1  0
 20 32  1  0
 20 33  1  0
 20 34  1  0
M  ISO  8  21  14  22  14  23  14  24  14  25  14  26  13  27  13  28  13
M  ISO  6  29  13  30   8  31   8  32   8  33   8  34   8
M  END
>  <minimizedAffinity>  (1) 
-4.83267355

>  <minimizedRMSD>  (1) 
0.361104965

$$$$
