
     RDKit          3D

 31 34  0  0  1  0  0  0  0  0999 V2000
   39.0340   32.1220   40.9760 C   0  0  0  0  0  0  0  0  0  0  0  0
   38.9420   30.9000   41.6670 C   0  0  0  0  0  0  0  0  0  0  0  0
   37.7230   30.2300   41.6400 C   0  0  0  0  0  0  0  0  0  0  0  0
   36.7120   30.7800   40.9640 N   0  0  0  0  0  0  0  0  0  0  0  0
   36.8260   31.9510   40.3120 C   0  0  0  0  0  0  0  0  0  0  0  0
   37.9880   32.6300   40.3140 N   0  0  0  0  0  0  0  0  0  0  0  0
   37.5680   28.9890   42.3110 N   0  0  0  0  0  0  0  0  0  0  0  0
   37.6040   28.7370   43.6030 C   0  0  0  0  0  0  0  0  0  0  0  0
   37.4230   27.4060   43.8450 N   0  0  0  0  0  0  0  0  0  0  0  0
   37.2670   26.7990   42.6650 C   0  0  0  0  0  0  0  0  0  0  0  0
   37.0580   25.5060   42.2230 C   0  0  0  0  0  0  0  0  0  0  0  0
   36.9490   25.2340   40.9180 N   0  0  0  0  0  0  0  0  0  0  0  0
   37.0460   26.2460   40.0320 C   0  0  0  0  0  0  0  0  0  0  0  0
   37.2460   27.5100   40.3940 N   0  0  0  0  0  0  0  0  0  0  0  0
   37.3600   27.8040   41.7110 C   0  0  0  0  0  0  0  0  0  0  0  0
   36.9430   25.8890   38.5880 C   0  0  1  0  0  0  0  0  0  0  0  0
   35.5590   26.0920   37.9330 C   0  0  0  0  0  0  0  0  0  0  0  0
   36.7670   26.8840   37.5500 C   0  0  2  0  0  0  0  0  0  0  0  0
   37.3710   26.6450   36.1820 C   0  0  0  0  0  0  0  0  0  0  0  0
   39.9867   32.6719   40.9800 H   0  0  0  0  0  0  0  0  0  0  0  0
   39.8051   30.4880   42.2105 H   0  0  0  0  0  0  0  0  0  0  0  0
   35.9593   32.3584   39.7708 H   0  0  0  0  0  0  0  0  0  0  0  0
   37.7591   29.4973   44.3827 H   0  0  0  0  0  0  0  0  0  0  0  0
   36.9802   24.6889   42.9553 H   0  0  0  0  0  0  0  0  0  0  0  0
   37.6720   25.0760   38.7203 H   0  0  0  0  0  0  0  0  0  0  0  0
   35.1482   25.3344   37.2494 H   0  0  0  0  0  0  0  0  0  0  0  0
   34.5393   26.3143   38.2806 H   0  0  0  0  0  0  0  0  0  0  0  0
   36.9923   27.9593   37.4956 H   0  0  0  0  0  0  0  0  0  0  0  0
   38.3884   26.2424   36.2956 H   0  0  0  0  0  0  0  0  0  0  0  0
   36.7512   25.9243   35.6284 H   0  0  0  0  0  0  0  0  0  0  0  0
   37.4121   27.5946   35.6284 H   0  0  0  0  0  0  0  0  0  0  0  0
  1  2  2  0
  3  2  1  0
  3  7  1  0
  4  3  2  0
  5  6  2  0
  5  4  1  0
  6  1  1  0
  7  8  1  0
  8  9  2  0
 10  9  1  0
 11 10  2  0
 12 11  1  0
 13 14  1  0
 13 12  2  0
 14 15  2  0
 15  7  1  0
 15 10  1  0
 16 13  1  0
 17 16  1  0
 18 17  1  0
 18 16  1  0
 19 18  1  0
  1 20  1  0
  2 21  1  0
  5 22  1  0
  8 23  1  0
 11 24  1  0
 16 25  1  6
 17 26  1  0
 17 27  1  0
 18 28  1  1
 19 29  1  0
 19 30  1  0
 19 31  1  0
M  ISO  8  20  14  21  14  22  14  23  14  24  14  25  13  26  13  27  13
M  ISO  4  28  13  29   8  30   8  31   8
M  END
>  <minimizedAffinity>  (1) 
-4.82520533

>  <minimizedRMSD>  (1) 
0.0675384179

$$$$
