
     RDKit          3D

 17 18  0  0  0  0  0  0  0  0999 V2000
   38.5400   33.0410   40.1580 C   0  0  0  0  0  0  0  0  0  0  0  0
   39.9270   32.8470   40.3540 C   0  0  0  0  0  0  0  0  0  0  0  0
   40.7300   33.9890   40.4210 C   0  0  0  0  0  0  0  0  0  0  0  0
   40.1310   35.2130   40.2940 N   0  0  0  0  0  0  0  0  0  0  0  0
   38.8060   35.3530   40.1090 C   0  0  0  0  0  0  0  0  0  0  0  0
   38.0120   34.2680   40.0410 N   0  0  0  0  0  0  0  0  0  0  0  0
   37.5770   31.9900   40.0660 N   0  0  0  0  0  0  0  0  0  0  0  0
   36.7840   31.4180   40.9420 N   0  0  0  0  0  0  0  0  0  0  0  0
   36.0450   30.4530   40.3550 C   0  0  0  0  0  0  0  0  0  0  0  0
   36.3960   30.4110   39.0180 C   0  0  0  0  0  0  0  0  0  0  0  0
   37.3630   31.3920   38.8650 C   0  0  0  0  0  0  0  0  0  0  0  0
   40.3563   31.8388   40.4498 H   0  0  0  0  0  0  0  0  0  0  0  0
   41.8164   33.9061   40.5721 H   0  0  0  0  0  0  0  0  0  0  0  0
   38.3695   36.3581   40.0129 H   0  0  0  0  0  0  0  0  0  0  0  0
   35.2984   29.8151   40.8506 H   0  0  0  0  0  0  0  0  0  0  0  0
   35.9940   29.7425   38.2424 H   0  0  0  0  0  0  0  0  0  0  0  0
   37.8740   31.6452   37.9244 H   0  0  0  0  0  0  0  0  0  0  0  0
  1  2  2  0
  2  3  1  0
  4  3  2  0
  5  4  1  0
  6  5  2  0
  6  1  1  0
  7  1  1  0
  7  8  1  0
  9  8  2  0
 10  9  1  0
 11 10  2  0
 11  7  1  0
  2 12  1  0
  3 13  1  0
  5 14  1  0
  9 15  1  0
 10 16  1  0
 11 17  1  0
M  ISO  6  12  14  13  14  14  14  15  14  16  14  17  14
M  END
>  <minimizedAffinity>  (1) 
-3.46131849

>  <minimizedRMSD>  (1) 
6.46799564

$$$$
