
     RDKit          3D

 31 34  0  0  0  0  0  0  0  0999 V2000
   37.5520   30.0210   41.3560 N   0  0  0  0  0  0  0  0  0  0  0  0
   37.3150   29.4970   42.5260 N   0  0  0  0  0  0  0  0  0  0  0  0
   36.9620   28.2070   42.4150 C   0  0  0  0  0  0  0  0  0  0  0  0
   36.9760   27.8780   41.0810 C   0  0  0  0  0  0  0  0  0  0  0  0
   37.3530   29.0430   40.4220 C   0  0  0  0  0  0  0  0  0  0  0  0
   37.4570   29.0140   38.9850 N   0  0  0  0  0  0  0  0  0  0  0  0
   38.6010   29.0040   38.2750 C   0  0  0  0  0  0  0  0  0  0  0  0
   38.2280   28.9750   36.9700 N   0  0  0  0  0  0  0  0  0  0  0  0
   36.8860   28.9670   36.9110 C   0  0  0  0  0  0  0  0  0  0  0  0
   36.0360   28.9390   35.8010 C   0  0  0  0  0  0  0  0  0  0  0  0
   36.4570   28.9160   34.6150 O   0  0  0  0  0  0  0  0  0  0  0  0
   34.7190   28.9390   36.1020 N   0  0  0  0  0  0  0  0  0  0  0  0
   34.2250   28.9620   37.3480 C   0  0  0  0  0  0  0  0  0  0  0  0
   32.8330   28.9600   37.5920 N   0  0  0  0  0  0  0  0  0  0  0  0
   35.0400   28.9890   38.3980 N   0  0  0  0  0  0  0  0  0  0  0  0
   36.3640   28.9910   38.1950 C   0  0  0  0  0  0  0  0  0  0  0  0
   37.9500   31.3210   40.9210 C   0  0  0  0  0  0  0  0  0  0  0  0
   39.1890   31.9250   41.1930 C   0  0  0  0  0  0  0  0  0  0  0  0
   39.4080   33.2010   40.6880 C   0  0  0  0  0  0  0  0  0  0  0  0
   38.4210   33.7920   39.9650 N   0  0  0  0  0  0  0  0  0  0  0  0
   37.2350   33.1890   39.7150 C   0  0  0  0  0  0  0  0  0  0  0  0
   37.0020   31.9480   40.1980 N   0  0  0  0  0  0  0  0  0  0  0  0
   36.7066   27.5322   43.2453 H   0  0  0  0  0  0  0  0  0  0  0  0
   36.7397   26.9025   40.6310 H   0  0  0  0  0  0  0  0  0  0  0  0
   39.6272   29.0167   38.6710 H   0  0  0  0  0  0  0  0  0  0  0  0
   34.0484   28.9200   35.3205 H   0  0  0  0  0  0  0  0  0  0  0  0
   32.4797   28.9780   38.5593 H   0  0  0  0  0  0  0  0  0  0  0  0
   32.1718   28.9405   36.8025 H   0  0  0  0  0  0  0  0  0  0  0  0
   39.9580   31.4065   41.7844 H   0  0  0  0  0  0  0  0  0  0  0  0
   40.3599   33.7214   40.8697 H   0  0  0  0  0  0  0  0  0  0  0  0
   36.4656   33.7056   39.1225 H   0  0  0  0  0  0  0  0  0  0  0  0
  1  2  1  0
  3  2  2  0
  4  3  1  0
  5  4  2  0
  5  1  1  0
  6  5  1  0
  7  6  1  0
  8  7  2  0
  9  8  1  0
  9 16  2  0
 10 12  1  0
 10  9  1  0
 11 10  2  0
 12 13  1  0
 13 14  1  0
 13 15  2  0
 16 15  1  0
 16  6  1  0
 17 18  2  0
 17  1  1  0
 19 18  1  0
 20 19  2  0
 21 20  1  0
 21 22  2  0
 22 17  1  0
  3 23  1  0
  4 24  1  0
  7 25  1  0
 12 26  1  0
 14 27  1  0
 14 28  1  0
 18 29  1  0
 19 30  1  0
 21 31  1  0
M  ISO  7  23  14  24  14  25  14  26   9  29  14  30  14  31  14
M  END
>  <minimizedAffinity>  (1) 
-5.05739594

>  <minimizedRMSD>  (1) 
3.35943079

$$$$
