
     RDKit          3D

 28 31  0  0  0  0  0  0  0  0999 V2000
   37.7640   29.8690   41.7480 N   0  0  0  0  0  0  0  0  0  0  0  0
   38.0610   29.4070   42.9300 N   0  0  0  0  0  0  0  0  0  0  0  0
   37.3490   28.3060   43.2190 C   0  0  0  0  0  0  0  0  0  0  0  0
   36.5400   28.0550   42.1390 C   0  0  0  0  0  0  0  0  0  0  0  0
   36.8110   29.0580   41.2050 C   0  0  0  0  0  0  0  0  0  0  0  0
   36.0900   29.0300   39.9650 N   0  0  0  0  0  0  0  0  0  0  0  0
   34.7530   29.1230   39.8250 C   0  0  0  0  0  0  0  0  0  0  0  0
   34.3890   29.0650   38.5420 N   0  0  0  0  0  0  0  0  0  0  0  0
   35.5150   28.9300   37.8190 C   0  0  0  0  0  0  0  0  0  0  0  0
   35.7940   28.8180   36.4710 C   0  0  0  0  0  0  0  0  0  0  0  0
   37.0660   28.6890   36.0010 N   0  0  0  0  0  0  0  0  0  0  0  0
   38.0620   28.6750   36.9220 C   0  0  0  0  0  0  0  0  0  0  0  0
   37.8350   28.7810   38.2440 N   0  0  0  0  0  0  0  0  0  0  0  0
   36.5690   28.9100   38.7200 C   0  0  0  0  0  0  0  0  0  0  0  0
   38.2200   30.9890   40.9790 C   0  0  0  0  0  0  0  0  0  0  0  0
   39.5260   31.1530   40.4840 C   0  0  0  0  0  0  0  0  0  0  0  0
   39.8120   32.2960   39.7530 C   0  0  0  0  0  0  0  0  0  0  0  0
   38.8120   33.1940   39.5590 N   0  0  0  0  0  0  0  0  0  0  0  0
   37.5590   33.0160   40.0450 C   0  0  0  0  0  0  0  0  0  0  0  0
   37.2790   31.9040   40.7550 N   0  0  0  0  0  0  0  0  0  0  0  0
   37.4037   27.7165   44.1461 H   0  0  0  0  0  0  0  0  0  0  0  0
   35.8217   27.2290   42.0305 H   0  0  0  0  0  0  0  0  0  0  0  0
   34.0494   29.2330   40.6633 H   0  0  0  0  0  0  0  0  0  0  0  0
   34.9610   28.8335   35.7528 H   0  0  0  0  0  0  0  0  0  0  0  0
   39.1001   28.5726   36.5729 H   0  0  0  0  0  0  0  0  0  0  0  0
   40.3003   30.3945   40.6718 H   0  0  0  0  0  0  0  0  0  0  0  0
   40.8178   32.4700   39.3429 H   0  0  0  0  0  0  0  0  0  0  0  0
   36.7793   33.7701   39.8623 H   0  0  0  0  0  0  0  0  0  0  0  0
  1  2  1  0
  2  3  2  0
  4  3  1  0
  5  1  1  0
  5  4  2  0
  6  5  1  0
  7  6  1  0
  8  7  2  0
  9  8  1  0
  9 14  2  0
 10  9  1  0
 11 10  2  0
 11 12  1  0
 12 13  2  0
 13 14  1  0
 14  6  1  0
 15  1  1  0
 16 15  2  0
 17 16  1  0
 18 17  2  0
 18 19  1  0
 19 20  2  0
 20 15  1  0
  3 21  1  0
  4 22  1  0
  7 23  1  0
 10 24  1  0
 12 25  1  0
 16 26  1  0
 17 27  1  0
 19 28  1  0
M  ISO  8  21  14  22  14  23  14  24  14  25  14  26  14  27  14  28  14
M  END
>  <minimizedAffinity>  (1) 
-4.67361259

>  <minimizedRMSD>  (1) 
3.60676718

$$$$
