
     RDKit          3D

 24 26  0  0  0  0  0  0  0  0999 V2000
   37.6400   29.5860   41.8720 N   0  0  0  0  0  0  0  0  0  0  0  0
   38.0630   29.3290   43.1010 N   0  0  0  0  0  0  0  0  0  0  0  0
   37.4250   28.2800   43.6300 C   0  0  0  0  0  0  0  0  0  0  0  0
   36.5350   27.8350   42.6850 C   0  0  0  0  0  0  0  0  0  0  0  0
   36.6950   28.6740   41.5960 C   0  0  0  0  0  0  0  0  0  0  0  0
   38.0040   30.5730   40.9130 C   0  0  0  0  0  0  0  0  0  0  0  0
   39.0920   30.4150   40.0050 C   0  0  0  0  0  0  0  0  0  0  0  0
   39.3190   31.4820   39.1200 C   0  0  0  0  0  0  0  0  0  0  0  0
   38.4950   32.5740   39.1930 N   0  0  0  0  0  0  0  0  0  0  0  0
   37.4820   32.6670   40.0740 C   0  0  0  0  0  0  0  0  0  0  0  0
   37.2380   31.6590   40.9360 N   0  0  0  0  0  0  0  0  0  0  0  0
   35.9210   28.5390   40.3540 C   0  0  0  0  0  0  0  0  0  0  0  0
   34.8000   29.1680   39.9690 C   0  0  0  0  0  0  0  0  0  0  0  0
   34.2460   28.8900   38.7710 C   0  0  0  0  0  0  0  0  0  0  0  0
   34.9260   27.9080   37.9740 C   0  0  0  0  0  0  0  0  0  0  0  0
   36.3430   27.4490   39.0370 S   0  0  0  0  0  0  0  0  0  0  0  0
   37.5833   27.8546   44.6320 H   0  0  0  0  0  0  0  0  0  0  0  0
   35.8392   26.9877   42.7744 H   0  0  0  0  0  0  0  0  0  0  0  0
   39.7173   29.5101   39.9980 H   0  0  0  0  0  0  0  0  0  0  0  0
   40.1379   31.4417   38.3867 H   0  0  0  0  0  0  0  0  0  0  0  0
   36.8511   33.5679   40.0911 H   0  0  0  0  0  0  0  0  0  0  0  0
   34.3322   29.9114   40.6313 H   0  0  0  0  0  0  0  0  0  0  0  0
   33.3274   29.3863   38.4249 H   0  0  0  0  0  0  0  0  0  0  0  0
   34.6618   27.5276   36.9762 H   0  0  0  0  0  0  0  0  0  0  0  0
  1  2  1  0
  2  3  2  0
  4  3  1  0
  5  1  1  0
  5  4  2  0
  6 11  1  0
  6  1  1  0
  7  6  2  0
  8  9  2  0
  8  7  1  0
  9 10  1  0
 10 11  2  0
 12  5  1  0
 13 12  2  0
 14 13  1  0
 15 14  2  0
 15 16  1  0
 16 12  1  0
  3 17  1  0
  4 18  1  0
  7 19  1  0
  8 20  1  0
 10 21  1  0
 13 22  1  0
 14 23  1  0
 15 24  1  0
M  ISO  8  17  14  18  14  19  14  20  14  21  14  22  14  23  14  24  14
M  END
>  <minimizedAffinity>  (1) 
-4.49269962

>  <minimizedRMSD>  (1) 
4.23692465

$$$$
