
     RDKit          3D

 29 31  0  0  0  0  0  0  0  0999 V2000
   37.6380   29.5490   41.9190 N   0  0  0  0  0  0  0  0  0  0  0  0
   38.0910   29.3310   43.1240 N   0  0  0  0  0  0  0  0  0  0  0  0
   37.4680   28.2790   43.6900 C   0  0  0  0  0  0  0  0  0  0  0  0
   36.5600   27.7990   42.7770 C   0  0  0  0  0  0  0  0  0  0  0  0
   36.6760   28.6110   41.6630 C   0  0  0  0  0  0  0  0  0  0  0  0
   37.9500   30.5080   40.9160 C   0  0  0  0  0  0  0  0  0  0  0  0
   39.0090   30.3740   39.9740 C   0  0  0  0  0  0  0  0  0  0  0  0
   39.2010   31.3890   39.0490 C   0  0  0  0  0  0  0  0  0  0  0  0
   38.3420   32.4670   39.1070 N   0  0  0  0  0  0  0  0  0  0  0  0
   37.3580   32.5540   40.0100 C   0  0  0  0  0  0  0  0  0  0  0  0
   37.1470   31.5810   40.9230 N   0  0  0  0  0  0  0  0  0  0  0  0
   35.8940   28.4350   40.4860 N   0  0  0  0  0  0  0  0  0  0  0  0
   34.6850   29.0640   39.9480 C   0  0  0  0  0  0  0  0  0  0  0  0
   34.7760   28.9270   38.4570 C   0  0  0  0  0  0  0  0  0  0  0  0
   36.1560   28.3150   38.2260 C   0  0  0  0  0  0  0  0  0  0  0  0
   36.2390   27.4430   39.4840 C   0  0  0  0  0  0  0  0  0  0  0  0
   37.6523   27.8781   44.6976 H   0  0  0  0  0  0  0  0  0  0  0  0
   35.8800   26.9440   42.9057 H   0  0  0  0  0  0  0  0  0  0  0  0
   39.6592   29.4867   39.9798 H   0  0  0  0  0  0  0  0  0  0  0  0
   40.0049   31.3368   38.3000 H   0  0  0  0  0  0  0  0  0  0  0  0
   36.7052   33.4393   40.0087 H   0  0  0  0  0  0  0  0  0  0  0  0
   33.7875   28.5516   40.3248 H   0  0  0  0  0  0  0  0  0  0  0  0
   34.6102   30.1186   40.2518 H   0  0  0  0  0  0  0  0  0  0  0  0
   33.9854   28.2637   38.0763 H   0  0  0  0  0  0  0  0  0  0  0  0
   34.6454   29.8863   37.9349 H   0  0  0  0  0  0  0  0  0  0  0  0
   36.1934   27.7156   37.3044 H   0  0  0  0  0  0  0  0  0  0  0  0
   36.9779   29.0335   38.0909 H   0  0  0  0  0  0  0  0  0  0  0  0
   35.5141   26.6160   39.4586 H   0  0  0  0  0  0  0  0  0  0  0  0
   37.2026   26.9358   39.6395 H   0  0  0  0  0  0  0  0  0  0  0  0
  1  2  1  0
  2  3  2  0
  4  3  1  0
  5  1  1  0
  5  4  2  0
  6 11  1  0
  6  1  1  0
  7  6  2  0
  8  9  2  0
  8  7  1  0
  9 10  1  0
 10 11  2  0
 12  5  1  0
 13 12  1  0
 14 13  1  0
 15 14  1  0
 15 16  1  0
 16 12  1  0
  3 17  1  0
  4 18  1  0
  7 19  1  0
  8 20  1  0
 10 21  1  0
 13 22  1  0
 13 23  1  0
 14 24  1  0
 14 25  1  0
 15 26  1  0
 15 27  1  0
 16 28  1  0
 16 29  1  0
M  ISO  8  17  14  18  14  19  14  20  14  21  14  22  13  23  13  24  13
M  ISO  5  25  13  26  13  27  13  28  13  29  13
M  END
>  <minimizedAffinity>  (1) 
-4.38643217

>  <minimizedRMSD>  (1) 
4.24744892

$$$$
