
     RDKit          3D

 24 26  0  0  0  0  0  0  0  0999 V2000
   37.1850   31.3700   40.3010 N   0  0  0  0  0  0  0  0  0  0  0  0
   36.2770   30.9570   41.1610 N   0  0  0  0  0  0  0  0  0  0  0  0
   35.5660   29.9380   40.6280 C   0  0  0  0  0  0  0  0  0  0  0  0
   36.0500   29.6960   39.3640 C   0  0  0  0  0  0  0  0  0  0  0  0
   37.0760   30.6140   39.1750 C   0  0  0  0  0  0  0  0  0  0  0  0
   38.1710   32.3900   40.3570 C   0  0  0  0  0  0  0  0  0  0  0  0
   39.5450   32.1640   40.6470 C   0  0  0  0  0  0  0  0  0  0  0  0
   40.4080   33.2490   40.6710 C   0  0  0  0  0  0  0  0  0  0  0  0
   39.8860   34.4840   40.4130 N   0  0  0  0  0  0  0  0  0  0  0  0
   38.5740   34.6620   40.1400 C   0  0  0  0  0  0  0  0  0  0  0  0
   37.7170   33.6180   40.1120 N   0  0  0  0  0  0  0  0  0  0  0  0
   37.8620   30.6680   37.9020 C   0  0  0  0  0  0  0  0  0  0  0  0
   37.1140   30.2440   36.6280 C   0  0  0  0  0  0  0  0  0  0  0  0
   37.5410   31.6970   36.9050 C   0  0  0  0  0  0  0  0  0  0  0  0
   34.7440   29.3971   41.1197 H   0  0  0  0  0  0  0  0  0  0  0  0
   35.6986   28.9351   38.6516 H   0  0  0  0  0  0  0  0  0  0  0  0
   39.9158   31.1481   40.8483 H   0  0  0  0  0  0  0  0  0  0  0  0
   41.4780   33.1191   40.8907 H   0  0  0  0  0  0  0  0  0  0  0  0
   38.1974   35.6754   39.9370 H   0  0  0  0  0  0  0  0  0  0  0  0
   38.7965   30.3726   38.4015 H   0  0  0  0  0  0  0  0  0  0  0  0
   36.0534   29.9557   36.6733 H   0  0  0  0  0  0  0  0  0  0  0  0
   37.2674   29.5101   35.8232 H   0  0  0  0  0  0  0  0  0  0  0  0
   38.3472   32.1520   36.3108 H   0  0  0  0  0  0  0  0  0  0  0  0
   37.0128   32.6614   36.9372 H   0  0  0  0  0  0  0  0  0  0  0  0
  1  6  1  0
  1  2  1  0
  3  2  2  0
  4  3  1  0
  5  4  2  0
  5  1  1  0
  6  7  2  0
  7  8  1  0
  9  8  2  0
 10  9  1  0
 11 10  2  0
 11  6  1  0
 12  5  1  0
 13 14  1  0
 13 12  1  0
 14 12  1  0
  3 15  1  0
  4 16  1  0
  7 17  1  0
  8 18  1  0
 10 19  1  0
 12 20  1  0
 13 21  1  0
 13 22  1  0
 14 23  1  0
 14 24  1  0
M  ISO  8  15  14  16  14  17  14  18  14  19  14  20  13  21  13  22  13
M  ISO  2  23  13  24  13
M  END
>  <minimizedAffinity>  (1) 
-3.90786052

>  <minimizedRMSD>  (1) 
0.838613987

$$$$
