
     RDKit          3D

 26 27  0  0  0  0  0  0  0  0999 V2000
   37.2100   31.5180   40.1790 N   0  0  0  0  0  0  0  0  0  0  0  0
   36.3430   31.0530   41.0430 N   0  0  0  0  0  0  0  0  0  0  0  0
   35.6570   30.0180   40.5060 C   0  0  0  0  0  0  0  0  0  0  0  0
   36.1270   29.8220   39.2220 C   0  0  0  0  0  0  0  0  0  0  0  0
   37.1030   30.7840   39.0530 C   0  0  0  0  0  0  0  0  0  0  0  0
   38.1600   32.5800   40.2430 C   0  0  0  0  0  0  0  0  0  0  0  0
   39.5330   32.4060   40.5780 C   0  0  0  0  0  0  0  0  0  0  0  0
   40.3420   33.5420   40.6000 C   0  0  0  0  0  0  0  0  0  0  0  0
   39.7710   34.7460   40.3000 N   0  0  0  0  0  0  0  0  0  0  0  0
   38.4700   34.8620   39.9900 C   0  0  0  0  0  0  0  0  0  0  0  0
   37.6610   33.7820   39.9590 N   0  0  0  0  0  0  0  0  0  0  0  0
   37.8470   30.8840   37.7640 C   0  0  0  0  0  0  0  0  0  0  0  0
   37.0280   30.5040   36.5730 C   0  0  0  0  0  0  0  0  0  0  0  0
   39.0410   29.9240   37.8560 C   0  0  0  0  0  0  0  0  0  0  0  0
   34.8664   29.4366   41.0029 H   0  0  0  0  0  0  0  0  0  0  0  0
   35.7966   29.0661   38.4944 H   0  0  0  0  0  0  0  0  0  0  0  0
   39.9410   31.4114   40.8111 H   0  0  0  0  0  0  0  0  0  0  0  0
   41.4103   33.4703   40.8520 H   0  0  0  0  0  0  0  0  0  0  0  0
   38.0562   35.8543   39.7573 H   0  0  0  0  0  0  0  0  0  0  0  0
   38.1450   31.9334   37.6230 H   0  0  0  0  0  0  0  0  0  0  0  0
   36.0774   30.0629   36.9073 H   0  0  0  0  0  0  0  0  0  0  0  0
   36.8239   31.3994   35.9675 H   0  0  0  0  0  0  0  0  0  0  0  0
   37.5799   29.7700   35.9675 H   0  0  0  0  0  0  0  0  0  0  0  0
   39.2778   29.7336   38.9132 H   0  0  0  0  0  0  0  0  0  0  0  0
   38.7877   28.9752   37.3604 H   0  0  0  0  0  0  0  0  0  0  0  0
   39.9132   30.3751   37.3604 H   0  0  0  0  0  0  0  0  0  0  0  0
  1  6  1  0
  1  2  1  0
  3  2  2  0
  4  3  1  0
  5  4  2  0
  5  1  1  0
  6  7  2  0
  7  8  1  0
  9  8  2  0
 10  9  1  0
 11 10  2  0
 11  6  1  0
 12 14  1  0
 12  5  1  0
 13 12  1  0
  3 15  1  0
  4 16  1  0
  7 17  1  0
  8 18  1  0
 10 19  1  0
 12 20  1  0
 13 21  1  0
 13 22  1  0
 13 23  1  0
 14 24  1  0
 14 25  1  0
 14 26  1  0
M  ISO  8  15  14  16  14  17  14  18  14  19  14  20   8  21   8  22   8
M  ISO  4  23   8  24   8  25   8  26   8
M  END
>  <minimizedAffinity>  (1) 
-3.83508587

>  <minimizedRMSD>  (1) 
0.697981596

$$$$
