
     RDKit          3D

 34 36  0  0  0  0  0  0  0  0999 V2000
   39.7340   31.1840   40.5170 C   0  0  0  0  0  0  0  0  0  0  0  0
   40.7150   30.5480   39.7380 C   0  0  0  0  0  0  0  0  0  0  0  0
   41.7580   31.3080   39.2380 C   0  0  0  0  0  0  0  0  0  0  0  0
   41.7760   32.6380   39.5310 N   0  0  0  0  0  0  0  0  0  0  0  0
   40.8250   33.2270   40.2800 C   0  0  0  0  0  0  0  0  0  0  0  0
   39.7960   32.5140   40.7810 N   0  0  0  0  0  0  0  0  0  0  0  0
   40.9480   34.6250   40.5210 N   0  0  0  0  0  0  0  0  0  0  0  0
   39.7840   35.4650   40.3850 C   0  0  0  0  0  0  0  0  0  0  0  0
   40.1030   36.9100   40.1990 C   0  0  0  0  0  0  0  0  0  0  0  0
   41.1330   37.4150   41.0600 N   0  0  0  0  0  0  0  0  0  0  0  0
   41.7700   36.3950   41.8590 C   0  0  0  0  0  0  0  0  0  0  0  0
   42.1690   35.2770   40.8970 C   0  0  0  0  0  0  0  0  0  0  0  0
   38.6060   30.5520   41.1000 N   0  0  0  0  0  0  0  0  0  0  0  0
   38.3910   29.9530   42.2390 N   0  0  0  0  0  0  0  0  0  0  0  0
   37.1370   29.5030   42.3420 C   0  0  0  0  0  0  0  0  0  0  0  0
   36.4880   29.8440   41.1660 C   0  0  0  0  0  0  0  0  0  0  0  0
   37.4390   30.5020   40.4060 C   0  0  0  0  0  0  0  0  0  0  0  0
   37.1330   31.0360   39.0490 C   0  0  0  0  0  0  0  0  0  0  0  0
   35.9400   30.5930   38.5340 F   0  0  0  0  0  0  0  0  0  0  0  0
   38.1550   30.7910   38.1500 F   0  0  0  0  0  0  0  0  0  0  0  0
   37.0090   32.4310   39.1300 F   0  0  0  0  0  0  0  0  0  0  0  0
   40.6554   29.4695   39.5300 H   0  0  0  0  0  0  0  0  0  0  0  0
   42.5479   30.8521   38.6231 H   0  0  0  0  0  0  0  0  0  0  0  0
   39.2086   35.1218   39.5126 H   0  0  0  0  0  0  0  0  0  0  0  0
   39.2164   35.3804   41.3234 H   0  0  0  0  0  0  0  0  0  0  0  0
   40.4247   37.0580   39.1576 H   0  0  0  0  0  0  0  0  0  0  0  0
   39.1876   37.4641   40.4538 H   0  0  0  0  0  0  0  0  0  0  0  0
   41.8514   37.8681   40.4773 H   0  0  0  0  0  0  0  0  0  0  0  0
   42.6614   36.8039   42.3571 H   0  0  0  0  0  0  0  0  0  0  0  0
   41.0935   36.0231   42.6426 H   0  0  0  0  0  0  0  0  0  0  0  0
   42.8440   34.5661   41.3960 H   0  0  0  0  0  0  0  0  0  0  0  0
   42.7021   35.6715   40.0194 H   0  0  0  0  0  0  0  0  0  0  0  0
   36.7027   28.9645   43.1972 H   0  0  0  0  0  0  0  0  0  0  0  0
   35.4423   29.6364   40.8951 H   0  0  0  0  0  0  0  0  0  0  0  0
  1  6  1  0
  1 13  1  0
  2  1  2  0
  3  4  2  0
  3  2  1  0
  4  5  1  0
  5  7  1  0
  5  6  2  0
  7 12  1  0
  8  7  1  0
  9  8  1  0
  9 10  1  0
 10 11  1  0
 12 11  1  0
 13 14  1  0
 14 15  2  0
 16 15  1  0
 17 13  1  0
 17 16  2  0
 18 21  1  0
 18 17  1  0
 19 18  1  0
 20 18  1  0
  2 22  1  0
  3 23  1  0
  8 24  1  0
  8 25  1  0
  9 26  1  0
  9 27  1  0
 10 28  1  0
 11 29  1  0
 11 30  1  0
 12 31  1  0
 12 32  1  0
 15 33  1  0
 16 34  1  0
M  ISO  8  22  14  23  14  24  13  25  13  26  13  27  13  28   5  29  13
M  ISO  5  30  13  31  13  32  13  33  14  34  14
M  END
>  <minimizedAffinity>  (1) 
-5.61724949

>  <minimizedRMSD>  (1) 
2.82471633

$$$$
