
     RDKit          3D

 27 28  0  0  0  0  0  0  0  0999 V2000
   38.0360   30.9100   40.5560 C   0  0  0  0  0  0  0  0  0  0  0  0
   39.2670   30.2700   40.7730 C   0  0  0  0  0  0  0  0  0  0  0  0
   40.3590   31.0500   41.1140 C   0  0  0  0  0  0  0  0  0  0  0  0
   40.1870   32.3910   41.2220 N   0  0  0  0  0  0  0  0  0  0  0  0
   38.9880   32.9880   41.0080 C   0  0  0  0  0  0  0  0  0  0  0  0
   37.9050   32.2530   40.6730 N   0  0  0  0  0  0  0  0  0  0  0  0
   38.8620   34.4070   41.1340 N   0  0  0  0  0  0  0  0  0  0  0  0
   39.3710   35.2710   40.1330 C   0  0  0  0  0  0  0  0  0  0  0  0
   40.3320   34.8300   39.4020 N   0  0  0  0  0  0  0  0  0  0  0  0
   38.8320   36.5750   39.9460 N   0  0  0  0  0  0  0  0  0  0  0  0
   40.7890   35.3680   38.6340 H   0  0  0  0  0  0  0  0  0  0  0  0
   36.8190   30.2640   40.2010 N   0  0  0  0  0  0  0  0  0  0  0  0
   35.8520   29.7160   40.8780 N   0  0  0  0  0  0  0  0  0  0  0  0
   34.8970   29.2270   40.0820 C   0  0  0  0  0  0  0  0  0  0  0  0
   35.2820   29.4810   38.7860 C   0  0  0  0  0  0  0  0  0  0  0  0
   36.5030   30.1390   38.8840 C   0  0  0  0  0  0  0  0  0  0  0  0
   37.2590   30.5910   37.6860 C   0  0  0  0  0  0  0  0  0  0  0  0
   36.6450   30.2740   36.5020 F   0  0  0  0  0  0  0  0  0  0  0  0
   38.5630   30.1310   37.6980 F   0  0  0  0  0  0  0  0  0  0  0  0
   37.3400   31.9850   37.7000 F   0  0  0  0  0  0  0  0  0  0  0  0
   39.3612   29.1785   40.6747 H   0  0  0  0  0  0  0  0  0  0  0  0
   41.3432   30.5927   41.2932 H   0  0  0  0  0  0  0  0  0  0  0  0
   38.3960   34.8054   41.9617 H   0  0  0  0  0  0  0  0  0  0  0  0
   39.2141   37.1900   39.2134 H   0  0  0  0  0  0  0  0  0  0  0  0
   38.0599   36.9036   40.5432 H   0  0  0  0  0  0  0  0  0  0  0  0
   33.9764   28.7173   40.4025 H   0  0  0  0  0  0  0  0  0  0  0  0
   34.7386   29.2189   37.8662 H   0  0  0  0  0  0  0  0  0  0  0  0
  1  6  1  0
  1  2  2  0
  2  3  1  0
  3  4  2  0
  5  7  1  0
  5  4  1  0
  6  5  2  0
  8  7  1  0
  9  8  2  0
 10  8  1  0
 11  9  1  0
 12  1  1  0
 12 13  1  0
 14 13  2  0
 15 16  2  0
 15 14  1  0
 16 12  1  0
 17 19  1  0
 17 20  1  0
 17 16  1  0
 18 17  1  0
  2 21  1  0
  3 22  1  0
  7 23  1  0
 10 24  1  0
 10 25  1  0
 14 26  1  0
 15 27  1  0
M  ISO  4  21  14  22  14  26  14  27  14
M  END
>  <minimizedAffinity>  (1) 
-5.48333168

>  <minimizedRMSD>  (1) 
1.63446116

$$$$
