
     RDKit          3D

 41 43  0  0  1  0  0  0  0  0999 V2000
   36.9980   24.4290   40.8360 C   0  0  1  0  0  0  0  0  0  0  0  0
   37.7270   23.9960   42.0170 N   0  0  0  0  0  0  0  0  0  0  0  0
   39.1360   24.1610   42.1290 C   0  0  0  0  0  0  0  0  0  0  0  0
   39.7960   24.5530   41.1030 N   0  0  0  0  0  0  0  0  0  0  0  0
   39.7850   23.8810   43.3420 N   0  0  0  0  0  0  0  0  0  0  0  0
   40.8210   24.6450   41.1210 H   0  0  0  0  0  0  0  0  0  0  0  0
   37.7040   27.9450   40.6730 C   0  0  0  0  0  0  0  0  0  0  0  0
   36.7530   27.8150   39.6630 C   0  0  0  0  0  0  0  0  0  0  0  0
   36.4440   26.4730   39.6650 C   0  0  0  0  0  0  0  0  0  0  0  0
   37.1660   25.8160   40.6210 N   0  0  0  0  0  0  0  0  0  0  0  0
   37.9120   26.7400   41.2030 N   0  0  0  0  0  0  0  0  0  0  0  0
   38.8090   29.4950   42.3040 C   0  0  0  0  0  0  0  0  0  0  0  0
   38.3220   29.2020   41.0470 C   0  0  0  0  0  0  0  0  0  0  0  0
   38.4270   30.1920   40.0650 C   0  0  0  0  0  0  0  0  0  0  0  0
   39.0030   31.3860   40.4060 N   0  0  0  0  0  0  0  0  0  0  0  0
   39.4660   31.6140   41.6690 C   0  0  0  0  0  0  0  0  0  0  0  0
   39.3660   30.6490   42.6320 N   0  0  0  0  0  0  0  0  0  0  0  0
   37.2110   23.4930   39.8150 N   0  0  0  0  0  0  0  0  0  0  0  0
   37.9630   23.9980   38.7290 C   0  0  0  0  0  0  0  0  0  0  0  0
   37.8110   23.1900   37.4890 C   0  0  0  0  0  0  0  0  0  0  0  0
   38.0030   21.7710   37.7130 N   0  0  0  0  0  0  0  0  0  0  0  0
   37.2990   21.2860   38.8520 C   0  0  0  0  0  0  0  0  0  0  0  0
   37.4740   22.1490   40.1040 C   0  0  0  0  0  0  0  0  0  0  0  0
   35.9025   24.4071   40.9329 H   0  0  0  0  0  0  0  0  0  0  0  0
   37.2101   23.5583   42.7930 H   0  0  0  0  0  0  0  0  0  0  0  0
   40.8050   24.0013   43.4201 H   0  0  0  0  0  0  0  0  0  0  0  0
   39.2412   23.5552   44.1538 H   0  0  0  0  0  0  0  0  0  0  0  0
   36.3434   28.6028   39.0137 H   0  0  0  0  0  0  0  0  0  0  0  0
   35.7171   25.9964   38.9908 H   0  0  0  0  0  0  0  0  0  0  0  0
   38.7292   28.7211   43.0816 H   0  0  0  0  0  0  0  0  0  0  0  0
   38.0562   30.0157   39.0445 H   0  0  0  0  0  0  0  0  0  0  0  0
   39.9241   32.5835   41.9146 H   0  0  0  0  0  0  0  0  0  0  0  0
   37.6304   25.0256   38.5204 H   0  0  0  0  0  0  0  0  0  0  0  0
   39.0237   23.9595   39.0180 H   0  0  0  0  0  0  0  0  0  0  0  0
   38.5537   23.5328   36.7535 H   0  0  0  0  0  0  0  0  0  0  0  0
   36.7816   23.3307   37.1276 H   0  0  0  0  0  0  0  0  0  0  0  0
   37.6733   21.2601   36.8816 H   0  0  0  0  0  0  0  0  0  0  0  0
   36.2276   21.2464   38.6058 H   0  0  0  0  0  0  0  0  0  0  0  0
   37.7157   20.2954   39.0866 H   0  0  0  0  0  0  0  0  0  0  0  0
   38.5075   22.0528   40.4681 H   0  0  0  0  0  0  0  0  0  0  0  0
   36.7667   21.8061   40.8735 H   0  0  0  0  0  0  0  0  0  0  0  0
  1  2  1  0
  2  3  1  0
  3  5  1  0
  4  6  1  0
  4  3  2  0
  7 13  1  0
  7 11  2  0
  8  9  2  0
  8  7  1  0
  9 10  1  0
 10  1  1  0
 10 11  1  0
 12 17  2  0
 13 12  1  0
 14 15  1  0
 14 13  2  0
 15 16  2  0
 16 17  1  0
 18 23  1  0
 18  1  1  0
 19 18  1  0
 20 21  1  0
 20 19  1  0
 21 22  1  0
 22 23  1  0
  1 24  1  1
  2 25  1  0
  5 26  1  0
  5 27  1  0
  8 28  1  0
  9 29  1  0
 12 30  1  0
 14 31  1  0
 16 32  1  0
 19 33  1  0
 19 34  1  0
 20 35  1  0
 20 36  1  0
 21 37  1  0
 22 38  1  0
 22 39  1  0
 23 40  1  0
 23 41  1  0
M  ISO  8  24   8  28  14  29  14  30  14  31  14  32  14  33  13  34  13
M  ISO  7  35  13  36  13  37   5  38  13  39  13  40  13  41  13
M  END
>  <minimizedAffinity>  (1) 
-4.17548275

>  <minimizedRMSD>  (1) 
2.0127902

$$$$
