
     RDKit          3D

 35 37  0  0  0  0  0  0  0  0999 V2000
   38.8940   30.6260   40.2060 C   0  0  0  0  0  0  0  0  0  0  0  0
   40.0470   29.8400   40.1200 C   0  0  0  0  0  0  0  0  0  0  0  0
   41.2730   30.4840   40.0650 C   0  0  0  0  0  0  0  0  0  0  0  0
   41.2920   31.8320   40.0990 N   0  0  0  0  0  0  0  0  0  0  0  0
   40.1690   32.5840   40.1830 C   0  0  0  0  0  0  0  0  0  0  0  0
   38.9710   31.9660   40.2360 N   0  0  0  0  0  0  0  0  0  0  0  0
   40.2430   34.0040   40.2150 N   0  0  0  0  0  0  0  0  0  0  0  0
   41.4910   34.7340   40.1620 C   0  0  0  0  0  0  0  0  0  0  0  0
   41.4880   35.9450   41.0670 C   0  0  0  0  0  0  0  0  0  0  0  0
   40.3290   36.8670   40.8030 C   0  0  0  0  0  0  0  0  0  0  0  0
   39.2430   36.2290   40.0050 C   0  0  0  0  0  0  0  0  0  0  0  0
   39.0150   34.7690   40.3060 C   0  0  0  0  0  0  0  0  0  0  0  0
   37.5590   30.1300   40.2710 N   0  0  0  0  0  0  0  0  0  0  0  0
   36.8060   29.6810   41.2310 N   0  0  0  0  0  0  0  0  0  0  0  0
   35.5910   29.3200   40.8000 C   0  0  0  0  0  0  0  0  0  0  0  0
   35.5700   29.5630   39.4320 C   0  0  0  0  0  0  0  0  0  0  0  0
   36.8210   30.0710   39.1350 C   0  0  0  0  0  0  0  0  0  0  0  0
   37.1940   30.4610   37.7450 C   0  0  0  0  0  0  0  0  0  0  0  0
   36.2710   30.1010   36.7980 F   0  0  0  0  0  0  0  0  0  0  0  0
   38.4520   29.9900   37.3960 F   0  0  0  0  0  0  0  0  0  0  0  0
   37.2730   31.8610   37.6710 F   0  0  0  0  0  0  0  0  0  0  0  0
   39.9830   28.7421   40.0967 H   0  0  0  0  0  0  0  0  0  0  0  0
   42.2083   29.9093   39.9953 H   0  0  0  0  0  0  0  0  0  0  0  0
   42.3061   34.0634   40.4716 H   0  0  0  0  0  0  0  0  0  0  0  0
   41.6302   35.0867   39.1294 H   0  0  0  0  0  0  0  0  0  0  0  0
   41.4345   35.6033   42.1112 H   0  0  0  0  0  0  0  0  0  0  0  0
   42.4115   36.5088   40.8690 H   0  0  0  0  0  0  0  0  0  0  0  0
   39.9111   37.1889   41.7682 H   0  0  0  0  0  0  0  0  0  0  0  0
   40.7119   37.7149   40.2161 H   0  0  0  0  0  0  0  0  0  0  0  0
   39.5000   36.3232   38.9396 H   0  0  0  0  0  0  0  0  0  0  0  0
   38.3125   36.7507   40.2733 H   0  0  0  0  0  0  0  0  0  0  0  0
   38.2895   34.3655   39.5844 H   0  0  0  0  0  0  0  0  0  0  0  0
   38.6355   34.6866   41.3351 H   0  0  0  0  0  0  0  0  0  0  0  0
   34.7709   28.9115   41.4088 H   0  0  0  0  0  0  0  0  0  0  0  0
   34.7370   29.3886   38.7351 H   0  0  0  0  0  0  0  0  0  0  0  0
  1  6  1  0
  1 13  1  0
  2  1  2  0
  3  4  2  0
  3  2  1  0
  4  5  1  0
  5  7  1  0
  5  6  2  0
  7 12  1  0
  8  7  1  0
  8  9  1  0
 10  9  1  0
 11 12  1  0
 11 10  1  0
 13 14  1  0
 15 14  2  0
 16 15  1  0
 17 16  2  0
 17 13  1  0
 18 17  1  0
 19 18  1  0
 20 18  1  0
 21 18  1  0
  2 22  1  0
  3 23  1  0
  8 24  1  0
  8 25  1  0
  9 26  1  0
  9 27  1  0
 10 28  1  0
 10 29  1  0
 11 30  1  0
 11 31  1  0
 12 32  1  0
 12 33  1  0
 15 34  1  0
 16 35  1  0
M  ISO  8  22  14  23  14  24  13  25  13  26  13  27  13  28  13  29  13
M  ISO  6  30  13  31  13  32  13  33  13  34  14  35  14
M  END
>  <minimizedAffinity>  (1) 
-5.41597748

>  <minimizedRMSD>  (1) 
2.4142282

$$$$
