
     RDKit          3D

 32 34  0  0  0  0  0  0  0  0999 V2000
   39.4360   31.1400   40.3380 C   0  0  0  0  0  0  0  0  0  0  0  0
   40.4700   30.6430   39.5320 C   0  0  0  0  0  0  0  0  0  0  0  0
   41.4250   31.5150   39.0480 C   0  0  0  0  0  0  0  0  0  0  0  0
   41.3150   32.8210   39.3810 N   0  0  0  0  0  0  0  0  0  0  0  0
   40.3110   33.3020   40.1630 C   0  0  0  0  0  0  0  0  0  0  0  0
   39.3730   32.4570   40.6400 N   0  0  0  0  0  0  0  0  0  0  0  0
   40.2450   34.6910   40.4810 N   0  0  0  0  0  0  0  0  0  0  0  0
   41.3580   35.5190   40.9020 C   0  0  0  0  0  0  0  0  0  0  0  0
   40.9130   36.9480   40.6590 C   0  0  0  0  0  0  0  0  0  0  0  0
   39.6030   36.8280   39.9230 C   0  0  0  0  0  0  0  0  0  0  0  0
   39.0620   35.5100   40.4390 C   0  0  0  0  0  0  0  0  0  0  0  0
   38.3800   30.3830   40.9130 N   0  0  0  0  0  0  0  0  0  0  0  0
   38.2040   29.7810   42.0460 N   0  0  0  0  0  0  0  0  0  0  0  0
   37.0130   29.1860   42.1250 C   0  0  0  0  0  0  0  0  0  0  0  0
   36.3580   29.4220   40.9360 C   0  0  0  0  0  0  0  0  0  0  0  0
   37.2440   30.1850   40.1790 C   0  0  0  0  0  0  0  0  0  0  0  0
   36.9080   30.6490   38.8170 C   0  0  0  0  0  0  0  0  0  0  0  0
   35.6900   30.2090   38.3520 F   0  0  0  0  0  0  0  0  0  0  0  0
   37.9030   30.3420   37.8980 F   0  0  0  0  0  0  0  0  0  0  0  0
   36.8100   32.0490   38.8210 F   0  0  0  0  0  0  0  0  0  0  0  0
   40.5198   29.5715   39.2882 H   0  0  0  0  0  0  0  0  0  0  0  0
   42.2488   31.1588   38.4120 H   0  0  0  0  0  0  0  0  0  0  0  0
   41.5741   35.3596   41.9687 H   0  0  0  0  0  0  0  0  0  0  0  0
   42.2783   35.2781   40.3496 H   0  0  0  0  0  0  0  0  0  0  0  0
   40.7735   37.4772   41.6132 H   0  0  0  0  0  0  0  0  0  0  0  0
   41.6575   37.5214   40.0872 H   0  0  0  0  0  0  0  0  0  0  0  0
   39.7591   36.7958   38.8346 H   0  0  0  0  0  0  0  0  0  0  0  0
   38.9248   37.6779   40.0896 H   0  0  0  0  0  0  0  0  0  0  0  0
   38.6206   35.6246   41.4400 H   0  0  0  0  0  0  0  0  0  0  0  0
   38.2563   35.0903   39.8187 H   0  0  0  0  0  0  0  0  0  0  0  0
   36.6256   28.6132   42.9805 H   0  0  0  0  0  0  0  0  0  0  0  0
   35.3527   29.0815   40.6470 H   0  0  0  0  0  0  0  0  0  0  0  0
  1  6  1  0
  1 12  1  0
  2  1  2  0
  3  4  2  0
  3  2  1  0
  4  5  1  0
  5  7  1  0
  5  6  2  0
  7  8  1  0
  9  8  1  0
 10 11  1  0
 10  9  1  0
 11  7  1  0
 12 13  1  0
 13 14  2  0
 15 14  1  0
 16 12  1  0
 16 15  2  0
 17 20  1  0
 17 16  1  0
 18 17  1  0
 19 17  1  0
  2 21  1  0
  3 22  1  0
  8 23  1  0
  8 24  1  0
  9 25  1  0
  9 26  1  0
 10 27  1  0
 10 28  1  0
 11 29  1  0
 11 30  1  0
 14 31  1  0
 15 32  1  0
M  ISO  8  21  14  22  14  23  13  24  13  25  13  26  13  27  13  28  13
M  ISO  4  29  13  30  13  31  14  32  14
M  END
>  <minimizedAffinity>  (1) 
-5.35936308

>  <minimizedRMSD>  (1) 
2.27932

$$$$
