
     RDKit          3D

 28 30  0  0  0  0  0  0  0  0999 V2000
   38.7180   32.2280   40.5110 C   0  0  0  0  0  0  0  0  0  0  0  0
   37.3610   32.3370   40.2220 C   0  0  0  0  0  0  0  0  0  0  0  0
   36.5070   31.3460   40.6800 C   0  0  0  0  0  0  0  0  0  0  0  0
   37.0440   30.3270   41.3840 N   0  0  0  0  0  0  0  0  0  0  0  0
   38.3650   30.2380   41.6560 C   0  0  0  0  0  0  0  0  0  0  0  0
   39.2110   31.1820   41.2240 N   0  0  0  0  0  0  0  0  0  0  0  0
   39.7350   33.1550   40.1180 N   0  0  0  0  0  0  0  0  0  0  0  0
   40.2620   34.2080   40.6760 N   0  0  0  0  0  0  0  0  0  0  0  0
   41.2100   34.7690   39.9100 C   0  0  0  0  0  0  0  0  0  0  0  0
   41.2880   34.0000   38.7640 C   0  0  0  0  0  0  0  0  0  0  0  0
   40.3530   32.9950   38.9210 C   0  0  0  0  0  0  0  0  0  0  0  0
   40.1390   31.9620   37.8900 C   0  0  0  0  0  0  0  0  0  0  0  0
   40.9810   32.0440   36.8080 F   0  0  0  0  0  0  0  0  0  0  0  0
   38.8180   31.9140   37.4560 F   0  0  0  0  0  0  0  0  0  0  0  0
   40.3910   30.6990   38.4430 F   0  0  0  0  0  0  0  0  0  0  0  0
   38.8660   29.1010   42.4240 C   0  0  0  0  0  0  0  0  0  0  0  0
   37.9840   28.2520   43.0620 C   0  0  0  0  0  0  0  0  0  0  0  0
   38.4640   27.1640   43.7970 C   0  0  0  0  0  0  0  0  0  0  0  0
   39.8010   26.9110   43.9070 N   0  0  0  0  0  0  0  0  0  0  0  0
   40.6200   27.7680   43.2680 C   0  0  0  0  0  0  0  0  0  0  0  0
   40.1950   28.8380   42.5420 N   0  0  0  0  0  0  0  0  0  0  0  0
   36.9753   33.1895   39.6437 H   0  0  0  0  0  0  0  0  0  0  0  0
   35.4268   31.3885   40.4764 H   0  0  0  0  0  0  0  0  0  0  0  0
   41.8062   35.6626   40.1467 H   0  0  0  0  0  0  0  0  0  0  0  0
   41.9565   34.1560   37.9045 H   0  0  0  0  0  0  0  0  0  0  0  0
   36.9011   28.4320   42.9919 H   0  0  0  0  0  0  0  0  0  0  0  0
   37.7478   26.4963   44.2983 H   0  0  0  0  0  0  0  0  0  0  0  0
   41.7036   27.5917   43.3373 H   0  0  0  0  0  0  0  0  0  0  0  0
  1  6  1  0
  2  1  2  0
  2  3  1  0
  3  4  2  0
  4  5  1  0
  5 16  1  0
  6  5  2  0
  7  1  1  0
  7  8  1  0
  9  8  2  0
 10 11  2  0
 10  9  1  0
 11  7  1  0
 12 15  1  0
 12 11  1  0
 13 12  1  0
 14 12  1  0
 16 21  1  0
 16 17  2  0
 17 18  1  0
 18 19  2  0
 20 19  1  0
 21 20  2  0
  2 22  1  0
  3 23  1  0
  9 24  1  0
 10 25  1  0
 17 26  1  0
 18 27  1  0
 20 28  1  0
M  ISO  7  22  14  23  14  24  14  25  14  26  14  27  14  28  14
M  END
>  <minimizedAffinity>  (1) 
-5.15344238

>  <minimizedRMSD>  (1) 
6.63325024

$$$$
