
     RDKit          3D

 27 29  0  0  0  0  0  0  0  0999 V2000
   37.5890   31.0880   40.4370 N   0  0  0  0  0  0  0  0  0  0  0  0
   36.8090   30.5950   41.3570 N   0  0  0  0  0  0  0  0  0  0  0  0
   35.7740   29.9300   40.8380 C   0  0  0  0  0  0  0  0  0  0  0  0
   35.8900   29.9960   39.4670 C   0  0  0  0  0  0  0  0  0  0  0  0
   37.0460   30.7350   39.2340 C   0  0  0  0  0  0  0  0  0  0  0  0
   38.7910   31.8550   40.4520 C   0  0  0  0  0  0  0  0  0  0  0  0
   40.0870   31.3300   40.4820 C   0  0  0  0  0  0  0  0  0  0  0  0
   41.1500   32.2290   40.4920 C   0  0  0  0  0  0  0  0  0  0  0  0
   40.8790   33.5510   40.4750 N   0  0  0  0  0  0  0  0  0  0  0  0
   39.6130   34.0380   40.4460 C   0  0  0  0  0  0  0  0  0  0  0  0
   38.5680   33.1890   40.4350 N   0  0  0  0  0  0  0  0  0  0  0  0
   39.4020   35.5140   40.4280 C   0  0  0  0  0  0  0  0  0  0  0  0
   40.2720   36.4220   41.1800 C   0  0  0  0  0  0  0  0  0  0  0  0
   40.4870   36.2600   39.6890 C   0  0  0  0  0  0  0  0  0  0  0  0
   37.5340   31.0390   37.8580 C   0  0  0  0  0  0  0  0  0  0  0  0
   36.7560   30.4880   36.8670 F   0  0  0  0  0  0  0  0  0  0  0  0
   38.8550   30.7080   37.6940 F   0  0  0  0  0  0  0  0  0  0  0  0
   37.4420   32.4230   37.6410 F   0  0  0  0  0  0  0  0  0  0  0  0
   34.9764   29.4233   41.4010 H   0  0  0  0  0  0  0  0  0  0  0  0
   35.2141   29.5586   38.7174 H   0  0  0  0  0  0  0  0  0  0  0  0
   40.2605   30.2439   40.4972 H   0  0  0  0  0  0  0  0  0  0  0  0
   42.1893   31.8692   40.5133 H   0  0  0  0  0  0  0  0  0  0  0  0
   38.3063   35.4206   40.4010 H   0  0  0  0  0  0  0  0  0  0  0  0
   39.8677   37.3654   41.5757 H   0  0  0  0  0  0  0  0  0  0  0  0
   40.9121   36.3197   42.0687 H   0  0  0  0  0  0  0  0  0  0  0  0
   41.3700   35.7247   39.3099 H   0  0  0  0  0  0  0  0  0  0  0  0
   40.5314   36.9327   38.8198 H   0  0  0  0  0  0  0  0  0  0  0  0
  1  6  1  0
  1  2  1  0
  3  2  2  0
  4  3  1  0
  5  4  2  0
  5  1  1  0
  6  7  2  0
  7  8  1  0
  9  8  2  0
 10  9  1  0
 11 10  2  0
 11  6  1  0
 12 10  1  0
 12 13  1  0
 14 12  1  0
 14 13  1  0
 15  5  1  0
 16 15  1  0
 17 15  1  0
 18 15  1  0
  3 19  1  0
  4 20  1  0
  7 21  1  0
  8 22  1  0
 12 23  1  0
 13 24  1  0
 13 25  1  0
 14 26  1  0
 14 27  1  0
M  ISO  8  19  14  20  14  21  14  22  14  23  13  24  13  25  13  26  13
M  ISO  1  27  13
M  END
>  <minimizedAffinity>  (1) 
-4.71815777

>  <minimizedRMSD>  (1) 
1.0868268

$$$$
