
     RDKit          3D

 21 22  0  0  0  0  0  0  0  0999 V2000
   37.2500   31.3830   40.2660 N   0  0  0  0  0  0  0  0  0  0  0  0
   36.4220   30.9030   41.1520 N   0  0  0  0  0  0  0  0  0  0  0  0
   35.5750   30.0230   40.6270 C   0  0  0  0  0  0  0  0  0  0  0  0
   35.8770   29.9220   39.2880 C   0  0  0  0  0  0  0  0  0  0  0  0
   36.9400   30.7930   39.0860 C   0  0  0  0  0  0  0  0  0  0  0  0
   38.3170   32.3230   40.3070 C   0  0  0  0  0  0  0  0  0  0  0  0
   39.6550   32.0300   40.5920 C   0  0  0  0  0  0  0  0  0  0  0  0
   40.5730   33.0790   40.5900 C   0  0  0  0  0  0  0  0  0  0  0  0
   40.1240   34.3190   40.3140 N   0  0  0  0  0  0  0  0  0  0  0  0
   38.8230   34.5850   40.0390 C   0  0  0  0  0  0  0  0  0  0  0  0
   37.9220   33.5850   40.0370 N   0  0  0  0  0  0  0  0  0  0  0  0
   38.4240   35.8950   39.7600 O   0  0  0  0  0  0  0  0  0  0  0  0
   37.5620   30.9690   37.7410 C   0  0  0  0  0  0  0  0  0  0  0  0
   36.9660   30.2450   36.7480 F   0  0  0  0  0  0  0  0  0  0  0  0
   38.9160   30.7250   37.7650 F   0  0  0  0  0  0  0  0  0  0  0  0
   37.4260   32.3100   37.3680 F   0  0  0  0  0  0  0  0  0  0  0  0
   34.7827   29.4786   41.1616 H   0  0  0  0  0  0  0  0  0  0  0  0
   35.3823   29.2872   38.5381 H   0  0  0  0  0  0  0  0  0  0  0  0
   39.9738   31.0004   40.8116 H   0  0  0  0  0  0  0  0  0  0  0  0
   41.6361   32.8992   40.8080 H   0  0  0  0  0  0  0  0  0  0  0  0
   37.4747   36.0911   39.5590 H   0  0  0  0  0  0  0  0  0  0  0  0
  1  6  1  0
  1  2  1  0
  3  2  2  0
  4  3  1  0
  5  4  2  0
  5  1  1  0
  6  7  2  0
  8  7  1  0
  9  8  2  0
 10  9  1  0
 11 10  2  0
 11  6  1  0
 12 10  1  0
 13 15  1  0
 13  5  1  0
 14 13  1  0
 16 13  1  0
  3 17  1  0
  4 18  1  0
  7 19  1  0
  8 20  1  0
 12 21  1  0
M  ISO  5  17  14  18  14  19  14  20  14  21   3
M  END
>  <minimizedAffinity>  (1) 
-4.53188276

>  <minimizedRMSD>  (1) 
0.230575219

$$$$
