
     RDKit          3D

 23 24  0  0  0  0  0  0  0  0999 V2000
   37.4120   31.1230   40.3500 N   0  0  0  0  0  0  0  0  0  0  0  0
   36.6290   30.6140   41.2490 N   0  0  0  0  0  0  0  0  0  0  0  0
   35.6660   29.8510   40.7050 C   0  0  0  0  0  0  0  0  0  0  0  0
   35.8530   29.8760   39.3460 C   0  0  0  0  0  0  0  0  0  0  0  0
   36.9630   30.6860   39.1350 C   0  0  0  0  0  0  0  0  0  0  0  0
   38.5520   31.9780   40.3930 C   0  0  0  0  0  0  0  0  0  0  0  0
   39.8810   31.5600   40.5480 C   0  0  0  0  0  0  0  0  0  0  0  0
   40.8820   32.5110   40.5710 C   0  0  0  0  0  0  0  0  0  0  0  0
   40.5140   33.8120   40.4390 N   0  0  0  0  0  0  0  0  0  0  0  0
   39.2210   34.2060   40.2890 C   0  0  0  0  0  0  0  0  0  0  0  0
   38.2360   33.2840   40.2650 N   0  0  0  0  0  0  0  0  0  0  0  0
   38.9450   35.6600   40.1540 C   0  0  0  0  0  0  0  0  0  0  0  0
   37.4900   30.9650   37.7840 C   0  0  0  0  0  0  0  0  0  0  0  0
   36.7860   30.3660   36.7660 F   0  0  0  0  0  0  0  0  0  0  0  0
   38.8390   30.6630   37.6780 F   0  0  0  0  0  0  0  0  0  0  0  0
   37.3910   32.3310   37.5280 F   0  0  0  0  0  0  0  0  0  0  0  0
   34.8770   29.3089   41.2467 H   0  0  0  0  0  0  0  0  0  0  0  0
   35.2503   29.3623   38.5826 H   0  0  0  0  0  0  0  0  0  0  0  0
   40.1226   30.4917   40.6497 H   0  0  0  0  0  0  0  0  0  0  0  0
   41.9375   32.2258   40.6917 H   0  0  0  0  0  0  0  0  0  0  0  0
   38.8593   36.1113   41.1535 H   0  0  0  0  0  0  0  0  0  0  0  0
   39.7681   36.1400   39.6043 H   0  0  0  0  0  0  0  0  0  0  0  0
   38.0033   35.8050   39.6043 H   0  0  0  0  0  0  0  0  0  0  0  0
  1  6  1  0
  1  2  1  0
  3  2  2  0
  4  3  1  0
  5  4  2  0
  5  1  1  0
  6  7  2  0
  7  8  1  0
  9  8  2  0
 10  9  1  0
 11 10  2  0
 11  6  1  0
 12 10  1  0
 13  5  1  0
 14 13  1  0
 15 13  1  0
 16 13  1  0
  3 17  1  0
  4 18  1  0
  7 19  1  0
  8 20  1  0
 12 21  1  0
 12 22  1  0
 12 23  1  0
M  ISO  7  17  14  18  14  19  14  20  14  21   8  22   8  23   8
M  END
>  <minimizedAffinity>  (1) 
-4.33467579

>  <minimizedRMSD>  (1) 
0.590478957

$$$$
