
     RDKit          3D

 37 41  0  0  0  0  0  0  0  0999 V2000
   40.0880   31.4570   39.5950 N   0  0  0  0  0  0  0  0  0  0  0  0
   40.4010   30.2720   40.0440 N   0  0  0  0  0  0  0  0  0  0  0  0
   39.3050   29.5020   40.2190 C   0  0  0  0  0  0  0  0  0  0  0  0
   38.2230   30.2660   39.8500 C   0  0  0  0  0  0  0  0  0  0  0  0
   38.7320   31.4860   39.4630 C   0  0  0  0  0  0  0  0  0  0  0  0
   40.8510   32.6200   39.2520 C   0  0  0  0  0  0  0  0  0  0  0  0
   41.3050   32.9420   37.9870 C   0  0  0  0  0  0  0  0  0  0  0  0
   42.0310   34.1070   37.8340 C   0  0  0  0  0  0  0  0  0  0  0  0
   42.2570   34.8640   38.9280 N   0  0  0  0  0  0  0  0  0  0  0  0
   41.8090   34.5380   40.1570 C   0  0  0  0  0  0  0  0  0  0  0  0
   41.0940   33.4020   40.3400 N   0  0  0  0  0  0  0  0  0  0  0  0
   42.1060   35.4140   41.2460 N   0  0  0  0  0  0  0  0  0  0  0  0
   43.2970   35.2860   41.8570 C   0  0  0  0  0  0  0  0  0  0  0  0
   43.3900   36.2040   42.8630 N   0  0  0  0  0  0  0  0  0  0  0  0
   42.2180   36.8940   42.8450 C   0  0  0  0  0  0  0  0  0  0  0  0
   41.4420   36.4000   41.8530 N   0  0  0  0  0  0  0  0  0  0  0  0
   36.9060   29.7780   39.9040 N   0  0  0  0  0  0  0  0  0  0  0  0
   36.0850   29.5000   40.9580 C   0  0  0  0  0  0  0  0  0  0  0  0
   34.8930   29.0460   40.5320 N   0  0  0  0  0  0  0  0  0  0  0  0
   34.9560   29.0360   39.1930 C   0  0  0  0  0  0  0  0  0  0  0  0
   33.9860   28.6520   38.2910 C   0  0  0  0  0  0  0  0  0  0  0  0
   34.3110   28.7390   36.9730 N   0  0  0  0  0  0  0  0  0  0  0  0
   35.5290   29.1820   36.5970 C   0  0  0  0  0  0  0  0  0  0  0  0
   36.4930   29.5620   37.4510 N   0  0  0  0  0  0  0  0  0  0  0  0
   36.2100   29.4910   38.7790 C   0  0  0  0  0  0  0  0  0  0  0  0
   37.8550   32.5870   38.9940 C   0  0  0  0  0  0  0  0  0  0  0  0
   36.6200   32.6090   39.5730 F   0  0  0  0  0  0  0  0  0  0  0  0
   37.7410   32.6140   37.6110 F   0  0  0  0  0  0  0  0  0  0  0  0
   38.4380   33.8210   39.3340 F   0  0  0  0  0  0  0  0  0  0  0  0
   39.2825   28.4651   40.5855 H   0  0  0  0  0  0  0  0  0  0  0  0
   41.0943   32.2894   37.1269 H   0  0  0  0  0  0  0  0  0  0  0  0
   42.4142   34.4092   36.8482 H   0  0  0  0  0  0  0  0  0  0  0  0
   44.0746   34.5559   41.5882 H   0  0  0  0  0  0  0  0  0  0  0  0
   41.9465   37.7161   43.5235 H   0  0  0  0  0  0  0  0  0  0  0  0
   36.3613   29.6299   42.0148 H   0  0  0  0  0  0  0  0  0  0  0  0
   32.9996   28.2936   38.6206 H   0  0  0  0  0  0  0  0  0  0  0  0
   35.7464   29.2353   35.5200 H   0  0  0  0  0  0  0  0  0  0  0  0
  1  2  1  0
  2  3  2  0
  4 17  1  0
  4  3  1  0
  5  1  1  0
  5  4  2  0
  6  1  1  0
  6 11  1  0
  7  6  2  0
  8  7  1  0
  8  9  2  0
  9 10  1  0
 10 11  2  0
 10 12  1  0
 12 16  1  0
 12 13  1  0
 13 14  2  0
 15 14  1  0
 16 15  2  0
 17 18  1  0
 19 18  2  0
 20 19  1  0
 21 20  2  0
 22 21  1  0
 23 22  2  0
 23 24  1  0
 24 25  2  0
 25 20  1  0
 25 17  1  0
 26 29  1  0
 26  5  1  0
 26 27  1  0
 28 26  1  0
  3 30  1  0
  7 31  1  0
  8 32  1  0
 13 33  1  0
 15 34  1  0
 18 35  1  0
 21 36  1  0
 23 37  1  0
M  ISO  8  30  14  31  14  32  14  33  14  34  14  35  14  36  14  37  14
M  END
>  <minimizedAffinity>  (1) 
-6.51744986

>  <minimizedRMSD>  (1) 
2.95219636

$$$$
