
     RDKit          3D

 33 35  0  0  1  0  0  0  0  0999 V2000
   36.2980   27.3180   39.3030 C   0  0  0  0  0  0  0  0  0  0  0  0
   35.6550   26.8880   38.1430 C   0  0  0  0  0  0  0  0  0  0  0  0
   35.8370   25.5330   38.1600 C   0  0  0  0  0  0  0  0  0  0  0  0
   36.5460   25.1570   39.2620 N   0  0  0  0  0  0  0  0  0  0  0  0
   36.8180   26.2560   39.9460 N   0  0  0  0  0  0  0  0  0  0  0  0
   36.2230   29.1450   41.0300 C   0  0  0  0  0  0  0  0  0  0  0  0
   36.3710   28.7050   39.7230 C   0  0  0  0  0  0  0  0  0  0  0  0
   36.6120   29.6670   38.7400 C   0  0  0  0  0  0  0  0  0  0  0  0
   36.6910   30.9880   39.1020 N   0  0  0  0  0  0  0  0  0  0  0  0
   36.5320   31.3460   40.4320 C   0  0  0  0  0  0  0  0  0  0  0  0
   36.2970   30.4160   41.3920 N   0  0  0  0  0  0  0  0  0  0  0  0
   36.8430   23.7580   39.5190 C   0  0  1  0  0  0  0  0  0  0  0  0
   37.2380   23.5670   40.8780 N   0  0  0  0  0  0  0  0  0  0  0  0
   38.5170   23.8560   41.3880 C   0  0  0  0  0  0  0  0  0  0  0  0
   39.4250   24.1710   40.5380 N   0  0  0  0  0  0  0  0  0  0  0  0
   38.7960   23.7830   42.7610 N   0  0  0  0  0  0  0  0  0  0  0  0
   40.3990   24.3690   40.8470 H   0  0  0  0  0  0  0  0  0  0  0  0
   35.6160   22.9810   39.2280 N   0  0  0  0  0  0  0  0  0  0  0  0
   35.4260   22.0600   38.2690 C   0  0  0  0  0  0  0  0  0  0  0  0
   34.1660   21.5980   38.3550 N   0  0  0  0  0  0  0  0  0  0  0  0
   33.5910   22.2510   39.3820 C   0  0  0  0  0  0  0  0  0  0  0  0
   34.4760   23.1060   39.9280 N   0  0  0  0  0  0  0  0  0  0  0  0
   35.1269   27.4946   37.3926 H   0  0  0  0  0  0  0  0  0  0  0  0
   35.4629   24.8416   37.3906 H   0  0  0  0  0  0  0  0  0  0  0  0
   36.0331   28.3941   41.8111 H   0  0  0  0  0  0  0  0  0  0  0  0
   36.7370   29.3694   37.6884 H   0  0  0  0  0  0  0  0  0  0  0  0
   36.5978   32.4069   40.7152 H   0  0  0  0  0  0  0  0  0  0  0  0
   37.6752   23.4229   38.8825 H   0  0  0  0  0  0  0  0  0  0  0  0
   36.5364   23.1908   41.5315 H   0  0  0  0  0  0  0  0  0  0  0  0
   39.7417   24.0001   43.1066 H   0  0  0  0  0  0  0  0  0  0  0  0
   38.0551   23.5123   43.4234 H   0  0  0  0  0  0  0  0  0  0  0  0
   36.1777   21.7367   37.5339 H   0  0  0  0  0  0  0  0  0  0  0  0
   32.5552   22.1078   39.7234 H   0  0  0  0  0  0  0  0  0  0  0  0
  1  7  1  0
  1  5  2  0
  2  3  2  0
  2  1  1  0
  3  4  1  0
  4 12  1  0
  4  5  1  0
  6 11  2  0
  7  6  1  0
  8  9  1  0
  8  7  2  0
  9 10  2  0
 10 11  1  0
 12 13  1  0
 13 14  1  0
 14 16  1  0
 15 17  1  0
 15 14  2  0
 18 12  1  0
 18 22  1  0
 19 20  2  0
 19 18  1  0
 20 21  1  0
 21 22  2  0
  2 23  1  0
  3 24  1  0
  6 25  1  0
  8 26  1  0
 10 27  1  0
 12 28  1  6
 13 29  1  0
 16 30  1  0
 16 31  1  0
 19 32  1  0
 21 33  1  0
M  ISO  8  23  14  24  14  25  14  26  14  27  14  28   8  32  14  33  14
M  END
>  <minimizedAffinity>  (1) 
-4.02438879

>  <minimizedRMSD>  (1) 
0.862114727

$$$$
