
     RDKit          3D

 42 45  0  0  0  0  0  0  0  0999 V2000
   41.4800   31.0810   41.5400 N   0  0  0  0  0  0  0  0  0  0  0  0
   41.9460   30.0530   42.2050 N   0  0  0  0  0  0  0  0  0  0  0  0
   40.9410   29.2290   42.5810 C   0  0  0  0  0  0  0  0  0  0  0  0
   39.7710   29.7760   42.1230 C   0  0  0  0  0  0  0  0  0  0  0  0
   40.1330   30.9310   41.4760 C   0  0  0  0  0  0  0  0  0  0  0  0
   42.1000   32.2210   40.9340 C   0  0  0  0  0  0  0  0  0  0  0  0
   42.3930   32.3690   39.5930 C   0  0  0  0  0  0  0  0  0  0  0  0
   42.9960   33.5430   39.1830 C   0  0  0  0  0  0  0  0  0  0  0  0
   43.2620   34.4740   40.1170 N   0  0  0  0  0  0  0  0  0  0  0  0
   42.9720   34.3270   41.4360 C   0  0  0  0  0  0  0  0  0  0  0  0
   42.3860   33.1870   41.8410 N   0  0  0  0  0  0  0  0  0  0  0  0
   43.3010   35.3810   42.3290 N   0  0  0  0  0  0  0  0  0  0  0  0
   44.5490   35.4450   42.8040 C   0  0  0  0  0  0  0  0  0  0  0  0
   44.6540   36.5280   43.6420 N   0  0  0  0  0  0  0  0  0  0  0  0
   43.4240   37.1170   43.6540 C   0  0  0  0  0  0  0  0  0  0  0  0
   42.6140   36.4020   42.8470 N   0  0  0  0  0  0  0  0  0  0  0  0
   38.5010   29.0850   42.3850 C   0  0  0  0  0  0  0  0  0  0  0  0
   38.6200   28.1120   43.5680 C   0  0  0  0  0  0  0  0  0  0  0  0
   37.2550   27.7180   44.0590 C   0  0  0  0  0  0  0  0  0  0  0  0
   36.3160   27.6950   42.8740 C   0  0  0  0  0  0  0  0  0  0  0  0
   37.1050   27.1140   41.7210 C   0  0  0  0  0  0  0  0  0  0  0  0
   38.0400   28.2180   41.2160 C   0  0  0  0  0  0  0  0  0  0  0  0
   39.1250   31.8180   40.8330 C   0  0  0  0  0  0  0  0  0  0  0  0
   37.8470   31.5670   41.1980 F   0  0  0  0  0  0  0  0  0  0  0  0
   39.2290   31.8090   39.4470 F   0  0  0  0  0  0  0  0  0  0  0  0
   39.3720   33.1470   41.2030 F   0  0  0  0  0  0  0  0  0  0  0  0
   41.0440   28.2929   43.1494 H   0  0  0  0  0  0  0  0  0  0  0  0
   42.1532   31.5746   38.8709 H   0  0  0  0  0  0  0  0  0  0  0  0
   43.2505   33.7109   38.1261 H   0  0  0  0  0  0  0  0  0  0  0  0
   45.3610   34.7433   42.5625 H   0  0  0  0  0  0  0  0  0  0  0  0
   43.1424   38.0162   44.2216 H   0  0  0  0  0  0  0  0  0  0  0  0
   37.7878   29.8997   42.5790 H   0  0  0  0  0  0  0  0  0  0  0  0
   39.1629   27.2118   43.2442 H   0  0  0  0  0  0  0  0  0  0  0  0
   39.1649   28.6073   44.3852 H   0  0  0  0  0  0  0  0  0  0  0  0
   37.2984   26.7199   44.5193 H   0  0  0  0  0  0  0  0  0  0  0  0
   36.8996   28.4368   44.8120 H   0  0  0  0  0  0  0  0  0  0  0  0
   35.4411   27.0652   43.0930 H   0  0  0  0  0  0  0  0  0  0  0  0
   35.9443   28.7030   42.6376 H   0  0  0  0  0  0  0  0  0  0  0  0
   37.6921   26.2490   42.0630 H   0  0  0  0  0  0  0  0  0  0  0  0
   36.4340   26.7711   40.9197 H   0  0  0  0  0  0  0  0  0  0  0  0
   38.9164   27.7609   40.7333 H   0  0  0  0  0  0  0  0  0  0  0  0
   37.5006   28.8453   40.4911 H   0  0  0  0  0  0  0  0  0  0  0  0
  1  2  1  0
  2  3  2  0
  4 17  1  0
  4  3  1  0
  5  1  1  0
  5  4  2  0
  6  1  1  0
  6 11  1  0
  7  6  2  0
  8  7  1  0
  8  9  2  0
  9 10  1  0
 10 11  2  0
 10 12  1  0
 12 13  1  0
 12 16  1  0
 13 14  2  0
 14 15  1  0
 16 15  2  0
 17 18  1  0
 18 19  1  0
 20 19  1  0
 21 20  1  0
 22 21  1  0
 22 17  1  0
 23 24  1  0
 23 26  1  0
 23  5  1  0
 25 23  1  0
  3 27  1  0
  7 28  1  0
  8 29  1  0
 13 30  1  0
 15 31  1  0
 17 32  1  0
 18 33  1  0
 18 34  1  0
 19 35  1  0
 19 36  1  0
 20 37  1  0
 20 38  1  0
 21 39  1  0
 21 40  1  0
 22 41  1  0
 22 42  1  0
M  ISO  8  27  14  28  14  29  14  30  14  31  14  32  13  33  13  34  13
M  ISO  8  35  13  36  13  37  13  38  13  39  13  40  13  41  13  42  13
M  END
>  <minimizedAffinity>  (1) 
-6.21807957

>  <minimizedRMSD>  (1) 
3.25680614

$$$$
