
     RDKit          3D

 35 37  0  0  0  0  0  0  0  0999 V2000
   39.3420   30.8280   40.1680 C   0  0  0  0  0  0  0  0  0  0  0  0
   39.5450   30.4190   38.8640 C   0  0  0  0  0  0  0  0  0  0  0  0
   39.8370   31.3870   37.9190 C   0  0  0  0  0  0  0  0  0  0  0  0
   39.9080   32.6730   38.3230 N   0  0  0  0  0  0  0  0  0  0  0  0
   39.7110   33.0640   39.5900 C   0  0  0  0  0  0  0  0  0  0  0  0
   39.4240   32.1370   40.5340 N   0  0  0  0  0  0  0  0  0  0  0  0
   39.8100   34.4480   39.9090 N   0  0  0  0  0  0  0  0  0  0  0  0
   41.0350   34.9630   40.1500 C   0  0  0  0  0  0  0  0  0  0  0  0
   40.9170   36.2900   40.4350 N   0  0  0  0  0  0  0  0  0  0  0  0
   39.5850   36.5740   40.3590 C   0  0  0  0  0  0  0  0  0  0  0  0
   38.9340   35.4370   40.0390 N   0  0  0  0  0  0  0  0  0  0  0  0
   39.0300   29.9740   41.2800 N   0  0  0  0  0  0  0  0  0  0  0  0
   39.7270   29.4910   42.2600 N   0  0  0  0  0  0  0  0  0  0  0  0
   38.9760   28.7270   43.0670 C   0  0  0  0  0  0  0  0  0  0  0  0
   37.6910   28.7270   42.5490 C   0  0  0  0  0  0  0  0  0  0  0  0
   37.7510   29.5160   41.4280 C   0  0  0  0  0  0  0  0  0  0  0  0
   36.5600   29.7630   40.5820 C   0  0  0  0  0  0  0  0  0  0  0  0
   35.3890   29.3060   41.0880 F   0  0  0  0  0  0  0  0  0  0  0  0
   36.7340   29.2770   39.2900 F   0  0  0  0  0  0  0  0  0  0  0  0
   36.3900   31.1480   40.4210 F   0  0  0  0  0  0  0  0  0  0  0  0
   36.6440   27.9630   43.2440 C   0  0  0  0  0  0  0  0  0  0  0  0
   36.7790   26.4900   42.8600 C   0  0  0  0  0  0  0  0  0  0  0  0
   36.7610   28.0630   44.7530 C   0  0  0  0  0  0  0  0  0  0  0  0
   39.4767   29.3570   38.5856 H   0  0  0  0  0  0  0  0  0  0  0  0
   40.0067   31.1156   36.8666 H   0  0  0  0  0  0  0  0  0  0  0  0
   41.9794   34.3997   40.1208 H   0  0  0  0  0  0  0  0  0  0  0  0
   39.1229   37.5577   40.5289 H   0  0  0  0  0  0  0  0  0  0  0  0
   39.3163   28.1996   43.9703 H   0  0  0  0  0  0  0  0  0  0  0  0
   35.6723   28.3822   42.9439 H   0  0  0  0  0  0  0  0  0  0  0  0
   36.8352   25.8771   43.7717 H   0  0  0  0  0  0  0  0  0  0  0  0
   35.9051   26.1844   42.2660 H   0  0  0  0  0  0  0  0  0  0  0  0
   37.6939   26.3483   42.2660 H   0  0  0  0  0  0  0  0  0  0  0  0
   36.0050   27.4168   45.2230 H   0  0  0  0  0  0  0  0  0  0  0  0
   37.7650   27.7396   45.0652 H   0  0  0  0  0  0  0  0  0  0  0  0
   36.5979   29.1051   45.0652 H   0  0  0  0  0  0  0  0  0  0  0  0
  1  6  1  0
  1 12  1  0
  2  1  2  0
  3  4  2  0
  3  2  1  0
  4  5  1  0
  5  7  1  0
  5  6  2  0
  7 11  1  0
  7  8  1  0
  8  9  2  0
 10  9  1  0
 11 10  2  0
 12 16  1  0
 12 13  1  0
 13 14  2  0
 15 14  1  0
 15 21  1  0
 16 15  2  0
 17 18  1  0
 17 16  1  0
 19 17  1  0
 20 17  1  0
 21 23  1  0
 22 21  1  0
  2 24  1  0
  3 25  1  0
  8 26  1  0
 10 27  1  0
 14 28  1  0
 21 29  1  0
 22 30  1  0
 22 31  1  0
 22 32  1  0
 23 33  1  0
 23 34  1  0
 23 35  1  0
M  ISO  8  24  14  25  14  26  14  27  14  28  14  29   8  30   8  31   8
M  ISO  4  32   8  33   8  34   8  35   8
M  END
>  <minimizedAffinity>  (1) 
-6.15012932

>  <minimizedRMSD>  (1) 
1.07071471

$$$$
