
     RDKit          3D

 32 34  0  0  0  0  0  0  0  0999 V2000
   39.1130   30.1500   40.2480 C   0  0  0  0  0  0  0  0  0  0  0  0
   39.2790   29.7010   38.9330 C   0  0  0  0  0  0  0  0  0  0  0  0
   39.4830   30.6320   37.9420 C   0  0  0  0  0  0  0  0  0  0  0  0
   39.5100   31.9330   38.2950 N   0  0  0  0  0  0  0  0  0  0  0  0
   39.3510   32.3620   39.5590 C   0  0  0  0  0  0  0  0  0  0  0  0
   39.1480   31.4590   40.5540 N   0  0  0  0  0  0  0  0  0  0  0  0
   39.3980   33.7550   39.8190 N   0  0  0  0  0  0  0  0  0  0  0  0
   40.6070   34.3440   39.9770 C   0  0  0  0  0  0  0  0  0  0  0  0
   40.4360   35.6720   40.2160 N   0  0  0  0  0  0  0  0  0  0  0  0
   39.0940   35.8880   40.2030 C   0  0  0  0  0  0  0  0  0  0  0  0
   38.4760   34.7150   39.9600 N   0  0  0  0  0  0  0  0  0  0  0  0
   38.8940   29.3170   41.3890 N   0  0  0  0  0  0  0  0  0  0  0  0
   39.7040   28.7560   42.2530 N   0  0  0  0  0  0  0  0  0  0  0  0
   39.0120   28.0510   43.1670 C   0  0  0  0  0  0  0  0  0  0  0  0
   37.6770   28.1780   42.8550 C   0  0  0  0  0  0  0  0  0  0  0  0
   37.6350   28.9790   41.7330 C   0  0  0  0  0  0  0  0  0  0  0  0
   36.3540   29.3530   41.0830 C   0  0  0  0  0  0  0  0  0  0  0  0
   35.2840   28.5930   41.4780 F   0  0  0  0  0  0  0  0  0  0  0  0
   36.4530   29.3950   39.7060 F   0  0  0  0  0  0  0  0  0  0  0  0
   36.0120   30.6700   41.4650 F   0  0  0  0  0  0  0  0  0  0  0  0
   36.5340   27.5600   43.6020 C   0  0  0  0  0  0  0  0  0  0  0  0
   36.5090   28.1030   45.0150 C   0  0  0  0  0  0  0  0  0  0  0  0
   39.2470   28.6270   38.6974 H   0  0  0  0  0  0  0  0  0  0  0  0
   39.6198   30.3252   36.8945 H   0  0  0  0  0  0  0  0  0  0  0  0
   41.5770   33.8284   39.9208 H   0  0  0  0  0  0  0  0  0  0  0  0
   38.5967   36.8559   40.3636 H   0  0  0  0  0  0  0  0  0  0  0  0
   39.4343   27.4797   44.0068 H   0  0  0  0  0  0  0  0  0  0  0  0
   35.5885   27.8064   43.0967 H   0  0  0  0  0  0  0  0  0  0  0  0
   36.6586   26.4674   43.6288 H   0  0  0  0  0  0  0  0  0  0  0  0
   36.5475   27.2676   45.7296 H   0  0  0  0  0  0  0  0  0  0  0  0
   37.3779   28.7593   45.1710 H   0  0  0  0  0  0  0  0  0  0  0  0
   35.5835   28.6767   45.1710 H   0  0  0  0  0  0  0  0  0  0  0  0
  1  6  1  0
  1 12  1  0
  2  1  2  0
  3  4  2  0
  3  2  1  0
  4  5  1  0
  5  7  1  0
  5  6  2  0
  7 11  1  0
  7  8  1  0
  8  9  2  0
 10  9  1  0
 11 10  2  0
 12 16  1  0
 12 13  1  0
 13 14  2  0
 15 14  1  0
 15 21  1  0
 16 15  2  0
 17 20  1  0
 17 18  1  0
 17 16  1  0
 19 17  1  0
 21 22  1  0
  2 23  1  0
  3 24  1  0
  8 25  1  0
 10 26  1  0
 14 27  1  0
 21 28  1  0
 21 29  1  0
 22 30  1  0
 22 31  1  0
 22 32  1  0
M  ISO  8  23  14  24  14  25  14  26  14  27  14  28   8  29   8  30   8
M  ISO  2  31   8  32   8
M  END
>  <minimizedAffinity>  (1) 
-6.13416433

>  <minimizedRMSD>  (1) 
1.53441989

$$$$
