
     RDKit          3D

 29 31  0  0  0  0  0  0  0  0999 V2000
   39.8220   30.6460   40.0500 C   0  0  0  0  0  0  0  0  0  0  0  0
   39.8160   30.2650   38.7220 C   0  0  0  0  0  0  0  0  0  0  0  0
   39.8340   31.2350   37.7450 C   0  0  0  0  0  0  0  0  0  0  0  0
   39.8560   32.5310   38.1510 N   0  0  0  0  0  0  0  0  0  0  0  0
   39.8610   32.8960   39.4430 C   0  0  0  0  0  0  0  0  0  0  0  0
   39.8450   31.9480   40.4100 N   0  0  0  0  0  0  0  0  0  0  0  0
   39.8860   34.2860   39.7510 N   0  0  0  0  0  0  0  0  0  0  0  0
   41.0600   34.9250   39.7700 C   0  0  0  0  0  0  0  0  0  0  0  0
   40.8610   36.2400   40.0850 N   0  0  0  0  0  0  0  0  0  0  0  0
   39.5150   36.3890   40.2590 C   0  0  0  0  0  0  0  0  0  0  0  0
   38.9360   35.1880   40.0520 N   0  0  0  0  0  0  0  0  0  0  0  0
   39.8060   29.7750   41.1810 N   0  0  0  0  0  0  0  0  0  0  0  0
   40.7380   29.2480   41.9300 N   0  0  0  0  0  0  0  0  0  0  0  0
   40.2210   28.4780   42.9000 C   0  0  0  0  0  0  0  0  0  0  0  0
   38.8570   28.5210   42.7530 C   0  0  0  0  0  0  0  0  0  0  0  0
   38.6130   29.3360   41.6760 C   0  0  0  0  0  0  0  0  0  0  0  0
   37.2470   29.6380   41.1930 C   0  0  0  0  0  0  0  0  0  0  0  0
   36.4540   30.2490   42.1180 F   0  0  0  0  0  0  0  0  0  0  0  0
   36.6030   28.5260   40.6790 F   0  0  0  0  0  0  0  0  0  0  0  0
   37.3180   30.5580   40.1280 F   0  0  0  0  0  0  0  0  0  0  0  0
   37.8820   27.8000   43.6280 C   0  0  0  0  0  0  0  0  0  0  0  0
   37.0580   26.9510   42.9140 F   0  0  0  0  0  0  0  0  0  0  0  0
   38.5360   26.9970   44.5420 F   0  0  0  0  0  0  0  0  0  0  0  0
   37.1150   28.6770   44.3860 F   0  0  0  0  0  0  0  0  0  0  0  0
   39.7971   29.1997   38.4485 H   0  0  0  0  0  0  0  0  0  0  0  0
   39.8307   30.9707   36.6772 H   0  0  0  0  0  0  0  0  0  0  0  0
   42.0368   34.4631   39.5637 H   0  0  0  0  0  0  0  0  0  0  0  0
   38.9951   37.3222   40.5213 H   0  0  0  0  0  0  0  0  0  0  0  0
   40.7817   27.9205   43.6647 H   0  0  0  0  0  0  0  0  0  0  0  0
  1  6  1  0
  1 12  1  0
  2  1  2  0
  3  4  2  0
  3  2  1  0
  4  5  1  0
  5  7  1  0
  5  6  2  0
  7  8  1  0
  7 11  1  0
  8  9  2  0
  9 10  1  0
 11 10  2  0
 12 16  1  0
 12 13  1  0
 13 14  2  0
 15 14  1  0
 15 21  1  0
 16 15  2  0
 17 16  1  0
 17 18  1  0
 19 17  1  0
 20 17  1  0
 21 24  1  0
 21 23  1  0
 22 21  1  0
  2 25  1  0
  3 26  1  0
  8 27  1  0
 10 28  1  0
 14 29  1  0
M  ISO  5  25  14  26  14  27  14  28  14  29  14
M  END
>  <minimizedAffinity>  (1) 
-5.99068975

>  <minimizedRMSD>  (1) 
1.71486664

$$$$
