
     RDKit          3D

 32 34  0  0  1  0  0  0  0  0999 V2000
   36.2370   27.4280   39.2430 C   0  0  0  0  0  0  0  0  0  0  0  0
   35.5400   27.0210   38.0980 C   0  0  0  0  0  0  0  0  0  0  0  0
   35.7000   25.6640   38.0940 C   0  0  0  0  0  0  0  0  0  0  0  0
   36.4440   25.2630   39.1640 N   0  0  0  0  0  0  0  0  0  0  0  0
   36.7650   26.3500   39.8550 N   0  0  0  0  0  0  0  0  0  0  0  0
   36.1940   29.2370   40.9850 C   0  0  0  0  0  0  0  0  0  0  0  0
   36.3480   28.8060   39.6720 C   0  0  0  0  0  0  0  0  0  0  0  0
   36.6260   29.7680   38.7150 C   0  0  0  0  0  0  0  0  0  0  0  0
   36.7400   31.0830   39.0740 N   0  0  0  0  0  0  0  0  0  0  0  0
   36.5730   31.4390   40.4030 C   0  0  0  0  0  0  0  0  0  0  0  0
   36.2970   30.5010   41.3650 N   0  0  0  0  0  0  0  0  0  0  0  0
   36.7270   23.8570   39.3910 C   0  0  1  0  0  0  0  0  0  0  0  0
   37.0860   23.6260   40.7530 N   0  0  0  0  0  0  0  0  0  0  0  0
   38.3780   23.8420   41.2750 C   0  0  0  0  0  0  0  0  0  0  0  0
   39.3100   24.1150   40.4410 N   0  0  0  0  0  0  0  0  0  0  0  0
   38.6340   23.7380   42.6520 N   0  0  0  0  0  0  0  0  0  0  0  0
   40.2880   24.2560   40.7590 H   0  0  0  0  0  0  0  0  0  0  0  0
   35.4490   23.0820   39.1480 C   0  0  0  0  0  0  0  0  0  0  0  0
   35.2270   22.3010   38.0650 N   0  0  0  0  0  0  0  0  0  0  0  0
   34.0310   21.7940   38.1870 O   0  0  0  0  0  0  0  0  0  0  0  0
   33.4920   22.2290   39.3140 C   0  0  0  0  0  0  0  0  0  0  0  0
   34.3650   23.0400   39.9360 N   0  0  0  0  0  0  0  0  0  0  0  0
   34.9942   27.6449   37.3748 H   0  0  0  0  0  0  0  0  0  0  0  0
   35.2854   24.9877   37.3320 H   0  0  0  0  0  0  0  0  0  0  0  0
   35.9733   28.4823   41.7543 H   0  0  0  0  0  0  0  0  0  0  0  0
   36.7555   29.4736   37.6631 H   0  0  0  0  0  0  0  0  0  0  0  0
   36.6637   32.4963   40.6925 H   0  0  0  0  0  0  0  0  0  0  0  0
   37.5479   23.5498   38.7264 H   0  0  0  0  0  0  0  0  0  0  0  0
   36.3571   23.2805   41.3935 H   0  0  0  0  0  0  0  0  0  0  0  0
   39.5851   23.8997   43.0127 H   0  0  0  0  0  0  0  0  0  0  0  0
   37.8706   23.5000   43.3012 H   0  0  0  0  0  0  0  0  0  0  0  0
   32.4891   21.9685   39.6833 H   0  0  0  0  0  0  0  0  0  0  0  0
  1  7  1  0
  1  5  2  0
  2  1  1  0
  3  2  2  0
  3  4  1  0
  4 12  1  0
  4  5  1  0
  6 11  2  0
  7  6  1  0
  8  9  1  0
  8  7  2  0
  9 10  2  0
 10 11  1  0
 12 13  1  0
 13 14  1  0
 14 16  1  0
 15 17  1  0
 15 14  2  0
 18 12  1  0
 18 22  1  0
 19 20  1  0
 19 18  2  0
 20 21  1  0
 21 22  2  0
  2 23  1  0
  3 24  1  0
  6 25  1  0
  8 26  1  0
 10 27  1  0
 12 28  1  6
 13 29  1  0
 16 30  1  0
 16 31  1  0
 21 32  1  0
M  ISO  7  23  14  24  14  25  14  26  14  27  14  28   8  32  14
M  END
>  <minimizedAffinity>  (1) 
-4.01252365

>  <minimizedRMSD>  (1) 
0.772366703

$$$$
