
     RDKit          3D

 39 42  0  0  0  0  0  0  0  0999 V2000
   41.1180   30.4520   40.4230 N   0  0  0  0  0  0  0  0  0  0  0  0
   41.7840   30.0400   41.4700 N   0  0  0  0  0  0  0  0  0  0  0  0
   41.2110   28.9480   42.0150 C   0  0  0  0  0  0  0  0  0  0  0  0
   40.1080   28.6490   41.2580 C   0  0  0  0  0  0  0  0  0  0  0  0
   40.0590   29.6050   40.2570 C   0  0  0  0  0  0  0  0  0  0  0  0
   41.2920   31.5400   39.5010 C   0  0  0  0  0  0  0  0  0  0  0  0
   41.8220   31.4520   38.2290 C   0  0  0  0  0  0  0  0  0  0  0  0
   41.9170   32.6050   37.4720 C   0  0  0  0  0  0  0  0  0  0  0  0
   41.4820   33.7660   38.0250 N   0  0  0  0  0  0  0  0  0  0  0  0
   40.9660   33.8310   39.2720 C   0  0  0  0  0  0  0  0  0  0  0  0
   40.8640   32.7220   40.0250 N   0  0  0  0  0  0  0  0  0  0  0  0
   40.5380   35.1110   39.7530 N   0  0  0  0  0  0  0  0  0  0  0  0
   41.4480   35.9290   40.2920 C   0  0  0  0  0  0  0  0  0  0  0  0
   40.8390   37.0910   40.6850 N   0  0  0  0  0  0  0  0  0  0  0  0
   39.5140   36.9450   40.3610 C   0  0  0  0  0  0  0  0  0  0  0  0
   39.3620   35.7350   39.7980 N   0  0  0  0  0  0  0  0  0  0  0  0
   39.2160   27.5640   41.4900 N   0  0  0  0  0  0  0  0  0  0  0  0
   38.2970   27.8890   42.4310 C   0  0  0  0  0  0  0  0  0  0  0  0
   37.3160   26.9770   42.8250 C   0  0  0  0  0  0  0  0  0  0  0  0
   36.2870   27.2880   43.8510 C   0  0  0  0  0  0  0  0  0  0  0  0
   37.3310   25.7390   42.2130 C   0  0  0  0  0  0  0  0  0  0  0  0
   36.4720   24.8790   42.5280 O   0  0  0  0  0  0  0  0  0  0  0  0
   38.2590   25.4550   41.2850 N   0  0  0  0  0  0  0  0  0  0  0  0
   39.1980   26.3460   40.9180 C   0  0  0  0  0  0  0  0  0  0  0  0
   40.1040   26.1740   40.0630 O   0  0  0  0  0  0  0  0  0  0  0  0
   38.9960   29.6190   39.2260 C   0  0  0  0  0  0  0  0  0  0  0  0
   37.8530   28.9640   39.5960 F   0  0  0  0  0  0  0  0  0  0  0  0
   39.4510   29.1510   38.0000 F   0  0  0  0  0  0  0  0  0  0  0  0
   38.6010   30.9390   38.9870 F   0  0  0  0  0  0  0  0  0  0  0  0
   41.5628   28.3996   42.9013 H   0  0  0  0  0  0  0  0  0  0  0  0
   42.1611   30.4859   37.8269 H   0  0  0  0  0  0  0  0  0  0  0  0
   42.3320   32.5823   36.4536 H   0  0  0  0  0  0  0  0  0  0  0  0
   42.5190   35.7037   40.4026 H   0  0  0  0  0  0  0  0  0  0  0  0
   38.7189   37.6857   40.5316 H   0  0  0  0  0  0  0  0  0  0  0  0
   38.3242   28.8874   42.8920 H   0  0  0  0  0  0  0  0  0  0  0  0
   36.7185   27.1576   44.8544 H   0  0  0  0  0  0  0  0  0  0  0  0
   35.9502   28.3281   43.7291 H   0  0  0  0  0  0  0  0  0  0  0  0
   35.4305   26.6086   43.7291 H   0  0  0  0  0  0  0  0  0  0  0  0
   38.2518   24.5260   40.8402 H   0  0  0  0  0  0  0  0  0  0  0  0
  1  2  1  0
  2  3  2  0
  4 17  1  0
  4  3  1  0
  5  1  1  0
  5  4  2  0
  6 11  1  0
  6  1  1  0
  7  6  2  0
  8  9  2  0
  8  7  1  0
  9 10  1  0
 10 12  1  0
 10 11  2  0
 12 16  1  0
 12 13  1  0
 13 14  2  0
 15 14  1  0
 16 15  2  0
 17 18  1  0
 18 19  2  0
 19 20  1  0
 21 22  2  0
 21 19  1  0
 23 21  1  0
 24 23  1  0
 24 17  1  0
 25 24  2  0
 26 27  1  0
 26  5  1  0
 28 26  1  0
 29 26  1  0
  3 30  1  0
  7 31  1  0
  8 32  1  0
 13 33  1  0
 15 34  1  0
 18 35  1  0
 20 36  1  0
 20 37  1  0
 20 38  1  0
 23 39  1  0
M  ISO  8  30  14  31  14  32  14  33  14  34  14  35  14  36   8  37   8
M  ISO  2  38   8  39   9
M  END
>  <minimizedAffinity>  (1) 
-5.84773684

>  <minimizedRMSD>  (1) 
3.02875686

$$$$
