
     RDKit          3D

 28 30  0  0  0  0  0  0  0  0999 V2000
   39.6820   31.3630   40.2290 C   0  0  0  0  0  0  0  0  0  0  0  0
   40.1520   30.9530   39.0000 C   0  0  0  0  0  0  0  0  0  0  0  0
   40.5830   31.9200   38.1130 C   0  0  0  0  0  0  0  0  0  0  0  0
   40.5200   33.2050   38.4960 N   0  0  0  0  0  0  0  0  0  0  0  0
   40.0610   33.6050   39.6930 C   0  0  0  0  0  0  0  0  0  0  0  0
   39.6290   32.6720   40.5910 N   0  0  0  0  0  0  0  0  0  0  0  0
   40.0380   34.9960   39.9980 N   0  0  0  0  0  0  0  0  0  0  0  0
   41.1670   35.5670   40.4670 C   0  0  0  0  0  0  0  0  0  0  0  0
   40.9340   36.8960   40.6940 N   0  0  0  0  0  0  0  0  0  0  0  0
   39.6370   37.1190   40.3530 C   0  0  0  0  0  0  0  0  0  0  0  0
   39.1090   35.9460   39.9320 N   0  0  0  0  0  0  0  0  0  0  0  0
   39.1940   30.5110   41.2760 N   0  0  0  0  0  0  0  0  0  0  0  0
   39.7510   29.9600   42.3280 N   0  0  0  0  0  0  0  0  0  0  0  0
   38.8660   29.2290   43.0270 C   0  0  0  0  0  0  0  0  0  0  0  0
   37.6550   29.3230   42.3680 C   0  0  0  0  0  0  0  0  0  0  0  0
   37.8920   30.1320   41.2770 C   0  0  0  0  0  0  0  0  0  0  0  0
   36.8140   30.4790   40.3030 C   0  0  0  0  0  0  0  0  0  0  0  0
   35.5680   30.0870   40.6910 F   0  0  0  0  0  0  0  0  0  0  0  0
   37.0880   29.9880   39.0310 F   0  0  0  0  0  0  0  0  0  0  0  0
   36.7410   31.8660   40.1740 F   0  0  0  0  0  0  0  0  0  0  0  0
   36.4550   28.6840   42.7950 N   0  0  0  0  0  0  0  0  0  0  0  0
   40.1830   29.8863   38.7332 H   0  0  0  0  0  0  0  0  0  0  0  0
   40.9674   31.6446   37.1198 H   0  0  0  0  0  0  0  0  0  0  0  0
   42.1212   35.0476   40.6392 H   0  0  0  0  0  0  0  0  0  0  0  0
   39.1097   38.0827   40.4093 H   0  0  0  0  0  0  0  0  0  0  0  0
   39.0674   28.6633   43.9486 H   0  0  0  0  0  0  0  0  0  0  0  0
   35.5880   28.8002   42.2511 H   0  0  0  0  0  0  0  0  0  0  0  0
   36.4546   28.1060   43.6475 H   0  0  0  0  0  0  0  0  0  0  0  0
  1  6  1  0
  1 12  1  0
  2  1  2  0
  3  4  2  0
  3  2  1  0
  4  5  1  0
  5  7  1  0
  5  6  2  0
  7  8  1  0
  8  9  2  0
 10  9  1  0
 11  7  1  0
 11 10  2  0
 12 16  1  0
 12 13  1  0
 13 14  2  0
 15 21  1  0
 15 14  1  0
 16 15  2  0
 17 18  1  0
 17 16  1  0
 19 17  1  0
 20 17  1  0
  2 22  1  0
  3 23  1  0
  8 24  1  0
 10 25  1  0
 14 26  1  0
 21 27  1  0
 21 28  1  0
M  ISO  5  22  14  23  14  24  14  25  14  26  14
M  END
>  <minimizedAffinity>  (1) 
-5.62884617

>  <minimizedRMSD>  (1) 
0.31714344

$$$$
