
     RDKit          3D

 33 36  0  0  0  0  0  0  0  0999 V2000
   40.7490   31.3680   39.8930 C   0  0  0  0  0  0  0  0  0  0  0  0
   41.2140   31.1230   38.6150 C   0  0  0  0  0  0  0  0  0  0  0  0
   41.3730   32.1830   37.7470 C   0  0  0  0  0  0  0  0  0  0  0  0
   41.0640   33.4130   38.1980 N   0  0  0  0  0  0  0  0  0  0  0  0
   40.6090   33.6580   39.4470 C   0  0  0  0  0  0  0  0  0  0  0  0
   40.4470   32.6290   40.3090 N   0  0  0  0  0  0  0  0  0  0  0  0
   40.3110   35.0010   39.8230 N   0  0  0  0  0  0  0  0  0  0  0  0
   41.3110   35.7890   40.2470 C   0  0  0  0  0  0  0  0  0  0  0  0
   40.8210   37.0200   40.5540 N   0  0  0  0  0  0  0  0  0  0  0  0
   39.4880   36.9720   40.3100 C   0  0  0  0  0  0  0  0  0  0  0  0
   39.2010   35.7300   39.8650 N   0  0  0  0  0  0  0  0  0  0  0  0
   40.5270   30.3900   40.9130 N   0  0  0  0  0  0  0  0  0  0  0  0
   41.3040   29.7590   41.7410 N   0  0  0  0  0  0  0  0  0  0  0  0
   40.6250   28.9160   42.5300 C   0  0  0  0  0  0  0  0  0  0  0  0
   39.3000   29.0230   42.1680 C   0  0  0  0  0  0  0  0  0  0  0  0
   39.2650   29.9530   41.1530 C   0  0  0  0  0  0  0  0  0  0  0  0
   38.1850   28.3180   42.7280 N   0  0  0  0  0  0  0  0  0  0  0  0
   38.0540   27.0730   42.1810 C   0  0  0  0  0  0  0  0  0  0  0  0
   36.9570   26.4530   42.7720 C   0  0  0  0  0  0  0  0  0  0  0  0
   36.4640   27.3480   43.6560 N   0  0  0  0  0  0  0  0  0  0  0  0
   37.2020   28.4730   43.6330 C   0  0  0  0  0  0  0  0  0  0  0  0
   37.9830   30.3470   40.4890 C   0  0  0  0  0  0  0  0  0  0  0  0
   36.9700   29.4520   40.6610 F   0  0  0  0  0  0  0  0  0  0  0  0
   38.1640   30.6230   39.1410 F   0  0  0  0  0  0  0  0  0  0  0  0
   37.5290   31.5410   41.0650 F   0  0  0  0  0  0  0  0  0  0  0  0
   41.4537   30.0983   38.2948 H   0  0  0  0  0  0  0  0  0  0  0  0
   41.7397   32.0285   36.7215 H   0  0  0  0  0  0  0  0  0  0  0  0
   42.3649   35.4859   40.3330 H   0  0  0  0  0  0  0  0  0  0  0  0
   38.7713   37.7948   40.4492 H   0  0  0  0  0  0  0  0  0  0  0  0
   41.0430   28.2662   43.3129 H   0  0  0  0  0  0  0  0  0  0  0  0
   38.7030   26.6363   41.4076 H   0  0  0  0  0  0  0  0  0  0  0  0
   36.5715   25.4442   42.5629 H   0  0  0  0  0  0  0  0  0  0  0  0
   37.0305   29.3676   44.2497 H   0  0  0  0  0  0  0  0  0  0  0  0
  1  6  1  0
  1 12  1  0
  2  1  2  0
  3  4  2  0
  3  2  1  0
  4  5  1  0
  5  7  1  0
  5  6  2  0
  7 11  1  0
  7  8  1  0
  8  9  2  0
 10  9  1  0
 11 10  2  0
 12 16  1  0
 12 13  1  0
 13 14  2  0
 15 14  1  0
 15 17  1  0
 16 15  2  0
 17 21  1  0
 18 17  1  0
 18 19  2  0
 19 20  1  0
 21 20  2  0
 22 23  1  0
 22 25  1  0
 22 16  1  0
 24 22  1  0
  2 26  1  0
  3 27  1  0
  8 28  1  0
 10 29  1  0
 14 30  1  0
 18 31  1  0
 19 32  1  0
 21 33  1  0
M  ISO  8  26  14  27  14  28  14  29  14  30  14  31  14  32  14  33  14
M  END
>  <minimizedAffinity>  (1) 
-5.45582771

>  <minimizedRMSD>  (1) 
1.70971131

$$$$
