
     RDKit          3D

 39 43  0  0  0  0  0  0  0  0999 V2000
   41.6090   30.5190   40.5320 N   0  0  0  0  0  0  0  0  0  0  0  0
   42.4370   30.1860   41.4790 N   0  0  0  0  0  0  0  0  0  0  0  0
   41.9980   29.0980   42.1440 C   0  0  0  0  0  0  0  0  0  0  0  0
   40.8040   28.7150   41.5740 C   0  0  0  0  0  0  0  0  0  0  0  0
   40.5870   29.6400   40.5540 C   0  0  0  0  0  0  0  0  0  0  0  0
   41.5990   31.5710   39.5550 C   0  0  0  0  0  0  0  0  0  0  0  0
   42.0360   31.4670   38.2500 C   0  0  0  0  0  0  0  0  0  0  0  0
   41.9600   32.5760   37.4320 C   0  0  0  0  0  0  0  0  0  0  0  0
   41.4610   33.7090   37.9540 N   0  0  0  0  0  0  0  0  0  0  0  0
   41.0320   33.8060   39.2410 C   0  0  0  0  0  0  0  0  0  0  0  0
   41.0980   32.7260   40.0610 N   0  0  0  0  0  0  0  0  0  0  0  0
   40.5170   35.0560   39.6990 N   0  0  0  0  0  0  0  0  0  0  0  0
   41.3870   35.9890   40.1210 C   0  0  0  0  0  0  0  0  0  0  0  0
   40.7000   37.1000   40.5130 N   0  0  0  0  0  0  0  0  0  0  0  0
   39.3820   36.8190   40.3170 C   0  0  0  0  0  0  0  0  0  0  0  0
   39.2990   35.5710   39.8220 N   0  0  0  0  0  0  0  0  0  0  0  0
   39.9470   27.6130   41.9280 N   0  0  0  0  0  0  0  0  0  0  0  0
   39.1010   27.5470   42.9800 C   0  0  0  0  0  0  0  0  0  0  0  0
   38.4640   26.3530   42.9840 N   0  0  0  0  0  0  0  0  0  0  0  0
   38.9000   25.6310   41.9240 C   0  0  0  0  0  0  0  0  0  0  0  0
   38.6910   24.3950   41.3450 C   0  0  0  0  0  0  0  0  0  0  0  0
   39.3450   24.0190   40.2370 N   0  0  0  0  0  0  0  0  0  0  0  0
   40.2500   24.8420   39.6300 C   0  0  0  0  0  0  0  0  0  0  0  0
   40.4620   26.0470   40.1830 N   0  0  0  0  0  0  0  0  0  0  0  0
   39.8270   26.4610   41.2900 C   0  0  0  0  0  0  0  0  0  0  0  0
   37.7420   23.5680   42.0070 N   0  0  0  0  0  0  0  0  0  0  0  0
   39.3680   29.5660   39.6820 C   0  0  0  0  0  0  0  0  0  0  0  0
   38.2670   29.0780   40.3320 F   0  0  0  0  0  0  0  0  0  0  0  0
   39.6090   28.8730   38.5230 F   0  0  0  0  0  0  0  0  0  0  0  0
   39.0310   30.8730   39.3040 F   0  0  0  0  0  0  0  0  0  0  0  0
   42.5021   28.6056   42.9886 H   0  0  0  0  0  0  0  0  0  0  0  0
   42.4379   30.5168   37.8685 H   0  0  0  0  0  0  0  0  0  0  0  0
   42.2973   32.5336   36.3858 H   0  0  0  0  0  0  0  0  0  0  0  0
   42.4808   35.8747   40.1463 H   0  0  0  0  0  0  0  0  0  0  0  0
   38.5371   37.4917   40.5259 H   0  0  0  0  0  0  0  0  0  0  0  0
   38.9524   28.3450   43.7224 H   0  0  0  0  0  0  0  0  0  0  0  0
   40.7856   24.5293   38.7215 H   0  0  0  0  0  0  0  0  0  0  0  0
   37.5296   22.6303   41.6375 H   0  0  0  0  0  0  0  0  0  0  0  0
   37.2671   23.9068   42.8559 H   0  0  0  0  0  0  0  0  0  0  0  0
  1  5  1  0
  1  2  1  0
  2  3  2  0
  4 17  1  0
  4  3  1  0
  5  4  2  0
  6 11  1  0
  6  1  1  0
  7  6  2  0
  8  9  2  0
  8  7  1  0
  9 10  1  0
 10 12  1  0
 10 11  2  0
 12 16  1  0
 12 13  1  0
 13 14  2  0
 15 14  1  0
 16 15  2  0
 17 18  1  0
 18 19  2  0
 20 19  1  0
 21 20  2  0
 21 26  1  0
 22 21  1  0
 23 24  1  0
 23 22  2  0
 24 25  2  0
 25 20  1  0
 25 17  1  0
 27 28  1  0
 27  5  1  0
 29 27  1  0
 30 27  1  0
  3 31  1  0
  7 32  1  0
  8 33  1  0
 13 34  1  0
 15 35  1  0
 18 36  1  0
 23 37  1  0
 26 38  1  0
 26 39  1  0
M  ISO  7  31  14  32  14  33  14  34  14  35  14  36  14  37  14
M  END
>  <minimizedAffinity>  (1) 
-5.38885975

>  <minimizedRMSD>  (1) 
4.11063337

$$$$
