
     RDKit          3D

 27 29  0  0  0  0  0  0  0  0999 V2000
   39.9420   31.2320   40.0350 C   0  0  0  0  0  0  0  0  0  0  0  0
   40.4410   30.8900   38.7920 C   0  0  0  0  0  0  0  0  0  0  0  0
   40.8310   31.8950   37.9380 C   0  0  0  0  0  0  0  0  0  0  0  0
   40.7070   33.1740   38.3590 N   0  0  0  0  0  0  0  0  0  0  0  0
   40.2180   33.5030   39.5800 C   0  0  0  0  0  0  0  0  0  0  0  0
   39.8310   32.5330   40.4270 N   0  0  0  0  0  0  0  0  0  0  0  0
   40.1310   34.8860   39.9230 N   0  0  0  0  0  0  0  0  0  0  0  0
   41.2200   35.4950   40.4100 C   0  0  0  0  0  0  0  0  0  0  0  0
   40.9280   36.8020   40.6720 N   0  0  0  0  0  0  0  0  0  0  0  0
   39.6110   36.9670   40.3240 C   0  0  0  0  0  0  0  0  0  0  0  0
   39.1390   35.7880   39.8680 N   0  0  0  0  0  0  0  0  0  0  0  0
   39.4930   30.3260   41.0420 N   0  0  0  0  0  0  0  0  0  0  0  0
   40.0070   29.8800   42.1640 N   0  0  0  0  0  0  0  0  0  0  0  0
   39.1760   29.0190   42.7770 C   0  0  0  0  0  0  0  0  0  0  0  0
   38.0520   28.9060   41.9920 C   0  0  0  0  0  0  0  0  0  0  0  0
   38.2790   29.7380   40.9110 C   0  0  0  0  0  0  0  0  0  0  0  0
   37.2680   29.8910   39.8130 C   0  0  0  0  0  0  0  0  0  0  0  0
   36.0090   29.5010   40.1660 F   0  0  0  0  0  0  0  0  0  0  0  0
   37.6640   29.2280   38.6560 F   0  0  0  0  0  0  0  0  0  0  0  0
   37.1720   31.2390   39.4700 F   0  0  0  0  0  0  0  0  0  0  0  0
   36.5850   27.8970   42.2910 S   0  0  0  0  0  0  0  0  0  0  0  0
   40.5245   29.8350   38.4919 H   0  0  0  0  0  0  0  0  0  0  0  0
   41.2327   31.6648   36.9402 H   0  0  0  0  0  0  0  0  0  0  0  0
   42.1969   35.0165   40.5732 H   0  0  0  0  0  0  0  0  0  0  0  0
   39.0371   37.9021   40.4033 H   0  0  0  0  0  0  0  0  0  0  0  0
   39.3607   28.5010   43.7296 H   0  0  0  0  0  0  0  0  0  0  0  0
   36.3902   27.7630   43.6404 H   0  0  0  0  0  0  0  0  0  0  0  0
  1  6  1  0
  1 12  1  0
  2  1  2  0
  3  4  2  0
  3  2  1  0
  4  5  1  0
  5  7  1  0
  5  6  2  0
  7  8  1  0
  8  9  2  0
 10  9  1  0
 11  7  1  0
 11 10  2  0
 12 13  1  0
 13 14  2  0
 15 21  1  0
 15 14  1  0
 16 12  1  0
 16 15  2  0
 17 18  1  0
 17 16  1  0
 19 17  1  0
 20 17  1  0
  2 22  1  0
  3 23  1  0
  8 24  1  0
 10 25  1  0
 14 26  1  0
 21 27  1  0
M  ISO  6  22  14  23  14  24  14  25  14  26  14  27  11
M  END
>  <minimizedAffinity>  (1) 
-4.97027206

>  <minimizedRMSD>  (1) 
0.804745138

$$$$
