
     RDKit          3D

 13 13  0  0  0  0  0  0  0  0999 V2000
   38.3480   29.1890   43.1560 C   0  0  0  0  0  0  0  0  0  0  0  0
   37.8540   27.9270   43.5210 C   0  0  0  0  0  0  0  0  0  0  0  0
   36.7410   27.4360   42.8380 C   0  0  0  0  0  0  0  0  0  0  0  0
   36.1830   28.1960   41.8480 N   0  0  0  0  0  0  0  0  0  0  0  0
   36.6920   29.4110   41.5240 C   0  0  0  0  0  0  0  0  0  0  0  0
   37.7600   29.8900   42.1770 N   0  0  0  0  0  0  0  0  0  0  0  0
   36.0120   30.1750   40.4210 C   0  0  0  0  0  0  0  0  0  0  0  0
   39.2231   29.6051   43.6767 H   0  0  0  0  0  0  0  0  0  0  0  0
   38.3303   27.3424   44.3219 H   0  0  0  0  0  0  0  0  0  0  0  0
   36.3189   26.4525   43.0921 H   0  0  0  0  0  0  0  0  0  0  0  0
   35.3407   30.9293   40.8573 H   0  0  0  0  0  0  0  0  0  0  0  0
   36.7699   30.6743   39.7996 H   0  0  0  0  0  0  0  0  0  0  0  0
   35.4281   29.4801   39.7996 H   0  0  0  0  0  0  0  0  0  0  0  0
  1  2  2  0
  3  2  1  0
  4  3  2  0
  5  4  1  0
  5  6  2  0
  6  1  1  0
  7  5  1  0
  1  8  1  0
  2  9  1  0
  3 10  1  0
  7 11  1  0
  7 12  1  0
  7 13  1  0
M  ISO  6   8  14   9  14  10  14  11   8  12   8  13   8
M  END
>  <minimizedAffinity>  (1) 
-2.69412518

>  <minimizedRMSD>  (1) 
0.254735529

$$$$
