
     RDKit          3D

 18 19  0  0  0  0  0  0  0  0999 V2000
   38.7260   28.8410   42.9670 C   0  0  0  0  0  0  0  0  0  0  0  0
   38.1360   27.5610   43.0010 C   0  0  0  0  0  0  0  0  0  0  0  0
   36.9070   27.3900   42.3750 C   0  0  0  0  0  0  0  0  0  0  0  0
   36.3280   28.4620   41.7590 N   0  0  0  0  0  0  0  0  0  0  0  0
   36.9220   29.6780   41.7460 C   0  0  0  0  0  0  0  0  0  0  0  0
   38.1050   29.8610   42.3430 N   0  0  0  0  0  0  0  0  0  0  0  0
   36.2140   30.7940   41.0480 C   0  0  0  0  0  0  0  0  0  0  0  0
   36.7780   30.9770   39.6770 C   0  0  0  0  0  0  0  0  0  0  0  0
   37.0430   32.1430   39.0570 N   0  0  0  0  0  0  0  0  0  0  0  0
   37.5300   31.9320   37.8640 O   0  0  0  0  0  0  0  0  0  0  0  0
   37.6070   30.6420   37.6470 C   0  0  0  0  0  0  0  0  0  0  0  0
   37.1410   30.0520   38.7720 N   0  0  0  0  0  0  0  0  0  0  0  0
   39.6988   29.0079   43.4526 H   0  0  0  0  0  0  0  0  0  0  0  0
   38.6341   26.7217   43.5084 H   0  0  0  0  0  0  0  0  0  0  0  0
   36.4098   26.4088   42.3758 H   0  0  0  0  0  0  0  0  0  0  0  0
   35.1428   30.5554   40.9726 H   0  0  0  0  0  0  0  0  0  0  0  0
   36.3493   31.7228   41.6216 H   0  0  0  0  0  0  0  0  0  0  0  0
   37.9744   30.1423   36.7385 H   0  0  0  0  0  0  0  0  0  0  0  0
  1  2  2  0
  3  2  1  0
  4  3  2  0
  5  4  1  0
  5  6  2  0
  6  1  1  0
  7  5  1  0
  8  7  1  0
  9  8  2  0
 10  9  1  0
 11 10  1  0
 11 12  2  0
 12  8  1  0
  1 13  1  0
  2 14  1  0
  3 15  1  0
  7 16  1  0
  7 17  1  0
 11 18  1  0
M  ISO  6  13  14  14  14  15  14  16   8  17   8  18  14
M  END
>  <minimizedAffinity>  (1) 
-3.59609556

>  <minimizedRMSD>  (1) 
1.18230021

$$$$
