
     RDKit          3D

 14 14  0  0  0  0  0  0  0  0999 V2000
   38.7060   28.7700   43.1770 C   0  0  0  0  0  0  0  0  0  0  0  0
   38.1620   27.5270   43.5370 C   0  0  0  0  0  0  0  0  0  0  0  0
   36.9540   27.1350   42.9780 C   0  0  0  0  0  0  0  0  0  0  0  0
   36.3350   27.9770   42.0910 N   0  0  0  0  0  0  0  0  0  0  0  0
   36.8840   29.1630   41.7670 C   0  0  0  0  0  0  0  0  0  0  0  0
   38.0530   29.5560   42.3020 N   0  0  0  0  0  0  0  0  0  0  0  0
   36.1420   30.0260   40.7890 C   0  0  0  0  0  0  0  0  0  0  0  0
   35.5820   31.1400   41.3880 O   0  0  0  0  0  0  0  0  0  0  0  0
   39.6624   29.1000   43.6087 H   0  0  0  0  0  0  0  0  0  0  0  0
   38.6852   26.8740   44.2510 H   0  0  0  0  0  0  0  0  0  0  0  0
   36.5019   26.1674   43.2415 H   0  0  0  0  0  0  0  0  0  0  0  0
   35.3390   29.4302   40.3304 H   0  0  0  0  0  0  0  0  0  0  0  0
   36.8635   30.3768   40.0364 H   0  0  0  0  0  0  0  0  0  0  0  0
   35.6299   31.0446   42.3722 H   0  0  0  0  0  0  0  0  0  0  0  0
  1  2  2  0
  3  2  1  0
  4  3  2  0
  5  4  1  0
  5  6  2  0
  6  1  1  0
  7  8  1  0
  7  5  1  0
  1  9  1  0
  2 10  1  0
  3 11  1  0
  7 12  1  0
  7 13  1  0
  8 14  1  0
M  ISO  6   9  14  10  14  11  14  12   8  13   8  14   3
M  END
>  <minimizedAffinity>  (1) 
-3.46107674

>  <minimizedRMSD>  (1) 
0.496915013

$$$$
