
     RDKit          3D

 36 38  0  0  0  0  0  0  0  0999 V2000
   36.8270   28.1290   41.2060 N   0  0  0  0  0  0  0  0  0  0  0  0
   36.5210   27.5060   40.0540 C   0  0  0  0  0  0  0  0  0  0  0  0
   36.7440   28.2260   38.9080 C   0  0  0  0  0  0  0  0  0  0  0  0
   37.2530   29.5170   38.8760 C   0  0  0  0  0  0  0  0  0  0  0  0
   37.4400   30.1310   37.8090 O   0  0  0  0  0  0  0  0  0  0  0  0
   37.5270   30.0470   40.0890 N   0  0  0  0  0  0  0  0  0  0  0  0
   37.3210   29.3750   41.2350 C   0  0  0  0  0  0  0  0  0  0  0  0
   37.6090   29.9580   42.3370 O   0  0  0  0  0  0  0  0  0  0  0  0
   39.3180   33.9010   40.1490 C   0  0  0  0  0  0  0  0  0  0  0  0
   37.9480   33.7580   40.0560 C   0  0  0  0  0  0  0  0  0  0  0  0
   37.3030   32.5370   40.0320 C   0  0  0  0  0  0  0  0  0  0  0  0
   38.0530   31.3780   40.1030 C   0  0  0  0  0  0  0  0  0  0  0  0
   39.4330   31.4520   40.1980 C   0  0  0  0  0  0  0  0  0  0  0  0
   40.0300   32.6970   40.2180 C   0  0  0  0  0  0  0  0  0  0  0  0
   40.1220   35.4320   40.1790 S   0  0  0  0  0  0  0  0  0  0  0  0
   41.2230   35.5130   39.1780 O   0  0  0  0  0  0  0  0  0  0  0  0
   39.2030   36.5920   39.9180 O   0  0  0  0  0  0  0  0  0  0  0  0
   36.6360   27.4750   42.4900 C   0  0  0  0  0  0  0  0  0  0  0  0
   39.8580   26.1400   43.7710 C   0  0  0  0  0  0  0  0  0  0  0  0
   39.8640   24.8360   43.2750 C   0  0  0  0  0  0  0  0  0  0  0  0
   38.7740   24.4300   42.5140 C   0  0  0  0  0  0  0  0  0  0  0  0
   37.7720   25.3000   42.2900 N   0  0  0  0  0  0  0  0  0  0  0  0
   37.7940   26.5730   42.7890 C   0  0  0  0  0  0  0  0  0  0  0  0
   38.8360   26.9470   43.5100 N   0  0  0  0  0  0  0  0  0  0  0  0
   36.1172   26.4830   40.0322 H   0  0  0  0  0  0  0  0  0  0  0  0
   36.5027   27.7471   37.9476 H   0  0  0  0  0  0  0  0  0  0  0  0
   37.3347   34.6693   39.9976 H   0  0  0  0  0  0  0  0  0  0  0  0
   36.2067   32.4874   39.9574 H   0  0  0  0  0  0  0  0  0  0  0  0
   40.0411   30.5373   40.2563 H   0  0  0  0  0  0  0  0  0  0  0  0
   41.1264   32.7458   40.2923 H   0  0  0  0  0  0  0  0  0  0  0  0
   40.6202   35.5190   41.4522 H   0  0  0  0  0  0  0  0  0  0  0  0
   36.5570   28.2382   43.2782 H   0  0  0  0  0  0  0  0  0  0  0  0
   35.7144   26.8755   42.4537 H   0  0  0  0  0  0  0  0  0  0  0  0
   40.7009   26.5002   44.3791 H   0  0  0  0  0  0  0  0  0  0  0  0
   40.7019   24.1531   43.4790 H   0  0  0  0  0  0  0  0  0  0  0  0
   38.7310   23.4116   42.1005 H   0  0  0  0  0  0  0  0  0  0  0  0
  1  7  1  0
  1 18  1  0
  2  1  1  0
  3  2  2  0
  4  3  1  0
  4  6  1  0
  5  4  2  0
  6 12  1  0
  6  7  1  0
  7  8  2  0
  9 15  1  0
  9 14  2  0
 10  9  1  0
 11 10  2  0
 11 12  1  0
 12 13  2  0
 13 14  1  0
 16 15  2  0
 17 15  2  0
 18 23  1  0
 20 19  2  0
 21 20  1  0
 22 21  2  0
 22 23  1  0
 23 24  2  0
 24 19  1  0
  2 25  1  0
  3 26  1  0
 10 27  1  0
 11 28  1  0
 13 29  1  0
 14 30  1  0
 15 31  1  0
 18 32  1  0
 18 33  1  0
 19 34  1  0
 20 35  1  0
 21 36  1  0
M  ISO  8  25  14  26  14  27  14  28  14  29  14  30  14  31  11  32   8
M  ISO  4  33   8  34  14  35  14  36  14
M  END
>  <minimizedAffinity>  (1) 
-6.01623154

>  <minimizedRMSD>  (1) 
2.09060478

$$$$
