
     RDKit          3D

 40 42  0  0  1  0  0  0  0  0999 V2000
   38.6160   29.1670   38.8450 C   0  0  0  0  0  0  0  0  0  0  0  0
   39.5180   30.1750   39.2060 C   0  0  0  0  0  0  0  0  0  0  0  0
   39.8240   29.8880   40.5070 C   0  0  0  0  0  0  0  0  0  0  0  0
   39.1560   28.7770   40.9190 N   0  0  0  0  0  0  0  0  0  0  0  0
   38.4320   28.3570   39.9010 N   0  0  0  0  0  0  0  0  0  0  0  0
   38.1440   27.9700   36.6930 C   0  0  0  0  0  0  0  0  0  0  0  0
   38.0030   29.0470   37.5360 C   0  0  0  0  0  0  0  0  0  0  0  0
   37.2160   30.0910   37.0970 C   0  0  0  0  0  0  0  0  0  0  0  0
   36.6070   30.0510   35.8730 N   0  0  0  0  0  0  0  0  0  0  0  0
   36.7960   28.9310   35.0770 C   0  0  0  0  0  0  0  0  0  0  0  0
   37.5780   27.8850   35.5080 N   0  0  0  0  0  0  0  0  0  0  0  0
   39.3290   28.2580   42.2660 C   0  0  1  0  0  0  0  0  0  0  0  0
   38.1710   27.5370   42.6840 N   0  0  0  0  0  0  0  0  0  0  0  0
   37.1530   28.0720   43.4970 C   0  0  0  0  0  0  0  0  0  0  0  0
   37.3660   29.2290   44.0090 N   0  0  0  0  0  0  0  0  0  0  0  0
   35.9700   27.3610   43.7550 N   0  0  0  0  0  0  0  0  0  0  0  0
   36.6610   29.6720   44.6350 H   0  0  0  0  0  0  0  0  0  0  0  0
   40.5670   27.3430   42.2640 C   0  0  0  0  0  0  0  0  0  0  0  0
   40.2190   25.9330   41.9290 C   0  0  0  0  0  0  0  0  0  0  0  0
   40.8210   25.0220   42.9550 C   0  0  0  0  0  0  0  0  0  0  0  0
   41.6860   25.8870   43.8480 C   0  0  0  0  0  0  0  0  0  0  0  0
   41.0720   27.2560   43.6850 C   0  0  0  0  0  0  0  0  0  0  0  0
   39.8927   31.0039   38.5875 H   0  0  0  0  0  0  0  0  0  0  0  0
   40.5136   30.4733   41.1329 H   0  0  0  0  0  0  0  0  0  0  0  0
   38.7676   27.1286   37.0294 H   0  0  0  0  0  0  0  0  0  0  0  0
   37.0757   30.9708   37.7422 H   0  0  0  0  0  0  0  0  0  0  0  0
   36.3147   28.8788   34.0893 H   0  0  0  0  0  0  0  0  0  0  0  0
   39.4702   29.0873   42.9748 H   0  0  0  0  0  0  0  0  0  0  0  0
   38.0730   26.5608   42.3705 H   0  0  0  0  0  0  0  0  0  0  0  0
   35.2406   27.7746   44.3531 H   0  0  0  0  0  0  0  0  0  0  0  0
   35.8316   26.4258   43.3461 H   0  0  0  0  0  0  0  0  0  0  0  0
   41.2803   27.7580   41.5367 H   0  0  0  0  0  0  0  0  0  0  0  0
   39.1255   25.8140   41.9272 H   0  0  0  0  0  0  0  0  0  0  0  0
   40.6126   25.6809   40.9333 H   0  0  0  0  0  0  0  0  0  0  0  0
   40.0284   24.5399   43.5461 H   0  0  0  0  0  0  0  0  0  0  0  0
   41.4132   24.2260   42.4799 H   0  0  0  0  0  0  0  0  0  0  0  0
   41.6344   25.5518   44.8944 H   0  0  0  0  0  0  0  0  0  0  0  0
   42.7533   25.8545   43.5838 H   0  0  0  0  0  0  0  0  0  0  0  0
   41.8283   28.0340   43.8662 H   0  0  0  0  0  0  0  0  0  0  0  0
   40.2538   27.4091   44.4041 H   0  0  0  0  0  0  0  0  0  0  0  0
  1  2  1  0
  1  5  2  0
  2  3  2  0
  3  4  1  0
  4 12  1  0
  5  4  1  0
  6  7  2  0
  7  1  1  0
  8  7  1  0
  9  8  2  0
 10 11  2  0
 10  9  1  0
 11  6  1  0
 12 13  1  0
 13 14  1  0
 14 16  1  0
 14 15  2  0
 15 17  1  0
 18 12  1  0
 18 22  1  0
 19 18  1  0
 19 20  1  0
 20 21  1  0
 22 21  1  0
  2 23  1  0
  3 24  1  0
  6 25  1  0
  8 26  1  0
 10 27  1  0
 12 28  1  1
 13 29  1  0
 16 30  1  0
 16 31  1  0
 18 32  1  0
 19 33  1  0
 19 34  1  0
 20 35  1  0
 20 36  1  0
 21 37  1  0
 21 38  1  0
 22 39  1  0
 22 40  1  0
M  ISO  8  23  14  24  14  25  14  26  14  27  14  28   8  32  13  33  13
M  ISO  7  34  13  35  13  36  13  37  13  38  13  39  13  40  13
M  END
>  <minimizedAffinity>  (1) 
-4.64636326

>  <minimizedRMSD>  (1) 
5.95014381

$$$$
