
     RDKit          3D

 28 30  0  0  0  0  0  0  0  0999 V2000
   37.1070   28.9620   42.2350 N   0  0  0  0  0  0  0  0  0  0  0  0
   36.0580   28.5860   41.4560 C   0  0  0  0  0  0  0  0  0  0  0  0
   35.9230   29.2770   40.2750 C   0  0  0  0  0  0  0  0  0  0  0  0
   36.7600   30.2860   39.8570 C   0  0  0  0  0  0  0  0  0  0  0  0
   36.6000   30.8880   38.7720 O   0  0  0  0  0  0  0  0  0  0  0  0
   37.7650   30.5740   40.7070 N   0  0  0  0  0  0  0  0  0  0  0  0
   37.9440   29.9330   41.8750 C   0  0  0  0  0  0  0  0  0  0  0  0
   38.9220   30.2640   42.6300 O   0  0  0  0  0  0  0  0  0  0  0  0
   38.7090   31.6140   40.3790 C   0  0  0  0  0  0  0  0  0  0  0  0
   39.0090   32.6700   41.1800 N   0  0  0  0  0  0  0  0  0  0  0  0
   39.9060   33.4300   40.5810 O   0  0  0  0  0  0  0  0  0  0  0  0
   40.1880   32.8850   39.4140 C   0  0  0  0  0  0  0  0  0  0  0  0
   39.4630   31.7550   39.2540 N   0  0  0  0  0  0  0  0  0  0  0  0
   37.3500   28.3020   43.5100 C   0  0  0  0  0  0  0  0  0  0  0  0
   40.1340   25.8580   43.7110 C   0  0  0  0  0  0  0  0  0  0  0  0
   39.6510   24.7990   42.9220 C   0  0  0  0  0  0  0  0  0  0  0  0
   38.3820   24.9370   42.3340 C   0  0  0  0  0  0  0  0  0  0  0  0
   37.6960   26.0760   42.5570 N   0  0  0  0  0  0  0  0  0  0  0  0
   38.1850   27.0840   43.3230 C   0  0  0  0  0  0  0  0  0  0  0  0
   39.3770   26.9420   43.8690 N   0  0  0  0  0  0  0  0  0  0  0  0
   35.3650   27.7841   41.7504 H   0  0  0  0  0  0  0  0  0  0  0  0
   35.0853   29.0034   39.6167 H   0  0  0  0  0  0  0  0  0  0  0  0
   40.9037   33.2880   38.6824 H   0  0  0  0  0  0  0  0  0  0  0  0
   37.8726   28.9979   44.1827 H   0  0  0  0  0  0  0  0  0  0  0  0
   36.3837   28.0044   43.9432 H   0  0  0  0  0  0  0  0  0  0  0  0
   41.1219   25.7920   44.1903 H   0  0  0  0  0  0  0  0  0  0  0  0
   40.2493   23.8886   42.7694 H   0  0  0  0  0  0  0  0  0  0  0  0
   37.9596   24.1369   41.7084 H   0  0  0  0  0  0  0  0  0  0  0  0
  1 14  1  0
  2  1  1  0
  3  2  2  0
  4  3  1  0
  4  6  1  0
  5  4  2  0
  6  7  1  0
  7  1  1  0
  7  8  2  0
  9  6  1  0
  9 10  2  0
 11 10  1  0
 12 11  1  0
 13 12  2  0
 13  9  1  0
 15 20  2  0
 16 15  1  0
 17 18  1  0
 17 16  2  0
 18 19  2  0
 19 14  1  0
 19 20  1  0
  2 21  1  0
  3 22  1  0
 12 23  1  0
 14 24  1  0
 14 25  1  0
 15 26  1  0
 16 27  1  0
 17 28  1  0
M  ISO  8  21  14  22  14  23  14  24   8  25   8  26  14  27  14  28  14
M  END
>  <minimizedAffinity>  (1) 
-5.40737486

>  <minimizedRMSD>  (1) 
1.60811901

$$$$
