
     RDKit          3D

 29 30  0  0  0  0  0  0  0  0999 V2000
   37.0880   28.9700   42.1950 N   0  0  0  0  0  0  0  0  0  0  0  0
   36.0480   28.6820   41.3810 C   0  0  0  0  0  0  0  0  0  0  0  0
   35.9970   29.3940   40.2060 C   0  0  0  0  0  0  0  0  0  0  0  0
   36.9160   30.3570   39.8190 C   0  0  0  0  0  0  0  0  0  0  0  0
   36.8220   30.9690   38.7480 O   0  0  0  0  0  0  0  0  0  0  0  0
   37.9130   30.5620   40.7110 N   0  0  0  0  0  0  0  0  0  0  0  0
   38.0080   29.8910   41.8740 C   0  0  0  0  0  0  0  0  0  0  0  0
   38.9880   30.1570   42.6510 O   0  0  0  0  0  0  0  0  0  0  0  0
   37.2550   28.2890   43.4630 C   0  0  0  0  0  0  0  0  0  0  0  0
   40.0360   25.8270   43.7100 C   0  0  0  0  0  0  0  0  0  0  0  0
   39.5600   24.7670   42.9130 C   0  0  0  0  0  0  0  0  0  0  0  0
   38.3170   24.9100   42.3120 C   0  0  0  0  0  0  0  0  0  0  0  0
   37.6190   26.0460   42.5150 N   0  0  0  0  0  0  0  0  0  0  0  0
   38.0940   27.0580   43.2890 C   0  0  0  0  0  0  0  0  0  0  0  0
   39.2830   26.9110   43.8570 N   0  0  0  0  0  0  0  0  0  0  0  0
   38.9400   31.5620   40.3970 C   0  0  0  0  0  0  0  0  0  0  0  0
   38.4980   32.9460   40.7720 C   0  0  0  0  0  0  0  0  0  0  0  0
   35.2917   27.9270   41.6417 H   0  0  0  0  0  0  0  0  0  0  0  0
   35.1630   29.1834   39.5204 H   0  0  0  0  0  0  0  0  0  0  0  0
   37.7484   28.9661   44.1758 H   0  0  0  0  0  0  0  0  0  0  0  0
   36.2655   27.9955   43.8433 H   0  0  0  0  0  0  0  0  0  0  0  0
   41.0168   25.7577   44.2032 H   0  0  0  0  0  0  0  0  0  0  0  0
   40.1558   23.8532   42.7713 H   0  0  0  0  0  0  0  0  0  0  0  0
   37.9073   24.1087   41.6795 H   0  0  0  0  0  0  0  0  0  0  0  0
   39.8575   31.3177   40.9525 H   0  0  0  0  0  0  0  0  0  0  0  0
   39.1196   31.5409   39.3120 H   0  0  0  0  0  0  0  0  0  0  0  0
   38.4688   33.0373   41.8678 H   0  0  0  0  0  0  0  0  0  0  0  0
   39.2061   33.6809   40.3615 H   0  0  0  0  0  0  0  0  0  0  0  0
   37.4950   33.1344   40.3615 H   0  0  0  0  0  0  0  0  0  0  0  0
  1  9  1  0
  2  1  1  0
  3  2  2  0
  4  3  1  0
  4  6  1  0
  5  4  2  0
  6  7  1  0
  7  1  1  0
  7  8  2  0
 10 15  2  0
 11 10  1  0
 12 13  1  0
 12 11  2  0
 13 14  2  0
 14  9  1  0
 14 15  1  0
 16  6  1  0
 16 17  1  0
  2 18  1  0
  3 19  1  0
  9 20  1  0
  9 21  1  0
 10 22  1  0
 11 23  1  0
 12 24  1  0
 16 25  1  0
 16 26  1  0
 17 27  1  0
 17 28  1  0
 17 29  1  0
M  ISO  8  18  14  19  14  20   8  21   8  22  14  23  14  24  14  25   8
M  ISO  4  26   8  27   8  28   8  29   8
M  END
>  <minimizedAffinity>  (1) 
-4.49250603

>  <minimizedRMSD>  (1) 
1.35192311

$$$$
