
     RDKit          3D

 26 27  0  0  0  0  0  0  0  0999 V2000
   37.0050   27.8460   43.1320 C   0  0  0  0  0  0  0  0  0  0  0  0
   36.8790   28.8270   42.0700 N   0  0  0  0  0  0  0  0  0  0  0  0
   35.8910   28.7290   41.1540 C   0  0  0  0  0  0  0  0  0  0  0  0
   35.8690   29.7190   40.1910 C   0  0  0  0  0  0  0  0  0  0  0  0
   36.7650   30.7620   40.1130 C   0  0  0  0  0  0  0  0  0  0  0  0
   36.7140   31.6300   39.2350 O   0  0  0  0  0  0  0  0  0  0  0  0
   37.7160   30.7610   41.0840 N   0  0  0  0  0  0  0  0  0  0  0  0
   37.7770   29.8140   42.0470 C   0  0  0  0  0  0  0  0  0  0  0  0
   38.7050   29.9010   42.9110 O   0  0  0  0  0  0  0  0  0  0  0  0
   38.7080   31.8410   41.0690 C   0  0  0  0  0  0  0  0  0  0  0  0
   39.4560   25.3520   41.8780 C   0  0  0  0  0  0  0  0  0  0  0  0
   38.6440   24.2250   41.6480 C   0  0  0  0  0  0  0  0  0  0  0  0
   37.2760   24.3400   41.9250 C   0  0  0  0  0  0  0  0  0  0  0  0
   36.8110   25.5130   42.3940 N   0  0  0  0  0  0  0  0  0  0  0  0
   37.6160   26.5830   42.6070 C   0  0  0  0  0  0  0  0  0  0  0  0
   38.9030   26.4590   42.3410 N   0  0  0  0  0  0  0  0  0  0  0  0
   37.6446   28.2542   43.9284 H   0  0  0  0  0  0  0  0  0  0  0  0
   36.0044   27.6199   43.5292 H   0  0  0  0  0  0  0  0  0  0  0  0
   35.1523   27.9141   41.1737 H   0  0  0  0  0  0  0  0  0  0  0  0
   35.0766   29.6707   39.4295 H   0  0  0  0  0  0  0  0  0  0  0  0
   38.9632   32.1188   42.1023 H   0  0  0  0  0  0  0  0  0  0  0  0
   39.6139   31.4996   40.5467 H   0  0  0  0  0  0  0  0  0  0  0  0
   38.2910   32.7147   40.5467 H   0  0  0  0  0  0  0  0  0  0  0  0
   40.5363   25.3114   41.6749 H   0  0  0  0  0  0  0  0  0  0  0  0
   39.0696   23.2862   41.2638 H   0  0  0  0  0  0  0  0  0  0  0  0
   36.5964   23.4904   41.7629 H   0  0  0  0  0  0  0  0  0  0  0  0
  2  1  1  0
  3  2  1  0
  4  3  2  0
  5  4  1  0
  5  7  1  0
  6  5  2  0
  7  8  1  0
  8  2  1  0
  8  9  2  0
 10  7  1  0
 11 16  2  0
 12 11  1  0
 12 13  2  0
 13 14  1  0
 14 15  2  0
 15  1  1  0
 16 15  1  0
  1 17  1  0
  1 18  1  0
  3 19  1  0
  4 20  1  0
 10 21  1  0
 10 22  1  0
 10 23  1  0
 11 24  1  0
 12 25  1  0
 13 26  1  0
M  ISO  8  17   8  18   8  19  14  20  14  21   8  22   8  23   8  24  14
M  ISO  2  25  14  26  14
M  END
>  <minimizedAffinity>  (1) 
-4.36681318

>  <minimizedRMSD>  (1) 
0.52366668

$$$$
