
     RDKit          3D

 37 40  0  0  0  0  0  0  0  0999 V2000
   37.5000   30.0810   41.7030 N   0  0  0  0  0  0  0  0  0  0  0  0
   36.3120   30.0350   41.0680 C   0  0  0  0  0  0  0  0  0  0  0  0
   36.2370   30.7440   39.8870 C   0  0  0  0  0  0  0  0  0  0  0  0
   37.2620   31.4700   39.3340 C   0  0  0  0  0  0  0  0  0  0  0  0
   37.1600   32.0950   38.2720 O   0  0  0  0  0  0  0  0  0  0  0  0
   38.4160   31.4490   40.0570 N   0  0  0  0  0  0  0  0  0  0  0  0
   38.5440   30.7730   41.2170 C   0  0  0  0  0  0  0  0  0  0  0  0
   39.6630   30.8120   41.8200 O   0  0  0  0  0  0  0  0  0  0  0  0
   39.5470   32.1810   39.5580 C   0  0  0  0  0  0  0  0  0  0  0  0
   40.6470   31.8140   38.8210 C   0  0  0  0  0  0  0  0  0  0  0  0
   41.4290   32.8930   38.6130 N   0  0  0  0  0  0  0  0  0  0  0  0
   40.8340   33.9630   39.2150 C   0  0  0  0  0  0  0  0  0  0  0  0
   41.1860   35.2840   39.3170 C   0  0  0  0  0  0  0  0  0  0  0  0
   40.4140   36.2110   39.9910 C   0  0  0  0  0  0  0  0  0  0  0  0
   39.2240   35.8010   40.5990 C   0  0  0  0  0  0  0  0  0  0  0  0
   38.8990   34.4650   40.4770 C   0  0  0  0  0  0  0  0  0  0  0  0
   39.6660   33.5350   39.8060 C   0  0  0  0  0  0  0  0  0  0  0  0
   37.7160   29.3800   42.9550 C   0  0  0  0  0  0  0  0  0  0  0  0
   39.5190   26.1880   42.3840 C   0  0  0  0  0  0  0  0  0  0  0  0
   38.4630   25.2800   42.2550 C   0  0  0  0  0  0  0  0  0  0  0  0
   37.1600   25.7490   42.3620 C   0  0  0  0  0  0  0  0  0  0  0  0
   36.9750   27.0630   42.5850 N   0  0  0  0  0  0  0  0  0  0  0  0
   38.0130   27.9340   42.7080 C   0  0  0  0  0  0  0  0  0  0  0  0
   39.2500   27.4750   42.6040 N   0  0  0  0  0  0  0  0  0  0  0  0
   35.4572   29.4685   41.4659 H   0  0  0  0  0  0  0  0  0  0  0  0
   35.2797   30.7260   39.3455 H   0  0  0  0  0  0  0  0  0  0  0  0
   40.8573   30.7975   38.4570 H   0  0  0  0  0  0  0  0  0  0  0  0
   42.3175   32.9068   38.0922 H   0  0  0  0  0  0  0  0  0  0  0  0
   42.1204   35.6195   38.8434 H   0  0  0  0  0  0  0  0  0  0  0  0
   40.7331   37.2621   40.0485 H   0  0  0  0  0  0  0  0  0  0  0  0
   38.5805   36.5058   41.1459 H   0  0  0  0  0  0  0  0  0  0  0  0
   37.9662   34.1187   40.9461 H   0  0  0  0  0  0  0  0  0  0  0  0
   38.5653   29.8379   43.4832 H   0  0  0  0  0  0  0  0  0  0  0  0
   36.8028   29.4542   43.5637 H   0  0  0  0  0  0  0  0  0  0  0  0
   40.5607   25.8437   42.3047 H   0  0  0  0  0  0  0  0  0  0  0  0
   38.6609   24.2135   42.0721 H   0  0  0  0  0  0  0  0  0  0  0  0
   36.3034   25.0655   42.2671 H   0  0  0  0  0  0  0  0  0  0  0  0
  1 18  1  0
  2  1  1  0
  3  2  2  0
  4  3  1  0
  4  6  1  0
  5  4  2  0
  6  7  1  0
  7  1  1  0
  7  8  2  0
  9 17  1  0
  9  6  1  0
 10  9  2  0
 11 10  1  0
 11 12  1  0
 12 13  2  0
 12 17  1  0
 13 14  1  0
 14 15  2  0
 16 15  1  0
 17 16  2  0
 19 24  2  0
 20 21  2  0
 20 19  1  0
 21 22  1  0
 22 23  2  0
 23 18  1  0
 24 23  1  0
  2 25  1  0
  3 26  1  0
 10 27  1  0
 11 28  1  0
 13 29  1  0
 14 30  1  0
 15 31  1  0
 16 32  1  0
 18 33  1  0
 18 34  1  0
 19 35  1  0
 20 36  1  0
 21 37  1  0
M  ISO  8  25  14  26  14  27  14  28   9  29  14  30  14  31  14  32  14
M  ISO  5  33   8  34   8  35  14  36  14  37  14
M  END
>  <minimizedAffinity>  (1) 
-6.20063877

>  <minimizedRMSD>  (1) 
2.41170478

$$$$
