
     RDKit          3D

 47 51  0  0  0  0  0  0  0  0999 V2000
   37.7390   30.1930   41.8750 N   0  0  0  0  0  0  0  0  0  0  0  0
   36.4950   30.1640   41.3490 C   0  0  0  0  0  0  0  0  0  0  0  0
   36.3150   30.8910   40.1900 C   0  0  0  0  0  0  0  0  0  0  0  0
   37.2890   31.6210   39.5530 C   0  0  0  0  0  0  0  0  0  0  0  0
   37.0910   32.2590   38.5150 O   0  0  0  0  0  0  0  0  0  0  0  0
   38.5110   31.5810   40.1700 N   0  0  0  0  0  0  0  0  0  0  0  0
   38.7420   30.8850   41.3060 C   0  0  0  0  0  0  0  0  0  0  0  0
   39.9130   30.9120   41.8020 O   0  0  0  0  0  0  0  0  0  0  0  0
   39.5980   32.3170   39.5740 C   0  0  0  0  0  0  0  0  0  0  0  0
   40.5990   31.9620   38.7040 C   0  0  0  0  0  0  0  0  0  0  0  0
   41.3740   33.0360   38.4490 N   0  0  0  0  0  0  0  0  0  0  0  0
   40.8710   34.0910   39.1560 C   0  0  0  0  0  0  0  0  0  0  0  0
   41.2520   35.4060   39.2720 C   0  0  0  0  0  0  0  0  0  0  0  0
   40.5840   36.3150   40.0600 C   0  0  0  0  0  0  0  0  0  0  0  0
   39.4550   35.8990   40.7880 C   0  0  0  0  0  0  0  0  0  0  0  0
   39.1030   34.5730   40.6450 C   0  0  0  0  0  0  0  0  0  0  0  0
   39.7640   33.6640   39.8630 C   0  0  0  0  0  0  0  0  0  0  0  0
   38.0720   29.4750   43.0920 C   0  0  0  0  0  0  0  0  0  0  0  0
   40.4600   26.6490   42.9640 C   0  0  0  0  0  0  0  0  0  0  0  0
   39.8050   25.7420   42.1270 C   0  0  0  0  0  0  0  0  0  0  0  0
   38.5660   26.0950   41.6180 C   0  0  0  0  0  0  0  0  0  0  0  0
   38.0530   27.2960   41.9530 N   0  0  0  0  0  0  0  0  0  0  0  0
   38.7090   28.1650   42.7690 C   0  0  0  0  0  0  0  0  0  0  0  0
   39.9000   27.8200   43.2570 N   0  0  0  0  0  0  0  0  0  0  0  0
   37.7600   25.2990   40.7550 N   0  0  0  0  0  0  0  0  0  0  0  0
   38.0820   25.4700   39.4490 C   0  0  0  0  0  0  0  0  0  0  0  0
   37.3790   24.7580   38.4780 C   0  0  0  0  0  0  0  0  0  0  0  0
   36.3580   23.8810   38.8600 C   0  0  0  0  0  0  0  0  0  0  0  0
   35.6850   23.2080   38.0250 O   0  0  0  0  0  0  0  0  0  0  0  0
   36.0950   23.7640   40.1740 N   0  0  0  0  0  0  0  0  0  0  0  0
   36.7750   24.4530   41.1080 C   0  0  0  0  0  0  0  0  0  0  0  0
   36.5890   24.3980   42.3500 O   0  0  0  0  0  0  0  0  0  0  0  0
   35.6765   29.5962   41.8156 H   0  0  0  0  0  0  0  0  0  0  0  0
   35.3112   30.8856   39.7401 H   0  0  0  0  0  0  0  0  0  0  0  0
   40.7461   30.9575   38.2806 H   0  0  0  0  0  0  0  0  0  0  0  0
   42.1980   33.0569   37.8314 H   0  0  0  0  0  0  0  0  0  0  0  0
   42.1325   35.7482   38.7084 H   0  0  0  0  0  0  0  0  0  0  0  0
   40.9299   37.3575   40.1199 H   0  0  0  0  0  0  0  0  0  0  0  0
   38.8880   36.5880   41.4313 H   0  0  0  0  0  0  0  0  0  0  0  0
   38.2233   34.2185   41.2022 H   0  0  0  0  0  0  0  0  0  0  0  0
   38.7705   30.0795   43.6892 H   0  0  0  0  0  0  0  0  0  0  0  0
   37.1482   29.2906   43.6600 H   0  0  0  0  0  0  0  0  0  0  0  0
   41.4444   26.3935   43.3832 H   0  0  0  0  0  0  0  0  0  0  0  0
   40.2615   24.7725   41.8786 H   0  0  0  0  0  0  0  0  0  0  0  0
   38.8872   26.1613   39.1594 H   0  0  0  0  0  0  0  0  0  0  0  0
   37.6266   24.8855   37.4138 H   0  0  0  0  0  0  0  0  0  0  0  0
   35.3464   23.1241   40.4757 H   0  0  0  0  0  0  0  0  0  0  0  0
  1 18  1  0
  2  1  1  0
  3  2  2  0
  4  6  1  0
  4  3  1  0
  5  4  2  0
  6  7  1  0
  7  8  2  0
  7  1  1  0
  9 17  1  0
  9  6  1  0
 10  9  2  0
 11 10  1  0
 11 12  1  0
 12 13  2  0
 12 17  1  0
 13 14  1  0
 14 15  2  0
 16 15  1  0
 17 16  2  0
 19 24  2  0
 20 19  1  0
 21 22  1  0
 21 20  2  0
 22 23  2  0
 23 18  1  0
 23 24  1  0
 25 31  1  0
 25 21  1  0
 26 25  1  0
 27 28  1  0
 27 26  2  0
 28 30  1  0
 29 28  2  0
 30 31  1  0
 31 32  2  0
  2 33  1  0
  3 34  1  0
 10 35  1  0
 11 36  1  0
 13 37  1  0
 14 38  1  0
 15 39  1  0
 16 40  1  0
 18 41  1  0
 18 42  1  0
 19 43  1  0
 20 44  1  0
 26 45  1  0
 27 46  1  0
 30 47  1  0
M  ISO  8  33  14  34  14  35  14  36   9  37  14  38  14  39  14  40  14
M  ISO  7  41   8  42   8  43  14  44  14  45  14  46  14  47   9
M  END
>  <minimizedAffinity>  (1) 
-7.00322676

>  <minimizedRMSD>  (1) 
1.81087899

$$$$
