
     RDKit          3D

 48 53  0  0  0  0  0  0  0  0999 V2000
   37.5550   30.0750   41.7470 N   0  0  0  0  0  0  0  0  0  0  0  0
   36.3750   29.9660   41.1150 C   0  0  0  0  0  0  0  0  0  0  0  0
   36.2890   30.6160   39.9010 C   0  0  0  0  0  0  0  0  0  0  0  0
   37.2970   31.3430   39.3170 C   0  0  0  0  0  0  0  0  0  0  0  0
   37.1900   31.9130   38.2310 O   0  0  0  0  0  0  0  0  0  0  0  0
   38.4450   31.3870   40.0430 N   0  0  0  0  0  0  0  0  0  0  0  0
   38.5850   30.7710   41.2340 C   0  0  0  0  0  0  0  0  0  0  0  0
   39.7030   30.8650   41.8480 O   0  0  0  0  0  0  0  0  0  0  0  0
   39.5720   32.1240   39.5210 C   0  0  0  0  0  0  0  0  0  0  0  0
   40.6550   31.7720   38.7710 C   0  0  0  0  0  0  0  0  0  0  0  0
   41.4220   32.8630   38.5560 N   0  0  0  0  0  0  0  0  0  0  0  0
   40.8370   33.9220   39.1660 C   0  0  0  0  0  0  0  0  0  0  0  0
   41.1730   35.2480   39.2720 C   0  0  0  0  0  0  0  0  0  0  0  0
   40.4160   36.1670   39.9550 C   0  0  0  0  0  0  0  0  0  0  0  0
   39.2340   35.7470   40.5840 C   0  0  0  0  0  0  0  0  0  0  0  0
   38.9160   34.4020   40.4630 C   0  0  0  0  0  0  0  0  0  0  0  0
   39.6800   33.4850   39.7760 C   0  0  0  0  0  0  0  0  0  0  0  0
   37.7910   29.4390   43.0410 C   0  0  0  0  0  0  0  0  0  0  0  0
   40.2110   26.6490   43.2510 C   0  0  0  0  0  0  0  0  0  0  0  0
   39.6090   25.6590   42.4870 C   0  0  0  0  0  0  0  0  0  0  0  0
   38.3900   25.9380   41.9040 C   0  0  0  0  0  0  0  0  0  0  0  0
   37.8330   27.1510   42.0980 N   0  0  0  0  0  0  0  0  0  0  0  0
   38.4500   28.1100   42.8580 C   0  0  0  0  0  0  0  0  0  0  0  0
   39.6110   27.8360   43.4090 N   0  0  0  0  0  0  0  0  0  0  0  0
   37.5770   25.0970   41.0810 N   0  0  0  0  0  0  0  0  0  0  0  0
   36.6070   24.2030   41.4190 C   0  0  0  0  0  0  0  0  0  0  0  0
   36.1350   23.6610   40.2740 N   0  0  0  0  0  0  0  0  0  0  0  0
   36.8010   24.2080   39.2220 C   0  0  0  0  0  0  0  0  0  0  0  0
   36.7420   24.0380   37.8510 C   0  0  0  0  0  0  0  0  0  0  0  0
   37.5600   24.7520   37.0550 N   0  0  0  0  0  0  0  0  0  0  0  0
   38.4450   25.6340   37.5470 C   0  0  0  0  0  0  0  0  0  0  0  0
   38.5200   25.8140   38.8840 N   0  0  0  0  0  0  0  0  0  0  0  0
   37.7190   25.1210   39.7270 C   0  0  0  0  0  0  0  0  0  0  0  0
   35.5336   29.3967   41.5369 H   0  0  0  0  0  0  0  0  0  0  0  0
   35.3356   30.5462   39.3568 H   0  0  0  0  0  0  0  0  0  0  0  0
   40.8702   30.7592   38.3996 H   0  0  0  0  0  0  0  0  0  0  0  0
   42.3012   32.8859   38.0200 H   0  0  0  0  0  0  0  0  0  0  0  0
   42.0969   35.5925   38.7844 H   0  0  0  0  0  0  0  0  0  0  0  0
   40.7319   37.2193   40.0086 H   0  0  0  0  0  0  0  0  0  0  0  0
   38.5944   36.4462   41.1426 H   0  0  0  0  0  0  0  0  0  0  0  0
   37.9947   34.0452   40.9467 H   0  0  0  0  0  0  0  0  0  0  0  0
   38.4415   30.0851   43.6488 H   0  0  0  0  0  0  0  0  0  0  0  0
   36.8252   29.2909   43.5463 H   0  0  0  0  0  0  0  0  0  0  0  0
   41.1836   26.4583   43.7281 H   0  0  0  0  0  0  0  0  0  0  0  0
   40.0902   24.6794   42.3501 H   0  0  0  0  0  0  0  0  0  0  0  0
   36.2690   23.9651   42.4384 H   0  0  0  0  0  0  0  0  0  0  0  0
   36.0302   23.3229   37.4129 H   0  0  0  0  0  0  0  0  0  0  0  0
   39.1002   26.2024   36.8705 H   0  0  0  0  0  0  0  0  0  0  0  0
  1 18  1  0
  2  1  1  0
  3  2  2  0
  4  3  1  0
  4  6  1  0
  5  4  2  0
  6  7  1  0
  7  1  1  0
  7  8  2  0
  9 17  1  0
  9  6  1  0
 10  9  2  0
 11 10  1  0
 11 12  1  0
 12 13  2  0
 12 17  1  0
 13 14  1  0
 14 15  2  0
 16 15  1  0
 17 16  2  0
 19 24  2  0
 20 19  1  0
 21 22  1  0
 21 20  2  0
 22 23  2  0
 23 18  1  0
 23 24  1  0
 25 26  1  0
 25 21  1  0
 27 26  2  0
 28 33  2  0
 28 27  1  0
 29 28  1  0
 30 31  1  0
 30 29  2  0
 31 32  2  0
 32 33  1  0
 33 25  1  0
  2 34  1  0
  3 35  1  0
 10 36  1  0
 11 37  1  0
 13 38  1  0
 14 39  1  0
 15 40  1  0
 16 41  1  0
 18 42  1  0
 18 43  1  0
 19 44  1  0
 20 45  1  0
 26 46  1  0
 29 47  1  0
 31 48  1  0
M  ISO  8  34  14  35  14  36  14  37   9  38  14  39  14  40  14  41  14
M  ISO  7  42   8  43   8  44  14  45  14  46  14  47  14  48  14
M  END
>  <minimizedAffinity>  (1) 
-6.96344662

>  <minimizedRMSD>  (1) 
1.74836862

$$$$
