
     RDKit          3D

 44 48  0  0  0  0  0  0  0  0999 V2000
   37.6750   30.1190   41.9450 N   0  0  0  0  0  0  0  0  0  0  0  0
   36.4340   30.0980   41.4340 C   0  0  0  0  0  0  0  0  0  0  0  0
   36.2550   30.8000   40.2550 C   0  0  0  0  0  0  0  0  0  0  0  0
   37.2420   31.4930   39.5960 C   0  0  0  0  0  0  0  0  0  0  0  0
   37.0560   32.1110   38.5430 O   0  0  0  0  0  0  0  0  0  0  0  0
   38.4560   31.4480   40.1970 N   0  0  0  0  0  0  0  0  0  0  0  0
   38.6880   30.7780   41.3530 C   0  0  0  0  0  0  0  0  0  0  0  0
   39.8610   30.7930   41.8410 O   0  0  0  0  0  0  0  0  0  0  0  0
   39.5520   32.1430   39.5830 C   0  0  0  0  0  0  0  0  0  0  0  0
   40.5620   31.7400   38.7280 C   0  0  0  0  0  0  0  0  0  0  0  0
   41.3530   32.7930   38.4380 N   0  0  0  0  0  0  0  0  0  0  0  0
   40.8650   33.8770   39.0990 C   0  0  0  0  0  0  0  0  0  0  0  0
   41.2610   35.1940   39.1720 C   0  0  0  0  0  0  0  0  0  0  0  0
   40.5990   36.1370   39.9220 C   0  0  0  0  0  0  0  0  0  0  0  0
   39.4660   35.7670   40.6530 C   0  0  0  0  0  0  0  0  0  0  0  0
   39.0900   34.4400   40.5610 C   0  0  0  0  0  0  0  0  0  0  0  0
   39.7540   33.4830   39.8060 C   0  0  0  0  0  0  0  0  0  0  0  0
   37.9980   29.4230   43.1790 C   0  0  0  0  0  0  0  0  0  0  0  0
   39.7510   26.1480   43.2160 C   0  0  0  0  0  0  0  0  0  0  0  0
   38.9770   25.4030   42.3270 C   0  0  0  0  0  0  0  0  0  0  0  0
   37.8870   26.0080   41.7340 C   0  0  0  0  0  0  0  0  0  0  0  0
   37.6220   27.2800   42.0380 N   0  0  0  0  0  0  0  0  0  0  0  0
   38.3700   28.0080   42.9000 C   0  0  0  0  0  0  0  0  0  0  0  0
   39.4200   27.4120   43.4650 N   0  0  0  0  0  0  0  0  0  0  0  0
   37.0600   25.2500   40.8010 C   0  0  0  0  0  0  0  0  0  0  0  0
   36.5640   23.9780   41.0020 C   0  0  0  0  0  0  0  0  0  0  0  0
   35.8450   23.6940   39.8430 C   0  0  0  0  0  0  0  0  0  0  0  0
   35.9190   24.7590   38.9990 N   0  0  0  0  0  0  0  0  0  0  0  0
   36.6600   25.6950   39.5960 N   0  0  0  0  0  0  0  0  0  0  0  0
   35.6104   29.5564   41.9221 H   0  0  0  0  0  0  0  0  0  0  0  0
   35.2480   30.8036   39.8124 H   0  0  0  0  0  0  0  0  0  0  0  0
   40.6988   30.7183   38.3439 H   0  0  0  0  0  0  0  0  0  0  0  0
   42.1803   32.7789   37.8245 H   0  0  0  0  0  0  0  0  0  0  0  0
   42.1492   35.5062   38.6032 H   0  0  0  0  0  0  0  0  0  0  0  0
   40.9585   37.1763   39.9469 H   0  0  0  0  0  0  0  0  0  0  0  0
   38.9066   36.4895   41.2654 H   0  0  0  0  0  0  0  0  0  0  0  0
   38.2021   34.1199   41.1259 H   0  0  0  0  0  0  0  0  0  0  0  0
   38.8427   29.9291   43.6692 H   0  0  0  0  0  0  0  0  0  0  0  0
   37.1151   29.4352   43.8349 H   0  0  0  0  0  0  0  0  0  0  0  0
   40.6257   25.6954   43.7060 H   0  0  0  0  0  0  0  0  0  0  0  0
   39.2295   24.3560   42.1031 H   0  0  0  0  0  0  0  0  0  0  0  0
   36.7049   23.3323   41.8813 H   0  0  0  0  0  0  0  0  0  0  0  0
   35.3036   22.7578   39.6420 H   0  0  0  0  0  0  0  0  0  0  0  0
   35.4826   24.8299   38.0687 H   0  0  0  0  0  0  0  0  0  0  0  0
  1 18  1  0
  2  1  1  0
  3  2  2  0
  4  6  1  0
  4  3  1  0
  5  4  2  0
  6  7  1  0
  7  8  2  0
  7  1  1  0
  9 17  1  0
  9  6  1  0
 10  9  2  0
 11 10  1  0
 11 12  1  0
 12 13  2  0
 12 17  1  0
 13 14  1  0
 14 15  2  0
 16 15  1  0
 17 16  2  0
 19 24  2  0
 20 19  1  0
 21 22  1  0
 21 20  2  0
 22 23  2  0
 23 18  1  0
 23 24  1  0
 25 26  1  0
 25 21  1  0
 27 26  2  0
 28 29  1  0
 28 27  1  0
 29 25  2  0
  2 30  1  0
  3 31  1  0
 10 32  1  0
 11 33  1  0
 13 34  1  0
 14 35  1  0
 15 36  1  0
 16 37  1  0
 18 38  1  0
 18 39  1  0
 19 40  1  0
 20 41  1  0
 26 42  1  0
 27 43  1  0
 28 44  1  0
M  ISO  8  30  14  31  14  32  14  33   9  34  14  35  14  36  14  37  14
M  ISO  7  38   8  39   8  40  14  41  14  42  14  43  14  44   9
M  END
>  <minimizedAffinity>  (1) 
-6.93328381

>  <minimizedRMSD>  (1) 
1.14780045

$$$$
