
     RDKit          3D

 46 49  0  0  0  0  0  0  0  0999 V2000
   37.4420   29.8720   41.8400 N   0  0  0  0  0  0  0  0  0  0  0  0
   36.2770   29.7580   41.1730 C   0  0  0  0  0  0  0  0  0  0  0  0
   36.2370   30.3830   39.9470 C   0  0  0  0  0  0  0  0  0  0  0  0
   37.2620   31.0890   39.3750 C   0  0  0  0  0  0  0  0  0  0  0  0
   37.1890   31.6370   38.2700 O   0  0  0  0  0  0  0  0  0  0  0  0
   38.3920   31.1400   40.1340 N   0  0  0  0  0  0  0  0  0  0  0  0
   38.4920   30.5490   41.3420 C   0  0  0  0  0  0  0  0  0  0  0  0
   39.5900   30.6510   41.9810 O   0  0  0  0  0  0  0  0  0  0  0  0
   39.5350   31.8600   39.6260 C   0  0  0  0  0  0  0  0  0  0  0  0
   40.6510   31.4790   38.9370 C   0  0  0  0  0  0  0  0  0  0  0  0
   41.4270   32.5540   38.6960 N   0  0  0  0  0  0  0  0  0  0  0  0
   40.7980   33.6420   39.2390 C   0  0  0  0  0  0  0  0  0  0  0  0
   41.1450   34.9710   39.2820 C   0  0  0  0  0  0  0  0  0  0  0  0
   40.3370   35.9190   39.8990 C   0  0  0  0  0  0  0  0  0  0  0  0
   39.1460   35.5190   40.4920 C   0  0  0  0  0  0  0  0  0  0  0  0
   38.8430   34.1780   40.4220 C   0  0  0  0  0  0  0  0  0  0  0  0
   39.6240   33.2270   39.8190 C   0  0  0  0  0  0  0  0  0  0  0  0
   37.6220   29.2600   43.1470 C   0  0  0  0  0  0  0  0  0  0  0  0
   39.7960   26.2540   43.3990 C   0  0  0  0  0  0  0  0  0  0  0  0
   39.0480   25.3000   42.7020 C   0  0  0  0  0  0  0  0  0  0  0  0
   37.8330   25.6870   42.1640 C   0  0  0  0  0  0  0  0  0  0  0  0
   37.4160   26.9460   42.3240 N   0  0  0  0  0  0  0  0  0  0  0  0
   38.1620   27.8670   43.0110 C   0  0  0  0  0  0  0  0  0  0  0  0
   39.3180   27.4920   43.5200 N   0  0  0  0  0  0  0  0  0  0  0  0
   36.9920   24.7160   41.4120 C   0  0  0  0  0  0  0  0  0  0  0  0
   37.7120   23.4330   41.1550 C   0  0  0  0  0  0  0  0  0  0  0  0
   36.5950   25.2890   40.0460 C   0  0  0  0  0  0  0  0  0  0  0  0
   35.4179   29.2043   41.5796 H   0  0  0  0  0  0  0  0  0  0  0  0
   35.2994   30.3089   39.3766 H   0  0  0  0  0  0  0  0  0  0  0  0
   40.8817   30.4495   38.6256 H   0  0  0  0  0  0  0  0  0  0  0  0
   42.3273   32.5566   38.1956 H   0  0  0  0  0  0  0  0  0  0  0  0
   42.0876   35.2933   38.8156 H   0  0  0  0  0  0  0  0  0  0  0  0
   40.6380   36.9768   39.9176 H   0  0  0  0  0  0  0  0  0  0  0  0
   38.4793   36.2371   40.9919 H   0  0  0  0  0  0  0  0  0  0  0  0
   37.9027   33.8445   40.8852 H   0  0  0  0  0  0  0  0  0  0  0  0
   38.3280   29.8651   43.7348 H   0  0  0  0  0  0  0  0  0  0  0  0
   36.6462   29.2130   43.6526 H   0  0  0  0  0  0  0  0  0  0  0  0
   40.7666   25.9859   43.8418 H   0  0  0  0  0  0  0  0  0  0  0  0
   39.4153   24.2698   42.5845 H   0  0  0  0  0  0  0  0  0  0  0  0
   36.1071   24.5286   42.0380 H   0  0  0  0  0  0  0  0  0  0  0  0
   37.9761   22.9624   42.1135 H   0  0  0  0  0  0  0  0  0  0  0  0
   37.0619   22.7563   40.5811 H   0  0  0  0  0  0  0  0  0  0  0  0
   38.6283   23.6354   40.5811 H   0  0  0  0  0  0  0  0  0  0  0  0
   35.9740   26.1853   40.1908 H   0  0  0  0  0  0  0  0  0  0  0  0
   37.5014   25.5578   39.4837 H   0  0  0  0  0  0  0  0  0  0  0  0
   36.0249   24.5348   39.4837 H   0  0  0  0  0  0  0  0  0  0  0  0
  1 18  1  0
  2  1  1  0
  3  2  2  0
  4  3  1  0
  4  6  1  0
  5  4  2  0
  6  7  1  0
  7  1  1  0
  7  8  2  0
  9 17  1  0
  9  6  1  0
 10  9  2  0
 11 10  1  0
 11 12  1  0
 12 13  2  0
 12 17  1  0
 13 14  1  0
 14 15  2  0
 16 15  1  0
 17 16  2  0
 19 24  2  0
 20 19  1  0
 21 22  1  0
 21 20  2  0
 22 23  2  0
 23 18  1  0
 23 24  1  0
 25 21  1  0
 26 25  1  0
 27 25  1  0
  2 28  1  0
  3 29  1  0
 10 30  1  0
 11 31  1  0
 13 32  1  0
 14 33  1  0
 15 34  1  0
 16 35  1  0
 18 36  1  0
 18 37  1  0
 19 38  1  0
 20 39  1  0
 25 40  1  0
 26 41  1  0
 26 42  1  0
 26 43  1  0
 27 44  1  0
 27 45  1  0
 27 46  1  0
M  ISO  8  28  14  29  14  30  14  31   9  32  14  33  14  34  14  35  14
M  ISO  8  36   8  37   8  38  14  39  14  40   8  41   8  42   8  43   8
M  ISO  3  44   8  45   8  46   8
M  END
>  <minimizedAffinity>  (1) 
-6.85480022

>  <minimizedRMSD>  (1) 
0.687824965

$$$$
