
     RDKit          3D

 49 53  0  0  0  0  0  0  0  0999 V2000
   37.7590   29.9840   41.8150 N   0  0  0  0  0  0  0  0  0  0  0  0
   36.5940   29.7870   41.1730 C   0  0  0  0  0  0  0  0  0  0  0  0
   36.4790   30.3990   39.9370 C   0  0  0  0  0  0  0  0  0  0  0  0
   37.4490   31.1680   39.3450 C   0  0  0  0  0  0  0  0  0  0  0  0
   37.3190   31.7040   38.2370 O   0  0  0  0  0  0  0  0  0  0  0  0
   38.5910   31.3020   40.0860 N   0  0  0  0  0  0  0  0  0  0  0  0
   38.7530   30.7250   41.2980 C   0  0  0  0  0  0  0  0  0  0  0  0
   39.8510   30.9060   41.9140 O   0  0  0  0  0  0  0  0  0  0  0  0
   39.6700   32.0920   39.5510 C   0  0  0  0  0  0  0  0  0  0  0  0
   40.7620   31.7840   38.7840 C   0  0  0  0  0  0  0  0  0  0  0  0
   41.4680   32.9030   38.5560 N   0  0  0  0  0  0  0  0  0  0  0  0
   40.8310   33.9490   39.1790 C   0  0  0  0  0  0  0  0  0  0  0  0
   41.1120   35.2880   39.2720 C   0  0  0  0  0  0  0  0  0  0  0  0
   40.3160   36.1670   39.9650 C   0  0  0  0  0  0  0  0  0  0  0  0
   39.1690   35.6870   40.6060 C   0  0  0  0  0  0  0  0  0  0  0  0
   38.9200   34.3350   40.4920 C   0  0  0  0  0  0  0  0  0  0  0  0
   39.7150   33.4550   39.7990 C   0  0  0  0  0  0  0  0  0  0  0  0
   38.0080   29.3980   43.1210 C   0  0  0  0  0  0  0  0  0  0  0  0
   40.6980   26.8470   43.2110 C   0  0  0  0  0  0  0  0  0  0  0  0
   40.0600   25.7180   42.7100 C   0  0  0  0  0  0  0  0  0  0  0  0
   38.7340   25.8400   42.3510 C   0  0  0  0  0  0  0  0  0  0  0  0
   38.1110   27.0130   42.4910 N   0  0  0  0  0  0  0  0  0  0  0  0
   38.7550   28.1150   42.9860 C   0  0  0  0  0  0  0  0  0  0  0  0
   40.0250   27.9910   43.3280 N   0  0  0  0  0  0  0  0  0  0  0  0
   38.0440   24.7080   41.8330 N   0  0  0  0  0  0  0  0  0  0  0  0
   38.6440   23.5740   41.1580 C   0  0  0  0  0  0  0  0  0  0  0  0
   37.5870   23.2050   40.1090 C   0  0  0  0  0  0  0  0  0  0  0  0
   36.3360   23.9630   40.4820 C   0  0  0  0  0  0  0  0  0  0  0  0
   36.6140   24.4640   41.8790 C   0  0  0  0  0  0  0  0  0  0  0  0
   35.7845   29.1786   41.6026 H   0  0  0  0  0  0  0  0  0  0  0  0
   35.5371   30.2580   39.3866 H   0  0  0  0  0  0  0  0  0  0  0  0
   41.0194   30.7806   38.4140 H   0  0  0  0  0  0  0  0  0  0  0  0
   42.3379   32.9665   38.0081 H   0  0  0  0  0  0  0  0  0  0  0  0
   42.0120   35.6740   38.7710 H   0  0  0  0  0  0  0  0  0  0  0  0
   40.5770   37.2344   40.0153 H   0  0  0  0  0  0  0  0  0  0  0  0
   38.5005   36.3529   41.1714 H   0  0  0  0  0  0  0  0  0  0  0  0
   38.0244   33.9346   40.9896 H   0  0  0  0  0  0  0  0  0  0  0  0
   38.6014   30.1001   43.7252 H   0  0  0  0  0  0  0  0  0  0  0  0
   37.0432   29.1972   43.6096 H   0  0  0  0  0  0  0  0  0  0  0  0
   41.7554   26.7960   43.5100 H   0  0  0  0  0  0  0  0  0  0  0  0
   40.5935   24.7619   42.6038 H   0  0  0  0  0  0  0  0  0  0  0  0
   39.5947   23.8544   40.6810 H   0  0  0  0  0  0  0  0  0  0  0  0
   38.8924   22.7446   41.8366 H   0  0  0  0  0  0  0  0  0  0  0  0
   37.3953   22.1220   40.1263 H   0  0  0  0  0  0  0  0  0  0  0  0
   37.9236   23.4643   39.0944 H   0  0  0  0  0  0  0  0  0  0  0  0
   36.1676   24.8029   39.7919 H   0  0  0  0  0  0  0  0  0  0  0  0
   35.4317   23.3390   40.4286 H   0  0  0  0  0  0  0  0  0  0  0  0
   36.3622   23.7042   42.6336 H   0  0  0  0  0  0  0  0  0  0  0  0
   36.0220   25.3478   42.1592 H   0  0  0  0  0  0  0  0  0  0  0  0
  1 18  1  0
  2  1  1  0
  3  2  2  0
  4  3  1  0
  4  6  1  0
  5  4  2  0
  6  7  1  0
  7  1  1  0
  7  8  2  0
  9 17  1  0
  9  6  1  0
 10  9  2  0
 11 10  1  0
 11 12  1  0
 12 13  2  0
 12 17  1  0
 13 14  1  0
 14 15  2  0
 16 15  1  0
 17 16  2  0
 19 24  2  0
 20 19  1  0
 21 22  1  0
 21 20  2  0
 22 23  2  0
 23 18  1  0
 23 24  1  0
 25 29  1  0
 25 21  1  0
 26 25  1  0
 27 28  1  0
 27 26  1  0
 28 29  1  0
  2 30  1  0
  3 31  1  0
 10 32  1  0
 11 33  1  0
 13 34  1  0
 14 35  1  0
 15 36  1  0
 16 37  1  0
 18 38  1  0
 18 39  1  0
 19 40  1  0
 20 41  1  0
 26 42  1  0
 26 43  1  0
 27 44  1  0
 27 45  1  0
 28 46  1  0
 28 47  1  0
 29 48  1  0
 29 49  1  0
M  ISO  8  30  14  31  14  32  14  33   9  34  14  35  14  36  14  37  14
M  ISO  8  38   8  39   8  40  14  41  14  42  13  43  13  44  13  45  13
M  ISO  4  46  13  47  13  48  13  49  13
M  END
>  <minimizedAffinity>  (1) 
-6.79770899

>  <minimizedRMSD>  (1) 
1.22245085

$$$$
