
     RDKit          3D

 12 12  0  0  0  0  0  0  0  0999 V2000
   39.1750   30.6620   42.0460 C   0  0  0  0  0  0  0  0  0  0  0  0
   38.8810   29.6250   42.9500 C   0  0  0  0  0  0  0  0  0  0  0  0
   37.6100   29.0510   42.8870 C   0  0  0  0  0  0  0  0  0  0  0  0
   36.7260   29.5160   41.9630 N   0  0  0  0  0  0  0  0  0  0  0  0
   37.0510   30.5130   41.1130 C   0  0  0  0  0  0  0  0  0  0  0  0
   38.2610   31.0910   41.1430 N   0  0  0  0  0  0  0  0  0  0  0  0
   37.3340   27.9920   43.8240 C   0  0  0  0  0  0  0  0  0  0  0  0
   36.7330   28.1500   44.9100 O   0  0  0  0  0  0  0  0  0  0  0  0
   40.1680   31.1344   42.0730 H   0  0  0  0  0  0  0  0  0  0  0  0
   39.6265   29.2786   43.6809 H   0  0  0  0  0  0  0  0  0  0  0  0
   36.3074   30.8589   40.3799 H   0  0  0  0  0  0  0  0  0  0  0  0
   37.6740   26.9777   43.5678 H   0  0  0  0  0  0  0  0  0  0  0  0
  1  2  2  0
  3  2  1  0
  3  7  1  0
  4  3  2  0
  5  6  2  0
  5  4  1  0
  6  1  1  0
  7  8  2  0
  1  9  1  0
  2 10  1  0
  5 11  1  0
  7 12  1  0
M  ISO  4   9  14  10  14  11  14  12   6
M  END
>  <minimizedAffinity>  (1) 
-2.74000454

>  <minimizedRMSD>  (1) 
2.00848675

$$$$
