
     RDKit          3D

 21 22  0  0  0  0  0  0  0  0999 V2000
   39.2130   31.0670   41.7840 C   0  0  0  0  0  0  0  0  0  0  0  0
   38.9900   29.9870   42.6730 C   0  0  0  0  0  0  0  0  0  0  0  0
   37.7580   29.3540   42.6640 C   0  0  0  0  0  0  0  0  0  0  0  0
   36.8150   29.7950   41.8030 N   0  0  0  0  0  0  0  0  0  0  0  0
   37.0450   30.8270   40.9610 C   0  0  0  0  0  0  0  0  0  0  0  0
   38.2320   31.4670   40.9430 N   0  0  0  0  0  0  0  0  0  0  0  0
   37.6140   28.2720   43.5910 C   0  0  0  0  0  0  0  0  0  0  0  0
   36.9590   28.3150   44.6450 O   0  0  0  0  0  0  0  0  0  0  0  0
   38.2740   27.0010   43.3100 C   0  0  0  0  0  0  0  0  0  0  0  0
   39.4840   26.6930   43.9110 C   0  0  0  0  0  0  0  0  0  0  0  0
   40.1650   25.5090   43.6910 C   0  0  0  0  0  0  0  0  0  0  0  0
   39.5690   24.6070   42.8160 C   0  0  0  0  0  0  0  0  0  0  0  0
   38.3620   24.9110   42.2160 C   0  0  0  0  0  0  0  0  0  0  0  0
   37.7480   26.0850   42.4720 N   0  0  0  0  0  0  0  0  0  0  0  0
   40.1854   31.5812   41.7775 H   0  0  0  0  0  0  0  0  0  0  0  0
   39.7829   29.6561   43.3599 H   0  0  0  0  0  0  0  0  0  0  0  0
   36.2476   31.1516   40.2763 H   0  0  0  0  0  0  0  0  0  0  0  0
   39.9263   27.4285   44.5991 H   0  0  0  0  0  0  0  0  0  0  0  0
   41.1256   25.2927   44.1814 H   0  0  0  0  0  0  0  0  0  0  0  0
   40.0609   23.6470   42.6006 H   0  0  0  0  0  0  0  0  0  0  0  0
   37.8986   24.1913   41.5251 H   0  0  0  0  0  0  0  0  0  0  0  0
  1  2  2  0
  3  2  1  0
  3  7  1  0
  4  3  2  0
  5  4  1  0
  6  5  2  0
  6  1  1  0
  7  8  2  0
  9  7  1  0
  9 10  2  0
 11 10  1  0
 12 11  2  0
 13 14  2  0
 13 12  1  0
 14  9  1  0
  1 15  1  0
  2 16  1  0
  5 17  1  0
 10 18  1  0
 11 19  1  0
 12 20  1  0
 13 21  1  0
M  ISO  7  15  14  16  14  17  14  18  14  19  14  20  14  21  14
M  END
>  <minimizedAffinity>  (1) 
-4.56196117

>  <minimizedRMSD>  (1) 
0.632456362

$$$$
