
     RDKit          3D

 19 19  0  0  0  0  0  0  0  0999 V2000
   40.4450   31.7080   37.6970 C   0  0  0  0  0  0  0  0  0  0  0  0
   41.0020   30.6080   37.5620 O   0  0  0  0  0  0  0  0  0  0  0  0
   40.8170   32.8900   36.9990 N   0  0  0  0  0  0  0  0  0  0  0  0
   42.1640   33.2580   37.2730 C   0  0  0  0  0  0  0  0  0  0  0  0
   43.1300   32.8380   37.9580 N   0  0  0  0  0  0  0  0  0  0  0  0
   42.7820   34.4090   36.6960 N   0  0  0  0  0  0  0  0  0  0  0  0
   43.1780   32.0220   38.5610 H   0  0  0  0  0  0  0  0  0  0  0  0
   38.5580   32.7330   40.7080 C   0  0  0  0  0  0  0  0  0  0  0  0
   39.6350   32.5000   39.8460 C   0  0  0  0  0  0  0  0  0  0  0  0
   39.3270   31.9430   38.5940 C   0  0  0  0  0  0  0  0  0  0  0  0
   38.0360   31.6630   38.2850 N   0  0  0  0  0  0  0  0  0  0  0  0
   37.0340   31.9090   39.1600 C   0  0  0  0  0  0  0  0  0  0  0  0
   37.2950   32.4380   40.3560 N   0  0  0  0  0  0  0  0  0  0  0  0
   40.1894   33.4145   36.3730 H   0  0  0  0  0  0  0  0  0  0  0  0
   43.7604   34.6367   36.9234 H   0  0  0  0  0  0  0  0  0  0  0  0
   42.2493   35.0114   36.0525 H   0  0  0  0  0  0  0  0  0  0  0  0
   38.7499   33.1689   41.6995 H   0  0  0  0  0  0  0  0  0  0  0  0
   40.6691   32.7405   40.1338 H   0  0  0  0  0  0  0  0  0  0  0  0
   35.9964   31.6709   38.8829 H   0  0  0  0  0  0  0  0  0  0  0  0
  1 10  1  0
  2  1  2  0
  3  4  1  0
  3  1  1  0
  4  5  2  0
  5  7  1  0
  6  4  1  0
  9  8  2  0
 10  9  1  0
 11 10  2  0
 11 12  1  0
 12 13  2  0
 13  8  1  0
  3 14  1  0
  6 15  1  0
  6 16  1  0
  8 17  1  0
  9 18  1  0
 12 19  1  0
M  ISO  3  17  14  18  14  19  14
M  END
>  <minimizedAffinity>  (1) 
-4.37153149

>  <minimizedRMSD>  (1) 
7.55749655

$$$$
