
     RDKit          3D

 18 19  0  0  0  0  0  0  0  0999 V2000
   39.2310   31.0430   41.8080 C   0  0  0  0  0  0  0  0  0  0  0  0
   39.0460   29.9770   42.7280 C   0  0  0  0  0  0  0  0  0  0  0  0
   37.8110   29.3540   42.7360 C   0  0  0  0  0  0  0  0  0  0  0  0
   36.8360   29.7570   41.8940 N   0  0  0  0  0  0  0  0  0  0  0  0
   37.0480   30.7820   41.0240 C   0  0  0  0  0  0  0  0  0  0  0  0
   38.2300   31.4360   40.9640 N   0  0  0  0  0  0  0  0  0  0  0  0
   37.6630   28.2800   43.6710 C   0  0  0  0  0  0  0  0  0  0  0  0
   36.8800   28.2760   44.6450 O   0  0  0  0  0  0  0  0  0  0  0  0
   38.5140   27.0850   43.4530 C   0  0  0  0  0  0  0  0  0  0  0  0
   38.0110   26.2450   42.4920 C   0  0  0  0  0  0  0  0  0  0  0  0
   39.2400   24.8520   42.4130 S   0  0  0  0  0  0  0  0  0  0  0  0
   40.2590   25.7170   43.7690 C   0  0  0  0  0  0  0  0  0  0  0  0
   39.6380   26.6320   43.9580 N   0  0  0  0  0  0  0  0  0  0  0  0
   40.1997   31.5631   41.7739 H   0  0  0  0  0  0  0  0  0  0  0  0
   39.8517   29.6598   43.4064 H   0  0  0  0  0  0  0  0  0  0  0  0
   36.2340   31.0873   40.3500 H   0  0  0  0  0  0  0  0  0  0  0  0
   37.0904   26.3676   41.9025 H   0  0  0  0  0  0  0  0  0  0  0  0
   41.2024   25.4039   44.2401 H   0  0  0  0  0  0  0  0  0  0  0  0
  1  2  2  0
  2  3  1  0
  3  7  1  0
  4  3  2  0
  5  4  1  0
  6  5  2  0
  6  1  1  0
  7  8  2  0
  9  7  1  0
  9 13  1  0
 10  9  2  0
 11 10  1  0
 11 12  1  0
 12 13  2  0
  1 14  1  0
  2 15  1  0
  5 16  1  0
 10 17  1  0
 12 18  1  0
M  ISO  5  14  14  15  14  16  14  17  14  18  14
M  END
>  <minimizedAffinity>  (1) 
-4.02512169

>  <minimizedRMSD>  (1) 
0.844093859

$$$$
