
     RDKit          3D

 17 18  0  0  0  0  0  0  0  0999 V2000
   39.2470   31.1080   41.7710 C   0  0  0  0  0  0  0  0  0  0  0  0
   39.0760   30.0220   42.6650 C   0  0  0  0  0  0  0  0  0  0  0  0
   37.8390   29.3950   42.6660 C   0  0  0  0  0  0  0  0  0  0  0  0
   36.8670   29.8290   41.8350 N   0  0  0  0  0  0  0  0  0  0  0  0
   37.0610   30.8740   40.9880 C   0  0  0  0  0  0  0  0  0  0  0  0
   38.2370   31.5140   40.9490 N   0  0  0  0  0  0  0  0  0  0  0  0
   37.6940   28.2990   43.5790 C   0  0  0  0  0  0  0  0  0  0  0  0
   36.9630   28.2830   44.5830 O   0  0  0  0  0  0  0  0  0  0  0  0
   38.4380   27.0460   43.3810 C   0  0  0  0  0  0  0  0  0  0  0  0
   38.1450   26.0430   42.5460 N   0  0  0  0  0  0  0  0  0  0  0  0
   39.0310   25.0910   42.6390 O   0  0  0  0  0  0  0  0  0  0  0  0
   39.9250   25.4630   43.5470 C   0  0  0  0  0  0  0  0  0  0  0  0
   39.5640   26.6750   44.0140 N   0  0  0  0  0  0  0  0  0  0  0  0
   40.2127   31.6337   41.7393 H   0  0  0  0  0  0  0  0  0  0  0  0
   39.8883   29.6910   43.3287 H   0  0  0  0  0  0  0  0  0  0  0  0
   36.2433   31.1977   40.3273 H   0  0  0  0  0  0  0  0  0  0  0  0
   40.8055   24.8842   43.8628 H   0  0  0  0  0  0  0  0  0  0  0  0
  1  2  2  0
  2  3  1  0
  3  7  1  0
  4  3  2  0
  5  4  1  0
  6  5  2  0
  6  1  1  0
  7  8  2  0
  9  7  1  0
  9 13  1  0
 10 11  1  0
 10  9  2  0
 11 12  1  0
 12 13  2  0
  1 14  1  0
  2 15  1  0
  5 16  1  0
 12 17  1  0
M  ISO  4  14  14  15  14  16  14  17  14
M  END
>  <minimizedAffinity>  (1) 
-3.98603845

>  <minimizedRMSD>  (1) 
0.770364404

$$$$
