
     RDKit          3D

 14 14  0  0  0  0  0  0  0  0999 V2000
   39.2790   30.6050   42.1820 C   0  0  0  0  0  0  0  0  0  0  0  0
   38.7930   29.5290   42.9540 C   0  0  0  0  0  0  0  0  0  0  0  0
   37.4860   29.0670   42.7180 C   0  0  0  0  0  0  0  0  0  0  0  0
   36.7440   29.6870   41.7450 N   0  0  0  0  0  0  0  0  0  0  0  0
   37.2660   30.7050   41.0480 C   0  0  0  0  0  0  0  0  0  0  0  0
   38.5120   31.1810   41.2380 N   0  0  0  0  0  0  0  0  0  0  0  0
   37.0470   27.9750   43.5330 C   0  0  0  0  0  0  0  0  0  0  0  0
   36.8110   28.1000   44.7680 O   0  0  0  0  0  0  0  0  0  0  0  0
   36.8890   26.7160   42.8540 N   0  0  0  0  0  0  0  0  0  0  0  0
   40.2992   30.9785   42.3540 H   0  0  0  0  0  0  0  0  0  0  0  0
   39.4233   29.0611   43.7246 H   0  0  0  0  0  0  0  0  0  0  0  0
   36.6417   31.1794   40.2765 H   0  0  0  0  0  0  0  0  0  0  0  0
   36.5761   25.8851   43.3760 H   0  0  0  0  0  0  0  0  0  0  0  0
   37.0889   26.6459   41.8460 H   0  0  0  0  0  0  0  0  0  0  0  0
  1  2  2  0
  3  2  1  0
  3  7  1  0
  4  3  2  0
  5  6  2  0
  5  4  1  0
  6  1  1  0
  7  8  2  0
  9  7  1  0
  1 10  1  0
  2 11  1  0
  5 12  1  0
  9 13  1  0
  9 14  1  0
M  ISO  3  10  14  11  14  12  14
M  END
>  <minimizedAffinity>  (1) 
-3.04457593

>  <minimizedRMSD>  (1) 
0.450841039

$$$$
