
     RDKit          3D

 13 13  0  0  0  0  0  0  0  0999 V2000
   39.2280   30.7130   42.0540 C   0  0  0  0  0  0  0  0  0  0  0  0
   38.8800   29.6290   42.8810 C   0  0  0  0  0  0  0  0  0  0  0  0
   37.6010   29.1100   42.7450 C   0  0  0  0  0  0  0  0  0  0  0  0
   36.7570   29.6550   41.8390 N   0  0  0  0  0  0  0  0  0  0  0  0
   37.1280   30.7020   41.0570 C   0  0  0  0  0  0  0  0  0  0  0  0
   38.3560   31.2390   41.1530 N   0  0  0  0  0  0  0  0  0  0  0  0
   37.2470   28.0070   43.5870 C   0  0  0  0  0  0  0  0  0  0  0  0
   36.8110   28.0910   44.7470 O   0  0  0  0  0  0  0  0  0  0  0  0
   37.4200   26.7260   43.0270 O   0  0  0  0  0  0  0  0  0  0  0  0
   40.2349   31.1476   42.1389 H   0  0  0  0  0  0  0  0  0  0  0  0
   39.5934   29.2102   43.6060 H   0  0  0  0  0  0  0  0  0  0  0  0
   36.4112   31.1171   40.3332 H   0  0  0  0  0  0  0  0  0  0  0  0
   37.1942   25.9200   43.5557 H   0  0  0  0  0  0  0  0  0  0  0  0
  1  2  2  0
  3  2  1  0
  3  7  1  0
  4  3  2  0
  5  6  2  0
  5  4  1  0
  6  1  1  0
  7  8  2  0
  9  7  1  0
  1 10  1  0
  2 11  1  0
  5 12  1  0
  9 13  1  0
M  ISO  4  10  14  11  14  12  14  13   3
M  END
>  <minimizedAffinity>  (1) 
-3.02730513

>  <minimizedRMSD>  (1) 
0.234039128

$$$$
