
     RDKit          3D

 26 27  0  0  0  0  0  0  0  0999 V2000
   39.3250   30.8640   42.1680 C   0  0  0  0  0  0  0  0  0  0  0  0
   39.0240   29.6890   42.8600 C   0  0  0  0  0  0  0  0  0  0  0  0
   37.8160   29.0640   42.5980 C   0  0  0  0  0  0  0  0  0  0  0  0
   36.9800   29.6280   41.6760 N   0  0  0  0  0  0  0  0  0  0  0  0
   37.3090   30.7570   41.0330 C   0  0  0  0  0  0  0  0  0  0  0  0
   38.4700   31.3890   41.2610 N   0  0  0  0  0  0  0  0  0  0  0  0
   37.5090   27.8450   43.3210 C   0  0  0  0  0  0  0  0  0  0  0  0
   36.8050   27.8270   44.3650 O   0  0  0  0  0  0  0  0  0  0  0  0
   38.0390   26.6040   42.8110 N   0  0  0  0  0  0  0  0  0  0  0  0
   39.4360   26.2610   42.9690 C   0  0  0  0  0  0  0  0  0  0  0  0
   39.6840   24.8020   43.1890 C   0  0  0  0  0  0  0  0  0  0  0  0
   38.9390   23.9570   42.2980 N   0  0  0  0  0  0  0  0  0  0  0  0
   37.5250   24.2370   42.3000 C   0  0  0  0  0  0  0  0  0  0  0  0
   37.1710   25.6740   42.1280 C   0  0  0  0  0  0  0  0  0  0  0  0
   40.2793   31.3743   42.3651 H   0  0  0  0  0  0  0  0  0  0  0  0
   39.7281   29.2706   43.5943 H   0  0  0  0  0  0  0  0  0  0  0  0
   36.6072   31.1772   40.2976 H   0  0  0  0  0  0  0  0  0  0  0  0
   39.9728   26.5697   42.0599 H   0  0  0  0  0  0  0  0  0  0  0  0
   39.7918   26.7833   43.8694 H   0  0  0  0  0  0  0  0  0  0  0  0
   40.7561   24.6044   43.0424 H   0  0  0  0  0  0  0  0  0  0  0  0
   39.3545   24.5668   44.2118 H   0  0  0  0  0  0  0  0  0  0  0  0
   39.0791   22.9770   42.5824 H   0  0  0  0  0  0  0  0  0  0  0  0
   37.0631   23.6703   41.4781 H   0  0  0  0  0  0  0  0  0  0  0  0
   37.1533   23.9439   43.2929 H   0  0  0  0  0  0  0  0  0  0  0  0
   37.2009   25.9062   41.0532 H   0  0  0  0  0  0  0  0  0  0  0  0
   36.1740   25.7999   42.5754 H   0  0  0  0  0  0  0  0  0  0  0  0
  1  2  2  0
  3  2  1  0
  3  7  1  0
  4  3  2  0
  5  6  2  0
  5  4  1  0
  6  1  1  0
  7  8  2  0
  9 10  1  0
  9  7  1  0
 10 11  1  0
 12 13  1  0
 12 11  1  0
 14 13  1  0
 14  9  1  0
  1 15  1  0
  2 16  1  0
  5 17  1  0
 10 18  1  0
 10 19  1  0
 11 20  1  0
 11 21  1  0
 12 22  1  0
 13 23  1  0
 13 24  1  0
 14 25  1  0
 14 26  1  0
M  ISO  8  15  14  16  14  17  14  18  13  19  13  20  13  21  13  22   5
M  ISO  4  23  13  24  13  25  13  26  13
M  END
>  <minimizedAffinity>  (1) 
-4.40915394

>  <minimizedRMSD>  (1) 
0.691987932

$$$$
