
     RDKit          3D

 37 39  0  0  1  0  0  0  0  0999 V2000
   37.6170   28.0310   43.3510 C   0  0  0  0  0  0  0  0  0  0  0  0
   37.1400   27.9750   44.5240 O   0  0  0  0  0  0  0  0  0  0  0  0
   38.8580   27.3570   43.0810 N   0  0  0  0  0  0  0  0  0  0  0  0
   40.0900   28.1010   42.9340 C   0  0  0  0  0  0  0  0  0  0  0  0
   41.2920   27.3840   43.4950 C   0  0  0  0  0  0  0  0  0  0  0  0
   41.3570   26.0160   43.0440 N   0  0  0  0  0  0  0  0  0  0  0  0
   40.1680   25.2900   43.4110 C   0  0  0  0  0  0  0  0  0  0  0  0
   38.8900   25.9280   42.9530 C   0  0  2  0  0  0  0  0  0  0  0  0
   38.4510   25.4370   41.6680 N   0  0  0  0  0  0  0  0  0  0  0  0
   39.2210   25.5550   40.5710 C   0  0  0  0  0  0  0  0  0  0  0  0
   38.8240   25.0910   39.3130 C   0  0  0  0  0  0  0  0  0  0  0  0
   37.5870   24.4960   39.2530 C   0  0  0  0  0  0  0  0  0  0  0  0
   37.0870   23.9880   38.0140 N   0  0  0  0  0  0  0  0  0  0  0  0
   36.7960   24.3600   40.3110 N   0  0  0  0  0  0  0  0  0  0  0  0
   37.2460   24.8310   41.4850 C   0  0  0  0  0  0  0  0  0  0  0  0
   36.5250   24.7210   42.5210 O   0  0  0  0  0  0  0  0  0  0  0  0
   36.7230   30.7630   41.0210 C   0  0  0  0  0  0  0  0  0  0  0  0
   37.3400   30.0660   42.0530 C   0  0  0  0  0  0  0  0  0  0  0  0
   36.9670   28.7410   42.2760 C   0  0  0  0  0  0  0  0  0  0  0  0
   36.0180   28.1960   41.4730 N   0  0  0  0  0  0  0  0  0  0  0  0
   35.4430   28.8950   40.4870 C   0  0  0  0  0  0  0  0  0  0  0  0
   35.7770   30.1720   40.2430 N   0  0  0  0  0  0  0  0  0  0  0  0
   40.2614   28.2839   41.8629 H   0  0  0  0  0  0  0  0  0  0  0  0
   39.9749   29.0361   43.5018 H   0  0  0  0  0  0  0  0  0  0  0  0
   42.2029   27.9092   43.1720 H   0  0  0  0  0  0  0  0  0  0  0  0
   41.2068   27.3792   44.5917 H   0  0  0  0  0  0  0  0  0  0  0  0
   42.1751   25.5595   43.4721 H   0  0  0  0  0  0  0  0  0  0  0  0
   40.2284   24.2841   42.9699 H   0  0  0  0  0  0  0  0  0  0  0  0
   40.1356   25.2730   44.5104 H   0  0  0  0  0  0  0  0  0  0  0  0
   38.1273   25.5937   43.6717 H   0  0  0  0  0  0  0  0  0  0  0  0
   40.2050   26.0371   40.6678 H   0  0  0  0  0  0  0  0  0  0  0  0
   39.4639   25.1961   38.4245 H   0  0  0  0  0  0  0  0  0  0  0  0
   36.1587   23.5432   37.9768 H   0  0  0  0  0  0  0  0  0  0  0  0
   37.6550   24.0667   37.1584 H   0  0  0  0  0  0  0  0  0  0  0  0
   37.0043   31.8092   40.8305 H   0  0  0  0  0  0  0  0  0  0  0  0
   38.1048   30.5484   42.6794 H   0  0  0  0  0  0  0  0  0  0  0  0
   34.6783   28.4113   39.8615 H   0  0  0  0  0  0  0  0  0  0  0  0
  1  2  2  0
  3  1  1  0
  4  3  1  0
  4  5  1  0
  6  7  1  0
  6  5  1  0
  8  3  1  0
  8  7  1  0
  9  8  1  0
 10  9  1  0
 11 10  2  0
 12 11  1  0
 12 14  2  0
 13 12  1  0
 14 15  1  0
 15  9  1  0
 15 16  2  0
 17 18  2  0
 18 19  1  0
 19  1  1  0
 20 19  2  0
 21 20  1  0
 22 21  2  0
 22 17  1  0
  4 23  1  0
  4 24  1  0
  5 25  1  0
  5 26  1  0
  6 27  1  0
  7 28  1  0
  7 29  1  0
  8 30  1  1
 10 31  1  0
 11 32  1  0
 13 33  1  0
 13 34  1  0
 17 35  1  0
 18 36  1  0
 21 37  1  0
M  ISO  8  23  13  24  13  25  13  26  13  27   5  28  13  29  13  30  13
M  ISO  5  31  14  32  14  35  14  36  14  37  14
M  END
>  <minimizedAffinity>  (1) 
-5.24110079

>  <minimizedRMSD>  (1) 
2.43284392

$$$$
