
     RDKit          3D

 33 34  0  0  1  0  0  0  0  0999 V2000
   37.6280   27.9680   43.3530 C   0  0  0  0  0  0  0  0  0  0  0  0
   36.9790   27.9840   44.4390 O   0  0  0  0  0  0  0  0  0  0  0  0
   38.0410   26.6920   42.8030 N   0  0  0  0  0  0  0  0  0  0  0  0
   39.4100   26.2540   42.8870 C   0  0  0  0  0  0  0  0  0  0  0  0
   39.5660   24.7770   43.0740 C   0  0  0  0  0  0  0  0  0  0  0  0
   38.6980   23.9950   42.2480 N   0  0  0  0  0  0  0  0  0  0  0  0
   37.3140   24.3880   42.3250 C   0  0  0  0  0  0  0  0  0  0  0  0
   37.0750   25.8460   42.1630 C   0  0  2  0  0  0  0  0  0  0  0  0
   39.5010   30.9660   42.2650 C   0  0  0  0  0  0  0  0  0  0  0  0
   39.1610   29.8150   42.9590 C   0  0  0  0  0  0  0  0  0  0  0  0
   37.9800   29.1690   42.6250 C   0  0  0  0  0  0  0  0  0  0  0  0
   37.2060   29.7020   41.6230 N   0  0  0  0  0  0  0  0  0  0  0  0
   37.5870   30.8240   40.9830 C   0  0  0  0  0  0  0  0  0  0  0  0
   38.7240   31.4640   41.2890 N   0  0  0  0  0  0  0  0  0  0  0  0
   37.1410   26.1520   40.7340 N   0  0  0  0  0  0  0  0  0  0  0  0
   38.3230   26.7390   40.1780 C   0  0  0  0  0  0  0  0  0  0  0  0
   39.4600   26.4240   40.7410 N   0  0  0  0  0  0  0  0  0  0  0  0
   38.2680   27.6270   39.0570 N   0  0  0  0  0  0  0  0  0  0  0  0
   40.3220   26.8480   40.3410 H   0  0  0  0  0  0  0  0  0  0  0  0
   39.9227   26.5410   41.9571 H   0  0  0  0  0  0  0  0  0  0  0  0
   39.8442   26.7351   43.7758 H   0  0  0  0  0  0  0  0  0  0  0  0
   40.6057   24.5057   42.8389 H   0  0  0  0  0  0  0  0  0  0  0  0
   39.2989   24.5565   44.1180 H   0  0  0  0  0  0  0  0  0  0  0  0
   38.7727   23.0099   42.5392 H   0  0  0  0  0  0  0  0  0  0  0  0
   36.7628   23.8599   41.5330 H   0  0  0  0  0  0  0  0  0  0  0  0
   36.9714   24.1264   43.3370 H   0  0  0  0  0  0  0  0  0  0  0  0
   36.1001   26.0479   42.6307 H   0  0  0  0  0  0  0  0  0  0  0  0
   40.4352   31.4871   42.5213 H   0  0  0  0  0  0  0  0  0  0  0  0
   39.8118   29.4238   43.7549 H   0  0  0  0  0  0  0  0  0  0  0  0
   36.9458   31.2272   40.1853 H   0  0  0  0  0  0  0  0  0  0  0  0
   36.3355   25.9448   40.1264 H   0  0  0  0  0  0  0  0  0  0  0  0
   39.1356   28.0337   38.6791 H   0  0  0  0  0  0  0  0  0  0  0  0
   37.3608   27.8594   38.6281 H   0  0  0  0  0  0  0  0  0  0  0  0
  1  2  2  0
  3  4  1  0
  3  1  1  0
  4  5  1  0
  6  7  1  0
  6  5  1  0
  8  7  1  0
  8  3  1  0
  9 10  2  0
 11 10  1  0
 11  1  1  0
 12 11  2  0
 13 14  2  0
 13 12  1  0
 14  9  1  0
 15  8  1  0
 16 15  1  0
 16 17  2  0
 18 16  1  0
 19 17  1  0
  4 20  1  0
  4 21  1  0
  5 22  1  0
  5 23  1  0
  6 24  1  0
  7 25  1  0
  7 26  1  0
  8 27  1  1
  9 28  1  0
 10 29  1  0
 13 30  1  0
 15 31  1  0
 18 32  1  0
 18 33  1  0
M  ISO  8  20  13  21  13  22  13  23  13  24   5  25  13  26  13  27  13
M  ISO  3  28  14  29  14  30  14
M  END
>  <minimizedAffinity>  (1) 
-4.75507307

>  <minimizedRMSD>  (1) 
0.207763091

$$$$
