
     RDKit          3D

 28 29  0  0  1  0  0  0  0  0999 V2000
   37.5130   27.8690   43.3430 C   0  0  0  0  0  0  0  0  0  0  0  0
   36.8340   27.8560   44.3940 O   0  0  0  0  0  0  0  0  0  0  0  0
   38.0350   26.6240   42.8180 N   0  0  0  0  0  0  0  0  0  0  0  0
   39.4290   26.2700   42.9400 C   0  0  0  0  0  0  0  0  0  0  0  0
   39.6570   24.8170   43.1700 C   0  0  0  0  0  0  0  0  0  0  0  0
   38.8890   23.9600   42.2990 N   0  0  0  0  0  0  0  0  0  0  0  0
   37.4800   24.2590   42.2950 C   0  0  0  0  0  0  0  0  0  0  0  0
   37.1440   25.7090   42.1550 C   0  0  2  0  0  0  0  0  0  0  0  0
   39.3170   30.8770   42.1520 C   0  0  0  0  0  0  0  0  0  0  0  0
   39.0250   29.7070   42.8590 C   0  0  0  0  0  0  0  0  0  0  0  0
   37.8120   29.0870   42.6060 C   0  0  0  0  0  0  0  0  0  0  0  0
   36.9700   29.6400   41.6930 N   0  0  0  0  0  0  0  0  0  0  0  0
   37.2980   30.7690   41.0400 C   0  0  0  0  0  0  0  0  0  0  0  0
   38.4570   31.4050   41.2480 N   0  0  0  0  0  0  0  0  0  0  0  0
   37.1080   26.1170   40.7530 N   0  0  0  0  0  0  0  0  0  0  0  0
   39.9440   26.5602   42.0123 H   0  0  0  0  0  0  0  0  0  0  0  0
   39.8209   26.8013   43.8199 H   0  0  0  0  0  0  0  0  0  0  0  0
   40.7246   24.6045   43.0117 H   0  0  0  0  0  0  0  0  0  0  0  0
   39.3317   24.6014   44.1984 H   0  0  0  0  0  0  0  0  0  0  0  0
   39.2474   24.0654   41.3391 H   0  0  0  0  0  0  0  0  0  0  0  0
   37.0186   23.7188   41.4552 H   0  0  0  0  0  0  0  0  0  0  0  0
   37.0959   23.9471   43.2774 H   0  0  0  0  0  0  0  0  0  0  0  0
   36.1599   25.7747   42.6421 H   0  0  0  0  0  0  0  0  0  0  0  0
   40.2753   31.3850   42.3354 H   0  0  0  0  0  0  0  0  0  0  0  0
   39.7339   29.2928   43.5911 H   0  0  0  0  0  0  0  0  0  0  0  0
   36.5886   31.1844   40.3091 H   0  0  0  0  0  0  0  0  0  0  0  0
   37.0176   27.1414   40.6958 H   0  0  0  0  0  0  0  0  0  0  0  0
   37.9782   25.8226   40.2873 H   0  0  0  0  0  0  0  0  0  0  0  0
  1  2  2  0
  3  4  1  0
  3  1  1  0
  4  5  1  0
  6  5  1  0
  7  6  1  0
  8  7  1  0
  8  3  1  0
  9 10  2  0
 11 10  1  0
 11  1  1  0
 12 11  2  0
 13 14  2  0
 13 12  1  0
 14  9  1  0
 15  8  1  0
  4 16  1  0
  4 17  1  0
  5 18  1  0
  5 19  1  0
  6 20  1  0
  7 21  1  0
  7 22  1  0
  8 23  1  1
  9 24  1  0
 10 25  1  0
 13 26  1  0
 15 27  1  0
 15 28  1  0
M  ISO  8  16  13  17  13  18  13  19  13  20   5  21  13  22  13  23  13
M  ISO  5  24  14  25  14  26  14  27   5  28   5
M  END
>  <minimizedAffinity>  (1) 
-4.64279747

>  <minimizedRMSD>  (1) 
0.0360275842

$$$$
