
     RDKit          3D

 41 43  0  0  1  0  0  0  0  0999 V2000
   39.5720   28.9440   42.6580 C   0  0  0  0  0  0  0  0  0  0  0  0
   38.5590   29.1350   43.3620 O   0  0  0  0  0  0  0  0  0  0  0  0
   40.2640   27.6920   42.7400 N   0  0  0  0  0  0  0  0  0  0  0  0
   41.5260   27.5780   43.4590 C   0  0  0  0  0  0  0  0  0  0  0  0
   41.7140   26.2830   44.1750 C   0  0  0  0  0  0  0  0  0  0  0  0
   41.3530   25.1350   43.3710 N   0  0  0  0  0  0  0  0  0  0  0  0
   40.0120   25.2290   42.8750 C   0  0  0  0  0  0  0  0  0  0  0  0
   39.7530   26.5020   42.1240 C   0  0  1  0  0  0  0  0  0  0  0  0
   40.3540   32.2410   41.1360 C   0  0  0  0  0  0  0  0  0  0  0  0
   39.8490   31.2810   42.0150 C   0  0  0  0  0  0  0  0  0  0  0  0
   40.0960   29.9470   41.7420 C   0  0  0  0  0  0  0  0  0  0  0  0
   40.8240   29.6290   40.6180 N   0  0  0  0  0  0  0  0  0  0  0  0
   41.2860   30.5920   39.8030 C   0  0  0  0  0  0  0  0  0  0  0  0
   41.0610   31.8970   40.0460 N   0  0  0  0  0  0  0  0  0  0  0  0
   38.4080   26.5460   41.6790 N   0  0  0  0  0  0  0  0  0  0  0  0
   38.1000   27.2370   40.5000 C   0  0  0  0  0  0  0  0  0  0  0  0
   37.2430   28.4660   40.6720 C   0  0  0  0  0  0  0  0  0  0  0  0
   36.0450   28.0900   41.4970 C   0  0  0  0  0  0  0  0  0  0  0  0
   36.5920   27.6980   42.8720 C   0  0  0  0  0  0  0  0  0  0  0  0
   37.4120   26.4530   42.6750 C   0  0  0  0  0  0  0  0  0  0  0  0
   42.3459   27.6925   42.7347 H   0  0  0  0  0  0  0  0  0  0  0  0
   41.5201   28.3637   44.2289 H   0  0  0  0  0  0  0  0  0  0  0  0
   42.7720   26.1914   44.4619 H   0  0  0  0  0  0  0  0  0  0  0  0
   41.0502   26.2924   45.0521 H   0  0  0  0  0  0  0  0  0  0  0  0
   41.9997   25.0718   42.5718 H   0  0  0  0  0  0  0  0  0  0  0  0
   39.8274   24.3801   42.2002 H   0  0  0  0  0  0  0  0  0  0  0  0
   39.3379   25.2165   43.7441 H   0  0  0  0  0  0  0  0  0  0  0  0
   40.3725   26.4836   41.2153 H   0  0  0  0  0  0  0  0  0  0  0  0
   40.1685   33.3057   41.3407 H   0  0  0  0  0  0  0  0  0  0  0  0
   39.2696   31.5774   42.9018 H   0  0  0  0  0  0  0  0  0  0  0  0
   41.8644   30.3062   38.9121 H   0  0  0  0  0  0  0  0  0  0  0  0
   37.5688   26.5446   39.8304 H   0  0  0  0  0  0  0  0  0  0  0  0
   39.0606   27.5927   40.0991 H   0  0  0  0  0  0  0  0  0  0  0  0
   37.8170   29.2516   41.1852 H   0  0  0  0  0  0  0  0  0  0  0  0
   36.9245   28.8480   39.6909 H   0  0  0  0  0  0  0  0  0  0  0  0
   35.3585   28.9447   41.5873 H   0  0  0  0  0  0  0  0  0  0  0  0
   35.4787   27.2669   41.0368 H   0  0  0  0  0  0  0  0  0  0  0  0
   37.2211   28.5061   43.2736 H   0  0  0  0  0  0  0  0  0  0  0  0
   35.7743   27.5229   43.5866 H   0  0  0  0  0  0  0  0  0  0  0  0
   36.7298   25.6351   42.4001 H   0  0  0  0  0  0  0  0  0  0  0  0
   37.9412   26.2801   43.6237 H   0  0  0  0  0  0  0  0  0  0  0  0
  1  3  1  0
  1  2  2  0
  3  4  1  0
  4  5  1  0
  6  5  1  0
  7  6  1  0
  8  3  1  0
  8  7  1  0
  9 10  2  0
 11 10  1  0
 11  1  1  0
 12 11  2  0
 13 14  2  0
 13 12  1  0
 14  9  1  0
 15  8  1  0
 15 20  1  0
 16 17  1  0
 16 15  1  0
 17 18  1  0
 18 19  1  0
 20 19  1  0
  4 21  1  0
  4 22  1  0
  5 23  1  0
  5 24  1  0
  6 25  1  0
  7 26  1  0
  7 27  1  0
  8 28  1  6
  9 29  1  0
 10 30  1  0
 13 31  1  0
 16 32  1  0
 16 33  1  0
 17 34  1  0
 17 35  1  0
 18 36  1  0
 18 37  1  0
 19 38  1  0
 19 39  1  0
 20 40  1  0
 20 41  1  0
M  ISO  8  21  13  22  13  23  13  24  13  25   5  26  13  27  13  28  13
M  ISO  8  29  14  30  14  31  14  32  13  33  13  34  13  35  13  36  13
M  ISO  5  37  13  38  13  39  13  40  13  41  13
M  END
>  <minimizedAffinity>  (1) 
-4.5874114

>  <minimizedRMSD>  (1) 
2.76510477

$$$$
