
     RDKit          3D

 50 53  0  0  1  0  0  0  0  0999 V2000
   39.3550   28.1380   42.3510 C   0  0  2  0  0  0  0  0  0  0  0  0
   40.5410   27.1820   42.2770 C   0  0  2  0  0  0  0  0  0  0  0  0
   40.2760   25.9390   41.5740 C   0  0  0  0  0  0  0  0  0  0  0  0
   40.6670   24.7630   42.4460 C   0  0  0  0  0  0  0  0  0  0  0  0
   41.4340   25.3520   43.5950 C   0  0  0  0  0  0  0  0  0  0  0  0
   40.8760   26.7500   43.6880 C   0  0  1  0  0  0  0  0  0  0  0  0
   41.9620   27.6370   44.1790 C   0  0  0  0  0  0  0  0  0  0  0  0
   42.4590   28.7590   43.5270 C   0  0  0  0  0  0  0  0  0  0  0  0
   43.4740   29.5010   44.0920 C   0  0  0  0  0  0  0  0  0  0  0  0
   44.0280   29.1470   45.3280 C   0  0  0  0  0  0  0  0  0  0  0  0
   43.5370   28.0290   45.9820 C   0  0  0  0  0  0  0  0  0  0  0  0
   42.5090   27.2860   45.4010 C   0  0  0  0  0  0  0  0  0  0  0  0
   38.1710   27.4380   42.7390 N   0  0  0  0  0  0  0  0  0  0  0  0
   37.1600   28.0540   43.5180 C   0  0  0  0  0  0  0  0  0  0  0  0
   37.3690   29.2520   43.9550 N   0  0  0  0  0  0  0  0  0  0  0  0
   35.9710   27.3820   43.8040 N   0  0  0  0  0  0  0  0  0  0  0  0
   36.6470   29.7460   44.5160 H   0  0  0  0  0  0  0  0  0  0  0  0
   38.6220   29.1770   38.9620 C   0  0  0  0  0  0  0  0  0  0  0  0
   39.4430   30.2190   39.3820 C   0  0  0  0  0  0  0  0  0  0  0  0
   39.7630   29.8920   40.6700 C   0  0  0  0  0  0  0  0  0  0  0  0
   39.1750   28.7190   41.0190 N   0  0  0  0  0  0  0  0  0  0  0  0
   38.4880   28.2980   39.9760 N   0  0  0  0  0  0  0  0  0  0  0  0
   38.1710   28.0040   36.7800 C   0  0  0  0  0  0  0  0  0  0  0  0
   38.0210   29.0750   37.6420 C   0  0  0  0  0  0  0  0  0  0  0  0
   37.2420   30.1280   37.2160 C   0  0  0  0  0  0  0  0  0  0  0  0
   36.6400   30.1060   35.9820 N   0  0  0  0  0  0  0  0  0  0  0  0
   36.8360   28.9920   35.1670 C   0  0  0  0  0  0  0  0  0  0  0  0
   37.6150   27.9370   35.5890 N   0  0  0  0  0  0  0  0  0  0  0  0
   39.5443   28.9221   43.0989 H   0  0  0  0  0  0  0  0  0  0  0  0
   41.3312   27.7324   41.7454 H   0  0  0  0  0  0  0  0  0  0  0  0
   39.2041   25.8760   41.3349 H   0  0  0  0  0  0  0  0  0  0  0  0
   40.8649   25.9142   40.6452 H   0  0  0  0  0  0  0  0  0  0  0  0
   39.7705   24.2399   42.8103 H   0  0  0  0  0  0  0  0  0  0  0  0
   41.2657   24.0254   41.8915 H   0  0  0  0  0  0  0  0  0  0  0  0
   41.2514   24.7900   44.5228 H   0  0  0  0  0  0  0  0  0  0  0  0
   42.5240   25.3271   43.4492 H   0  0  0  0  0  0  0  0  0  0  0  0
   39.9986   26.7944   44.3500 H   0  0  0  0  0  0  0  0  0  0  0  0
   42.0400   29.0567   42.5545 H   0  0  0  0  0  0  0  0  0  0  0  0
   43.8553   30.3866   43.5626 H   0  0  0  0  0  0  0  0  0  0  0  0
   44.8377   29.7452   45.7713 H   0  0  0  0  0  0  0  0  0  0  0  0
   43.9553   27.7287   46.9540 H   0  0  0  0  0  0  0  0  0  0  0  0
   42.1239   26.3998   45.9268 H   0  0  0  0  0  0  0  0  0  0  0  0
   38.0491   26.4586   42.4443 H   0  0  0  0  0  0  0  0  0  0  0  0
   35.2439   27.8406   44.3713 H   0  0  0  0  0  0  0  0  0  0  0  0
   35.8205   26.4273   43.4478 H   0  0  0  0  0  0  0  0  0  0  0  0
   39.7613   31.1026   38.8093 H   0  0  0  0  0  0  0  0  0  0  0  0
   40.4054   30.4935   41.3299 H   0  0  0  0  0  0  0  0  0  0  0  0
   38.7919   27.1579   37.1094 H   0  0  0  0  0  0  0  0  0  0  0  0
   37.1002   30.9985   37.8733 H   0  0  0  0  0  0  0  0  0  0  0  0
   36.3628   28.9549   34.1747 H   0  0  0  0  0  0  0  0  0  0  0  0
  1 13  1  0
  2  1  1  0
  2  6  1  0
  3  2  1  0
  3  4  1  0
  4  5  1  0
  5  6  1  0
  6  7  1  0
  7 12  2  0
  8  9  2  0
  8  7  1  0
  9 10  1  0
 10 11  2  0
 12 11  1  0
 13 14  1  0
 14 16  1  0
 14 15  2  0
 15 17  1  0
 18 19  1  0
 18 22  2  0
 19 20  2  0
 20 21  1  0
 21  1  1  0
 22 21  1  0
 23 24  2  0
 24 18  1  0
 25 24  1  0
 26 25  2  0
 27 28  2  0
 27 26  1  0
 28 23  1  0
  1 29  1  1
  2 30  1  6
  3 31  1  0
  3 32  1  0
  4 33  1  0
  4 34  1  0
  5 35  1  0
  5 36  1  0
  6 37  1  1
  8 38  1  0
  9 39  1  0
 10 40  1  0
 11 41  1  0
 12 42  1  0
 13 43  1  0
 16 44  1  0
 16 45  1  0
 19 46  1  0
 20 47  1  0
 23 48  1  0
 25 49  1  0
 27 50  1  0
M  ISO  8  29   8  30  13  31  13  32  13  33  13  34  13  35  13  36  13
M  ISO  8  37  13  38  14  39  14  40  14  41  14  42  14  46  14  47  14
M  ISO  3  48  14  49  14  50  14
M  END
>  <minimizedAffinity>  (1) 
-5.73269939

>  <minimizedRMSD>  (1) 
0.664017737

$$$$
