
     RDKit          3D

 49 53  0  0  1  0  0  0  0  0999 V2000
   37.5180   28.3960   43.2150 C   0  0  0  0  0  0  0  0  0  0  0  0
   37.1650   28.5160   44.4350 O   0  0  0  0  0  0  0  0  0  0  0  0
   38.6380   27.5550   42.9490 N   0  0  0  0  0  0  0  0  0  0  0  0
   39.9220   28.1660   42.7320 C   0  0  0  0  0  0  0  0  0  0  0  0
   41.1040   27.3500   43.1180 C   0  0  0  0  0  0  0  0  0  0  0  0
   40.9970   25.9440   42.8850 N   0  0  0  0  0  0  0  0  0  0  0  0
   39.8000   25.4260   43.3980 C   0  0  0  0  0  0  0  0  0  0  0  0
   38.5620   26.1510   42.9130 C   0  0  2  0  0  0  0  0  0  0  0  0
   38.0210   25.5050   41.7450 C   0  0  0  0  0  0  0  0  0  0  0  0
   36.9660   24.5620   41.8700 C   0  0  0  0  0  0  0  0  0  0  0  0
   36.3640   23.8790   40.8560 C   0  0  0  0  0  0  0  0  0  0  0  0
   36.8550   24.1670   39.5750 C   0  0  0  0  0  0  0  0  0  0  0  0
   37.8970   25.0860   39.3780 C   0  0  0  0  0  0  0  0  0  0  0  0
   38.4460   25.7150   40.4810 C   0  0  0  0  0  0  0  0  0  0  0  0
   39.5530   26.2640   39.8100 N   0  0  0  0  0  0  0  0  0  0  0  0
   40.8110   25.9380   39.5920 C   0  0  0  0  0  0  0  0  0  0  0  0
   41.5510   26.8300   38.9360 N   0  0  0  0  0  0  0  0  0  0  0  0
   40.7570   27.8810   38.6680 C   0  0  0  0  0  0  0  0  0  0  0  0
   41.0910   29.0460   38.0260 C   0  0  0  0  0  0  0  0  0  0  0  0
   40.0940   29.9420   37.9210 N   0  0  0  0  0  0  0  0  0  0  0  0
   38.8780   29.6700   38.4240 C   0  0  0  0  0  0  0  0  0  0  0  0
   38.6760   28.5180   39.0180 N   0  0  0  0  0  0  0  0  0  0  0  0
   39.5460   27.5130   39.2110 C   0  0  0  0  0  0  0  0  0  0  0  0
   42.4060   29.2490   37.5240 N   0  0  0  0  0  0  0  0  0  0  0  0
   36.5420   30.9870   40.7960 C   0  0  0  0  0  0  0  0  0  0  0  0
   37.1780   30.3560   41.8530 C   0  0  0  0  0  0  0  0  0  0  0  0
   36.8560   29.0550   42.1090 C   0  0  0  0  0  0  0  0  0  0  0  0
   35.9420   28.4630   41.3250 N   0  0  0  0  0  0  0  0  0  0  0  0
   35.3330   29.0810   40.3090 C   0  0  0  0  0  0  0  0  0  0  0  0
   35.6270   30.3460   40.0360 N   0  0  0  0  0  0  0  0  0  0  0  0
   40.0080   28.3976   41.6601 H   0  0  0  0  0  0  0  0  0  0  0  0
   39.9448   29.0503   43.3858 H   0  0  0  0  0  0  0  0  0  0  0  0
   41.9693   27.7207   42.5490 H   0  0  0  0  0  0  0  0  0  0  0  0
   41.2002   27.4638   44.2079 H   0  0  0  0  0  0  0  0  0  0  0  0
   41.0289   25.7699   41.8703 H   0  0  0  0  0  0  0  0  0  0  0  0
   39.7229   24.3702   43.0991 H   0  0  0  0  0  0  0  0  0  0  0  0
   39.8382   25.5531   44.4900 H   0  0  0  0  0  0  0  0  0  0  0  0
   37.7641   26.0368   43.6615 H   0  0  0  0  0  0  0  0  0  0  0  0
   36.5981   24.3631   42.8874 H   0  0  0  0  0  0  0  0  0  0  0  0
   35.5535   23.1559   41.0297 H   0  0  0  0  0  0  0  0  0  0  0  0
   36.4132   23.6609   38.7040 H   0  0  0  0  0  0  0  0  0  0  0  0
   38.2701   25.3021   38.3660 H   0  0  0  0  0  0  0  0  0  0  0  0
   41.2281   24.9793   39.9339 H   0  0  0  0  0  0  0  0  0  0  0  0
   38.0628   30.4036   38.3388 H   0  0  0  0  0  0  0  0  0  0  0  0
   42.6438   30.1286   37.0437 H   0  0  0  0  0  0  0  0  0  0  0  0
   43.1206   28.5164   37.6407 H   0  0  0  0  0  0  0  0  0  0  0  0
   36.7879   32.0351   40.5701 H   0  0  0  0  0  0  0  0  0  0  0  0
   37.9198   30.8877   42.4670 H   0  0  0  0  0  0  0  0  0  0  0  0
   34.5906   28.5432   39.7010 H   0  0  0  0  0  0  0  0  0  0  0  0
  1  2  2  0
  3  1  1  0
  4  3  1  0
  4  5  1  0
  6  5  1  0
  6  7  1  0
  8  3  1  0
  8  7  1  0
  9 10  2  0
  9  8  1  0
 11 10  1  0
 12 11  2  0
 13 12  1  0
 13 14  2  0
 14  9  1  0
 15 14  1  0
 16 15  1  0
 17 16  2  0
 18 17  1  0
 18 23  2  0
 19 18  1  0
 20 19  2  0
 20 21  1  0
 21 22  2  0
 22 23  1  0
 23 15  1  0
 24 19  1  0
 25 26  2  0
 26 27  1  0
 27  1  1  0
 28 27  2  0
 29 28  1  0
 30 29  2  0
 30 25  1  0
  4 31  1  0
  4 32  1  0
  5 33  1  0
  5 34  1  0
  6 35  1  0
  7 36  1  0
  7 37  1  0
  8 38  1  1
 10 39  1  0
 11 40  1  0
 12 41  1  0
 13 42  1  0
 16 43  1  0
 21 44  1  0
 24 45  1  0
 24 46  1  0
 25 47  1  0
 26 48  1  0
 29 49  1  0
M  ISO  8  31  13  32  13  33  13  34  13  35   5  36  13  37  13  38  13
M  ISO  8  39  14  40  14  41  14  42  14  43  14  44  14  47  14  48  14
M  ISO  1  49  14
M  END
>  <minimizedAffinity>  (1) 
-6.10790777

>  <minimizedRMSD>  (1) 
2.81468654

$$$$
