
     RDKit          3D

 50 54  0  0  1  0  0  0  0  0999 V2000
   37.6520   27.8590   43.3590 C   0  0  0  0  0  0  0  0  0  0  0  0
   37.2930   27.8840   44.5760 O   0  0  0  0  0  0  0  0  0  0  0  0
   38.7600   27.0260   43.0350 N   0  0  0  0  0  0  0  0  0  0  0  0
   40.0560   27.6390   42.8720 C   0  0  0  0  0  0  0  0  0  0  0  0
   41.2280   26.7810   43.1720 C   0  0  0  0  0  0  0  0  0  0  0  0
   41.0920   25.4040   42.8850 N   0  0  0  0  0  0  0  0  0  0  0  0
   39.8880   24.8560   43.3160 C   0  0  0  0  0  0  0  0  0  0  0  0
   38.6590   25.6270   42.8890 C   0  0  2  0  0  0  0  0  0  0  0  0
   38.1190   25.0910   41.6760 C   0  0  0  0  0  0  0  0  0  0  0  0
   36.8160   24.5300   41.6390 C   0  0  0  0  0  0  0  0  0  0  0  0
   36.2150   23.9660   40.5440 C   0  0  0  0  0  0  0  0  0  0  0  0
   36.9640   23.9630   39.3630 C   0  0  0  0  0  0  0  0  0  0  0  0
   38.2710   24.5020   39.3220 C   0  0  0  0  0  0  0  0  0  0  0  0
   38.7850   25.0300   40.4890 C   0  0  0  0  0  0  0  0  0  0  0  0
   40.1170   25.2230   40.0310 C   0  0  0  0  0  0  0  0  0  0  0  0
   41.3000   24.8880   39.7200 N   0  0  0  0  0  0  0  0  0  0  0  0
   42.3050   25.3490   39.0630 C   0  0  0  0  0  0  0  0  0  0  0  0
   42.2200   26.5560   38.4560 N   0  0  0  0  0  0  0  0  0  0  0  0
   41.0190   27.1660   38.6250 C   0  0  0  0  0  0  0  0  0  0  0  0
   40.9370   28.3670   37.9500 C   0  0  0  0  0  0  0  0  0  0  0  0
   39.7430   29.0370   38.0040 C   0  0  0  0  0  0  0  0  0  0  0  0
   38.6480   28.5690   38.6950 C   0  0  0  0  0  0  0  0  0  0  0  0
   38.8800   27.3660   39.3190 C   0  0  0  0  0  0  0  0  0  0  0  0
   40.0180   26.5290   39.3800 C   0  0  0  0  0  0  0  0  0  0  0  0
   36.8020   30.6380   41.1070 C   0  0  0  0  0  0  0  0  0  0  0  0
   37.4070   29.9050   42.1170 C   0  0  0  0  0  0  0  0  0  0  0  0
   36.9980   28.6150   42.3100 C   0  0  0  0  0  0  0  0  0  0  0  0
   36.0330   28.1400   41.5140 N   0  0  0  0  0  0  0  0  0  0  0  0
   35.4570   28.8610   40.5460 C   0  0  0  0  0  0  0  0  0  0  0  0
   35.8370   30.1120   40.3330 N   0  0  0  0  0  0  0  0  0  0  0  0
   40.1415   27.9706   41.8266 H   0  0  0  0  0  0  0  0  0  0  0  0
   40.0912   28.4543   43.6096 H   0  0  0  0  0  0  0  0  0  0  0  0
   42.0789   27.1616   42.5879 H   0  0  0  0  0  0  0  0  0  0  0  0
   41.3595   26.8392   44.2626 H   0  0  0  0  0  0  0  0  0  0  0  0
   41.1599   25.2768   41.8651 H   0  0  0  0  0  0  0  0  0  0  0  0
   39.8109   23.8357   42.9122 H   0  0  0  0  0  0  0  0  0  0  0  0
   39.9079   24.8833   44.4155 H   0  0  0  0  0  0  0  0  0  0  0  0
   37.8552   25.4560   43.6201 H   0  0  0  0  0  0  0  0  0  0  0  0
   36.2361   24.5496   42.5735 H   0  0  0  0  0  0  0  0  0  0  0  0
   35.2019   23.5402   40.5913 H   0  0  0  0  0  0  0  0  0  0  0  0
   36.5285   23.5334   38.4488 H   0  0  0  0  0  0  0  0  0  0  0  0
   38.8579   24.5004   38.3916 H   0  0  0  0  0  0  0  0  0  0  0  0
   43.2332   24.7627   38.9944 H   0  0  0  0  0  0  0  0  0  0  0  0
   41.7949   28.7698   37.3916 H   0  0  0  0  0  0  0  0  0  0  0  0
   39.6551   29.9945   37.4698 H   0  0  0  0  0  0  0  0  0  0  0  0
   37.6871   29.1023   38.7429 H   0  0  0  0  0  0  0  0  0  0  0  0
   38.0144   26.9809   39.8779 H   0  0  0  0  0  0  0  0  0  0  0  0
   37.1201   31.6768   40.9348 H   0  0  0  0  0  0  0  0  0  0  0  0
   38.1935   30.3490   42.7449 H   0  0  0  0  0  0  0  0  0  0  0  0
   34.6661   28.4143   39.9255 H   0  0  0  0  0  0  0  0  0  0  0  0
  1  2  2  0
  3  1  1  0
  4  3  1  0
  4  5  1  0
  6  5  1  0
  6  7  1  0
  8  3  1  0
  8  7  1  0
  9  8  1  0
 10  9  2  0
 11 10  1  0
 12 11  2  0
 13 12  1  0
 13 14  2  0
 14  9  1  0
 15 14  1  0
 16 15  2  0
 17 16  1  0
 18 19  1  0
 18 17  2  0
 19 24  2  0
 20 21  2  0
 20 19  1  0
 21 22  1  0
 22 23  2  0
 23 24  1  0
 24 15  1  0
 25 26  2  0
 26 27  1  0
 27  1  1  0
 28 27  2  0
 29 28  1  0
 30 29  2  0
 30 25  1  0
  4 31  1  0
  4 32  1  0
  5 33  1  0
  5 34  1  0
  6 35  1  0
  7 36  1  0
  7 37  1  0
  8 38  1  1
 10 39  1  0
 11 40  1  0
 12 41  1  0
 13 42  1  0
 17 43  1  0
 20 44  1  0
 21 45  1  0
 22 46  1  0
 23 47  1  0
 25 48  1  0
 26 49  1  0
 29 50  1  0
M  ISO  8  31  13  32  13  33  13  34  13  35   5  36  13  37  13  38  13
M  ISO  8  39  14  40  14  41  14  42  14  43  14  44  14  45  14  46  14
M  ISO  4  47  14  48  14  49  14  50  14
M  END
>  <minimizedAffinity>  (1) 
-6.05865431

>  <minimizedRMSD>  (1) 
2.42838502

$$$$
