
     RDKit          3D

 37 39  0  0  1  0  0  0  0  0999 V2000
   37.4990   27.8210   43.1830 C   0  0  0  0  0  0  0  0  0  0  0  0
   36.6310   27.7400   44.1110 O   0  0  0  0  0  0  0  0  0  0  0  0
   38.0990   26.5910   42.7840 N   0  0  0  0  0  0  0  0  0  0  0  0
   39.3750   26.2620   43.3370 C   0  0  0  0  0  0  0  0  0  0  0  0
   39.7710   24.8410   43.3730 C   0  0  0  0  0  0  0  0  0  0  0  0
   39.2000   23.9810   42.4010 N   0  0  0  0  0  0  0  0  0  0  0  0
   37.8360   24.2160   42.2000 C   0  0  0  0  0  0  0  0  0  0  0  0
   37.4760   25.6620   41.9280 C   0  0  2  0  0  0  0  0  0  0  0  0
   37.4630   25.9200   40.5100 C   0  0  0  0  0  0  0  0  0  0  0  0
   36.3540   25.5270   39.7240 C   0  0  0  0  0  0  0  0  0  0  0  0
   36.2570   25.7190   38.3560 C   0  0  0  0  0  0  0  0  0  0  0  0
   37.3360   26.3470   37.7370 C   0  0  0  0  0  0  0  0  0  0  0  0
   38.4570   26.7540   38.4620 C   0  0  0  0  0  0  0  0  0  0  0  0
   38.4840   26.5210   39.8230 C   0  0  0  0  0  0  0  0  0  0  0  0
   40.0910   26.9440   40.3560 S   0  0  0  0  0  0  0  0  0  0  0  0
   39.4790   30.8120   42.3830 C   0  0  0  0  0  0  0  0  0  0  0  0
   39.0480   29.6470   42.9840 C   0  0  0  0  0  0  0  0  0  0  0  0
   37.8830   29.0520   42.5520 C   0  0  0  0  0  0  0  0  0  0  0  0
   37.2090   29.6380   41.5560 N   0  0  0  0  0  0  0  0  0  0  0  0
   37.6490   30.7780   40.9830 C   0  0  0  0  0  0  0  0  0  0  0  0
   38.7700   31.3700   41.3820 N   0  0  0  0  0  0  0  0  0  0  0  0
   40.1342   26.7979   42.7484 H   0  0  0  0  0  0  0  0  0  0  0  0
   39.2976   26.5516   44.3954 H   0  0  0  0  0  0  0  0  0  0  0  0
   40.8633   24.7994   43.2499 H   0  0  0  0  0  0  0  0  0  0  0  0
   39.3937   24.4675   44.3364 H   0  0  0  0  0  0  0  0  0  0  0  0
   39.6928   24.1218   41.5076 H   0  0  0  0  0  0  0  0  0  0  0  0
   37.5076   23.6136   41.3402 H   0  0  0  0  0  0  0  0  0  0  0  0
   37.3320   23.9417   43.1385 H   0  0  0  0  0  0  0  0  0  0  0  0
   36.4346   25.8421   42.2330 H   0  0  0  0  0  0  0  0  0  0  0  0
   35.5122   25.0359   40.2340 H   0  0  0  0  0  0  0  0  0  0  0  0
   35.3738   25.3926   37.7873 H   0  0  0  0  0  0  0  0  0  0  0  0
   37.3035   26.5261   36.6522 H   0  0  0  0  0  0  0  0  0  0  0  0
   39.3010   27.2498   37.9601 H   0  0  0  0  0  0  0  0  0  0  0  0
   40.1300   26.9543   41.7254 H   0  0  0  0  0  0  0  0  0  0  0  0
   40.4095   31.2894   42.7240 H   0  0  0  0  0  0  0  0  0  0  0  0
   39.6301   29.1969   43.8017 H   0  0  0  0  0  0  0  0  0  0  0  0
   37.0658   31.2280   40.1661 H   0  0  0  0  0  0  0  0  0  0  0  0
  1  2  2  0
  3  1  1  0
  3  4  1  0
  4  5  1  0
  6  5  1  0
  7  6  1  0
  8  7  1  0
  8  3  1  0
  9  8  1  0
 10  9  2  0
 11 10  1  0
 12 11  2  0
 12 13  1  0
 13 14  2  0
 14 15  1  0
 14  9  1  0
 16 17  2  0
 18 17  1  0
 18  1  1  0
 19 18  2  0
 20 21  2  0
 20 19  1  0
 21 16  1  0
  4 22  1  0
  4 23  1  0
  5 24  1  0
  5 25  1  0
  6 26  1  0
  7 27  1  0
  7 28  1  0
  8 29  1  1
 10 30  1  0
 11 31  1  0
 12 32  1  0
 13 33  1  0
 15 34  1  0
 16 35  1  0
 17 36  1  0
 20 37  1  0
M  ISO  8  22  13  23  13  24  13  25  13  26   5  27  13  28  13  29  13
M  ISO  8  30  14  31  14  32  14  33  14  34  11  35  14  36  14  37  14
M  END
>  <minimizedAffinity>  (1) 
-5.22899961

>  <minimizedRMSD>  (1) 
0.31831637

$$$$
