
     RDKit          3D

 30 33  0  0  0  0  0  0  0  0999 V2000
   41.9760   28.5190   43.0750 C   0  0  0  0  0  0  0  0  0  0  0  0
   41.6880   27.3810   42.2400 C   0  0  0  0  0  0  0  0  0  0  0  0
   40.7690   28.1030   40.8040 S   0  0  0  0  0  0  0  0  0  0  0  0
   40.9400   29.8140   41.5890 C   0  0  0  0  0  0  0  0  0  0  0  0
   41.5090   29.6210   42.5500 N   0  0  0  0  0  0  0  0  0  0  0  0
   40.4630   31.1560   41.1140 N   0  0  0  0  0  0  0  0  0  0  0  0
   41.3140   32.1500   40.8040 C   0  0  0  0  0  0  0  0  0  0  0  0
   40.4900   33.1240   40.4420 N   0  0  0  0  0  0  0  0  0  0  0  0
   39.2060   32.7780   40.5150 C   0  0  0  0  0  0  0  0  0  0  0  0
   37.9950   33.4190   40.2530 C   0  0  0  0  0  0  0  0  0  0  0  0
   38.0190   34.6230   39.8430 O   0  0  0  0  0  0  0  0  0  0  0  0
   36.8550   32.7420   40.4440 N   0  0  0  0  0  0  0  0  0  0  0  0
   36.8440   31.4680   40.8790 C   0  0  0  0  0  0  0  0  0  0  0  0
   35.6200   30.7560   41.0780 N   0  0  0  0  0  0  0  0  0  0  0  0
   38.0190   30.8370   41.1360 N   0  0  0  0  0  0  0  0  0  0  0  0
   39.1850   31.4720   40.9600 C   0  0  0  0  0  0  0  0  0  0  0  0
   43.6440   29.2690   44.7320 C   0  0  0  0  0  0  0  0  0  0  0  0
   42.7080   28.3240   44.3270 C   0  0  0  0  0  0  0  0  0  0  0  0
   42.4950   27.2080   45.1390 C   0  0  0  0  0  0  0  0  0  0  0  0
   43.2260   27.1150   46.2920 N   0  0  0  0  0  0  0  0  0  0  0  0
   44.1260   28.0610   46.6420 C   0  0  0  0  0  0  0  0  0  0  0  0
   44.3310   29.1340   45.8610 N   0  0  0  0  0  0  0  0  0  0  0  0
   41.9526   26.3277   42.4149 H   0  0  0  0  0  0  0  0  0  0  0  0
   42.4134   32.1541   40.8412 H   0  0  0  0  0  0  0  0  0  0  0  0
   35.9583   33.2111   40.2519 H   0  0  0  0  0  0  0  0  0  0  0  0
   35.6393   29.7817   41.4117 H   0  0  0  0  0  0  0  0  0  0  0  0
   34.7190   31.2174   40.8877 H   0  0  0  0  0  0  0  0  0  0  0  0
   43.8204   30.1523   44.1005 H   0  0  0  0  0  0  0  0  0  0  0  0
   41.7662   26.4321   44.8619 H   0  0  0  0  0  0  0  0  0  0  0  0
   44.6963   27.9507   47.5761 H   0  0  0  0  0  0  0  0  0  0  0  0
  1 18  1  0
  2  1  2  0
  3  4  1  0
  3  2  1  0
  4  5  2  0
  5  1  1  0
  6  4  1  0
  7  6  1  0
  8  9  1  0
  8  7  2  0
  9 16  2  0
 10 12  1  0
 10  9  1  0
 11 10  2  0
 12 13  1  0
 13 14  1  0
 13 15  2  0
 16  6  1  0
 16 15  1  0
 17 22  2  0
 18 17  1  0
 18 19  2  0
 19 20  1  0
 20 21  2  0
 22 21  1  0
  2 23  1  0
  7 24  1  0
 12 25  1  0
 14 26  1  0
 14 27  1  0
 17 28  1  0
 19 29  1  0
 21 30  1  0
M  ISO  6  23  14  24  14  25   9  28  14  29  14  30  14
M  END
>  <minimizedAffinity>  (1) 
-6.13999462

>  <minimizedRMSD>  (1) 
8.06943226

$$$$
