
     RDKit          3D

 53 56  0  0  1  0  0  0  0  0999 V2000
   39.3410   28.1300   42.3430 C   0  0  2  0  0  0  0  0  0  0  0  0
   40.5190   27.1660   42.2500 C   0  0  2  0  0  0  0  0  0  0  0  0
   40.2320   25.9090   41.5790 C   0  0  0  0  0  0  0  0  0  0  0  0
   40.6310   24.7450   42.4610 C   0  0  0  0  0  0  0  0  0  0  0  0
   41.4180   25.3430   43.5900 C   0  0  0  0  0  0  0  0  0  0  0  0
   40.8840   26.7520   43.6670 C   0  0  1  0  0  0  0  0  0  0  0  0
   41.9070   27.7450   44.1710 C   0  0  0  0  0  0  0  0  0  0  0  0
   42.9330   28.0580   43.1080 C   0  0  0  0  0  0  0  0  0  0  0  0
   44.2950   27.7650   43.7240 C   0  0  0  0  0  0  0  0  0  0  0  0
   44.0200   27.9270   45.1990 C   0  0  0  0  0  0  0  0  0  0  0  0
   42.6580   27.2620   45.3710 C   0  0  0  0  0  0  0  0  0  0  0  0
   38.1530   27.4310   42.7370 N   0  0  0  0  0  0  0  0  0  0  0  0
   37.1540   28.0540   43.5240 C   0  0  0  0  0  0  0  0  0  0  0  0
   37.3750   29.2500   43.9640 N   0  0  0  0  0  0  0  0  0  0  0  0
   35.9610   27.3890   43.8120 N   0  0  0  0  0  0  0  0  0  0  0  0
   36.6550   29.7490   44.5230 H   0  0  0  0  0  0  0  0  0  0  0  0
   38.5880   29.1590   38.9560 C   0  0  0  0  0  0  0  0  0  0  0  0
   39.4000   30.2250   39.3820 C   0  0  0  0  0  0  0  0  0  0  0  0
   39.7240   29.8970   40.6690 C   0  0  0  0  0  0  0  0  0  0  0  0
   39.1520   28.7120   41.0120 N   0  0  0  0  0  0  0  0  0  0  0  0
   38.4770   28.2940   39.9650 N   0  0  0  0  0  0  0  0  0  0  0  0
   38.1660   28.0000   36.7750 C   0  0  0  0  0  0  0  0  0  0  0  0
   37.9990   29.0660   37.6360 C   0  0  0  0  0  0  0  0  0  0  0  0
   37.2170   30.1110   37.2050 C   0  0  0  0  0  0  0  0  0  0  0  0
   36.6310   30.0930   35.9730 N   0  0  0  0  0  0  0  0  0  0  0  0
   36.8380   28.9850   35.1490 C   0  0  0  0  0  0  0  0  0  0  0  0
   37.6200   27.9430   35.5850 N   0  0  0  0  0  0  0  0  0  0  0  0
   39.5409   28.9097   43.0928 H   0  0  0  0  0  0  0  0  0  0  0  0
   41.2952   27.7030   41.6851 H   0  0  0  0  0  0  0  0  0  0  0  0
   39.1550   25.8495   41.3633 H   0  0  0  0  0  0  0  0  0  0  0  0
   40.8049   25.8627   40.6411 H   0  0  0  0  0  0  0  0  0  0  0  0
   39.7376   24.2314   42.8459 H   0  0  0  0  0  0  0  0  0  0  0  0
   41.2187   23.9982   41.9069 H   0  0  0  0  0  0  0  0  0  0  0  0
   41.2371   24.7998   44.5293 H   0  0  0  0  0  0  0  0  0  0  0  0
   42.5056   25.2997   43.4309 H   0  0  0  0  0  0  0  0  0  0  0  0
   40.0342   26.7573   44.3654 H   0  0  0  0  0  0  0  0  0  0  0  0
   41.3237   28.6372   44.4424 H   0  0  0  0  0  0  0  0  0  0  0  0
   42.8674   29.1165   42.8162 H   0  0  0  0  0  0  0  0  0  0  0  0
   42.7666   27.4543   42.2036 H   0  0  0  0  0  0  0  0  0  0  0  0
   44.6267   26.7426   43.4902 H   0  0  0  0  0  0  0  0  0  0  0  0
   45.0979   28.4176   43.3505 H   0  0  0  0  0  0  0  0  0  0  0  0
   44.7868   27.4187   45.8020 H   0  0  0  0  0  0  0  0  0  0  0  0
   44.0342   28.9762   45.5292 H   0  0  0  0  0  0  0  0  0  0  0  0
   42.1714   27.5880   46.3021 H   0  0  0  0  0  0  0  0  0  0  0  0
   42.7116   26.1656   45.4423 H   0  0  0  0  0  0  0  0  0  0  0  0
   38.0230   26.4531   42.4408 H   0  0  0  0  0  0  0  0  0  0  0  0
   35.2399   27.8498   44.3852 H   0  0  0  0  0  0  0  0  0  0  0  0
   35.8018   26.4375   43.4513 H   0  0  0  0  0  0  0  0  0  0  0  0
   39.7038   31.1156   38.8123 H   0  0  0  0  0  0  0  0  0  0  0  0
   40.3569   30.5048   41.3323 H   0  0  0  0  0  0  0  0  0  0  0  0
   38.7890   27.1555   37.1045 H   0  0  0  0  0  0  0  0  0  0  0  0
   37.0609   30.9771   37.8650 H   0  0  0  0  0  0  0  0  0  0  0  0
   36.3754   28.9464   34.1517 H   0  0  0  0  0  0  0  0  0  0  0  0
  1 12  1  0
  2  1  1  0
  2  6  1  0
  3  2  1  0
  3  4  1  0
  4  5  1  0
  5  6  1  0
  6  7  1  0
  7 11  1  0
  8  9  1  0
  8  7  1  0
  9 10  1  0
 10 11  1  0
 12 13  1  0
 13 15  1  0
 13 14  2  0
 14 16  1  0
 17 18  1  0
 17 21  2  0
 18 19  2  0
 19 20  1  0
 20  1  1  0
 21 20  1  0
 22 23  2  0
 23 17  1  0
 24 23  1  0
 25 24  2  0
 26 27  2  0
 26 25  1  0
 27 22  1  0
  1 28  1  1
  2 29  1  6
  3 30  1  0
  3 31  1  0
  4 32  1  0
  4 33  1  0
  5 34  1  0
  5 35  1  0
  6 36  1  1
  7 37  1  0
  8 38  1  0
  8 39  1  0
  9 40  1  0
  9 41  1  0
 10 42  1  0
 10 43  1  0
 11 44  1  0
 11 45  1  0
 12 46  1  0
 15 47  1  0
 15 48  1  0
 18 49  1  0
 19 50  1  0
 22 51  1  0
 24 52  1  0
 26 53  1  0
M  ISO  8  28   8  29  13  30  13  31  13  32  13  33  13  34  13  35  13
M  ISO  8  36  13  37  13  38  13  39  13  40  13  41  13  42  13  43  13
M  ISO  7  44  13  45  13  49  14  50  14  51  14  52  14  53  14
M  END
>  <minimizedAffinity>  (1) 
-5.23322392

>  <minimizedRMSD>  (1) 
0.990605175

$$$$
