
     RDKit          3D

 27 29  0  0  0  0  0  0  0  0999 V2000
   40.1280   28.4150   41.3470 C   0  0  0  0  0  0  0  0  0  0  0  0
   41.2410   27.5200   41.4070 C   0  0  0  0  0  0  0  0  0  0  0  0
   42.5310   28.3260   40.3620 S   0  0  0  0  0  0  0  0  0  0  0  0
   41.3210   29.7650   40.0140 C   0  0  0  0  0  0  0  0  0  0  0  0
   40.3880   29.4680   40.5980 N   0  0  0  0  0  0  0  0  0  0  0  0
   41.5990   30.9200   39.1950 N   0  0  0  0  0  0  0  0  0  0  0  0
   41.8150   32.0960   39.8100 C   0  0  0  0  0  0  0  0  0  0  0  0
   42.0790   33.1750   38.9670 C   0  0  0  0  0  0  0  0  0  0  0  0
   42.1160   33.0480   37.5990 C   0  0  0  0  0  0  0  0  0  0  0  0
   42.3870   34.1640   36.7730 N   0  0  0  0  0  0  0  0  0  0  0  0
   41.8890   31.8300   37.0310 N   0  0  0  0  0  0  0  0  0  0  0  0
   41.6310   30.7710   37.8500 C   0  0  0  0  0  0  0  0  0  0  0  0
   41.4220   29.6460   37.2980 O   0  0  0  0  0  0  0  0  0  0  0  0
   38.4720   28.8980   43.1150 C   0  0  0  0  0  0  0  0  0  0  0  0
   38.9020   28.0870   42.0720 C   0  0  0  0  0  0  0  0  0  0  0  0
   38.1350   26.9640   41.7430 C   0  0  0  0  0  0  0  0  0  0  0  0
   36.9990   26.7340   42.4750 N   0  0  0  0  0  0  0  0  0  0  0  0
   36.6240   27.5550   43.4820 C   0  0  0  0  0  0  0  0  0  0  0  0
   37.3520   28.6220   43.7960 N   0  0  0  0  0  0  0  0  0  0  0  0
   41.3124   26.5673   41.9522 H   0  0  0  0  0  0  0  0  0  0  0  0
   41.7854   32.2000   40.9047 H   0  0  0  0  0  0  0  0  0  0  0  0
   42.2643   34.1633   39.4130 H   0  0  0  0  0  0  0  0  0  0  0  0
   42.4114   34.0532   35.7493 H   0  0  0  0  0  0  0  0  0  0  0  0
   42.5599   35.0874   37.1953 H   0  0  0  0  0  0  0  0  0  0  0  0
   39.0633   29.7848   43.3871 H   0  0  0  0  0  0  0  0  0  0  0  0
   38.4328   26.2899   40.9264 H   0  0  0  0  0  0  0  0  0  0  0  0
   35.7061   27.3374   44.0477 H   0  0  0  0  0  0  0  0  0  0  0  0
  1  2  2  0
  1 15  1  0
  3  2  1  0
  4  3  1  0
  4  5  2  0
  5  1  1  0
  6  7  1  0
  6  4  1  0
  8  7  2  0
  9  8  1  0
 10  9  1  0
 11  9  2  0
 11 12  1  0
 12  6  1  0
 13 12  2  0
 14 19  2  0
 15 14  1  0
 16 15  2  0
 16 17  1  0
 17 18  2  0
 18 19  1  0
  2 20  1  0
  7 21  1  0
  8 22  1  0
 10 23  1  0
 10 24  1  0
 14 25  1  0
 16 26  1  0
 18 27  1  0
M  ISO  6  20  14  21  14  22  14  25  14  26  14  27  14
M  END
>  <minimizedAffinity>  (1) 
-4.81644964

>  <minimizedRMSD>  (1) 
7.16798067

$$$$
