
     RDKit          3D

 22 24  0  0  0  0  0  0  0  0999 V2000
   37.9950   32.0200   39.9280 C   0  0  0  0  0  0  0  0  0  0  0  0
   37.1410   31.8220   38.8010 C   0  0  0  0  0  0  0  0  0  0  0  0
   36.3740   30.1630   39.0840 S   0  0  0  0  0  0  0  0  0  0  0  0
   37.3590   30.0180   40.7140 C   0  0  0  0  0  0  0  0  0  0  0  0
   37.9540   30.9930   40.7650 N   0  0  0  0  0  0  0  0  0  0  0  0
   37.3370   28.9100   41.6510 N   0  0  0  0  0  0  0  0  0  0  0  0
   37.2410   28.8310   42.9770 C   0  0  0  0  0  0  0  0  0  0  0  0
   37.2680   27.5510   43.3580 N   0  0  0  0  0  0  0  0  0  0  0  0
   37.3850   26.8000   42.2330 C   0  0  0  0  0  0  0  0  0  0  0  0
   37.4240   27.6560   41.2160 N   0  0  0  0  0  0  0  0  0  0  0  0
   40.1530   33.1840   40.0860 C   0  0  0  0  0  0  0  0  0  0  0  0
   38.7680   33.2440   40.0230 C   0  0  0  0  0  0  0  0  0  0  0  0
   38.1750   34.5090   40.0520 C   0  0  0  0  0  0  0  0  0  0  0  0
   38.9890   35.6040   40.1400 N   0  0  0  0  0  0  0  0  0  0  0  0
   40.3410   35.4840   40.1990 C   0  0  0  0  0  0  0  0  0  0  0  0
   40.9190   34.2720   40.1710 N   0  0  0  0  0  0  0  0  0  0  0  0
   36.9761   32.5038   37.9537 H   0  0  0  0  0  0  0  0  0  0  0  0
   37.1527   29.6912   43.6568 H   0  0  0  0  0  0  0  0  0  0  0  0
   37.4371   25.7028   42.1744 H   0  0  0  0  0  0  0  0  0  0  0  0
   40.6392   32.1975   40.0649 H   0  0  0  0  0  0  0  0  0  0  0  0
   37.0817   34.6209   40.0052 H   0  0  0  0  0  0  0  0  0  0  0  0
   40.9667   36.3859   40.2702 H   0  0  0  0  0  0  0  0  0  0  0  0
  1 12  1  0
  1  5  1  0
  2  3  1  0
  2  1  2  0
  3  4  1  0
  4  5  2  0
  4  6  1  0
  6  7  1  0
  7  8  2  0
  9  8  1  0
 10  6  1  0
 10  9  2  0
 11 16  2  0
 12 13  2  0
 12 11  1  0
 13 14  1  0
 14 15  2  0
 16 15  1  0
  2 17  1  0
  7 18  1  0
  9 19  1  0
 11 20  1  0
 13 21  1  0
 15 22  1  0
M  ISO  6  17  14  18  14  19  14  20  14  21  14  22  14
M  END
>  <minimizedAffinity>  (1) 
-4.58180475

>  <minimizedRMSD>  (1) 
5.42429304

$$$$
