
     RDKit          3D

 25 26  0  0  0  0  0  0  0  0999 V2000
   37.0590   31.0580   40.8000 C   0  0  0  0  0  0  0  0  0  0  0  0
   38.1220   30.5060   41.5050 C   0  0  0  0  0  0  0  0  0  0  0  0
   39.2430   31.3000   41.6120 C   0  0  0  0  0  0  0  0  0  0  0  0
   39.2940   32.5320   41.0610 N   0  0  0  0  0  0  0  0  0  0  0  0
   38.2060   33.0160   40.3760 C   0  0  0  0  0  0  0  0  0  0  0  0
   37.0860   32.2710   40.2490 N   0  0  0  0  0  0  0  0  0  0  0  0
   38.0000   29.1770   42.0710 C   0  0  0  0  0  0  0  0  0  0  0  0
   36.7530   28.4750   41.8970 C   0  0  0  0  0  0  0  0  0  0  0  0
   37.0620   26.8550   42.7700 S   0  0  0  0  0  0  0  0  0  0  0  0
   38.8080   27.4350   43.1990 C   0  0  0  0  0  0  0  0  0  0  0  0
   38.8760   28.4790   42.7430 N   0  0  0  0  0  0  0  0  0  0  0  0
   39.7780   26.5840   43.9790 C   0  0  0  0  0  0  0  0  0  0  0  0
   39.8580   25.1890   43.3950 C   0  0  0  0  0  0  0  0  0  0  0  0
   41.1110   27.2470   43.8670 C   0  0  0  0  0  0  0  0  0  0  0  0
   36.1428   30.4592   40.6906 H   0  0  0  0  0  0  0  0  0  0  0  0
   40.1183   30.9210   42.1599 H   0  0  0  0  0  0  0  0  0  0  0  0
   38.2470   34.0193   39.9268 H   0  0  0  0  0  0  0  0  0  0  0  0
   35.8435   28.8114   41.3776 H   0  0  0  0  0  0  0  0  0  0  0  0
   39.4543   26.4905   45.0261 H   0  0  0  0  0  0  0  0  0  0  0  0
   39.9003   24.4520   44.2105 H   0  0  0  0  0  0  0  0  0  0  0  0
   38.9692   24.9995   42.7752 H   0  0  0  0  0  0  0  0  0  0  0  0
   40.7626   25.1023   42.7752 H   0  0  0  0  0  0  0  0  0  0  0  0
   41.5080   27.4445   44.8737 H   0  0  0  0  0  0  0  0  0  0  0  0
   41.8035   26.5883   43.3224 H   0  0  0  0  0  0  0  0  0  0  0  0
   41.0036   28.1967   43.3224 H   0  0  0  0  0  0  0  0  0  0  0  0
  1  2  2  0
  2  3  1  0
  2  7  1  0
  4  3  2  0
  5  4  1  0
  6  5  2  0
  6  1  1  0
  7 11  1  0
  8  7  2  0
  8  9  1  0
  9 10  1  0
 10 12  1  0
 11 10  2  0
 13 12  1  0
 14 12  1  0
  1 15  1  0
  3 16  1  0
  5 17  1  0
  8 18  1  0
 12 19  1  0
 13 20  1  0
 13 21  1  0
 13 22  1  0
 14 23  1  0
 14 24  1  0
 14 25  1  0
M  ISO  8  15  14  16  14  17  14  18  14  19   8  20   8  21   8  22   8
M  ISO  3  23   8  24   8  25   8
M  END
>  <minimizedAffinity>  (1) 
-4.25861502

>  <minimizedRMSD>  (1) 
2.29922032

$$$$
