
     RDKit          3D

 18 19  0  0  0  0  0  0  0  0999 V2000
   36.5860   27.9290   41.5270 C   0  0  0  0  0  0  0  0  0  0  0  0
   37.7970   28.3750   42.0370 C   0  0  0  0  0  0  0  0  0  0  0  0
   38.0550   29.7410   41.9570 C   0  0  0  0  0  0  0  0  0  0  0  0
   37.1410   30.5660   41.3990 N   0  0  0  0  0  0  0  0  0  0  0  0
   35.9590   30.0650   40.9100 C   0  0  0  0  0  0  0  0  0  0  0  0
   35.6890   28.7430   40.9780 N   0  0  0  0  0  0  0  0  0  0  0  0
   38.7320   27.4150   42.6270 C   0  0  0  0  0  0  0  0  0  0  0  0
   38.4690   26.0090   42.4570 C   0  0  0  0  0  0  0  0  0  0  0  0
   39.8970   25.2200   43.3610 S   0  0  0  0  0  0  0  0  0  0  0  0
   40.5660   26.9320   43.7900 C   0  0  0  0  0  0  0  0  0  0  0  0
   39.8150   27.6450   43.3150 N   0  0  0  0  0  0  0  0  0  0  0  0
   41.8140   26.9250   44.5820 C   0  0  0  0  0  0  0  0  0  0  0  0
   42.7420   26.1030   44.3680 O   0  0  0  0  0  0  0  0  0  0  0  0
   36.3578   26.8542   41.5791 H   0  0  0  0  0  0  0  0  0  0  0  0
   38.9999   30.1476   42.3467 H   0  0  0  0  0  0  0  0  0  0  0  0
   35.2243   30.7477   40.4581 H   0  0  0  0  0  0  0  0  0  0  0  0
   37.6361   25.5232   41.9276 H   0  0  0  0  0  0  0  0  0  0  0  0
   41.9356   27.6647   45.3870 H   0  0  0  0  0  0  0  0  0  0  0  0
  1  2  2  0
  2  7  1  0
  3  2  1  0
  4  3  2  0
  5  6  2  0
  5  4  1  0
  6  1  1  0
  7 11  1  0
  8  7  2  0
  8  9  1  0
  9 10  1  0
 10 12  1  0
 11 10  2  0
 13 12  2  0
  1 14  1  0
  3 15  1  0
  5 16  1  0
  8 17  1  0
 12 18  1  0
M  ISO  5  14  14  15  14  16  14  17  14  18   6
M  END
>  <minimizedAffinity>  (1) 
-3.59319925

>  <minimizedRMSD>  (1) 
1.66423237

$$$$
