
     RDKit          3D

 21 23  0  0  0  0  0  0  0  0999 V2000
   37.7300   30.3810   41.3250 C   0  0  0  0  0  0  0  0  0  0  0  0
   36.4310   29.7990   41.1390 C   0  0  0  0  0  0  0  0  0  0  0  0
   36.6060   28.1070   41.9020 S   0  0  0  0  0  0  0  0  0  0  0  0
   38.4090   28.5080   42.3310 C   0  0  0  0  0  0  0  0  0  0  0  0
   38.5420   29.5600   41.9350 N   0  0  0  0  0  0  0  0  0  0  0  0
   39.1630   32.3910   41.1880 C   0  0  0  0  0  0  0  0  0  0  0  0
   37.9880   31.7380   40.8440 C   0  0  0  0  0  0  0  0  0  0  0  0
   37.0740   32.4150   40.0320 C   0  0  0  0  0  0  0  0  0  0  0  0
   37.3860   33.6780   39.6230 N   0  0  0  0  0  0  0  0  0  0  0  0
   38.5460   34.2760   39.9850 C   0  0  0  0  0  0  0  0  0  0  0  0
   39.4200   33.6330   40.7600 N   0  0  0  0  0  0  0  0  0  0  0  0
   39.3370   27.5770   43.0250 C   0  0  0  0  0  0  0  0  0  0  0  0
   38.9600   26.3330   43.3490 N   0  0  0  0  0  0  0  0  0  0  0  0
   39.9420   25.7160   43.9450 O   0  0  0  0  0  0  0  0  0  0  0  0
   40.9470   26.5720   44.0000 C   0  0  0  0  0  0  0  0  0  0  0  0
   40.6090   27.7610   43.4300 N   0  0  0  0  0  0  0  0  0  0  0  0
   35.5457   30.2441   40.6614 H   0  0  0  0  0  0  0  0  0  0  0  0
   39.8981   31.8777   41.8253 H   0  0  0  0  0  0  0  0  0  0  0  0
   36.1279   31.9416   39.7307 H   0  0  0  0  0  0  0  0  0  0  0  0
   38.7680   35.2961   39.6383 H   0  0  0  0  0  0  0  0  0  0  0  0
   41.9276   26.3527   44.4475 H   0  0  0  0  0  0  0  0  0  0  0  0
  1  5  1  0
  2  1  2  0
  2  3  1  0
  3  4  1  0
  4 12  1  0
  5  4  2  0
  7  6  2  0
  7  1  1  0
  8  7  1  0
  9 10  1  0
  9  8  2  0
 10 11  2  0
 11  6  1  0
 12 13  2  0
 12 16  1  0
 13 14  1  0
 14 15  1  0
 16 15  2  0
  2 17  1  0
  6 18  1  0
  8 19  1  0
 10 20  1  0
 15 21  1  0
M  ISO  5  17  14  18  14  19  14  20  14  21  14
M  END
>  <minimizedAffinity>  (1) 
-4.38920832

>  <minimizedRMSD>  (1) 
3.34799886

$$$$
