
     RDKit          3D

 35 39  0  0  0  0  0  0  0  0999 V2000
   39.8400   27.6390   43.2500 C   0  0  0  0  0  0  0  0  0  0  0  0
   39.5430   26.3790   43.6230 N   0  0  0  0  0  0  0  0  0  0  0  0
   40.5950   25.8520   44.1880 O   0  0  0  0  0  0  0  0  0  0  0  0
   41.5460   26.7710   44.1740 C   0  0  0  0  0  0  0  0  0  0  0  0
   41.1210   27.9290   43.5880 N   0  0  0  0  0  0  0  0  0  0  0  0
   42.8990   26.7140   44.6680 N   0  0  0  0  0  0  0  0  0  0  0  0
   43.9770   26.2460   44.0380 C   0  0  0  0  0  0  0  0  0  0  0  0
   45.0720   26.3630   44.8330 N   0  0  0  0  0  0  0  0  0  0  0  0
   44.6900   26.9210   46.0050 C   0  0  0  0  0  0  0  0  0  0  0  0
   45.3140   27.2860   47.1810 C   0  0  0  0  0  0  0  0  0  0  0  0
   46.5530   27.0930   47.2930 O   0  0  0  0  0  0  0  0  0  0  0  0
   44.5960   27.8350   48.1740 N   0  0  0  0  0  0  0  0  0  0  0  0
   43.2560   28.0430   48.0510 C   0  0  0  0  0  0  0  0  0  0  0  0
   42.4880   28.6220   49.0940 N   0  0  0  0  0  0  0  0  0  0  0  0
   42.6630   27.6830   46.9030 N   0  0  0  0  0  0  0  0  0  0  0  0
   43.3320   27.1350   45.8880 C   0  0  0  0  0  0  0  0  0  0  0  0
   37.9900   30.2890   41.5290 C   0  0  0  0  0  0  0  0  0  0  0  0
   36.7300   29.6280   41.4560 C   0  0  0  0  0  0  0  0  0  0  0  0
   37.0290   27.9900   42.2740 S   0  0  0  0  0  0  0  0  0  0  0  0
   38.8310   28.4950   42.5750 C   0  0  0  0  0  0  0  0  0  0  0  0
   38.8510   29.5220   42.1220 N   0  0  0  0  0  0  0  0  0  0  0  0
   39.3210   32.3420   41.2070 C   0  0  0  0  0  0  0  0  0  0  0  0
   38.1640   31.6270   40.9810 C   0  0  0  0  0  0  0  0  0  0  0  0
   37.1670   32.2300   40.2120 C   0  0  0  0  0  0  0  0  0  0  0  0
   37.3770   33.4800   39.7230 N   0  0  0  0  0  0  0  0  0  0  0  0
   38.5440   34.1430   39.9770 C   0  0  0  0  0  0  0  0  0  0  0  0
   39.5020   33.5650   40.7170 N   0  0  0  0  0  0  0  0  0  0  0  0
   43.9792   25.8259   43.0214 H   0  0  0  0  0  0  0  0  0  0  0  0
   45.0694   28.1048   49.0481 H   0  0  0  0  0  0  0  0  0  0  0  0
   41.4758   28.7660   48.9693 H   0  0  0  0  0  0  0  0  0  0  0  0
   42.9427   28.8984   49.9759 H   0  0  0  0  0  0  0  0  0  0  0  0
   35.7944   30.0030   41.0156 H   0  0  0  0  0  0  0  0  0  0  0  0
   40.1193   31.8866   41.8115 H   0  0  0  0  0  0  0  0  0  0  0  0
   36.2252   31.7008   40.0050 H   0  0  0  0  0  0  0  0  0  0  0  0
   38.6987   35.1545   39.5733 H   0  0  0  0  0  0  0  0  0  0  0  0
  1  5  1  0
  1  2  2  0
  2  3  1  0
  4  3  1  0
  4  6  1  0
  5  4  2  0
  6 16  1  0
  7  6  1  0
  7  8  2  0
  8  9  1  0
  9 10  1  0
 10 11  2  0
 10 12  1  0
 13 12  1  0
 13 14  1  0
 15 13  2  0
 16  9  2  0
 16 15  1  0
 17 21  1  0
 18 17  2  0
 18 19  1  0
 19 20  1  0
 20  1  1  0
 21 20  2  0
 23 22  2  0
 23 17  1  0
 24 23  1  0
 25 26  1  0
 25 24  2  0
 26 27  2  0
 27 22  1  0
  7 28  1  0
 12 29  1  0
 14 30  1  0
 14 31  1  0
 18 32  1  0
 22 33  1  0
 24 34  1  0
 26 35  1  0
M  ISO  6  28  14  29   9  32  14  33  14  34  14  35  14
M  END
>  <minimizedAffinity>  (1) 
-6.90709877

>  <minimizedRMSD>  (1) 
0.584335148

$$$$
