
     RDKit          3D

 46 49  0  0  1  0  0  0  0  0999 V2000
   39.3820   28.0780   42.3320 C   0  0  2  0  0  0  0  0  0  0  0  0
   40.5350   27.0830   42.2580 C   0  0  2  0  0  0  0  0  0  0  0  0
   40.2120   25.8260   41.6050 C   0  0  0  0  0  0  0  0  0  0  0  0
   40.6020   24.6750   42.5060 C   0  0  0  0  0  0  0  0  0  0  0  0
   41.4100   25.2760   43.6180 C   0  0  0  0  0  0  0  0  0  0  0  0
   40.8890   26.6920   43.6790 C   0  0  1  0  0  0  0  0  0  0  0  0
   42.0050   27.5420   44.2280 C   0  0  0  0  0  0  0  0  0  0  0  0
   42.5870   28.6590   43.5020 C   0  0  0  0  0  0  0  0  0  0  0  0
   43.8280   29.2280   44.6720 S   0  0  0  0  0  0  0  0  0  0  0  0
   43.3830   27.8910   45.9490 C   0  0  0  0  0  0  0  0  0  0  0  0
   42.5080   27.2860   45.4320 N   0  0  0  0  0  0  0  0  0  0  0  0
   38.1730   27.4170   42.7270 N   0  0  0  0  0  0  0  0  0  0  0  0
   37.1820   28.0810   43.4910 C   0  0  0  0  0  0  0  0  0  0  0  0
   37.4240   29.2820   43.9040 N   0  0  0  0  0  0  0  0  0  0  0  0
   35.9720   27.4470   43.7840 N   0  0  0  0  0  0  0  0  0  0  0  0
   36.7120   29.8050   44.4520 H   0  0  0  0  0  0  0  0  0  0  0  0
   38.6530   29.1120   38.9410 C   0  0  0  0  0  0  0  0  0  0  0  0
   39.5410   30.1210   39.3380 C   0  0  0  0  0  0  0  0  0  0  0  0
   39.8610   29.7880   40.6240 C   0  0  0  0  0  0  0  0  0  0  0  0
   39.2180   28.6580   40.9980 N   0  0  0  0  0  0  0  0  0  0  0  0
   38.4920   28.2620   39.9670 N   0  0  0  0  0  0  0  0  0  0  0  0
   38.1660   27.9750   36.7570 C   0  0  0  0  0  0  0  0  0  0  0  0
   38.0340   29.0370   37.6310 C   0  0  0  0  0  0  0  0  0  0  0  0
   37.2580   30.0980   37.2240 C   0  0  0  0  0  0  0  0  0  0  0  0
   36.6430   30.0980   36.0020 N   0  0  0  0  0  0  0  0  0  0  0  0
   36.8210   28.9930   35.1720 C   0  0  0  0  0  0  0  0  0  0  0  0
   37.5960   27.9240   35.5700 N   0  0  0  0  0  0  0  0  0  0  0  0
   39.5988   28.8584   43.0763 H   0  0  0  0  0  0  0  0  0  0  0  0
   41.3293   27.5848   41.6859 H   0  0  0  0  0  0  0  0  0  0  0  0
   39.1313   25.7844   41.4039 H   0  0  0  0  0  0  0  0  0  0  0  0
   40.7645   25.7528   40.6566 H   0  0  0  0  0  0  0  0  0  0  0  0
   39.7040   24.1834   42.9085 H   0  0  0  0  0  0  0  0  0  0  0  0
   41.1744   23.9112   41.9592 H   0  0  0  0  0  0  0  0  0  0  0  0
   41.2342   24.7474   44.5665 H   0  0  0  0  0  0  0  0  0  0  0  0
   42.4955   25.2171   43.4500 H   0  0  0  0  0  0  0  0  0  0  0  0
   40.0016   26.8123   44.3178 H   0  0  0  0  0  0  0  0  0  0  0  0
   42.3358   29.0506   42.5052 H   0  0  0  0  0  0  0  0  0  0  0  0
   43.8340   27.7202   46.9376 H   0  0  0  0  0  0  0  0  0  0  0  0
   38.0214   26.4369   42.4490 H   0  0  0  0  0  0  0  0  0  0  0  0
   35.2559   27.9358   44.3400 H   0  0  0  0  0  0  0  0  0  0  0  0
   35.7960   26.4908   43.4440 H   0  0  0  0  0  0  0  0  0  0  0  0
   39.8973   30.9805   38.7512 H   0  0  0  0  0  0  0  0  0  0  0  0
   40.5468   30.3598   41.2665 H   0  0  0  0  0  0  0  0  0  0  0  0
   38.7840   27.1208   37.0709 H   0  0  0  0  0  0  0  0  0  0  0  0
   37.1299   30.9616   37.8932 H   0  0  0  0  0  0  0  0  0  0  0  0
   36.3362   28.9731   34.1848 H   0  0  0  0  0  0  0  0  0  0  0  0
  1 12  1  0
  2  1  1  0
  2  6  1  0
  3  2  1  0
  3  4  1  0
  4  5  1  0
  5  6  1  0
  6  7  1  0
  7 11  1  0
  8  7  2  0
  8  9  1  0
  9 10  1  0
 11 10  2  0
 12 13  1  0
 13 15  1  0
 13 14  2  0
 14 16  1  0
 17 18  1  0
 17 21  2  0
 18 19  2  0
 19 20  1  0
 20  1  1  0
 21 20  1  0
 22 23  2  0
 23 17  1  0
 24 23  1  0
 25 24  2  0
 26 27  2  0
 26 25  1  0
 27 22  1  0
  1 28  1  1
  2 29  1  6
  3 30  1  0
  3 31  1  0
  4 32  1  0
  4 33  1  0
  5 34  1  0
  5 35  1  0
  6 36  1  1
  8 37  1  0
 10 38  1  0
 12 39  1  0
 15 40  1  0
 15 41  1  0
 18 42  1  0
 19 43  1  0
 22 44  1  0
 24 45  1  0
 26 46  1  0
M  ISO  8  28   8  29  13  30  13  31  13  32  13  33  13  34  13  35  13
M  ISO  8  36  13  37  14  38  14  42  14  43  14  44  14  45  14  46  14
M  END
>  <minimizedAffinity>  (1) 
-5.17499208

>  <minimizedRMSD>  (1) 
0.566144228

$$$$
