
     RDKit          3D

 32 35  0  0  0  0  0  0  0  0999 V2000
   38.6460   33.5450   40.3840 C   0  0  0  0  0  0  0  0  0  0  0  0
   37.4160   33.3620   39.6880 C   0  0  0  0  0  0  0  0  0  0  0  0
   36.9490   31.5990   40.0310 S   0  0  0  0  0  0  0  0  0  0  0  0
   38.5260   31.4210   41.0720 C   0  0  0  0  0  0  0  0  0  0  0  0
   38.9790   32.4450   40.9850 N   0  0  0  0  0  0  0  0  0  0  0  0
   38.9320   30.1730   41.7700 C   0  0  0  0  0  0  0  0  0  0  0  0
   38.0860   29.5140   42.5570 N   0  0  0  0  0  0  0  0  0  0  0  0
   38.6770   28.4600   43.0490 O   0  0  0  0  0  0  0  0  0  0  0  0
   39.8990   28.4510   42.5720 C   0  0  0  0  0  0  0  0  0  0  0  0
   40.1100   29.5190   41.7540 N   0  0  0  0  0  0  0  0  0  0  0  0
   40.8940   27.4750   42.8500 N   0  0  0  0  0  0  0  0  0  0  0  0
   41.1560   27.1150   44.1290 C   0  0  0  0  0  0  0  0  0  0  0  0
   42.1170   26.1700   44.4400 C   0  0  0  0  0  0  0  0  0  0  0  0
   42.8350   25.5700   43.4240 C   0  0  0  0  0  0  0  0  0  0  0  0
   43.8360   24.5910   43.6770 N   0  0  0  0  0  0  0  0  0  0  0  0
   42.5490   25.9530   42.1490 N   0  0  0  0  0  0  0  0  0  0  0  0
   41.6010   26.8810   41.8980 C   0  0  0  0  0  0  0  0  0  0  0  0
   41.3590   27.2160   40.6900 O   0  0  0  0  0  0  0  0  0  0  0  0
   40.6710   34.9200   40.7080 C   0  0  0  0  0  0  0  0  0  0  0  0
   39.3290   34.8290   40.3450 C   0  0  0  0  0  0  0  0  0  0  0  0
   38.6640   36.0000   39.9470 C   0  0  0  0  0  0  0  0  0  0  0  0
   39.3770   37.1610   39.9400 N   0  0  0  0  0  0  0  0  0  0  0  0
   40.6920   37.2000   40.3040 C   0  0  0  0  0  0  0  0  0  0  0  0
   41.3150   36.0890   40.6790 N   0  0  0  0  0  0  0  0  0  0  0  0
   36.8672   34.0994   39.0838 H   0  0  0  0  0  0  0  0  0  0  0  0
   40.5882   27.5877   44.9440 H   0  0  0  0  0  0  0  0  0  0  0  0
   42.3080   25.8983   45.4887 H   0  0  0  0  0  0  0  0  0  0  0  0
   44.3505   24.1659   42.8925 H   0  0  0  0  0  0  0  0  0  0  0  0
   44.0461   24.3074   44.6446 H   0  0  0  0  0  0  0  0  0  0  0  0
   41.2087   34.0138   41.0237 H   0  0  0  0  0  0  0  0  0  0  0  0
   37.6047   35.9806   39.6513 H   0  0  0  0  0  0  0  0  0  0  0  0
   41.2375   38.1551   40.2866 H   0  0  0  0  0  0  0  0  0  0  0  0
  1  5  1  0
  2  3  1  0
  2  1  2  0
  3  4  1  0
  4  6  1  0
  5  4  2  0
  6  7  2  0
  7  8  1  0
  9 11  1  0
  9  8  1  0
 10  6  1  0
 10  9  2  0
 11 12  1  0
 12 13  2  0
 14 15  1  0
 14 13  1  0
 16 14  2  0
 17 16  1  0
 17 11  1  0
 18 17  2  0
 20  1  1  0
 20 19  2  0
 21 20  1  0
 22 21  2  0
 22 23  1  0
 23 24  2  0
 24 19  1  0
  2 25  1  0
 12 26  1  0
 13 27  1  0
 15 28  1  0
 15 29  1  0
 19 30  1  0
 21 31  1  0
 23 32  1  0
M  ISO  6  25  14  26  14  27  14  30  14  31  14  32  14
M  END
>  <minimizedAffinity>  (1) 
-6.33325005

>  <minimizedRMSD>  (1) 
3.19659495

$$$$
