
     RDKit          3D

 52 55  0  0  1  0  0  0  0  0999 V2000
   39.2960   28.0840   42.3410 C   0  0  2  0  0  0  0  0  0  0  0  0
   40.4510   27.0940   42.2280 C   0  0  2  0  0  0  0  0  0  0  0  0
   40.0850   25.7740   41.7460 C   0  0  0  0  0  0  0  0  0  0  0  0
   40.5720   24.7120   42.7110 C   0  0  0  0  0  0  0  0  0  0  0  0
   41.4980   25.4250   43.6530 C   0  0  0  0  0  0  0  0  0  0  0  0
   40.9770   26.8440   43.6300 C   0  0  1  0  0  0  0  0  0  0  0  0
   41.9510   27.7050   44.1000 N   0  0  0  0  0  0  0  0  0  0  0  0
   42.6550   27.4450   45.2720 C   0  0  0  0  0  0  0  0  0  0  0  0
   44.0520   27.9810   44.9290 C   0  0  0  0  0  0  0  0  0  0  0  0
   43.6380   29.2620   44.2030 C   0  0  0  0  0  0  0  0  0  0  0  0
   42.4480   28.7740   43.3670 C   0  0  0  0  0  0  0  0  0  0  0  0
   38.0990   27.4090   42.7450 N   0  0  0  0  0  0  0  0  0  0  0  0
   37.1280   28.0420   43.5580 C   0  0  0  0  0  0  0  0  0  0  0  0
   37.3860   29.2230   44.0150 N   0  0  0  0  0  0  0  0  0  0  0  0
   35.9250   27.4030   43.8580 N   0  0  0  0  0  0  0  0  0  0  0  0
   36.6930   29.7290   44.6000 H   0  0  0  0  0  0  0  0  0  0  0  0
   38.5540   29.1500   38.9630 C   0  0  0  0  0  0  0  0  0  0  0  0
   39.3320   30.2240   39.4120 C   0  0  0  0  0  0  0  0  0  0  0  0
   39.6510   29.8820   40.6980 C   0  0  0  0  0  0  0  0  0  0  0  0
   39.1020   28.6780   41.0160 N   0  0  0  0  0  0  0  0  0  0  0  0
   38.4440   28.2500   39.9570 N   0  0  0  0  0  0  0  0  0  0  0  0
   38.1490   27.9930   36.7760 C   0  0  0  0  0  0  0  0  0  0  0  0
   37.9740   29.0540   37.6360 C   0  0  0  0  0  0  0  0  0  0  0  0
   37.1890   30.1000   37.1960 C   0  0  0  0  0  0  0  0  0  0  0  0
   36.6110   30.0800   35.9580 N   0  0  0  0  0  0  0  0  0  0  0  0
   36.8310   28.9820   35.1490 C   0  0  0  0  0  0  0  0  0  0  0  0
   37.6140   27.9240   35.5710 N   0  0  0  0  0  0  0  0  0  0  0  0
   39.5235   28.8548   43.0921 H   0  0  0  0  0  0  0  0  0  0  0  0
   41.1582   27.5472   41.5177 H   0  0  0  0  0  0  0  0  0  0  0  0
   38.9905   25.7100   41.6571 H   0  0  0  0  0  0  0  0  0  0  0  0
   40.5514   25.6080   40.7637 H   0  0  0  0  0  0  0  0  0  0  0  0
   39.7258   24.2741   43.2607 H   0  0  0  0  0  0  0  0  0  0  0  0
   41.0758   23.8849   42.1894 H   0  0  0  0  0  0  0  0  0  0  0  0
   41.4386   24.9981   44.6650 H   0  0  0  0  0  0  0  0  0  0  0  0
   42.5564   25.3463   43.3640 H   0  0  0  0  0  0  0  0  0  0  0  0
   40.1334   27.0254   44.3122 H   0  0  0  0  0  0  0  0  0  0  0  0
   42.2196   27.9820   46.1276 H   0  0  0  0  0  0  0  0  0  0  0  0
   42.6464   26.3860   45.5696 H   0  0  0  0  0  0  0  0  0  0  0  0
   44.6473   28.1903   45.8300 H   0  0  0  0  0  0  0  0  0  0  0  0
   44.6963   27.2973   44.3569 H   0  0  0  0  0  0  0  0  0  0  0  0
   43.3349   30.0454   44.9132 H   0  0  0  0  0  0  0  0  0  0  0  0
   44.4433   29.7194   43.6095 H   0  0  0  0  0  0  0  0  0  0  0  0
   42.7765   28.4473   42.3693 H   0  0  0  0  0  0  0  0  0  0  0  0
   41.6972   29.5589   43.1930 H   0  0  0  0  0  0  0  0  0  0  0  0
   37.9407   26.4391   42.4364 H   0  0  0  0  0  0  0  0  0  0  0  0
   35.2259   27.8732   44.4505 H   0  0  0  0  0  0  0  0  0  0  0  0
   35.7358   26.4610   43.4870 H   0  0  0  0  0  0  0  0  0  0  0  0
   39.6196   31.1309   38.8599 H   0  0  0  0  0  0  0  0  0  0  0  0
   40.2635   30.4928   41.3775 H   0  0  0  0  0  0  0  0  0  0  0  0
   38.7724   27.1518   37.1134 H   0  0  0  0  0  0  0  0  0  0  0  0
   37.0255   30.9661   37.8541 H   0  0  0  0  0  0  0  0  0  0  0  0
   36.3739   28.9490   34.1490 H   0  0  0  0  0  0  0  0  0  0  0  0
  1 12  1  0
  2  1  1  0
  2  6  1  0
  3  2  1  0
  3  4  1  0
  4  5  1  0
  6  5  1  0
  6  7  1  0
  7  8  1  0
  9  8  1  0
 10  9  1  0
 11  7  1  0
 11 10  1  0
 12 13  1  0
 13 15  1  0
 13 14  2  0
 14 16  1  0
 17 18  1  0
 17 21  2  0
 18 19  2  0
 19 20  1  0
 20  1  1  0
 21 20  1  0
 22 23  2  0
 23 17  1  0
 24 23  1  0
 25 24  2  0
 26 27  2  0
 26 25  1  0
 27 22  1  0
  1 28  1  1
  2 29  1  6
  3 30  1  0
  3 31  1  0
  4 32  1  0
  4 33  1  0
  5 34  1  0
  5 35  1  0
  6 36  1  1
  8 37  1  0
  8 38  1  0
  9 39  1  0
  9 40  1  0
 10 41  1  0
 10 42  1  0
 11 43  1  0
 11 44  1  0
 12 45  1  0
 15 46  1  0
 15 47  1  0
 18 48  1  0
 19 49  1  0
 22 50  1  0
 24 51  1  0
 26 52  1  0
M  ISO  8  28   8  29  13  30  13  31  13  32  13  33  13  34  13  35  13
M  ISO  8  36  13  37  13  38  13  39  13  40  13  41  13  42  13  43  13
M  ISO  6  44  13  48  14  49  14  50  14  51  14  52  14
M  END
>  <minimizedAffinity>  (1) 
-5.15150261

>  <minimizedRMSD>  (1) 
0.38978368

$$$$
