
     RDKit          3D

 33 35  0  0  0  0  0  0  0  0999 V2000
   38.3360   32.1730   40.7080 C   0  0  0  0  0  0  0  0  0  0  0  0
   36.9950   32.2620   40.2110 C   0  0  0  0  0  0  0  0  0  0  0  0
   36.2840   30.5910   40.6350 S   0  0  0  0  0  0  0  0  0  0  0  0
   37.9370   30.0940   41.4030 C   0  0  0  0  0  0  0  0  0  0  0  0
   38.5700   31.0120   41.2530 N   0  0  0  0  0  0  0  0  0  0  0  0
   40.6020   33.1400   40.5860 C   0  0  0  0  0  0  0  0  0  0  0  0
   39.2360   33.3120   40.5610 C   0  0  0  0  0  0  0  0  0  0  0  0
   38.7670   34.6120   40.3920 C   0  0  0  0  0  0  0  0  0  0  0  0
   39.6620   35.6290   40.2610 N   0  0  0  0  0  0  0  0  0  0  0  0
   40.9930   35.4110   40.2920 C   0  0  0  0  0  0  0  0  0  0  0  0
   41.4460   34.1720   40.4520 N   0  0  0  0  0  0  0  0  0  0  0  0
   38.1940   28.7750   42.0190 C   0  0  0  0  0  0  0  0  0  0  0  0
   38.3730   28.6220   43.3350 N   0  0  0  0  0  0  0  0  0  0  0  0
   38.5810   27.3680   43.6100 O   0  0  0  0  0  0  0  0  0  0  0  0
   38.5340   26.7240   42.4680 C   0  0  0  0  0  0  0  0  0  0  0  0
   38.2930   27.5620   41.4300 N   0  0  0  0  0  0  0  0  0  0  0  0
   38.7030   25.2550   42.1760 C   0  0  0  0  0  0  0  0  0  0  0  0
   39.3080   25.0300   40.8210 C   0  0  0  0  0  0  0  0  0  0  0  0
   37.3210   24.6260   42.2180 C   0  0  0  0  0  0  0  0  0  0  0  0
   39.5470   24.5650   43.2120 C   0  0  0  0  0  0  0  0  0  0  0  0
   36.5058   33.1071   39.7045 H   0  0  0  0  0  0  0  0  0  0  0  0
   41.0115   32.1278   40.7196 H   0  0  0  0  0  0  0  0  0  0  0  0
   37.6862   34.8147   40.3647 H   0  0  0  0  0  0  0  0  0  0  0  0
   41.6961   36.2503   40.1859 H   0  0  0  0  0  0  0  0  0  0  0  0
   40.3334   24.6487   40.9360 H   0  0  0  0  0  0  0  0  0  0  0  0
   38.7040   24.2964   40.2670 H   0  0  0  0  0  0  0  0  0  0  0  0
   39.3301   25.9800   40.2670 H   0  0  0  0  0  0  0  0  0  0  0  0
   37.0135   24.4860   43.2648 H   0  0  0  0  0  0  0  0  0  0  0  0
   36.6023   25.2857   41.7098 H   0  0  0  0  0  0  0  0  0  0  0  0
   37.3464   23.6508   41.7098 H   0  0  0  0  0  0  0  0  0  0  0  0
   39.1997   24.8490   44.2164 H   0  0  0  0  0  0  0  0  0  0  0  0
   39.4609   23.4753   43.0887 H   0  0  0  0  0  0  0  0  0  0  0  0
   40.5978   24.8660   43.0887 H   0  0  0  0  0  0  0  0  0  0  0  0
  1  5  1  0
  2  3  1  0
  2  1  2  0
  3  4  1  0
  4 12  1  0
  5  4  2  0
  7  6  2  0
  7  1  1  0
  8  7  1  0
  9 10  1  0
  9  8  2  0
 10 11  2  0
 11  6  1  0
 12 13  2  0
 13 14  1  0
 15 14  1  0
 16 12  1  0
 16 15  2  0
 17 19  1  0
 17 15  1  0
 17 20  1  0
 18 17  1  0
  2 21  1  0
  6 22  1  0
  8 23  1  0
 10 24  1  0
 18 25  1  0
 18 26  1  0
 18 27  1  0
 19 28  1  0
 19 29  1  0
 19 30  1  0
 20 31  1  0
 20 32  1  0
 20 33  1  0
M  ISO  8  21  14  22  14  23  14  24  14  25   8  26   8  27   8  28   8
M  ISO  5  29   8  30   8  31   8  32   8  33   8
M  END
>  <minimizedAffinity>  (1) 
-5.55155993

>  <minimizedRMSD>  (1) 
3.2548337

$$$$
