
     RDKit          3D

 53 56  0  0  1  0  0  0  0  0999 V2000
   39.3450   28.1570   42.2700 C   0  0  2  0  0  0  0  0  0  0  0  0
   40.5510   27.1890   42.2280 C   0  0  2  0  0  0  0  0  0  0  0  0
   40.2760   25.9390   41.5440 C   0  0  0  0  0  0  0  0  0  0  0  0
   40.6380   24.7770   42.4450 C   0  0  0  0  0  0  0  0  0  0  0  0
   41.3880   25.3830   43.5990 C   0  0  0  0  0  0  0  0  0  0  0  0
   40.8580   26.8120   43.6430 C   0  0  1  0  0  0  0  0  0  0  0  0
   41.8700   27.7210   44.1420 N   0  0  0  0  0  0  0  0  0  0  0  0
   42.5770   27.1300   45.2840 C   0  0  0  0  0  0  0  0  0  0  0  0
   43.7860   28.0270   45.4930 C   0  0  0  0  0  0  0  0  0  0  0  0
   43.5920   29.3210   45.0150 O   0  0  0  0  0  0  0  0  0  0  0  0
   43.4630   29.3790   43.6290 C   0  0  0  0  0  0  0  0  0  0  0  0
   42.8820   28.0570   43.1490 C   0  0  0  0  0  0  0  0  0  0  0  0
   38.1610   27.4720   42.6550 N   0  0  0  0  0  0  0  0  0  0  0  0
   37.1800   28.0900   43.4680 C   0  0  0  0  0  0  0  0  0  0  0  0
   37.4210   29.2700   43.9360 N   0  0  0  0  0  0  0  0  0  0  0  0
   35.9700   27.4180   43.7480 N   0  0  0  0  0  0  0  0  0  0  0  0
   36.7140   29.7550   44.5270 H   0  0  0  0  0  0  0  0  0  0  0  0
   38.6380   29.1440   38.8610 C   0  0  0  0  0  0  0  0  0  0  0  0
   39.5430   30.1330   39.2340 C   0  0  0  0  0  0  0  0  0  0  0  0
   39.8590   29.8230   40.5270 C   0  0  0  0  0  0  0  0  0  0  0  0
   39.1850   28.7050   40.9210 N   0  0  0  0  0  0  0  0  0  0  0  0
   38.4560   28.3130   39.9030 N   0  0  0  0  0  0  0  0  0  0  0  0
   38.1320   27.9790   36.6940 C   0  0  0  0  0  0  0  0  0  0  0  0
   38.0120   29.0500   37.5550 C   0  0  0  0  0  0  0  0  0  0  0  0
   37.2390   30.1040   37.1340 C   0  0  0  0  0  0  0  0  0  0  0  0
   36.6150   30.0930   35.9180 N   0  0  0  0  0  0  0  0  0  0  0  0
   36.7800   28.9860   35.1060 C   0  0  0  0  0  0  0  0  0  0  0  0
   37.5530   27.9190   35.5120 N   0  0  0  0  0  0  0  0  0  0  0  0
   39.5221   28.9548   43.0063 H   0  0  0  0  0  0  0  0  0  0  0  0
   41.3623   27.7068   41.6954 H   0  0  0  0  0  0  0  0  0  0  0  0
   39.2066   25.8873   41.2916 H   0  0  0  0  0  0  0  0  0  0  0  0
   40.8746   25.8873   40.6226 H   0  0  0  0  0  0  0  0  0  0  0  0
   39.7297   24.2689   42.8010 H   0  0  0  0  0  0  0  0  0  0  0  0
   41.2404   24.0231   41.9171 H   0  0  0  0  0  0  0  0  0  0  0  0
   41.1677   24.8510   44.5362 H   0  0  0  0  0  0  0  0  0  0  0  0
   42.4803   25.3302   43.4805 H   0  0  0  0  0  0  0  0  0  0  0  0
   39.9791   26.8725   44.3017 H   0  0  0  0  0  0  0  0  0  0  0  0
   41.9363   27.1274   46.1782 H   0  0  0  0  0  0  0  0  0  0  0  0
   42.8611   26.0830   45.1021 H   0  0  0  0  0  0  0  0  0  0  0  0
   44.0014   28.0798   46.5704 H   0  0  0  0  0  0  0  0  0  0  0  0
   44.6224   27.5893   44.9284 H   0  0  0  0  0  0  0  0  0  0  0  0
   42.7900   30.2038   43.3520 H   0  0  0  0  0  0  0  0  0  0  0  0
   44.4441   29.5538   43.1634 H   0  0  0  0  0  0  0  0  0  0  0  0
   42.4275   28.1706   42.1538 H   0  0  0  0  0  0  0  0  0  0  0  0
   43.6485   27.2741   43.0517 H   0  0  0  0  0  0  0  0  0  0  0  0
   38.0130   26.5041   42.3355 H   0  0  0  0  0  0  0  0  0  0  0  0
   35.2563   27.8673   44.3393 H   0  0  0  0  0  0  0  0  0  0  0  0
   35.8011   26.4786   43.3609 H   0  0  0  0  0  0  0  0  0  0  0  0
   39.9177   30.9710   38.6279 H   0  0  0  0  0  0  0  0  0  0  0  0
   40.5563   30.3930   41.1586 H   0  0  0  0  0  0  0  0  0  0  0  0
   38.7473   27.1248   37.0130 H   0  0  0  0  0  0  0  0  0  0  0  0
   37.1191   30.9780   37.7911 H   0  0  0  0  0  0  0  0  0  0  0  0
   36.2878   28.9563   34.1227 H   0  0  0  0  0  0  0  0  0  0  0  0
  1 13  1  0
  2  1  1  0
  2  6  1  0
  3  2  1  0
  3  4  1  0
  4  5  1  0
  5  6  1  0
  6  7  1  0
  7  8  1  0
  8  9  1  0
 10  9  1  0
 11 10  1  0
 12 11  1  0
 12  7  1  0
 13 14  1  0
 14 16  1  0
 14 15  2  0
 15 17  1  0
 18 19  1  0
 18 22  2  0
 19 20  2  0
 20 21  1  0
 21  1  1  0
 22 21  1  0
 23 24  2  0
 24 18  1  0
 25 24  1  0
 26 25  2  0
 27 28  2  0
 27 26  1  0
 28 23  1  0
  1 29  1  1
  2 30  1  6
  3 31  1  0
  3 32  1  0
  4 33  1  0
  4 34  1  0
  5 35  1  0
  5 36  1  0
  6 37  1  1
  8 38  1  0
  8 39  1  0
  9 40  1  0
  9 41  1  0
 11 42  1  0
 11 43  1  0
 12 44  1  0
 12 45  1  0
 13 46  1  0
 16 47  1  0
 16 48  1  0
 19 49  1  0
 20 50  1  0
 23 51  1  0
 25 52  1  0
 27 53  1  0
M  ISO  8  29   8  30  13  31  13  32  13  33  13  34  13  35  13  36  13
M  ISO  8  37  13  38  13  39  13  40  13  41  13  42  13  43  13  44  13
M  ISO  6  45  13  49  14  50  14  51  14  52  14  53  14
M  END
>  <minimizedAffinity>  (1) 
-5.14664173

>  <minimizedRMSD>  (1) 
0.550482512

$$$$
