
     RDKit          3D

 28 31  0  0  0  0  0  0  0  0999 V2000
   38.3720   32.4150   40.6320 C   0  0  0  0  0  0  0  0  0  0  0  0
   37.1250   32.4220   39.9460 C   0  0  0  0  0  0  0  0  0  0  0  0
   36.3480   30.7990   40.3920 S   0  0  0  0  0  0  0  0  0  0  0  0
   37.8650   30.3860   41.4430 C   0  0  0  0  0  0  0  0  0  0  0  0
   38.4860   31.3060   41.2890 N   0  0  0  0  0  0  0  0  0  0  0  0
   40.6510   33.3480   40.5770 C   0  0  0  0  0  0  0  0  0  0  0  0
   39.2700   33.5530   40.5120 C   0  0  0  0  0  0  0  0  0  0  0  0
   38.8040   34.8480   40.3340 C   0  0  0  0  0  0  0  0  0  0  0  0
   39.6980   35.8600   40.2310 N   0  0  0  0  0  0  0  0  0  0  0  0
   41.0400   35.6260   40.2990 C   0  0  0  0  0  0  0  0  0  0  0  0
   41.5020   34.3760   40.4700 N   0  0  0  0  0  0  0  0  0  0  0  0
   38.0360   29.1290   42.2110 C   0  0  0  0  0  0  0  0  0  0  0  0
   37.0280   28.2640   42.3600 N   0  0  0  0  0  0  0  0  0  0  0  0
   37.4380   27.2460   43.0730 O   0  0  0  0  0  0  0  0  0  0  0  0
   38.7080   27.4770   43.3710 C   0  0  0  0  0  0  0  0  0  0  0  0
   39.1390   28.6590   42.8480 N   0  0  0  0  0  0  0  0  0  0  0  0
   39.5930   26.5820   44.1750 C   0  0  0  0  0  0  0  0  0  0  0  0
   41.0360   26.5860   43.8740 C   0  0  0  0  0  0  0  0  0  0  0  0
   40.2250   25.4710   43.3350 C   0  0  0  0  0  0  0  0  0  0  0  0
   36.7153   33.2111   39.2983 H   0  0  0  0  0  0  0  0  0  0  0  0
   41.0433   32.3300   40.7177 H   0  0  0  0  0  0  0  0  0  0  0  0
   37.7241   35.0496   40.2774 H   0  0  0  0  0  0  0  0  0  0  0  0
   41.7471   36.4643   40.2135 H   0  0  0  0  0  0  0  0  0  0  0  0
   39.0160   26.6718   45.1072 H   0  0  0  0  0  0  0  0  0  0  0  0
   41.4457   27.3414   43.1873 H   0  0  0  0  0  0  0  0  0  0  0  0
   41.9448   26.6405   44.4914 H   0  0  0  0  0  0  0  0  0  0  0  0
   40.0190   25.4070   42.2564 H   0  0  0  0  0  0  0  0  0  0  0  0
   40.2656   24.3730   43.3870 H   0  0  0  0  0  0  0  0  0  0  0  0
  1  5  1  0
  2  3  1  0
  2  1  2  0
  3  4  1  0
  4 12  1  0
  5  4  2  0
  7  6  2  0
  7  1  1  0
  8  7  1  0
  9 10  1  0
  9  8  2  0
 10 11  2  0
 11  6  1  0
 12 13  2  0
 12 16  1  0
 13 14  1  0
 14 15  1  0
 15 17  1  0
 16 15  2  0
 18 17  1  0
 19 18  1  0
 19 17  1  0
  2 20  1  0
  6 21  1  0
  8 22  1  0
 10 23  1  0
 17 24  1  0
 18 25  1  0
 18 26  1  0
 19 27  1  0
 19 28  1  0
M  ISO  8  20  14  21  14  22  14  23  14  24  13  25  13  26  13  27  13
M  ISO  1  28  13
M  END
>  <minimizedAffinity>  (1) 
-5.49821854

>  <minimizedRMSD>  (1) 
2.57846642

$$$$
