
     RDKit          3D

 36 39  0  0  0  0  0  0  0  0999 V2000
   37.7660   30.3920   41.3160 C   0  0  0  0  0  0  0  0  0  0  0  0
   36.5450   29.6760   41.1450 C   0  0  0  0  0  0  0  0  0  0  0  0
   36.8560   28.0350   41.9550 S   0  0  0  0  0  0  0  0  0  0  0  0
   38.6040   28.6090   42.3880 C   0  0  0  0  0  0  0  0  0  0  0  0
   38.6120   29.6450   41.9550 N   0  0  0  0  0  0  0  0  0  0  0  0
   39.6090   27.7950   43.1190 C   0  0  0  0  0  0  0  0  0  0  0  0
   39.2930   26.5930   43.6110 N   0  0  0  0  0  0  0  0  0  0  0  0
   40.3440   26.0860   44.2040 O   0  0  0  0  0  0  0  0  0  0  0  0
   41.3200   26.9710   44.0820 C   0  0  0  0  0  0  0  0  0  0  0  0
   40.9000   28.0640   43.4050 N   0  0  0  0  0  0  0  0  0  0  0  0
   42.6170   26.7410   44.6190 N   0  0  0  0  0  0  0  0  0  0  0  0
   43.6110   26.0900   43.7940 C   0  0  0  0  0  0  0  0  0  0  0  0
   44.9210   26.1480   44.5850 C   0  0  0  0  0  0  0  0  0  0  0  0
   45.1950   27.5580   45.0220 C   0  0  0  0  0  0  0  0  0  0  0  0
   44.1180   28.1080   45.9120 C   0  0  0  0  0  0  0  0  0  0  0  0
   42.9740   27.1420   45.9650 C   0  0  0  0  0  0  0  0  0  0  0  0
   38.9450   32.5500   41.2280 C   0  0  0  0  0  0  0  0  0  0  0  0
   37.8990   31.7440   40.7980 C   0  0  0  0  0  0  0  0  0  0  0  0
   37.0040   32.2690   39.8750 C   0  0  0  0  0  0  0  0  0  0  0  0
   37.1810   33.5390   39.4300 N   0  0  0  0  0  0  0  0  0  0  0  0
   38.2200   34.2980   39.8750 C   0  0  0  0  0  0  0  0  0  0  0  0
   39.0920   33.8000   40.7690 N   0  0  0  0  0  0  0  0  0  0  0  0
   35.6265   30.0185   40.6460 H   0  0  0  0  0  0  0  0  0  0  0  0
   43.7192   26.6201   42.8362 H   0  0  0  0  0  0  0  0  0  0  0  0
   43.3259   25.0530   43.5629 H   0  0  0  0  0  0  0  0  0  0  0  0
   44.8404   25.5012   45.4711 H   0  0  0  0  0  0  0  0  0  0  0  0
   45.7454   25.8020   43.9442 H   0  0  0  0  0  0  0  0  0  0  0  0
   46.1486   27.5777   45.5700 H   0  0  0  0  0  0  0  0  0  0  0  0
   45.2321   28.1847   44.1188 H   0  0  0  0  0  0  0  0  0  0  0  0
   44.5197   28.2569   46.9251 H   0  0  0  0  0  0  0  0  0  0  0  0
   43.7673   29.0709   45.5121 H   0  0  0  0  0  0  0  0  0  0  0  0
   42.1096   27.6235   46.4455 H   0  0  0  0  0  0  0  0  0  0  0  0
   43.2696   26.2555   46.5453 H   0  0  0  0  0  0  0  0  0  0  0  0
   39.6660   32.1549   41.9588 H   0  0  0  0  0  0  0  0  0  0  0  0
   36.1620   31.6631   39.5091 H   0  0  0  0  0  0  0  0  0  0  0  0
   38.3468   35.3246   39.5009 H   0  0  0  0  0  0  0  0  0  0  0  0
  1  5  1  0
  2  1  2  0
  2  3  1  0
  3  4  1  0
  4  6  1  0
  5  4  2  0
  6 10  1  0
  6  7  2  0
  7  8  1  0
  9  8  1  0
  9 11  1  0
 10  9  2  0
 11 16  1  0
 12 13  1  0
 12 11  1  0
 13 14  1  0
 14 15  1  0
 15 16  1  0
 18 17  2  0
 18  1  1  0
 19 18  1  0
 20 21  1  0
 20 19  2  0
 21 22  2  0
 22 17  1  0
  2 23  1  0
 12 24  1  0
 12 25  1  0
 13 26  1  0
 13 27  1  0
 14 28  1  0
 14 29  1  0
 15 30  1  0
 15 31  1  0
 16 32  1  0
 16 33  1  0
 17 34  1  0
 19 35  1  0
 21 36  1  0
M  ISO  8  23  14  24  13  25  13  26  13  27  13  28  13  29  13  30  13
M  ISO  6  31  13  32  13  33  13  34  14  35  14  36  14
M  END
>  <minimizedAffinity>  (1) 
-5.46560001

>  <minimizedRMSD>  (1) 
0.485503137

$$$$
