
     RDKit          3D

 29 32  0  0  0  0  0  0  0  0999 V2000
   37.8170   30.3230   41.3480 C   0  0  0  0  0  0  0  0  0  0  0  0
   36.5980   29.6030   41.1760 C   0  0  0  0  0  0  0  0  0  0  0  0
   36.9160   27.9650   41.9830 S   0  0  0  0  0  0  0  0  0  0  0  0
   38.6630   28.5440   42.4180 C   0  0  0  0  0  0  0  0  0  0  0  0
   38.6710   29.5850   41.9870 N   0  0  0  0  0  0  0  0  0  0  0  0
   39.0250   32.4670   41.2320 C   0  0  0  0  0  0  0  0  0  0  0  0
   37.9510   31.6770   40.8360 C   0  0  0  0  0  0  0  0  0  0  0  0
   37.0130   32.2140   39.9400 C   0  0  0  0  0  0  0  0  0  0  0  0
   37.2160   33.4920   39.5090 N   0  0  0  0  0  0  0  0  0  0  0  0
   38.2720   34.2340   39.9140 C   0  0  0  0  0  0  0  0  0  0  0  0
   39.1640   33.7190   40.7680 N   0  0  0  0  0  0  0  0  0  0  0  0
   39.6600   27.7200   43.1470 C   0  0  0  0  0  0  0  0  0  0  0  0
   39.3820   26.4750   43.5450 N   0  0  0  0  0  0  0  0  0  0  0  0
   40.4150   25.9700   44.1580 O   0  0  0  0  0  0  0  0  0  0  0  0
   41.3430   26.8990   44.1460 C   0  0  0  0  0  0  0  0  0  0  0  0
   40.9240   28.0320   43.5190 N   0  0  0  0  0  0  0  0  0  0  0  0
   42.6950   26.7860   44.7250 C   0  0  0  0  0  0  0  0  0  0  0  0
   42.9990   27.2400   46.0130 C   0  0  0  0  0  0  0  0  0  0  0  0
   44.2990   27.0690   46.4210 C   0  0  0  0  0  0  0  0  0  0  0  0
   45.2460   26.5060   45.6580 N   0  0  0  0  0  0  0  0  0  0  0  0
   44.9430   26.0750   44.4240 C   0  0  0  0  0  0  0  0  0  0  0  0
   43.6750   26.2260   43.9890 N   0  0  0  0  0  0  0  0  0  0  0  0
   35.6781   29.9426   40.6776 H   0  0  0  0  0  0  0  0  0  0  0  0
   39.7690   32.0613   41.9334 H   0  0  0  0  0  0  0  0  0  0  0  0
   36.1478   31.6267   39.5988 H   0  0  0  0  0  0  0  0  0  0  0  0
   38.3975   35.2612   39.5411 H   0  0  0  0  0  0  0  0  0  0  0  0
   42.2417   27.7062   46.6604 H   0  0  0  0  0  0  0  0  0  0  0  0
   44.5780   27.4125   47.4280 H   0  0  0  0  0  0  0  0  0  0  0  0
   45.7080   25.6110   43.7842 H   0  0  0  0  0  0  0  0  0  0  0  0
  1  5  1  0
  2  1  2  0
  2  3  1  0
  3  4  1  0
  4 12  1  0
  5  4  2  0
  7  6  2  0
  7  1  1  0
  8  7  1  0
  9 10  1  0
  9  8  2  0
 10 11  2  0
 11  6  1  0
 12 16  1  0
 12 13  2  0
 13 14  1  0
 15 14  1  0
 15 17  1  0
 16 15  2  0
 17 18  2  0
 18 19  1  0
 20 19  2  0
 21 20  1  0
 22 21  2  0
 22 17  1  0
  2 23  1  0
  6 24  1  0
  8 25  1  0
 10 26  1  0
 18 27  1  0
 19 28  1  0
 21 29  1  0
M  ISO  7  23  14  24  14  25  14  26  14  27  14  28  14  29  14
M  END
>  <minimizedAffinity>  (1) 
-5.3714447

>  <minimizedRMSD>  (1) 
0.511303365

$$$$
