
     RDKit          3D

 30 33  0  0  0  0  0  0  0  0999 V2000
   37.7950   30.3070   41.3410 C   0  0  0  0  0  0  0  0  0  0  0  0
   36.5690   29.5910   41.1700 C   0  0  0  0  0  0  0  0  0  0  0  0
   36.9200   27.9520   41.9930 S   0  0  0  0  0  0  0  0  0  0  0  0
   38.6620   28.5490   42.4140 C   0  0  0  0  0  0  0  0  0  0  0  0
   38.6700   29.5840   41.9810 N   0  0  0  0  0  0  0  0  0  0  0  0
   38.9730   32.4820   41.2380 C   0  0  0  0  0  0  0  0  0  0  0  0
   37.9250   31.6620   40.8220 C   0  0  0  0  0  0  0  0  0  0  0  0
   37.0050   32.1760   39.8940 C   0  0  0  0  0  0  0  0  0  0  0  0
   37.1950   33.4550   39.4550 N   0  0  0  0  0  0  0  0  0  0  0  0
   38.2400   34.2140   39.8970 C   0  0  0  0  0  0  0  0  0  0  0  0
   39.1050   33.7200   40.7730 N   0  0  0  0  0  0  0  0  0  0  0  0
   39.6500   27.7240   43.1400 C   0  0  0  0  0  0  0  0  0  0  0  0
   39.3920   26.4760   43.5560 N   0  0  0  0  0  0  0  0  0  0  0  0
   40.4260   25.9870   44.1620 O   0  0  0  0  0  0  0  0  0  0  0  0
   41.3560   26.9280   44.1340 C   0  0  0  0  0  0  0  0  0  0  0  0
   40.9210   28.0420   43.5020 N   0  0  0  0  0  0  0  0  0  0  0  0
   42.7120   26.8090   44.7110 C   0  0  0  0  0  0  0  0  0  0  0  0
   43.0020   27.2580   46.0010 C   0  0  0  0  0  0  0  0  0  0  0  0
   44.2930   27.1240   46.5000 C   0  0  0  0  0  0  0  0  0  0  0  0
   45.2380   26.5440   45.6790 C   0  0  0  0  0  0  0  0  0  0  0  0
   44.9640   26.0970   44.4040 C   0  0  0  0  0  0  0  0  0  0  0  0
   43.6970   26.2520   43.9750 N   0  0  0  0  0  0  0  0  0  0  0  0
   35.6451   29.9243   40.6747 H   0  0  0  0  0  0  0  0  0  0  0  0
   39.7040   32.0973   41.9644 H   0  0  0  0  0  0  0  0  0  0  0  0
   36.1610   31.5697   39.5334 H   0  0  0  0  0  0  0  0  0  0  0  0
   38.3655   35.2414   39.5245 H   0  0  0  0  0  0  0  0  0  0  0  0
   42.2144   27.7147   46.6184 H   0  0  0  0  0  0  0  0  0  0  0  0
   44.5514   27.4679   47.5124 H   0  0  0  0  0  0  0  0  0  0  0  0
   46.2633   26.4324   46.0616 H   0  0  0  0  0  0  0  0  0  0  0  0
   45.7384   25.6386   43.7714 H   0  0  0  0  0  0  0  0  0  0  0  0
  1  5  1  0
  2  1  2  0
  2  3  1  0
  3  4  1  0
  4 12  1  0
  5  4  2  0
  7  6  2  0
  7  1  1  0
  8  7  1  0
  9  8  2  0
  9 10  1  0
 10 11  2  0
 11  6  1  0
 12 16  1  0
 12 13  2  0
 13 14  1  0
 15 14  1  0
 15 17  1  0
 16 15  2  0
 17 18  2  0
 18 19  1  0
 20 19  2  0
 21 20  1  0
 22 21  2  0
 22 17  1  0
  2 23  1  0
  6 24  1  0
  8 25  1  0
 10 26  1  0
 18 27  1  0
 19 28  1  0
 20 29  1  0
 21 30  1  0
M  ISO  8  23  14  24  14  25  14  26  14  27  14  28  14  29  14  30  14
M  END
>  <minimizedAffinity>  (1) 
-5.36753654

>  <minimizedRMSD>  (1) 
0.543281078

$$$$
