
     RDKit          3D

 30 32  0  0  0  0  0  0  0  0999 V2000
   37.6320   30.6390   41.1770 C   0  0  0  0  0  0  0  0  0  0  0  0
   36.3740   30.0280   40.8980 C   0  0  0  0  0  0  0  0  0  0  0  0
   36.5440   28.3410   41.6470 S   0  0  0  0  0  0  0  0  0  0  0  0
   38.3000   28.7710   42.2060 C   0  0  0  0  0  0  0  0  0  0  0  0
   38.4120   29.8240   41.8300 N   0  0  0  0  0  0  0  0  0  0  0  0
   39.0560   32.6660   41.1540 C   0  0  0  0  0  0  0  0  0  0  0  0
   37.9020   32.0140   40.7370 C   0  0  0  0  0  0  0  0  0  0  0  0
   36.9930   32.6790   39.8910 C   0  0  0  0  0  0  0  0  0  0  0  0
   37.3170   33.9530   39.5290 N   0  0  0  0  0  0  0  0  0  0  0  0
   38.4630   34.5570   39.9600 C   0  0  0  0  0  0  0  0  0  0  0  0
   39.3060   33.9150   40.7560 N   0  0  0  0  0  0  0  0  0  0  0  0
   39.1950   27.8480   42.9500 C   0  0  0  0  0  0  0  0  0  0  0  0
   38.7450   26.6750   43.4280 N   0  0  0  0  0  0  0  0  0  0  0  0
   39.7070   26.0490   44.0370 O   0  0  0  0  0  0  0  0  0  0  0  0
   40.7790   26.8310   43.9470 C   0  0  0  0  0  0  0  0  0  0  0  0
   40.4970   27.9800   43.2670 N   0  0  0  0  0  0  0  0  0  0  0  0
   42.1340   26.5380   44.4990 C   0  0  0  0  0  0  0  0  0  0  0  0
   42.7930   25.5610   43.5580 C   0  0  0  0  0  0  0  0  0  0  0  0
   42.9880   27.7490   44.6750 C   0  0  0  0  0  0  0  0  0  0  0  0
   35.5108   30.4549   40.3664 H   0  0  0  0  0  0  0  0  0  0  0  0
   39.7672   32.1499   41.8157 H   0  0  0  0  0  0  0  0  0  0  0  0
   36.0693   32.1954   39.5404 H   0  0  0  0  0  0  0  0  0  0  0  0
   38.6888   35.5861   39.6437 H   0  0  0  0  0  0  0  0  0  0  0  0
   42.0171   26.1222   45.5107 H   0  0  0  0  0  0  0  0  0  0  0  0
   43.3151   24.7870   44.1396 H   0  0  0  0  0  0  0  0  0  0  0  0
   42.0277   25.0895   42.9240 H   0  0  0  0  0  0  0  0  0  0  0  0
   43.5169   26.0939   42.9240 H   0  0  0  0  0  0  0  0  0  0  0  0
   43.1273   27.9466   45.7481 H   0  0  0  0  0  0  0  0  0  0  0  0
   43.9671   27.5789   44.2033 H   0  0  0  0  0  0  0  0  0  0  0  0
   42.4991   28.6142   44.2033 H   0  0  0  0  0  0  0  0  0  0  0  0
  1  5  1  0
  2  1  2  0
  2  3  1  0
  3  4  1  0
  4 12  1  0
  5  4  2  0
  7  6  2  0
  7  1  1  0
  8  7  1  0
  9  8  2  0
  9 10  1  0
 10 11  2  0
 11  6  1  0
 12 16  1  0
 12 13  2  0
 13 14  1  0
 15 14  1  0
 15 17  1  0
 16 15  2  0
 17 19  1  0
 18 17  1  0
  2 20  1  0
  6 21  1  0
  8 22  1  0
 10 23  1  0
 17 24  1  0
 18 25  1  0
 18 26  1  0
 18 27  1  0
 19 28  1  0
 19 29  1  0
 19 30  1  0
M  ISO  8  20  14  21  14  22  14  23  14  24   8  25   8  26   8  27   8
M  ISO  3  28   8  29   8  30   8
M  END
>  <minimizedAffinity>  (1) 
-5.01082134

>  <minimizedRMSD>  (1) 
0.481615931

$$$$
