
     RDKit          3D

 36 40  0  0  0  0  0  0  0  0999 V2000
   39.7590   27.6060   43.1480 C   0  0  0  0  0  0  0  0  0  0  0  0
   39.4220   26.3840   43.5960 N   0  0  0  0  0  0  0  0  0  0  0  0
   40.4780   25.8130   44.1080 O   0  0  0  0  0  0  0  0  0  0  0  0
   41.4850   26.6880   43.9790 C   0  0  0  0  0  0  0  0  0  0  0  0
   41.0730   27.8370   43.3760 N   0  0  0  0  0  0  0  0  0  0  0  0
   37.9160   30.3140   41.5040 C   0  0  0  0  0  0  0  0  0  0  0  0
   36.6480   29.6860   41.4740 C   0  0  0  0  0  0  0  0  0  0  0  0
   36.9420   28.0490   42.2690 S   0  0  0  0  0  0  0  0  0  0  0  0
   38.7590   28.4890   42.5150 C   0  0  0  0  0  0  0  0  0  0  0  0
   38.7620   29.5110   42.0640 N   0  0  0  0  0  0  0  0  0  0  0  0
   39.2620   32.3630   41.2220 C   0  0  0  0  0  0  0  0  0  0  0  0
   38.0920   31.6560   40.9540 C   0  0  0  0  0  0  0  0  0  0  0  0
   37.1000   32.2380   40.1610 C   0  0  0  0  0  0  0  0  0  0  0  0
   37.3460   33.4920   39.6880 N   0  0  0  0  0  0  0  0  0  0  0  0
   38.5070   34.1610   39.9710 C   0  0  0  0  0  0  0  0  0  0  0  0
   39.4450   33.5890   40.7310 N   0  0  0  0  0  0  0  0  0  0  0  0
   43.2170   26.5400   44.4760 S   0  0  0  0  0  0  0  0  0  0  0  0
   43.7550   28.0360   45.2980 C   0  0  0  0  0  0  0  0  0  0  0  0
   44.4760   29.1520   44.9310 C   0  0  0  0  0  0  0  0  0  0  0  0
   44.5830   29.9830   45.9810 N   0  0  0  0  0  0  0  0  0  0  0  0
   43.9350   29.4210   47.0430 C   0  0  0  0  0  0  0  0  0  0  0  0
   43.7990   29.9360   48.3190 C   0  0  0  0  0  0  0  0  0  0  0  0
   43.0960   29.1790   49.2310 C   0  0  0  0  0  0  0  0  0  0  0  0
   42.5500   27.9560   48.8850 C   0  0  0  0  0  0  0  0  0  0  0  0
   42.7190   27.5040   47.6130 C   0  0  0  0  0  0  0  0  0  0  0  0
   43.4140   28.2100   46.6430 C   0  0  0  0  0  0  0  0  0  0  0  0
   35.7051   30.0829   41.0698 H   0  0  0  0  0  0  0  0  0  0  0  0
   40.0436   31.9047   41.8457 H   0  0  0  0  0  0  0  0  0  0  0  0
   36.1640   31.7087   39.9292 H   0  0  0  0  0  0  0  0  0  0  0  0
   38.6677   35.1730   39.5711 H   0  0  0  0  0  0  0  0  0  0  0  0
   44.8988   29.3341   43.9319 H   0  0  0  0  0  0  0  0  0  0  0  0
   45.0710   30.8900   45.9843 H   0  0  0  0  0  0  0  0  0  0  0  0
   44.2334   30.9084   48.5943 H   0  0  0  0  0  0  0  0  0  0  0  0
   42.9662   29.5554   50.2564 H   0  0  0  0  0  0  0  0  0  0  0  0
   41.9910   27.3616   49.6227 H   0  0  0  0  0  0  0  0  0  0  0  0
   42.2832   26.5314   47.3409 H   0  0  0  0  0  0  0  0  0  0  0  0
  1  5  1  0
  1  2  2  0
  2  3  1  0
  4  3  1  0
  4 17  1  0
  5  4  2  0
  6 10  1  0
  7  6  2  0
  7  8  1  0
  8  9  1  0
  9  1  1  0
 10  9  2  0
 12 11  2  0
 12  6  1  0
 13 12  1  0
 14 15  1  0
 14 13  2  0
 15 16  2  0
 16 11  1  0
 17 18  1  0
 18 26  1  0
 19 18  2  0
 19 20  1  0
 20 21  1  0
 21 22  2  0
 22 23  1  0
 24 23  2  0
 25 24  1  0
 26 21  1  0
 26 25  2  0
  7 27  1  0
 11 28  1  0
 13 29  1  0
 15 30  1  0
 19 31  1  0
 20 32  1  0
 22 33  1  0
 23 34  1  0
 24 35  1  0
 25 36  1  0
M  ISO  8  27  14  28  14  29  14  30  14  31  14  32   9  33  14  34  14
M  ISO  2  35  14  36  14
M  END
>  <minimizedAffinity>  (1) 
-6.96944284

>  <minimizedRMSD>  (1) 
1.72284222

$$$$
