
     RDKit          3D

 32 35  0  0  0  0  0  0  0  0999 V2000
   37.8760   30.2670   41.3900 C   0  0  0  0  0  0  0  0  0  0  0  0
   36.6620   29.5470   41.2250 C   0  0  0  0  0  0  0  0  0  0  0  0
   36.9900   27.9250   42.0330 S   0  0  0  0  0  0  0  0  0  0  0  0
   38.7460   28.4990   42.4670 C   0  0  0  0  0  0  0  0  0  0  0  0
   38.7300   29.5220   42.0310 N   0  0  0  0  0  0  0  0  0  0  0  0
   39.1090   32.4020   41.2340 C   0  0  0  0  0  0  0  0  0  0  0  0
   38.0250   31.6290   40.8740 C   0  0  0  0  0  0  0  0  0  0  0  0
   37.0440   32.1560   39.9990 C   0  0  0  0  0  0  0  0  0  0  0  0
   37.2380   33.4250   39.5570 N   0  0  0  0  0  0  0  0  0  0  0  0
   38.3250   34.1540   39.9380 C   0  0  0  0  0  0  0  0  0  0  0  0
   39.2430   33.6440   40.7640 N   0  0  0  0  0  0  0  0  0  0  0  0
   39.7410   27.6840   43.1920 C   0  0  0  0  0  0  0  0  0  0  0  0
   39.4880   26.4070   43.5410 N   0  0  0  0  0  0  0  0  0  0  0  0
   40.5460   25.9430   44.1670 O   0  0  0  0  0  0  0  0  0  0  0  0
   41.4380   26.9140   44.2040 C   0  0  0  0  0  0  0  0  0  0  0  0
   40.9690   28.0130   43.6050 N   0  0  0  0  0  0  0  0  0  0  0  0
   43.0550   26.8280   44.9360 S   0  0  0  0  0  0  0  0  0  0  0  0
   43.2200   27.8050   46.3800 C   0  0  0  0  0  0  0  0  0  0  0  0
   43.8810   29.0080   46.0890 C   0  0  0  0  0  0  0  0  0  0  0  0
   44.1390   29.9670   47.0700 C   0  0  0  0  0  0  0  0  0  0  0  0
   43.7420   29.7460   48.3700 C   0  0  0  0  0  0  0  0  0  0  0  0
   43.0890   28.5620   48.6700 C   0  0  0  0  0  0  0  0  0  0  0  0
   42.8430   27.6290   47.6940 C   0  0  0  0  0  0  0  0  0  0  0  0
   35.7390   29.8815   40.7289 H   0  0  0  0  0  0  0  0  0  0  0  0
   39.8696   31.9914   41.9143 H   0  0  0  0  0  0  0  0  0  0  0  0
   36.1677   31.5660   39.6925 H   0  0  0  0  0  0  0  0  0  0  0  0
   38.4484   35.1793   39.5591 H   0  0  0  0  0  0  0  0  0  0  0  0
   44.2059   29.2014   45.0560 H   0  0  0  0  0  0  0  0  0  0  0  0
   44.6594   30.8991   46.8047 H   0  0  0  0  0  0  0  0  0  0  0  0
   43.9391   30.4933   49.1528 H   0  0  0  0  0  0  0  0  0  0  0  0
   42.7637   28.3672   49.7026 H   0  0  0  0  0  0  0  0  0  0  0  0
   42.3225   26.7008   47.9724 H   0  0  0  0  0  0  0  0  0  0  0  0
  1  5  1  0
  2  1  2  0
  2  3  1  0
  3  4  1  0
  4 12  1  0
  5  4  2  0
  7  6  2  0
  7  1  1  0
  8  7  1  0
  9 10  1  0
  9  8  2  0
 10 11  2  0
 11  6  1  0
 12 13  2  0
 12 16  1  0
 13 14  1  0
 14 15  1  0
 15 17  1  0
 16 15  2  0
 17 18  1  0
 18 23  1  0
 19 18  2  0
 19 20  1  0
 20 21  2  0
 21 22  1  0
 23 22  2  0
  2 24  1  0
  6 25  1  0
  8 26  1  0
 10 27  1  0
 19 28  1  0
 20 29  1  0
 21 30  1  0
 22 31  1  0
 23 32  1  0
M  ISO  8  24  14  25  14  26  14  27  14  28  14  29  14  30  14  31  14
M  ISO  1  32  14
M  END
>  <minimizedAffinity>  (1) 
-6.35403204

>  <minimizedRMSD>  (1) 
2.20467305

$$$$
