
     RDKit          3D

 33 37  0  0  0  0  0  0  0  0999 V2000
   39.2470   27.8600   42.9810 C   0  0  0  0  0  0  0  0  0  0  0  0
   38.8020   26.6550   43.4240 N   0  0  0  0  0  0  0  0  0  0  0  0
   39.7880   26.0610   44.0460 O   0  0  0  0  0  0  0  0  0  0  0  0
   40.8350   26.8830   43.9940 C   0  0  0  0  0  0  0  0  0  0  0  0
   40.5470   28.0370   43.3300 N   0  0  0  0  0  0  0  0  0  0  0  0
   37.6540   30.6270   41.1860 C   0  0  0  0  0  0  0  0  0  0  0  0
   36.4190   29.9900   40.9180 C   0  0  0  0  0  0  0  0  0  0  0  0
   36.5990   28.3210   41.6700 S   0  0  0  0  0  0  0  0  0  0  0  0
   38.3500   28.7640   42.2350 C   0  0  0  0  0  0  0  0  0  0  0  0
   38.4080   29.8040   41.8390 N   0  0  0  0  0  0  0  0  0  0  0  0
   39.0570   32.6580   41.1530 C   0  0  0  0  0  0  0  0  0  0  0  0
   37.9040   31.9930   40.7390 C   0  0  0  0  0  0  0  0  0  0  0  0
   37.0020   32.6490   39.8980 C   0  0  0  0  0  0  0  0  0  0  0  0
   37.3030   33.9210   39.5240 N   0  0  0  0  0  0  0  0  0  0  0  0
   38.4520   34.5450   39.9550 C   0  0  0  0  0  0  0  0  0  0  0  0
   39.2970   33.9090   40.7510 N   0  0  0  0  0  0  0  0  0  0  0  0
   42.4990   26.6840   44.6490 S   0  0  0  0  0  0  0  0  0  0  0  0
   47.0470   25.2560   43.3310 N   0  0  0  0  0  0  0  0  0  0  0  0
   46.8580   25.5400   44.6520 C   0  0  0  0  0  0  0  0  0  0  0  0
   45.5760   25.9150   44.8760 N   0  0  0  0  0  0  0  0  0  0  0  0
   44.9320   25.8760   43.6950 C   0  0  0  0  0  0  0  0  0  0  0  0
   43.6090   26.1630   43.3490 C   0  0  0  0  0  0  0  0  0  0  0  0
   43.2600   26.0280   42.0690 N   0  0  0  0  0  0  0  0  0  0  0  0
   44.1490   25.6290   41.1290 C   0  0  0  0  0  0  0  0  0  0  0  0
   45.4320   25.3480   41.4520 N   0  0  0  0  0  0  0  0  0  0  0  0
   45.8470   25.4640   42.7300 C   0  0  0  0  0  0  0  0  0  0  0  0
   35.5499   30.3995   40.3823 H   0  0  0  0  0  0  0  0  0  0  0  0
   39.7736   32.1495   41.8148 H   0  0  0  0  0  0  0  0  0  0  0  0
   36.0824   32.1549   39.5512 H   0  0  0  0  0  0  0  0  0  0  0  0
   38.6686   35.5755   39.6368 H   0  0  0  0  0  0  0  0  0  0  0  0
   47.9208   24.9471   42.8816 H   0  0  0  0  0  0  0  0  0  0  0  0
   47.6369   25.4738   45.4259 H   0  0  0  0  0  0  0  0  0  0  0  0
   43.8218   25.5316   40.0833 H   0  0  0  0  0  0  0  0  0  0  0  0
  1  5  1  0
  1  2  2  0
  2  3  1  0
  4  3  1  0
  4 17  1  0
  5  4  2  0
  6 10  1  0
  7  6  2  0
  7  8  1  0
  8  9  1  0
  9  1  1  0
 10  9  2  0
 12 11  2  0
 12  6  1  0
 13 12  1  0
 14 13  2  0
 14 15  1  0
 15 16  2  0
 16 11  1  0
 18 19  1  0
 19 20  2  0
 21 20  1  0
 22 21  2  0
 22 17  1  0
 23 22  1  0
 24 25  1  0
 24 23  2  0
 25 26  2  0
 26 18  1  0
 26 21  1  0
  7 27  1  0
 11 28  1  0
 13 29  1  0
 15 30  1  0
 18 31  1  0
 19 32  1  0
 24 33  1  0
M  ISO  7  27  14  28  14  29  14  30  14  31   9  32  14  33  14
M  END
>  <minimizedAffinity>  (1) 
-5.12682962

>  <minimizedRMSD>  (1) 
0.61070174

$$$$
