
     RDKit          3D

 25 27  0  0  0  0  0  0  0  0999 V2000
   37.7690   30.6270   41.2970 C   0  0  0  0  0  0  0  0  0  0  0  0
   36.5070   30.0100   41.0670 C   0  0  0  0  0  0  0  0  0  0  0  0
   36.7280   28.3510   41.8420 S   0  0  0  0  0  0  0  0  0  0  0  0
   38.4890   28.7870   42.3400 C   0  0  0  0  0  0  0  0  0  0  0  0
   38.5780   29.8340   41.9380 N   0  0  0  0  0  0  0  0  0  0  0  0
   39.1750   32.6650   41.1740 C   0  0  0  0  0  0  0  0  0  0  0  0
   38.0230   31.9950   40.8230 C   0  0  0  0  0  0  0  0  0  0  0  0
   37.0910   32.6380   40.0000 C   0  0  0  0  0  0  0  0  0  0  0  0
   37.3910   33.9040   39.5980 N   0  0  0  0  0  0  0  0  0  0  0  0
   38.5370   34.5300   39.9650 C   0  0  0  0  0  0  0  0  0  0  0  0
   39.4190   33.9080   40.7490 N   0  0  0  0  0  0  0  0  0  0  0  0
   39.3960   27.8780   43.0640 C   0  0  0  0  0  0  0  0  0  0  0  0
   38.9530   26.7920   43.7180 N   0  0  0  0  0  0  0  0  0  0  0  0
   39.9460   26.1610   44.2700 O   0  0  0  0  0  0  0  0  0  0  0  0
   41.0400   26.8700   43.9530 C   0  0  0  0  0  0  0  0  0  0  0  0
   40.7440   27.9520   43.2000 N   0  0  0  0  0  0  0  0  0  0  0  0
   42.7540   26.5600   44.3930 S   0  0  0  0  0  0  0  0  0  0  0  0
   43.2900   27.6510   45.7320 C   0  0  0  0  0  0  0  0  0  0  0  0
   44.5670   27.3130   46.0830 F   0  0  0  0  0  0  0  0  0  0  0  0
   42.4800   27.5540   46.8240 F   0  0  0  0  0  0  0  0  0  0  0  0
   43.2820   28.9520   45.2210 F   0  0  0  0  0  0  0  0  0  0  0  0
   35.6231   30.4193   40.5560 H   0  0  0  0  0  0  0  0  0  0  0  0
   39.9115   32.1643   41.8197 H   0  0  0  0  0  0  0  0  0  0  0  0
   36.1583   32.1429   39.6919 H   0  0  0  0  0  0  0  0  0  0  0  0
   38.7395   35.5531   39.6153 H   0  0  0  0  0  0  0  0  0  0  0  0
  1  5  1  0
  2  1  2  0
  2  3  1  0
  3  4  1  0
  4 12  1  0
  5  4  2  0
  7  6  2  0
  7  1  1  0
  8  7  1  0
  9 10  1  0
  9  8  2  0
 10 11  2  0
 11  6  1  0
 12 16  1  0
 12 13  2  0
 13 14  1  0
 15 14  1  0
 15 17  1  0
 16 15  2  0
 17 18  1  0
 18 19  1  0
 18 20  1  0
 21 18  1  0
  2 22  1  0
  6 23  1  0
  8 24  1  0
 10 25  1  0
M  ISO  4  22  14  23  14  24  14  25  14
M  END
>  <minimizedAffinity>  (1) 
-5.12468004

>  <minimizedRMSD>  (1) 
0.449364632

$$$$
