
     RDKit          3D

 45 48  0  0  1  0  0  0  0  0999 V2000
   39.3290   28.2050   42.2900 C   0  0  2  0  0  0  0  0  0  0  0  0
   40.5310   27.2690   42.2790 C   0  0  2  0  0  0  0  0  0  0  0  0
   40.2660   25.9220   41.8110 C   0  0  0  0  0  0  0  0  0  0  0  0
   40.7490   24.9160   42.8350 C   0  0  0  0  0  0  0  0  0  0  0  0
   41.5660   25.6980   43.8220 C   0  0  0  0  0  0  0  0  0  0  0  0
   40.9850   27.0870   43.7170 C   0  0  1  0  0  0  0  0  0  0  0  0
   42.0970   28.0510   43.9350 C   0  0  0  0  0  0  0  0  0  0  0  0
   42.5100   29.1830   43.3220 N   0  0  0  0  0  0  0  0  0  0  0  0
   43.5620   29.6470   43.9310 O   0  0  0  0  0  0  0  0  0  0  0  0
   43.8910   28.8840   44.9370 C   0  0  0  0  0  0  0  0  0  0  0  0
   42.9790   27.8780   44.9500 N   0  0  0  0  0  0  0  0  0  0  0  0
   38.1480   27.4860   42.6600 N   0  0  0  0  0  0  0  0  0  0  0  0
   37.1530   28.0630   43.4860 C   0  0  0  0  0  0  0  0  0  0  0  0
   37.3750   29.2350   43.9840 N   0  0  0  0  0  0  0  0  0  0  0  0
   35.9650   27.3800   43.7530 N   0  0  0  0  0  0  0  0  0  0  0  0
   36.6610   29.6970   44.5830 H   0  0  0  0  0  0  0  0  0  0  0  0
   38.6450   29.1490   38.8640 C   0  0  0  0  0  0  0  0  0  0  0  0
   39.5690   30.1310   39.2240 C   0  0  0  0  0  0  0  0  0  0  0  0
   39.8730   29.8300   40.5240 C   0  0  0  0  0  0  0  0  0  0  0  0
   39.1800   28.7350   40.9330 N   0  0  0  0  0  0  0  0  0  0  0  0
   38.4440   28.3370   39.9160 N   0  0  0  0  0  0  0  0  0  0  0  0
   38.1480   27.9670   36.7010 C   0  0  0  0  0  0  0  0  0  0  0  0
   38.0190   29.0450   37.5560 C   0  0  0  0  0  0  0  0  0  0  0  0
   37.2350   30.0980   37.1300 C   0  0  0  0  0  0  0  0  0  0  0  0
   36.6140   30.0680   35.9100 N   0  0  0  0  0  0  0  0  0  0  0  0
   36.7890   28.9550   35.1080 C   0  0  0  0  0  0  0  0  0  0  0  0
   37.5700   27.8930   35.5200 N   0  0  0  0  0  0  0  0  0  0  0  0
   39.4774   29.0173   43.0168 H   0  0  0  0  0  0  0  0  0  0  0  0
   41.2568   27.7374   41.5980 H   0  0  0  0  0  0  0  0  0  0  0  0
   39.1841   25.7955   41.6575 H   0  0  0  0  0  0  0  0  0  0  0  0
   40.7980   25.7570   40.8624 H   0  0  0  0  0  0  0  0  0  0  0  0
   39.8940   24.4399   43.3373 H   0  0  0  0  0  0  0  0  0  0  0  0
   41.3380   24.1131   42.3676 H   0  0  0  0  0  0  0  0  0  0  0  0
   41.4487   25.2960   44.8392 H   0  0  0  0  0  0  0  0  0  0  0  0
   42.6460   25.6627   43.6160 H   0  0  0  0  0  0  0  0  0  0  0  0
   40.1655   27.2370   44.4353 H   0  0  0  0  0  0  0  0  0  0  0  0
   44.7327   29.0262   45.6308 H   0  0  0  0  0  0  0  0  0  0  0  0
   38.0185   26.5237   42.3164 H   0  0  0  0  0  0  0  0  0  0  0  0
   35.2482   27.8095   44.3553 H   0  0  0  0  0  0  0  0  0  0  0  0
   35.8053   26.4466   43.3477 H   0  0  0  0  0  0  0  0  0  0  0  0
   39.9608   30.9536   38.6077 H   0  0  0  0  0  0  0  0  0  0  0  0
   40.5792   30.3952   41.1500 H   0  0  0  0  0  0  0  0  0  0  0  0
   38.7705   27.1204   37.0262 H   0  0  0  0  0  0  0  0  0  0  0  0
   37.1070   30.9754   37.7810 H   0  0  0  0  0  0  0  0  0  0  0  0
   36.2975   28.9148   34.1247 H   0  0  0  0  0  0  0  0  0  0  0  0
  1 12  1  0
  2  1  1  0
  2  6  1  0
  3  2  1  0
  3  4  1  0
  4  5  1  0
  6  5  1  0
  6  7  1  0
  7 11  1  0
  8  9  1  0
  8  7  2  0
  9 10  1  0
 10 11  2  0
 12 13  1  0
 13 15  1  0
 13 14  2  0
 14 16  1  0
 17 18  1  0
 17 21  2  0
 18 19  2  0
 19 20  1  0
 20  1  1  0
 21 20  1  0
 22 23  2  0
 23 17  1  0
 24 23  1  0
 25 24  2  0
 26 27  2  0
 26 25  1  0
 27 22  1  0
  1 28  1  1
  2 29  1  6
  3 30  1  0
  3 31  1  0
  4 32  1  0
  4 33  1  0
  5 34  1  0
  5 35  1  0
  6 36  1  1
 10 37  1  0
 12 38  1  0
 15 39  1  0
 15 40  1  0
 18 41  1  0
 19 42  1  0
 22 43  1  0
 24 44  1  0
 26 45  1  0
M  ISO  8  28   8  29  13  30  13  31  13  32  13  33  13  34  13  35  13
M  ISO  7  36  13  37  14  41  14  42  14  43  14  44  14  45  14
M  END
>  <minimizedAffinity>  (1) 
-5.03212643

>  <minimizedRMSD>  (1) 
0.1952108

$$$$
