
     RDKit          3D

 28 30  0  0  0  0  0  0  0  0999 V2000
   37.7240   30.5910   41.2720 C   0  0  0  0  0  0  0  0  0  0  0  0
   36.4700   29.9730   41.0600 C   0  0  0  0  0  0  0  0  0  0  0  0
   36.6700   28.3040   41.8180 S   0  0  0  0  0  0  0  0  0  0  0  0
   38.4460   28.7370   42.3000 C   0  0  0  0  0  0  0  0  0  0  0  0
   38.5040   29.7720   41.8980 N   0  0  0  0  0  0  0  0  0  0  0  0
   39.1190   32.6340   41.1760 C   0  0  0  0  0  0  0  0  0  0  0  0
   37.9710   31.9510   40.8050 C   0  0  0  0  0  0  0  0  0  0  0  0
   37.0550   32.5960   39.9730 C   0  0  0  0  0  0  0  0  0  0  0  0
   37.3500   33.8660   39.5740 N   0  0  0  0  0  0  0  0  0  0  0  0
   38.4900   34.4920   39.9660 C   0  0  0  0  0  0  0  0  0  0  0  0
   39.3520   33.8750   40.7540 N   0  0  0  0  0  0  0  0  0  0  0  0
   39.3660   27.8290   43.0160 C   0  0  0  0  0  0  0  0  0  0  0  0
   38.9030   26.6840   43.5820 N   0  0  0  0  0  0  0  0  0  0  0  0
   39.9100   26.0680   44.1460 O   0  0  0  0  0  0  0  0  0  0  0  0
   40.9960   26.8270   43.9330 C   0  0  0  0  0  0  0  0  0  0  0  0
   40.6960   27.9500   43.2220 N   0  0  0  0  0  0  0  0  0  0  0  0
   42.7040   26.5550   44.4460 S   0  0  0  0  0  0  0  0  0  0  0  0
   43.2120   27.9380   45.5000 C   0  0  0  0  0  0  0  0  0  0  0  0
   43.0900   27.6040   46.9720 C   0  0  0  0  0  0  0  0  0  0  0  0
   35.5833   30.3900   40.5602 H   0  0  0  0  0  0  0  0  0  0  0  0
   39.8516   32.1409   41.8318 H   0  0  0  0  0  0  0  0  0  0  0  0
   36.1286   32.0980   39.6508 H   0  0  0  0  0  0  0  0  0  0  0  0
   38.6963   35.5175   39.6256 H   0  0  0  0  0  0  0  0  0  0  0  0
   44.2601   28.1873   45.2781 H   0  0  0  0  0  0  0  0  0  0  0  0
   42.5473   28.7885   45.2883 H   0  0  0  0  0  0  0  0  0  0  0  0
   43.4063   28.4700   47.5719 H   0  0  0  0  0  0  0  0  0  0  0  0
   42.0439   27.3578   47.2067 H   0  0  0  0  0  0  0  0  0  0  0  0
   43.7311   26.7415   47.2067 H   0  0  0  0  0  0  0  0  0  0  0  0
  1  5  1  0
  2  1  2  0
  2  3  1  0
  3  4  1  0
  4 12  1  0
  5  4  2  0
  7  6  2  0
  7  1  1  0
  8  7  1  0
  9 10  1  0
  9  8  2  0
 10 11  2  0
 11  6  1  0
 12 16  1  0
 12 13  2  0
 13 14  1  0
 15 14  1  0
 15 17  1  0
 16 15  2  0
 17 18  1  0
 18 19  1  0
  2 20  1  0
  6 21  1  0
  8 22  1  0
 10 23  1  0
 18 24  1  0
 18 25  1  0
 19 26  1  0
 19 27  1  0
 19 28  1  0
M  ISO  8  20  14  21  14  22  14  23  14  24   8  25   8  26   8  27   8
M  ISO  1  28   8
M  END
>  <minimizedAffinity>  (1) 
-4.76358891

>  <minimizedRMSD>  (1) 
0.398940265

$$$$
