
     RDKit          3D

 29 32  0  0  0  0  0  0  0  0999 V2000
   37.6410   30.6470   41.1700 C   0  0  0  0  0  0  0  0  0  0  0  0
   36.4030   30.0200   40.8910 C   0  0  0  0  0  0  0  0  0  0  0  0
   36.5770   28.3420   41.6390 S   0  0  0  0  0  0  0  0  0  0  0  0
   38.3290   28.7800   42.2160 C   0  0  0  0  0  0  0  0  0  0  0  0
   38.3910   29.8230   41.8230 N   0  0  0  0  0  0  0  0  0  0  0  0
   39.0340   32.6830   41.1390 C   0  0  0  0  0  0  0  0  0  0  0  0
   37.9040   32.0180   40.7320 C   0  0  0  0  0  0  0  0  0  0  0  0
   36.9830   32.6710   39.8770 C   0  0  0  0  0  0  0  0  0  0  0  0
   37.2940   33.9460   39.5110 N   0  0  0  0  0  0  0  0  0  0  0  0
   38.4400   34.5670   39.9470 C   0  0  0  0  0  0  0  0  0  0  0  0
   39.2900   33.9290   40.7520 N   0  0  0  0  0  0  0  0  0  0  0  0
   39.2260   27.8760   42.9640 C   0  0  0  0  0  0  0  0  0  0  0  0
   38.7770   26.6910   43.4330 N   0  0  0  0  0  0  0  0  0  0  0  0
   39.7460   26.0840   44.0510 O   0  0  0  0  0  0  0  0  0  0  0  0
   40.8100   26.8950   43.9680 C   0  0  0  0  0  0  0  0  0  0  0  0
   40.5220   28.0380   43.2880 N   0  0  0  0  0  0  0  0  0  0  0  0
   42.4840   26.6670   44.6120 S   0  0  0  0  0  0  0  0  0  0  0  0
   43.2940   25.5110   43.4640 C   0  0  0  0  0  0  0  0  0  0  0  0
   44.7690   25.4480   43.3920 C   0  0  0  0  0  0  0  0  0  0  0  0
   43.9020   26.0100   42.2220 C   0  0  0  0  0  0  0  0  0  0  0  0
   35.5383   30.4362   40.3533 H   0  0  0  0  0  0  0  0  0  0  0  0
   39.7465   32.1714   41.8029 H   0  0  0  0  0  0  0  0  0  0  0  0
   36.0655   32.1753   39.5271 H   0  0  0  0  0  0  0  0  0  0  0  0
   38.6574   35.5975   39.6296 H   0  0  0  0  0  0  0  0  0  0  0  0
   42.5171   24.7615   43.6751 H   0  0  0  0  0  0  0  0  0  0  0  0
   45.3849   26.1247   44.0025 H   0  0  0  0  0  0  0  0  0  0  0  0
   45.5333   24.6649   43.5042 H   0  0  0  0  0  0  0  0  0  0  0  0
   43.9030   27.0871   41.9986 H   0  0  0  0  0  0  0  0  0  0  0  0
   43.7919   25.7943   41.1490 H   0  0  0  0  0  0  0  0  0  0  0  0
  1  5  1  0
  2  1  2  0
  2  3  1  0
  3  4  1  0
  4 12  1  0
  5  4  2  0
  7  6  2  0
  7  1  1  0
  8  7  1  0
  9  8  2  0
  9 10  1  0
 10 11  2  0
 11  6  1  0
 12 16  1  0
 12 13  2  0
 13 14  1  0
 15 14  1  0
 15 17  1  0
 16 15  2  0
 18 17  1  0
 19 18  1  0
 20 19  1  0
 20 18  1  0
  2 21  1  0
  6 22  1  0
  8 23  1  0
 10 24  1  0
 18 25  1  0
 19 26  1  0
 19 27  1  0
 20 28  1  0
 20 29  1  0
M  ISO  8  21  14  22  14  23  14  24  14  25  13  26  13  27  13  28  13
M  ISO  1  29  13
M  END
>  <minimizedAffinity>  (1) 
-4.68261337

>  <minimizedRMSD>  (1) 
0.216264039

$$$$
