
     RDKit          3D

 42 46  0  0  1  0  0  0  0  0999 V2000
   39.2240   27.8500   42.9660 C   0  0  0  0  0  0  0  0  0  0  0  0
   38.7810   26.6590   43.4080 N   0  0  0  0  0  0  0  0  0  0  0  0
   39.7510   26.0530   44.0300 O   0  0  0  0  0  0  0  0  0  0  0  0
   40.8090   26.8700   43.9790 C   0  0  0  0  0  0  0  0  0  0  0  0
   40.5140   28.0170   43.3140 N   0  0  0  0  0  0  0  0  0  0  0  0
   37.6720   30.6370   41.1810 C   0  0  0  0  0  0  0  0  0  0  0  0
   36.4180   30.0260   40.8910 C   0  0  0  0  0  0  0  0  0  0  0  0
   36.5860   28.3390   41.6400 S   0  0  0  0  0  0  0  0  0  0  0  0
   38.3320   28.7650   42.2170 C   0  0  0  0  0  0  0  0  0  0  0  0
   38.3970   29.8020   41.8290 N   0  0  0  0  0  0  0  0  0  0  0  0
   39.0470   32.6640   41.1390 C   0  0  0  0  0  0  0  0  0  0  0  0
   37.9150   32.0050   40.7370 C   0  0  0  0  0  0  0  0  0  0  0  0
   37.0060   32.6720   39.8940 C   0  0  0  0  0  0  0  0  0  0  0  0
   37.3110   33.9450   39.5260 N   0  0  0  0  0  0  0  0  0  0  0  0
   38.4600   34.5570   39.9610 C   0  0  0  0  0  0  0  0  0  0  0  0
   39.3150   33.9110   40.7610 N   0  0  0  0  0  0  0  0  0  0  0  0
   42.4820   26.6540   44.6430 S   0  0  0  0  0  0  0  0  0  0  0  0
   43.5810   27.0980   43.2490 C   0  0  2  0  0  0  0  0  0  0  0  0
   45.0520   27.0770   43.4430 C   0  0  0  0  0  0  0  0  0  0  0  0
   44.2650   28.3900   43.2380 C   0  0  2  0  0  0  0  0  0  0  0  0
   44.3550   29.2950   44.3400 N   0  0  0  0  0  0  0  0  0  0  0  0
   44.9800   29.1920   45.5270 C   0  0  0  0  0  0  0  0  0  0  0  0
   44.9280   30.2130   46.4510 C   0  0  0  0  0  0  0  0  0  0  0  0
   45.6560   29.9900   47.7330 C   0  0  0  0  0  0  0  0  0  0  0  0
   44.2380   31.3670   46.1910 C   0  0  0  0  0  0  0  0  0  0  0  0
   44.1990   32.2940   47.0460 O   0  0  0  0  0  0  0  0  0  0  0  0
   43.6160   31.4590   44.9960 N   0  0  0  0  0  0  0  0  0  0  0  0
   43.6700   30.4460   44.0860 C   0  0  0  0  0  0  0  0  0  0  0  0
   43.0240   30.7130   43.0180 O   0  0  0  0  0  0  0  0  0  0  0  0
   35.5584   30.4522   40.3530 H   0  0  0  0  0  0  0  0  0  0  0  0
   39.7588   32.1440   41.7970 H   0  0  0  0  0  0  0  0  0  0  0  0
   36.0844   32.1822   39.5464 H   0  0  0  0  0  0  0  0  0  0  0  0
   38.6796   35.5886   39.6486 H   0  0  0  0  0  0  0  0  0  0  0  0
   42.8983   26.5994   42.5452 H   0  0  0  0  0  0  0  0  0  0  0  0
   45.4800   26.8327   44.4264 H   0  0  0  0  0  0  0  0  0  0  0  0
   45.9070   26.5831   42.9581 H   0  0  0  0  0  0  0  0  0  0  0  0
   44.1846   29.2349   42.5382 H   0  0  0  0  0  0  0  0  0  0  0  0
   45.5423   28.2768   45.7640 H   0  0  0  0  0  0  0  0  0  0  0  0
   44.9824   30.1963   48.5778 H   0  0  0  0  0  0  0  0  0  0  0  0
   45.9983   28.9458   47.7835 H   0  0  0  0  0  0  0  0  0  0  0  0
   46.5244   30.6633   47.7835 H   0  0  0  0  0  0  0  0  0  0  0  0
   43.0890   32.3139   44.7672 H   0  0  0  0  0  0  0  0  0  0  0  0
  1  5  1  0
  1  2  2  0
  2  3  1  0
  4  3  1  0
  4 17  1  0
  5  4  2  0
  6 10  1  0
  7  6  2  0
  7  8  1  0
  8  9  1  0
  9  1  1  0
 10  9  2  0
 12 11  2  0
 12  6  1  0
 13 12  1  0
 14 13  2  0
 14 15  1  0
 15 16  2  0
 16 11  1  0
 18 19  1  0
 18 17  1  0
 20 18  1  0
 20 19  1  0
 20 21  1  0
 21 22  1  0
 22 23  2  0
 23 24  1  0
 25 23  1  0
 25 26  2  0
 27 25  1  0
 28 21  1  0
 28 27  1  0
 29 28  2  0
  7 30  1  0
 11 31  1  0
 13 32  1  0
 15 33  1  0
 18 34  1  6
 19 35  1  0
 19 36  1  0
 20 37  1  6
 22 38  1  0
 24 39  1  0
 24 40  1  0
 24 41  1  0
 27 42  1  0
M  ISO  8  30  14  31  14  32  14  33  14  34  13  35  13  36  13  37  13
M  ISO  5  38  14  39   8  40   8  41   8  42   9
M  END
>  <minimizedAffinity>  (1) 
-5.9321208

>  <minimizedRMSD>  (1) 
2.92715836

$$$$
