
     RDKit          3D

 36 40  0  0  1  0  0  0  0  0999 V2000
   39.2810   27.9320   42.9670 C   0  0  0  0  0  0  0  0  0  0  0  0
   38.8560   26.7220   43.3940 N   0  0  0  0  0  0  0  0  0  0  0  0
   39.8240   26.1270   44.0220 O   0  0  0  0  0  0  0  0  0  0  0  0
   40.8640   26.9700   43.9890 C   0  0  0  0  0  0  0  0  0  0  0  0
   40.5600   28.1200   43.3300 N   0  0  0  0  0  0  0  0  0  0  0  0
   37.6740   30.6850   41.1770 C   0  0  0  0  0  0  0  0  0  0  0  0
   36.4330   30.0500   40.8850 C   0  0  0  0  0  0  0  0  0  0  0  0
   36.6360   28.3690   41.6380 S   0  0  0  0  0  0  0  0  0  0  0  0
   38.3750   28.8290   42.2170 C   0  0  0  0  0  0  0  0  0  0  0  0
   38.4390   29.8720   41.8320 N   0  0  0  0  0  0  0  0  0  0  0  0
   39.0510   32.7310   41.1530 C   0  0  0  0  0  0  0  0  0  0  0  0
   37.9350   32.0600   40.7480 C   0  0  0  0  0  0  0  0  0  0  0  0
   37.0070   32.7110   39.8920 C   0  0  0  0  0  0  0  0  0  0  0  0
   37.2960   33.9830   39.5240 N   0  0  0  0  0  0  0  0  0  0  0  0
   38.4430   34.6130   39.9660 C   0  0  0  0  0  0  0  0  0  0  0  0
   39.2910   33.9830   40.7630 N   0  0  0  0  0  0  0  0  0  0  0  0
   42.5210   26.7640   44.6740 S   0  0  0  0  0  0  0  0  0  0  0  0
   43.2760   28.4180   44.6110 C   0  0  2  0  0  0  0  0  0  0  0  0
   44.7330   28.5730   44.3780 C   0  0  0  0  0  0  0  0  0  0  0  0
   44.0910   28.8910   45.7470 C   0  0  2  0  0  0  0  0  0  0  0  0
   44.5070   27.9730   46.8240 C   0  0  0  0  0  0  0  0  0  0  0  0
   43.7690   27.2790   47.7160 C   0  0  0  0  0  0  0  0  0  0  0  0
   44.3910   26.4790   48.6300 C   0  0  0  0  0  0  0  0  0  0  0  0
   45.8400   26.4520   48.5510 C   0  0  0  0  0  0  0  0  0  0  0  0
   46.1940   27.6270   47.1100 S   0  0  0  0  0  0  0  0  0  0  0  0
   35.5660   30.4577   40.3446 H   0  0  0  0  0  0  0  0  0  0  0  0
   39.7695   32.2277   41.8166 H   0  0  0  0  0  0  0  0  0  0  0  0
   36.0945   32.2053   39.5433 H   0  0  0  0  0  0  0  0  0  0  0  0
   38.6532   35.6464   39.6531 H   0  0  0  0  0  0  0  0  0  0  0  0
   42.3843   28.8038   44.0953 H   0  0  0  0  0  0  0  0  0  0  0  0
   45.3730   27.6864   44.2580 H   0  0  0  0  0  0  0  0  0  0  0  0
   45.3621   29.1165   43.6577 H   0  0  0  0  0  0  0  0  0  0  0  0
   43.9831   29.7434   46.4338 H   0  0  0  0  0  0  0  0  0  0  0  0
   42.6719   27.3579   47.7062 H   0  0  0  0  0  0  0  0  0  0  0  0
   43.8323   25.8945   49.3758 H   0  0  0  0  0  0  0  0  0  0  0  0
   46.5530   25.8901   49.1722 H   0  0  0  0  0  0  0  0  0  0  0  0
  1  5  1  0
  1  2  2  0
  2  3  1  0
  4  3  1  0
  4 17  1  0
  5  4  2  0
  6 10  1  0
  7  6  2  0
  7  8  1  0
  8  9  1  0
  9  1  1  0
 10  9  2  0
 12 11  2  0
 12  6  1  0
 13 12  1  0
 14 13  2  0
 14 15  1  0
 15 16  2  0
 16 11  1  0
 18 17  1  0
 18 20  1  0
 19 18  1  0
 19 20  1  0
 20 21  1  0
 21 25  1  0
 21 22  2  0
 22 23  1  0
 24 23  2  0
 25 24  1  0
  7 26  1  0
 11 27  1  0
 13 28  1  0
 15 29  1  0
 18 30  1  6
 19 31  1  0
 19 32  1  0
 20 33  1  1
 22 34  1  0
 23 35  1  0
 24 36  1  0
M  ISO  8  26  14  27  14  28  14  29  14  30  13  31  13  32  13  33  13
M  ISO  3  34  14  35  14  36  14
M  END
>  <minimizedAffinity>  (1) 
-5.69202709

>  <minimizedRMSD>  (1) 
3.20265603

$$$$
