
     RDKit          3D

 43 48  0  0  1  0  0  0  0  0999 V2000
   39.2130   27.9440   43.0000 C   0  0  0  0  0  0  0  0  0  0  0  0
   38.7380   26.8220   43.5760 N   0  0  0  0  0  0  0  0  0  0  0  0
   39.7040   26.2150   44.1990 O   0  0  0  0  0  0  0  0  0  0  0  0
   40.7930   26.9600   44.0120 C   0  0  0  0  0  0  0  0  0  0  0  0
   40.5320   28.0640   43.2590 N   0  0  0  0  0  0  0  0  0  0  0  0
   37.6570   30.6860   41.1570 C   0  0  0  0  0  0  0  0  0  0  0  0
   36.4260   30.0490   40.8360 C   0  0  0  0  0  0  0  0  0  0  0  0
   36.6060   28.3770   41.5970 S   0  0  0  0  0  0  0  0  0  0  0  0
   38.3270   28.8340   42.2220 C   0  0  0  0  0  0  0  0  0  0  0  0
   38.4070   29.8830   41.8350 N   0  0  0  0  0  0  0  0  0  0  0  0
   39.0310   32.7320   41.1290 C   0  0  0  0  0  0  0  0  0  0  0  0
   37.9180   32.0560   40.7260 C   0  0  0  0  0  0  0  0  0  0  0  0
   36.9940   32.7190   39.8650 C   0  0  0  0  0  0  0  0  0  0  0  0
   37.2940   33.9880   39.5040 N   0  0  0  0  0  0  0  0  0  0  0  0
   38.4240   34.6200   39.9350 C   0  0  0  0  0  0  0  0  0  0  0  0
   39.2790   33.9760   40.7460 N   0  0  0  0  0  0  0  0  0  0  0  0
   42.4880   26.6970   44.6050 S   0  0  0  0  0  0  0  0  0  0  0  0
   43.2220   25.5270   43.3880 C   0  0  2  0  0  0  0  0  0  0  0  0
   44.6910   25.5180   43.2270 C   0  0  0  0  0  0  0  0  0  0  0  0
   43.7490   26.0530   42.1360 C   0  0  1  0  0  0  0  0  0  0  0  0
   43.7240   25.4430   40.8250 C   0  0  0  0  0  0  0  0  0  0  0  0
   44.9720   25.2130   40.2160 C   0  0  0  0  0  0  0  0  0  0  0  0
   44.7700   24.6320   39.0260 N   0  0  0  0  0  0  0  0  0  0  0  0
   43.4640   24.4450   38.7730 C   0  0  0  0  0  0  0  0  0  0  0  0
   42.6520   23.9330   37.7820 C   0  0  0  0  0  0  0  0  0  0  0  0
   41.2590   23.9300   37.9120 C   0  0  0  0  0  0  0  0  0  0  0  0
   40.6670   24.4550   39.0660 C   0  0  0  0  0  0  0  0  0  0  0  0
   41.4830   24.9610   40.0450 C   0  0  0  0  0  0  0  0  0  0  0  0
   42.8350   24.9510   39.8910 C   0  0  0  0  0  0  0  0  0  0  0  0
   35.5736   30.4546   40.2712 H   0  0  0  0  0  0  0  0  0  0  0  0
   39.7473   32.2279   41.7945 H   0  0  0  0  0  0  0  0  0  0  0  0
   36.0793   32.2213   39.5107 H   0  0  0  0  0  0  0  0  0  0  0  0
   38.6337   35.6527   39.6194 H   0  0  0  0  0  0  0  0  0  0  0  0
   42.4760   24.7549   43.6275 H   0  0  0  0  0  0  0  0  0  0  0  0
   45.3185   26.2097   43.8082 H   0  0  0  0  0  0  0  0  0  0  0  0
   45.4881   24.7620   43.2826 H   0  0  0  0  0  0  0  0  0  0  0  0
   43.5560   26.9874   41.5886 H   0  0  0  0  0  0  0  0  0  0  0  0
   45.9516   25.4683   40.6463 H   0  0  0  0  0  0  0  0  0  0  0  0
   45.5263   24.3608   38.3815 H   0  0  0  0  0  0  0  0  0  0  0  0
   43.1091   23.5188   36.8712 H   0  0  0  0  0  0  0  0  0  0  0  0
   40.6310   23.5161   37.1093 H   0  0  0  0  0  0  0  0  0  0  0  0
   39.5735   24.4617   39.1850 H   0  0  0  0  0  0  0  0  0  0  0  0
   41.0413   25.3782   40.9619 H   0  0  0  0  0  0  0  0  0  0  0  0
  1  5  1  0
  1  2  2  0
  2  3  1  0
  4  3  1  0
  4 17  1  0
  5  4  2  0
  6 10  1  0
  7  6  2  0
  7  8  1  0
  8  9  1  0
  9  1  1  0
 10  9  2  0
 12 11  2  0
 12  6  1  0
 13 12  1  0
 14 13  2  0
 14 15  1  0
 15 16  2  0
 16 11  1  0
 18 17  1  0
 19 18  1  0
 20 19  1  0
 20 18  1  0
 21 20  1  0
 22 21  2  0
 23 22  1  0
 24 23  1  0
 24 29  2  0
 25 26  2  0
 25 24  1  0
 26 27  1  0
 27 28  2  0
 29 28  1  0
 29 21  1  0
  7 30  1  0
 11 31  1  0
 13 32  1  0
 15 33  1  0
 18 34  1  6
 19 35  1  0
 19 36  1  0
 20 37  1  6
 22 38  1  0
 23 39  1  0
 25 40  1  0
 26 41  1  0
 27 42  1  0
 28 43  1  0
M  ISO  8  30  14  31  14  32  14  33  14  34  13  35  13  36  13  37  13
M  ISO  6  38  14  39   9  40  14  41  14  42  14  43  14
M  END
>  <minimizedAffinity>  (1) 
-5.30579376

>  <minimizedRMSD>  (1) 
0.743278742

$$$$
