
     RDKit          3D

 43 45  0  0  1  0  0  0  0  0999 V2000
   39.2760   28.1570   42.3140 C   0  0  2  0  0  0  0  0  0  0  0  0
   40.4610   27.2080   42.1780 C   0  0  2  0  0  0  0  0  0  0  0  0
   40.1110   25.8160   41.9600 C   0  0  0  0  0  0  0  0  0  0  0  0
   40.7990   24.9400   42.9850 C   0  0  0  0  0  0  0  0  0  0  0  0
   41.8050   25.8270   43.6630 C   0  0  0  0  0  0  0  0  0  0  0  0
   41.1880   27.1950   43.5160 C   0  0  1  0  0  0  0  0  0  0  0  0
   42.2840   28.2490   43.5520 C   0  0  0  0  0  0  0  0  0  0  0  0
   38.1060   27.4420   42.7290 N   0  0  0  0  0  0  0  0  0  0  0  0
   37.1270   28.0400   43.5570 C   0  0  0  0  0  0  0  0  0  0  0  0
   37.3500   29.2290   44.0140 N   0  0  0  0  0  0  0  0  0  0  0  0
   35.9460   27.3550   43.8670 N   0  0  0  0  0  0  0  0  0  0  0  0
   36.6450   29.7070   44.6090 H   0  0  0  0  0  0  0  0  0  0  0  0
   38.4710   29.1970   38.9410 C   0  0  0  0  0  0  0  0  0  0  0  0
   39.1520   30.3360   39.4170 C   0  0  0  0  0  0  0  0  0  0  0  0
   39.4870   30.0060   40.7010 C   0  0  0  0  0  0  0  0  0  0  0  0
   39.0440   28.7510   40.9950 N   0  0  0  0  0  0  0  0  0  0  0  0
   38.4390   28.2910   39.9220 N   0  0  0  0  0  0  0  0  0  0  0  0
   38.1330   28.0070   36.7620 C   0  0  0  0  0  0  0  0  0  0  0  0
   37.9210   29.0820   37.6100 C   0  0  0  0  0  0  0  0  0  0  0  0
   37.1320   30.1030   37.1410 C   0  0  0  0  0  0  0  0  0  0  0  0
   36.5810   30.0610   35.8940 N   0  0  0  0  0  0  0  0  0  0  0  0
   36.8360   28.9470   35.0920 C   0  0  0  0  0  0  0  0  0  0  0  0
   37.6250   27.9200   35.5560 N   0  0  0  0  0  0  0  0  0  0  0  0
   39.4890   28.9289   43.0682 H   0  0  0  0  0  0  0  0  0  0  0  0
   41.0337   27.5729   41.3126 H   0  0  0  0  0  0  0  0  0  0  0  0
   39.0214   25.6962   42.0516 H   0  0  0  0  0  0  0  0  0  0  0  0
   40.4371   25.5162   40.9532 H   0  0  0  0  0  0  0  0  0  0  0  0
   40.0702   24.5578   43.7149 H   0  0  0  0  0  0  0  0  0  0  0  0
   41.2758   24.0651   42.5190 H   0  0  0  0  0  0  0  0  0  0  0  0
   41.9230   25.5562   44.7226 H   0  0  0  0  0  0  0  0  0  0  0  0
   42.8144   25.7534   43.2321 H   0  0  0  0  0  0  0  0  0  0  0  0
   40.4849   27.4167   44.3324 H   0  0  0  0  0  0  0  0  0  0  0  0
   42.5305   28.4861   44.5975 H   0  0  0  0  0  0  0  0  0  0  0  0
   43.1796   27.8642   43.0423 H   0  0  0  0  0  0  0  0  0  0  0  0
   41.9345   29.1590   43.0423 H   0  0  0  0  0  0  0  0  0  0  0  0
   37.9744   26.4692   42.4171 H   0  0  0  0  0  0  0  0  0  0  0  0
   35.2377   27.7967   44.4705 H   0  0  0  0  0  0  0  0  0  0  0  0
   35.7854   26.4094   43.4916 H   0  0  0  0  0  0  0  0  0  0  0  0
   39.3644   31.2724   38.8803 H   0  0  0  0  0  0  0  0  0  0  0  0
   40.0349   30.6591   41.3962 H   0  0  0  0  0  0  0  0  0  0  0  0
   38.7630   27.1797   37.1206 H   0  0  0  0  0  0  0  0  0  0  0  0
   36.9400   30.9739   37.7850 H   0  0  0  0  0  0  0  0  0  0  0  0
   36.4031   28.8901   34.0824 H   0  0  0  0  0  0  0  0  0  0  0  0
  1  8  1  0
  2  1  1  0
  2  6  1  0
  3  2  1  0
  3  4  1  0
  4  5  1  0
  6  7  1  0
  6  5  1  0
  8  9  1  0
  9 11  1  0
  9 10  2  0
 10 12  1  0
 13 14  1  0
 13 17  2  0
 14 15  2  0
 15 16  1  0
 16  1  1  0
 17 16  1  0
 18 19  2  0
 19 13  1  0
 20 19  1  0
 21 20  2  0
 22 23  2  0
 22 21  1  0
 23 18  1  0
  1 24  1  1
  2 25  1  6
  3 26  1  0
  3 27  1  0
  4 28  1  0
  4 29  1  0
  5 30  1  0
  5 31  1  0
  6 32  1  1
  7 33  1  0
  7 34  1  0
  7 35  1  0
  8 36  1  0
 11 37  1  0
 11 38  1  0
 14 39  1  0
 15 40  1  0
 18 41  1  0
 20 42  1  0
 22 43  1  0
M  ISO  8  24   8  25  13  26  13  27  13  28  13  29  13  30  13  31  13
M  ISO  8  32  13  33   8  34   8  35   8  39  14  40  14  41  14  42  14
M  ISO  1  43  14
M  END
>  <minimizedAffinity>  (1) 
-4.88182592

>  <minimizedRMSD>  (1) 
0.199835017

$$$$
