
     RDKit          3D

 35 39  0  0  1  0  0  0  0  0999 V2000
   39.2020   27.8810   42.9720 C   0  0  0  0  0  0  0  0  0  0  0  0
   38.7380   26.7140   43.4680 N   0  0  0  0  0  0  0  0  0  0  0  0
   39.7060   26.1030   44.0890 O   0  0  0  0  0  0  0  0  0  0  0  0
   40.7780   26.8890   43.9820 C   0  0  0  0  0  0  0  0  0  0  0  0
   40.5130   28.0320   43.2810 N   0  0  0  0  0  0  0  0  0  0  0  0
   37.6490   30.6510   41.1660 C   0  0  0  0  0  0  0  0  0  0  0  0
   36.4060   30.0280   40.8610 C   0  0  0  0  0  0  0  0  0  0  0  0
   36.5890   28.3560   41.6130 S   0  0  0  0  0  0  0  0  0  0  0  0
   38.3250   28.7910   42.2140 C   0  0  0  0  0  0  0  0  0  0  0  0
   38.3940   29.8350   41.8260 N   0  0  0  0  0  0  0  0  0  0  0  0
   39.0480   32.6850   41.1430 C   0  0  0  0  0  0  0  0  0  0  0  0
   37.9080   32.0250   40.7300 C   0  0  0  0  0  0  0  0  0  0  0  0
   36.9920   32.6930   39.8780 C   0  0  0  0  0  0  0  0  0  0  0  0
   37.3060   33.9640   39.5200 N   0  0  0  0  0  0  0  0  0  0  0  0
   38.4490   34.5810   39.9540 C   0  0  0  0  0  0  0  0  0  0  0  0
   39.2950   33.9360   40.7520 N   0  0  0  0  0  0  0  0  0  0  0  0
   42.4640   26.6540   44.6130 S   0  0  0  0  0  0  0  0  0  0  0  0
   43.2810   25.5930   43.3960 C   0  0  2  0  0  0  0  0  0  0  0  0
   44.7650   25.4920   43.3600 C   0  0  0  0  0  0  0  0  0  0  0  0
   43.9710   26.1830   42.2290 C   0  0  1  0  0  0  0  0  0  0  0  0
   43.9400   25.4790   40.9110 C   0  0  0  0  0  0  0  0  0  0  0  0
   42.6980   25.1000   40.3420 C   0  0  0  0  0  0  0  0  0  0  0  0
   43.2290   24.2810   38.7510 S   0  0  0  0  0  0  0  0  0  0  0  0
   45.0300   24.6170   39.1720 C   0  0  0  0  0  0  0  0  0  0  0  0
   45.0140   25.1590   40.1880 N   0  0  0  0  0  0  0  0  0  0  0  0
   35.5478   30.4426   40.3118 H   0  0  0  0  0  0  0  0  0  0  0  0
   39.7625   32.1721   41.8036 H   0  0  0  0  0  0  0  0  0  0  0  0
   36.0718   32.2048   39.5245 H   0  0  0  0  0  0  0  0  0  0  0  0
   38.6679   35.6128   39.6417 H   0  0  0  0  0  0  0  0  0  0  0  0
   42.4702   24.8583   43.5088 H   0  0  0  0  0  0  0  0  0  0  0  0
   45.3784   26.0884   44.0514 H   0  0  0  0  0  0  0  0  0  0  0  0
   45.5006   24.6764   43.4212 H   0  0  0  0  0  0  0  0  0  0  0  0
   43.9511   27.1724   41.7487 H   0  0  0  0  0  0  0  0  0  0  0  0
   41.6823   25.2501   40.7367 H   0  0  0  0  0  0  0  0  0  0  0  0
   45.9139   24.3516   38.5734 H   0  0  0  0  0  0  0  0  0  0  0  0
  1  5  1  0
  1  2  2  0
  2  3  1  0
  4  3  1  0
  4 17  1  0
  5  4  2  0
  6 10  1  0
  7  6  2  0
  7  8  1  0
  8  9  1  0
  9  1  1  0
 10  9  2  0
 12 11  2  0
 12  6  1  0
 13 12  1  0
 14 13  2  0
 14 15  1  0
 15 16  2  0
 16 11  1  0
 18 17  1  0
 19 18  1  0
 20 19  1  0
 20 18  1  0
 21 20  1  0
 22 21  2  0
 23 24  1  0
 23 22  1  0
 24 25  2  0
 25 21  1  0
  7 26  1  0
 11 27  1  0
 13 28  1  0
 15 29  1  0
 18 30  1  6
 19 31  1  0
 19 32  1  0
 20 33  1  6
 22 34  1  0
 24 35  1  0
M  ISO  8  26  14  27  14  28  14  29  14  30  13  31  13  32  13  33  13
M  ISO  2  34  14  35  14
M  END
>  <minimizedAffinity>  (1) 
-4.86649704

>  <minimizedRMSD>  (1) 
0.262023658

$$$$
