
     RDKit          3D

 41 45  0  0  1  0  0  0  0  0999 V2000
   39.2110   27.8760   42.9670 C   0  0  0  0  0  0  0  0  0  0  0  0
   38.7500   26.7010   43.4560 N   0  0  0  0  0  0  0  0  0  0  0  0
   39.7080   26.0900   44.0800 O   0  0  0  0  0  0  0  0  0  0  0  0
   40.7870   26.8880   43.9850 C   0  0  0  0  0  0  0  0  0  0  0  0
   40.5150   28.0280   43.2900 N   0  0  0  0  0  0  0  0  0  0  0  0
   37.6560   30.6470   41.1650 C   0  0  0  0  0  0  0  0  0  0  0  0
   36.4140   30.0240   40.8560 C   0  0  0  0  0  0  0  0  0  0  0  0
   36.5870   28.3390   41.6050 S   0  0  0  0  0  0  0  0  0  0  0  0
   38.3230   28.7810   42.2090 C   0  0  0  0  0  0  0  0  0  0  0  0
   38.4010   29.8260   41.8270 N   0  0  0  0  0  0  0  0  0  0  0  0
   39.0530   32.6810   41.1390 C   0  0  0  0  0  0  0  0  0  0  0  0
   37.9290   32.0200   40.7390 C   0  0  0  0  0  0  0  0  0  0  0  0
   36.9990   32.6830   39.8870 C   0  0  0  0  0  0  0  0  0  0  0  0
   37.3060   33.9600   39.5230 N   0  0  0  0  0  0  0  0  0  0  0  0
   38.4460   34.5750   39.9540 C   0  0  0  0  0  0  0  0  0  0  0  0
   39.2930   33.9250   40.7500 N   0  0  0  0  0  0  0  0  0  0  0  0
   42.4660   26.6570   44.6280 S   0  0  0  0  0  0  0  0  0  0  0  0
   43.2840   25.5520   43.4330 C   0  0  2  0  0  0  0  0  0  0  0  0
   44.7720   25.4600   43.4240 C   0  0  0  0  0  0  0  0  0  0  0  0
   43.9920   26.1220   42.2660 C   0  0  1  0  0  0  0  0  0  0  0  0
   43.9830   25.5590   40.9710 N   0  0  0  0  0  0  0  0  0  0  0  0
   42.7400   25.1410   40.4200 C   0  0  0  0  0  0  0  0  0  0  0  0
   42.2450   26.2630   39.5340 C   0  0  0  0  0  0  0  0  0  0  0  0
   43.4960   27.0360   39.1860 C   0  0  0  0  0  0  0  0  0  0  0  0
   44.6220   26.3970   39.9690 C   0  0  0  0  0  0  0  0  0  0  0  0
   35.5584   30.4422   40.3055 H   0  0  0  0  0  0  0  0  0  0  0  0
   39.7734   32.1723   41.7964 H   0  0  0  0  0  0  0  0  0  0  0  0
   36.0794   32.1889   39.5404 H   0  0  0  0  0  0  0  0  0  0  0  0
   38.6650   35.6074   39.6438 H   0  0  0  0  0  0  0  0  0  0  0  0
   42.4726   24.8175   43.5427 H   0  0  0  0  0  0  0  0  0  0  0  0
   45.3699   26.0748   44.1129 H   0  0  0  0  0  0  0  0  0  0  0  0
   45.5118   24.6510   43.5144 H   0  0  0  0  0  0  0  0  0  0  0  0
   43.9760   27.1009   41.7644 H   0  0  0  0  0  0  0  0  0  0  0  0
   42.8794   24.2254   39.8265 H   0  0  0  0  0  0  0  0  0  0  0  0
   42.0133   24.9218   41.2162 H   0  0  0  0  0  0  0  0  0  0  0  0
   41.7679   25.8631   38.6271 H   0  0  0  0  0  0  0  0  0  0  0  0
   41.4860   26.8877   40.0276 H   0  0  0  0  0  0  0  0  0  0  0  0
   43.6970   26.9692   38.1066 H   0  0  0  0  0  0  0  0  0  0  0  0
   43.3898   28.1019   39.4363 H   0  0  0  0  0  0  0  0  0  0  0  0
   45.2521   25.7870   39.3050 H   0  0  0  0  0  0  0  0  0  0  0  0
   45.2741   27.1533   40.4303 H   0  0  0  0  0  0  0  0  0  0  0  0
  1  5  1  0
  1  2  2  0
  2  3  1  0
  4  3  1  0
  4 17  1  0
  5  4  2  0
  6 10  1  0
  7  6  2  0
  7  8  1  0
  8  9  1  0
  9  1  1  0
 10  9  2  0
 12 11  2  0
 12  6  1  0
 13 12  1  0
 14 13  2  0
 14 15  1  0
 15 16  2  0
 16 11  1  0
 18 17  1  0
 19 18  1  0
 20 19  1  0
 20 18  1  0
 21 22  1  0
 21 20  1  0
 23 22  1  0
 24 23  1  0
 24 25  1  0
 25 21  1  0
  7 26  1  0
 11 27  1  0
 13 28  1  0
 15 29  1  0
 18 30  1  6
 19 31  1  0
 19 32  1  0
 20 33  1  6
 22 34  1  0
 22 35  1  0
 23 36  1  0
 23 37  1  0
 24 38  1  0
 24 39  1  0
 25 40  1  0
 25 41  1  0
M  ISO  8  26  14  27  14  28  14  29  14  30  13  31  13  32  13  33  13
M  ISO  8  34  13  35  13  36  13  37  13  38  13  39  13  40  13  41  13
M  END
>  <minimizedAffinity>  (1) 
-4.81855631

>  <minimizedRMSD>  (1) 
0.153103963

$$$$
