
     RDKit          3D

 32 35  0  0  1  0  0  0  0  0999 V2000
   39.2050   27.8760   42.9650 C   0  0  0  0  0  0  0  0  0  0  0  0
   38.7540   26.6960   43.4370 N   0  0  0  0  0  0  0  0  0  0  0  0
   39.7160   26.0830   44.0540 O   0  0  0  0  0  0  0  0  0  0  0  0
   40.7830   26.8850   43.9700 C   0  0  0  0  0  0  0  0  0  0  0  0
   40.5020   28.0280   43.2880 N   0  0  0  0  0  0  0  0  0  0  0  0
   37.6380   30.6470   41.1750 C   0  0  0  0  0  0  0  0  0  0  0  0
   36.3850   30.0270   40.8860 C   0  0  0  0  0  0  0  0  0  0  0  0
   36.5740   28.3550   41.6400 S   0  0  0  0  0  0  0  0  0  0  0  0
   38.3180   28.7850   42.2170 C   0  0  0  0  0  0  0  0  0  0  0  0
   38.3870   29.8290   41.8270 N   0  0  0  0  0  0  0  0  0  0  0  0
   39.0310   32.6790   41.1390 C   0  0  0  0  0  0  0  0  0  0  0  0
   37.9040   32.0280   40.7330 C   0  0  0  0  0  0  0  0  0  0  0  0
   36.9880   32.6860   39.8810 C   0  0  0  0  0  0  0  0  0  0  0  0
   37.3180   33.9490   39.5270 N   0  0  0  0  0  0  0  0  0  0  0  0
   38.4570   34.5640   39.9570 C   0  0  0  0  0  0  0  0  0  0  0  0
   39.2960   33.9220   40.7550 N   0  0  0  0  0  0  0  0  0  0  0  0
   42.4580   26.6520   44.6100 S   0  0  0  0  0  0  0  0  0  0  0  0
   43.2770   25.5180   43.4430 C   0  0  2  0  0  0  0  0  0  0  0  0
   44.7490   25.4920   43.3670 C   0  0  0  0  0  0  0  0  0  0  0  0
   43.8500   26.0350   42.2050 C   0  0  2  0  0  0  0  0  0  0  0  0
   43.9620   27.4830   41.9320 C   0  0  0  0  0  0  0  0  0  0  0  0
   45.0220   28.1790   42.0730 O   0  0  0  0  0  0  0  0  0  0  0  0
   42.9130   28.2720   41.4830 O   0  0  0  0  0  0  0  0  0  0  0  0
   35.5211   30.4434   40.3472 H   0  0  0  0  0  0  0  0  0  0  0  0
   39.7393   32.1608   41.8021 H   0  0  0  0  0  0  0  0  0  0  0  0
   36.0655   32.2017   39.5283 H   0  0  0  0  0  0  0  0  0  0  0  0
   38.6786   35.5939   39.6406 H   0  0  0  0  0  0  0  0  0  0  0  0
   42.5204   24.7473   43.6515 H   0  0  0  0  0  0  0  0  0  0  0  0
   45.3509   26.1829   43.9756 H   0  0  0  0  0  0  0  0  0  0  0  0
   45.5358   24.7305   43.4722 H   0  0  0  0  0  0  0  0  0  0  0  0
   43.6559   25.8244   41.1430 H   0  0  0  0  0  0  0  0  0  0  0  0
   42.0224   27.8691   41.3264 H   0  0  0  0  0  0  0  0  0  0  0  0
  1  5  1  0
  1  2  2  0
  2  3  1  0
  4  3  1  0
  4 17  1  0
  5  4  2  0
  6 10  1  0
  7  6  2  0
  7  8  1  0
  8  9  1  0
  9  1  1  0
 10  9  2  0
 12 11  2  0
 12  6  1  0
 13 12  1  0
 14 13  2  0
 14 15  1  0
 15 16  2  0
 16 11  1  0
 18 17  1  0
 19 18  1  0
 20 19  1  0
 20 18  1  0
 21 22  2  0
 21 20  1  0
 23 21  1  0
  7 24  1  0
 11 25  1  0
 13 26  1  0
 15 27  1  0
 18 28  1  6
 19 29  1  0
 19 30  1  0
 20 31  1  6
 23 32  1  0
M  ISO  8  24  14  25  14  26  14  27  14  28  13  29  13  30  13  31  13
M  ISO  1  32   3
M  END
>  <minimizedAffinity>  (1) 
-4.66409492

>  <minimizedRMSD>  (1) 
0.335321158

$$$$
