
     RDKit          3D

 31 34  0  0  1  0  0  0  0  0999 V2000
   39.2080   27.8640   42.9690 C   0  0  0  0  0  0  0  0  0  0  0  0
   38.7450   26.6890   43.4490 N   0  0  0  0  0  0  0  0  0  0  0  0
   39.7180   26.0800   44.0620 O   0  0  0  0  0  0  0  0  0  0  0  0
   40.7890   26.8740   43.9650 C   0  0  0  0  0  0  0  0  0  0  0  0
   40.5110   28.0160   43.2790 N   0  0  0  0  0  0  0  0  0  0  0  0
   37.6450   30.6540   41.1680 C   0  0  0  0  0  0  0  0  0  0  0  0
   36.4210   30.0260   40.8920 C   0  0  0  0  0  0  0  0  0  0  0  0
   36.5590   28.3510   41.6300 S   0  0  0  0  0  0  0  0  0  0  0  0
   38.3220   28.7730   42.2210 C   0  0  0  0  0  0  0  0  0  0  0  0
   38.3820   29.8240   41.8230 N   0  0  0  0  0  0  0  0  0  0  0  0
   39.0470   32.6810   41.1430 C   0  0  0  0  0  0  0  0  0  0  0  0
   37.9040   32.0190   40.7300 C   0  0  0  0  0  0  0  0  0  0  0  0
   36.9760   32.6720   39.8740 C   0  0  0  0  0  0  0  0  0  0  0  0
   37.3040   33.9510   39.5160 N   0  0  0  0  0  0  0  0  0  0  0  0
   38.4520   34.5660   39.9530 C   0  0  0  0  0  0  0  0  0  0  0  0
   39.3100   33.9230   40.7620 N   0  0  0  0  0  0  0  0  0  0  0  0
   42.4680   26.6340   44.5950 S   0  0  0  0  0  0  0  0  0  0  0  0
   43.2890   25.5700   43.3520 C   0  0  2  0  0  0  0  0  0  0  0  0
   44.7550   25.6210   43.2030 C   0  0  0  0  0  0  0  0  0  0  0  0
   43.7800   26.1680   42.1020 C   0  0  1  0  0  0  0  0  0  0  0  0
   43.8180   25.4570   40.8110 C   0  0  0  0  0  0  0  0  0  0  0  0
   42.7660   24.9900   40.3640 O   0  0  0  0  0  0  0  0  0  0  0  0
   35.5621   30.4475   40.3492 H   0  0  0  0  0  0  0  0  0  0  0  0
   39.7562   32.1626   41.8051 H   0  0  0  0  0  0  0  0  0  0  0  0
   36.0559   32.1819   39.5230 H   0  0  0  0  0  0  0  0  0  0  0  0
   38.6710   35.5966   39.6369 H   0  0  0  0  0  0  0  0  0  0  0  0
   42.5858   24.7526   43.5697 H   0  0  0  0  0  0  0  0  0  0  0  0
   45.3523   26.3155   43.8120 H   0  0  0  0  0  0  0  0  0  0  0  0
   45.5798   24.8941   43.2391 H   0  0  0  0  0  0  0  0  0  0  0  0
   43.5416   27.1103   41.5871 H   0  0  0  0  0  0  0  0  0  0  0  0
   44.7625   25.3451   40.2583 H   0  0  0  0  0  0  0  0  0  0  0  0
  1  5  1  0
  1  2  2  0
  2  3  1  0
  4  3  1  0
  4 17  1  0
  5  4  2  0
  6 10  1  0
  7  6  2  0
  7  8  1  0
  8  9  1  0
  9  1  1  0
 10  9  2  0
 12 11  2  0
 12  6  1  0
 13 12  1  0
 14 13  2  0
 14 15  1  0
 15 16  2  0
 16 11  1  0
 18 17  1  0
 19 18  1  0
 20 19  1  0
 20 18  1  0
 21 20  1  0
 22 21  2  0
  7 23  1  0
 11 24  1  0
 13 25  1  0
 15 26  1  0
 18 27  1  6
 19 28  1  0
 19 29  1  0
 20 30  1  6
 21 31  1  0
M  ISO  8  23  14  24  14  25  14  26  14  27  13  28  13  29  13  30  13
M  ISO  1  31   6
M  END
>  <minimizedAffinity>  (1) 
-4.63879204

>  <minimizedRMSD>  (1) 
0.193446681

$$$$
