
     RDKit          3D

 25 27  0  0  0  0  0  0  0  0999 V2000
   36.7080   27.2960   43.0490 S   0  0  0  0  0  0  0  0  0  0  0  0
   38.0500   26.2180   42.5000 C   0  0  0  0  0  0  0  0  0  0  0  0
   37.9300   25.2630   41.5050 C   0  0  0  0  0  0  0  0  0  0  0  0
   39.1300   24.6860   41.3980 N   0  0  0  0  0  0  0  0  0  0  0  0
   39.9780   25.2630   42.3000 C   0  0  0  0  0  0  0  0  0  0  0  0
   41.3150   24.9530   42.5100 C   0  0  0  0  0  0  0  0  0  0  0  0
   41.9660   25.6720   43.4770 C   0  0  0  0  0  0  0  0  0  0  0  0
   41.3260   26.6580   44.2070 C   0  0  0  0  0  0  0  0  0  0  0  0
   39.9910   26.9620   43.9900 C   0  0  0  0  0  0  0  0  0  0  0  0
   39.3150   26.2550   43.0250 C   0  0  0  0  0  0  0  0  0  0  0  0
   37.5150   29.7670   42.0600 C   0  0  0  0  0  0  0  0  0  0  0  0
   36.5980   28.7090   41.9310 C   0  0  0  0  0  0  0  0  0  0  0  0
   35.6160   28.7790   40.9310 C   0  0  0  0  0  0  0  0  0  0  0  0
   35.6140   29.8840   40.1350 N   0  0  0  0  0  0  0  0  0  0  0  0
   36.5020   30.8740   40.2860 C   0  0  0  0  0  0  0  0  0  0  0  0
   37.4500   30.8420   41.2270 N   0  0  0  0  0  0  0  0  0  0  0  0
   37.0285   25.0270   40.9205 H   0  0  0  0  0  0  0  0  0  0  0  0
   39.3755   23.9301   40.7429 H   0  0  0  0  0  0  0  0  0  0  0  0
   41.8252   24.1702   41.9296 H   0  0  0  0  0  0  0  0  0  0  0  0
   43.0263   25.4599   43.6788 H   0  0  0  0  0  0  0  0  0  0  0  0
   41.8874   27.2113   44.9743 H   0  0  0  0  0  0  0  0  0  0  0  0
   39.4873   27.7467   44.5736 H   0  0  0  0  0  0  0  0  0  0  0  0
   38.2903   29.7259   42.8393 H   0  0  0  0  0  0  0  0  0  0  0  0
   34.8782   27.9744   40.7956 H   0  0  0  0  0  0  0  0  0  0  0  0
   36.4496   31.7427   39.6132 H   0  0  0  0  0  0  0  0  0  0  0  0
  2 10  1  0
  2  1  1  0
  3  2  2  0
  4  3  1  0
  4  5  1  0
  5  6  2  0
  5 10  1  0
  6  7  1  0
  7  8  2  0
  9  8  1  0
 10  9  2  0
 12 11  2  0
 12  1  1  0
 13 12  1  0
 14 15  1  0
 14 13  2  0
 15 16  2  0
 16 11  1  0
  3 17  1  0
  4 18  1  0
  6 19  1  0
  7 20  1  0
  8 21  1  0
  9 22  1  0
 11 23  1  0
 13 24  1  0
 15 25  1  0
M  ISO  8  17  14  18   9  19  14  20  14  21  14  22  14  23  14  24  14
M  ISO  1  25  14
M  END
>  <minimizedAffinity>  (1) 
-4.44555283

>  <minimizedRMSD>  (1) 
1.70223939

$$$$
