
     RDKit          3D

 26 27  0  0  0  0  0  0  0  0999 V2000
   37.6250   29.7620   41.9840 C   0  0  0  0  0  0  0  0  0  0  0  0
   36.8000   28.6360   41.8820 C   0  0  0  0  0  0  0  0  0  0  0  0
   35.7020   28.6860   40.9870 C   0  0  0  0  0  0  0  0  0  0  0  0
   35.5160   29.8320   40.2790 N   0  0  0  0  0  0  0  0  0  0  0  0
   36.3310   30.8860   40.4100 C   0  0  0  0  0  0  0  0  0  0  0  0
   37.3800   30.8820   41.2420 N   0  0  0  0  0  0  0  0  0  0  0  0
   37.1490   27.1820   42.8680 S   0  0  0  0  0  0  0  0  0  0  0  0
   40.7450   24.5990   43.2190 N   0  0  0  0  0  0  0  0  0  0  0  0
   39.3890   24.3800   42.7610 C   0  0  0  0  0  0  0  0  0  0  0  0
   38.9150   25.4690   41.8200 C   0  0  0  0  0  0  0  0  0  0  0  0
   38.8730   26.7480   42.6270 C   0  0  0  0  0  0  0  0  0  0  0  0
   39.6340   26.5770   43.9250 C   0  0  0  0  0  0  0  0  0  0  0  0
   40.9890   25.9930   43.5350 C   0  0  0  0  0  0  0  0  0  0  0  0
   38.4832   29.7446   42.6718 H   0  0  0  0  0  0  0  0  0  0  0  0
   35.0241   27.8278   40.8693 H   0  0  0  0  0  0  0  0  0  0  0  0
   36.1316   31.7878   39.8125 H   0  0  0  0  0  0  0  0  0  0  0  0
   41.3983   24.3059   42.4786 H   0  0  0  0  0  0  0  0  0  0  0  0
   39.3451   23.4148   42.2352 H   0  0  0  0  0  0  0  0  0  0  0  0
   38.7313   24.3885   43.6427 H   0  0  0  0  0  0  0  0  0  0  0  0
   37.9125   25.2292   41.4360 H   0  0  0  0  0  0  0  0  0  0  0  0
   39.5876   25.5670   40.9551 H   0  0  0  0  0  0  0  0  0  0  0  0
   39.3700   27.5748   42.0984 H   0  0  0  0  0  0  0  0  0  0  0  0
   39.7643   27.5485   44.4241 H   0  0  0  0  0  0  0  0  0  0  0  0
   39.0969   25.9229   44.6276 H   0  0  0  0  0  0  0  0  0  0  0  0
   41.6972   26.0772   44.3724 H   0  0  0  0  0  0  0  0  0  0  0  0
   41.4294   26.5294   42.6816 H   0  0  0  0  0  0  0  0  0  0  0  0
  2  1  2  0
  2  7  1  0
  3  2  1  0
  4  5  1  0
  4  3  2  0
  5  6  2  0
  6  1  1  0
  8 13  1  0
  9  8  1  0
 10 11  1  0
 10  9  1  0
 11  7  1  0
 11 12  1  0
 13 12  1  0
  1 14  1  0
  3 15  1  0
  5 16  1  0
  8 17  1  0
  9 18  1  0
  9 19  1  0
 10 20  1  0
 10 21  1  0
 11 22  1  0
 12 23  1  0
 12 24  1  0
 13 25  1  0
 13 26  1  0
M  ISO  8  14  14  15  14  16  14  17   5  18  13  19  13  20  13  21  13
M  ISO  5  22  13  23  13  24  13  25  13  26  13
M  END
>  <minimizedAffinity>  (1) 
-3.94197583

>  <minimizedRMSD>  (1) 
2.08182621

$$$$
