
     RDKit          3D

 18 19  0  0  0  0  0  0  0  0999 V2000
   37.9830   29.3530   41.7290 C   0  0  0  0  0  0  0  0  0  0  0  0
   36.9340   28.4610   41.5200 C   0  0  0  0  0  0  0  0  0  0  0  0
   35.7530   28.9630   40.9170 C   0  0  0  0  0  0  0  0  0  0  0  0
   35.7220   30.2820   40.5830 N   0  0  0  0  0  0  0  0  0  0  0  0
   36.7590   31.0990   40.8060 C   0  0  0  0  0  0  0  0  0  0  0  0
   37.9010   30.6500   41.3790 N   0  0  0  0  0  0  0  0  0  0  0  0
   37.0630   26.7370   41.9920 S   0  0  0  0  0  0  0  0  0  0  0  0
   40.1420   26.4570   44.3390 N   0  0  0  0  0  0  0  0  0  0  0  0
   38.9470   26.9560   44.0310 N   0  0  0  0  0  0  0  0  0  0  0  0
   38.5670   26.4070   42.8390 C   0  0  0  0  0  0  0  0  0  0  0  0
   39.5830   25.5830   42.4830 C   0  0  0  0  0  0  0  0  0  0  0  0
   40.6030   25.5810   43.4010 C   0  0  0  0  0  0  0  0  0  0  0  0
   38.9089   28.9854   42.1954 H   0  0  0  0  0  0  0  0  0  0  0  0
   34.8903   28.3080   40.7255 H   0  0  0  0  0  0  0  0  0  0  0  0
   36.6817   32.1577   40.5176 H   0  0  0  0  0  0  0  0  0  0  0  0
   40.6619   26.7054   45.1928 H   0  0  0  0  0  0  0  0  0  0  0  0
   39.5891   24.9829   41.5611 H   0  0  0  0  0  0  0  0  0  0  0  0
   41.5481   25.0183   43.3845 H   0  0  0  0  0  0  0  0  0  0  0  0
  2  1  2  0
  2  7  1  0
  3  2  1  0
  4  5  1  0
  4  3  2  0
  5  6  2  0
  6  1  1  0
  7 10  1  0
  9  8  1  0
 10  9  2  0
 11 10  1  0
 11 12  2  0
 12  8  1  0
  1 13  1  0
  3 14  1  0
  5 15  1  0
  8 16  1  0
 11 17  1  0
 12 18  1  0
M  ISO  6  13  14  14  14  15  14  16   9  17  14  18  14
M  END
>  <minimizedAffinity>  (1) 
-3.53346205

>  <minimizedRMSD>  (1) 
2.19653296

$$$$
