
     RDKit          3D

 24 25  0  0  0  0  0  0  0  0999 V2000
   39.3190   31.9210   41.3500 C   0  0  0  0  0  0  0  0  0  0  0  0
   38.9810   30.5970   41.0520 C   0  0  0  0  0  0  0  0  0  0  0  0
   37.8590   30.3630   40.2550 C   0  0  0  0  0  0  0  0  0  0  0  0
   37.1500   31.4410   39.8080 N   0  0  0  0  0  0  0  0  0  0  0  0
   37.5140   32.6940   40.1190 C   0  0  0  0  0  0  0  0  0  0  0  0
   38.5770   32.9620   40.8770 N   0  0  0  0  0  0  0  0  0  0  0  0
   39.9760   29.2600   41.6920 S   0  0  0  0  0  0  0  0  0  0  0  0
   39.0000   28.0830   42.6340 C   0  0  0  0  0  0  0  0  0  0  0  0
   37.8950   28.6970   43.4380 C   0  0  0  0  0  0  0  0  0  0  0  0
   36.6480   27.8480   43.1550 C   0  0  0  0  0  0  0  0  0  0  0  0
   37.2680   26.5200   42.7090 C   0  0  0  0  0  0  0  0  0  0  0  0
   38.3350   27.0570   41.7510 C   0  0  0  0  0  0  0  0  0  0  0  0
   40.1992   32.1259   41.9772 H   0  0  0  0  0  0  0  0  0  0  0  0
   37.5545   29.3386   39.9943 H   0  0  0  0  0  0  0  0  0  0  0  0
   36.9131   33.5312   39.7343 H   0  0  0  0  0  0  0  0  0  0  0  0
   39.7446   27.6317   43.3062 H   0  0  0  0  0  0  0  0  0  0  0  0
   38.1411   28.6703   44.5098 H   0  0  0  0  0  0  0  0  0  0  0  0
   37.7361   29.7513   43.1675 H   0  0  0  0  0  0  0  0  0  0  0  0
   36.0363   27.7205   44.0603 H   0  0  0  0  0  0  0  0  0  0  0  0
   35.9653   28.2917   42.4153 H   0  0  0  0  0  0  0  0  0  0  0  0
   37.7112   25.9692   43.5517 H   0  0  0  0  0  0  0  0  0  0  0  0
   36.5651   25.7951   42.2726 H   0  0  0  0  0  0  0  0  0  0  0  0
   37.8858   27.5179   40.8589 H   0  0  0  0  0  0  0  0  0  0  0  0
   39.0129   26.2930   41.3426 H   0  0  0  0  0  0  0  0  0  0  0  0
  2  1  2  0
  2  7  1  0
  3  2  1  0
  4  5  1  0
  4  3  2  0
  5  6  2  0
  6  1  1  0
  7  8  1  0
  8  9  1  0
 10  9  1  0
 11 10  1  0
 12  8  1  0
 12 11  1  0
  1 13  1  0
  3 14  1  0
  5 15  1  0
  8 16  1  0
  9 17  1  0
  9 18  1  0
 10 19  1  0
 10 20  1  0
 11 21  1  0
 11 22  1  0
 12 23  1  0
 12 24  1  0
M  ISO  8  13  14  14  14  15  14  16  13  17  13  18  13  19  13  20  13
M  ISO  4  21  13  22  13  23  13  24  13
M  END
>  <minimizedAffinity>  (1) 
-3.484056

>  <minimizedRMSD>  (1) 
3.14427519

$$$$
