
     RDKit          3D

 27 28  0  0  0  0  0  0  0  0999 V2000
   37.4950   30.0100   41.7670 C   0  0  0  0  0  0  0  0  0  0  0  0
   38.2430   29.1460   40.9610 C   0  0  0  0  0  0  0  0  0  0  0  0
   37.7920   28.9300   39.6480 C   0  0  0  0  0  0  0  0  0  0  0  0
   36.6590   29.5790   39.2600 N   0  0  0  0  0  0  0  0  0  0  0  0
   35.9740   30.3960   40.0640 C   0  0  0  0  0  0  0  0  0  0  0  0
   36.3770   30.6300   41.3330 N   0  0  0  0  0  0  0  0  0  0  0  0
   39.7150   28.3660   41.6190 S   0  0  0  0  0  0  0  0  0  0  0  0
   39.4230   26.6760   42.1500 C   0  0  0  0  0  0  0  0  0  0  0  0
   38.2590   26.6840   43.1210 C   0  0  0  0  0  0  0  0  0  0  0  0
   37.0070   26.1690   42.4280 C   0  0  0  0  0  0  0  0  0  0  0  0
   37.1930   24.6840   42.2180 C   0  0  0  0  0  0  0  0  0  0  0  0
   38.5050   24.4720   41.5320 C   0  0  0  0  0  0  0  0  0  0  0  0
   39.1260   25.7380   41.0210 C   0  0  0  0  0  0  0  0  0  0  0  0
   37.8318   30.1922   42.7982 H   0  0  0  0  0  0  0  0  0  0  0  0
   38.3326   28.2630   38.9604 H   0  0  0  0  0  0  0  0  0  0  0  0
   35.0651   30.8876   39.6868 H   0  0  0  0  0  0  0  0  0  0  0  0
   40.3468   26.3079   42.6203 H   0  0  0  0  0  0  0  0  0  0  0  0
   38.4943   26.0366   43.9786 H   0  0  0  0  0  0  0  0  0  0  0  0
   38.0841   27.7124   43.4701 H   0  0  0  0  0  0  0  0  0  0  0  0
   36.1244   26.3531   43.0581 H   0  0  0  0  0  0  0  0  0  0  0  0
   36.8517   26.6833   41.4681 H   0  0  0  0  0  0  0  0  0  0  0  0
   37.1923   24.1672   43.1891 H   0  0  0  0  0  0  0  0  0  0  0  0
   36.3733   24.2803   41.6055 H   0  0  0  0  0  0  0  0  0  0  0  0
   39.2002   24.0073   42.2467 H   0  0  0  0  0  0  0  0  0  0  0  0
   38.3130   23.8312   40.6588 H   0  0  0  0  0  0  0  0  0  0  0  0
   40.0626   25.4950   40.4977 H   0  0  0  0  0  0  0  0  0  0  0  0
   38.4195   26.2255   40.3331 H   0  0  0  0  0  0  0  0  0  0  0  0
  2  7  1  0
  2  1  2  0
  3  2  1  0
  4  3  2  0
  4  5  1  0
  5  6  2  0
  6  1  1  0
  7  8  1  0
  8  9  1  0
 10  9  1  0
 11 10  1  0
 12 11  1  0
 13 12  1  0
 13  8  1  0
  1 14  1  0
  3 15  1  0
  5 16  1  0
  8 17  1  0
  9 18  1  0
  9 19  1  0
 10 20  1  0
 10 21  1  0
 11 22  1  0
 11 23  1  0
 12 24  1  0
 12 25  1  0
 13 26  1  0
 13 27  1  0
M  ISO  8  14  14  15  14  16  14  17  13  18  13  19  13  20  13  21  13
M  ISO  6  22  13  23  13  24  13  25  13  26  13  27  13
M  END
>  <minimizedAffinity>  (1) 
-3.44778252

>  <minimizedRMSD>  (1) 
3.47810555

$$$$
