
     RDKit          3D

 20 20  0  0  0  0  0  0  0  0999 V2000
   38.3940   29.6210   40.2320 C   0  0  0  0  0  0  0  0  0  0  0  0
   37.1340   29.0680   40.5640 C   0  0  0  0  0  0  0  0  0  0  0  0
   36.0950   29.9510   40.8790 C   0  0  0  0  0  0  0  0  0  0  0  0
   36.3390   31.3040   40.8530 N   0  0  0  0  0  0  0  0  0  0  0  0
   37.5560   31.7730   40.5320 C   0  0  0  0  0  0  0  0  0  0  0  0
   38.5670   30.9580   40.2260 N   0  0  0  0  0  0  0  0  0  0  0  0
   36.8460   27.2940   40.5870 S   0  0  0  0  0  0  0  0  0  0  0  0
   37.2800   26.5850   42.1900 C   0  0  0  0  0  0  0  0  0  0  0  0
   36.5890   27.2400   43.3450 C   0  0  0  0  0  0  0  0  0  0  0  0
   37.0000   25.1030   42.2510 C   0  0  0  0  0  0  0  0  0  0  0  0
   39.2343   28.9580   39.9782 H   0  0  0  0  0  0  0  0  0  0  0  0
   35.0981   29.5685   41.1434 H   0  0  0  0  0  0  0  0  0  0  0  0
   37.7239   32.8601   40.5211 H   0  0  0  0  0  0  0  0  0  0  0  0
   38.3605   26.7696   42.2822 H   0  0  0  0  0  0  0  0  0  0  0  0
   37.0005   26.8499   44.2876 H   0  0  0  0  0  0  0  0  0  0  0  0
   36.7472   28.3276   43.2981 H   0  0  0  0  0  0  0  0  0  0  0  0
   35.5115   27.0239   43.2981 H   0  0  0  0  0  0  0  0  0  0  0  0
   36.9398   24.7842   43.3021 H   0  0  0  0  0  0  0  0  0  0  0  0
   36.0456   24.8891   41.7477 H   0  0  0  0  0  0  0  0  0  0  0  0
   37.8106   24.5557   41.7477 H   0  0  0  0  0  0  0  0  0  0  0  0
  1  2  2  0
  2  7  1  0
  2  3  1  0
  4  3  2  0
  5  4  1  0
  6  1  1  0
  6  5  2  0
  7  8  1  0
  8 10  1  0
  8  9  1  0
  1 11  1  0
  3 12  1  0
  5 13  1  0
  8 14  1  0
  9 15  1  0
  9 16  1  0
  9 17  1  0
 10 18  1  0
 10 19  1  0
 10 20  1  0
M  ISO  8  11  14  12  14  13  14  14   8  15   8  16   8  17   8  18   8
M  ISO  2  19   8  20   8
M  END
>  <minimizedAffinity>  (1) 
-3.02609563

>  <minimizedRMSD>  (1) 
2.62882566

$$$$
