
     RDKit          3D

 30 33  0  0  0  0  0  0  0  0999 V2000
   37.5210   30.5320   39.2790 C   0  0  0  0  0  0  0  0  0  0  0  0
   38.2160   30.1900   38.0810 C   0  0  0  0  0  0  0  0  0  0  0  0
   39.2720   31.7230   37.8890 S   0  0  0  0  0  0  0  0  0  0  0  0
   38.5580   32.4950   39.4580 C   0  0  0  0  0  0  0  0  0  0  0  0
   37.8240   31.6950   39.8010 N   0  0  0  0  0  0  0  0  0  0  0  0
   39.0230   33.7710   39.8530 N   0  0  0  0  0  0  0  0  0  0  0  0
   38.2860   34.8710   39.7950 C   0  0  0  0  0  0  0  0  0  0  0  0
   39.0520   35.8970   40.2490 N   0  0  0  0  0  0  0  0  0  0  0  0
   40.2550   35.3980   40.5790 C   0  0  0  0  0  0  0  0  0  0  0  0
   41.4350   35.9050   41.0840 C   0  0  0  0  0  0  0  0  0  0  0  0
   42.5190   35.1450   41.3250 N   0  0  0  0  0  0  0  0  0  0  0  0
   42.4670   33.8070   41.0630 C   0  0  0  0  0  0  0  0  0  0  0  0
   41.3330   33.2770   40.5700 N   0  0  0  0  0  0  0  0  0  0  0  0
   40.2650   34.0340   40.3340 C   0  0  0  0  0  0  0  0  0  0  0  0
   41.5080   37.2990   41.3630 N   0  0  0  0  0  0  0  0  0  0  0  0
   36.3330   29.3030   39.8930 S   0  0  0  0  0  0  0  0  0  0  0  0
   36.9280   27.1920   41.6710 C   0  0  0  0  0  0  0  0  0  0  0  0
   36.9160   28.5930   41.4290 C   0  0  0  0  0  0  0  0  0  0  0  0
   37.3910   29.4220   42.4710 C   0  0  0  0  0  0  0  0  0  0  0  0
   37.8250   28.8460   43.6270 N   0  0  0  0  0  0  0  0  0  0  0  0
   37.8070   27.4990   43.7850 C   0  0  0  0  0  0  0  0  0  0  0  0
   37.3680   26.6730   42.8300 N   0  0  0  0  0  0  0  0  0  0  0  0
   38.1504   29.2888   37.4536 H   0  0  0  0  0  0  0  0  0  0  0  0
   37.2458   34.9404   39.4440 H   0  0  0  0  0  0  0  0  0  0  0  0
   43.3426   33.1687   41.2528 H   0  0  0  0  0  0  0  0  0  0  0  0
   42.3766   37.7039   41.7405 H   0  0  0  0  0  0  0  0  0  0  0  0
   40.6922   37.9028   41.1874 H   0  0  0  0  0  0  0  0  0  0  0  0
   36.5661   26.5121   40.8856 H   0  0  0  0  0  0  0  0  0  0  0  0
   37.4099   30.5152   42.3504 H   0  0  0  0  0  0  0  0  0  0  0  0
   38.1664   27.0711   44.7325 H   0  0  0  0  0  0  0  0  0  0  0  0
  1  5  1  0
  1 16  1  0
  2  1  2  0
  3  2  1  0
  3  4  1  0
  4  5  2  0
  4  6  1  0
  6 14  1  0
  7  6  1  0
  7  8  2  0
  8  9  1  0
  9 10  2  0
 10 11  1  0
 10 15  1  0
 12 11  2  0
 13 12  1  0
 14 13  2  0
 14  9  1  0
 16 18  1  0
 17 22  2  0
 18 17  1  0
 18 19  2  0
 19 20  1  0
 20 21  2  0
 22 21  1  0
  2 23  1  0
  7 24  1  0
 12 25  1  0
 15 26  1  0
 15 27  1  0
 17 28  1  0
 19 29  1  0
 21 30  1  0
M  ISO  6  23  14  24  14  25  14  28  14  29  14  30  14
M  END
>  <minimizedAffinity>  (1) 
-6.15986729

>  <minimizedRMSD>  (1) 
1.39985037

$$$$
