
     RDKit          3D

 30 32  0  0  0  0  0  0  0  0999 V2000
   37.5530   29.1450   41.3340 C   0  0  0  0  0  0  0  0  0  0  0  0
   37.5290   28.6210   39.9910 C   0  0  0  0  0  0  0  0  0  0  0  0
   38.2480   30.0870   39.0710 S   0  0  0  0  0  0  0  0  0  0  0  0
   38.4240   31.0790   40.6660 C   0  0  0  0  0  0  0  0  0  0  0  0
   38.0280   30.3710   41.4610 N   0  0  0  0  0  0  0  0  0  0  0  0
   39.8060   35.0050   40.2210 C   0  0  0  0  0  0  0  0  0  0  0  0
   40.7690   34.0300   40.4770 C   0  0  0  0  0  0  0  0  0  0  0  0
   40.3120   32.7360   40.6230 C   0  0  0  0  0  0  0  0  0  0  0  0
   38.9880   32.4310   40.5230 C   0  0  0  0  0  0  0  0  0  0  0  0
   38.0470   33.3770   40.2730 C   0  0  0  0  0  0  0  0  0  0  0  0
   38.4530   34.7010   40.1170 C   0  0  0  0  0  0  0  0  0  0  0  0
   40.4520   36.6320   40.0450 S   0  0  0  0  0  0  0  0  0  0  0  0
   41.3360   37.0160   41.1880 O   0  0  0  0  0  0  0  0  0  0  0  0
   39.2740   37.5890   39.9300 O   0  0  0  0  0  0  0  0  0  0  0  0
   36.9320   28.0260   42.6110 S   0  0  0  0  0  0  0  0  0  0  0  0
   37.8440   25.3950   42.2270 C   0  0  0  0  0  0  0  0  0  0  0  0
   38.0600   26.6550   42.8350 C   0  0  0  0  0  0  0  0  0  0  0  0
   39.2200   26.7830   43.6360 C   0  0  0  0  0  0  0  0  0  0  0  0
   40.0420   25.7110   43.7720 N   0  0  0  0  0  0  0  0  0  0  0  0
   39.7790   24.5390   43.1680 C   0  0  0  0  0  0  0  0  0  0  0  0
   38.6950   24.3620   42.3970 N   0  0  0  0  0  0  0  0  0  0  0  0
   37.1880   27.6449   39.6156 H   0  0  0  0  0  0  0  0  0  0  0  0
   41.8373   34.2791   40.5584 H   0  0  0  0  0  0  0  0  0  0  0  0
   41.0343   31.9313   40.8250 H   0  0  0  0  0  0  0  0  0  0  0  0
   36.9843   33.1037   40.1950 H   0  0  0  0  0  0  0  0  0  0  0  0
   37.7158   35.4921   39.9151 H   0  0  0  0  0  0  0  0  0  0  0  0
   41.2347   36.6878   38.9220 H   0  0  0  0  0  0  0  0  0  0  0  0
   36.9541   25.2537   41.5960 H   0  0  0  0  0  0  0  0  0  0  0  0
   39.4512   27.7335   44.1390 H   0  0  0  0  0  0  0  0  0  0  0  0
   40.4744   23.6986   43.3103 H   0  0  0  0  0  0  0  0  0  0  0  0
  1  5  1  0
  1 15  1  0
  2  1  2  0
  3  2  1  0
  3  4  1  0
  4  5  2  0
  6  7  2  0
  7  8  1  0
  9  8  2  0
  9  4  1  0
 10  9  1  0
 11  6  1  0
 11 10  2  0
 12  6  1  0
 12 13  2  0
 14 12  2  0
 15 17  1  0
 16 21  2  0
 16 17  1  0
 17 18  2  0
 18 19  1  0
 20 19  2  0
 21 20  1  0
  2 22  1  0
  7 23  1  0
  8 24  1  0
 10 25  1  0
 11 26  1  0
 12 27  1  0
 16 28  1  0
 18 29  1  0
 20 30  1  0
M  ISO  8  22  14  23  14  24  14  25  14  26  14  27  11  28  14  29  14
M  ISO  1  30  14
M  END
>  <minimizedAffinity>  (1) 
-5.52429199

>  <minimizedRMSD>  (1) 
3.1451745

$$$$
