
     RDKit          3D

 31 33  0  0  0  0  0  0  0  0999 V2000
   38.1480   31.8090   40.1920 C   0  0  0  0  0  0  0  0  0  0  0  0
   38.8600   31.0450   39.2280 C   0  0  0  0  0  0  0  0  0  0  0  0
   40.2370   32.2430   38.8250 S   0  0  0  0  0  0  0  0  0  0  0  0
   39.5620   33.5220   40.0420 C   0  0  0  0  0  0  0  0  0  0  0  0
   38.6450   32.9920   40.4570 N   0  0  0  0  0  0  0  0  0  0  0  0
   40.2360   34.7930   40.2180 N   0  0  0  0  0  0  0  0  0  0  0  0
   39.4960   35.9920   39.9290 C   0  0  0  0  0  0  0  0  0  0  0  0
   39.9780   37.1800   40.7140 C   0  0  0  0  0  0  0  0  0  0  0  0
   41.4070   37.2090   40.8780 N   0  0  0  0  0  0  0  0  0  0  0  0
   41.8160   36.0440   41.6000 C   0  0  0  0  0  0  0  0  0  0  0  0
   41.5930   34.8460   40.6670 C   0  0  0  0  0  0  0  0  0  0  0  0
   36.6670   31.0350   40.9060 S   0  0  0  0  0  0  0  0  0  0  0  0
   36.4080   28.3510   41.7100 C   0  0  0  0  0  0  0  0  0  0  0  0
   37.1160   29.5720   41.8240 C   0  0  0  0  0  0  0  0  0  0  0  0
   38.2040   29.5850   42.7010 C   0  0  0  0  0  0  0  0  0  0  0  0
   38.5340   28.4490   43.3980 N   0  0  0  0  0  0  0  0  0  0  0  0
   37.8140   27.3180   43.2410 C   0  0  0  0  0  0  0  0  0  0  0  0
   36.7660   27.2530   42.4150 N   0  0  0  0  0  0  0  0  0  0  0  0
   38.6587   30.0384   38.8328 H   0  0  0  0  0  0  0  0  0  0  0  0
   39.5954   36.2160   38.8567 H   0  0  0  0  0  0  0  0  0  0  0  0
   38.4491   35.8107   40.2138 H   0  0  0  0  0  0  0  0  0  0  0  0
   39.6677   38.0953   40.1888 H   0  0  0  0  0  0  0  0  0  0  0  0
   39.5351   37.1097   41.7184 H   0  0  0  0  0  0  0  0  0  0  0  0
   41.8607   37.2193   39.9534 H   0  0  0  0  0  0  0  0  0  0  0  0
   42.8792   36.1202   41.8716 H   0  0  0  0  0  0  0  0  0  0  0  0
   41.2405   35.9331   42.5308 H   0  0  0  0  0  0  0  0  0  0  0  0
   41.8292   33.9186   41.2093 H   0  0  0  0  0  0  0  0  0  0  0  0
   42.2485   34.9569   39.7907 H   0  0  0  0  0  0  0  0  0  0  0  0
   35.5447   28.2937   41.0308 H   0  0  0  0  0  0  0  0  0  0  0  0
   38.7948   30.5035   42.8326 H   0  0  0  0  0  0  0  0  0  0  0  0
   38.0992   26.4216   43.8112 H   0  0  0  0  0  0  0  0  0  0  0  0
  1  5  1  0
  1 12  1  0
  2  1  2  0
  3  2  1  0
  3  4  1  0
  4  6  1  0
  4  5  2  0
  6 11  1  0
  7  6  1  0
  7  8  1  0
  8  9  1  0
  9 10  1  0
 11 10  1  0
 12 14  1  0
 13 14  2  0
 13 18  1  0
 14 15  1  0
 15 16  2  0
 17 16  1  0
 18 17  2  0
  2 19  1  0
  7 20  1  0
  7 21  1  0
  8 22  1  0
  8 23  1  0
  9 24  1  0
 10 25  1  0
 10 26  1  0
 11 27  1  0
 11 28  1  0
 13 29  1  0
 15 30  1  0
 17 31  1  0
M  ISO  8  19  14  20  13  21  13  22  13  23  13  24   5  25  13  26  13
M  ISO  5  27  13  28  13  29  14  30  14  31  14
M  END
>  <minimizedAffinity>  (1) 
-5.29756451

>  <minimizedRMSD>  (1) 
0.607905567

$$$$
