
     RDKit          3D

 23 25  0  0  0  0  0  0  0  0999 V2000
   37.8690   31.8020   40.1970 C   0  0  0  0  0  0  0  0  0  0  0  0
   38.6690   31.0230   39.2870 C   0  0  0  0  0  0  0  0  0  0  0  0
   39.9510   32.3040   38.8110 S   0  0  0  0  0  0  0  0  0  0  0  0
   39.1510   33.6020   39.9220 C   0  0  0  0  0  0  0  0  0  0  0  0
   38.2690   33.0510   40.3780 N   0  0  0  0  0  0  0  0  0  0  0  0
   39.5980   34.9760   40.1170 N   0  0  0  0  0  0  0  0  0  0  0  0
   40.7960   35.3770   40.5230 C   0  0  0  0  0  0  0  0  0  0  0  0
   40.8460   36.7120   40.5860 N   0  0  0  0  0  0  0  0  0  0  0  0
   39.6260   37.1590   40.2030 C   0  0  0  0  0  0  0  0  0  0  0  0
   38.8890   36.0560   39.9230 N   0  0  0  0  0  0  0  0  0  0  0  0
   36.4710   30.9290   40.9310 S   0  0  0  0  0  0  0  0  0  0  0  0
   36.4120   28.2310   41.7520 C   0  0  0  0  0  0  0  0  0  0  0  0
   37.0520   29.5010   41.8440 C   0  0  0  0  0  0  0  0  0  0  0  0
   38.1780   29.5800   42.6970 C   0  0  0  0  0  0  0  0  0  0  0  0
   38.5740   28.4670   43.3640 N   0  0  0  0  0  0  0  0  0  0  0  0
   37.9170   27.2900   43.2270 C   0  0  0  0  0  0  0  0  0  0  0  0
   36.8500   27.1630   42.4360 N   0  0  0  0  0  0  0  0  0  0  0  0
   38.5590   29.9771   38.9644 H   0  0  0  0  0  0  0  0  0  0  0  0
   41.6308   34.7056   40.7727 H   0  0  0  0  0  0  0  0  0  0  0  0
   39.2988   38.2069   40.1332 H   0  0  0  0  0  0  0  0  0  0  0  0
   35.5323   28.1230   41.1005 H   0  0  0  0  0  0  0  0  0  0  0  0
   38.7231   30.5278   42.8173 H   0  0  0  0  0  0  0  0  0  0  0  0
   38.2743   26.4120   43.7851 H   0  0  0  0  0  0  0  0  0  0  0  0
  1  5  1  0
  1 11  1  0
  2  1  2  0
  3  2  1  0
  3  4  1  0
  4  6  1  0
  4  5  2  0
  6  7  1  0
  7  8  2  0
  9  8  1  0
 10  6  1  0
 10  9  2  0
 11 13  1  0
 12 13  2  0
 12 17  1  0
 13 14  1  0
 14 15  2  0
 16 15  1  0
 17 16  2  0
  2 18  1  0
  7 19  1  0
  9 20  1  0
 12 21  1  0
 14 22  1  0
 16 23  1  0
M  ISO  6  18  14  19  14  20  14  21  14  22  14  23  14
M  END
>  <minimizedAffinity>  (1) 
-5.21940041

>  <minimizedRMSD>  (1) 
0.305477142

$$$$
