
     RDKit          3D

 24 26  0  0  0  0  0  0  0  0999 V2000
   38.0100   31.8100   40.0890 C   0  0  0  0  0  0  0  0  0  0  0  0
   38.7180   31.0250   39.1430 C   0  0  0  0  0  0  0  0  0  0  0  0
   40.0560   32.2220   38.6360 S   0  0  0  0  0  0  0  0  0  0  0  0
   39.3730   33.5550   39.8220 C   0  0  0  0  0  0  0  0  0  0  0  0
   38.4820   33.0180   40.2840 N   0  0  0  0  0  0  0  0  0  0  0  0
   39.8430   34.9310   40.1010 N   0  0  0  0  0  0  0  0  0  0  0  0
   38.9380   35.8720   39.9200 N   0  0  0  0  0  0  0  0  0  0  0  0
   39.5340   37.0470   40.2180 C   0  0  0  0  0  0  0  0  0  0  0  0
   40.8530   36.7600   40.5890 C   0  0  0  0  0  0  0  0  0  0  0  0
   41.0440   35.3950   40.5110 C   0  0  0  0  0  0  0  0  0  0  0  0
   36.5830   31.0110   40.8570 S   0  0  0  0  0  0  0  0  0  0  0  0
   36.3920   28.3430   41.7120 C   0  0  0  0  0  0  0  0  0  0  0  0
   37.0770   29.5810   41.7780 C   0  0  0  0  0  0  0  0  0  0  0  0
   38.1860   29.6300   42.6210 C   0  0  0  0  0  0  0  0  0  0  0  0
   38.5610   28.5160   43.3320 N   0  0  0  0  0  0  0  0  0  0  0  0
   37.8600   27.3630   43.2220 C   0  0  0  0  0  0  0  0  0  0  0  0
   36.7820   27.2710   42.4190 N   0  0  0  0  0  0  0  0  0  0  0  0
   38.5301   29.9959   38.8028 H   0  0  0  0  0  0  0  0  0  0  0  0
   39.0696   38.0433   40.1768 H   0  0  0  0  0  0  0  0  0  0  0  0
   41.6102   37.4982   40.8918 H   0  0  0  0  0  0  0  0  0  0  0  0
   41.9567   34.8216   40.7304 H   0  0  0  0  0  0  0  0  0  0  0  0
   35.5107   28.2573   41.0593 H   0  0  0  0  0  0  0  0  0  0  0  0
   38.7619   30.5623   42.7171 H   0  0  0  0  0  0  0  0  0  0  0  0
   38.1772   26.4828   43.8004 H   0  0  0  0  0  0  0  0  0  0  0  0
  1  5  1  0
  1 11  1  0
  2  1  2  0
  3  2  1  0
  3  4  1  0
  4  6  1  0
  4  5  2  0
  6 10  1  0
  7  6  1  0
  7  8  2  0
  8  9  1  0
 10  9  2  0
 11 13  1  0
 12 13  2  0
 12 17  1  0
 13 14  1  0
 14 15  2  0
 16 15  1  0
 17 16  2  0
  2 18  1  0
  8 19  1  0
  9 20  1  0
 10 21  1  0
 12 22  1  0
 14 23  1  0
 16 24  1  0
M  ISO  7  18  14  19  14  20  14  21  14  22  14  23  14  24  14
M  END
>  <minimizedAffinity>  (1) 
-5.21637869

>  <minimizedRMSD>  (1) 
0.494353712

$$$$
