
     RDKit          3D

 29 30  0  0  0  0  0  0  0  0999 V2000
   36.9220   31.3670   40.6100 S   0  0  0  0  0  0  0  0  0  0  0  0
   36.4320   28.7830   41.6100 C   0  0  0  0  0  0  0  0  0  0  0  0
   37.2610   29.9310   41.6220 C   0  0  0  0  0  0  0  0  0  0  0  0
   38.3850   29.8910   42.4830 C   0  0  0  0  0  0  0  0  0  0  0  0
   38.5990   28.7780   43.2310 N   0  0  0  0  0  0  0  0  0  0  0  0
   37.7630   27.7150   43.1690 C   0  0  0  0  0  0  0  0  0  0  0  0
   36.6870   27.6990   42.3740 N   0  0  0  0  0  0  0  0  0  0  0  0
   38.4670   32.0620   39.9760 C   0  0  0  0  0  0  0  0  0  0  0  0
   39.2220   31.1870   39.1110 C   0  0  0  0  0  0  0  0  0  0  0  0
   40.6790   32.3020   38.7270 S   0  0  0  0  0  0  0  0  0  0  0  0
   39.9740   33.6880   39.7950 C   0  0  0  0  0  0  0  0  0  0  0  0
   39.0040   33.2380   40.1840 N   0  0  0  0  0  0  0  0  0  0  0  0
   40.8160   34.9310   39.8490 C   0  0  0  0  0  0  0  0  0  0  0  0
   39.8970   36.1440   39.9710 C   0  0  0  0  0  0  0  0  0  0  0  0
   41.7320   34.9630   41.0450 C   0  0  0  0  0  0  0  0  0  0  0  0
   41.6680   35.0650   38.6250 C   0  0  0  0  0  0  0  0  0  0  0  0
   35.5485   28.7739   40.9548 H   0  0  0  0  0  0  0  0  0  0  0  0
   39.0730   30.7471   42.5447 H   0  0  0  0  0  0  0  0  0  0  0  0
   37.9756   26.8347   43.7934 H   0  0  0  0  0  0  0  0  0  0  0  0
   39.0051   30.1624   38.7746 H   0  0  0  0  0  0  0  0  0  0  0  0
   39.7263   36.3693   41.0341 H   0  0  0  0  0  0  0  0  0  0  0  0
   40.3671   37.0107   39.4834 H   0  0  0  0  0  0  0  0  0  0  0  0
   38.9354   35.9260   39.4834 H   0  0  0  0  0  0  0  0  0  0  0  0
   41.1322   34.9420   41.9669 H   0  0  0  0  0  0  0  0  0  0  0  0
   42.3976   34.0876   41.0206 H   0  0  0  0  0  0  0  0  0  0  0  0
   42.3349   35.8828   41.0206 H   0  0  0  0  0  0  0  0  0  0  0  0
   42.7141   35.2295   38.9226 H   0  0  0  0  0  0  0  0  0  0  0  0
   41.5974   34.1447   38.0266 H   0  0  0  0  0  0  0  0  0  0  0  0
   41.3184   35.9192   38.0266 H   0  0  0  0  0  0  0  0  0  0  0  0
  1  3  1  0
  2  3  2  0
  2  7  1  0
  3  4  1  0
  4  5  2  0
  6  5  1  0
  7  6  2  0
  8 12  1  0
  8  1  1  0
  9  8  2  0
 10  9  1  0
 10 11  1  0
 11 13  1  0
 11 12  2  0
 13 14  1  0
 13 15  1  0
 16 13  1  0
  2 17  1  0
  4 18  1  0
  6 19  1  0
  9 20  1  0
 14 21  1  0
 14 22  1  0
 14 23  1  0
 15 24  1  0
 15 25  1  0
 15 26  1  0
 16 27  1  0
 16 28  1  0
 16 29  1  0
M  ISO  8  17  14  18  14  19  14  20  14  21   8  22   8  23   8  24   8
M  ISO  5  25   8  26   8  27   8  28   8  29   8
M  END
>  <minimizedAffinity>  (1) 
-4.30725145

>  <minimizedRMSD>  (1) 
1.01952791

$$$$
