
     RDKit          3D

 20 21  0  0  0  0  0  0  0  0999 V2000
   36.4350   28.1820   41.7580 C   0  0  0  0  0  0  0  0  0  0  0  0
   37.0260   29.4650   41.7860 C   0  0  0  0  0  0  0  0  0  0  0  0
   38.1540   29.6270   42.6240 C   0  0  0  0  0  0  0  0  0  0  0  0
   38.5970   28.5570   43.3390 N   0  0  0  0  0  0  0  0  0  0  0  0
   37.9820   27.3560   43.2630 C   0  0  0  0  0  0  0  0  0  0  0  0
   36.9090   27.1500   42.4850 N   0  0  0  0  0  0  0  0  0  0  0  0
   36.3960   30.8350   40.8200 S   0  0  0  0  0  0  0  0  0  0  0  0
   37.7700   31.8750   40.2480 C   0  0  0  0  0  0  0  0  0  0  0  0
   38.7370   31.2360   39.4250 C   0  0  0  0  0  0  0  0  0  0  0  0
   39.9010   32.6580   39.1130 S   0  0  0  0  0  0  0  0  0  0  0  0
   38.8450   33.8280   40.1580 C   0  0  0  0  0  0  0  0  0  0  0  0
   38.0040   33.1410   40.4890 N   0  0  0  0  0  0  0  0  0  0  0  0
   39.1900   35.2720   40.3830 C   0  0  0  0  0  0  0  0  0  0  0  0
   35.5547   28.0188   41.1189 H   0  0  0  0  0  0  0  0  0  0  0  0
   38.6634   30.5992   42.6964 H   0  0  0  0  0  0  0  0  0  0  0  0
   38.3746   26.5192   43.8593 H   0  0  0  0  0  0  0  0  0  0  0  0
   38.7849   30.1954   39.0717 H   0  0  0  0  0  0  0  0  0  0  0  0
   39.2381   35.4735   41.4633 H   0  0  0  0  0  0  0  0  0  0  0  0
   40.1659   35.4915   39.9253 H   0  0  0  0  0  0  0  0  0  0  0  0
   38.4187   35.9089   39.9253 H   0  0  0  0  0  0  0  0  0  0  0  0
  1  2  2  0
  1  6  1  0
  2  3  1  0
  3  4  2  0
  5  4  1  0
  6  5  2  0
  7  2  1  0
  8 12  1  0
  8  7  1  0
  9  8  2  0
 10  9  1  0
 10 11  1  0
 11 13  1  0
 11 12  2  0
  1 14  1  0
  3 15  1  0
  5 16  1  0
  9 17  1  0
 13 18  1  0
 13 19  1  0
 13 20  1  0
M  ISO  7  14  14  15  14  16  14  17  14  18   8  19   8  20   8
M  END
>  <minimizedAffinity>  (1) 
-4.02776718

>  <minimizedRMSD>  (1) 
0.159647837

$$$$
