
     RDKit          3D

 32 35  0  0  0  0  0  0  0  0999 V2000
   39.4260   32.0290   40.0920 C   0  0  0  0  0  0  0  0  0  0  0  0
   40.1220   30.9190   39.5950 C   0  0  0  0  0  0  0  0  0  0  0  0
   41.7920   31.6680   39.1850 S   0  0  0  0  0  0  0  0  0  0  0  0
   41.1700   33.3820   39.7950 C   0  0  0  0  0  0  0  0  0  0  0  0
   40.1210   33.1270   40.1020 N   0  0  0  0  0  0  0  0  0  0  0  0
   37.7380   31.7080   40.6090 S   0  0  0  0  0  0  0  0  0  0  0  0
   36.6510   29.2500   41.4210 C   0  0  0  0  0  0  0  0  0  0  0  0
   37.6440   30.2230   41.5850 C   0  0  0  0  0  0  0  0  0  0  0  0
   38.5900   29.9670   42.5860 C   0  0  0  0  0  0  0  0  0  0  0  0
   38.4920   28.8280   43.3130 N   0  0  0  0  0  0  0  0  0  0  0  0
   37.5070   27.9240   43.1060 C   0  0  0  0  0  0  0  0  0  0  0  0
   36.5880   28.1360   42.1610 N   0  0  0  0  0  0  0  0  0  0  0  0
   41.8560   34.6500   39.8450 O   0  0  0  0  0  0  0  0  0  0  0  0
   41.6650   35.5130   40.8840 C   0  0  0  0  0  0  0  0  0  0  0  0
   40.6950   36.3270   41.3830 C   0  0  0  0  0  0  0  0  0  0  0  0
   41.0840   36.9810   42.4920 N   0  0  0  0  0  0  0  0  0  0  0  0
   42.3350   36.5930   42.7300 C   0  0  0  0  0  0  0  0  0  0  0  0
   43.1360   37.0090   43.7700 C   0  0  0  0  0  0  0  0  0  0  0  0
   44.4130   36.5210   43.8930 C   0  0  0  0  0  0  0  0  0  0  0  0
   44.8410   35.6210   42.9480 C   0  0  0  0  0  0  0  0  0  0  0  0
   44.0390   35.2070   41.9090 C   0  0  0  0  0  0  0  0  0  0  0  0
   42.7470   35.6790   41.7580 C   0  0  0  0  0  0  0  0  0  0  0  0
   39.7789   29.8806   39.4764 H   0  0  0  0  0  0  0  0  0  0  0  0
   35.8857   29.4083   40.6469 H   0  0  0  0  0  0  0  0  0  0  0  0
   39.4029   30.6824   42.7795 H   0  0  0  0  0  0  0  0  0  0  0  0
   37.4631   27.0112   43.7183 H   0  0  0  0  0  0  0  0  0  0  0  0
   39.6997   36.4381   40.9281 H   0  0  0  0  0  0  0  0  0  0  0  0
   40.5266   37.6474   43.0453 H   0  0  0  0  0  0  0  0  0  0  0  0
   42.7519   37.7334   44.5033 H   0  0  0  0  0  0  0  0  0  0  0  0
   45.0687   36.8387   44.7171 H   0  0  0  0  0  0  0  0  0  0  0  0
   45.8611   35.2167   43.0243 H   0  0  0  0  0  0  0  0  0  0  0  0
   44.4346   34.4834   41.1810 H   0  0  0  0  0  0  0  0  0  0  0  0
  1  5  1  0
  1  6  1  0
  2  1  2  0
  3  2  1  0
  3  4  1  0
  4 13  1  0
  4  5  2  0
  6  8  1  0
  7  8  2  0
  7 12  1  0
  8  9  1  0
  9 10  2  0
 11 10  1  0
 12 11  2  0
 13 14  1  0
 14 15  2  0
 14 22  1  0
 15 16  1  0
 16 17  1  0
 17 18  2  0
 18 19  1  0
 20 19  2  0
 21 20  1  0
 22 21  2  0
 22 17  1  0
  2 23  1  0
  7 24  1  0
  9 25  1  0
 11 26  1  0
 15 27  1  0
 16 28  1  0
 18 29  1  0
 19 30  1  0
 20 31  1  0
 21 32  1  0
M  ISO  8  23  14  24  14  25  14  26  14  27  14  28   9  29  14  30  14
M  ISO  2  31  14  32  14
M  END
>  <minimizedAffinity>  (1) 
-6.21128035

>  <minimizedRMSD>  (1) 
3.38646579

$$$$
