
     RDKit          3D

 27 29  0  0  0  0  0  0  0  0999 V2000
   37.9830   31.9540   40.1390 C   0  0  0  0  0  0  0  0  0  0  0  0
   38.8370   31.1500   39.3480 C   0  0  0  0  0  0  0  0  0  0  0  0
   40.0990   32.4100   38.7930 S   0  0  0  0  0  0  0  0  0  0  0  0
   39.1920   33.7720   39.7610 C   0  0  0  0  0  0  0  0  0  0  0  0
   38.3250   33.2250   40.2220 N   0  0  0  0  0  0  0  0  0  0  0  0
   36.5790   31.1130   40.8980 S   0  0  0  0  0  0  0  0  0  0  0  0
   36.4990   28.4150   41.6460 C   0  0  0  0  0  0  0  0  0  0  0  0
   37.1280   29.6570   41.7630 C   0  0  0  0  0  0  0  0  0  0  0  0
   38.2280   29.6970   42.6120 C   0  0  0  0  0  0  0  0  0  0  0  0
   38.6110   28.5710   43.2500 N   0  0  0  0  0  0  0  0  0  0  0  0
   37.9690   27.3940   43.1020 C   0  0  0  0  0  0  0  0  0  0  0  0
   36.9200   27.3170   42.3060 N   0  0  0  0  0  0  0  0  0  0  0  0
   39.5110   35.1880   39.8950 O   0  0  0  0  0  0  0  0  0  0  0  0
   40.6540   35.3840   40.6630 C   0  0  0  0  0  0  0  0  0  0  0  0
   40.8510   36.4950   41.4410 C   0  0  0  0  0  0  0  0  0  0  0  0
   41.9540   36.7520   42.2210 C   0  0  0  0  0  0  0  0  0  0  0  0
   42.9650   35.8050   42.2270 C   0  0  0  0  0  0  0  0  0  0  0  0
   42.7840   34.6830   41.4540 C   0  0  0  0  0  0  0  0  0  0  0  0
   41.6680   34.4940   40.7060 N   0  0  0  0  0  0  0  0  0  0  0  0
   38.7747   30.0754   39.1215 H   0  0  0  0  0  0  0  0  0  0  0  0
   35.6224   28.3291   40.9870 H   0  0  0  0  0  0  0  0  0  0  0  0
   38.7804   30.6363   42.7622 H   0  0  0  0  0  0  0  0  0  0  0  0
   38.3187   26.5022   43.6428 H   0  0  0  0  0  0  0  0  0  0  0  0
   40.0525   37.2515   41.4415 H   0  0  0  0  0  0  0  0  0  0  0  0
   42.0305   37.6735   42.8168 H   0  0  0  0  0  0  0  0  0  0  0  0
   43.8765   35.9454   42.8266 H   0  0  0  0  0  0  0  0  0  0  0  0
   43.5696   33.9132   41.4414 H   0  0  0  0  0  0  0  0  0  0  0  0
  1  5  1  0
  1  6  1  0
  2  1  2  0
  3  2  1  0
  3  4  1  0
  4 13  1  0
  4  5  2  0
  6  8  1  0
  7  8  2  0
  7 12  1  0
  8  9  1  0
  9 10  2  0
 11 10  1  0
 12 11  2  0
 13 14  1  0
 14 19  1  0
 14 15  2  0
 15 16  1  0
 16 17  2  0
 18 17  1  0
 19 18  2  0
  2 20  1  0
  7 21  1  0
  9 22  1  0
 11 23  1  0
 15 24  1  0
 16 25  1  0
 17 26  1  0
 18 27  1  0
M  ISO  8  20  14  21  14  22  14  23  14  24  14  25  14  26  14  27  14
M  END
>  <minimizedAffinity>  (1) 
-5.27369261

>  <minimizedRMSD>  (1) 
1.38581216

$$$$
