
     RDKit          3D

 25 27  0  0  0  0  0  0  0  0999 V2000
   36.4790   30.5190   39.6180 C   0  0  0  0  0  0  0  0  0  0  0  0
   36.9380   30.1440   38.3470 C   0  0  0  0  0  0  0  0  0  0  0  0
   37.6960   31.7450   37.7840 S   0  0  0  0  0  0  0  0  0  0  0  0
   37.2160   32.6040   39.4330 C   0  0  0  0  0  0  0  0  0  0  0  0
   36.7070   31.7540   39.9710 N   0  0  0  0  0  0  0  0  0  0  0  0
   35.6420   29.2150   40.5600 S   0  0  0  0  0  0  0  0  0  0  0  0
   36.8970   27.0970   41.9040 C   0  0  0  0  0  0  0  0  0  0  0  0
   36.7350   28.4940   41.7500 C   0  0  0  0  0  0  0  0  0  0  0  0
   37.4920   29.2950   42.5950 C   0  0  0  0  0  0  0  0  0  0  0  0
   38.3280   28.7140   43.5030 N   0  0  0  0  0  0  0  0  0  0  0  0
   38.4380   27.3710   43.6020 C   0  0  0  0  0  0  0  0  0  0  0  0
   37.7290   26.5650   42.8080 N   0  0  0  0  0  0  0  0  0  0  0  0
   37.4260   33.9430   39.8980 O   0  0  0  0  0  0  0  0  0  0  0  0
   38.7030   34.4330   40.0200 C   0  0  0  0  0  0  0  0  0  0  0  0
   39.9970   33.9860   40.1950 C   0  0  0  0  0  0  0  0  0  0  0  0
   40.8490   35.0770   40.2380 C   0  0  0  0  0  0  0  0  0  0  0  0
   40.0160   36.1420   40.0850 C   0  0  0  0  0  0  0  0  0  0  0  0
   38.7530   35.7620   39.9580 O   0  0  0  0  0  0  0  0  0  0  0  0
   36.8689   29.1758   37.8294 H   0  0  0  0  0  0  0  0  0  0  0  0
   36.3175   26.4225   41.2566 H   0  0  0  0  0  0  0  0  0  0  0  0
   37.4180   30.3907   42.5325 H   0  0  0  0  0  0  0  0  0  0  0  0
   39.1207   26.9358   44.3466 H   0  0  0  0  0  0  0  0  0  0  0  0
   40.3023   32.9331   40.2857 H   0  0  0  0  0  0  0  0  0  0  0  0
   41.9415   35.0815   40.3657 H   0  0  0  0  0  0  0  0  0  0  0  0
   40.3501   37.1899   40.0687 H   0  0  0  0  0  0  0  0  0  0  0  0
  1  5  1  0
  1  6  1  0
  2  1  2  0
  3  2  1  0
  3  4  1  0
  4 13  1  0
  4  5  2  0
  6  8  1  0
  7 12  2  0
  8  7  1  0
  8  9  2  0
  9 10  1  0
 10 11  2  0
 12 11  1  0
 13 14  1  0
 14 15  2  0
 15 16  1  0
 17 16  2  0
 18 14  1  0
 18 17  1  0
  2 19  1  0
  7 20  1  0
  9 21  1  0
 11 22  1  0
 15 23  1  0
 16 24  1  0
 17 25  1  0
M  ISO  7  19  14  20  14  21  14  22  14  23  14  24  14  25  14
M  END
>  <minimizedAffinity>  (1) 
-5.066329

>  <minimizedRMSD>  (1) 
1.92121243

$$$$
