
     RDKit          3D

 25 27  0  0  0  0  0  0  0  0999 V2000
   36.4720   30.5100   39.6450 C   0  0  0  0  0  0  0  0  0  0  0  0
   36.9300   30.1410   38.3730 C   0  0  0  0  0  0  0  0  0  0  0  0
   37.7080   31.7350   37.7800 S   0  0  0  0  0  0  0  0  0  0  0  0
   37.2270   32.5830   39.4390 C   0  0  0  0  0  0  0  0  0  0  0  0
   36.7120   31.7500   39.9900 N   0  0  0  0  0  0  0  0  0  0  0  0
   35.6340   29.2060   40.5780 S   0  0  0  0  0  0  0  0  0  0  0  0
   36.8920   27.0920   41.8950 C   0  0  0  0  0  0  0  0  0  0  0  0
   36.7370   28.4800   41.7620 C   0  0  0  0  0  0  0  0  0  0  0  0
   37.5030   29.2830   42.6170 C   0  0  0  0  0  0  0  0  0  0  0  0
   38.3360   28.7030   43.5070 N   0  0  0  0  0  0  0  0  0  0  0  0
   38.4510   27.3480   43.5950 C   0  0  0  0  0  0  0  0  0  0  0  0
   37.7370   26.5460   42.7990 N   0  0  0  0  0  0  0  0  0  0  0  0
   37.4460   33.9470   39.9120 O   0  0  0  0  0  0  0  0  0  0  0  0
   38.7820   34.2780   40.0450 C   0  0  0  0  0  0  0  0  0  0  0  0
   40.0950   33.8880   40.2040 C   0  0  0  0  0  0  0  0  0  0  0  0
   40.9010   35.0070   40.2470 C   0  0  0  0  0  0  0  0  0  0  0  0
   40.0830   36.0670   40.1130 N   0  0  0  0  0  0  0  0  0  0  0  0
   38.8200   35.6400   39.9940 N   0  0  0  0  0  0  0  0  0  0  0  0
   36.8525   29.1712   37.8596 H   0  0  0  0  0  0  0  0  0  0  0  0
   36.3074   26.4263   41.2430 H   0  0  0  0  0  0  0  0  0  0  0  0
   37.4262   30.3790   42.5635 H   0  0  0  0  0  0  0  0  0  0  0  0
   39.1405   26.9085   44.3308 H   0  0  0  0  0  0  0  0  0  0  0  0
   40.4449   32.8482   40.2840 H   0  0  0  0  0  0  0  0  0  0  0  0
   41.9942   35.0284   40.3669 H   0  0  0  0  0  0  0  0  0  0  0  0
   40.3819   37.0526   40.1035 H   0  0  0  0  0  0  0  0  0  0  0  0
  1  5  1  0
  1  6  1  0
  2  1  2  0
  3  2  1  0
  3  4  1  0
  4 13  1  0
  4  5  2  0
  6  8  1  0
  7 12  2  0
  8  7  1  0
  8  9  2  0
  9 10  1  0
 10 11  2  0
 12 11  1  0
 13 14  1  0
 14 15  1  0
 15 16  2  0
 17 16  1  0
 18 14  2  0
 18 17  1  0
  2 19  1  0
  7 20  1  0
  9 21  1  0
 11 22  1  0
 15 23  1  0
 16 24  1  0
 17 25  1  0
M  ISO  7  19  14  20  14  21  14  22  14  23  14  24  14  25   9
M  END
>  <minimizedAffinity>  (1) 
-4.99697542

>  <minimizedRMSD>  (1) 
1.89323032

$$$$
