
     RDKit          3D

 24 25  0  0  0  0  0  0  0  0999 V2000
   36.3230   30.7300   40.8600 S   0  0  0  0  0  0  0  0  0  0  0  0
   36.5000   28.0790   41.7330 C   0  0  0  0  0  0  0  0  0  0  0  0
   37.0100   29.3850   41.8070 C   0  0  0  0  0  0  0  0  0  0  0  0
   38.0910   29.5810   42.6640 C   0  0  0  0  0  0  0  0  0  0  0  0
   38.5900   28.5390   43.3700 N   0  0  0  0  0  0  0  0  0  0  0  0
   38.0490   27.2970   43.2510 C   0  0  0  0  0  0  0  0  0  0  0  0
   37.0180   27.0550   42.4480 N   0  0  0  0  0  0  0  0  0  0  0  0
   37.6450   31.8140   40.2680 C   0  0  0  0  0  0  0  0  0  0  0  0
   38.6800   31.1830   39.5610 C   0  0  0  0  0  0  0  0  0  0  0  0
   39.7830   32.6290   39.1570 S   0  0  0  0  0  0  0  0  0  0  0  0
   38.5830   33.8300   40.0530 C   0  0  0  0  0  0  0  0  0  0  0  0
   37.7910   33.1070   40.3940 N   0  0  0  0  0  0  0  0  0  0  0  0
   38.6240   35.2500   40.2610 O   0  0  0  0  0  0  0  0  0  0  0  0
   39.8640   35.7250   40.7720 C   0  0  0  0  0  0  0  0  0  0  0  0
   40.4960   36.7330   39.8490 C   0  0  0  0  0  0  0  0  0  0  0  0
   35.6464   27.8813   41.0679 H   0  0  0  0  0  0  0  0  0  0  0  0
   38.5383   30.5807   42.7668 H   0  0  0  0  0  0  0  0  0  0  0  0
   38.4768   26.4694   43.8358 H   0  0  0  0  0  0  0  0  0  0  0  0
   38.8063   30.1190   39.3119 H   0  0  0  0  0  0  0  0  0  0  0  0
   39.6893   36.1972   41.7500 H   0  0  0  0  0  0  0  0  0  0  0  0
   40.5478   34.8684   40.8650 H   0  0  0  0  0  0  0  0  0  0  0  0
   40.9876   37.5170   40.4437 H   0  0  0  0  0  0  0  0  0  0  0  0
   41.2420   36.2321   39.2145 H   0  0  0  0  0  0  0  0  0  0  0  0
   39.7201   37.1863   39.2145 H   0  0  0  0  0  0  0  0  0  0  0  0
  1  3  1  0
  2  3  2  0
  2  7  1  0
  3  4  1  0
  4  5  2  0
  6  5  1  0
  7  6  2  0
  8 12  1  0
  8  1  1  0
  9  8  2  0
 10  9  1  0
 10 11  1  0
 11 13  1  0
 11 12  2  0
 13 14  1  0
 15 14  1  0
  2 16  1  0
  4 17  1  0
  6 18  1  0
  9 19  1  0
 14 20  1  0
 14 21  1  0
 15 22  1  0
 15 23  1  0
 15 24  1  0
M  ISO  8  16  14  17  14  18  14  19  14  20   8  21   8  22   8  23   8
M  ISO  1  24   8
M  END
>  <minimizedAffinity>  (1) 
-4.31741238

>  <minimizedRMSD>  (1) 
0.56936574

$$$$
