
     RDKit          3D

 21 22  0  0  0  0  0  0  0  0999 V2000
   36.3980   30.7580   40.8030 S   0  0  0  0  0  0  0  0  0  0  0  0
   36.4280   28.1570   41.8640 C   0  0  0  0  0  0  0  0  0  0  0  0
   37.0220   29.4290   41.8120 C   0  0  0  0  0  0  0  0  0  0  0  0
   38.1590   29.6090   42.6140 C   0  0  0  0  0  0  0  0  0  0  0  0
   38.6070   28.5760   43.3690 N   0  0  0  0  0  0  0  0  0  0  0  0
   37.9830   27.3690   43.3730 C   0  0  0  0  0  0  0  0  0  0  0  0
   36.9110   27.1690   42.6300 N   0  0  0  0  0  0  0  0  0  0  0  0
   37.7270   31.8570   40.3110 C   0  0  0  0  0  0  0  0  0  0  0  0
   38.6650   31.3090   39.4250 C   0  0  0  0  0  0  0  0  0  0  0  0
   39.8460   32.7460   39.1780 S   0  0  0  0  0  0  0  0  0  0  0  0
   38.7930   33.8210   40.3580 C   0  0  0  0  0  0  0  0  0  0  0  0
   37.9830   33.0920   40.6330 N   0  0  0  0  0  0  0  0  0  0  0  0
   38.9790   35.1870   40.7840 O   0  0  0  0  0  0  0  0  0  0  0  0
   39.8830   35.9230   39.9820 C   0  0  0  0  0  0  0  0  0  0  0  0
   35.5334   27.9648   41.2535 H   0  0  0  0  0  0  0  0  0  0  0  0
   38.6809   30.5772   42.6300 H   0  0  0  0  0  0  0  0  0  0  0  0
   38.3738   26.5536   43.9994 H   0  0  0  0  0  0  0  0  0  0  0  0
   38.6996   30.2999   38.9885 H   0  0  0  0  0  0  0  0  0  0  0  0
   40.5731   36.4849   40.6286 H   0  0  0  0  0  0  0  0  0  0  0  0
   40.4564   35.2317   39.3470 H   0  0  0  0  0  0  0  0  0  0  0  0
   39.3223   36.6247   39.3470 H   0  0  0  0  0  0  0  0  0  0  0  0
  1  3  1  0
  2  7  2  0
  3  2  1  0
  3  4  2  0
  4  5  1  0
  5  6  2  0
  7  6  1  0
  8 12  1  0
  8  1  1  0
  9  8  2  0
 10  9  1  0
 10 11  1  0
 11 12  2  0
 11 13  1  0
 14 13  1  0
  2 15  1  0
  4 16  1  0
  6 17  1  0
  9 18  1  0
 14 19  1  0
 14 20  1  0
 14 21  1  0
M  ISO  7  15  14  16  14  17  14  18  14  19   8  20   8  21   8
M  END
>  <minimizedAffinity>  (1) 
-4.10427475

>  <minimizedRMSD>  (1) 
0.178976074

$$$$
