
     RDKit          3D

 39 43  0  0  1  0  0  0  0  0999 V2000
   40.2680   35.5900   40.2230 C   0  0  1  0  0  0  0  0  0  0  0  0
   40.3930   37.1070   40.2540 C   0  0  0  0  0  0  0  0  0  0  0  0
   40.5740   36.2620   41.5220 C   0  0  2  0  0  0  0  0  0  0  0  0
   41.9100   36.2290   42.0650 N   0  0  0  0  0  0  0  0  0  0  0  0
   42.3710   37.0020   43.0570 C   0  0  0  0  0  0  0  0  0  0  0  0
   43.6600   36.7140   43.3180 N   0  0  0  0  0  0  0  0  0  0  0  0
   44.0480   35.7350   42.4790 C   0  0  0  0  0  0  0  0  0  0  0  0
   45.2820   35.1210   42.3810 C   0  0  0  0  0  0  0  0  0  0  0  0
   46.2140   35.4560   43.1280 O   0  0  0  0  0  0  0  0  0  0  0  0
   45.3510   34.1600   41.4250 N   0  0  0  0  0  0  0  0  0  0  0  0
   44.2770   33.8520   40.6460 C   0  0  0  0  0  0  0  0  0  0  0  0
   44.5310   32.8170   39.6910 N   0  0  0  0  0  0  0  0  0  0  0  0
   43.0870   34.4880   40.7860 N   0  0  0  0  0  0  0  0  0  0  0  0
   42.9260   35.4540   41.7060 C   0  0  0  0  0  0  0  0  0  0  0  0
   38.9140   35.1320   40.0770 O   0  0  0  0  0  0  0  0  0  0  0  0
   37.6870   31.7740   40.2000 C   0  0  0  0  0  0  0  0  0  0  0  0
   38.6050   31.0860   39.3790 C   0  0  0  0  0  0  0  0  0  0  0  0
   39.7020   32.4950   38.9120 S   0  0  0  0  0  0  0  0  0  0  0  0
   38.6720   33.7500   39.9420 C   0  0  0  0  0  0  0  0  0  0  0  0
   37.9110   33.0440   40.3290 N   0  0  0  0  0  0  0  0  0  0  0  0
   36.3440   30.7790   40.9320 S   0  0  0  0  0  0  0  0  0  0  0  0
   36.4570   28.1170   41.7890 C   0  0  0  0  0  0  0  0  0  0  0  0
   37.0120   29.4200   41.8380 C   0  0  0  0  0  0  0  0  0  0  0  0
   38.1270   29.5850   42.6490 C   0  0  0  0  0  0  0  0  0  0  0  0
   38.6270   28.5230   43.3430 N   0  0  0  0  0  0  0  0  0  0  0  0
   38.0480   27.2890   43.2540 C   0  0  0  0  0  0  0  0  0  0  0  0
   36.9850   27.0910   42.4930 N   0  0  0  0  0  0  0  0  0  0  0  0
   40.7412   34.7761   39.6541 H   0  0  0  0  0  0  0  0  0  0  0  0
   41.2589   37.6012   39.7892 H   0  0  0  0  0  0  0  0  0  0  0  0
   39.7575   37.9546   39.9579 H   0  0  0  0  0  0  0  0  0  0  0  0
   40.1171   36.2029   42.5209 H   0  0  0  0  0  0  0  0  0  0  0  0
   41.7795   37.7649   43.5843 H   0  0  0  0  0  0  0  0  0  0  0  0
   46.2360   33.6519   41.2854 H   0  0  0  0  0  0  0  0  0  0  0  0
   45.4617   32.3785   39.6421 H   0  0  0  0  0  0  0  0  0  0  0  0
   43.7831   32.5106   39.0525 H   0  0  0  0  0  0  0  0  0  0  0  0
   38.6529   30.0232   39.0995 H   0  0  0  0  0  0  0  0  0  0  0  0
   35.5724   27.9356   41.1609 H   0  0  0  0  0  0  0  0  0  0  0  0
   38.6065   30.5715   42.7315 H   0  0  0  0  0  0  0  0  0  0  0  0
   38.4719   26.4485   43.8232 H   0  0  0  0  0  0  0  0  0  0  0  0
  1  2  1  0
  1  3  1  0
  2  3  1  0
  3  4  1  0
  4  5  1  0
  5  6  2  0
  7  6  1  0
  8  7  1  0
  8  9  2  0
 10  8  1  0
 11 13  2  0
 11 10  1  0
 12 11  1  0
 13 14  1  0
 14  4  1  0
 14  7  2  0
 15  1  1  0
 16 20  1  0
 16 21  1  0
 17 16  2  0
 18 17  1  0
 18 19  1  0
 19 15  1  0
 19 20  2  0
 21 23  1  0
 22 23  2  0
 22 27  1  0
 23 24  1  0
 24 25  2  0
 26 25  1  0
 27 26  2  0
  1 28  1  6
  2 29  1  0
  2 30  1  0
  3 31  1  1
  5 32  1  0
 10 33  1  0
 12 34  1  0
 12 35  1  0
 17 36  1  0
 22 37  1  0
 24 38  1  0
 26 39  1  0
M  ISO  8  28  13  29  13  30  13  31  13  32  14  33   9  36  14  37  14
M  ISO  2  38  14  39  14
M  END
>  <minimizedAffinity>  (1) 
-6.78389454

>  <minimizedRMSD>  (1) 
2.70095754

$$$$
