
     RDKit          3D

 36 40  0  0  1  0  0  0  0  0999 V2000
   38.9800   35.0000   39.9840 O   0  0  0  0  0  0  0  0  0  0  0  0
   40.3470   35.4080   40.0360 C   0  0  1  0  0  0  0  0  0  0  0  0
   40.5360   36.8840   40.3340 C   0  0  0  0  0  0  0  0  0  0  0  0
   40.8760   35.8020   41.3740 C   0  0  2  0  0  0  0  0  0  0  0  0
   42.2980   35.6180   41.6550 N   0  0  0  0  0  0  0  0  0  0  0  0
   42.9950   34.7160   40.9300 C   0  0  0  0  0  0  0  0  0  0  0  0
   44.2800   34.7090   41.3540 N   0  0  0  0  0  0  0  0  0  0  0  0
   44.4100   35.5980   42.3420 C   0  0  0  0  0  0  0  0  0  0  0  0
   45.4060   36.0750   43.1810 C   0  0  0  0  0  0  0  0  0  0  0  0
   45.1390   37.0260   44.1010 N   0  0  0  0  0  0  0  0  0  0  0  0
   43.8890   37.5530   44.2430 C   0  0  0  0  0  0  0  0  0  0  0  0
   42.8810   37.1130   43.4380 N   0  0  0  0  0  0  0  0  0  0  0  0
   43.1650   36.1640   42.5260 C   0  0  0  0  0  0  0  0  0  0  0  0
   38.7270   31.6740   41.2820 C   0  0  0  0  0  0  0  0  0  0  0  0
   37.6290   31.1560   40.5620 C   0  0  0  0  0  0  0  0  0  0  0  0
   37.2200   32.6340   39.5260 S   0  0  0  0  0  0  0  0  0  0  0  0
   38.6480   33.6670   40.2980 C   0  0  0  0  0  0  0  0  0  0  0  0
   39.0390   32.8970   40.9920 N   0  0  0  0  0  0  0  0  0  0  0  0
   39.5210   30.5620   42.4940 S   0  0  0  0  0  0  0  0  0  0  0  0
   37.5750   28.7780   43.4290 C   0  0  0  0  0  0  0  0  0  0  0  0
   38.6590   29.0230   42.5610 C   0  0  0  0  0  0  0  0  0  0  0  0
   39.0270   27.9600   41.7320 C   0  0  0  0  0  0  0  0  0  0  0  0
   38.3520   26.7780   41.7960 N   0  0  0  0  0  0  0  0  0  0  0  0
   37.3190   26.6140   42.6550 C   0  0  0  0  0  0  0  0  0  0  0  0
   36.9250   27.5850   43.4620 N   0  0  0  0  0  0  0  0  0  0  0  0
   40.6978   34.7107   39.2610 H   0  0  0  0  0  0  0  0  0  0  0  0
   41.3395   37.4507   39.8407 H   0  0  0  0  0  0  0  0  0  0  0  0
   39.8979   37.7797   40.3101 H   0  0  0  0  0  0  0  0  0  0  0  0
   40.5785   35.5678   42.4068 H   0  0  0  0  0  0  0  0  0  0  0  0
   42.5843   34.0887   40.1251 H   0  0  0  0  0  0  0  0  0  0  0  0
   46.4265   35.6733   43.0957 H   0  0  0  0  0  0  0  0  0  0  0  0
   43.6960   38.3266   45.0008 H   0  0  0  0  0  0  0  0  0  0  0  0
   37.1551   30.1642   40.6043 H   0  0  0  0  0  0  0  0  0  0  0  0
   37.2437   29.5813   44.1035 H   0  0  0  0  0  0  0  0  0  0  0  0
   39.8629   28.0776   41.0267 H   0  0  0  0  0  0  0  0  0  0  0  0
   36.7935   25.6480   42.6827 H   0  0  0  0  0  0  0  0  0  0  0  0
  1  2  1  0
  1 17  1  0
  2  3  1  0
  2  4  1  0
  3  4  1  0
  4  5  1  0
  5 13  1  0
  6  7  2  0
  6  5  1  0
  7  8  1  0
  8 13  2  0
  8  9  1  0
  9 10  2  0
 10 11  1  0
 12 11  2  0
 13 12  1  0
 14 19  1  0
 15 14  2  0
 16 17  1  0
 16 15  1  0
 17 18  2  0
 18 14  1  0
 19 21  1  0
 20 25  2  0
 21 20  1  0
 22 23  1  0
 22 21  2  0
 23 24  2  0
 24 25  1  0
  2 26  1  6
  3 27  1  0
  3 28  1  0
  4 29  1  1
  6 30  1  0
  9 31  1  0
 11 32  1  0
 15 33  1  0
 20 34  1  0
 22 35  1  0
 24 36  1  0
M  ISO  8  26  13  27  13  28  13  29  13  30  14  31  14  32  14  33  14
M  ISO  3  34  14  35  14  36  14
M  END
>  <minimizedAffinity>  (1) 
-6.44635582

>  <minimizedRMSD>  (1) 
3.02565408

$$$$
