
     RDKit          3D

 34 37  0  0  1  0  0  0  0  0999 V2000
   37.7140   31.7700   40.1920 C   0  0  0  0  0  0  0  0  0  0  0  0
   38.5900   31.0660   39.3420 C   0  0  0  0  0  0  0  0  0  0  0  0
   39.7120   32.4470   38.8560 S   0  0  0  0  0  0  0  0  0  0  0  0
   38.7460   33.7200   39.9240 C   0  0  0  0  0  0  0  0  0  0  0  0
   37.9580   33.0560   40.3460 N   0  0  0  0  0  0  0  0  0  0  0  0
   36.3580   30.8100   40.9520 S   0  0  0  0  0  0  0  0  0  0  0  0
   36.4500   28.1480   41.7810 C   0  0  0  0  0  0  0  0  0  0  0  0
   37.0130   29.4350   41.8410 C   0  0  0  0  0  0  0  0  0  0  0  0
   38.1300   29.5800   42.6490 C   0  0  0  0  0  0  0  0  0  0  0  0
   38.6250   28.5090   43.3340 N   0  0  0  0  0  0  0  0  0  0  0  0
   38.0350   27.2820   43.2370 C   0  0  0  0  0  0  0  0  0  0  0  0
   36.9670   27.0950   42.4770 N   0  0  0  0  0  0  0  0  0  0  0  0
   39.0360   35.0960   40.0600 O   0  0  0  0  0  0  0  0  0  0  0  0
   40.3960   35.4990   40.2750 C   0  0  1  0  0  0  0  0  0  0  0  0
   40.6110   36.9970   40.1990 C   0  0  0  0  0  0  0  0  0  0  0  0
   40.6600   36.2510   41.5410 C   0  0  2  0  0  0  0  0  0  0  0  0
   42.0200   36.2340   42.1360 C   0  0  0  0  0  0  0  0  0  0  0  0
   42.9400   35.3410   41.6360 C   0  0  0  0  0  0  0  0  0  0  0  0
   44.1960   35.3680   42.2290 C   0  0  0  0  0  0  0  0  0  0  0  0
   44.4890   36.2350   43.2520 C   0  0  0  0  0  0  0  0  0  0  0  0
   43.5310   37.1310   43.7400 C   0  0  0  0  0  0  0  0  0  0  0  0
   42.3260   37.0720   43.1350 N   0  0  0  0  0  0  0  0  0  0  0  0
   38.6014   30.0047   39.0531 H   0  0  0  0  0  0  0  0  0  0  0  0
   35.5627   27.9848   41.1516 H   0  0  0  0  0  0  0  0  0  0  0  0
   38.6187   30.5614   42.7381 H   0  0  0  0  0  0  0  0  0  0  0  0
   38.4537   26.4345   43.7995 H   0  0  0  0  0  0  0  0  0  0  0  0
   40.8548   34.6171   39.8041 H   0  0  0  0  0  0  0  0  0  0  0  0
   41.5332   37.4021   39.7569 H   0  0  0  0  0  0  0  0  0  0  0  0
   40.0481   37.8517   39.7957 H   0  0  0  0  0  0  0  0  0  0  0  0
   40.1400   36.2719   42.5101 H   0  0  0  0  0  0  0  0  0  0  0  0
   42.6958   34.6484   40.8171 H   0  0  0  0  0  0  0  0  0  0  0  0
   44.9741   34.6782   41.8702 H   0  0  0  0  0  0  0  0  0  0  0  0
   45.4952   36.2254   43.6964 H   0  0  0  0  0  0  0  0  0  0  0  0
   43.7450   37.8337   44.5588 H   0  0  0  0  0  0  0  0  0  0  0  0
  1  5  1  0
  1  6  1  0
  2  1  2  0
  3  2  1  0
  3  4  1  0
  4 13  1  0
  4  5  2  0
  6  8  1  0
  7  8  2  0
  7 12  1  0
  8  9  1  0
  9 10  2  0
 11 10  1  0
 12 11  2  0
 13 14  1  0
 14 16  1  0
 15 14  1  0
 15 16  1  0
 16 17  1  0
 17 22  1  0
 18 17  2  0
 18 19  1  0
 19 20  2  0
 20 21  1  0
 22 21  2  0
  2 23  1  0
  7 24  1  0
  9 25  1  0
 11 26  1  0
 14 27  1  6
 15 28  1  0
 15 29  1  0
 16 30  1  1
 18 31  1  0
 19 32  1  0
 20 33  1  0
 21 34  1  0
M  ISO  8  23  14  24  14  25  14  26  14  27  13  28  13  29  13  30  13
M  ISO  4  31  14  32  14  33  14  34  14
M  END
>  <minimizedAffinity>  (1) 
-6.09356689

>  <minimizedRMSD>  (1) 
1.90823352

$$$$
