
     RDKit          3D

 31 34  0  0  1  0  0  0  0  0999 V2000
   37.7230   31.7550   40.1880 C   0  0  0  0  0  0  0  0  0  0  0  0
   38.5960   31.0600   39.3230 C   0  0  0  0  0  0  0  0  0  0  0  0
   39.7250   32.4450   38.8550 S   0  0  0  0  0  0  0  0  0  0  0  0
   38.7670   33.7050   39.9450 C   0  0  0  0  0  0  0  0  0  0  0  0
   37.9780   33.0350   40.3580 N   0  0  0  0  0  0  0  0  0  0  0  0
   36.3610   30.8080   40.9520 S   0  0  0  0  0  0  0  0  0  0  0  0
   36.4470   28.1440   41.7960 C   0  0  0  0  0  0  0  0  0  0  0  0
   37.0090   29.4320   41.8430 C   0  0  0  0  0  0  0  0  0  0  0  0
   38.1340   29.5730   42.6520 C   0  0  0  0  0  0  0  0  0  0  0  0
   38.6230   28.5070   43.3330 N   0  0  0  0  0  0  0  0  0  0  0  0
   38.0310   27.2790   43.2470 C   0  0  0  0  0  0  0  0  0  0  0  0
   36.9620   27.0950   42.4940 N   0  0  0  0  0  0  0  0  0  0  0  0
   39.0580   35.0770   40.1070 O   0  0  0  0  0  0  0  0  0  0  0  0
   40.4210   35.4730   40.3300 C   0  0  1  0  0  0  0  0  0  0  0  0
   40.6700   36.9540   40.1220 C   0  0  0  0  0  0  0  0  0  0  0  0
   40.6520   36.3390   41.5280 C   0  0  2  0  0  0  0  0  0  0  0  0
   42.0090   36.2880   42.1910 C   0  0  0  0  0  0  0  0  0  0  0  0
   42.9910   35.3360   41.7820 C   0  0  0  0  0  0  0  0  0  0  0  0
   44.3670   35.6510   42.8100 S   0  0  0  0  0  0  0  0  0  0  0  0
   43.4570   37.0640   43.7060 C   0  0  0  0  0  0  0  0  0  0  0  0
   42.4240   37.0620   43.1600 N   0  0  0  0  0  0  0  0  0  0  0  0
   38.6020   30.0033   39.0173 H   0  0  0  0  0  0  0  0  0  0  0  0
   35.5571   27.9777   41.1712 H   0  0  0  0  0  0  0  0  0  0  0  0
   38.6275   30.5522   42.7388 H   0  0  0  0  0  0  0  0  0  0  0  0
   38.4499   26.4331   43.8119 H   0  0  0  0  0  0  0  0  0  0  0  0
   40.8786   34.5433   39.9608 H   0  0  0  0  0  0  0  0  0  0  0  0
   41.6167   37.2995   39.6811 H   0  0  0  0  0  0  0  0  0  0  0  0
   40.1408   37.7760   39.6177 H   0  0  0  0  0  0  0  0  0  0  0  0
   40.0980   36.4944   42.4655 H   0  0  0  0  0  0  0  0  0  0  0  0
   42.9009   34.5735   40.9943 H   0  0  0  0  0  0  0  0  0  0  0  0
   43.8106   37.7112   44.5221 H   0  0  0  0  0  0  0  0  0  0  0  0
  1  5  1  0
  1  6  1  0
  2  1  2  0
  3  2  1  0
  3  4  1  0
  4 13  1  0
  4  5  2  0
  6  8  1  0
  7  8  2  0
  7 12  1  0
  8  9  1  0
  9 10  2  0
 11 10  1  0
 12 11  2  0
 13 14  1  0
 14 16  1  0
 15 14  1  0
 15 16  1  0
 16 17  1  0
 17 21  1  0
 18 17  2  0
 18 19  1  0
 19 20  1  0
 21 20  2  0
  2 22  1  0
  7 23  1  0
  9 24  1  0
 11 25  1  0
 14 26  1  6
 15 27  1  0
 15 28  1  0
 16 29  1  1
 18 30  1  0
 20 31  1  0
M  ISO  8  22  14  23  14  24  14  25  14  26  13  27  13  28  13  29  13
M  ISO  2  30  14  31  14
M  END
>  <minimizedAffinity>  (1) 
-5.80121231

>  <minimizedRMSD>  (1) 
1.69632661

$$$$
