
     RDKit          3D

 32 35  0  0  1  0  0  0  0  0999 V2000
   37.8600   31.3820   40.1660 C   0  0  0  0  0  0  0  0  0  0  0  0
   37.9470   31.1190   38.7820 C   0  0  0  0  0  0  0  0  0  0  0  0
   39.4680   32.0900   38.3890 S   0  0  0  0  0  0  0  0  0  0  0  0
   39.6760   32.6640   40.2120 C   0  0  0  0  0  0  0  0  0  0  0  0
   38.7940   32.1500   40.6530 N   0  0  0  0  0  0  0  0  0  0  0  0
   36.4630   30.6200   41.0620 S   0  0  0  0  0  0  0  0  0  0  0  0
   36.5680   27.8550   41.5100 C   0  0  0  0  0  0  0  0  0  0  0  0
   37.0000   29.1540   41.8860 C   0  0  0  0  0  0  0  0  0  0  0  0
   37.8800   29.2190   42.9560 C   0  0  0  0  0  0  0  0  0  0  0  0
   38.2840   28.0760   43.5810 N   0  0  0  0  0  0  0  0  0  0  0  0
   37.8310   26.8580   43.1680 C   0  0  0  0  0  0  0  0  0  0  0  0
   36.9930   26.7440   42.1570 N   0  0  0  0  0  0  0  0  0  0  0  0
   40.6920   33.5020   40.7280 O   0  0  0  0  0  0  0  0  0  0  0  0
   42.0370   33.3080   40.2640 C   0  0  1  0  0  0  0  0  0  0  0  0
   42.4990   34.3420   39.2580 C   0  0  0  0  0  0  0  0  0  0  0  0
   43.0340   34.3320   40.6970 C   0  0  1  0  0  0  0  0  0  0  0  0
   42.6470   35.4130   41.6100 C   0  0  0  0  0  0  0  0  0  0  0  0
   43.4240   35.7810   42.6900 C   0  0  0  0  0  0  0  0  0  0  0  0
   42.7700   36.8260   43.3350 C   0  0  0  0  0  0  0  0  0  0  0  0
   41.6300   37.0600   42.6360 N   0  0  0  0  0  0  0  0  0  0  0  0
   41.5770   36.2150   41.6200 N   0  0  0  0  0  0  0  0  0  0  0  0
   37.2998   30.5141   38.1299 H   0  0  0  0  0  0  0  0  0  0  0  0
   35.8676   27.7479   40.6686 H   0  0  0  0  0  0  0  0  0  0  0  0
   38.2529   30.1945   43.3013 H   0  0  0  0  0  0  0  0  0  0  0  0
   38.1721   25.9515   43.6895 H   0  0  0  0  0  0  0  0  0  0  0  0
   42.0107   32.2089   40.3013 H   0  0  0  0  0  0  0  0  0  0  0  0
   43.1517   34.0488   38.4225 H   0  0  0  0  0  0  0  0  0  0  0  0
   42.0071   35.0803   38.6077 H   0  0  0  0  0  0  0  0  0  0  0  0
   44.0277   34.2872   41.1666 H   0  0  0  0  0  0  0  0  0  0  0  0
   44.3832   35.3311   42.9860 H   0  0  0  0  0  0  0  0  0  0  0  0
   43.1102   37.3585   44.2354 H   0  0  0  0  0  0  0  0  0  0  0  0
   40.9242   37.7761   42.8596 H   0  0  0  0  0  0  0  0  0  0  0  0
  1  5  1  0
  1  6  1  0
  2  1  2  0
  3  2  1  0
  3  4  1  0
  4  5  2  0
  4 13  1  0
  6  8  1  0
  7  8  2  0
  7 12  1  0
  8  9  1  0
  9 10  2  0
 11 10  1  0
 12 11  2  0
 14 16  1  0
 14 13  1  0
 15 14  1  0
 15 16  1  0
 16 17  1  0
 17 21  2  0
 17 18  1  0
 18 19  2  0
 20 19  1  0
 21 20  1  0
  2 22  1  0
  7 23  1  0
  9 24  1  0
 11 25  1  0
 14 26  1  6
 15 27  1  0
 15 28  1  0
 16 29  1  6
 18 30  1  0
 19 31  1  0
 20 32  1  0
M  ISO  8  22  14  23  14  24  14  25  14  26  13  27  13  28  13  29  13
M  ISO  3  30  14  31  14  32   9
M  END
>  <minimizedAffinity>  (1) 
-5.50136566

>  <minimizedRMSD>  (1) 
3.33662176

$$$$
