
     RDKit          3D

 34 36  0  0  1  0  0  0  0  0999 V2000
   37.6580   31.7580   40.2630 C   0  0  0  0  0  0  0  0  0  0  0  0
   38.7080   31.1180   39.5710 C   0  0  0  0  0  0  0  0  0  0  0  0
   39.7430   32.5900   39.1620 S   0  0  0  0  0  0  0  0  0  0  0  0
   38.5180   33.7940   40.0280 C   0  0  0  0  0  0  0  0  0  0  0  0
   37.7760   33.0420   40.3600 N   0  0  0  0  0  0  0  0  0  0  0  0
   36.3180   30.6900   40.8900 S   0  0  0  0  0  0  0  0  0  0  0  0
   36.4990   28.0200   41.7360 C   0  0  0  0  0  0  0  0  0  0  0  0
   36.9950   29.3500   41.8200 C   0  0  0  0  0  0  0  0  0  0  0  0
   38.0590   29.5500   42.6870 C   0  0  0  0  0  0  0  0  0  0  0  0
   38.5680   28.5050   43.3980 N   0  0  0  0  0  0  0  0  0  0  0  0
   38.0440   27.2480   43.2710 C   0  0  0  0  0  0  0  0  0  0  0  0
   37.0350   27.0140   42.4590 N   0  0  0  0  0  0  0  0  0  0  0  0
   38.6520   35.1950   40.1230 O   0  0  0  0  0  0  0  0  0  0  0  0
   39.9530   35.7770   40.0490 C   0  0  1  0  0  0  0  0  0  0  0  0
   39.9560   37.2940   40.0910 C   0  0  0  0  0  0  0  0  0  0  0  0
   40.4230   36.4650   41.2940 C   0  0  2  0  0  0  0  0  0  0  0  0
   41.9110   36.3750   41.5400 C   0  0  0  0  0  0  0  0  0  0  0  0
   42.4050   34.9710   41.2950 C   0  0  0  0  0  0  0  0  0  0  0  0
   42.3380   36.8700   42.8830 C   0  0  0  0  0  0  0  0  0  0  0  0
   38.8639   30.0534   39.3423 H   0  0  0  0  0  0  0  0  0  0  0  0
   35.6555   27.8051   41.0635 H   0  0  0  0  0  0  0  0  0  0  0  0
   38.4929   30.5544   42.8009 H   0  0  0  0  0  0  0  0  0  0  0  0
   38.4721   26.4207   43.8560 H   0  0  0  0  0  0  0  0  0  0  0  0
   40.3862   35.0128   39.3869 H   0  0  0  0  0  0  0  0  0  0  0  0
   40.6847   37.8626   39.4945 H   0  0  0  0  0  0  0  0  0  0  0  0
   39.2099   38.0851   39.9252 H   0  0  0  0  0  0  0  0  0  0  0  0
   40.1538   36.4491   42.3604 H   0  0  0  0  0  0  0  0  0  0  0  0
   42.3801   37.0567   40.8153 H   0  0  0  0  0  0  0  0  0  0  0  0
   42.5810   34.4708   42.2588 H   0  0  0  0  0  0  0  0  0  0  0  0
   41.6499   34.4111   40.7238 H   0  0  0  0  0  0  0  0  0  0  0  0
   43.3444   35.0073   40.7238 H   0  0  0  0  0  0  0  0  0  0  0  0
   41.8337   36.2854   43.6666 H   0  0  0  0  0  0  0  0  0  0  0  0
   43.4274   36.7579   42.9857 H   0  0  0  0  0  0  0  0  0  0  0  0
   42.0673   37.9312   42.9857 H   0  0  0  0  0  0  0  0  0  0  0  0
  1  5  1  0
  1  6  1  0
  2  1  2  0
  3  2  1  0
  3  4  1  0
  4 13  1  0
  4  5  2  0
  6  8  1  0
  7  8  2  0
  7 12  1  0
  8  9  1  0
  9 10  2  0
 11 10  1  0
 12 11  2  0
 14 15  1  0
 14 13  1  0
 14 16  1  0
 15 16  1  0
 16 17  1  0
 17 19  1  0
 18 17  1  0
  2 20  1  0
  7 21  1  0
  9 22  1  0
 11 23  1  0
 14 24  1  6
 15 25  1  0
 15 26  1  0
 16 27  1  1
 17 28  1  0
 18 29  1  0
 18 30  1  0
 18 31  1  0
 19 32  1  0
 19 33  1  0
 19 34  1  0
M  ISO  8  20  14  21  14  22  14  23  14  24  13  25  13  26  13  27  13
M  ISO  7  28   8  29   8  30   8  31   8  32   8  33   8  34   8
M  END
>  <minimizedAffinity>  (1) 
-5.42063951

>  <minimizedRMSD>  (1) 
1.11765254

$$$$
