
     RDKit          3D

 40 43  0  0  1  0  0  0  0  0999 V2000
   36.2420   29.8050   38.9030 C   0  0  0  0  0  0  0  0  0  0  0  0
   35.7860   29.2040   37.7100 C   0  0  0  0  0  0  0  0  0  0  0  0
   36.9090   30.0410   36.5070 S   0  0  0  0  0  0  0  0  0  0  0  0
   37.7780   31.0500   37.8920 C   0  0  0  0  0  0  0  0  0  0  0  0
   37.2220   30.6790   38.7830 N   0  0  0  0  0  0  0  0  0  0  0  0
   35.4140   29.2960   40.4470 S   0  0  0  0  0  0  0  0  0  0  0  0
   36.7740   27.3640   41.9310 C   0  0  0  0  0  0  0  0  0  0  0  0
   36.6040   28.7300   41.6210 C   0  0  0  0  0  0  0  0  0  0  0  0
   37.4270   29.6190   42.2920 C   0  0  0  0  0  0  0  0  0  0  0  0
   38.3380   29.1610   43.1950 N   0  0  0  0  0  0  0  0  0  0  0  0
   38.4600   27.8270   43.4550 C   0  0  0  0  0  0  0  0  0  0  0  0
   37.6970   26.9490   42.8410 N   0  0  0  0  0  0  0  0  0  0  0  0
   38.8190   31.9780   37.7160 O   0  0  0  0  0  0  0  0  0  0  0  0
   40.1700   31.5850   37.9450 C   0  0  1  0  0  0  0  0  0  0  0  0
   41.1880   32.4570   37.2300 C   0  0  0  0  0  0  0  0  0  0  0  0
   41.0240   32.5250   38.7330 C   0  0  1  0  0  0  0  0  0  0  0  0
   40.4660   33.6860   39.3100 N   0  0  0  0  0  0  0  0  0  0  0  0
   41.3010   34.8560   39.2380 C   0  0  0  0  0  0  0  0  0  0  0  0
   40.5870   36.0000   39.8980 C   0  0  0  0  0  0  0  0  0  0  0  0
   39.0940   35.8080   40.0230 C   0  0  0  0  0  0  0  0  0  0  0  0
   38.7120   34.4940   40.6700 C   0  0  0  0  0  0  0  0  0  0  0  0
   39.8510   33.5240   40.5920 C   0  0  0  0  0  0  0  0  0  0  0  0
   34.9951   28.4574   37.5456 H   0  0  0  0  0  0  0  0  0  0  0  0
   36.1454   26.6165   41.4250 H   0  0  0  0  0  0  0  0  0  0  0  0
   37.3447   30.6981   42.0951 H   0  0  0  0  0  0  0  0  0  0  0  0
   39.2053   27.4818   44.1867 H   0  0  0  0  0  0  0  0  0  0  0  0
   39.9562   30.5086   38.0208 H   0  0  0  0  0  0  0  0  0  0  0  0
   42.0912   32.0066   36.7925 H   0  0  0  0  0  0  0  0  0  0  0  0
   41.1550   33.1836   36.4048 H   0  0  0  0  0  0  0  0  0  0  0  0
   41.6926   32.4092   39.5988 H   0  0  0  0  0  0  0  0  0  0  0  0
   42.2517   34.6644   39.7571 H   0  0  0  0  0  0  0  0  0  0  0  0
   41.5104   35.1022   38.1865 H   0  0  0  0  0  0  0  0  0  0  0  0
   41.0038   36.1306   40.9076 H   0  0  0  0  0  0  0  0  0  0  0  0
   40.7401   36.8806   39.2568 H   0  0  0  0  0  0  0  0  0  0  0  0
   38.6861   36.6285   40.6315 H   0  0  0  0  0  0  0  0  0  0  0  0
   38.6795   35.8024   39.0041 H   0  0  0  0  0  0  0  0  0  0  0  0
   38.4573   34.6701   41.7255 H   0  0  0  0  0  0  0  0  0  0  0  0
   37.8465   34.0722   40.1381 H   0  0  0  0  0  0  0  0  0  0  0  0
   39.4768   32.4955   40.7019 H   0  0  0  0  0  0  0  0  0  0  0  0
   40.5767   33.7126   41.3968 H   0  0  0  0  0  0  0  0  0  0  0  0
  1  6  1  0
  2  1  2  0
  3  2  1  0
  3  4  1  0
  4  5  2  0
  5  1  1  0
  6  8  1  0
  7 12  2  0
  8  7  1  0
  8  9  2  0
  9 10  1  0
 10 11  2  0
 12 11  1  0
 13  4  1  0
 13 14  1  0
 14 16  1  0
 15 14  1  0
 15 16  1  0
 16 17  1  0
 17 22  1  0
 18 17  1  0
 18 19  1  0
 19 20  1  0
 20 21  1  0
 22 21  1  0
  2 23  1  0
  7 24  1  0
  9 25  1  0
 11 26  1  0
 14 27  1  1
 15 28  1  0
 15 29  1  0
 16 30  1  1
 18 31  1  0
 18 32  1  0
 19 33  1  0
 19 34  1  0
 20 35  1  0
 20 36  1  0
 21 37  1  0
 21 38  1  0
 22 39  1  0
 22 40  1  0
M  ISO  8  23  14  24  14  25  14  26  14  27  13  28  13  29  13  30  13
M  ISO  8  31  13  32  13  33  13  34  13  35  13  36  13  37  13  38  13
M  ISO  2  39  13  40  13
M  END
>  <minimizedAffinity>  (1) 
-5.37474203

>  <minimizedRMSD>  (1) 
3.51243305

$$$$
