
     RDKit          3D

 17 18  0  0  0  0  0  0  0  0999 V2000
   38.2200   28.8300   43.4060 C   0  0  0  0  0  0  0  0  0  0  0  0
   38.2560   29.8050   42.3910 C   0  0  0  0  0  0  0  0  0  0  0  0
   37.3170   29.7080   41.3480 C   0  0  0  0  0  0  0  0  0  0  0  0
   36.4280   28.6840   41.3760 N   0  0  0  0  0  0  0  0  0  0  0  0
   36.4160   27.7540   42.3730 C   0  0  0  0  0  0  0  0  0  0  0  0
   37.3040   27.8350   43.3700 N   0  0  0  0  0  0  0  0  0  0  0  0
   37.2830   30.6750   40.2570 C   0  0  0  0  0  0  0  0  0  0  0  0
   37.2180   32.0410   40.4340 C   0  0  0  0  0  0  0  0  0  0  0  0
   37.2080   32.5740   39.1490 C   0  0  0  0  0  0  0  0  0  0  0  0
   37.2680   31.4920   38.2650 C   0  0  0  0  0  0  0  0  0  0  0  0
   37.3120   30.3770   38.9580 O   0  0  0  0  0  0  0  0  0  0  0  0
   38.9420   28.8776   44.2345 H   0  0  0  0  0  0  0  0  0  0  0  0
   38.9963   30.6183   42.4129 H   0  0  0  0  0  0  0  0  0  0  0  0
   35.6776   26.9388   42.3575 H   0  0  0  0  0  0  0  0  0  0  0  0
   37.1818   32.5908   41.3861 H   0  0  0  0  0  0  0  0  0  0  0  0
   37.1619   33.6397   38.8804 H   0  0  0  0  0  0  0  0  0  0  0  0
   37.2769   31.5631   37.1673 H   0  0  0  0  0  0  0  0  0  0  0  0
  2  1  2  0
  3  4  2  0
  3  2  1  0
  4  5  1  0
  5  6  2  0
  6  1  1  0
  7  8  2  0
  7  3  1  0
  9  8  1  0
 10 11  1  0
 10  9  2  0
 11  7  1  0
  1 12  1  0
  2 13  1  0
  5 14  1  0
  8 15  1  0
  9 16  1  0
 10 17  1  0
M  ISO  6  12  14  13  14  14  14  15  14  16  14  17  14
M  END
>  <minimizedAffinity>  (1) 
-3.4342351

>  <minimizedRMSD>  (1) 
5.52773046

$$$$
