
     RDKit          3D

 31 34  0  0  1  0  0  0  0  0999 V2000
   38.1100   31.5750   40.1730 C   0  0  0  0  0  0  0  0  0  0  0  0
   38.2210   31.4060   38.7760 C   0  0  0  0  0  0  0  0  0  0  0  0
   39.8220   32.2830   38.4960 S   0  0  0  0  0  0  0  0  0  0  0  0
   40.0130   32.7060   40.3630 C   0  0  0  0  0  0  0  0  0  0  0  0
   39.0820   32.2280   40.7260 N   0  0  0  0  0  0  0  0  0  0  0  0
   36.6290   30.8630   40.9700 S   0  0  0  0  0  0  0  0  0  0  0  0
   36.4890   28.1080   41.4570 C   0  0  0  0  0  0  0  0  0  0  0  0
   37.0520   29.3670   41.8070 C   0  0  0  0  0  0  0  0  0  0  0  0
   37.9640   29.3660   42.8520 C   0  0  0  0  0  0  0  0  0  0  0  0
   38.2760   28.2000   43.4850 N   0  0  0  0  0  0  0  0  0  0  0  0
   37.7030   27.0220   43.1040 C   0  0  0  0  0  0  0  0  0  0  0  0
   36.8310   26.9710   42.1170 N   0  0  0  0  0  0  0  0  0  0  0  0
   41.0710   33.4200   40.9550 O   0  0  0  0  0  0  0  0  0  0  0  0
   42.4130   33.1590   40.5420 C   0  0  1  0  0  0  0  0  0  0  0  0
   42.9660   34.1850   39.5680 C   0  0  0  0  0  0  0  0  0  0  0  0
   43.4370   34.1310   41.0320 C   0  0  1  0  0  0  0  0  0  0  0  0
   43.0120   35.2700   41.8250 N   0  0  0  0  0  0  0  0  0  0  0  0
   41.9700   36.1120   41.6440 C   0  0  0  0  0  0  0  0  0  0  0  0
   41.9650   37.0320   42.6400 N   0  0  0  0  0  0  0  0  0  0  0  0
   43.0050   36.7690   43.4480 C   0  0  0  0  0  0  0  0  0  0  0  0
   43.6290   35.6850   42.9230 N   0  0  0  0  0  0  0  0  0  0  0  0
   37.5515   30.9010   38.0642 H   0  0  0  0  0  0  0  0  0  0  0  0
   35.7610   28.0542   40.6341 H   0  0  0  0  0  0  0  0  0  0  0  0
   38.4360   30.3073   43.1702 H   0  0  0  0  0  0  0  0  0  0  0  0
   37.9744   26.0956   43.6314 H   0  0  0  0  0  0  0  0  0  0  0  0
   42.3333   32.0620   40.5596 H   0  0  0  0  0  0  0  0  0  0  0  0
   43.6402   33.8721   38.7571 H   0  0  0  0  0  0  0  0  0  0  0  0
   42.5375   34.9532   38.9075 H   0  0  0  0  0  0  0  0  0  0  0  0
   44.3861   34.0058   41.5737 H   0  0  0  0  0  0  0  0  0  0  0  0
   41.2426   36.0592   40.8205 H   0  0  0  0  0  0  0  0  0  0  0  0
   43.2932   37.3220   44.3542 H   0  0  0  0  0  0  0  0  0  0  0  0
  1  5  1  0
  1  6  1  0
  2  1  2  0
  3  2  1  0
  3  4  1  0
  4  5  2  0
  4 13  1  0
  6  8  1  0
  7  8  2  0
  7 12  1  0
  8  9  1  0
  9 10  2  0
 11 10  1  0
 12 11  2  0
 14 13  1  0
 14 16  1  0
 15 14  1  0
 15 16  1  0
 16 17  1  0
 17 21  1  0
 18 17  1  0
 18 19  2  0
 19 20  1  0
 21 20  2  0
  2 22  1  0
  7 23  1  0
  9 24  1  0
 11 25  1  0
 14 26  1  6
 15 27  1  0
 15 28  1  0
 16 29  1  6
 18 30  1  0
 20 31  1  0
M  ISO  8  22  14  23  14  24  14  25  14  26  13  27  13  28  13  29  13
M  ISO  2  30  14  31  14
M  END
>  <minimizedAffinity>  (1) 
-5.05409908

>  <minimizedRMSD>  (1) 
3.56226659

$$$$
