
     RDKit          3D

 32 35  0  0  1  0  0  0  0  0999 V2000
   37.4550   29.5500   41.9330 C   0  0  0  0  0  0  0  0  0  0  0  0
   36.2930   29.4220   41.1430 C   0  0  0  0  0  0  0  0  0  0  0  0
   36.7650   30.5380   39.7470 S   0  0  0  0  0  0  0  0  0  0  0  0
   38.4670   30.9520   40.5400 C   0  0  0  0  0  0  0  0  0  0  0  0
   38.3990   30.3410   41.4670 N   0  0  0  0  0  0  0  0  0  0  0  0
   37.4940   28.6080   43.4950 S   0  0  0  0  0  0  0  0  0  0  0  0
   37.7490   26.0510   42.4060 C   0  0  0  0  0  0  0  0  0  0  0  0
   38.2880   27.0520   43.2470 C   0  0  0  0  0  0  0  0  0  0  0  0
   39.4890   26.7460   43.8760 C   0  0  0  0  0  0  0  0  0  0  0  0
   40.0800   25.5400   43.6680 N   0  0  0  0  0  0  0  0  0  0  0  0
   39.5120   24.6090   42.8440 C   0  0  0  0  0  0  0  0  0  0  0  0
   38.3670   24.8620   42.2240 N   0  0  0  0  0  0  0  0  0  0  0  0
   39.4510   31.8090   40.0100 O   0  0  0  0  0  0  0  0  0  0  0  0
   40.7930   31.7300   40.5060 C   0  0  1  0  0  0  0  0  0  0  0  0
   41.8370   32.1860   39.5020 C   0  0  0  0  0  0  0  0  0  0  0  0
   41.4760   33.0430   40.7270 C   0  0  1  0  0  0  0  0  0  0  0  0
   40.7390   34.2950   40.4070 C   0  0  0  0  0  0  0  0  0  0  0  0
   39.3940   34.5160   40.6360 C   0  0  0  0  0  0  0  0  0  0  0  0
   39.1310   35.7990   40.1910 C   0  0  0  0  0  0  0  0  0  0  0  0
   40.3360   36.2960   39.7110 C   0  0  0  0  0  0  0  0  0  0  0  0
   41.2580   35.3520   39.8670 O   0  0  0  0  0  0  0  0  0  0  0  0
   35.3786   28.8334   41.3085 H   0  0  0  0  0  0  0  0  0  0  0  0
   36.7999   26.2451   41.8849 H   0  0  0  0  0  0  0  0  0  0  0  0
   39.9621   27.4813   44.5434 H   0  0  0  0  0  0  0  0  0  0  0  0
   40.0097   23.6397   42.6934 H   0  0  0  0  0  0  0  0  0  0  0  0
   40.6426   30.8362   41.1293 H   0  0  0  0  0  0  0  0  0  0  0  0
   42.8120   31.6796   39.4483 H   0  0  0  0  0  0  0  0  0  0  0  0
   41.8647   32.3431   38.4136 H   0  0  0  0  0  0  0  0  0  0  0  0
   42.0066   33.4818   41.5848 H   0  0  0  0  0  0  0  0  0  0  0  0
   38.6762   33.8123   41.0828 H   0  0  0  0  0  0  0  0  0  0  0  0
   38.1628   36.3206   40.2128 H   0  0  0  0  0  0  0  0  0  0  0  0
   40.4982   37.2943   39.2784 H   0  0  0  0  0  0  0  0  0  0  0  0
  1  6  1  0
  2  1  2  0
  3  4  1  0
  3  2  1  0
  4  5  2  0
  5  1  1  0
  7  8  2  0
  8  6  1  0
  8  9  1  0
 10  9  2  0
 11 10  1  0
 12  7  1  0
 12 11  2  0
 13 14  1  0
 13  4  1  0
 14 16  1  0
 15 14  1  0
 15 16  1  0
 17 18  2  0
 17 16  1  0
 19 18  1  0
 20 21  1  0
 20 19  2  0
 21 17  1  0
  2 22  1  0
  7 23  1  0
  9 24  1  0
 11 25  1  0
 14 26  1  1
 15 27  1  0
 15 28  1  0
 16 29  1  1
 18 30  1  0
 19 31  1  0
 20 32  1  0
M  ISO  8  22  14  23  14  24  14  25  14  26  13  27  13  28  13  29  13
M  ISO  3  30  14  31  14  32  14
M  END
>  <minimizedAffinity>  (1) 
-5.04872656

>  <minimizedRMSD>  (1) 
3.47343469

$$$$
