
     RDKit          3D

 28 30  0  0  1  0  0  0  0  0999 V2000
   36.5000   30.5410   39.4270 C   0  0  0  0  0  0  0  0  0  0  0  0
   36.6960   30.1970   38.0710 C   0  0  0  0  0  0  0  0  0  0  0  0
   37.6480   31.6820   37.5210 S   0  0  0  0  0  0  0  0  0  0  0  0
   37.5830   32.4780   39.2690 C   0  0  0  0  0  0  0  0  0  0  0  0
   37.0100   31.6850   39.7960 N   0  0  0  0  0  0  0  0  0  0  0  0
   35.5680   29.3530   40.4540 S   0  0  0  0  0  0  0  0  0  0  0  0
   36.8110   27.1930   41.7400 C   0  0  0  0  0  0  0  0  0  0  0  0
   36.6420   28.6030   41.6360 C   0  0  0  0  0  0  0  0  0  0  0  0
   37.3760   29.3790   42.5250 C   0  0  0  0  0  0  0  0  0  0  0  0
   38.2010   28.7820   43.4310 N   0  0  0  0  0  0  0  0  0  0  0  0
   38.3220   27.4300   43.4830 C   0  0  0  0  0  0  0  0  0  0  0  0
   37.6480   26.6460   42.6620 N   0  0  0  0  0  0  0  0  0  0  0  0
   38.1350   33.7200   39.6560 O   0  0  0  0  0  0  0  0  0  0  0  0
   38.8730   33.7930   40.8850 C   0  0  1  0  0  0  0  0  0  0  0  0
   40.3770   33.8150   40.6900 C   0  0  0  0  0  0  0  0  0  0  0  0
   39.6230   35.0720   41.1100 C   0  0  1  0  0  0  0  0  0  0  0  0
   39.5470   36.1430   40.0510 C   0  0  0  0  0  0  0  0  0  0  0  0
   39.9030   37.3500   40.6110 F   0  0  0  0  0  0  0  0  0  0  0  0
   38.2670   36.2890   39.5840 F   0  0  0  0  0  0  0  0  0  0  0  0
   40.4480   35.9150   39.0260 F   0  0  0  0  0  0  0  0  0  0  0  0
   36.3762   29.3075   37.5085 H   0  0  0  0  0  0  0  0  0  0  0  0
   36.2529   26.5322   41.0604 H   0  0  0  0  0  0  0  0  0  0  0  0
   37.2912   30.4754   42.4975 H   0  0  0  0  0  0  0  0  0  0  0  0
   38.9964   26.9785   44.2255 H   0  0  0  0  0  0  0  0  0  0  0  0
   38.1669   33.2032   41.4879 H   0  0  0  0  0  0  0  0  0  0  0  0
   41.0346   33.3000   41.4058 H   0  0  0  0  0  0  0  0  0  0  0  0
   41.0648   33.5504   39.8733 H   0  0  0  0  0  0  0  0  0  0  0  0
   39.6644   35.7876   41.9444 H   0  0  0  0  0  0  0  0  0  0  0  0
  1  5  1  0
  1  6  1  0
  2  1  2  0
  3  2  1  0
  3  4  1  0
  4 13  1  0
  4  5  2  0
  6  8  1  0
  7 12  2  0
  8  7  1  0
  8  9  2  0
  9 10  1  0
 10 11  2  0
 12 11  1  0
 13 14  1  0
 14 16  1  0
 15 14  1  0
 15 16  1  0
 17 18  1  0
 17 16  1  0
 19 17  1  0
 20 17  1  0
  2 21  1  0
  7 22  1  0
  9 23  1  0
 11 24  1  0
 14 25  1  1
 15 26  1  0
 15 27  1  0
 16 28  1  1
M  ISO  8  21  14  22  14  23  14  24  14  25  13  26  13  27  13  28  13
M  END
>  <minimizedAffinity>  (1) 
-5.03192377

>  <minimizedRMSD>  (1) 
1.7237016

$$$$
