
     RDKit          3D

 17 18  0  0  0  0  0  0  0  0999 V2000
   37.7520   28.8710   42.8920 C   0  0  0  0  0  0  0  0  0  0  0  0
   39.0550   28.4180   43.1580 C   0  0  0  0  0  0  0  0  0  0  0  0
   39.2880   27.0450   43.1150 C   0  0  0  0  0  0  0  0  0  0  0  0
   38.2470   26.2270   42.8200 N   0  0  0  0  0  0  0  0  0  0  0  0
   37.0030   26.6940   42.5680 C   0  0  0  0  0  0  0  0  0  0  0  0
   36.7570   28.0200   42.6050 N   0  0  0  0  0  0  0  0  0  0  0  0
   40.5840   26.5130   43.3730 N   0  0  0  0  0  0  0  0  0  0  0  0
   41.4520   27.0130   44.2530 C   0  0  0  0  0  0  0  0  0  0  0  0
   42.5770   26.1830   44.1740 C   0  0  0  0  0  0  0  0  0  0  0  0
   42.3480   25.2150   43.2510 N   0  0  0  0  0  0  0  0  0  0  0  0
   41.0970   25.4350   42.7610 C   0  0  0  0  0  0  0  0  0  0  0  0
   37.5432   29.9506   42.9200 H   0  0  0  0  0  0  0  0  0  0  0  0
   39.8650   29.1244   43.3926 H   0  0  0  0  0  0  0  0  0  0  0  0
   36.1902   25.9913   42.3324 H   0  0  0  0  0  0  0  0  0  0  0  0
   41.3139   27.8901   44.9023 H   0  0  0  0  0  0  0  0  0  0  0  0
   43.4978   26.2972   44.7648 H   0  0  0  0  0  0  0  0  0  0  0  0
   40.5921   24.8308   41.9929 H   0  0  0  0  0  0  0  0  0  0  0  0
  1  2  2  0
  3  2  1  0
  3  7  1  0
  4  3  2  0
  5  6  2  0
  5  4  1  0
  6  1  1  0
  7  8  1  0
  9  8  2  0
 10  9  1  0
 11 10  2  0
 11  7  1  0
  1 12  1  0
  2 13  1  0
  5 14  1  0
  8 15  1  0
  9 16  1  0
 11 17  1  0
M  ISO  6  12  14  13  14  14  14  15  14  16  14  17  14
M  END
>  <minimizedAffinity>  (1) 
-3.33047462

>  <minimizedRMSD>  (1) 
4.695436

$$$$
