
     RDKit          3D

 37 40  0  0  1  0  0  0  0  0999 V2000
   37.9410   32.7870   39.4100 C   0  0  1  0  0  0  0  0  0  0  0  0
   38.5390   32.7960   40.8330 C   0  0  0  0  0  0  0  0  0  0  0  0
   38.2280   34.0880   40.0280 C   0  0  1  0  0  0  0  0  0  0  0  0
   39.4430   34.7830   39.6860 N   0  0  0  0  0  0  0  0  0  0  0  0
   39.9290   36.0410   40.1350 C   0  0  0  0  0  0  0  0  0  0  0  0
   39.5880   37.2470   39.9250 O   0  0  0  0  0  0  0  0  0  0  0  0
   41.1240   36.0230   41.0730 C   0  0  0  0  0  0  0  0  0  0  0  0
   42.1010   35.0550   40.9890 C   0  0  0  0  0  0  0  0  0  0  0  0
   43.2290   34.9070   41.7560 C   0  0  0  0  0  0  0  0  0  0  0  0
   43.3670   35.8540   42.7090 N   0  0  0  0  0  0  0  0  0  0  0  0
   42.4640   36.8360   42.8640 C   0  0  0  0  0  0  0  0  0  0  0  0
   41.4240   36.8720   42.0660 N   0  0  0  0  0  0  0  0  0  0  0  0
   38.9390   32.2310   38.5170 O   0  0  0  0  0  0  0  0  0  0  0  0
   39.4100   28.6970   38.8450 C   0  0  0  0  0  0  0  0  0  0  0  0
   40.6830   28.5630   38.2590 C   0  0  0  0  0  0  0  0  0  0  0  0
   40.9750   30.3360   37.8390 S   0  0  0  0  0  0  0  0  0  0  0  0
   39.2730   30.9030   38.5640 C   0  0  0  0  0  0  0  0  0  0  0  0
   38.9620   29.9100   38.8680 N   0  0  0  0  0  0  0  0  0  0  0  0
   38.5860   27.1940   39.4870 S   0  0  0  0  0  0  0  0  0  0  0  0
   39.1310   27.4760   42.2290 C   0  0  0  0  0  0  0  0  0  0  0  0
   38.1740   27.4210   41.1730 C   0  0  0  0  0  0  0  0  0  0  0  0
   36.8570   27.5630   41.5520 C   0  0  0  0  0  0  0  0  0  0  0  0
   36.5330   27.7450   42.8760 N   0  0  0  0  0  0  0  0  0  0  0  0
   37.4920   27.7890   43.8380 C   0  0  0  0  0  0  0  0  0  0  0  0
   38.7760   27.6560   43.5120 N   0  0  0  0  0  0  0  0  0  0  0  0
   37.0389   32.4263   38.8942 H   0  0  0  0  0  0  0  0  0  0  0  0
   37.9230   32.5156   41.7002 H   0  0  0  0  0  0  0  0  0  0  0  0
   39.4169   32.3593   41.3316 H   0  0  0  0  0  0  0  0  0  0  0  0
   37.6081   34.9909   40.1304 H   0  0  0  0  0  0  0  0  0  0  0  0
   40.0517   34.2940   39.0142 H   0  0  0  0  0  0  0  0  0  0  0  0
   41.9575   34.3001   40.2019 H   0  0  0  0  0  0  0  0  0  0  0  0
   43.9536   34.0927   41.6084 H   0  0  0  0  0  0  0  0  0  0  0  0
   42.5946   37.5973   43.6472 H   0  0  0  0  0  0  0  0  0  0  0  0
   41.3110   27.6740   38.1002 H   0  0  0  0  0  0  0  0  0  0  0  0
   40.1979   27.3671   41.9841 H   0  0  0  0  0  0  0  0  0  0  0  0
   36.0618   27.5307   40.7927 H   0  0  0  0  0  0  0  0  0  0  0  0
   37.2062   27.9351   44.8901 H   0  0  0  0  0  0  0  0  0  0  0  0
  1  3  1  0
  1  2  1  0
  3  2  1  0
  4  3  1  0
  4  5  1  0
  5  7  1  0
  6  5  2  0
  7 12  1  0
  8  7  2  0
  8  9  1  0
  9 10  2  0
 10 11  1  0
 12 11  2  0
 13 17  1  0
 13  1  1  0
 14 18  1  0
 14 19  1  0
 15 14  2  0
 16 15  1  0
 16 17  1  0
 17 18  2  0
 19 21  1  0
 20 25  2  0
 21 22  2  0
 21 20  1  0
 22 23  1  0
 23 24  2  0
 25 24  1  0
  1 26  1  1
  2 27  1  0
  2 28  1  0
  3 29  1  1
  4 30  1  0
  8 31  1  0
  9 32  1  0
 11 33  1  0
 15 34  1  0
 20 35  1  0
 22 36  1  0
 24 37  1  0
M  ISO  8  26  13  27  13  28  13  29  13  31  14  32  14  33  14  34  14
M  ISO  3  35  14  36  14  37  14
M  END
>  <minimizedAffinity>  (1) 
-5.8710227

>  <minimizedRMSD>  (1) 
3.29011106

$$$$
