
     RDKit          3D

 36 39  0  0  1  0  0  0  0  0999 V2000
   36.4990   29.2110   38.5850 C   0  0  0  0  0  0  0  0  0  0  0  0
   36.7440   28.8740   37.2490 C   0  0  0  0  0  0  0  0  0  0  0  0
   37.3450   30.5130   36.6600 S   0  0  0  0  0  0  0  0  0  0  0  0
   37.1350   31.3390   38.3950 C   0  0  0  0  0  0  0  0  0  0  0  0
   36.7650   30.4440   38.8810 N   0  0  0  0  0  0  0  0  0  0  0  0
   35.8680   27.9030   39.6870 S   0  0  0  0  0  0  0  0  0  0  0  0
   37.3630   26.7530   41.7710 C   0  0  0  0  0  0  0  0  0  0  0  0
   36.7660   27.9170   41.2010 C   0  0  0  0  0  0  0  0  0  0  0  0
   36.9250   29.0840   41.9000 C   0  0  0  0  0  0  0  0  0  0  0  0
   37.6300   29.0900   43.0850 N   0  0  0  0  0  0  0  0  0  0  0  0
   38.1820   27.9410   43.5850 C   0  0  0  0  0  0  0  0  0  0  0  0
   38.0420   26.8020   42.9280 N   0  0  0  0  0  0  0  0  0  0  0  0
   37.4630   32.6620   38.5500 O   0  0  0  0  0  0  0  0  0  0  0  0
   37.3300   33.3160   39.8390 C   0  0  1  0  0  0  0  0  0  0  0  0
   38.3710   32.6960   40.7930 C   0  0  0  0  0  0  0  0  0  0  0  0
   38.4510   34.1570   40.2800 C   0  0  1  0  0  0  0  0  0  0  0  0
   39.5870   34.3470   39.4290 N   0  0  0  0  0  0  0  0  0  0  0  0
   40.7360   35.1580   39.6300 C   0  0  0  0  0  0  0  0  0  0  0  0
   41.0020   36.3610   39.6360 O   0  0  0  0  0  0  0  0  0  0  0  0
   42.1240   34.6710   39.9210 C   0  0  0  0  0  0  0  0  0  0  0  0
   42.0890   33.4680   40.8920 C   0  0  0  0  0  0  0  0  0  0  0  0
   42.7820   34.7130   41.2150 C   0  0  0  0  0  0  0  0  0  0  0  0
   36.6166   27.9214   36.7139 H   0  0  0  0  0  0  0  0  0  0  0  0
   37.2642   25.7901   41.2485 H   0  0  0  0  0  0  0  0  0  0  0  0
   36.4896   30.0181   41.5154 H   0  0  0  0  0  0  0  0  0  0  0  0
   38.7412   27.9654   44.5320 H   0  0  0  0  0  0  0  0  0  0  0  0
   36.2482   33.5141   39.8172 H   0  0  0  0  0  0  0  0  0  0  0  0
   38.1127   32.4851   41.8412 H   0  0  0  0  0  0  0  0  0  0  0  0
   39.0280   31.8137   40.7904 H   0  0  0  0  0  0  0  0  0  0  0  0
   38.4667   35.1755   40.6953 H   0  0  0  0  0  0  0  0  0  0  0  0
   39.5684   33.8200   38.5442 H   0  0  0  0  0  0  0  0  0  0  0  0
   42.4929   34.9870   38.9341 H   0  0  0  0  0  0  0  0  0  0  0  0
   41.1573   33.1990   41.4112 H   0  0  0  0  0  0  0  0  0  0  0  0
   42.3582   32.4026   40.8419 H   0  0  0  0  0  0  0  0  0  0  0  0
   43.8811   34.7212   41.2599 H   0  0  0  0  0  0  0  0  0  0  0  0
   42.7250   35.4073   42.0663 H   0  0  0  0  0  0  0  0  0  0  0  0
  1  5  1  0
  1  6  1  0
  2  1  2  0
  3  2  1  0
  3  4  1  0
  4 13  1  0
  4  5  2  0
  6  8  1  0
  7 12  2  0
  8  7  1  0
  8  9  2  0
  9 10  1  0
 10 11  2  0
 12 11  1  0
 13 14  1  0
 14 16  1  0
 14 15  1  0
 16 15  1  0
 17 18  1  0
 17 16  1  0
 18 19  2  0
 18 20  1  0
 20 21  1  0
 20 22  1  0
 21 22  1  0
  2 23  1  0
  7 24  1  0
  9 25  1  0
 11 26  1  0
 14 27  1  1
 15 28  1  0
 15 29  1  0
 16 30  1  1
 17 31  1  0
 20 32  1  0
 21 33  1  0
 21 34  1  0
 22 35  1  0
 22 36  1  0
M  ISO  8  23  14  24  14  25  14  26  14  27  13  28  13  29  13  30  13
M  ISO  5  32  13  33  13  34  13  35  13  36  13
M  END
>  <minimizedAffinity>  (1) 
-4.79269505

>  <minimizedRMSD>  (1) 
2.15534306

$$$$
