
     RDKit          3D

 16 16  0  0  0  0  0  0  0  0999 V2000
   39.1450   30.4220   42.2450 C   0  0  0  0  0  0  0  0  0  0  0  0
   38.7350   29.3500   43.0530 C   0  0  0  0  0  0  0  0  0  0  0  0
   37.4560   28.8300   42.8640 C   0  0  0  0  0  0  0  0  0  0  0  0
   36.6650   29.3930   41.8990 N   0  0  0  0  0  0  0  0  0  0  0  0
   37.0830   30.4180   41.1390 C   0  0  0  0  0  0  0  0  0  0  0  0
   38.3190   30.9390   41.3050 N   0  0  0  0  0  0  0  0  0  0  0  0
   36.8640   27.7020   43.6290 C   0  0  0  0  0  0  0  0  0  0  0  0
   36.5420   28.1270   45.0470 C   0  0  0  0  0  0  0  0  0  0  0  0
   40.1506   30.8477   42.3772 H   0  0  0  0  0  0  0  0  0  0  0  0
   39.4067   28.9307   43.8166 H   0  0  0  0  0  0  0  0  0  0  0  0
   36.4131   30.8376   40.3740 H   0  0  0  0  0  0  0  0  0  0  0  0
   35.9393   27.3743   43.1315 H   0  0  0  0  0  0  0  0  0  0  0  0
   37.5916   26.8778   43.6635 H   0  0  0  0  0  0  0  0  0  0  0  0
   37.0503   27.4561   45.7552 H   0  0  0  0  0  0  0  0  0  0  0  0
   36.8868   29.1591   45.2077 H   0  0  0  0  0  0  0  0  0  0  0  0
   35.4551   28.0743   45.2077 H   0  0  0  0  0  0  0  0  0  0  0  0
  1  2  2  0
  3  2  1  0
  3  7  1  0
  4  3  2  0
  5  6  2  0
  5  4  1  0
  6  1  1  0
  7  8  1  0
  1  9  1  0
  2 10  1  0
  5 11  1  0
  7 12  1  0
  7 13  1  0
  8 14  1  0
  8 15  1  0
  8 16  1  0
M  ISO  8   9  14  10  14  11  14  12   8  13   8  14   8  15   8  16   8
M  END
>  <minimizedAffinity>  (1) 
-3.1591382

>  <minimizedRMSD>  (1) 
1.77405012

$$$$
