
     RDKit          3D

 46 50  0  0  1  0  0  0  0  0999 V2000
   37.7220   32.1280   40.7190 C   0  0  1  0  0  0  0  0  0  0  0  0
   39.1610   31.5490   40.8070 C   0  0  0  0  0  0  0  0  0  0  0  0
   38.8010   33.0470   41.0430 C   0  0  1  0  0  0  0  0  0  0  0  0
   39.3740   33.8750   40.0200 N   0  0  0  0  0  0  0  0  0  0  0  0
   39.5640   35.2940   39.9750 C   0  0  0  0  0  0  0  0  0  0  0  0
   38.8220   36.2980   39.9340 O   0  0  0  0  0  0  0  0  0  0  0  0
   40.9080   35.7520   39.9730 O   0  0  0  0  0  0  0  0  0  0  0  0
   41.7690   35.7780   41.0100 C   0  0  0  0  0  0  0  0  0  0  0  0
   41.6290   36.8340   41.9170 C   0  0  0  0  0  0  0  0  0  0  0  0
   42.4240   36.9950   43.0140 C   0  0  0  0  0  0  0  0  0  0  0  0
   43.4150   36.0750   43.2450 C   0  0  0  0  0  0  0  0  0  0  0  0
   43.5840   35.0190   42.3730 C   0  0  0  0  0  0  0  0  0  0  0  0
   44.5740   34.0820   42.5840 C   0  0  0  0  0  0  0  0  0  0  0  0
   44.6980   33.0390   41.6730 C   0  0  0  0  0  0  0  0  0  0  0  0
   43.8940   32.8720   40.5590 C   0  0  0  0  0  0  0  0  0  0  0  0
   42.9110   33.8220   40.3680 C   0  0  0  0  0  0  0  0  0  0  0  0
   42.7670   34.8660   41.2570 C   0  0  0  0  0  0  0  0  0  0  0  0
   37.3400   32.0170   39.3130 O   0  0  0  0  0  0  0  0  0  0  0  0
   36.5890   28.7160   38.1820 C   0  0  0  0  0  0  0  0  0  0  0  0
   36.8610   28.8840   36.8120 C   0  0  0  0  0  0  0  0  0  0  0  0
   37.3530   30.6600   36.8620 S   0  0  0  0  0  0  0  0  0  0  0  0
   37.0840   30.8070   38.7670 C   0  0  0  0  0  0  0  0  0  0  0  0
   36.7740   29.7860   38.8880 N   0  0  0  0  0  0  0  0  0  0  0  0
   36.0440   27.0760   38.7720 S   0  0  0  0  0  0  0  0  0  0  0  0
   37.8460   25.5800   40.3630 C   0  0  0  0  0  0  0  0  0  0  0  0
   36.9120   26.6560   40.2470 C   0  0  0  0  0  0  0  0  0  0  0  0
   36.6960   27.3870   41.3800 C   0  0  0  0  0  0  0  0  0  0  0  0
   37.3660   27.0680   42.5440 N   0  0  0  0  0  0  0  0  0  0  0  0
   38.2490   26.0290   42.5990 C   0  0  0  0  0  0  0  0  0  0  0  0
   38.4740   25.3040   41.5130 N   0  0  0  0  0  0  0  0  0  0  0  0
   36.7391   31.9998   41.1960 H   0  0  0  0  0  0  0  0  0  0  0  0
   39.4561   30.9033   41.6472 H   0  0  0  0  0  0  0  0  0  0  0  0
   39.8382   30.9801   40.1529 H   0  0  0  0  0  0  0  0  0  0  0  0
   38.8835   33.7962   41.8442 H   0  0  0  0  0  0  0  0  0  0  0  0
   39.7006   33.3679   39.1851 H   0  0  0  0  0  0  0  0  0  0  0  0
   40.8355   37.5740   41.7360 H   0  0  0  0  0  0  0  0  0  0  0  0
   42.2737   37.8434   43.6978 H   0  0  0  0  0  0  0  0  0  0  0  0
   44.0718   36.1786   44.1213 H   0  0  0  0  0  0  0  0  0  0  0  0
   45.2477   34.1579   43.4502 H   0  0  0  0  0  0  0  0  0  0  0  0
   45.4893   32.2957   41.8498 H   0  0  0  0  0  0  0  0  0  0  0  0
   44.0306   32.0297   39.8649 H   0  0  0  0  0  0  0  0  0  0  0  0
   42.2383   33.7457   39.5011 H   0  0  0  0  0  0  0  0  0  0  0  0
   36.7993   28.1761   35.9723 H   0  0  0  0  0  0  0  0  0  0  0  0
   38.0555   24.9591   39.4795 H   0  0  0  0  0  0  0  0  0  0  0  0
   35.9887   28.2293   41.3651 H   0  0  0  0  0  0  0  0  0  0  0  0
   38.7706   25.7949   43.5388 H   0  0  0  0  0  0  0  0  0  0  0  0
  1  2  1  0
  1  3  1  0
  2  3  1  0
  4  3  1  0
  5  4  1  0
  6  5  2  0
  7  5  1  0
  7  8  1  0
  8 17  1  0
  8  9  2  0
  9 10  1  0
 10 11  2  0
 12 13  2  0
 12 11  1  0
 14 13  1  0
 15 14  2  0
 16 15  1  0
 16 17  2  0
 17 12  1  0
 18  1  1  0
 19 24  1  0
 19 23  1  0
 20 21  1  0
 20 19  2  0
 21 22  1  0
 22 23  2  0
 22 18  1  0
 24 26  1  0
 25 30  2  0
 26 25  1  0
 26 27  2  0
 27 28  1  0
 28 29  2  0
 30 29  1  0
  1 31  1  1
  2 32  1  0
  2 33  1  0
  3 34  1  1
  4 35  1  0
  9 36  1  0
 10 37  1  0
 11 38  1  0
 13 39  1  0
 14 40  1  0
 15 41  1  0
 16 42  1  0
 20 43  1  0
 25 44  1  0
 27 45  1  0
 29 46  1  0
M  ISO  8  31  13  32  13  33  13  34  13  36  14  37  14  38  14  39  14
M  ISO  7  40  14  41  14  42  14  43  14  44  14  45  14  46  14
M  END
>  <minimizedAffinity>  (1) 
-6.00503063

>  <minimizedRMSD>  (1) 
3.54363561

$$$$
