
     RDKit          3D

 33 35  0  0  1  0  0  0  0  0999 V2000
   38.3820   31.2560   39.7360 O   0  0  0  0  0  0  0  0  0  0  0  0
   38.8330   31.1340   41.1200 C   0  0  1  0  0  0  0  0  0  0  0  0
   40.3710   30.9290   41.0450 C   0  0  0  0  0  0  0  0  0  0  0  0
   39.6750   32.1950   41.6340 C   0  0  1  0  0  0  0  0  0  0  0  0
   39.9730   33.3500   40.8290 N   0  0  0  0  0  0  0  0  0  0  0  0
   39.1860   34.5120   40.5710 C   0  0  0  0  0  0  0  0  0  0  0  0
   38.1110   34.7790   39.9960 O   0  0  0  0  0  0  0  0  0  0  0  0
   39.6960   35.7510   41.0750 O   0  0  0  0  0  0  0  0  0  0  0  0
   40.2720   36.7050   40.2050 C   0  0  0  0  0  0  0  0  0  0  0  0
   39.3000   37.6650   39.8920 F   0  0  0  0  0  0  0  0  0  0  0  0
   41.2120   37.3880   40.9520 F   0  0  0  0  0  0  0  0  0  0  0  0
   40.8510   36.1810   39.0920 F   0  0  0  0  0  0  0  0  0  0  0  0
   36.8330   28.3280   38.4070 C   0  0  0  0  0  0  0  0  0  0  0  0
   36.6210   28.7690   37.0900 C   0  0  0  0  0  0  0  0  0  0  0  0
   37.3350   30.4570   37.2590 S   0  0  0  0  0  0  0  0  0  0  0  0
   37.7840   30.2100   39.1220 C   0  0  0  0  0  0  0  0  0  0  0  0
   37.3990   29.2040   39.1620 N   0  0  0  0  0  0  0  0  0  0  0  0
   36.3130   26.6350   38.8580 S   0  0  0  0  0  0  0  0  0  0  0  0
   38.3250   25.0730   40.0900 C   0  0  0  0  0  0  0  0  0  0  0  0
   37.2870   26.0500   40.2020 C   0  0  0  0  0  0  0  0  0  0  0  0
   37.0600   26.5430   41.4560 C   0  0  0  0  0  0  0  0  0  0  0  0
   37.8140   26.0920   42.5210 N   0  0  0  0  0  0  0  0  0  0  0  0
   38.7930   25.1570   42.3600 C   0  0  0  0  0  0  0  0  0  0  0  0
   39.0370   24.6580   41.1470 N   0  0  0  0  0  0  0  0  0  0  0  0
   37.9498   30.6556   41.5684 H   0  0  0  0  0  0  0  0  0  0  0  0
   40.8746   30.2065   41.7040 H   0  0  0  0  0  0  0  0  0  0  0  0
   41.1154   30.7109   40.2651 H   0  0  0  0  0  0  0  0  0  0  0  0
   39.6219   32.7418   42.5870 H   0  0  0  0  0  0  0  0  0  0  0  0
   40.8945   33.3358   40.3691 H   0  0  0  0  0  0  0  0  0  0  0  0
   36.1682   28.2621   36.2251 H   0  0  0  0  0  0  0  0  0  0  0  0
   38.5472   24.6466   39.1007 H   0  0  0  0  0  0  0  0  0  0  0  0
   36.2770   27.2987   41.6169 H   0  0  0  0  0  0  0  0  0  0  0  0
   39.3790   24.8156   43.2261 H   0  0  0  0  0  0  0  0  0  0  0  0
  1  2  1  0
  2  4  1  0
  3  2  1  0
  3  4  1  0
  5  4  1  0
  6  5  1  0
  6  8  1  0
  7  6  2  0
  9 11  1  0
  9  8  1  0
 10  9  1  0
 12  9  1  0
 13 18  1  0
 13 17  1  0
 14 15  1  0
 14 13  2  0
 15 16  1  0
 16 17  2  0
 16  1  1  0
 18 20  1  0
 19 20  2  0
 19 24  1  0
 20 21  1  0
 21 22  2  0
 23 22  1  0
 24 23  2  0
  2 25  1  1
  3 26  1  0
  3 27  1  0
  4 28  1  1
  5 29  1  0
 14 30  1  0
 19 31  1  0
 21 32  1  0
 23 33  1  0
M  ISO  8  25  13  26  13  27  13  28  13  30  14  31  14  32  14  33  14
M  END
>  <minimizedAffinity>  (1) 
-4.85582018

>  <minimizedRMSD>  (1) 
2.17234421

$$$$
