
     RDKit          3D

 37 40  0  0  1  0  0  0  0  0999 V2000
   36.8090   29.5680   38.7520 C   0  0  0  0  0  0  0  0  0  0  0  0
   36.5090   30.0290   37.4640 C   0  0  0  0  0  0  0  0  0  0  0  0
   37.7620   31.3710   37.3640 S   0  0  0  0  0  0  0  0  0  0  0  0
   38.4520   31.0210   39.1350 C   0  0  0  0  0  0  0  0  0  0  0  0
   37.7640   30.2170   39.3040 N   0  0  0  0  0  0  0  0  0  0  0  0
   35.8480   28.1670   39.4240 S   0  0  0  0  0  0  0  0  0  0  0  0
   37.6320   26.2660   40.5250 C   0  0  0  0  0  0  0  0  0  0  0  0
   36.7580   27.3860   40.7160 C   0  0  0  0  0  0  0  0  0  0  0  0
   36.6440   27.8540   41.9930 C   0  0  0  0  0  0  0  0  0  0  0  0
   37.3520   27.2480   43.0120 N   0  0  0  0  0  0  0  0  0  0  0  0
   38.1730   26.1830   42.7800 C   0  0  0  0  0  0  0  0  0  0  0  0
   38.3020   25.7080   41.5420 N   0  0  0  0  0  0  0  0  0  0  0  0
   39.4700   31.8080   39.5510 O   0  0  0  0  0  0  0  0  0  0  0  0
   40.8310   31.5680   39.0780 C   0  0  1  0  0  0  0  0  0  0  0  0
   41.2350   32.8430   38.2880 C   0  0  0  0  0  0  0  0  0  0  0  0
   41.8770   32.4000   39.6390 C   0  0  1  0  0  0  0  0  0  0  0  0
   41.5810   33.3600   40.6690 N   0  0  0  0  0  0  0  0  0  0  0  0
   42.2450   34.5720   41.0180 C   0  0  0  0  0  0  0  0  0  0  0  0
   43.3630   34.8970   41.4710 O   0  0  0  0  0  0  0  0  0  0  0  0
   41.5240   35.7820   40.8390 O   0  0  0  0  0  0  0  0  0  0  0  0
   40.5840   36.0150   39.8400 C   0  0  0  0  0  0  0  0  0  0  0  0
   39.1290   35.8670   40.0840 C   0  0  0  0  0  0  0  0  0  0  0  0
   39.6710   37.2300   40.1130 C   0  0  0  0  0  0  0  0  0  0  0  0
   35.7559   29.6921   36.7364 H   0  0  0  0  0  0  0  0  0  0  0  0
   37.7562   25.8524   39.5133 H   0  0  0  0  0  0  0  0  0  0  0  0
   35.9900   28.7115   42.2099 H   0  0  0  0  0  0  0  0  0  0  0  0
   38.7253   25.7192   43.6106 H   0  0  0  0  0  0  0  0  0  0  0  0
   40.7961   30.4777   38.9365 H   0  0  0  0  0  0  0  0  0  0  0  0
   41.7980   32.7658   37.3461 H   0  0  0  0  0  0  0  0  0  0  0  0
   40.7302   33.7372   37.8935 H   0  0  0  0  0  0  0  0  0  0  0  0
   42.8647   32.1217   40.0353 H   0  0  0  0  0  0  0  0  0  0  0  0
   40.7580   33.1356   41.2462 H   0  0  0  0  0  0  0  0  0  0  0  0
   41.2497   35.6294   39.0538 H   0  0  0  0  0  0  0  0  0  0  0  0
   38.4697   35.5643   39.2571 H   0  0  0  0  0  0  0  0  0  0  0  0
   38.5350   35.2712   40.7927 H   0  0  0  0  0  0  0  0  0  0  0  0
   39.7460   37.7751   41.0655 H   0  0  0  0  0  0  0  0  0  0  0  0
   39.4466   38.1742   39.5951 H   0  0  0  0  0  0  0  0  0  0  0  0
  1  5  1  0
  1  6  1  0
  2  1  2  0
  3  2  1  0
  3  4  1  0
  4  5  2  0
  4 13  1  0
  6  8  1  0
  7  8  2  0
  7 12  1  0
  8  9  1  0
  9 10  2  0
 11 10  1  0
 12 11  2  0
 14 13  1  0
 14 16  1  0
 15 14  1  0
 15 16  1  0
 16 17  1  0
 17 18  1  0
 18 19  2  0
 20 18  1  0
 21 22  1  0
 21 23  1  0
 21 20  1  0
 22 23  1  0
  2 24  1  0
  7 25  1  0
  9 26  1  0
 11 27  1  0
 14 28  1  6
 15 29  1  0
 15 30  1  0
 16 31  1  6
 17 32  1  0
 21 33  1  0
 22 34  1  0
 22 35  1  0
 23 36  1  0
 23 37  1  0
M  ISO  8  24  14  25  14  26  14  27  14  28  13  29  13  30  13  31  13
M  ISO  5  33  13  34  13  35  13  36  13  37  13
M  END
>  <minimizedAffinity>  (1) 
-4.5994606

>  <minimizedRMSD>  (1) 
2.38502836

$$$$
