
     RDKit          3D

 37 39  0  0  0  0  0  0  0  0999 V2000
   37.2604   31.9567   38.8278 O   0  0  0  0  0  0  0  0  0  0  0  0
   37.2451   32.4910   40.2073 C   0  0  1  0  0  0  0  0  0  0  0  0
   38.5815   31.9816   40.8281 C   0  0  0  0  0  0  0  0  0  0  0  0
   38.2348   33.4795   40.5149 C   0  0  1  0  0  0  0  0  0  0  0  0
   39.1197   33.9892   39.4760 N   0  0  0  0  0  0  0  0  0  0  0  0
   40.2866   34.8040   39.5953 C   0  0  0  0  0  0  0  0  0  0  0  0
   40.5699   35.9532   39.9732 O   0  0  0  0  0  0  0  0  0  0  0  0
   41.4620   34.1623   39.1792 O   0  0  0  0  0  0  0  0  0  0  0  0
   42.0445   34.0617   37.9924 C   0  0  0  0  0  0  0  0  0  0  0  0
   41.3707   33.1527   37.1439 N   0  0  0  0  0  0  0  0  0  0  0  0
   43.0639   34.7066   37.6787 O   0  0  0  0  0  0  0  0  0  0  0  0
   36.6952   28.4555   38.5782 C   0  0  0  0  0  0  0  0  0  0  0  0
   36.7275   28.3249   37.1753 C   0  0  0  0  0  0  0  0  0  0  0  0
   37.0312   30.0911   36.7563 S   0  0  0  0  0  0  0  0  0  0  0  0
   37.0516   30.6488   38.6049 C   0  0  0  0  0  0  0  0  0  0  0  0
   36.8756   29.6588   38.9767 N   0  0  0  0  0  0  0  0  0  0  0  0
   36.4350   26.9578   39.5811 S   0  0  0  0  0  0  0  0  0  0  0  0
   38.3982   26.5813   41.6068 C   0  0  0  0  0  0  0  0  0  0  0  0
   37.1704   27.1716   41.1777 C   0  0  0  0  0  0  0  0  0  0  0  0
   36.5245   27.9573   42.0943 C   0  0  0  0  0  0  0  0  0  0  0  0
   37.0662   28.1399   43.3490 N   0  0  0  0  0  0  0  0  0  0  0  0
   38.2448   27.5532   43.7129 C   0  0  0  0  0  0  0  0  0  0  0  0
   38.8907   26.7852   42.8389 N   0  0  0  0  0  0  0  0  0  0  0  0
   36.3735   32.1479   40.8027 H   0  0  0  0  0  0  0  0  0  0  0  0
   39.3285   31.4826   40.2430 H   0  0  0  0  0  0  0  0  0  0  0  0
   38.5039   31.7119   41.8952 H   0  0  0  0  0  0  0  0  0  0  0  0
   38.2233   34.0917   41.4403 H   0  0  0  0  0  0  0  0  0  0  0  0
   38.6490   33.6213   38.6166 H   0  0  0  0  0  0  0  0  0  0  0  0
   41.2571   33.1868   36.0859 H   0  0  0  0  0  0  0  0  0  0  0  0
   40.9502   32.6437   36.3298 H   0  0  0  0  0  0  0  0  0  0  0  0
   36.6042   27.4226   36.5548 H   0  0  0  0  0  0  0  0  0  0  0  0
   38.8600   25.9735   40.8403 H   0  0  0  0  0  0  0  0  0  0  0  0
   35.5819   28.4799   41.9317 H   0  0  0  0  0  0  0  0  0  0  0  0
   38.7522   27.8074   45.0881 C   0  0  0  0  0  0  0  0  0  0  0  0
   37.9491   27.6200   45.8393 H   0  0  0  0  0  0  0  0  0  0  0  0
   39.0751   28.8743   45.1456 H   0  0  0  0  0  0  0  0  0  0  0  0
   39.6039   27.1336   45.2828 H   0  0  0  0  0  0  0  0  0  0  0  0
  1  2  1  0
  2  4  1  0
  2  3  1  0
  4  3  1  0
  5  6  1  0
  5  4  1  0
  6  7  2  0
  8  6  1  0
  9  8  1  0
 10  9  1  0
 11  9  2  0
 12 16  1  0
 12 17  1  0
 13 12  2  0
 14 13  1  0
 14 15  1  0
 15  1  1  0
 15 16  2  0
 17 19  1  0
 18 23  2  0
 19 18  1  0
 19 20  2  0
 20 21  1  0
 21 22  2  0
 23 22  1  0
  2 24  1  1
  3 25  1  0
  3 26  1  0
  4 27  1  1
  5 28  1  0
 10 29  1  0
 10 30  1  0
 13 31  1  0
 18 32  1  0
 20 33  1  0
 34 35  1  0
 34 36  1  0
 34 37  1  0
 22 34  1  0
M  END
>  <DihAtoms>  (1) 
20,21,33,34

>  <DihDeg>  (1) 
50.03864544426755

$$$$
