
     RDKit          3D

 35 38  0  0  1  0  0  0  0  0999 V2000
   38.2690   29.4720   42.8490 C   0  0  0  0  0  0  0  0  0  0  0  0
   37.5920   28.4000   43.5090 C   0  0  0  0  0  0  0  0  0  0  0  0
   36.5790   27.7330   42.8010 C   0  0  0  0  0  0  0  0  0  0  0  0
   36.3010   28.1420   41.5330 N   0  0  0  0  0  0  0  0  0  0  0  0
   36.9700   29.1610   40.9530 C   0  0  0  0  0  0  0  0  0  0  0  0
   37.9490   29.8270   41.5990 N   0  0  0  0  0  0  0  0  0  0  0  0
   36.6080   29.5080   39.6390 N   0  0  0  0  0  0  0  0  0  0  0  0
   36.0460   28.5770   38.6690 C   0  0  0  0  0  0  0  0  0  0  0  0
   36.5240   29.1180   37.3460 C   0  0  0  0  0  0  0  0  0  0  0  0
   37.1210   30.4740   37.6150 C   0  0  0  0  0  0  0  0  0  0  0  0
   36.7230   30.8050   39.0270 C   0  0  2  0  0  0  0  0  0  0  0  0
   37.7150   31.6080   39.6810 N   0  0  0  0  0  0  0  0  0  0  0  0
   37.5100   32.6090   40.5240 C   0  0  0  0  0  0  0  0  0  0  0  0
   38.7020   33.1040   40.9180 N   0  0  0  0  0  0  0  0  0  0  0  0
   39.6490   32.3790   40.2910 C   0  0  0  0  0  0  0  0  0  0  0  0
   41.0290   32.5130   40.3790 C   0  0  0  0  0  0  0  0  0  0  0  0
   41.8140   31.6660   39.6540 N   0  0  0  0  0  0  0  0  0  0  0  0
   41.1820   30.7330   38.8840 C   0  0  0  0  0  0  0  0  0  0  0  0
   39.8550   30.6060   38.8020 N   0  0  0  0  0  0  0  0  0  0  0  0
   39.0490   31.4240   39.5030 C   0  0  0  0  0  0  0  0  0  0  0  0
   41.5950   33.5340   41.2240 N   0  0  0  0  0  0  0  0  0  0  0  0
   39.0667   30.0145   43.3776 H   0  0  0  0  0  0  0  0  0  0  0  0
   37.8554   28.1075   44.5362 H   0  0  0  0  0  0  0  0  0  0  0  0
   36.0243   26.9011   43.2596 H   0  0  0  0  0  0  0  0  0  0  0  0
   36.4243   27.5578   38.8370 H   0  0  0  0  0  0  0  0  0  0  0  0
   34.9503   28.5023   38.7312 H   0  0  0  0  0  0  0  0  0  0  0  0
   35.6791   29.2090   36.6475 H   0  0  0  0  0  0  0  0  0  0  0  0
   37.2663   28.4452   36.8918 H   0  0  0  0  0  0  0  0  0  0  0  0
   38.2164   30.4391   37.5208 H   0  0  0  0  0  0  0  0  0  0  0  0
   36.7658   31.2298   36.8990 H   0  0  0  0  0  0  0  0  0  0  0  0
   35.7983   31.3976   39.0876 H   0  0  0  0  0  0  0  0  0  0  0  0
   36.5263   32.9775   40.8504 H   0  0  0  0  0  0  0  0  0  0  0  0
   41.8039   30.0431   38.2946 H   0  0  0  0  0  0  0  0  0  0  0  0
   42.6175   33.6373   41.2926 H   0  0  0  0  0  0  0  0  0  0  0  0
   40.9770   34.1604   41.7594 H   0  0  0  0  0  0  0  0  0  0  0  0
  1  2  2  0
  3  2  1  0
  4  3  2  0
  5  4  1  0
  5  6  2  0
  6  1  1  0
  7  5  1  0
  8  7  1  0
  9 10  1  0
  9  8  1  0
 10 11  1  0
 11  7  1  0
 11 12  1  0
 12 13  1  0
 13 14  2  0
 15 16  2  0
 15 14  1  0
 16 21  1  0
 17 16  1  0
 18 17  2  0
 19 18  1  0
 19 20  2  0
 20 12  1  0
 20 15  1  0
  1 22  1  0
  2 23  1  0
  3 24  1  0
  8 25  1  0
  8 26  1  0
  9 27  1  0
  9 28  1  0
 10 29  1  0
 10 30  1  0
 11 31  1  6
 13 32  1  0
 18 33  1  0
 21 34  1  0
 21 35  1  0
M  ISO  8  22  14  23  14  24  14  25  13  26  13  27  13  28  13  29  13
M  ISO  4  30  13  31  13  32  14  33  14
M  END
>  <minimizedAffinity>  (1) 
-5.49881363

>  <minimizedRMSD>  (1) 
1.40126038

$$$$
