
     RDKit          3D

 30 32  0  0  1  0  0  0  0  0999 V2000
   38.4780   29.2320   42.9070 C   0  0  0  0  0  0  0  0  0  0  0  0
   37.8270   28.2660   43.7040 C   0  0  0  0  0  0  0  0  0  0  0  0
   36.6710   27.6710   43.2030 C   0  0  0  0  0  0  0  0  0  0  0  0
   36.2300   28.0580   41.9620 N   0  0  0  0  0  0  0  0  0  0  0  0
   36.8760   28.9830   41.2260 C   0  0  0  0  0  0  0  0  0  0  0  0
   37.9920   29.5530   41.7160 N   0  0  0  0  0  0  0  0  0  0  0  0
   36.3650   29.3230   39.9710 N   0  0  0  0  0  0  0  0  0  0  0  0
   35.6140   28.3830   39.1360 C   0  0  0  0  0  0  0  0  0  0  0  0
   35.9000   28.8630   37.7440 C   0  0  0  0  0  0  0  0  0  0  0  0
   36.6350   30.1580   37.8630 C   0  0  0  0  0  0  0  0  0  0  0  0
   36.4760   30.5930   39.3120 C   0  0  2  0  0  0  0  0  0  0  0  0
   37.7290   31.3330   39.6340 C   0  0  0  0  0  0  0  0  0  0  0  0
   37.6450   32.5050   40.3940 C   0  0  0  0  0  0  0  0  0  0  0  0
   38.6930   33.3180   40.7730 C   0  0  0  0  0  0  0  0  0  0  0  0
   39.9080   32.9020   40.3440 N   0  0  0  0  0  0  0  0  0  0  0  0
   40.0130   31.7620   39.6000 C   0  0  0  0  0  0  0  0  0  0  0  0
   38.9700   30.9940   39.2490 N   0  0  0  0  0  0  0  0  0  0  0  0
   39.3922   29.7204   43.2755 H   0  0  0  0  0  0  0  0  0  0  0  0
   38.2213   27.9905   44.6932 H   0  0  0  0  0  0  0  0  0  0  0  0
   36.1272   26.9127   43.7854 H   0  0  0  0  0  0  0  0  0  0  0  0
   35.9723   27.3530   39.2802 H   0  0  0  0  0  0  0  0  0  0  0  0
   34.5401   28.3564   39.3726 H   0  0  0  0  0  0  0  0  0  0  0  0
   34.9578   29.0138   37.1968 H   0  0  0  0  0  0  0  0  0  0  0  0
   36.4999   28.1239   37.1927 H   0  0  0  0  0  0  0  0  0  0  0  0
   37.6986   30.0186   37.6194 H   0  0  0  0  0  0  0  0  0  0  0  0
   36.2398   30.9133   37.1678 H   0  0  0  0  0  0  0  0  0  0  0  0
   35.6338   31.2474   39.5811 H   0  0  0  0  0  0  0  0  0  0  0  0
   36.6403   32.8091   40.7229 H   0  0  0  0  0  0  0  0  0  0  0  0
   38.5532   34.2287   41.3739 H   0  0  0  0  0  0  0  0  0  0  0  0
   41.0152   31.4538   39.2675 H   0  0  0  0  0  0  0  0  0  0  0  0
  1  2  2  0
  3  2  1  0
  4  3  2  0
  5  6  2  0
  5  4  1  0
  6  1  1  0
  7  5  1  0
  8  7  1  0
  9 10  1  0
  9  8  1  0
 10 11  1  0
 11 12  1  0
 11  7  1  0
 12 13  2  0
 13 14  1  0
 15 14  2  0
 16 15  1  0
 17 16  2  0
 17 12  1  0
  1 18  1  0
  2 19  1  0
  3 20  1  0
  8 21  1  0
  8 22  1  0
  9 23  1  0
  9 24  1  0
 10 25  1  0
 10 26  1  0
 11 27  1  6
 13 28  1  0
 14 29  1  0
 16 30  1  0
M  ISO  8  18  14  19  14  20  14  21  13  22  13  23  13  24  13  25  13
M  ISO  5  26  13  27  13  28  14  29  14  30  14
M  END
>  <minimizedAffinity>  (1) 
-4.82032871

>  <minimizedRMSD>  (1) 
1.4700793

$$$$
