
     RDKit          3D

 29 31  0  0  1  0  0  0  0  0999 V2000
   39.5740   27.8830   42.8790 C   0  0  0  0  0  0  0  0  0  0  0  0
   38.5400   27.3130   43.6580 C   0  0  0  0  0  0  0  0  0  0  0  0
   37.2730   27.9390   43.6400 C   0  0  0  0  0  0  0  0  0  0  0  0
   37.1240   29.0620   42.8690 N   0  0  0  0  0  0  0  0  0  0  0  0
   38.1520   29.5590   42.1480 C   0  0  0  0  0  0  0  0  0  0  0  0
   39.3670   28.9800   42.1480 N   0  0  0  0  0  0  0  0  0  0  0  0
   37.9020   30.7200   41.3950 N   0  0  0  0  0  0  0  0  0  0  0  0
   36.6210   31.0440   40.7730 C   0  0  0  0  0  0  0  0  0  0  0  0
   37.0010   31.8060   39.5370 C   0  0  0  0  0  0  0  0  0  0  0  0
   38.4940   32.0800   39.6280 C   0  0  0  0  0  0  0  0  0  0  0  0
   38.7960   31.7830   41.0900 C   0  0  2  0  0  0  0  0  0  0  0  0
   40.2030   31.5970   41.3980 C   0  0  0  0  0  0  0  0  0  0  0  0
   41.3510   31.3990   40.6730 C   0  0  0  0  0  0  0  0  0  0  0  0
   42.4320   31.2990   41.4740 N   0  0  0  0  0  0  0  0  0  0  0  0
   41.9730   31.4370   42.7520 C   0  0  0  0  0  0  0  0  0  0  0  0
   40.6420   31.6130   42.6870 N   0  0  0  0  0  0  0  0  0  0  0  0
   40.5684   27.4127   42.8757 H   0  0  0  0  0  0  0  0  0  0  0  0
   38.7168   26.4094   44.2599 H   0  0  0  0  0  0  0  0  0  0  0  0
   36.4333   27.5375   44.2262 H   0  0  0  0  0  0  0  0  0  0  0  0
   36.0693   30.1283   40.5139 H   0  0  0  0  0  0  0  0  0  0  0  0
   35.9600   31.6186   41.4386 H   0  0  0  0  0  0  0  0  0  0  0  0
   36.4447   32.7538   39.4910 H   0  0  0  0  0  0  0  0  0  0  0  0
   36.7610   31.2307   38.6307 H   0  0  0  0  0  0  0  0  0  0  0  0
   39.0616   31.4137   38.9617 H   0  0  0  0  0  0  0  0  0  0  0  0
   38.7718   33.0993   39.3215 H   0  0  0  0  0  0  0  0  0  0  0  0
   38.6181   32.6370   41.7601 H   0  0  0  0  0  0  0  0  0  0  0  0
   41.3856   31.3304   39.5757 H   0  0  0  0  0  0  0  0  0  0  0  0
   42.5814   31.4092   43.6680 H   0  0  0  0  0  0  0  0  0  0  0  0
   40.0324   31.7433   43.5069 H   0  0  0  0  0  0  0  0  0  0  0  0
  1  2  2  0
  3  2  1  0
  4  3  2  0
  5  4  1  0
  6  5  2  0
  6  1  1  0
  7  5  1  0
  8  7  1  0
  9 10  1  0
  9  8  1  0
 10 11  1  0
 11  7  1  0
 11 12  1  0
 12 16  1  0
 13 12  2  0
 13 14  1  0
 14 15  2  0
 16 15  1  0
  1 17  1  0
  2 18  1  0
  3 19  1  0
  8 20  1  0
  8 21  1  0
  9 22  1  0
  9 23  1  0
 10 24  1  0
 10 25  1  0
 11 26  1  1
 13 27  1  0
 15 28  1  0
 16 29  1  0
M  ISO  8  17  14  18  14  19  14  20  13  21  13  22  13  23  13  24  13
M  ISO  5  25  13  26  13  27  14  28  14  29   9
M  END
>  <minimizedAffinity>  (1) 
-4.58514261

>  <minimizedRMSD>  (1) 
2.6359334

$$$$
