
     RDKit          3D

 29 31  0  0  1  0  0  0  0  0999 V2000
   38.9670   30.3830   42.4660 C   0  0  0  0  0  0  0  0  0  0  0  0
   38.3310   29.3200   43.1430 C   0  0  0  0  0  0  0  0  0  0  0  0
   37.2860   28.6830   42.4780 C   0  0  0  0  0  0  0  0  0  0  0  0
   36.9150   29.0960   41.2150 N   0  0  0  0  0  0  0  0  0  0  0  0
   37.5620   30.1210   40.6170 C   0  0  0  0  0  0  0  0  0  0  0  0
   38.5730   30.7440   41.2490 N   0  0  0  0  0  0  0  0  0  0  0  0
   37.1440   30.4950   39.3400 N   0  0  0  0  0  0  0  0  0  0  0  0
   36.5640   29.5810   38.3640 C   0  0  0  0  0  0  0  0  0  0  0  0
   36.9810   30.1870   37.0500 C   0  0  0  0  0  0  0  0  0  0  0  0
   37.5290   31.5490   37.3370 C   0  0  0  0  0  0  0  0  0  0  0  0
   37.2130   31.8190   38.7870 C   0  0  2  0  0  0  0  0  0  0  0  0
   38.3170   32.6030   39.3000 N   0  0  0  0  0  0  0  0  0  0  0  0
   39.6020   32.4220   38.9840 N   0  0  0  0  0  0  0  0  0  0  0  0
   40.2860   33.3390   39.6620 C   0  0  0  0  0  0  0  0  0  0  0  0
   39.4080   34.1120   40.4200 C   0  0  0  0  0  0  0  0  0  0  0  0
   38.1530   33.6170   40.1680 C   0  0  0  0  0  0  0  0  0  0  0  0
   39.7971   30.9180   42.9506 H   0  0  0  0  0  0  0  0  0  0  0  0
   38.6463   29.0089   44.1499 H   0  0  0  0  0  0  0  0  0  0  0  0
   36.7555   27.8490   42.9608 H   0  0  0  0  0  0  0  0  0  0  0  0
   36.9727   28.5663   38.4798 H   0  0  0  0  0  0  0  0  0  0  0  0
   35.4744   29.4695   38.4657 H   0  0  0  0  0  0  0  0  0  0  0  0
   36.1122   30.2652   36.3799 H   0  0  0  0  0  0  0  0  0  0  0  0
   37.7389   29.5602   36.5574 H   0  0  0  0  0  0  0  0  0  0  0  0
   38.6163   31.5676   37.1715 H   0  0  0  0  0  0  0  0  0  0  0  0
   37.0890   32.3110   36.6769 H   0  0  0  0  0  0  0  0  0  0  0  0
   36.2912   32.3769   39.0085 H   0  0  0  0  0  0  0  0  0  0  0  0
   41.3779   33.4678   39.6296 H   0  0  0  0  0  0  0  0  0  0  0  0
   39.6681   34.9487   41.0850 H   0  0  0  0  0  0  0  0  0  0  0  0
   37.2037   33.9773   40.5910 H   0  0  0  0  0  0  0  0  0  0  0  0
  1  2  2  0
  3  2  1  0
  4  3  2  0
  5  4  1  0
  5  6  2  0
  6  1  1  0
  7  5  1  0
  8  7  1  0
  9 10  1  0
  9  8  1  0
 10 11  1  0
 11 12  1  0
 11  7  1  0
 12 16  1  0
 13 12  1  0
 13 14  2  0
 14 15  1  0
 16 15  2  0
  1 17  1  0
  2 18  1  0
  3 19  1  0
  8 20  1  0
  8 21  1  0
  9 22  1  0
  9 23  1  0
 10 24  1  0
 10 25  1  0
 11 26  1  6
 14 27  1  0
 15 28  1  0
 16 29  1  0
M  ISO  8  17  14  18  14  19  14  20  13  21  13  22  13  23  13  24  13
M  ISO  5  25  13  26  13  27  14  28  14  29  14
M  END
>  <minimizedAffinity>  (1) 
-4.50033998

>  <minimizedRMSD>  (1) 
1.7090981

$$$$
