
     RDKit          3D

 29 31  0  0  1  0  0  0  0  0999 V2000
   39.0430   27.9930   42.6990 C   0  0  0  0  0  0  0  0  0  0  0  0
   38.1080   27.4250   43.5950 C   0  0  0  0  0  0  0  0  0  0  0  0
   36.7500   27.5800   43.3150 C   0  0  0  0  0  0  0  0  0  0  0  0
   36.3820   28.2760   42.1820 N   0  0  0  0  0  0  0  0  0  0  0  0
   37.3190   28.7960   41.3650 C   0  0  0  0  0  0  0  0  0  0  0  0
   38.6340   28.6560   41.6200 N   0  0  0  0  0  0  0  0  0  0  0  0
   36.8740   29.4940   40.2270 N   0  0  0  0  0  0  0  0  0  0  0  0
   35.6420   29.2040   39.5180 C   0  0  0  0  0  0  0  0  0  0  0  0
   35.9150   29.6210   38.1080 C   0  0  0  0  0  0  0  0  0  0  0  0
   37.2630   30.3100   38.1120 C   0  0  0  0  0  0  0  0  0  0  0  0
   37.5310   30.5920   39.5670 C   0  0  1  0  0  0  0  0  0  0  0  0
   37.0140   31.9090   40.0490 C   0  0  0  0  0  0  0  0  0  0  0  0
   37.2360   33.1870   39.3530 C   0  0  0  0  0  0  0  0  0  0  0  0
   38.1190   32.8610   40.5100 C   0  0  0  0  0  0  0  0  0  0  0  0
   40.1199   27.8857   42.8960 H   0  0  0  0  0  0  0  0  0  0  0  0
   38.4421   26.8762   44.4879 H   0  0  0  0  0  0  0  0  0  0  0  0
   35.9875   27.1555   43.9846 H   0  0  0  0  0  0  0  0  0  0  0  0
   35.4082   28.1303   39.5677 H   0  0  0  0  0  0  0  0  0  0  0  0
   34.7772   29.7291   39.9497 H   0  0  0  0  0  0  0  0  0  0  0  0
   35.1355   30.3148   37.7601 H   0  0  0  0  0  0  0  0  0  0  0  0
   35.9158   28.7535   37.4317 H   0  0  0  0  0  0  0  0  0  0  0  0
   38.0385   29.6519   37.6931 H   0  0  0  0  0  0  0  0  0  0  0  0
   37.2709   31.2227   37.4981 H   0  0  0  0  0  0  0  0  0  0  0  0
   38.6093   30.6676   39.7707 H   0  0  0  0  0  0  0  0  0  0  0  0
   36.0890   31.4466   40.4238 H   0  0  0  0  0  0  0  0  0  0  0  0
   37.6516   33.1867   38.3345 H   0  0  0  0  0  0  0  0  0  0  0  0
   36.5919   34.0418   39.0993 H   0  0  0  0  0  0  0  0  0  0  0  0
   38.0178   33.4110   41.4572 H   0  0  0  0  0  0  0  0  0  0  0  0
   39.2038   32.7868   40.6766 H   0  0  0  0  0  0  0  0  0  0  0  0
  1  2  2  0
  3  2  1  0
  4  3  2  0
  5  6  2  0
  5  4  1  0
  6  1  1  0
  7  5  1  0
  8  7  1  0
  9 10  1  0
  9  8  1  0
 10 11  1  0
 11 12  1  0
 11  7  1  0
 12 14  1  0
 13 12  1  0
 13 14  1  0
  1 15  1  0
  2 16  1  0
  3 17  1  0
  8 18  1  0
  8 19  1  0
  9 20  1  0
  9 21  1  0
 10 22  1  0
 10 23  1  0
 11 24  1  6
 12 25  1  0
 13 26  1  0
 13 27  1  0
 14 28  1  0
 14 29  1  0
M  ISO  8  15  14  16  14  17  14  18  13  19  13  20  13  21  13  22  13
M  ISO  7  23  13  24  13  25  13  26  13  27  13  28  13  29  13
M  END
>  <minimizedAffinity>  (1) 
-4.40885115

>  <minimizedRMSD>  (1) 
1.66346991

$$$$
