
     RDKit          3D

 29 31  0  0  1  0  0  0  0  0999 V2000
   38.3080   29.2000   43.1920 C   0  0  0  0  0  0  0  0  0  0  0  0
   37.4040   28.2780   43.8090 C   0  0  0  0  0  0  0  0  0  0  0  0
   36.5870   27.4910   42.9780 C   0  0  0  0  0  0  0  0  0  0  0  0
   36.6920   27.6430   41.6170 N   0  0  0  0  0  0  0  0  0  0  0  0
   37.5630   28.5290   41.0800 C   0  0  0  0  0  0  0  0  0  0  0  0
   38.3500   29.2860   41.8650 N   0  0  0  0  0  0  0  0  0  0  0  0
   37.6100   28.6390   39.6940 N   0  0  0  0  0  0  0  0  0  0  0  0
   37.3500   27.5350   38.7710 C   0  0  0  0  0  0  0  0  0  0  0  0
   38.2250   27.8220   37.5910 C   0  0  0  0  0  0  0  0  0  0  0  0
   38.7840   29.2210   37.7890 C   0  0  0  0  0  0  0  0  0  0  0  0
   37.8990   29.7810   38.8980 C   0  0  2  0  0  0  0  0  0  0  0  0
   38.5170   30.9260   39.5740 C   0  0  0  0  0  0  0  0  0  0  0  0
   39.8120   31.3310   39.9010 C   0  0  0  0  0  0  0  0  0  0  0  0
   39.9400   32.5300   40.5380 C   0  0  0  0  0  0  0  0  0  0  0  0
   38.8570   33.3120   40.8500 C   0  0  0  0  0  0  0  0  0  0  0  0
   37.4390   32.3120   40.2020 S   0  0  0  0  0  0  0  0  0  0  0  0
   38.9627   29.8323   43.8097 H   0  0  0  0  0  0  0  0  0  0  0  0
   37.3497   28.1874   44.9039 H   0  0  0  0  0  0  0  0  0  0  0  0
   35.8784   26.7685   43.4091 H   0  0  0  0  0  0  0  0  0  0  0  0
   37.6191   26.5723   39.2301 H   0  0  0  0  0  0  0  0  0  0  0  0
   36.2875   27.4595   38.4965 H   0  0  0  0  0  0  0  0  0  0  0  0
   37.6360   27.7774   36.6630 H   0  0  0  0  0  0  0  0  0  0  0  0
   39.0343   27.0813   37.5102 H   0  0  0  0  0  0  0  0  0  0  0  0
   39.8380   29.1865   38.1018 H   0  0  0  0  0  0  0  0  0  0  0  0
   38.7735   29.8293   36.8726 H   0  0  0  0  0  0  0  0  0  0  0  0
   36.9604   30.2389   38.5525 H   0  0  0  0  0  0  0  0  0  0  0  0
   40.6880   30.7123   39.6565 H   0  0  0  0  0  0  0  0  0  0  0  0
   40.9458   32.8820   40.8109 H   0  0  0  0  0  0  0  0  0  0  0  0
   38.8360   34.2877   41.3575 H   0  0  0  0  0  0  0  0  0  0  0  0
  1  2  2  0
  3  2  1  0
  4  3  2  0
  5  4  1  0
  5  6  2  0
  6  1  1  0
  7  5  1  0
  8  7  1  0
  9 10  1  0
  9  8  1  0
 10 11  1  0
 11 12  1  0
 11  7  1  0
 12 13  2  0
 12 16  1  0
 13 14  1  0
 14 15  2  0
 16 15  1  0
  1 17  1  0
  2 18  1  0
  3 19  1  0
  8 20  1  0
  8 21  1  0
  9 22  1  0
  9 23  1  0
 10 24  1  0
 10 25  1  0
 11 26  1  6
 13 27  1  0
 14 28  1  0
 15 29  1  0
M  ISO  8  17  14  18  14  19  14  20  13  21  13  22  13  23  13  24  13
M  ISO  5  25  13  26  13  27  14  28  14  29  14
M  END
>  <minimizedAffinity>  (1) 
-4.14150953

>  <minimizedRMSD>  (1) 
2.00652695

$$$$
