
     RDKit          3D

 23 24  0  0  1  0  0  0  0  0999 V2000
   38.2250   29.0830   43.4110 C   0  0  0  0  0  0  0  0  0  0  0  0
   37.5360   27.8890   43.7900 C   0  0  0  0  0  0  0  0  0  0  0  0
   36.5180   27.4250   42.9590 C   0  0  0  0  0  0  0  0  0  0  0  0
   36.2460   28.1460   41.8340 N   0  0  0  0  0  0  0  0  0  0  0  0
   36.9050   29.2560   41.5080 C   0  0  0  0  0  0  0  0  0  0  0  0
   37.9100   29.7490   42.2910 N   0  0  0  0  0  0  0  0  0  0  0  0
   36.5430   29.9220   40.3250 N   0  0  0  0  0  0  0  0  0  0  0  0
   35.9940   29.2550   39.1540 C   0  0  0  0  0  0  0  0  0  0  0  0
   36.4310   30.1300   38.0160 C   0  0  0  0  0  0  0  0  0  0  0  0
   37.0590   31.3660   38.6230 C   0  0  0  0  0  0  0  0  0  0  0  0
   36.6500   31.3440   40.0670 C   0  0  2  0  0  0  0  0  0  0  0  0
   37.6710   31.8690   40.8190 O   0  0  0  0  0  0  0  0  0  0  0  0
   39.0325   29.4641   44.0534 H   0  0  0  0  0  0  0  0  0  0  0  0
   37.8021   27.3514   44.7121 H   0  0  0  0  0  0  0  0  0  0  0  0
   35.9551   26.5116   43.2015 H   0  0  0  0  0  0  0  0  0  0  0  0
   36.4056   28.2402   39.0503 H   0  0  0  0  0  0  0  0  0  0  0  0
   34.9022   29.1305   39.2042 H   0  0  0  0  0  0  0  0  0  0  0  0
   35.5635   30.4106   37.4007 H   0  0  0  0  0  0  0  0  0  0  0  0
   37.1479   29.6032   37.3691 H   0  0  0  0  0  0  0  0  0  0  0  0
   38.1545   31.3272   38.5314 H   0  0  0  0  0  0  0  0  0  0  0  0
   36.7317   32.2857   38.1161 H   0  0  0  0  0  0  0  0  0  0  0  0
   35.7355   31.9107   40.2961 H   0  0  0  0  0  0  0  0  0  0  0  0
   37.4617   31.7614   41.7806 H   0  0  0  0  0  0  0  0  0  0  0  0
  1  2  2  0
  3  2  1  0
  4  3  2  0
  5  4  1  0
  5  6  2  0
  6  1  1  0
  7  5  1  0
  8  7  1  0
  9 10  1  0
  9  8  1  0
 10 11  1  0
 11  7  1  0
 11 12  1  0
  1 13  1  0
  2 14  1  0
  3 15  1  0
  8 16  1  0
  8 17  1  0
  9 18  1  0
  9 19  1  0
 10 20  1  0
 10 21  1  0
 11 22  1  6
 12 23  1  0
M  ISO  8  13  14  14  14  15  14  16  13  17  13  18  13  19  13  20  13
M  ISO  3  21  13  22  13  23   3
M  END
>  <minimizedAffinity>  (1) 
-4.10842371

>  <minimizedRMSD>  (1) 
0.228127062

$$$$
