
     RDKit          3D

 25 26  0  0  1  0  0  0  0  0999 V2000
   38.3310   29.1770   43.2680 C   0  0  0  0  0  0  0  0  0  0  0  0
   37.6120   28.0320   43.7370 C   0  0  0  0  0  0  0  0  0  0  0  0
   36.5400   27.5540   42.9640 C   0  0  0  0  0  0  0  0  0  0  0  0
   36.2510   28.2190   41.8060 N   0  0  0  0  0  0  0  0  0  0  0  0
   36.9590   29.2950   41.4050 C   0  0  0  0  0  0  0  0  0  0  0  0
   38.0000   29.7860   42.1240 N   0  0  0  0  0  0  0  0  0  0  0  0
   36.5690   29.8990   40.1920 N   0  0  0  0  0  0  0  0  0  0  0  0
   35.9960   29.1700   39.0630 C   0  0  0  0  0  0  0  0  0  0  0  0
   36.4410   29.9720   37.8750 C   0  0  0  0  0  0  0  0  0  0  0  0
   37.0240   31.2600   38.4090 C   0  0  0  0  0  0  0  0  0  0  0  0
   36.6670   31.3010   39.8690 C   0  0  2  0  0  0  0  0  0  0  0  0
   37.7330   32.0440   40.6020 C   0  0  0  0  0  0  0  0  0  0  0  0
   39.1731   29.5642   43.8604 H   0  0  0  0  0  0  0  0  0  0  0  0
   37.8915   27.5382   44.6793 H   0  0  0  0  0  0  0  0  0  0  0  0
   35.9555   26.6772   43.2795 H   0  0  0  0  0  0  0  0  0  0  0  0
   36.3892   28.1438   39.0157 H   0  0  0  0  0  0  0  0  0  0  0  0
   34.9029   29.0651   39.1275 H   0  0  0  0  0  0  0  0  0  0  0  0
   35.5831   30.1875   37.2211 H   0  0  0  0  0  0  0  0  0  0  0  0
   37.1846   29.4189   37.2824 H   0  0  0  0  0  0  0  0  0  0  0  0
   38.1166   31.2668   38.2821 H   0  0  0  0  0  0  0  0  0  0  0  0
   36.6285   32.1349   37.8722 H   0  0  0  0  0  0  0  0  0  0  0  0
   35.7391   31.8273   40.1374 H   0  0  0  0  0  0  0  0  0  0  0  0
   37.5770   31.9352   41.6854 H   0  0  0  0  0  0  0  0  0  0  0  0
   38.7176   31.6355   40.3305 H   0  0  0  0  0  0  0  0  0  0  0  0
   37.6904   33.1091   40.3305 H   0  0  0  0  0  0  0  0  0  0  0  0
  1  2  2  0
  3  2  1  0
  4  3  2  0
  5  4  1  0
  5  6  2  0
  6  1  1  0
  7  5  1  0
  8  7  1  0
  9 10  1  0
  9  8  1  0
 10 11  1  0
 11  7  1  0
 11 12  1  0
  1 13  1  0
  2 14  1  0
  3 15  1  0
  8 16  1  0
  8 17  1  0
  9 18  1  0
  9 19  1  0
 10 20  1  0
 10 21  1  0
 11 22  1  6
 12 23  1  0
 12 24  1  0
 12 25  1  0
M  ISO  8  13  14  14  14  15  14  16  13  17  13  18  13  19  13  20  13
M  ISO  5  21  13  22  13  23   8  24   8  25   8
M  END
>  <minimizedAffinity>  (1) 
-4.0905962

>  <minimizedRMSD>  (1) 
0.35633406

$$$$
