
     RDKit          3D

 51 55  0  0  1  0  0  0  0  0999 V2000
   37.3040   28.8830   41.2830 C   0  0  0  0  0  0  0  0  0  0  0  0
   37.5410   29.3810   42.5900 C   0  0  0  0  0  0  0  0  0  0  0  0
   37.5520   28.5710   43.7410 C   0  0  0  0  0  0  0  0  0  0  0  0
   37.3260   27.2000   43.5920 C   0  0  0  0  0  0  0  0  0  0  0  0
   37.0950   26.6710   42.3290 C   0  0  0  0  0  0  0  0  0  0  0  0
   36.9210   25.3230   42.1490 C   0  0  0  0  0  0  0  0  0  0  0  0
   36.7340   24.7630   40.8820 C   0  0  0  0  0  0  0  0  0  0  0  0
   36.7320   25.6730   39.8080 C   0  0  0  0  0  0  0  0  0  0  0  0
   36.9110   27.0290   40.0390 C   0  0  0  0  0  0  0  0  0  0  0  0
   37.0980   27.5420   41.2760 C   0  0  0  0  0  0  0  0  0  0  0  0
   41.3340   28.5680   41.0230 C   0  0  0  0  0  0  0  0  0  0  0  0
   42.3030   28.7740   40.0140 C   0  0  0  0  0  0  0  0  0  0  0  0
   41.9370   29.5600   38.9220 C   0  0  0  0  0  0  0  0  0  0  0  0
   40.6630   30.0910   38.8820 N   0  0  0  0  0  0  0  0  0  0  0  0
   39.7920   29.8650   39.8570 C   0  0  0  0  0  0  0  0  0  0  0  0
   40.1280   29.1180   40.9020 N   0  0  0  0  0  0  0  0  0  0  0  0
   38.5210   30.3910   39.7620 N   0  0  0  0  0  0  0  0  0  0  0  0
   38.2040   31.6120   39.0010 C   0  0  0  0  0  0  0  0  0  0  0  0
   37.0360   32.1960   39.7130 C   0  0  0  0  0  0  0  0  0  0  0  0
   36.6500   31.2120   40.7810 C   0  0  0  0  0  0  0  0  0  0  0  0
   37.2410   29.9040   40.3040 C   0  0  2  0  0  0  0  0  0  0  0  0
   36.7040   27.6210   38.7780 N   0  0  0  0  0  0  0  0  0  0  0  0
   35.3390   27.9520   38.7620 C   0  0  0  0  0  0  0  0  0  0  0  0
   34.7560   28.5140   37.6140 C   0  0  0  0  0  0  0  0  0  0  0  0
   33.3540   28.9060   37.4590 C   0  0  0  0  0  0  0  0  0  0  0  0
   35.5470   28.7380   36.4940 C   0  0  0  0  0  0  0  0  0  0  0  0
   35.1650   29.2310   35.4090 O   0  0  0  0  0  0  0  0  0  0  0  0
   36.8480   28.4010   36.5620 N   0  0  0  0  0  0  0  0  0  0  0  0
   37.4030   27.8640   37.6580 C   0  0  0  0  0  0  0  0  0  0  0  0
   38.5850   27.5040   37.8280 O   0  0  0  0  0  0  0  0  0  0  0  0
   37.7262   30.4586   42.7104 H   0  0  0  0  0  0  0  0  0  0  0  0
   37.7342   29.0068   44.7344 H   0  0  0  0  0  0  0  0  0  0  0  0
   37.3311   26.5414   44.4731 H   0  0  0  0  0  0  0  0  0  0  0  0
   36.9288   24.6621   43.0283 H   0  0  0  0  0  0  0  0  0  0  0  0
   36.5973   23.6816   40.7338 H   0  0  0  0  0  0  0  0  0  0  0  0
   36.5878   25.3071   38.7807 H   0  0  0  0  0  0  0  0  0  0  0  0
   41.5759   27.9557   41.9043 H   0  0  0  0  0  0  0  0  0  0  0  0
   43.3072   28.3311   40.0877 H   0  0  0  0  0  0  0  0  0  0  0  0
   42.6502   29.7535   38.1072 H   0  0  0  0  0  0  0  0  0  0  0  0
   37.9433   31.3663   37.9610 H   0  0  0  0  0  0  0  0  0  0  0  0
   39.0548   32.3073   38.9485 H   0  0  0  0  0  0  0  0  0  0  0  0
   37.3106   33.1600   40.1661 H   0  0  0  0  0  0  0  0  0  0  0  0
   36.2005   32.3798   39.0215 H   0  0  0  0  0  0  0  0  0  0  0  0
   37.0761   31.5023   41.7527 H   0  0  0  0  0  0  0  0  0  0  0  0
   35.5618   31.1552   40.9311 H   0  0  0  0  0  0  0  0  0  0  0  0
   36.6370   29.3559   39.5659 H   0  0  0  0  0  0  0  0  0  0  0  0
   34.7223   27.7699   39.6545 H   0  0  0  0  0  0  0  0  0  0  0  0
   32.8971   29.0337   38.4514 H   0  0  0  0  0  0  0  0  0  0  0  0
   33.2976   29.8544   36.9045 H   0  0  0  0  0  0  0  0  0  0  0  0
   32.8139   28.1244   36.9045 H   0  0  0  0  0  0  0  0  0  0  0  0
   37.4429   28.5625   35.7368 H   0  0  0  0  0  0  0  0  0  0  0  0
  1  2  2  0
  2  3  1  0
  4  3  2  0
  5  4  1  0
  6  5  2  0
  7  6  1  0
  8  9  1  0
  8  7  2  0
  9 10  2  0
 10  1  1  0
 10  5  1  0
 12 11  2  0
 13 12  1  0
 14 13  2  0
 14 15  1  0
 15 16  2  0
 16 11  1  0
 17 15  1  0
 17 21  1  0
 18 19  1  0
 18 17  1  0
 19 20  1  0
 21 20  1  0
 21  1  1  0
 22  9  1  0
 23 22  1  0
 24 23  2  0
 25 24  1  0
 26 28  1  0
 26 24  1  0
 27 26  2  0
 28 29  1  0
 29 30  2  0
 29 22  1  0
  2 31  1  0
  3 32  1  0
  4 33  1  0
  6 34  1  0
  7 35  1  0
  8 36  1  0
 11 37  1  0
 12 38  1  0
 13 39  1  0
 18 40  1  0
 18 41  1  0
 19 42  1  0
 19 43  1  0
 20 44  1  0
 20 45  1  0
 21 46  1  6
 23 47  1  0
 25 48  1  0
 25 49  1  0
 25 50  1  0
 28 51  1  0
M  ISO  8  31  14  32  14  33  14  34  14  35  14  36  14  37  14  38  14
M  ISO  8  39  14  40  13  41  13  42  13  43  13  44  13  45  13  46  13
M  ISO  5  47  14  48   8  49   8  50   8  51   9
M  END
>  <minimizedAffinity>  (1) 
-6.98971176

>  <minimizedRMSD>  (1) 
0.56596756

$$$$
