
     RDKit          3D

 52 57  0  0  1  0  0  0  0  0999 V2000
   37.4440   28.8240   41.4680 C   0  0  0  0  0  0  0  0  0  0  0  0
   37.2470   29.2000   42.8220 C   0  0  0  0  0  0  0  0  0  0  0  0
   36.9540   28.2870   43.8430 C   0  0  0  0  0  0  0  0  0  0  0  0
   36.8550   26.9300   43.5210 C   0  0  0  0  0  0  0  0  0  0  0  0
   37.0440   26.5220   42.2140 C   0  0  0  0  0  0  0  0  0  0  0  0
   37.0030   25.1920   41.8730 C   0  0  0  0  0  0  0  0  0  0  0  0
   37.2370   24.7450   40.5790 C   0  0  0  0  0  0  0  0  0  0  0  0
   37.5160   25.7490   39.6410 C   0  0  0  0  0  0  0  0  0  0  0  0
   37.5490   27.0860   40.0080 C   0  0  0  0  0  0  0  0  0  0  0  0
   37.3210   27.4840   41.2840 C   0  0  0  0  0  0  0  0  0  0  0  0
   41.3510   28.7360   42.5360 C   0  0  0  0  0  0  0  0  0  0  0  0
   42.5770   29.0830   41.9230 C   0  0  0  0  0  0  0  0  0  0  0  0
   42.5270   29.9500   40.8320 C   0  0  0  0  0  0  0  0  0  0  0  0
   41.2970   30.4200   40.4070 N   0  0  0  0  0  0  0  0  0  0  0  0
   40.1760   30.0580   41.0260 C   0  0  0  0  0  0  0  0  0  0  0  0
   40.2140   29.2330   42.0660 N   0  0  0  0  0  0  0  0  0  0  0  0
   38.9680   30.5400   40.5600 N   0  0  0  0  0  0  0  0  0  0  0  0
   38.8260   31.8100   39.8390 C   0  0  0  0  0  0  0  0  0  0  0  0
   37.4400   32.2510   40.1370 C   0  0  0  0  0  0  0  0  0  0  0  0
   36.7930   31.1510   40.9320 C   0  0  0  0  0  0  0  0  0  0  0  0
   37.6250   29.9340   40.6070 C   0  0  2  0  0  0  0  0  0  0  0  0
   37.7760   27.8010   38.8040 N   0  0  0  0  0  0  0  0  0  0  0  0
   38.7590   28.2030   37.9660 C   0  0  0  0  0  0  0  0  0  0  0  0
   38.2560   28.8020   36.8790 N   0  0  0  0  0  0  0  0  0  0  0  0
   36.9160   28.8270   36.9380 C   0  0  0  0  0  0  0  0  0  0  0  0
   36.0150   29.3420   36.0380 C   0  0  0  0  0  0  0  0  0  0  0  0
   36.4290   29.8860   34.9820 O   0  0  0  0  0  0  0  0  0  0  0  0
   34.7180   29.2200   36.3680 N   0  0  0  0  0  0  0  0  0  0  0  0
   34.3660   28.6240   37.5190 C   0  0  0  0  0  0  0  0  0  0  0  0
   32.9880   28.4960   37.8650 N   0  0  0  0  0  0  0  0  0  0  0  0
   35.2570   28.1240   38.3900 N   0  0  0  0  0  0  0  0  0  0  0  0
   36.6040   28.1940   38.1530 C   0  0  0  0  0  0  0  0  0  0  0  0
   37.3287   30.2653   43.0837 H   0  0  0  0  0  0  0  0  0  0  0  0
   36.8048   28.6306   44.8772 H   0  0  0  0  0  0  0  0  0  0  0  0
   36.6279   26.1911   44.3036 H   0  0  0  0  0  0  0  0  0  0  0  0
   36.7761   24.4524   42.6550 H   0  0  0  0  0  0  0  0  0  0  0  0
   37.2057   23.6790   40.3093 H   0  0  0  0  0  0  0  0  0  0  0  0
   37.7123   25.4712   38.5949 H   0  0  0  0  0  0  0  0  0  0  0  0
   41.3398   28.0557   43.4004 H   0  0  0  0  0  0  0  0  0  0  0  0
   43.5333   28.6844   42.2925 H   0  0  0  0  0  0  0  0  0  0  0  0
   43.4502   30.2552   40.3177 H   0  0  0  0  0  0  0  0  0  0  0  0
   38.9631   31.6612   38.7578 H   0  0  0  0  0  0  0  0  0  0  0  0
   39.5773   32.5525   40.1458 H   0  0  0  0  0  0  0  0  0  0  0  0
   37.4570   33.1817   40.7231 H   0  0  0  0  0  0  0  0  0  0  0  0
   36.8815   32.4476   39.2099 H   0  0  0  0  0  0  0  0  0  0  0  0
   36.8278   31.3732   42.0088 H   0  0  0  0  0  0  0  0  0  0  0  0
   35.7294   31.0172   40.6854 H   0  0  0  0  0  0  0  0  0  0  0  0
   37.3509   29.4221   39.6727 H   0  0  0  0  0  0  0  0  0  0  0  0
   39.8330   28.0567   38.1533 H   0  0  0  0  0  0  0  0  0  0  0  0
   33.9912   29.5849   35.7359 H   0  0  0  0  0  0  0  0  0  0  0  0
   32.7190   28.0388   38.7479 H   0  0  0  0  0  0  0  0  0  0  0  0
   32.2620   28.8608   37.2319 H   0  0  0  0  0  0  0  0  0  0  0  0
  1  2  2  0
  2  3  1  0
  4  3  2  0
  5  4  1  0
  6  5  2  0
  7  6  1  0
  8  9  1  0
  8  7  2  0
  9 10  2  0
 10  1  1  0
 10  5  1  0
 12 11  2  0
 13 12  1  0
 14 13  2  0
 14 15  1  0
 15 16  2  0
 16 11  1  0
 17 21  1  0
 17 15  1  0
 18 19  1  0
 18 17  1  0
 19 20  1  0
 21 20  1  0
 21  1  1  0
 22  9  1  0
 23 22  1  0
 24 25  1  0
 24 23  2  0
 25 32  2  0
 26 28  1  0
 26 25  1  0
 27 26  2  0
 28 29  1  0
 29 30  1  0
 29 31  2  0
 32 31  1  0
 32 22  1  0
  2 33  1  0
  3 34  1  0
  4 35  1  0
  6 36  1  0
  7 37  1  0
  8 38  1  0
 11 39  1  0
 12 40  1  0
 13 41  1  0
 18 42  1  0
 18 43  1  0
 19 44  1  0
 19 45  1  0
 20 46  1  0
 20 47  1  0
 21 48  1  6
 23 49  1  0
 28 50  1  0
 30 51  1  0
 30 52  1  0
M  ISO  8  33  14  34  14  35  14  36  14  37  14  38  14  39  14  40  14
M  ISO  8  41  14  42  13  43  13  44  13  45  13  46  13  47  13  48  13
M  ISO  2  49  14  50   9
M  END
>  <minimizedAffinity>  (1) 
-6.98758745

>  <minimizedRMSD>  (1) 
2.00481105

$$$$
