
     RDKit          3D

 46 50  0  0  1  0  0  0  0  0999 V2000
   37.2560   28.8480   41.2990 C   0  0  0  0  0  0  0  0  0  0  0  0
   37.4900   29.3510   42.5980 C   0  0  0  0  0  0  0  0  0  0  0  0
   37.5150   28.5470   43.7510 C   0  0  0  0  0  0  0  0  0  0  0  0
   37.3070   27.1730   43.6150 C   0  0  0  0  0  0  0  0  0  0  0  0
   37.0810   26.6370   42.3560 C   0  0  0  0  0  0  0  0  0  0  0  0
   36.9230   25.2810   42.1770 C   0  0  0  0  0  0  0  0  0  0  0  0
   36.7380   24.7210   40.9060 C   0  0  0  0  0  0  0  0  0  0  0  0
   36.7200   25.6210   39.8450 C   0  0  0  0  0  0  0  0  0  0  0  0
   36.8820   26.9790   40.0580 C   0  0  0  0  0  0  0  0  0  0  0  0
   37.0670   27.4990   41.2980 C   0  0  0  0  0  0  0  0  0  0  0  0
   41.2790   28.4920   40.9500 C   0  0  0  0  0  0  0  0  0  0  0  0
   42.2270   28.6800   39.9190 C   0  0  0  0  0  0  0  0  0  0  0  0
   41.8420   29.4540   38.8270 C   0  0  0  0  0  0  0  0  0  0  0  0
   40.5690   30.0000   38.7990 N   0  0  0  0  0  0  0  0  0  0  0  0
   39.7220   29.7840   39.8040 C   0  0  0  0  0  0  0  0  0  0  0  0
   40.0770   29.0470   40.8510 N   0  0  0  0  0  0  0  0  0  0  0  0
   38.4580   30.3360   39.7440 N   0  0  0  0  0  0  0  0  0  0  0  0
   38.1440   31.5620   38.9960 C   0  0  0  0  0  0  0  0  0  0  0  0
   36.9810   32.1460   39.7120 C   0  0  0  0  0  0  0  0  0  0  0  0
   36.6110   31.1740   40.7980 C   0  0  0  0  0  0  0  0  0  0  0  0
   37.1800   29.8590   40.3150 C   0  0  2  0  0  0  0  0  0  0  0  0
   36.7190   27.6040   38.7600 C   0  0  0  0  0  0  0  0  0  0  0  0
   35.7760   28.3750   38.1080 C   0  0  0  0  0  0  0  0  0  0  0  0
   36.0330   28.8790   36.8540 C   0  0  0  0  0  0  0  0  0  0  0  0
   37.1930   28.6500   36.2150 N   0  0  0  0  0  0  0  0  0  0  0  0
   38.1120   27.9000   36.8500 C   0  0  0  0  0  0  0  0  0  0  0  0
   37.9100   27.3830   38.0760 N   0  0  0  0  0  0  0  0  0  0  0  0
   37.6621   30.4313   42.7138 H   0  0  0  0  0  0  0  0  0  0  0  0
   37.6949   28.9917   44.7409 H   0  0  0  0  0  0  0  0  0  0  0  0
   37.3223   26.5202   44.5003 H   0  0  0  0  0  0  0  0  0  0  0  0
   36.9425   24.6194   43.0556 H   0  0  0  0  0  0  0  0  0  0  0  0
   36.6148   23.6382   40.7564 H   0  0  0  0  0  0  0  0  0  0  0  0
   36.5747   25.2473   38.8207 H   0  0  0  0  0  0  0  0  0  0  0  0
   41.5363   27.8874   41.8322 H   0  0  0  0  0  0  0  0  0  0  0  0
   43.2301   28.2324   39.9767 H   0  0  0  0  0  0  0  0  0  0  0  0
   42.5409   29.6298   37.9960 H   0  0  0  0  0  0  0  0  0  0  0  0
   37.8808   31.3255   37.9545 H   0  0  0  0  0  0  0  0  0  0  0  0
   38.9976   32.2542   38.9496 H   0  0  0  0  0  0  0  0  0  0  0  0
   37.2538   33.1177   40.1495 H   0  0  0  0  0  0  0  0  0  0  0  0
   36.1373   32.3139   39.0264 H   0  0  0  0  0  0  0  0  0  0  0  0
   37.0626   31.4676   41.7571 H   0  0  0  0  0  0  0  0  0  0  0  0
   35.5265   31.1282   40.9762 H   0  0  0  0  0  0  0  0  0  0  0  0
   36.5578   29.3115   39.5917 H   0  0  0  0  0  0  0  0  0  0  0  0
   34.8128   28.5874   38.5950 H   0  0  0  0  0  0  0  0  0  0  0  0
   35.2639   29.4894   36.3581 H   0  0  0  0  0  0  0  0  0  0  0  0
   39.0691   27.7010   36.3457 H   0  0  0  0  0  0  0  0  0  0  0  0
  1  2  2  0
  2  3  1  0
  4  3  2  0
  5  4  1  0
  6  5  2  0
  7  6  1  0
  8  9  1  0
  8  7  2  0
  9 10  2  0
 10  1  1  0
 10  5  1  0
 12 11  2  0
 13 12  1  0
 14 13  2  0
 14 15  1  0
 15 16  2  0
 16 11  1  0
 17 15  1  0
 17 21  1  0
 18 19  1  0
 18 17  1  0
 19 20  1  0
 21 20  1  0
 21  1  1  0
 22  9  1  0
 23 22  2  0
 24 23  1  0
 25 26  1  0
 25 24  2  0
 26 27  2  0
 27 22  1  0
  2 28  1  0
  3 29  1  0
  4 30  1  0
  6 31  1  0
  7 32  1  0
  8 33  1  0
 11 34  1  0
 12 35  1  0
 13 36  1  0
 18 37  1  0
 18 38  1  0
 19 39  1  0
 19 40  1  0
 20 41  1  0
 20 42  1  0
 21 43  1  6
 23 44  1  0
 24 45  1  0
 26 46  1  0
M  ISO  8  28  14  29  14  30  14  31  14  32  14  33  14  34  14  35  14
M  ISO  8  36  14  37  13  38  13  39  13  40  13  41  13  42  13  43  13
M  ISO  3  44  14  45  14  46  14
M  END
>  <minimizedAffinity>  (1) 
-6.44802523

>  <minimizedRMSD>  (1) 
0.684931815

$$$$
