
     RDKit          3D

 54 58  0  0  1  0  0  0  0  0999 V2000
   37.2630   28.7630   41.3800 C   0  0  0  0  0  0  0  0  0  0  0  0
   37.4470   29.2500   42.6750 C   0  0  0  0  0  0  0  0  0  0  0  0
   37.4590   28.4120   43.8070 C   0  0  0  0  0  0  0  0  0  0  0  0
   37.2860   27.0400   43.6420 C   0  0  0  0  0  0  0  0  0  0  0  0
   37.1080   26.5300   42.3900 C   0  0  0  0  0  0  0  0  0  0  0  0
   36.9300   25.2010   42.1310 C   0  0  0  0  0  0  0  0  0  0  0  0
   36.7340   24.6620   40.8920 C   0  0  0  0  0  0  0  0  0  0  0  0
   36.7260   25.5610   39.8480 C   0  0  0  0  0  0  0  0  0  0  0  0
   36.9180   26.9480   40.0350 C   0  0  0  0  0  0  0  0  0  0  0  0
   37.1040   27.4080   41.3280 C   0  0  0  0  0  0  0  0  0  0  0  0
   41.2700   28.4120   40.9890 C   0  0  0  0  0  0  0  0  0  0  0  0
   42.2060   28.6230   39.9520 C   0  0  0  0  0  0  0  0  0  0  0  0
   41.8130   29.4380   38.9040 C   0  0  0  0  0  0  0  0  0  0  0  0
   40.5470   29.9940   38.9240 N   0  0  0  0  0  0  0  0  0  0  0  0
   39.7150   29.7630   39.9190 C   0  0  0  0  0  0  0  0  0  0  0  0
   40.0710   28.9800   40.9390 N   0  0  0  0  0  0  0  0  0  0  0  0
   38.4270   30.3160   39.8680 N   0  0  0  0  0  0  0  0  0  0  0  0
   38.1250   31.5200   39.1160 C   0  0  0  0  0  0  0  0  0  0  0  0
   36.9040   32.0470   39.7750 C   0  0  0  0  0  0  0  0  0  0  0  0
   36.6260   31.0950   40.9040 C   0  0  0  0  0  0  0  0  0  0  0  0
   37.1720   29.7770   40.3950 C   0  0  2  0  0  0  0  0  0  0  0  0
   36.9600   27.6250   38.7640 C   0  0  0  0  0  0  0  0  0  0  0  0
   38.2630   27.0390   38.0660 C   0  0  0  0  0  0  0  0  0  0  0  0
   38.4060   27.5140   36.6580 C   0  0  0  0  0  0  0  0  0  0  0  0
   37.2220   27.3190   35.7800 C   0  0  0  0  0  0  0  0  0  0  0  0
   35.9970   27.8370   36.5040 C   0  0  0  0  0  0  0  0  0  0  0  0
   35.9120   27.0070   37.7970 C   0  0  0  0  0  0  0  0  0  0  0  0
   37.5883   30.3316   42.8172 H   0  0  0  0  0  0  0  0  0  0  0  0
   37.6036   28.8369   44.8113 H   0  0  0  0  0  0  0  0  0  0  0  0
   37.2929   26.3721   44.5160 H   0  0  0  0  0  0  0  0  0  0  0  0
   36.9458   24.5109   42.9875 H   0  0  0  0  0  0  0  0  0  0  0  0
   36.5920   23.5822   40.7376 H   0  0  0  0  0  0  0  0  0  0  0  0
   36.5635   25.1835   38.8277 H   0  0  0  0  0  0  0  0  0  0  0  0
   41.5364   27.7728   41.8436 H   0  0  0  0  0  0  0  0  0  0  0  0
   43.2035   28.1600   39.9762 H   0  0  0  0  0  0  0  0  0  0  0  0
   42.4980   29.6403   38.0674 H   0  0  0  0  0  0  0  0  0  0  0  0
   37.9302   31.2844   38.0593 H   0  0  0  0  0  0  0  0  0  0  0  0
   38.9549   32.2420   39.1144 H   0  0  0  0  0  0  0  0  0  0  0  0
   37.0808   33.0620   40.1605 H   0  0  0  0  0  0  0  0  0  0  0  0
   36.0567   32.1169   39.0770 H   0  0  0  0  0  0  0  0  0  0  0  0
   37.1467   31.4089   41.8207 H   0  0  0  0  0  0  0  0  0  0  0  0
   35.5598   31.0440   41.1698 H   0  0  0  0  0  0  0  0  0  0  0  0
   36.5664   29.2130   39.6703 H   0  0  0  0  0  0  0  0  0  0  0  0
   36.8583   28.7090   38.9209 H   0  0  0  0  0  0  0  0  0  0  0  0
   39.1463   27.3570   38.6393 H   0  0  0  0  0  0  0  0  0  0  0  0
   38.1739   25.9428   38.0469 H   0  0  0  0  0  0  0  0  0  0  0  0
   38.6294   28.5907   36.6873 H   0  0  0  0  0  0  0  0  0  0  0  0
   39.2054   26.8997   36.2180 H   0  0  0  0  0  0  0  0  0  0  0  0
   37.0970   26.2490   35.5578 H   0  0  0  0  0  0  0  0  0  0  0  0
   37.3598   27.8640   34.8345 H   0  0  0  0  0  0  0  0  0  0  0  0
   36.1105   28.9057   36.7383 H   0  0  0  0  0  0  0  0  0  0  0  0
   35.0871   27.7413   35.8933 H   0  0  0  0  0  0  0  0  0  0  0  0
   34.9033   27.0749   38.2306 H   0  0  0  0  0  0  0  0  0  0  0  0
   36.1119   25.9417   37.6092 H   0  0  0  0  0  0  0  0  0  0  0  0
  1  2  2  0
  2  3  1  0
  4  3  2  0
  5  4  1  0
  6  5  2  0
  7  6  1  0
  8  9  1  0
  8  7  2  0
  9 10  2  0
 10  1  1  0
 10  5  1  0
 12 11  2  0
 13 14  2  0
 13 12  1  0
 14 15  1  0
 15 16  2  0
 16 11  1  0
 17 15  1  0
 17 21  1  0
 18 19  1  0
 18 17  1  0
 19 20  1  0
 21 20  1  0
 21  1  1  0
 22  9  1  0
 23 22  1  0
 24 23  1  0
 25 26  1  0
 25 24  1  0
 26 27  1  0
 27 22  1  0
  2 28  1  0
  3 29  1  0
  4 30  1  0
  6 31  1  0
  7 32  1  0
  8 33  1  0
 11 34  1  0
 12 35  1  0
 13 36  1  0
 18 37  1  0
 18 38  1  0
 19 39  1  0
 19 40  1  0
 20 41  1  0
 20 42  1  0
 21 43  1  6
 22 44  1  0
 23 45  1  0
 23 46  1  0
 24 47  1  0
 24 48  1  0
 25 49  1  0
 25 50  1  0
 26 51  1  0
 26 52  1  0
 27 53  1  0
 27 54  1  0
M  ISO  8  28  14  29  14  30  14  31  14  32  14  33  14  34  14  35  14
M  ISO  8  36  14  37  13  38  13  39  13  40  13  41  13  42  13  43  13
M  ISO  8  44  13  45  13  46  13  47  13  48  13  49  13  50  13  51  13
M  ISO  3  52  13  53  13  54  13
M  END
>  <minimizedAffinity>  (1) 
-6.42506742

>  <minimizedRMSD>  (1) 
0.386329025

$$$$
