
     RDKit          3D

 45 49  0  0  1  0  0  0  0  0999 V2000
   37.2860   28.8410   41.3160 C   0  0  0  0  0  0  0  0  0  0  0  0
   37.5320   29.3570   42.6100 C   0  0  0  0  0  0  0  0  0  0  0  0
   37.5550   28.5620   43.7610 C   0  0  0  0  0  0  0  0  0  0  0  0
   37.3290   27.1880   43.6380 C   0  0  0  0  0  0  0  0  0  0  0  0
   37.0890   26.6460   42.3900 C   0  0  0  0  0  0  0  0  0  0  0  0
   36.8990   25.2970   42.2020 C   0  0  0  0  0  0  0  0  0  0  0  0
   36.6960   24.7190   40.9720 C   0  0  0  0  0  0  0  0  0  0  0  0
   36.6910   25.6070   39.9040 C   0  0  0  0  0  0  0  0  0  0  0  0
   36.8820   26.9720   40.0830 C   0  0  0  0  0  0  0  0  0  0  0  0
   37.0820   27.4980   41.3260 C   0  0  0  0  0  0  0  0  0  0  0  0
   41.3030   28.5130   40.9620 C   0  0  0  0  0  0  0  0  0  0  0  0
   42.2490   28.6990   39.9290 C   0  0  0  0  0  0  0  0  0  0  0  0
   41.8580   29.4670   38.8310 C   0  0  0  0  0  0  0  0  0  0  0  0
   40.5840   29.9980   38.8110 N   0  0  0  0  0  0  0  0  0  0  0  0
   39.7350   29.7900   39.8100 C   0  0  0  0  0  0  0  0  0  0  0  0
   40.0970   29.0610   40.8610 N   0  0  0  0  0  0  0  0  0  0  0  0
   38.4570   30.3200   39.7370 N   0  0  0  0  0  0  0  0  0  0  0  0
   38.1380   31.5260   38.9590 C   0  0  0  0  0  0  0  0  0  0  0  0
   36.9490   32.0900   39.6420 C   0  0  0  0  0  0  0  0  0  0  0  0
   36.6410   31.1710   40.7890 C   0  0  0  0  0  0  0  0  0  0  0  0
   37.1940   29.8490   40.3160 C   0  0  2  0  0  0  0  0  0  0  0  0
   36.7740   27.5920   38.7370 C   0  0  0  0  0  0  0  0  0  0  0  0
   35.4220   27.9340   38.3720 C   0  0  0  0  0  0  0  0  0  0  0  0
   35.2970   28.5280   37.1290 C   0  0  0  0  0  0  0  0  0  0  0  0
   36.5950   28.5160   36.7950 N   0  0  0  0  0  0  0  0  0  0  0  0
   37.4300   28.0120   37.6520 N   0  0  0  0  0  0  0  0  0  0  0  0
   37.7142   30.4366   42.7165 H   0  0  0  0  0  0  0  0  0  0  0  0
   37.7478   29.0108   44.7466 H   0  0  0  0  0  0  0  0  0  0  0  0
   37.3422   26.5427   44.5288 H   0  0  0  0  0  0  0  0  0  0  0  0
   36.9102   24.6434   43.0867 H   0  0  0  0  0  0  0  0  0  0  0  0
   36.5488   23.6365   40.8431 H   0  0  0  0  0  0  0  0  0  0  0  0
   36.5313   25.2188   38.8873 H   0  0  0  0  0  0  0  0  0  0  0  0
   41.5646   27.9157   41.8479 H   0  0  0  0  0  0  0  0  0  0  0  0
   43.2541   28.2560   39.9878 H   0  0  0  0  0  0  0  0  0  0  0  0
   42.5524   29.6458   37.9969 H   0  0  0  0  0  0  0  0  0  0  0  0
   37.9036   31.2676   37.9158 H   0  0  0  0  0  0  0  0  0  0  0  0
   38.9773   32.2357   38.9154 H   0  0  0  0  0  0  0  0  0  0  0  0
   37.1685   33.1017   40.0139 H   0  0  0  0  0  0  0  0  0  0  0  0
   36.0944   32.1680   38.9539 H   0  0  0  0  0  0  0  0  0  0  0  0
   37.1431   31.5040   41.7094 H   0  0  0  0  0  0  0  0  0  0  0  0
   35.5707   31.1308   41.0395 H   0  0  0  0  0  0  0  0  0  0  0  0
   36.5589   29.2939   39.6099 H   0  0  0  0  0  0  0  0  0  0  0  0
   34.5608   27.7387   39.0278 H   0  0  0  0  0  0  0  0  0  0  0  0
   34.4128   28.8941   36.5867 H   0  0  0  0  0  0  0  0  0  0  0  0
   36.9179   28.8925   35.8923 H   0  0  0  0  0  0  0  0  0  0  0  0
  1 10  1  0
  1  2  2  0
  2  3  1  0
  4  3  2  0
  5  4  1  0
  6  5  2  0
  7  6  1  0
  8  9  1  0
  8  7  2  0
  9 10  2  0
 10  5  1  0
 12 11  2  0
 13 12  1  0
 14 13  2  0
 14 15  1  0
 15 16  2  0
 16 11  1  0
 17 15  1  0
 17 21  1  0
 18 19  1  0
 18 17  1  0
 19 20  1  0
 21 20  1  0
 21  1  1  0
 22  9  1  0
 23 22  1  0
 24 23  2  0
 25 24  1  0
 25 26  1  0
 26 22  2  0
  2 27  1  0
  3 28  1  0
  4 29  1  0
  6 30  1  0
  7 31  1  0
  8 32  1  0
 11 33  1  0
 12 34  1  0
 13 35  1  0
 18 36  1  0
 18 37  1  0
 19 38  1  0
 19 39  1  0
 20 40  1  0
 20 41  1  0
 21 42  1  6
 23 43  1  0
 24 44  1  0
 25 45  1  0
M  ISO  8  27  14  28  14  29  14  30  14  31  14  32  14  33  14  34  14
M  ISO  8  35  14  36  13  37  13  38  13  39  13  40  13  41  13  42  13
M  ISO  3  43  14  44  14  45   9
M  END
>  <minimizedAffinity>  (1) 
-6.3117528

>  <minimizedRMSD>  (1) 
0.342600495

$$$$
