
     RDKit          3D

 51 55  0  0  1  0  0  0  0  0999 V2000
   41.3220   28.4910   40.9650 C   0  0  0  0  0  0  0  0  0  0  0  0
   42.2620   28.6750   39.9250 C   0  0  0  0  0  0  0  0  0  0  0  0
   41.8660   29.4400   38.8330 C   0  0  0  0  0  0  0  0  0  0  0  0
   40.5940   29.9750   38.8210 N   0  0  0  0  0  0  0  0  0  0  0  0
   39.7580   29.7720   39.8230 C   0  0  0  0  0  0  0  0  0  0  0  0
   40.1180   29.0400   40.8740 N   0  0  0  0  0  0  0  0  0  0  0  0
   38.4710   30.3220   39.7540 N   0  0  0  0  0  0  0  0  0  0  0  0
   38.1670   31.5110   38.9730 C   0  0  0  0  0  0  0  0  0  0  0  0
   36.9430   32.0530   39.6190 C   0  0  0  0  0  0  0  0  0  0  0  0
   36.7220   31.1560   40.8010 C   0  0  0  0  0  0  0  0  0  0  0  0
   37.2180   29.8130   40.3120 C   0  0  2  0  0  0  0  0  0  0  0  0
   37.3070   28.8230   41.3280 C   0  0  0  0  0  0  0  0  0  0  0  0
   37.5250   29.3540   42.6290 C   0  0  0  0  0  0  0  0  0  0  0  0
   37.5510   28.5420   43.7500 C   0  0  0  0  0  0  0  0  0  0  0  0
   37.3580   27.1750   43.6430 C   0  0  0  0  0  0  0  0  0  0  0  0
   37.1430   26.6270   42.4050 C   0  0  0  0  0  0  0  0  0  0  0  0
   36.9210   25.2990   42.2080 C   0  0  0  0  0  0  0  0  0  0  0  0
   36.6800   24.7170   40.9960 C   0  0  0  0  0  0  0  0  0  0  0  0
   36.6760   25.5880   39.9220 C   0  0  0  0  0  0  0  0  0  0  0  0
   36.9060   26.9760   40.0500 C   0  0  0  0  0  0  0  0  0  0  0  0
   37.1300   27.4660   41.3260 C   0  0  0  0  0  0  0  0  0  0  0  0
   36.8660   27.6150   38.7900 C   0  0  0  0  0  0  0  0  0  0  0  0
   35.3580   27.7090   38.4360 C   0  0  0  0  0  0  0  0  0  0  0  0
   35.1600   27.0430   37.1350 C   0  0  0  0  0  0  0  0  0  0  0  0
   36.5310   26.9080   36.5580 C   0  0  0  0  0  0  0  0  0  0  0  0
   37.3320   26.5300   37.7470 C   0  0  0  0  0  0  0  0  0  0  0  0
   41.5890   27.8931   41.8488 H   0  0  0  0  0  0  0  0  0  0  0  0
   43.2669   28.2307   39.9774 H   0  0  0  0  0  0  0  0  0  0  0  0
   42.5548   29.6155   37.9935 H   0  0  0  0  0  0  0  0  0  0  0  0
   37.9735   31.2510   37.9218 H   0  0  0  0  0  0  0  0  0  0  0  0
   38.9961   32.2337   38.9563 H   0  0  0  0  0  0  0  0  0  0  0  0
   37.1004   33.0926   39.9423 H   0  0  0  0  0  0  0  0  0  0  0  0
   36.0800   32.0714   38.9372 H   0  0  0  0  0  0  0  0  0  0  0  0
   37.3026   31.4984   41.6703 H   0  0  0  0  0  0  0  0  0  0  0  0
   35.6745   31.1335   41.1361 H   0  0  0  0  0  0  0  0  0  0  0  0
   36.5897   29.2401   39.6142 H   0  0  0  0  0  0  0  0  0  0  0  0
   37.6768   30.4370   42.7477 H   0  0  0  0  0  0  0  0  0  0  0  0
   37.7274   28.9890   44.7395 H   0  0  0  0  0  0  0  0  0  0  0  0
   37.3769   26.5375   44.5392 H   0  0  0  0  0  0  0  0  0  0  0  0
   36.9368   24.6445   43.0919 H   0  0  0  0  0  0  0  0  0  0  0  0
   36.5026   23.6373   40.8829 H   0  0  0  0  0  0  0  0  0  0  0  0
   36.4843   25.1801   38.9186 H   0  0  0  0  0  0  0  0  0  0  0  0
   37.4316   28.5584   38.7888 H   0  0  0  0  0  0  0  0  0  0  0  0
   34.7596   27.2054   39.2095 H   0  0  0  0  0  0  0  0  0  0  0  0
   35.0398   28.7606   38.3826 H   0  0  0  0  0  0  0  0  0  0  0  0
   34.6994   26.0537   37.2731 H   0  0  0  0  0  0  0  0  0  0  0  0
   34.4886   27.6135   36.4764 H   0  0  0  0  0  0  0  0  0  0  0  0
   36.5647   26.1233   35.7879 H   0  0  0  0  0  0  0  0  0  0  0  0
   36.8902   27.8167   36.0528 H   0  0  0  0  0  0  0  0  0  0  0  0
   37.0902   25.5128   38.0887 H   0  0  0  0  0  0  0  0  0  0  0  0
   38.4177   26.5106   37.5714 H   0  0  0  0  0  0  0  0  0  0  0  0
  2  1  2  0
  3  2  1  0
  4  3  2  0
  4  5  1  0
  5  6  2  0
  6  1  1  0
  7  5  1  0
  7 11  1  0
  8  9  1  0
  8  7  1  0
  9 10  1  0
 11 10  1  0
 11 12  1  0
 12 13  2  0
 13 14  1  0
 15 14  2  0
 16 15  1  0
 17 16  2  0
 18 17  1  0
 19 20  1  0
 19 18  2  0
 20 21  2  0
 21 12  1  0
 21 16  1  0
 22 20  1  0
 23 22  1  0
 24 23  1  0
 25 24  1  0
 25 26  1  0
 26 22  1  0
  1 27  1  0
  2 28  1  0
  3 29  1  0
  8 30  1  0
  8 31  1  0
  9 32  1  0
  9 33  1  0
 10 34  1  0
 10 35  1  0
 11 36  1  6
 13 37  1  0
 14 38  1  0
 15 39  1  0
 17 40  1  0
 18 41  1  0
 19 42  1  0
 22 43  1  0
 23 44  1  0
 23 45  1  0
 24 46  1  0
 24 47  1  0
 25 48  1  0
 25 49  1  0
 26 50  1  0
 26 51  1  0
M  ISO  8  27  14  28  14  29  14  30  13  31  13  32  13  33  13  34  13
M  ISO  8  35  13  36  13  37  14  38  14  39  14  40  14  41  14  42  14
M  ISO  8  43  13  44  13  45  13  46  13  47  13  48  13  49  13  50  13
M  ISO  1  51  13
M  END
>  <minimizedAffinity>  (1) 
-6.24815273

>  <minimizedRMSD>  (1) 
0.373161197

$$$$
