
     RDKit          3D

 45 48  0  0  1  0  0  0  0  0999 V2000
   37.3130   28.8470   41.3010 C   0  0  0  0  0  0  0  0  0  0  0  0
   37.4840   29.3760   42.5950 C   0  0  0  0  0  0  0  0  0  0  0  0
   37.4580   28.5830   43.7460 C   0  0  0  0  0  0  0  0  0  0  0  0
   37.2610   27.2040   43.6200 C   0  0  0  0  0  0  0  0  0  0  0  0
   37.0940   26.6510   42.3580 C   0  0  0  0  0  0  0  0  0  0  0  0
   36.9300   25.3000   42.1640 C   0  0  0  0  0  0  0  0  0  0  0  0
   36.7950   24.7190   40.9230 C   0  0  0  0  0  0  0  0  0  0  0  0
   36.8360   25.6020   39.8640 C   0  0  0  0  0  0  0  0  0  0  0  0
   37.0010   26.9580   40.0480 C   0  0  0  0  0  0  0  0  0  0  0  0
   37.1290   27.4960   41.2820 C   0  0  0  0  0  0  0  0  0  0  0  0
   41.3360   28.5380   41.0730 C   0  0  0  0  0  0  0  0  0  0  0  0
   42.3160   28.7260   40.0720 C   0  0  0  0  0  0  0  0  0  0  0  0
   41.9550   29.4870   38.9580 C   0  0  0  0  0  0  0  0  0  0  0  0
   40.6780   30.0090   38.8890 N   0  0  0  0  0  0  0  0  0  0  0  0
   39.7970   29.8040   39.8550 C   0  0  0  0  0  0  0  0  0  0  0  0
   40.1320   29.0760   40.9280 N   0  0  0  0  0  0  0  0  0  0  0  0
   38.5190   30.3220   39.7390 N   0  0  0  0  0  0  0  0  0  0  0  0
   38.2220   31.5220   38.9490 C   0  0  0  0  0  0  0  0  0  0  0  0
   37.0220   32.0980   39.6000 C   0  0  0  0  0  0  0  0  0  0  0  0
   36.6280   31.1520   40.6970 C   0  0  0  0  0  0  0  0  0  0  0  0
   37.2490   29.8420   40.2800 C   0  0  2  0  0  0  0  0  0  0  0  0
   37.1580   27.6130   38.8010 N   0  0  0  0  0  0  0  0  0  0  0  0
   36.0680   27.7330   37.8210 C   0  0  0  0  0  0  0  0  0  0  0  0
   34.8590   27.9530   38.3360 N   0  0  0  0  0  0  0  0  0  0  0  0
   36.1630   27.6440   36.3680 N   0  0  0  0  0  0  0  0  0  0  0  0
   34.0840   28.0390   37.6560 H   0  0  0  0  0  0  0  0  0  0  0  0
   37.6448   30.4587   42.7046 H   0  0  0  0  0  0  0  0  0  0  0  0
   37.5909   29.0380   44.7386 H   0  0  0  0  0  0  0  0  0  0  0  0
   37.2386   26.5631   44.5137 H   0  0  0  0  0  0  0  0  0  0  0  0
   36.9053   24.6471   43.0490 H   0  0  0  0  0  0  0  0  0  0  0  0
   36.6646   23.6353   40.7867 H   0  0  0  0  0  0  0  0  0  0  0  0
   36.7338   25.2117   38.8406 H   0  0  0  0  0  0  0  0  0  0  0  0
   41.5711   27.9469   41.9704 H   0  0  0  0  0  0  0  0  0  0  0  0
   43.3218   28.2908   40.1665 H   0  0  0  0  0  0  0  0  0  0  0  0
   42.6767   29.6680   38.1478 H   0  0  0  0  0  0  0  0  0  0  0  0
   38.0091   31.2575   37.9027 H   0  0  0  0  0  0  0  0  0  0  0  0
   39.0656   32.2274   38.9209 H   0  0  0  0  0  0  0  0  0  0  0  0
   37.2567   33.0875   40.0193 H   0  0  0  0  0  0  0  0  0  0  0  0
   36.2035   32.2264   38.8764 H   0  0  0  0  0  0  0  0  0  0  0  0
   37.0291   31.4855   41.6654 H   0  0  0  0  0  0  0  0  0  0  0  0
   35.5382   31.0838   40.8300 H   0  0  0  0  0  0  0  0  0  0  0  0
   36.6629   29.2589   39.5544 H   0  0  0  0  0  0  0  0  0  0  0  0
   38.0747   28.0225   38.5713 H   0  0  0  0  0  0  0  0  0  0  0  0
   37.0754   27.4750   35.9209 H   0  0  0  0  0  0  0  0  0  0  0  0
   35.3177   27.7502   35.7892 H   0  0  0  0  0  0  0  0  0  0  0  0
  1  2  2  0
  2  3  1  0
  4  3  2  0
  5  4  1  0
  6  5  2  0
  7  6  1  0
  8  9  1  0
  8  7  2  0
  9 10  2  0
 10  1  1  0
 10  5  1  0
 12 11  2  0
 13 12  1  0
 14 13  2  0
 14 15  1  0
 15 16  2  0
 16 11  1  0
 17 15  1  0
 17 21  1  0
 18 19  1  0
 18 17  1  0
 19 20  1  0
 21 20  1  0
 21  1  1  0
 22  9  1  0
 23 24  2  0
 23 22  1  0
 25 23  1  0
 26 24  1  0
  2 27  1  0
  3 28  1  0
  4 29  1  0
  6 30  1  0
  7 31  1  0
  8 32  1  0
 11 33  1  0
 12 34  1  0
 13 35  1  0
 18 36  1  0
 18 37  1  0
 19 38  1  0
 19 39  1  0
 20 40  1  0
 20 41  1  0
 21 42  1  6
 22 43  1  0
 25 44  1  0
 25 45  1  0
M  ISO  8  27  14  28  14  29  14  30  14  31  14  32  14  33  14  34  14
M  ISO  8  35  14  36  13  37  13  38  13  39  13  40  13  41  13  42  13
M  END
>  <minimizedAffinity>  (1) 
-6.0074048

>  <minimizedRMSD>  (1) 
0.465137035

$$$$
