
     RDKit          3D

 24 26  0  0  0  0  0  0  0  0999 V2000
   37.8650   28.2140   42.3010 C   0  0  0  0  0  0  0  0  0  0  0  0
   36.5300   27.8090   42.2330 C   0  0  0  0  0  0  0  0  0  0  0  0
   35.8450   28.8020   41.6690 N   0  0  0  0  0  0  0  0  0  0  0  0
   36.6490   29.8440   41.3590 C   0  0  0  0  0  0  0  0  0  0  0  0
   36.3290   31.0540   40.7670 C   0  0  0  0  0  0  0  0  0  0  0  0
   37.3780   31.9530   40.5640 C   0  0  0  0  0  0  0  0  0  0  0  0
   38.6670   31.6280   40.9440 C   0  0  0  0  0  0  0  0  0  0  0  0
   38.9760   30.4140   41.5360 C   0  0  0  0  0  0  0  0  0  0  0  0
   37.9470   29.4970   41.7500 C   0  0  0  0  0  0  0  0  0  0  0  0
   41.1690   27.4860   43.6970 C   0  0  0  0  0  0  0  0  0  0  0  0
   41.1470   26.0720   43.8570 C   0  0  0  0  0  0  0  0  0  0  0  0
   39.9780   25.4000   43.4740 C   0  0  0  0  0  0  0  0  0  0  0  0
   38.9470   26.1270   42.9790 N   0  0  0  0  0  0  0  0  0  0  0  0
   38.9990   27.4660   42.8400 C   0  0  0  0  0  0  0  0  0  0  0  0
   40.1060   28.1330   43.1990 N   0  0  0  0  0  0  0  0  0  0  0  0
   36.1208   26.8489   42.5805 H   0  0  0  0  0  0  0  0  0  0  0  0
   34.8307   28.7792   41.4913 H   0  0  0  0  0  0  0  0  0  0  0  0
   35.2976   31.2956   40.4707 H   0  0  0  0  0  0  0  0  0  0  0  0
   37.1770   32.9287   40.0975 H   0  0  0  0  0  0  0  0  0  0  0  0
   39.4729   32.3564   40.7708 H   0  0  0  0  0  0  0  0  0  0  0  0
   40.0094   30.1787   41.8305 H   0  0  0  0  0  0  0  0  0  0  0  0
   42.0666   28.0531   43.9847 H   0  0  0  0  0  0  0  0  0  0  0  0
   42.0122   25.5286   44.2646 H   0  0  0  0  0  0  0  0  0  0  0  0
   39.8993   24.3073   43.5730 H   0  0  0  0  0  0  0  0  0  0  0  0
  1 14  1  0
  2  1  2  0
  3  2  1  0
  4  3  1  0
  4  9  2  0
  5  4  1  0
  6  5  2  0
  6  7  1  0
  7  8  2  0
  8  9  1  0
  9  1  1  0
 10 11  2  0
 12 11  1  0
 13 12  2  0
 14 13  1  0
 14 15  2  0
 15 10  1  0
  2 16  1  0
  3 17  1  0
  5 18  1  0
  6 19  1  0
  7 20  1  0
  8 21  1  0
 10 22  1  0
 11 23  1  0
 12 24  1  0
M  ISO  8  16  14  17   9  18  14  19  14  20  14  21  14  22  14  23  14
M  ISO  1  24  14
M  END
>  <minimizedAffinity>  (1) 
-4.69910765

>  <minimizedRMSD>  (1) 
3.23876929

$$$$
