
     RDKit          3D

 38 42  0  0  0  0  0  0  0  0999 V2000
   40.1680   27.9280   43.3260 C   0  0  0  0  0  0  0  0  0  0  0  0
   39.9160   26.5960   42.8990 C   0  0  0  0  0  0  0  0  0  0  0  0
   38.8970   26.4150   41.9670 C   0  0  0  0  0  0  0  0  0  0  0  0
   38.2300   27.5050   41.5420 N   0  0  0  0  0  0  0  0  0  0  0  0
   38.4800   28.7540   41.9560 C   0  0  0  0  0  0  0  0  0  0  0  0
   39.4530   28.9540   42.8490 N   0  0  0  0  0  0  0  0  0  0  0  0
   37.7220   29.8850   41.4560 C   0  0  0  0  0  0  0  0  0  0  0  0
   36.3360   30.0580   41.4460 C   0  0  0  0  0  0  0  0  0  0  0  0
   36.0890   31.2450   40.8940 N   0  0  0  0  0  0  0  0  0  0  0  0
   37.2300   31.8710   40.5350 C   0  0  0  0  0  0  0  0  0  0  0  0
   37.4040   33.1090   39.9360 C   0  0  0  0  0  0  0  0  0  0  0  0
   38.7100   33.5040   39.6800 C   0  0  0  0  0  0  0  0  0  0  0  0
   39.7730   32.6900   40.0100 C   0  0  0  0  0  0  0  0  0  0  0  0
   39.5860   31.4590   40.6080 C   0  0  0  0  0  0  0  0  0  0  0  0
   38.2910   31.0280   40.8820 C   0  0  0  0  0  0  0  0  0  0  0  0
   38.5750   25.0800   41.4770 C   0  0  0  0  0  0  0  0  0  0  0  0
   37.6620   24.2210   42.0480 C   0  0  0  0  0  0  0  0  0  0  0  0
   37.6620   23.0900   41.2880 N   0  0  0  0  0  0  0  0  0  0  0  0
   38.5580   23.2560   40.2760 C   0  0  0  0  0  0  0  0  0  0  0  0
   38.8910   22.3680   39.2620 C   0  0  0  0  0  0  0  0  0  0  0  0
   39.8470   22.7320   38.3060 C   0  0  0  0  0  0  0  0  0  0  0  0
   40.3990   23.9880   38.4540 C   0  0  0  0  0  0  0  0  0  0  0  0
   40.0920   24.8890   39.4430 C   0  0  0  0  0  0  0  0  0  0  0  0
   39.1450   24.4970   40.3710 C   0  0  0  0  0  0  0  0  0  0  0  0
   40.9640   28.1189   44.0608 H   0  0  0  0  0  0  0  0  0  0  0  0
   40.4988   25.7474   43.2867 H   0  0  0  0  0  0  0  0  0  0  0  0
   35.5873   29.3462   41.8238 H   0  0  0  0  0  0  0  0  0  0  0  0
   35.1459   31.6361   40.7581 H   0  0  0  0  0  0  0  0  0  0  0  0
   36.5475   33.7483   39.6758 H   0  0  0  0  0  0  0  0  0  0  0  0
   38.8994   34.4792   39.2077 H   0  0  0  0  0  0  0  0  0  0  0  0
   40.7961   33.0297   39.7914 H   0  0  0  0  0  0  0  0  0  0  0  0
   40.4493   30.8274   40.8644 H   0  0  0  0  0  0  0  0  0  0  0  0
   37.0517   24.4111   42.9432 H   0  0  0  0  0  0  0  0  0  0  0  0
   37.0837   22.2534   41.4509 H   0  0  0  0  0  0  0  0  0  0  0  0
   38.4056   21.3823   39.2099 H   0  0  0  0  0  0  0  0  0  0  0  0
   40.1400   22.0582   37.4874 H   0  0  0  0  0  0  0  0  0  0  0  0
   41.1523   24.2946   37.7133 H   0  0  0  0  0  0  0  0  0  0  0  0
   40.5761   25.8754   39.4948 H   0  0  0  0  0  0  0  0  0  0  0  0
  2  1  2  0
  3  2  1  0
  4  5  1  0
  4  3  2  0
  5  6  2  0
  6  1  1  0
  7  5  1  0
  8  7  2  0
  9  8  1  0
 10 15  2  0
 10  9  1  0
 11 10  1  0
 12 11  2  0
 12 13  1  0
 13 14  2  0
 14 15  1  0
 15  7  1  0
 16  3  1  0
 16 17  2  0
 18 17  1  0
 19 24  2  0
 19 18  1  0
 20 19  1  0
 21 22  1  0
 21 20  2  0
 22 23  2  0
 23 24  1  0
 24 16  1  0
  1 25  1  0
  2 26  1  0
  8 27  1  0
  9 28  1  0
 11 29  1  0
 12 30  1  0
 13 31  1  0
 14 32  1  0
 17 33  1  0
 18 34  1  0
 20 35  1  0
 21 36  1  0
 22 37  1  0
 23 38  1  0
M  ISO  8  25  14  26  14  27  14  28   9  29  14  30  14  31  14  32  14
M  ISO  6  33  14  34   9  35  14  36  14  37  14  38  14
M  END
>  <minimizedAffinity>  (1) 
-6.15974283

>  <minimizedRMSD>  (1) 
2.52305341

$$$$
