
     RDKit          3D

 38 41  0  0  0  0  0  0  0  0999 V2000
   37.0390   31.3680   40.1430 C   0  0  0  0  0  0  0  0  0  0  0  0
   36.3560   30.9860   41.3040 C   0  0  0  0  0  0  0  0  0  0  0  0
   35.5110   30.0140   40.9600 N   0  0  0  0  0  0  0  0  0  0  0  0
   35.5920   29.7290   39.6440 C   0  0  0  0  0  0  0  0  0  0  0  0
   34.9030   28.8010   38.8800 C   0  0  0  0  0  0  0  0  0  0  0  0
   35.1930   28.7220   37.5260 C   0  0  0  0  0  0  0  0  0  0  0  0
   36.1400   29.5480   36.9750 C   0  0  0  0  0  0  0  0  0  0  0  0
   36.8320   30.4790   37.7370 C   0  0  0  0  0  0  0  0  0  0  0  0
   36.5590   30.5770   39.0960 C   0  0  0  0  0  0  0  0  0  0  0  0
   38.6760   34.6300   40.2060 C   0  0  0  0  0  0  0  0  0  0  0  0
   39.9920   34.3470   39.7630 C   0  0  0  0  0  0  0  0  0  0  0  0
   40.2970   33.0050   39.4440 C   0  0  0  0  0  0  0  0  0  0  0  0
   39.3030   32.1130   39.5910 N   0  0  0  0  0  0  0  0  0  0  0  0
   38.0670   32.3960   40.0100 C   0  0  0  0  0  0  0  0  0  0  0  0
   37.7590   33.6540   40.3160 N   0  0  0  0  0  0  0  0  0  0  0  0
   41.5900   32.6190   38.9920 N   0  0  0  0  0  0  0  0  0  0  0  0
   41.8370   32.6440   37.5450 C   0  0  0  0  0  0  0  0  0  0  0  0
   43.2650   32.3700   37.2090 C   0  0  0  0  0  0  0  0  0  0  0  0
   44.1530   32.6520   38.2940 N   0  0  0  0  0  0  0  0  0  0  0  0
   43.8860   31.8350   39.4630 C   0  0  0  0  0  0  0  0  0  0  0  0
   42.5600   32.2300   40.0260 C   0  0  0  0  0  0  0  0  0  0  0  0
   36.4912   31.4084   42.3106 H   0  0  0  0  0  0  0  0  0  0  0  0
   34.8754   29.5397   41.6172 H   0  0  0  0  0  0  0  0  0  0  0  0
   34.1465   28.1447   39.3349 H   0  0  0  0  0  0  0  0  0  0  0  0
   34.6627   27.9957   36.8926 H   0  0  0  0  0  0  0  0  0  0  0  0
   36.3568   29.4701   35.8994 H   0  0  0  0  0  0  0  0  0  0  0  0
   37.5863   31.1304   37.2715 H   0  0  0  0  0  0  0  0  0  0  0  0
   38.4012   35.6635   40.4635 H   0  0  0  0  0  0  0  0  0  0  0  0
   40.7470   35.1417   39.6711 H   0  0  0  0  0  0  0  0  0  0  0  0
   41.2079   31.8796   37.0656 H   0  0  0  0  0  0  0  0  0  0  0  0
   41.5930   33.6524   37.1795 H   0  0  0  0  0  0  0  0  0  0  0  0
   43.3653   31.3083   36.9395 H   0  0  0  0  0  0  0  0  0  0  0  0
   43.5417   33.0305   36.3740 H   0  0  0  0  0  0  0  0  0  0  0  0
   45.1192   32.4767   37.9831 H   0  0  0  0  0  0  0  0  0  0  0  0
   43.8658   30.7731   39.1765 H   0  0  0  0  0  0  0  0  0  0  0  0
   44.6742   31.9855   40.2154 H   0  0  0  0  0  0  0  0  0  0  0  0
   42.7076   33.0817   40.7063 H   0  0  0  0  0  0  0  0  0  0  0  0
   42.1500   31.3533   40.5487 H   0  0  0  0  0  0  0  0  0  0  0  0
  1  2  2  0
  3  2  1  0
  4  3  1  0
  5  4  2  0
  6  5  1  0
  7  6  2  0
  7  8  1  0
  8  9  2  0
  9  4  1  0
  9  1  1  0
 10 15  2  0
 11 10  1  0
 12 13  1  0
 12 11  2  0
 13 14  2  0
 14  1  1  0
 14 15  1  0
 16 12  1  0
 16 21  1  0
 17 16  1  0
 18 17  1  0
 18 19  1  0
 19 20  1  0
 20 21  1  0
  2 22  1  0
  3 23  1  0
  5 24  1  0
  6 25  1  0
  7 26  1  0
  8 27  1  0
 10 28  1  0
 11 29  1  0
 17 30  1  0
 17 31  1  0
 18 32  1  0
 18 33  1  0
 19 34  1  0
 20 35  1  0
 20 36  1  0
 21 37  1  0
 21 38  1  0
M  ISO  8  22  14  23   9  24  14  25  14  26  14  27  14  28  14  29  14
M  ISO  8  30  13  31  13  32  13  33  13  34   5  35  13  36  13  37  13
M  ISO  1  38  13
M  END
>  <minimizedAffinity>  (1) 
-5.94688511

>  <minimizedRMSD>  (1) 
7.81498432

$$$$
