
     RDKit          3D

 27 29  0  0  0  0  0  0  0  0999 V2000
   37.9310   30.9870   40.9040 C   0  0  0  0  0  0  0  0  0  0  0  0
   36.5380   31.1070   40.8750 C   0  0  0  0  0  0  0  0  0  0  0  0
   36.0570   30.1560   41.6810 N   0  0  0  0  0  0  0  0  0  0  0  0
   37.0440   29.4240   42.2340 C   0  0  0  0  0  0  0  0  0  0  0  0
   36.9690   28.3600   43.1120 C   0  0  0  0  0  0  0  0  0  0  0  0
   38.1630   27.7860   43.5230 C   0  0  0  0  0  0  0  0  0  0  0  0
   39.3640   28.2720   43.0650 C   0  0  0  0  0  0  0  0  0  0  0  0
   39.4370   29.3380   42.1860 C   0  0  0  0  0  0  0  0  0  0  0  0
   38.2500   29.9330   41.7550 C   0  0  0  0  0  0  0  0  0  0  0  0
   40.4190   32.0050   38.4240 C   0  0  0  0  0  0  0  0  0  0  0  0
   40.7380   33.3440   38.8250 C   0  0  0  0  0  0  0  0  0  0  0  0
   40.0830   33.8640   39.9480 C   0  0  0  0  0  0  0  0  0  0  0  0
   39.1850   33.0730   40.5900 N   0  0  0  0  0  0  0  0  0  0  0  0
   38.9080   31.8090   40.1810 C   0  0  0  0  0  0  0  0  0  0  0  0
   39.5210   31.2760   39.1050 N   0  0  0  0  0  0  0  0  0  0  0  0
   40.3750   35.2290   40.3980 C   0  0  0  0  0  0  0  0  0  0  0  0
   39.3270   35.8030   41.1050 F   0  0  0  0  0  0  0  0  0  0  0  0
   41.4750   35.1980   41.2290 F   0  0  0  0  0  0  0  0  0  0  0  0
   40.5960   36.0320   39.3000 F   0  0  0  0  0  0  0  0  0  0  0  0
   35.9529   31.8406   40.3011 H   0  0  0  0  0  0  0  0  0  0  0  0
   35.0542   30.0013   41.8580 H   0  0  0  0  0  0  0  0  0  0  0  0
   36.0002   27.9827   43.4712 H   0  0  0  0  0  0  0  0  0  0  0  0
   38.1484   26.9356   44.2206 H   0  0  0  0  0  0  0  0  0  0  0  0
   40.2961   27.7990   43.4078 H   0  0  0  0  0  0  0  0  0  0  0  0
   40.4108   29.7092   41.8339 H   0  0  0  0  0  0  0  0  0  0  0  0
   40.9173   31.5689   37.5457 H   0  0  0  0  0  0  0  0  0  0  0  0
   41.4735   33.9434   38.2685 H   0  0  0  0  0  0  0  0  0  0  0  0
  1  9  1  0
  2  1  2  0
  2  3  1  0
  3  4  1  0
  4  5  2  0
  5  6  1  0
  7  6  2  0
  8  7  1  0
  9  8  2  0
  9  4  1  0
 10 11  2  0
 10 15  1  0
 11 12  1  0
 12 16  1  0
 12 13  2  0
 14 13  1  0
 14  1  1  0
 15 14  2  0
 16 17  1  0
 16 18  1  0
 19 16  1  0
  2 20  1  0
  3 21  1  0
  5 22  1  0
  6 23  1  0
  7 24  1  0
  8 25  1  0
 10 26  1  0
 11 27  1  0
M  ISO  8  20  14  21   9  22  14  23  14  24  14  25  14  26  14  27  14
M  END
>  <minimizedAffinity>  (1) 
-5.86486244

>  <minimizedRMSD>  (1) 
7.35708761

$$$$
