
     RDKit          3D

 26 28  0  0  0  0  0  0  0  0999 V2000
   37.3890   30.6220   41.2340 C   0  0  0  0  0  0  0  0  0  0  0  0
   36.2930   31.3420   40.7840 C   0  0  0  0  0  0  0  0  0  0  0  0
   36.7450   32.5150   40.3400 N   0  0  0  0  0  0  0  0  0  0  0  0
   38.0800   32.6120   40.4710 C   0  0  0  0  0  0  0  0  0  0  0  0
   38.9260   33.6490   40.1340 C   0  0  0  0  0  0  0  0  0  0  0  0
   40.2820   33.4720   40.3850 C   0  0  0  0  0  0  0  0  0  0  0  0
   40.7530   32.2980   40.9490 C   0  0  0  0  0  0  0  0  0  0  0  0
   39.9060   31.2650   41.2830 C   0  0  0  0  0  0  0  0  0  0  0  0
   38.5360   31.4130   41.0430 C   0  0  0  0  0  0  0  0  0  0  0  0
   37.6860   27.8990   43.6680 C   0  0  0  0  0  0  0  0  0  0  0  0
   37.4940   26.7390   42.8830 C   0  0  0  0  0  0  0  0  0  0  0  0
   37.2670   26.9390   41.5240 C   0  0  0  0  0  0  0  0  0  0  0  0
   37.2380   28.1900   41.0230 N   0  0  0  0  0  0  0  0  0  0  0  0
   37.4270   29.2770   41.8140 C   0  0  0  0  0  0  0  0  0  0  0  0
   37.6480   29.1270   43.1260 N   0  0  0  0  0  0  0  0  0  0  0  0
   37.0600   25.7900   40.6510 C   0  0  0  0  0  0  0  0  0  0  0  0
   37.2620   25.8930   39.4130 O   0  0  0  0  0  0  0  0  0  0  0  0
   35.2451   31.0075   40.7918 H   0  0  0  0  0  0  0  0  0  0  0  0
   36.1464   33.2547   39.9458 H   0  0  0  0  0  0  0  0  0  0  0  0
   38.5432   34.5775   39.6852 H   0  0  0  0  0  0  0  0  0  0  0  0
   40.9901   34.2750   40.1323 H   0  0  0  0  0  0  0  0  0  0  0  0
   41.8316   32.1880   41.1349 H   0  0  0  0  0  0  0  0  0  0  0  0
   40.2996   30.3404   41.7304 H   0  0  0  0  0  0  0  0  0  0  0  0
   37.8707   27.7932   44.7472 H   0  0  0  0  0  0  0  0  0  0  0  0
   37.5225   25.7312   43.3229 H   0  0  0  0  0  0  0  0  0  0  0  0
   36.7267   24.8313   41.0750 H   0  0  0  0  0  0  0  0  0  0  0  0
  1 14  1  0
  2  1  2  0
  3  4  1  0
  3  2  1  0
  4  9  2  0
  5  6  2  0
  5  4  1  0
  6  7  1  0
  7  8  2  0
  9  1  1  0
  9  8  1  0
 11 10  2  0
 12 11  1  0
 13 12  2  0
 13 14  1  0
 14 15  2  0
 15 10  1  0
 16 12  1  0
 17 16  2  0
  2 18  1  0
  3 19  1  0
  5 20  1  0
  6 21  1  0
  7 22  1  0
  8 23  1  0
 10 24  1  0
 11 25  1  0
 16 26  1  0
M  ISO  8  18  14  19   9  20  14  21  14  22  14  23  14  24  14  25  14
M  ISO  1  26   6
M  END
>  <minimizedAffinity>  (1) 
-4.99505329

>  <minimizedRMSD>  (1) 
3.35962605

$$$$
