
     RDKit          3D

 35 38  0  0  0  0  0  0  0  0999 V2000
   39.9430   27.1260   43.7340 C   0  0  0  0  0  0  0  0  0  0  0  0
   39.6880   25.7530   43.4300 C   0  0  0  0  0  0  0  0  0  0  0  0
   38.6130   25.4310   42.5600 C   0  0  0  0  0  0  0  0  0  0  0  0
   37.9040   26.4700   42.0810 N   0  0  0  0  0  0  0  0  0  0  0  0
   38.1720   27.7630   42.3860 C   0  0  0  0  0  0  0  0  0  0  0  0
   39.1710   28.0920   43.1980 N   0  0  0  0  0  0  0  0  0  0  0  0
   37.3240   28.8180   41.7920 C   0  0  0  0  0  0  0  0  0  0  0  0
   35.9750   28.7920   41.4920 C   0  0  0  0  0  0  0  0  0  0  0  0
   35.6650   29.9810   40.9640 N   0  0  0  0  0  0  0  0  0  0  0  0
   36.7310   30.7840   40.8990 C   0  0  0  0  0  0  0  0  0  0  0  0
   36.8330   32.0740   40.4240 C   0  0  0  0  0  0  0  0  0  0  0  0
   38.0890   32.6660   40.4830 C   0  0  0  0  0  0  0  0  0  0  0  0
   39.1700   31.9940   40.9880 C   0  0  0  0  0  0  0  0  0  0  0  0
   39.0870   30.7100   41.4650 C   0  0  0  0  0  0  0  0  0  0  0  0
   37.8230   30.0880   41.4180 C   0  0  0  0  0  0  0  0  0  0  0  0
   38.3500   24.1300   42.2560 O   0  0  0  0  0  0  0  0  0  0  0  0
   37.5970   23.6700   41.2290 C   0  0  0  0  0  0  0  0  0  0  0  0
   38.3490   22.7300   40.5170 C   0  0  0  0  0  0  0  0  0  0  0  0
   37.8280   22.0750   39.3910 C   0  0  0  0  0  0  0  0  0  0  0  0
   36.5470   22.3720   38.9820 C   0  0  0  0  0  0  0  0  0  0  0  0
   35.7840   23.2940   39.6660 C   0  0  0  0  0  0  0  0  0  0  0  0
   36.3260   23.9160   40.7650 C   0  0  0  0  0  0  0  0  0  0  0  0
   40.7708   27.3948   44.4066 H   0  0  0  0  0  0  0  0  0  0  0  0
   40.3141   24.9589   43.8628 H   0  0  0  0  0  0  0  0  0  0  0  0
   35.2855   27.9509   41.6567 H   0  0  0  0  0  0  0  0  0  0  0  0
   34.7213   30.2450   40.6467 H   0  0  0  0  0  0  0  0  0  0  0  0
   35.9621   32.6092   40.0177 H   0  0  0  0  0  0  0  0  0  0  0  0
   38.2174   33.6952   40.1166 H   0  0  0  0  0  0  0  0  0  0  0  0
   40.1443   32.5041   41.0123 H   0  0  0  0  0  0  0  0  0  0  0  0
   39.9685   30.1888   41.8666 H   0  0  0  0  0  0  0  0  0  0  0  0
   39.3724   22.4989   40.8474 H   0  0  0  0  0  0  0  0  0  0  0  0
   38.4326   21.3366   38.8440 H   0  0  0  0  0  0  0  0  0  0  0  0
   36.1277   21.8675   38.0990 H   0  0  0  0  0  0  0  0  0  0  0  0
   34.7603   23.5275   39.3382 H   0  0  0  0  0  0  0  0  0  0  0  0
   35.7094   24.6510   41.3031 H   0  0  0  0  0  0  0  0  0  0  0  0
  2  1  2  0
  3  2  1  0
  4  5  1  0
  4  3  2  0
  5  6  2  0
  6  1  1  0
  7  5  1  0
  8  7  2  0
  9  8  1  0
 10  9  1  0
 10 15  2  0
 11 12  2  0
 11 10  1  0
 12 13  1  0
 13 14  2  0
 15 14  1  0
 15  7  1  0
 16  3  1  0
 17 16  1  0
 18 17  2  0
 19 18  1  0
 20 19  2  0
 20 21  1  0
 21 22  2  0
 22 17  1  0
  1 23  1  0
  2 24  1  0
  8 25  1  0
  9 26  1  0
 11 27  1  0
 12 28  1  0
 13 29  1  0
 14 30  1  0
 18 31  1  0
 19 32  1  0
 20 33  1  0
 21 34  1  0
 22 35  1  0
M  ISO  8  23  14  24  14  25  14  26   9  27  14  28  14  29  14  30  14
M  ISO  5  31  14  32  14  33  14  34  14  35  14
M  END
>  <minimizedAffinity>  (1) 
-5.93466759

>  <minimizedRMSD>  (1) 
1.62855196

$$$$
