
     RDKit          3D

 29 31  0  0  0  0  0  0  0  0999 V2000
   37.3500   28.8270   41.7860 C   0  0  0  0  0  0  0  0  0  0  0  0
   35.9930   28.7690   41.4900 C   0  0  0  0  0  0  0  0  0  0  0  0
   35.6560   29.9390   40.9620 N   0  0  0  0  0  0  0  0  0  0  0  0
   36.7070   30.7770   40.8880 C   0  0  0  0  0  0  0  0  0  0  0  0
   36.7820   32.0650   40.4120 C   0  0  0  0  0  0  0  0  0  0  0  0
   38.0280   32.6920   40.4650 C   0  0  0  0  0  0  0  0  0  0  0  0
   39.1270   32.0430   40.9710 C   0  0  0  0  0  0  0  0  0  0  0  0
   39.0450   30.7460   41.4490 C   0  0  0  0  0  0  0  0  0  0  0  0
   37.8090   30.0900   41.4090 C   0  0  0  0  0  0  0  0  0  0  0  0
   40.0510   27.2290   43.6820 C   0  0  0  0  0  0  0  0  0  0  0  0
   39.7860   25.8430   43.4940 C   0  0  0  0  0  0  0  0  0  0  0  0
   38.6730   25.4870   42.7120 C   0  0  0  0  0  0  0  0  0  0  0  0
   37.9060   26.4800   42.1750 N   0  0  0  0  0  0  0  0  0  0  0  0
   38.2080   27.7820   42.3870 C   0  0  0  0  0  0  0  0  0  0  0  0
   39.2530   28.1420   43.1220 N   0  0  0  0  0  0  0  0  0  0  0  0
   38.3330   24.1560   42.4710 O   0  0  0  0  0  0  0  0  0  0  0  0
   38.6770   23.6500   41.2270 C   0  0  0  0  0  0  0  0  0  0  0  0
   38.0570   22.4260   40.8160 N   0  0  0  0  0  0  0  0  0  0  0  0
   39.5100   24.2570   40.4910 O   0  0  0  0  0  0  0  0  0  0  0  0
   35.3236   27.9132   41.6614 H   0  0  0  0  0  0  0  0  0  0  0  0
   34.7048   30.1772   40.6468 H   0  0  0  0  0  0  0  0  0  0  0  0
   35.8980   32.5791   40.0068 H   0  0  0  0  0  0  0  0  0  0  0  0
   38.1311   33.7229   40.0953 H   0  0  0  0  0  0  0  0  0  0  0  0
   40.0947   32.5653   40.9973 H   0  0  0  0  0  0  0  0  0  0  0  0
   39.9347   30.2405   41.8527 H   0  0  0  0  0  0  0  0  0  0  0  0
   40.9121   27.5477   44.2878 H   0  0  0  0  0  0  0  0  0  0  0  0
   40.4312   25.0752   43.9460 H   0  0  0  0  0  0  0  0  0  0  0  0
   38.2848   22.0159   39.8990 H   0  0  0  0  0  0  0  0  0  0  0  0
   37.3834   21.9559   41.4374 H   0  0  0  0  0  0  0  0  0  0  0  0
  1 14  1  0
  2  1  2  0
  3  2  1  0
  4  3  1  0
  4  9  2  0
  5  6  2  0
  5  4  1  0
  6  7  1  0
  7  8  2  0
  9  8  1  0
  9  1  1  0
 11 10  2  0
 12 11  1  0
 13 14  1  0
 13 12  2  0
 14 15  2  0
 15 10  1  0
 16 12  1  0
 17 16  1  0
 18 17  1  0
 19 17  2  0
  2 20  1  0
  3 21  1  0
  5 22  1  0
  6 23  1  0
  7 24  1  0
  8 25  1  0
 10 26  1  0
 11 27  1  0
 18 28  1  0
 18 29  1  0
M  ISO  8  20  14  21   9  22  14  23  14  24  14  25  14  26  14  27  14
M  END
>  <minimizedAffinity>  (1) 
-5.24157238

>  <minimizedRMSD>  (1) 
1.27940488

$$$$
