./init_pose/1_0.pdbqt
     RDKit          3D

 10 10  0  0  0  0  0  0  0  0999 V2000
   38.2640   29.0830   43.2840 C   0  0  0  0  0  0  0  0  0  0  0  0
   37.6190   27.8910   43.6800 C   0  0  0  0  0  0  0  0  0  0  0  0
   36.5590   27.4270   42.8870 C   0  0  0  0  0  0  0  0  0  0  0  0
   36.2110   28.1550   41.7850 N   0  0  0  0  0  0  0  0  0  0  0  0
   36.8530   29.2930   41.4370 C   0  0  0  0  0  0  0  0  0  0  0  0
   37.8760   29.7500   42.1840 N   0  0  0  0  0  0  0  0  0  0  0  0
   39.0982   29.4722   43.8862 H   0  0  0  0  0  0  0  0  0  0  0  0
   37.9371   27.3446   44.5801 H   0  0  0  0  0  0  0  0  0  0  0  0
   36.0227   26.5021   43.1456 H   0  0  0  0  0  0  0  0  0  0  0  0
   36.5385   29.8474   40.5405 H   0  0  0  0  0  0  0  0  0  0  0  0
  1  2  2  0
  3  2  1  0
  4  3  2  0
  5  4  1  0
  5  6  2  0
  6  1  1  0
  1  7  1  0
  2  8  1  0
  3  9  1  0
  5 10  1  0
M  ISO  4   7  14   8  14   9  14  10  14
M  END
>  <MODEL>  (1) 
1

>  <REMARK>  (1) 
 minimizedAffinity -2.33830738REMARK  Name = 7
  0 active torsions:
  status: ('A' for Active; 'I' for Inactive)
                            x       y       z     vdW  Elec       q    Type
                         _______ _______ _______ _____ _____    ______ ____

>  <TORSDO>  (1) 
F 0

$$$$
