
     RDKit          3D

 44 47  0  0  0  0  0  0  0  0999 V2000
   41.4650   31.5410   39.4650 C   0  0  0  0  0  0  0  0  0  0  0  0
   41.6500   32.9120   39.7590 C   0  0  0  0  0  0  0  0  0  0  0  0
   40.7020   33.5710   40.5530 C   0  0  0  0  0  0  0  0  0  0  0  0
   39.6210   32.8620   41.0240 N   0  0  0  0  0  0  0  0  0  0  0  0
   39.4850   31.5480   40.7170 C   0  0  0  0  0  0  0  0  0  0  0  0
   40.3900   30.8930   39.9490 N   0  0  0  0  0  0  0  0  0  0  0  0
   38.3360   30.7860   41.2150 C   0  0  0  0  0  0  0  0  0  0  0  0
   36.9790   31.0350   40.9750 C   0  0  0  0  0  0  0  0  0  0  0  0
   36.3050   30.0880   41.6270 N   0  0  0  0  0  0  0  0  0  0  0  0
   37.1180   29.2410   42.2730 C   0  0  0  0  0  0  0  0  0  0  0  0
   36.8310   28.1360   43.0560 C   0  0  0  0  0  0  0  0  0  0  0  0
   37.8890   27.4420   43.6040 C   0  0  0  0  0  0  0  0  0  0  0  0
   39.1610   27.8270   43.3830 C   0  0  0  0  0  0  0  0  0  0  0  0
   39.4660   28.9280   42.6030 C   0  0  0  0  0  0  0  0  0  0  0  0
   38.4090   29.6600   42.0290 C   0  0  0  0  0  0  0  0  0  0  0  0
   42.8270   33.6170   39.2250 C   0  0  0  0  0  0  0  0  0  0  0  0
   43.8290   34.0160   40.2850 C   0  0  0  0  0  0  0  0  0  0  0  0
   45.2260   33.6070   39.9230 C   0  0  0  0  0  0  0  0  0  0  0  0
   45.6390   34.1420   38.5700 C   0  0  0  0  0  0  0  0  0  0  0  0
   44.6020   33.7710   37.5650 C   0  0  0  0  0  0  0  0  0  0  0  0
   43.5340   32.8490   38.1170 C   0  0  0  0  0  0  0  0  0  0  0  0
   40.8360   34.8940   40.8640 O   0  0  0  0  0  0  0  0  0  0  0  0
   40.1650   35.8690   40.1060 C   0  0  0  0  0  0  0  0  0  0  0  0
   40.9040   36.1360   38.9860 F   0  0  0  0  0  0  0  0  0  0  0  0
   39.9530   37.0390   40.8570 F   0  0  0  0  0  0  0  0  0  0  0  0
   38.9450   35.3380   39.7480 F   0  0  0  0  0  0  0  0  0  0  0  0
   42.1977   31.0063   38.8427 H   0  0  0  0  0  0  0  0  0  0  0  0
   36.5543   31.8493   40.3695 H   0  0  0  0  0  0  0  0  0  0  0  0
   35.2776   30.0155   41.6336 H   0  0  0  0  0  0  0  0  0  0  0  0
   35.7922   27.8217   43.2353 H   0  0  0  0  0  0  0  0  0  0  0  0
   37.6914   26.5603   44.2314 H   0  0  0  0  0  0  0  0  0  0  0  0
   39.9804   27.2494   43.8357 H   0  0  0  0  0  0  0  0  0  0  0  0
   40.5117   29.2252   42.4348 H   0  0  0  0  0  0  0  0  0  0  0  0
   42.4075   34.5384   38.7949 H   0  0  0  0  0  0  0  0  0  0  0  0
   43.7998   35.1088   40.4074 H   0  0  0  0  0  0  0  0  0  0  0  0
   43.5569   33.5025   41.2189 H   0  0  0  0  0  0  0  0  0  0  0  0
   45.9184   33.9945   40.6848 H   0  0  0  0  0  0  0  0  0  0  0  0
   45.2583   32.5084   39.8789 H   0  0  0  0  0  0  0  0  0  0  0  0
   45.7306   35.2371   38.6186 H   0  0  0  0  0  0  0  0  0  0  0  0
   46.6088   33.7115   38.2800 H   0  0  0  0  0  0  0  0  0  0  0  0
   45.0974   33.2662   36.7225 H   0  0  0  0  0  0  0  0  0  0  0  0
   44.1014   34.7004   37.2557 H   0  0  0  0  0  0  0  0  0  0  0  0
   42.8189   32.5799   37.3257 H   0  0  0  0  0  0  0  0  0  0  0  0
   43.9740   31.9161   38.4993 H   0  0  0  0  0  0  0  0  0  0  0  0
  1  2  2  0
  1  6  1  0
  2  3  1  0
  3 22  1  0
  3  4  2  0
  5  4  1  0
  5  7  1  0
  6  5  2  0
  7 15  1  0
  8  7  2  0
  8  9  1  0
  9 10  1  0
 10 11  2  0
 11 12  1  0
 13 12  2  0
 14 13  1  0
 15 10  1  0
 15 14  2  0
 16  2  1  0
 16 17  1  0
 18 17  1  0
 19 18  1  0
 20 21  1  0
 20 19  1  0
 21 16  1  0
 23 25  1  0
 23 22  1  0
 24 23  1  0
 26 23  1  0
  1 27  1  0
  8 28  1  0
  9 29  1  0
 11 30  1  0
 12 31  1  0
 13 32  1  0
 14 33  1  0
 16 34  1  0
 17 35  1  0
 17 36  1  0
 18 37  1  0
 18 38  1  0
 19 39  1  0
 19 40  1  0
 20 41  1  0
 20 42  1  0
 21 43  1  0
 21 44  1  0
M  ISO  8  27  14  28  14  29   9  30  14  31  14  32  14  33  14  34  13
M  ISO  8  35  13  36  13  37  13  38  13  39  13  40  13  41  13  42  13
M  ISO  2  43  13  44  13
M  END
>  <minimizedAffinity>  (1) 
-6.48947239

>  <minimizedRMSD>  (1) 
1.94240963

$$$$
