
     RDKit          3D

 30 32  0  0  0  0  0  0  0  0999 V2000
   38.0940   30.1130   41.1680 C   0  0  0  0  0  0  0  0  0  0  0  0
   36.7210   30.1530   41.4460 C   0  0  0  0  0  0  0  0  0  0  0  0
   36.4930   29.2480   42.3960 N   0  0  0  0  0  0  0  0  0  0  0  0
   37.6250   28.6160   42.7570 C   0  0  0  0  0  0  0  0  0  0  0  0
   37.8450   27.6190   43.6940 C   0  0  0  0  0  0  0  0  0  0  0  0
   39.1260   27.1480   43.8620 C   0  0  0  0  0  0  0  0  0  0  0  0
   40.1430   27.6600   43.1210 C   0  0  0  0  0  0  0  0  0  0  0  0
   39.9460   28.6570   42.1800 C   0  0  0  0  0  0  0  0  0  0  0  0
   38.6500   29.1420   42.0000 C   0  0  0  0  0  0  0  0  0  0  0  0
   39.8740   31.0090   38.1100 C   0  0  0  0  0  0  0  0  0  0  0  0
   40.1890   32.3890   38.3190 C   0  0  0  0  0  0  0  0  0  0  0  0
   39.7690   32.9760   39.5290 C   0  0  0  0  0  0  0  0  0  0  0  0
   39.0880   32.2280   40.4520 N   0  0  0  0  0  0  0  0  0  0  0  0
   38.8170   30.9230   40.2000 C   0  0  0  0  0  0  0  0  0  0  0  0
   39.2040   30.3200   39.0480 N   0  0  0  0  0  0  0  0  0  0  0  0
   40.8890   33.1480   37.3650 N   0  0  0  0  0  0  0  0  0  0  0  0
   40.0390   34.2960   39.7890 O   0  0  0  0  0  0  0  0  0  0  0  0
   39.0170   35.1620   40.2100 C   0  0  0  0  0  0  0  0  0  0  0  0
   39.3030   36.4290   39.7840 F   0  0  0  0  0  0  0  0  0  0  0  0
   38.8720   35.1400   41.6110 F   0  0  0  0  0  0  0  0  0  0  0  0
   37.8460   34.7080   39.6280 F   0  0  0  0  0  0  0  0  0  0  0  0
   35.9748   30.8066   40.9707 H   0  0  0  0  0  0  0  0  0  0  0  0
   35.5667   29.0559   42.8033 H   0  0  0  0  0  0  0  0  0  0  0  0
   37.0139   27.2136   44.2898 H   0  0  0  0  0  0  0  0  0  0  0  0
   39.3275   26.3554   44.5976 H   0  0  0  0  0  0  0  0  0  0  0  0
   41.1596   27.2686   43.2739 H   0  0  0  0  0  0  0  0  0  0  0  0
   40.7863   29.0547   41.5920 H   0  0  0  0  0  0  0  0  0  0  0  0
   40.1814   30.5111   37.1785 H   0  0  0  0  0  0  0  0  0  0  0  0
   41.0987   34.1395   37.5489 H   0  0  0  0  0  0  0  0  0  0  0  0
   41.1922   32.7126   36.4822 H   0  0  0  0  0  0  0  0  0  0  0  0
  1  2  2  0
  1  9  1  0
  2  3  1  0
  3  4  1  0
  4  5  2  0
  5  6  1  0
  7  6  2  0
  8  7  1  0
  9  8  2  0
  9  4  1  0
 10 11  2  0
 10 15  1  0
 11 12  1  0
 12 17  1  0
 12 13  2  0
 14 13  1  0
 14  1  1  0
 15 14  2  0
 16 11  1  0
 17 18  1  0
 18 20  1  0
 19 18  1  0
 21 18  1  0
  2 22  1  0
  3 23  1  0
  5 24  1  0
  6 25  1  0
  7 26  1  0
  8 27  1  0
 10 28  1  0
 16 29  1  0
 16 30  1  0
M  ISO  7  22  14  23   9  24  14  25  14  26  14  27  14  28  14
M  END
>  <minimizedAffinity>  (1) 
-6.40523529

>  <minimizedRMSD>  (1) 
0.0478919074

$$$$
