
     RDKit          3D

 31 33  0  0  0  0  0  0  0  0999 V2000
   40.4860   32.4750   38.2060 C   0  0  0  0  0  0  0  0  0  0  0  0
   41.0770   33.6200   38.8150 C   0  0  0  0  0  0  0  0  0  0  0  0
   40.6570   33.9870   40.0940 C   0  0  0  0  0  0  0  0  0  0  0  0
   39.6880   33.2340   40.7220 N   0  0  0  0  0  0  0  0  0  0  0  0
   39.1550   32.1520   40.1030 C   0  0  0  0  0  0  0  0  0  0  0  0
   39.5460   31.7760   38.8630 N   0  0  0  0  0  0  0  0  0  0  0  0
   38.1310   31.3500   40.7570 C   0  0  0  0  0  0  0  0  0  0  0  0
   36.7330   31.5080   40.6500 C   0  0  0  0  0  0  0  0  0  0  0  0
   36.1830   30.5690   41.4060 N   0  0  0  0  0  0  0  0  0  0  0  0
   37.1160   29.8030   42.0030 C   0  0  0  0  0  0  0  0  0  0  0  0
   36.9780   28.7300   42.8590 C   0  0  0  0  0  0  0  0  0  0  0  0
   38.1360   28.1220   43.3280 C   0  0  0  0  0  0  0  0  0  0  0  0
   39.3570   28.5730   42.9520 C   0  0  0  0  0  0  0  0  0  0  0  0
   39.5110   29.6490   42.0920 C   0  0  0  0  0  0  0  0  0  0  0  0
   38.3560   30.2760   41.6080 C   0  0  0  0  0  0  0  0  0  0  0  0
   42.1110   34.4370   38.1640 C   0  0  0  0  0  0  0  0  0  0  0  0
   42.4260   33.9620   36.9030 F   0  0  0  0  0  0  0  0  0  0  0  0
   43.2700   34.3400   38.9030 F   0  0  0  0  0  0  0  0  0  0  0  0
   41.7470   35.7520   38.0900 F   0  0  0  0  0  0  0  0  0  0  0  0
   41.1770   35.0790   40.7500 O   0  0  0  0  0  0  0  0  0  0  0  0
   40.4410   36.2530   40.8870 C   0  0  0  0  0  0  0  0  0  0  0  0
   41.2350   37.3290   40.5670 F   0  0  0  0  0  0  0  0  0  0  0  0
   39.9170   36.3940   42.1740 F   0  0  0  0  0  0  0  0  0  0  0  0
   39.3820   36.1740   39.9850 F   0  0  0  0  0  0  0  0  0  0  0  0
   40.7995   32.1640   37.1985 H   0  0  0  0  0  0  0  0  0  0  0  0
   36.2020   32.2648   40.0539 H   0  0  0  0  0  0  0  0  0  0  0  0
   35.1677   30.4408   41.5226 H   0  0  0  0  0  0  0  0  0  0  0  0
   35.9840   28.3677   43.1603 H   0  0  0  0  0  0  0  0  0  0  0  0
   38.0605   27.2644   44.0127 H   0  0  0  0  0  0  0  0  0  0  0  0
   40.2541   28.0695   43.3414 H   0  0  0  0  0  0  0  0  0  0  0  0
   40.5112   30.0002   41.7982 H   0  0  0  0  0  0  0  0  0  0  0  0
  1  2  2  0
  1  6  1  0
  2  3  1  0
  3  4  2  0
  3 20  1  0
  5  4  1  0
  5  7  1  0
  6  5  2  0
  7 15  1  0
  8  7  2  0
  8  9  1  0
  9 10  1  0
 10 11  2  0
 11 12  1  0
 13 12  2  0
 14 13  1  0
 15 10  1  0
 15 14  2  0
 16  2  1  0
 16 18  1  0
 17 16  1  0
 19 16  1  0
 20 21  1  0
 21 23  1  0
 22 21  1  0
 24 21  1  0
  1 25  1  0
  8 26  1  0
  9 27  1  0
 11 28  1  0
 12 29  1  0
 13 30  1  0
 14 31  1  0
M  ISO  7  25  14  26  14  27   9  28  14  29  14  30  14  31  14
M  END
>  <minimizedAffinity>  (1) 
-6.39010525

>  <minimizedRMSD>  (1) 
1.63412869

$$$$
