
     RDKit          3D

 41 44  0  0  0  0  0  0  0  0999 V2000
   41.6900   31.1560   39.5210 C   0  0  0  0  0  0  0  0  0  0  0  0
   41.9650   32.5320   39.7700 C   0  0  0  0  0  0  0  0  0  0  0  0
   41.0370   33.2710   40.5310 C   0  0  0  0  0  0  0  0  0  0  0  0
   39.9200   32.6460   40.9980 N   0  0  0  0  0  0  0  0  0  0  0  0
   39.6980   31.3330   40.7360 C   0  0  0  0  0  0  0  0  0  0  0  0
   40.5670   30.6000   40.0110 N   0  0  0  0  0  0  0  0  0  0  0  0
   38.5030   30.6630   41.2350 C   0  0  0  0  0  0  0  0  0  0  0  0
   37.1600   31.0070   40.9710 C   0  0  0  0  0  0  0  0  0  0  0  0
   36.4100   30.1300   41.6260 N   0  0  0  0  0  0  0  0  0  0  0  0
   37.1520   29.2360   42.2990 C   0  0  0  0  0  0  0  0  0  0  0  0
   36.7720   28.1720   43.0940 C   0  0  0  0  0  0  0  0  0  0  0  0
   37.7660   27.4070   43.6720 C   0  0  0  0  0  0  0  0  0  0  0  0
   39.0670   27.7010   43.4570 C   0  0  0  0  0  0  0  0  0  0  0  0
   39.4690   28.7620   42.6620 C   0  0  0  0  0  0  0  0  0  0  0  0
   38.4680   29.5490   42.0690 C   0  0  0  0  0  0  0  0  0  0  0  0
   43.1340   33.1770   39.2790 N   0  0  0  0  0  0  0  0  0  0  0  0
   43.2310   33.7920   37.9640 C   0  0  0  0  0  0  0  0  0  0  0  0
   44.5990   33.3850   37.4290 C   0  0  0  0  0  0  0  0  0  0  0  0
   45.5840   34.1010   38.1100 O   0  0  0  0  0  0  0  0  0  0  0  0
   45.2010   34.4250   39.4120 C   0  0  0  0  0  0  0  0  0  0  0  0
   44.3860   33.3120   40.0120 C   0  0  0  0  0  0  0  0  0  0  0  0
   41.2450   34.5950   40.8030 O   0  0  0  0  0  0  0  0  0  0  0  0
   40.4550   35.5750   40.1800 C   0  0  0  0  0  0  0  0  0  0  0  0
   41.1920   36.1290   39.1600 F   0  0  0  0  0  0  0  0  0  0  0  0
   40.0500   36.5600   41.0880 F   0  0  0  0  0  0  0  0  0  0  0  0
   39.3390   34.9400   39.6780 F   0  0  0  0  0  0  0  0  0  0  0  0
   42.3933   30.5506   38.9303 H   0  0  0  0  0  0  0  0  0  0  0  0
   36.8047   31.8389   40.3451 H   0  0  0  0  0  0  0  0  0  0  0  0
   35.3800   30.1345   41.6190 H   0  0  0  0  0  0  0  0  0  0  0  0
   35.7097   27.9411   43.2616 H   0  0  0  0  0  0  0  0  0  0  0  0
   37.4968   26.5532   44.3112 H   0  0  0  0  0  0  0  0  0  0  0  0
   39.8364   27.0740   43.9313 H   0  0  0  0  0  0  0  0  0  0  0  0
   40.5350   28.9805   42.5008 H   0  0  0  0  0  0  0  0  0  0  0  0
   42.4331   33.4195   37.3047 H   0  0  0  0  0  0  0  0  0  0  0  0
   43.1189   34.8852   38.0135 H   0  0  0  0  0  0  0  0  0  0  0  0
   44.7510   32.3070   37.5868 H   0  0  0  0  0  0  0  0  0  0  0  0
   44.6574   33.6039   36.3526 H   0  0  0  0  0  0  0  0  0  0  0  0
   46.1002   34.5865   40.0246 H   0  0  0  0  0  0  0  0  0  0  0  0
   44.5910   35.3400   39.3869 H   0  0  0  0  0  0  0  0  0  0  0  0
   44.1708   33.5421   41.0659 H   0  0  0  0  0  0  0  0  0  0  0  0
   44.9504   32.3699   39.9502 H   0  0  0  0  0  0  0  0  0  0  0  0
  1  2  2  0
  1  6  1  0
  2  3  1  0
  3 22  1  0
  3  4  2  0
  5  4  1  0
  5  7  1  0
  6  5  2  0
  7 15  1  0
  8  7  2  0
  8  9  1  0
  9 10  1  0
 10 11  2  0
 11 12  1  0
 13 12  2  0
 14 13  1  0
 15 10  1  0
 15 14  2  0
 16  2  1  0
 16 21  1  0
 17 16  1  0
 18 17  1  0
 18 19  1  0
 19 20  1  0
 20 21  1  0
 23 22  1  0
 23 25  1  0
 24 23  1  0
 26 23  1  0
  1 27  1  0
  8 28  1  0
  9 29  1  0
 11 30  1  0
 12 31  1  0
 13 32  1  0
 14 33  1  0
 17 34  1  0
 17 35  1  0
 18 36  1  0
 18 37  1  0
 20 38  1  0
 20 39  1  0
 21 40  1  0
 21 41  1  0
M  ISO  8  27  14  28  14  29   9  30  14  31  14  32  14  33  14  34  13
M  ISO  7  35  13  36  13  37  13  38  13  39  13  40  13  41  13
M  END
>  <minimizedAffinity>  (1) 
-6.32596016

>  <minimizedRMSD>  (1) 
2.17391443

$$$$
