
     RDKit          3D

 38 41  0  0  0  0  0  0  0  0999 V2000
   41.5640   31.0040   39.4840 C   0  0  0  0  0  0  0  0  0  0  0  0
   41.8890   32.3460   39.8200 C   0  0  0  0  0  0  0  0  0  0  0  0
   41.0280   33.0370   40.6780 C   0  0  0  0  0  0  0  0  0  0  0  0
   39.9120   32.4080   41.1650 N   0  0  0  0  0  0  0  0  0  0  0  0
   39.6490   31.1270   40.8120 C   0  0  0  0  0  0  0  0  0  0  0  0
   40.4560   30.4280   39.9860 N   0  0  0  0  0  0  0  0  0  0  0  0
   38.4620   30.4440   41.3240 C   0  0  0  0  0  0  0  0  0  0  0  0
   37.1150   30.7880   41.0820 C   0  0  0  0  0  0  0  0  0  0  0  0
   36.3670   29.9090   41.7340 N   0  0  0  0  0  0  0  0  0  0  0  0
   37.1200   29.0100   42.3890 C   0  0  0  0  0  0  0  0  0  0  0  0
   36.7580   27.9340   43.1820 C   0  0  0  0  0  0  0  0  0  0  0  0
   37.7610   27.1700   43.7360 C   0  0  0  0  0  0  0  0  0  0  0  0
   39.0670   27.4640   43.5100 C   0  0  0  0  0  0  0  0  0  0  0  0
   39.4490   28.5350   42.7190 C   0  0  0  0  0  0  0  0  0  0  0  0
   38.4420   29.3260   42.1460 C   0  0  0  0  0  0  0  0  0  0  0  0
   43.0450   33.0080   39.3210 N   0  0  0  0  0  0  0  0  0  0  0  0
   43.1490   33.7060   38.2010 C   0  0  0  0  0  0  0  0  0  0  0  0
   44.3690   34.2920   37.8660 C   0  0  0  0  0  0  0  0  0  0  0  0
   45.4870   34.1620   38.6850 C   0  0  0  0  0  0  0  0  0  0  0  0
   46.5840   34.6930   38.3760 O   0  0  0  0  0  0  0  0  0  0  0  0
   45.2970   33.4310   39.8150 N   0  0  0  0  0  0  0  0  0  0  0  0
   44.1140   32.8710   40.1250 C   0  0  0  0  0  0  0  0  0  0  0  0
   44.1280   32.2260   41.2210 O   0  0  0  0  0  0  0  0  0  0  0  0
   41.2750   34.3390   41.0500 O   0  0  0  0  0  0  0  0  0  0  0  0
   40.5050   35.3850   40.5530 C   0  0  0  0  0  0  0  0  0  0  0  0
   41.2270   36.5490   40.6620 F   0  0  0  0  0  0  0  0  0  0  0  0
   39.2850   35.4900   41.2400 F   0  0  0  0  0  0  0  0  0  0  0  0
   40.2420   35.1000   39.2290 F   0  0  0  0  0  0  0  0  0  0  0  0
   42.2208   30.4336   38.8108 H   0  0  0  0  0  0  0  0  0  0  0  0
   36.7541   31.6267   40.4685 H   0  0  0  0  0  0  0  0  0  0  0  0
   35.3370   29.9147   41.7379 H   0  0  0  0  0  0  0  0  0  0  0  0
   35.6996   27.6963   43.3642 H   0  0  0  0  0  0  0  0  0  0  0  0
   37.5004   26.3099   44.3702 H   0  0  0  0  0  0  0  0  0  0  0  0
   39.8437   26.8339   43.9680 H   0  0  0  0  0  0  0  0  0  0  0  0
   40.5118   28.7589   42.5451 H   0  0  0  0  0  0  0  0  0  0  0  0
   42.2784   33.8229   37.5388 H   0  0  0  0  0  0  0  0  0  0  0  0
   44.4498   34.8700   36.9336 H   0  0  0  0  0  0  0  0  0  0  0  0
   46.0900   33.3008   40.4592 H   0  0  0  0  0  0  0  0  0  0  0  0
  1  2  2  0
  1  6  1  0
  2  3  1  0
  3 24  1  0
  3  4  2  0
  5  4  1  0
  5  7  1  0
  6  5  2  0
  7 15  1  0
  8  7  2  0
  8  9  1  0
  9 10  1  0
 10 11  2  0
 11 12  1  0
 13 12  2  0
 14 13  1  0
 15 10  1  0
 15 14  2  0
 16  2  1  0
 16 22  1  0
 17 16  1  0
 18 17  2  0
 18 19  1  0
 19 21  1  0
 20 19  2  0
 21 22  1  0
 22 23  2  0
 25 26  1  0
 25 24  1  0
 25 27  1  0
 28 25  1  0
  1 29  1  0
  8 30  1  0
  9 31  1  0
 11 32  1  0
 12 33  1  0
 13 34  1  0
 14 35  1  0
 17 36  1  0
 18 37  1  0
 21 38  1  0
M  ISO  8  29  14  30  14  31   9  32  14  33  14  34  14  35  14  36  14
M  ISO  2  37  14  38   9
M  END
>  <minimizedAffinity>  (1) 
-6.22116232

>  <minimizedRMSD>  (1) 
2.51608467

$$$$
