
     RDKit          3D

 35 38  0  0  0  0  0  0  0  0999 V2000
   41.1780   31.2050   39.2640 C   0  0  0  0  0  0  0  0  0  0  0  0
   41.5080   32.5450   39.5950 C   0  0  0  0  0  0  0  0  0  0  0  0
   40.6680   33.2340   40.4690 C   0  0  0  0  0  0  0  0  0  0  0  0
   39.5550   32.6040   40.9790 N   0  0  0  0  0  0  0  0  0  0  0  0
   39.2870   31.3110   40.6250 C   0  0  0  0  0  0  0  0  0  0  0  0
   40.0930   30.6230   39.7750 N   0  0  0  0  0  0  0  0  0  0  0  0
   38.1130   30.6260   41.1550 C   0  0  0  0  0  0  0  0  0  0  0  0
   36.7640   30.9550   40.9290 C   0  0  0  0  0  0  0  0  0  0  0  0
   36.0380   30.0640   41.6040 N   0  0  0  0  0  0  0  0  0  0  0  0
   36.8160   29.1780   42.2540 C   0  0  0  0  0  0  0  0  0  0  0  0
   36.4690   28.1080   43.0570 C   0  0  0  0  0  0  0  0  0  0  0  0
   37.4880   27.3620   43.5990 C   0  0  0  0  0  0  0  0  0  0  0  0
   38.7840   27.6660   43.3520 C   0  0  0  0  0  0  0  0  0  0  0  0
   39.1480   28.7380   42.5470 C   0  0  0  0  0  0  0  0  0  0  0  0
   38.1330   29.5100   41.9870 C   0  0  0  0  0  0  0  0  0  0  0  0
   42.6970   33.1640   39.0270 C   0  0  0  0  0  0  0  0  0  0  0  0
   43.0280   33.1050   37.6890 C   0  0  0  0  0  0  0  0  0  0  0  0
   44.1760   33.7630   37.4450 N   0  0  0  0  0  0  0  0  0  0  0  0
   44.5960   34.2520   38.6210 C   0  0  0  0  0  0  0  0  0  0  0  0
   43.7020   33.8850   39.5520 N   0  0  0  0  0  0  0  0  0  0  0  0
   40.9110   34.5240   40.8400 O   0  0  0  0  0  0  0  0  0  0  0  0
   40.2360   35.5910   40.2400 C   0  0  0  0  0  0  0  0  0  0  0  0
   40.1380   36.6250   41.1370 F   0  0  0  0  0  0  0  0  0  0  0  0
   38.9660   35.2070   39.7950 F   0  0  0  0  0  0  0  0  0  0  0  0
   40.9900   35.9790   39.1490 F   0  0  0  0  0  0  0  0  0  0  0  0
   41.8254   30.6397   38.5774 H   0  0  0  0  0  0  0  0  0  0  0  0
   36.3831   31.7848   40.3156 H   0  0  0  0  0  0  0  0  0  0  0  0
   35.0083   30.0544   41.6257 H   0  0  0  0  0  0  0  0  0  0  0  0
   35.4152   27.8624   43.2551 H   0  0  0  0  0  0  0  0  0  0  0  0
   37.2468   26.5041   44.2439 H   0  0  0  0  0  0  0  0  0  0  0  0
   39.5726   27.0453   43.8024 H   0  0  0  0  0  0  0  0  0  0  0  0
   40.2064   28.9702   42.3575 H   0  0  0  0  0  0  0  0  0  0  0  0
   42.4319   32.5881   36.9226 H   0  0  0  0  0  0  0  0  0  0  0  0
   45.5065   34.8453   38.7912 H   0  0  0  0  0  0  0  0  0  0  0  0
   43.7772   34.1272   40.5503 H   0  0  0  0  0  0  0  0  0  0  0  0
  1  2  2  0
  1  6  1  0
  2  3  1  0
  3 21  1  0
  3  4  2  0
  5  4  1  0
  5  7  1  0
  6  5  2  0
  7 15  1  0
  8  7  2  0
  8  9  1  0
  9 10  1  0
 10 11  2  0
 11 12  1  0
 13 12  2  0
 14 13  1  0
 15 10  1  0
 15 14  2  0
 16 20  1  0
 16  2  1  0
 17 16  2  0
 18 17  1  0
 18 19  2  0
 19 20  1  0
 22 21  1  0
 22 23  1  0
 24 22  1  0
 25 22  1  0
  1 26  1  0
  8 27  1  0
  9 28  1  0
 11 29  1  0
 12 30  1  0
 13 31  1  0
 14 32  1  0
 17 33  1  0
 19 34  1  0
 20 35  1  0
M  ISO  8  26  14  27  14  28   9  29  14  30  14  31  14  32  14  33  14
M  ISO  2  34  14  35   9
M  END
>  <minimizedAffinity>  (1) 
-6.20648766

>  <minimizedRMSD>  (1) 
1.9657222

$$$$
