
     RDKit          3D

 36 39  0  0  0  0  0  0  0  0999 V2000
   40.3020   27.6880   40.8320 C   0  0  0  0  0  0  0  0  0  0  0  0
   39.0250   27.5310   41.4130 C   0  0  0  0  0  0  0  0  0  0  0  0
   38.5050   28.5610   42.1980 C   0  0  0  0  0  0  0  0  0  0  0  0
   39.2570   29.6970   42.3770 N   0  0  0  0  0  0  0  0  0  0  0  0
   40.4810   29.8130   41.8030 C   0  0  0  0  0  0  0  0  0  0  0  0
   40.9980   28.8290   41.0430 N   0  0  0  0  0  0  0  0  0  0  0  0
   41.2820   31.0190   41.9920 C   0  0  0  0  0  0  0  0  0  0  0  0
   42.1850   31.2860   43.0260 C   0  0  0  0  0  0  0  0  0  0  0  0
   42.6810   32.4990   42.7940 N   0  0  0  0  0  0  0  0  0  0  0  0
   42.1700   33.0480   41.6820 C   0  0  0  0  0  0  0  0  0  0  0  0
   42.4120   34.2740   41.0930 C   0  0  0  0  0  0  0  0  0  0  0  0
   41.7330   34.5780   39.9360 C   0  0  0  0  0  0  0  0  0  0  0  0
   40.8530   33.6970   39.3950 C   0  0  0  0  0  0  0  0  0  0  0  0
   40.5960   32.4660   39.9700 C   0  0  0  0  0  0  0  0  0  0  0  0
   41.2810   32.1340   41.1530 C   0  0  0  0  0  0  0  0  0  0  0  0
   38.2060   26.3400   41.2410 C   0  0  0  0  0  0  0  0  0  0  0  0
   37.2610   26.1970   40.2570 C   0  0  0  0  0  0  0  0  0  0  0  0
   36.4880   25.0730   40.0940 C   0  0  0  0  0  0  0  0  0  0  0  0
   36.6570   24.0400   40.9420 N   0  0  0  0  0  0  0  0  0  0  0  0
   37.5780   24.1660   41.9080 C   0  0  0  0  0  0  0  0  0  0  0  0
   38.3230   25.2670   42.0540 N   0  0  0  0  0  0  0  0  0  0  0  0
   37.2700   28.4710   42.7910 O   0  0  0  0  0  0  0  0  0  0  0  0
   37.1190   27.9010   44.0490 C   0  0  0  0  0  0  0  0  0  0  0  0
   36.1530   26.9310   43.9860 F   0  0  0  0  0  0  0  0  0  0  0  0
   36.8070   28.8630   45.0250 F   0  0  0  0  0  0  0  0  0  0  0  0
   38.3310   27.3270   44.3760 F   0  0  0  0  0  0  0  0  0  0  0  0
   40.7290   26.8868   40.2109 H   0  0  0  0  0  0  0  0  0  0  0  0
   42.4363   30.6229   43.8669 H   0  0  0  0  0  0  0  0  0  0  0  0
   43.3757   32.9618   43.3975 H   0  0  0  0  0  0  0  0  0  0  0  0
   43.1254   34.9849   41.5354 H   0  0  0  0  0  0  0  0  0  0  0  0
   41.9050   35.5463   39.4433 H   0  0  0  0  0  0  0  0  0  0  0  0
   40.3271   33.9715   38.4687 H   0  0  0  0  0  0  0  0  0  0  0  0
   39.8776   31.7675   39.5161 H   0  0  0  0  0  0  0  0  0  0  0  0
   37.1133   27.0322   39.5566 H   0  0  0  0  0  0  0  0  0  0  0  0
   35.7443   25.0175   39.2854 H   0  0  0  0  0  0  0  0  0  0  0  0
   37.7268   23.3308   42.6082 H   0  0  0  0  0  0  0  0  0  0  0  0
  1  6  2  0
  1  2  1  0
  2  3  2  0
  3  4  1  0
  3 22  1  0
  5  7  1  0
  5  4  2  0
  6  5  1  0
  7  8  2  0
  9  8  1  0
 10  9  1  0
 11 10  2  0
 12 11  1  0
 13 12  2  0
 13 14  1  0
 14 15  2  0
 15 10  1  0
 15  7  1  0
 16  2  1  0
 16 21  1  0
 17 16  2  0
 18 17  1  0
 18 19  2  0
 19 20  1  0
 20 21  2  0
 22 23  1  0
 23 26  1  0
 23 25  1  0
 24 23  1  0
  1 27  1  0
  8 28  1  0
  9 29  1  0
 11 30  1  0
 12 31  1  0
 13 32  1  0
 14 33  1  0
 17 34  1  0
 18 35  1  0
 20 36  1  0
M  ISO  8  27  14  28  14  29   9  30  14  31  14  32  14  33  14  34  14
M  ISO  2  35  14  36  14
M  END
>  <minimizedAffinity>  (1) 
-6.0527873

>  <minimizedRMSD>  (1) 
7.81921577

$$$$
