
     RDKit          3D

 36 39  0  0  0  0  0  0  0  0999 V2000
   40.7040   30.6280   39.0660 C   0  0  0  0  0  0  0  0  0  0  0  0
   40.9540   31.9630   39.4550 C   0  0  0  0  0  0  0  0  0  0  0  0
   40.1060   32.5650   40.3830 C   0  0  0  0  0  0  0  0  0  0  0  0
   39.0570   31.8390   40.8870 N   0  0  0  0  0  0  0  0  0  0  0  0
   38.8480   30.5610   40.4910 C   0  0  0  0  0  0  0  0  0  0  0  0
   39.6630   29.9570   39.5870 N   0  0  0  0  0  0  0  0  0  0  0  0
   37.7350   29.7810   41.0220 C   0  0  0  0  0  0  0  0  0  0  0  0
   36.3930   29.8160   40.5900 C   0  0  0  0  0  0  0  0  0  0  0  0
   35.7280   28.9460   41.3500 N   0  0  0  0  0  0  0  0  0  0  0  0
   36.5400   28.3440   42.2500 C   0  0  0  0  0  0  0  0  0  0  0  0
   36.2490   27.4000   43.2030 C   0  0  0  0  0  0  0  0  0  0  0  0
   37.2930   26.9540   44.0000 C   0  0  0  0  0  0  0  0  0  0  0  0
   38.5480   27.4410   43.8330 C   0  0  0  0  0  0  0  0  0  0  0  0
   38.8380   28.3950   42.8690 C   0  0  0  0  0  0  0  0  0  0  0  0
   37.8010   28.8570   42.0570 C   0  0  0  0  0  0  0  0  0  0  0  0
   42.0550   32.7630   38.9410 C   0  0  0  0  0  0  0  0  0  0  0  0
   43.3180   32.7710   39.4920 C   0  0  0  0  0  0  0  0  0  0  0  0
   44.3750   33.5170   39.0280 C   0  0  0  0  0  0  0  0  0  0  0  0
   44.1800   34.3030   37.9540 N   0  0  0  0  0  0  0  0  0  0  0  0
   42.9370   34.3080   37.3930 C   0  0  0  0  0  0  0  0  0  0  0  0
   41.9220   33.5680   37.8710 N   0  0  0  0  0  0  0  0  0  0  0  0
   40.2810   33.8590   40.8110 O   0  0  0  0  0  0  0  0  0  0  0  0
   39.4570   34.8870   40.3620 C   0  0  0  0  0  0  0  0  0  0  0  0
   40.1880   35.7300   39.5670 F   0  0  0  0  0  0  0  0  0  0  0  0
   38.8830   35.5870   41.4300 F   0  0  0  0  0  0  0  0  0  0  0  0
   38.4570   34.2920   39.6130 F   0  0  0  0  0  0  0  0  0  0  0  0
   41.3631   30.1368   38.3350 H   0  0  0  0  0  0  0  0  0  0  0  0
   35.9769   30.4387   39.7844 H   0  0  0  0  0  0  0  0  0  0  0  0
   34.7196   28.7552   41.2630 H   0  0  0  0  0  0  0  0  0  0  0  0
   35.2275   27.0122   43.3298 H   0  0  0  0  0  0  0  0  0  0  0  0
   37.1013   26.1977   44.7754 H   0  0  0  0  0  0  0  0  0  0  0  0
   39.3570   27.0695   44.4792 H   0  0  0  0  0  0  0  0  0  0  0  0
   39.8617   28.7787   42.7472 H   0  0  0  0  0  0  0  0  0  0  0  0
   43.4936   32.1318   40.3698 H   0  0  0  0  0  0  0  0  0  0  0  0
   45.3564   33.4724   39.5228 H   0  0  0  0  0  0  0  0  0  0  0  0
   42.7578   34.9437   36.5133 H   0  0  0  0  0  0  0  0  0  0  0  0
  1  2  2  0
  1  6  1  0
  2  3  1  0
  3 22  1  0
  3  4  2  0
  5  4  1  0
  5  7  1  0
  6  5  2  0
  7 15  1  0
  8  7  2  0
  8  9  1  0
  9 10  1  0
 10 11  2  0
 11 12  1  0
 13 12  2  0
 14 13  1  0
 15 10  1  0
 15 14  2  0
 16  2  1  0
 16 17  2  0
 18 17  1  0
 19 18  2  0
 20 21  2  0
 20 19  1  0
 21 16  1  0
 23 22  1  0
 23 25  1  0
 24 23  1  0
 26 23  1  0
  1 27  1  0
  8 28  1  0
  9 29  1  0
 11 30  1  0
 12 31  1  0
 13 32  1  0
 14 33  1  0
 17 34  1  0
 18 35  1  0
 20 36  1  0
M  ISO  8  27  14  28  14  29   9  30  14  31  14  32  14  33  14  34  14
M  ISO  2  35  14  36  14
M  END
>  <minimizedAffinity>  (1) 
-5.74968386

>  <minimizedRMSD>  (1) 
1.69201827

$$$$
