
     RDKit          3D

 36 38  0  0  0  0  0  0  0  0999 V2000
   37.6000   28.9710   41.7860 N   0  0  0  0  0  0  0  0  0  0  0  0
   37.0800   28.6820   42.9700 C   0  0  0  0  0  0  0  0  0  0  0  0
   36.7640   27.4020   43.3590 C   0  0  0  0  0  0  0  0  0  0  0  0
   36.9850   26.3320   42.4970 C   0  0  0  0  0  0  0  0  0  0  0  0
   36.7120   25.1550   42.8100 O   0  0  0  0  0  0  0  0  0  0  0  0
   37.5210   26.6740   41.2920 N   0  0  0  0  0  0  0  0  0  0  0  0
   37.8150   27.9310   40.9500 C   0  0  0  0  0  0  0  0  0  0  0  0
   38.3100   28.1670   39.8120 O   0  0  0  0  0  0  0  0  0  0  0  0
   37.9250   30.3020   41.3910 C   0  0  0  0  0  0  0  0  0  0  0  0
   39.1560   30.9470   41.6690 C   0  0  0  0  0  0  0  0  0  0  0  0
   39.3080   32.2590   41.2050 C   0  0  0  0  0  0  0  0  0  0  0  0
   38.2840   32.8430   40.5230 N   0  0  0  0  0  0  0  0  0  0  0  0
   37.1310   32.2010   40.2790 C   0  0  0  0  0  0  0  0  0  0  0  0
   36.9530   30.9450   40.7070 N   0  0  0  0  0  0  0  0  0  0  0  0
   37.7890   25.6240   40.3220 C   0  0  0  0  0  0  0  0  0  0  0  0
   38.8180   24.6180   40.8410 C   0  0  0  0  0  0  0  0  0  0  0  0
   39.1300   23.7460   39.6200 C   0  0  0  0  0  0  0  0  0  0  0  0
   37.9380   22.9030   39.2640 C   0  0  0  0  0  0  0  0  0  0  0  0
   36.6540   23.4240   39.8580 C   0  0  0  0  0  0  0  0  0  0  0  0
   36.5630   24.9310   39.8180 C   0  0  0  0  0  0  0  0  0  0  0  0
   36.8923   29.5053   43.6749 H   0  0  0  0  0  0  0  0  0  0  0  0
   36.3347   27.2227   44.3558 H   0  0  0  0  0  0  0  0  0  0  0  0
   39.9573   30.4387   42.2253 H   0  0  0  0  0  0  0  0  0  0  0  0
   40.2417   32.8107   41.3887 H   0  0  0  0  0  0  0  0  0  0  0  0
   36.3283   32.7092   39.7246 H   0  0  0  0  0  0  0  0  0  0  0  0
   38.2194   26.1423   39.4525 H   0  0  0  0  0  0  0  0  0  0  0  0
   39.7232   25.1322   41.1962 H   0  0  0  0  0  0  0  0  0  0  0  0
   38.4461   24.0336   41.6955 H   0  0  0  0  0  0  0  0  0  0  0  0
   39.3849   24.3928   38.7675 H   0  0  0  0  0  0  0  0  0  0  0  0
   39.9772   23.0860   39.8582 H   0  0  0  0  0  0  0  0  0  0  0  0
   37.8359   22.8837   38.1689 H   0  0  0  0  0  0  0  0  0  0  0  0
   38.1090   21.8977   39.6764 H   0  0  0  0  0  0  0  0  0  0  0  0
   35.8089   23.0052   39.2919 H   0  0  0  0  0  0  0  0  0  0  0  0
   36.6278   23.1173   40.9141 H   0  0  0  0  0  0  0  0  0  0  0  0
   36.3933   25.2405   38.7762 H   0  0  0  0  0  0  0  0  0  0  0  0
   35.7359   25.2195   40.4833 H   0  0  0  0  0  0  0  0  0  0  0  0
  1  2  1  0
  2  3  2  0
  4  5  2  0
  4  3  1  0
  6  4  1  0
  7  6  1  0
  7  1  1  0
  8  7  2  0
  9 10  2  0
  9  1  1  0
 11 10  1  0
 12 11  2  0
 13 12  1  0
 13 14  2  0
 14  9  1  0
 15 16  1  0
 15  6  1  0
 17 16  1  0
 18 17  1  0
 18 19  1  0
 20 19  1  0
 20 15  1  0
  2 21  1  0
  3 22  1  0
 10 23  1  0
 11 24  1  0
 13 25  1  0
 15 26  1  0
 16 27  1  0
 16 28  1  0
 17 29  1  0
 17 30  1  0
 18 31  1  0
 18 32  1  0
 19 33  1  0
 19 34  1  0
 20 35  1  0
 20 36  1  0
M  ISO  8  21  14  22  14  23  14  24  14  25  14  26  13  27  13  28  13
M  ISO  8  29  13  30  13  31  13  32  13  33  13  34  13  35  13  36  13
M  END
>  <minimizedAffinity>  (1) 
-4.89484644

>  <minimizedRMSD>  (1) 
0.725101531

$$$$
