
     RDKit          3D

 30 32  0  0  0  0  0  0  0  0999 V2000
   37.7730   29.1730   41.8030 N   0  0  0  0  0  0  0  0  0  0  0  0
   37.3020   28.8950   43.0050 C   0  0  0  0  0  0  0  0  0  0  0  0
   36.9330   27.6210   43.4000 C   0  0  0  0  0  0  0  0  0  0  0  0
   37.0480   26.5590   42.5180 C   0  0  0  0  0  0  0  0  0  0  0  0
   36.7310   25.3960   42.8210 O   0  0  0  0  0  0  0  0  0  0  0  0
   37.5330   26.8930   41.3020 N   0  0  0  0  0  0  0  0  0  0  0  0
   37.8850   28.1430   40.9440 C   0  0  0  0  0  0  0  0  0  0  0  0
   38.3300   28.3590   39.7820 O   0  0  0  0  0  0  0  0  0  0  0  0
   38.1530   30.4950   41.4050 C   0  0  0  0  0  0  0  0  0  0  0  0
   39.4180   31.0720   41.6230 C   0  0  0  0  0  0  0  0  0  0  0  0
   39.6280   32.3750   41.1710 C   0  0  0  0  0  0  0  0  0  0  0  0
   38.6100   33.0170   40.5470 N   0  0  0  0  0  0  0  0  0  0  0  0
   37.4080   32.4410   40.3500 C   0  0  0  0  0  0  0  0  0  0  0  0
   37.1680   31.1900   40.7710 N   0  0  0  0  0  0  0  0  0  0  0  0
   37.6810   25.8420   40.3270 C   0  0  0  0  0  0  0  0  0  0  0  0
   36.5790   25.6570   39.5070 C   0  0  0  0  0  0  0  0  0  0  0  0
   36.6940   24.6470   38.5540 C   0  0  0  0  0  0  0  0  0  0  0  0
   37.8580   23.8770   38.4430 C   0  0  0  0  0  0  0  0  0  0  0  0
   38.9440   24.0970   39.2880 C   0  0  0  0  0  0  0  0  0  0  0  0
   38.8410   25.0960   40.2380 C   0  0  0  0  0  0  0  0  0  0  0  0
   37.1978   29.7171   43.7284 H   0  0  0  0  0  0  0  0  0  0  0  0
   36.5477   27.4514   44.4162 H   0  0  0  0  0  0  0  0  0  0  0  0
   40.2160   30.5132   42.1337 H   0  0  0  0  0  0  0  0  0  0  0  0
   40.5988   32.8709   41.3178 H   0  0  0  0  0  0  0  0  0  0  0  0
   36.6136   33.0035   39.8376 H   0  0  0  0  0  0  0  0  0  0  0  0
   35.6702   26.2694   39.6026 H   0  0  0  0  0  0  0  0  0  0  0  0
   35.8519   24.4504   37.8741 H   0  0  0  0  0  0  0  0  0  0  0  0
   37.9160   23.0880   37.6787 H   0  0  0  0  0  0  0  0  0  0  0  0
   39.8586   23.4920   39.2014 H   0  0  0  0  0  0  0  0  0  0  0  0
   39.6797   25.2965   40.9209 H   0  0  0  0  0  0  0  0  0  0  0  0
  1  2  1  0
  2  3  2  0
  4  5  2  0
  4  3  1  0
  6  4  1  0
  7  6  1  0
  7  1  1  0
  8  7  2  0
  9 10  2  0
  9  1  1  0
 11 10  1  0
 12 11  2  0
 13 12  1  0
 13 14  2  0
 14  9  1  0
 15  6  1  0
 16 15  2  0
 17 16  1  0
 18 17  2  0
 18 19  1  0
 19 20  2  0
 20 15  1  0
  2 21  1  0
  3 22  1  0
 10 23  1  0
 11 24  1  0
 13 25  1  0
 16 26  1  0
 17 27  1  0
 18 28  1  0
 19 29  1  0
 20 30  1  0
M  ISO  8  21  14  22  14  23  14  24  14  25  14  26  14  27  14  28  14
M  ISO  2  29  14  30  14
M  END
>  <minimizedAffinity>  (1) 
-4.69173002

>  <minimizedRMSD>  (1) 
0.926353335

$$$$
