
     RDKit          3D

 29 31  0  0  0  0  0  0  0  0999 V2000
   37.7070   29.0190   41.7970 N   0  0  0  0  0  0  0  0  0  0  0  0
   37.2520   28.7290   43.0160 C   0  0  0  0  0  0  0  0  0  0  0  0
   36.8880   27.4480   43.3960 C   0  0  0  0  0  0  0  0  0  0  0  0
   36.9870   26.3920   42.4950 C   0  0  0  0  0  0  0  0  0  0  0  0
   36.6710   25.2300   42.7940 O   0  0  0  0  0  0  0  0  0  0  0  0
   37.4550   26.7440   41.2710 N   0  0  0  0  0  0  0  0  0  0  0  0
   37.8010   28.0040   40.9350 C   0  0  0  0  0  0  0  0  0  0  0  0
   38.2250   28.2270   39.7740 O   0  0  0  0  0  0  0  0  0  0  0  0
   38.0770   30.3380   41.4150 C   0  0  0  0  0  0  0  0  0  0  0  0
   39.3400   30.9190   41.6320 C   0  0  0  0  0  0  0  0  0  0  0  0
   39.5410   32.2250   41.1950 C   0  0  0  0  0  0  0  0  0  0  0  0
   38.5230   32.8770   40.5860 N   0  0  0  0  0  0  0  0  0  0  0  0
   37.3080   32.3020   40.3830 C   0  0  0  0  0  0  0  0  0  0  0  0
   37.0960   31.0460   40.7960 N   0  0  0  0  0  0  0  0  0  0  0  0
   37.5910   25.7280   40.2830 C   0  0  0  0  0  0  0  0  0  0  0  0
   36.6020   25.3640   39.3900 C   0  0  0  0  0  0  0  0  0  0  0  0
   36.7920   24.3700   38.4530 C   0  0  0  0  0  0  0  0  0  0  0  0
   38.0110   23.7430   38.4360 C   0  0  0  0  0  0  0  0  0  0  0  0
   38.9880   24.1280   39.3470 C   0  0  0  0  0  0  0  0  0  0  0  0
   38.7700   25.1160   40.2610 N   0  0  0  0  0  0  0  0  0  0  0  0
   37.1618   29.5420   43.7515 H   0  0  0  0  0  0  0  0  0  0  0  0
   36.5186   27.2642   44.4157 H   0  0  0  0  0  0  0  0  0  0  0  0
   40.1437   30.3583   42.1316 H   0  0  0  0  0  0  0  0  0  0  0  0
   40.5123   32.7198   41.3423 H   0  0  0  0  0  0  0  0  0  0  0  0
   36.5053   32.8641   39.8834 H   0  0  0  0  0  0  0  0  0  0  0  0
   35.6329   25.8830   39.4274 H   0  0  0  0  0  0  0  0  0  0  0  0
   35.9962   24.0911   37.7466 H   0  0  0  0  0  0  0  0  0  0  0  0
   38.2141   22.9431   37.7087 H   0  0  0  0  0  0  0  0  0  0  0  0
   39.9642   23.6214   39.3300 H   0  0  0  0  0  0  0  0  0  0  0  0
  1  2  1  0
  2  3  2  0
  4  5  2  0
  4  3  1  0
  6  4  1  0
  7  6  1  0
  7  1  1  0
  8  7  2  0
  9 10  2  0
  9  1  1  0
 11 10  1  0
 12 11  2  0
 13 12  1  0
 13 14  2  0
 14  9  1  0
 15  6  1  0
 16 15  2  0
 17 16  1  0
 18 17  2  0
 18 19  1  0
 19 20  2  0
 20 15  1  0
  2 21  1  0
  3 22  1  0
 10 23  1  0
 11 24  1  0
 13 25  1  0
 16 26  1  0
 17 27  1  0
 18 28  1  0
 19 29  1  0
M  ISO  8  21  14  22  14  23  14  24  14  25  14  26  14  27  14  28  14
M  ISO  1  29  14
M  END
>  <minimizedAffinity>  (1) 
-4.61112881

>  <minimizedRMSD>  (1) 
0.623136818

$$$$
