
     RDKit          3D

 24 25  0  0  1  0  0  0  0  0999 V2000
   37.0640   28.9750   42.3210 C   0  0  1  0  0  0  0  0  0  0  0  0
   37.0500   27.8740   41.2530 C   0  0  0  0  0  0  0  0  0  0  0  0
   37.1370   26.5910   42.0150 C   0  0  0  0  0  0  0  0  0  0  0  0
   36.6270   26.9730   43.3930 C   0  0  0  0  0  0  0  0  0  0  0  0
   37.3670   28.2740   43.6040 C   0  0  2  0  0  0  0  0  0  0  0  0
   40.0560   31.2840   42.1300 C   0  0  0  0  0  0  0  0  0  0  0  0
   39.2720   30.2000   42.5590 C   0  0  0  0  0  0  0  0  0  0  0  0
   37.9830   30.0590   41.9740 C   0  0  0  0  0  0  0  0  0  0  0  0
   37.5690   30.9570   41.0460 N   0  0  0  0  0  0  0  0  0  0  0  0
   38.3800   31.9900   40.6710 C   0  0  0  0  0  0  0  0  0  0  0  0
   39.6090   32.1450   41.2140 N   0  0  0  0  0  0  0  0  0  0  0  0
   36.7020   28.9270   44.6370 O   0  0  0  0  0  0  0  0  0  0  0  0
   36.1003   29.4982   42.4079 H   0  0  0  0  0  0  0  0  0  0  0  0
   37.9112   27.9808   40.5770 H   0  0  0  0  0  0  0  0  0  0  0  0
   36.1478   27.9202   40.6254 H   0  0  0  0  0  0  0  0  0  0  0  0
   36.5015   25.8173   41.5593 H   0  0  0  0  0  0  0  0  0  0  0  0
   38.1516   26.1665   42.0321 H   0  0  0  0  0  0  0  0  0  0  0  0
   35.5368   27.1196   43.3972 H   0  0  0  0  0  0  0  0  0  0  0  0
   36.7959   26.2156   44.1727 H   0  0  0  0  0  0  0  0  0  0  0  0
   38.4392   28.2024   43.8389 H   0  0  0  0  0  0  0  0  0  0  0  0
   41.0593   31.4258   42.5582 H   0  0  0  0  0  0  0  0  0  0  0  0
   39.6393   29.4905   43.3151 H   0  0  0  0  0  0  0  0  0  0  0  0
   38.0279   32.7075   39.9152 H   0  0  0  0  0  0  0  0  0  0  0  0
   37.0387   28.5963   45.5073 H   0  0  0  0  0  0  0  0  0  0  0  0
  1  5  1  0
  2  3  1  0
  2  1  1  0
  3  4  1  0
  4  5  1  0
  5 12  1  0
  6  7  2  0
  8  1  1  0
  8  7  1  0
  9  8  2  0
 10  9  1  0
 10 11  2  0
 11  6  1  0
  1 13  1  1
  2 14  1  0
  2 15  1  0
  3 16  1  0
  3 17  1  0
  4 18  1  0
  4 19  1  0
  5 20  1  1
  6 21  1  0
  7 22  1  0
 10 23  1  0
 12 24  1  0
M  ISO  8  13  13  14  13  15  13  16  13  17  13  18  13  19  13  20  13
M  ISO  4  21  14  22  14  23  14  24   3
M  END
>  <minimizedAffinity>  (1) 
-4.4279213

>  <minimizedRMSD>  (1) 
0.284050494

$$$$
