
     RDKit          3D

 27 29  0  0  0  0  0  0  0  0999 V2000
   37.6710   29.0080   41.7290 N   0  0  0  0  0  0  0  0  0  0  0  0
   37.2800   28.6740   42.9400 C   0  0  0  0  0  0  0  0  0  0  0  0
   36.9600   27.3780   43.3050 C   0  0  0  0  0  0  0  0  0  0  0  0
   37.0410   26.3490   42.3830 C   0  0  0  0  0  0  0  0  0  0  0  0
   36.7670   25.1660   42.6490 O   0  0  0  0  0  0  0  0  0  0  0  0
   37.4470   26.7390   41.1560 N   0  0  0  0  0  0  0  0  0  0  0  0
   37.7530   28.0100   40.8240 C   0  0  0  0  0  0  0  0  0  0  0  0
   38.1240   28.2760   39.6450 O   0  0  0  0  0  0  0  0  0  0  0  0
   38.0010   30.3500   41.3580 C   0  0  0  0  0  0  0  0  0  0  0  0
   39.2340   30.9740   41.6120 C   0  0  0  0  0  0  0  0  0  0  0  0
   39.3850   32.2910   41.1790 C   0  0  0  0  0  0  0  0  0  0  0  0
   38.3540   32.9030   40.5450 N   0  0  0  0  0  0  0  0  0  0  0  0
   37.1750   32.2780   40.3120 C   0  0  0  0  0  0  0  0  0  0  0  0
   37.0020   31.0120   40.7170 N   0  0  0  0  0  0  0  0  0  0  0  0
   37.5650   25.7430   40.1180 C   0  0  0  0  0  0  0  0  0  0  0  0
   36.6100   25.2870   39.2130 C   0  0  0  0  0  0  0  0  0  0  0  0
   37.2470   24.3640   38.4760 N   0  0  0  0  0  0  0  0  0  0  0  0
   38.5300   24.2410   38.8880 C   0  0  0  0  0  0  0  0  0  0  0  0
   38.7420   25.0960   39.9120 N   0  0  0  0  0  0  0  0  0  0  0  0
   37.2036   29.4648   43.7008 H   0  0  0  0  0  0  0  0  0  0  0  0
   36.6390   27.1642   44.3352 H   0  0  0  0  0  0  0  0  0  0  0  0
   40.0470   30.4453   42.1312 H   0  0  0  0  0  0  0  0  0  0  0  0
   40.3299   32.8276   41.3498 H   0  0  0  0  0  0  0  0  0  0  0  0
   36.3627   32.8074   39.7924 H   0  0  0  0  0  0  0  0  0  0  0  0
   35.5631   25.6121   39.1221 H   0  0  0  0  0  0  0  0  0  0  0  0
   39.2775   23.5572   38.4595 H   0  0  0  0  0  0  0  0  0  0  0  0
   39.6204   25.2306   40.4327 H   0  0  0  0  0  0  0  0  0  0  0  0
  1  2  1  0
  2  3  2  0
  4  5  2  0
  4  3  1  0
  6  4  1  0
  7  6  1  0
  7  1  1  0
  8  7  2  0
  9 10  2  0
  9  1  1  0
 11 10  1  0
 12 11  2  0
 13 12  1  0
 13 14  2  0
 14  9  1  0
 15  6  1  0
 16 15  2  0
 17 18  2  0
 17 16  1  0
 18 19  1  0
 19 15  1  0
  2 20  1  0
  3 21  1  0
 10 22  1  0
 11 23  1  0
 13 24  1  0
 16 25  1  0
 18 26  1  0
 19 27  1  0
M  ISO  8  20  14  21  14  22  14  23  14  24  14  25  14  26  14  27   9
M  END
>  <minimizedAffinity>  (1) 
-4.43177748

>  <minimizedRMSD>  (1) 
0.622412384

$$$$
