
     RDKit          3D

 44 48  0  0  1  0  0  0  0  0999 V2000
   37.9600   25.5420   40.4180 C   0  0  2  0  0  0  0  0  0  0  0  0
   36.8650   24.6890   39.9640 C   0  0  0  0  0  0  0  0  0  0  0  0
   37.5970   23.4250   39.4800 C   0  0  0  0  0  0  0  0  0  0  0  0
   38.5510   23.1990   40.5940 C   0  0  0  0  0  0  0  0  0  0  0  0
   38.9660   24.5860   41.0220 C   0  0  1  0  0  0  0  0  0  0  0  0
   37.6180   28.9150   41.8360 N   0  0  0  0  0  0  0  0  0  0  0  0
   36.9820   28.6170   42.9610 C   0  0  0  0  0  0  0  0  0  0  0  0
   36.6390   27.3230   43.3070 C   0  0  0  0  0  0  0  0  0  0  0  0
   36.9550   26.2580   42.4710 C   0  0  0  0  0  0  0  0  0  0  0  0
   36.6490   25.1020   42.7800 O   0  0  0  0  0  0  0  0  0  0  0  0
   37.6010   26.6070   41.3380 N   0  0  0  0  0  0  0  0  0  0  0  0
   37.9140   27.8810   41.0430 C   0  0  0  0  0  0  0  0  0  0  0  0
   38.5250   28.0980   39.9460 O   0  0  0  0  0  0  0  0  0  0  0  0
   37.9740   30.2310   41.4700 C   0  0  0  0  0  0  0  0  0  0  0  0
   39.2170   30.8420   41.7780 C   0  0  0  0  0  0  0  0  0  0  0  0
   39.4200   32.1570   41.3440 C   0  0  0  0  0  0  0  0  0  0  0  0
   38.4370   32.7730   40.6620 N   0  0  0  0  0  0  0  0  0  0  0  0
   37.2600   32.1750   40.3770 C   0  0  0  0  0  0  0  0  0  0  0  0
   37.0560   30.9190   40.7880 N   0  0  0  0  0  0  0  0  0  0  0  0
   40.3340   24.9010   40.7550 N   0  0  0  0  0  0  0  0  0  0  0  0
   40.9040   24.9950   39.5170 C   0  0  0  0  0  0  0  0  0  0  0  0
   42.2090   25.3070   39.6070 N   0  0  0  0  0  0  0  0  0  0  0  0
   42.5230   25.4240   40.9230 C   0  0  0  0  0  0  0  0  0  0  0  0
   43.7160   25.7250   41.5340 C   0  0  0  0  0  0  0  0  0  0  0  0
   43.7080   25.7670   42.8620 N   0  0  0  0  0  0  0  0  0  0  0  0
   42.5660   25.5190   43.5490 C   0  0  0  0  0  0  0  0  0  0  0  0
   41.4100   25.2250   42.9230 N   0  0  0  0  0  0  0  0  0  0  0  0
   41.3540   25.1690   41.5870 C   0  0  0  0  0  0  0  0  0  0  0  0
   38.3533   26.1130   39.5640 H   0  0  0  0  0  0  0  0  0  0  0  0
   36.1755   24.4564   40.7889 H   0  0  0  0  0  0  0  0  0  0  0  0
   36.2418   25.1562   39.1872 H   0  0  0  0  0  0  0  0  0  0  0  0
   36.9048   22.5780   39.3641 H   0  0  0  0  0  0  0  0  0  0  0  0
   38.0720   23.5287   38.4933 H   0  0  0  0  0  0  0  0  0  0  0  0
   38.0620   22.6661   41.4228 H   0  0  0  0  0  0  0  0  0  0  0  0
   39.4085   22.5799   40.2918 H   0  0  0  0  0  0  0  0  0  0  0  0
   38.9436   24.6701   42.1186 H   0  0  0  0  0  0  0  0  0  0  0  0
   36.7161   29.4339   43.6480 H   0  0  0  0  0  0  0  0  0  0  0  0
   36.1108   27.1343   44.2532 H   0  0  0  0  0  0  0  0  0  0  0  0
   39.9939   30.3011   42.3383 H   0  0  0  0  0  0  0  0  0  0  0  0
   40.3656   32.6774   41.5564 H   0  0  0  0  0  0  0  0  0  0  0  0
   36.4816   32.7126   39.8157 H   0  0  0  0  0  0  0  0  0  0  0  0
   40.3661   24.8363   38.5707 H   0  0  0  0  0  0  0  0  0  0  0  0
   44.6300   25.9210   40.9542 H   0  0  0  0  0  0  0  0  0  0  0  0
   42.5838   25.5589   44.6481 H   0  0  0  0  0  0  0  0  0  0  0  0
  1  5  1  0
  1 11  1  0
  2  1  1  0
  3  2  1  0
  3  4  1  0
  4  5  1  0
  6  7  1  0
  7  8  2  0
  9 10  2  0
  9  8  1  0
 11  9  1  0
 12 11  1  0
 12  6  1  0
 13 12  2  0
 14 15  2  0
 14  6  1  0
 16 15  1  0
 17 16  2  0
 18 17  1  0
 18 19  2  0
 19 14  1  0
 20  5  1  0
 20 28  1  0
 21 22  2  0
 21 20  1  0
 22 23  1  0
 23 24  1  0
 23 28  2  0
 24 25  2  0
 25 26  1  0
 27 26  2  0
 28 27  1  0
  1 29  1  6
  2 30  1  0
  2 31  1  0
  3 32  1  0
  3 33  1  0
  4 34  1  0
  4 35  1  0
  5 36  1  1
  7 37  1  0
  8 38  1  0
 15 39  1  0
 16 40  1  0
 18 41  1  0
 21 42  1  0
 24 43  1  0
 26 44  1  0
M  ISO  8  29  13  30  13  31  13  32  13  33  13  34  13  35  13  36  13
M  ISO  8  37  14  38  14  39  14  40  14  41  14  42  14  43  14  44  14
M  END
>  <minimizedAffinity>  (1) 
-5.77072191

>  <minimizedRMSD>  (1) 
0.423978388

$$$$
