
     RDKit          3D

 46 50  0  0  1  0  0  0  0  0999 V2000
   38.0550   25.6300   40.4600 C   0  0  2  0  0  0  0  0  0  0  0  0
   36.9800   24.7710   39.9710 C   0  0  0  0  0  0  0  0  0  0  0  0
   37.7230   23.4890   39.5590 C   0  0  0  0  0  0  0  0  0  0  0  0
   38.6470   23.2910   40.6960 C   0  0  0  0  0  0  0  0  0  0  0  0
   39.0370   24.6800   41.1270 C   0  0  1  0  0  0  0  0  0  0  0  0
   37.6630   29.0260   41.8060 N   0  0  0  0  0  0  0  0  0  0  0  0
   36.9910   28.7410   42.9140 C   0  0  0  0  0  0  0  0  0  0  0  0
   36.6390   27.4570   43.2750 C   0  0  0  0  0  0  0  0  0  0  0  0
   36.9840   26.3740   42.4660 C   0  0  0  0  0  0  0  0  0  0  0  0
   36.6740   25.2180   42.7780 O   0  0  0  0  0  0  0  0  0  0  0  0
   37.6660   26.7130   41.3510 N   0  0  0  0  0  0  0  0  0  0  0  0
   37.9850   27.9740   41.0450 C   0  0  0  0  0  0  0  0  0  0  0  0
   38.6300   28.1790   39.9690 O   0  0  0  0  0  0  0  0  0  0  0  0
   38.0250   30.3330   41.4340 C   0  0  0  0  0  0  0  0  0  0  0  0
   39.2930   30.9300   41.7400 C   0  0  0  0  0  0  0  0  0  0  0  0
   39.4970   32.2450   41.2970 C   0  0  0  0  0  0  0  0  0  0  0  0
   38.5110   32.8640   40.6230 N   0  0  0  0  0  0  0  0  0  0  0  0
   37.3300   32.2890   40.3470 C   0  0  0  0  0  0  0  0  0  0  0  0
   37.1170   31.0360   40.7600 N   0  0  0  0  0  0  0  0  0  0  0  0
   40.4040   24.9260   40.7110 N   0  0  0  0  0  0  0  0  0  0  0  0
   40.8830   24.9790   39.4570 C   0  0  0  0  0  0  0  0  0  0  0  0
   42.2070   25.2300   39.4860 N   0  0  0  0  0  0  0  0  0  0  0  0
   42.5860   25.3410   40.7900 C   0  0  0  0  0  0  0  0  0  0  0  0
   43.8480   25.5960   41.3000 C   0  0  0  0  0  0  0  0  0  0  0  0
   43.9550   25.6580   42.6600 N   0  0  0  0  0  0  0  0  0  0  0  0
   42.8330   25.4680   43.4050 C   0  0  0  0  0  0  0  0  0  0  0  0
   41.5990   25.2190   42.8890 N   0  0  0  0  0  0  0  0  0  0  0  0
   41.4390   25.1480   41.5390 C   0  0  0  0  0  0  0  0  0  0  0  0
   44.9610   25.7790   40.4320 N   0  0  0  0  0  0  0  0  0  0  0  0
   38.4790   26.1860   39.6109 H   0  0  0  0  0  0  0  0  0  0  0  0
   36.2463   24.5653   40.7643 H   0  0  0  0  0  0  0  0  0  0  0  0
   36.4042   25.2218   39.1493 H   0  0  0  0  0  0  0  0  0  0  0  0
   37.0299   22.6412   39.4548 H   0  0  0  0  0  0  0  0  0  0  0  0
   38.2279   23.5625   38.5845 H   0  0  0  0  0  0  0  0  0  0  0  0
   38.1426   22.7590   41.5161 H   0  0  0  0  0  0  0  0  0  0  0  0
   39.5210   22.6839   40.4175 H   0  0  0  0  0  0  0  0  0  0  0  0
   38.9961   24.8180   42.2175 H   0  0  0  0  0  0  0  0  0  0  0  0
   36.7004   29.5691   43.5771 H   0  0  0  0  0  0  0  0  0  0  0  0
   36.0820   27.2857   44.2079 H   0  0  0  0  0  0  0  0  0  0  0  0
   40.0685   30.3824   42.2957 H   0  0  0  0  0  0  0  0  0  0  0  0
   40.4473   32.7615   41.4973 H   0  0  0  0  0  0  0  0  0  0  0  0
   36.5541   32.8374   39.7927 H   0  0  0  0  0  0  0  0  0  0  0  0
   40.2851   24.8387   38.5444 H   0  0  0  0  0  0  0  0  0  0  0  0
   42.9299   25.5192   44.4995 H   0  0  0  0  0  0  0  0  0  0  0  0
   45.8944   25.9681   40.8243 H   0  0  0  0  0  0  0  0  0  0  0  0
   44.8331   25.7224   39.4115 H   0  0  0  0  0  0  0  0  0  0  0  0
  1  5  1  0
  1 11  1  0
  2  1  1  0
  3  2  1  0
  3  4  1  0
  4  5  1  0
  6  7  1  0
  7  8  2  0
  9 10  2  0
  9  8  1  0
 11  9  1  0
 12 11  1  0
 12  6  1  0
 13 12  2  0
 14 15  2  0
 14  6  1  0
 16 15  1  0
 17 16  2  0
 18 17  1  0
 18 19  2  0
 19 14  1  0
 20  5  1  0
 20 28  1  0
 21 22  2  0
 21 20  1  0
 22 23  1  0
 23 24  1  0
 23 28  2  0
 24 25  2  0
 25 26  1  0
 27 26  2  0
 28 27  1  0
 29 24  1  0
  1 30  1  6
  2 31  1  0
  2 32  1  0
  3 33  1  0
  3 34  1  0
  4 35  1  0
  4 36  1  0
  5 37  1  1
  7 38  1  0
  8 39  1  0
 15 40  1  0
 16 41  1  0
 18 42  1  0
 21 43  1  0
 26 44  1  0
 29 45  1  0
 29 46  1  0
M  ISO  8  30  13  31  13  32  13  33  13  34  13  35  13  36  13  37  13
M  ISO  7  38  14  39  14  40  14  41  14  42  14  43  14  44  14
M  END
>  <minimizedAffinity>  (1) 
-5.74096155

>  <minimizedRMSD>  (1) 
0.51940608

$$$$
