
     RDKit          3D

 43 46  0  0  1  0  0  0  0  0999 V2000
   37.6410   26.9840   39.6440 C   0  0  2  0  0  0  0  0  0  0  0  0
   37.2000   27.8630   38.5560 C   0  0  0  0  0  0  0  0  0  0  0  0
   36.5480   26.8920   37.5640 C   0  0  0  0  0  0  0  0  0  0  0  0
   35.7380   26.0520   38.4710 C   0  0  0  0  0  0  0  0  0  0  0  0
   36.5800   25.9040   39.7280 C   0  0  1  0  0  0  0  0  0  0  0  0
   39.3740   27.9920   42.7230 N   0  0  0  0  0  0  0  0  0  0  0  0
   38.4120   28.7340   43.2670 C   0  0  0  0  0  0  0  0  0  0  0  0
   37.1810   28.9380   42.6750 C   0  0  0  0  0  0  0  0  0  0  0  0
   36.8930   28.3560   41.4440 C   0  0  0  0  0  0  0  0  0  0  0  0
   35.7900   28.5370   40.9090 O   0  0  0  0  0  0  0  0  0  0  0  0
   37.8910   27.6140   40.9270 N   0  0  0  0  0  0  0  0  0  0  0  0
   39.0650   27.4460   41.5410 C   0  0  0  0  0  0  0  0  0  0  0  0
   39.9370   26.7240   40.9600 O   0  0  0  0  0  0  0  0  0  0  0  0
   40.6320   27.7800   43.3240 C   0  0  0  0  0  0  0  0  0  0  0  0
   40.9360   26.6700   44.1570 C   0  0  0  0  0  0  0  0  0  0  0  0
   42.2400   26.6090   44.6770 C   0  0  0  0  0  0  0  0  0  0  0  0
   43.1160   27.5820   44.3680 N   0  0  0  0  0  0  0  0  0  0  0  0
   42.8010   28.6250   43.5750 C   0  0  0  0  0  0  0  0  0  0  0  0
   41.5660   28.7070   43.0670 N   0  0  0  0  0  0  0  0  0  0  0  0
   37.1470   24.5700   39.8240 N   0  0  0  0  0  0  0  0  0  0  0  0
   37.5220   23.8360   38.7620 C   0  0  0  0  0  0  0  0  0  0  0  0
   38.0600   22.5720   38.8510 C   0  0  0  0  0  0  0  0  0  0  0  0
   38.2360   21.9960   40.0890 C   0  0  0  0  0  0  0  0  0  0  0  0
   38.7290   20.8400   40.1580 O   0  0  0  0  0  0  0  0  0  0  0  0
   37.8620   22.7270   41.1560 N   0  0  0  0  0  0  0  0  0  0  0  0
   37.3420   23.9560   41.0270 C   0  0  0  0  0  0  0  0  0  0  0  0
   37.0280   24.5490   42.0850 O   0  0  0  0  0  0  0  0  0  0  0  0
   38.6420   26.5957   39.4050 H   0  0  0  0  0  0  0  0  0  0  0  0
   36.4727   28.6045   38.9181 H   0  0  0  0  0  0  0  0  0  0  0  0
   38.0206   28.4462   38.1129 H   0  0  0  0  0  0  0  0  0  0  0  0
   37.3021   26.2959   37.0292 H   0  0  0  0  0  0  0  0  0  0  0  0
   35.9693   27.3827   36.7676 H   0  0  0  0  0  0  0  0  0  0  0  0
   34.7816   26.5438   38.7021 H   0  0  0  0  0  0  0  0  0  0  0  0
   35.4915   25.0785   38.0221 H   0  0  0  0  0  0  0  0  0  0  0  0
   35.9798   26.0257   40.6417 H   0  0  0  0  0  0  0  0  0  0  0  0
   38.6078   29.2097   44.2393 H   0  0  0  0  0  0  0  0  0  0  0  0
   36.4268   29.5616   43.1773 H   0  0  0  0  0  0  0  0  0  0  0  0
   40.1875   25.8965   44.3837 H   0  0  0  0  0  0  0  0  0  0  0  0
   42.5409   25.7756   45.3289 H   0  0  0  0  0  0  0  0  0  0  0  0
   43.5493   29.3987   43.3484 H   0  0  0  0  0  0  0  0  0  0  0  0
   37.3909   24.2721   37.7607 H   0  0  0  0  0  0  0  0  0  0  0  0
   38.3471   22.0264   37.9400 H   0  0  0  0  0  0  0  0  0  0  0  0
   37.9788   22.3303   42.0993 H   0  0  0  0  0  0  0  0  0  0  0  0
  1  5  1  0
  1 11  1  0
  2  1  1  0
  3  4  1  0
  3  2  1  0
  4  5  1  0
  5 20  1  0
  6  7  1  0
  6 14  1  0
  8  7  2  0
  9  8  1  0
 10  9  2  0
 11  9  1  0
 11 12  1  0
 12  6  1  0
 13 12  2  0
 14 15  2  0
 15 16  1  0
 17 16  2  0
 18 17  1  0
 19 14  1  0
 19 18  2  0
 20 26  1  0
 21 22  2  0
 21 20  1  0
 22 23  1  0
 23 24  2  0
 23 25  1  0
 26 25  1  0
 26 27  2  0
  1 28  1  6
  2 29  1  0
  2 30  1  0
  3 31  1  0
  3 32  1  0
  4 33  1  0
  4 34  1  0
  5 35  1  1
  7 36  1  0
  8 37  1  0
 15 38  1  0
 16 39  1  0
 18 40  1  0
 21 41  1  0
 22 42  1  0
 25 43  1  0
M  ISO  8  28  13  29  13  30  13  31  13  32  13  33  13  34  13  35  13
M  ISO  8  36  14  37  14  38  14  39  14  40  14  41  14  42  14  43   9
M  END
>  <minimizedAffinity>  (1) 
-5.63362217

>  <minimizedRMSD>  (1) 
4.48073483

$$$$
