
     RDKit          3D

 25 26  0  0  1  0  0  0  0  0999 V2000
   36.7680   28.4710   41.9280 C   0  0  1  0  0  0  0  0  0  0  0  0
   36.6500   27.5420   40.7190 C   0  0  0  0  0  0  0  0  0  0  0  0
   37.1580   26.2190   41.2020 C   0  0  0  0  0  0  0  0  0  0  0  0
   36.9800   26.3080   42.7070 C   0  0  0  0  0  0  0  0  0  0  0  0
   37.5400   27.7020   42.9540 C   0  0  2  0  0  0  0  0  0  0  0  0
   39.1190   31.3930   41.4430 C   0  0  0  0  0  0  0  0  0  0  0  0
   38.7000   30.1200   41.8600 C   0  0  0  0  0  0  0  0  0  0  0  0
   37.3500   29.7720   41.5700 C   0  0  0  0  0  0  0  0  0  0  0  0
   36.5430   30.6510   40.9230 N   0  0  0  0  0  0  0  0  0  0  0  0
   37.0120   31.8730   40.5440 C   0  0  0  0  0  0  0  0  0  0  0  0
   38.2890   32.2250   40.8080 N   0  0  0  0  0  0  0  0  0  0  0  0
   37.1430   28.1550   44.3360 C   0  0  0  0  0  0  0  0  0  0  0  0
   36.0830   27.6480   44.7170 O   0  0  0  0  0  0  0  0  0  0  0  0
   35.7859   28.7486   42.3383 H   0  0  0  0  0  0  0  0  0  0  0  0
   37.2643   27.9118   39.8848 H   0  0  0  0  0  0  0  0  0  0  0  0
   35.6181   27.4785   40.3434 H   0  0  0  0  0  0  0  0  0  0  0  0
   36.5658   25.3921   40.7829 H   0  0  0  0  0  0  0  0  0  0  0  0
   38.1972   26.0199   40.9014 H   0  0  0  0  0  0  0  0  0  0  0  0
   35.9218   26.2350   42.9985 H   0  0  0  0  0  0  0  0  0  0  0  0
   37.4648   25.5042   43.2805 H   0  0  0  0  0  0  0  0  0  0  0  0
   38.6338   27.7986   42.8882 H   0  0  0  0  0  0  0  0  0  0  0  0
   40.1524   31.7122   41.6433 H   0  0  0  0  0  0  0  0  0  0  0  0
   39.3776   29.4287   42.3824 H   0  0  0  0  0  0  0  0  0  0  0  0
   36.3474   32.5761   40.0206 H   0  0  0  0  0  0  0  0  0  0  0  0
   37.7331   28.8604   44.9395 H   0  0  0  0  0  0  0  0  0  0  0  0
  1  5  1  0
  2  3  1  0
  2  1  1  0
  3  4  1  0
  4  5  1  0
  5 12  1  0
  6  7  2  0
  8  7  1  0
  8  1  1  0
  9  8  2  0
 10 11  2  0
 10  9  1  0
 11  6  1  0
 12 13  2  0
  1 14  1  1
  2 15  1  0
  2 16  1  0
  3 17  1  0
  3 18  1  0
  4 19  1  0
  4 20  1  0
  5 21  1  6
  6 22  1  0
  7 23  1  0
 10 24  1  0
 12 25  1  0
M  ISO  8  14  13  15  13  16  13  17  13  18  13  19  13  20  13  21  13
M  ISO  4  22  14  23  14  24  14  25   6
M  END
>  <minimizedAffinity>  (1) 
-4.15005589

>  <minimizedRMSD>  (1) 
1.31404614

$$$$
