
     RDKit          3D

 41 44  0  0  1  0  0  0  0  0999 V2000
   37.5980   25.5330   40.3480 C   0  0  2  0  0  0  0  0  0  0  0  0
   36.4060   24.8190   39.8960 C   0  0  0  0  0  0  0  0  0  0  0  0
   36.9930   23.5070   39.3390 C   0  0  0  0  0  0  0  0  0  0  0  0
   37.9240   23.1280   40.4330 C   0  0  0  0  0  0  0  0  0  0  0  0
   38.5020   24.4440   40.8940 C   0  0  1  0  0  0  0  0  0  0  0  0
   37.5550   28.8920   41.8390 N   0  0  0  0  0  0  0  0  0  0  0  0
   37.0290   28.5900   43.0280 C   0  0  0  0  0  0  0  0  0  0  0  0
   36.6750   27.3050   43.3980 C   0  0  0  0  0  0  0  0  0  0  0  0
   36.8610   26.2460   42.5100 C   0  0  0  0  0  0  0  0  0  0  0  0
   36.5470   25.0920   42.8300 O   0  0  0  0  0  0  0  0  0  0  0  0
   37.3930   26.5990   41.3200 N   0  0  0  0  0  0  0  0  0  0  0  0
   37.7210   27.8580   41.0090 C   0  0  0  0  0  0  0  0  0  0  0  0
   38.2190   28.0720   39.8560 O   0  0  0  0  0  0  0  0  0  0  0  0
   37.9170   30.1950   41.4610 C   0  0  0  0  0  0  0  0  0  0  0  0
   39.1870   30.7870   41.7500 C   0  0  0  0  0  0  0  0  0  0  0  0
   39.3850   32.0980   41.3010 C   0  0  0  0  0  0  0  0  0  0  0  0
   38.3940   32.7240   40.6340 N   0  0  0  0  0  0  0  0  0  0  0  0
   37.2080   32.1480   40.3740 C   0  0  0  0  0  0  0  0  0  0  0  0
   37.0010   30.8970   40.7950 N   0  0  0  0  0  0  0  0  0  0  0  0
   39.8390   24.5620   40.2530 C   0  0  0  0  0  0  0  0  0  0  0  0
   40.8450   25.3740   40.7660 C   0  0  0  0  0  0  0  0  0  0  0  0
   42.0500   25.3940   40.0680 C   0  0  0  0  0  0  0  0  0  0  0  0
   42.2030   24.6530   38.9550 N   0  0  0  0  0  0  0  0  0  0  0  0
   41.1940   23.8910   38.5100 C   0  0  0  0  0  0  0  0  0  0  0  0
   39.9870   23.8100   39.1260 N   0  0  0  0  0  0  0  0  0  0  0  0
   38.0231   26.0929   39.5019 H   0  0  0  0  0  0  0  0  0  0  0  0
   35.7189   24.6234   40.7324 H   0  0  0  0  0  0  0  0  0  0  0  0
   35.8117   25.3804   39.1600 H   0  0  0  0  0  0  0  0  0  0  0  0
   36.2127   22.7460   39.1904 H   0  0  0  0  0  0  0  0  0  0  0  0
   37.4683   23.6052   38.3519 H   0  0  0  0  0  0  0  0  0  0  0  0
   37.3833   22.6304   41.2516 H   0  0  0  0  0  0  0  0  0  0  0  0
   38.6974   22.4185   40.1036 H   0  0  0  0  0  0  0  0  0  0  0  0
   38.5818   24.5185   41.9886 H   0  0  0  0  0  0  0  0  0  0  0  0
   36.8689   29.4042   43.7502 H   0  0  0  0  0  0  0  0  0  0  0  0
   36.2463   27.1183   44.3937 H   0  0  0  0  0  0  0  0  0  0  0  0
   39.9684   30.2396   42.2974 H   0  0  0  0  0  0  0  0  0  0  0  0
   40.3388   32.6122   41.4902 H   0  0  0  0  0  0  0  0  0  0  0  0
   36.4254   32.6941   39.8270 H   0  0  0  0  0  0  0  0  0  0  0  0
   40.6962   25.9709   41.6779 H   0  0  0  0  0  0  0  0  0  0  0  0
   42.8808   26.0185   40.4282 H   0  0  0  0  0  0  0  0  0  0  0  0
   41.3526   23.2994   37.5963 H   0  0  0  0  0  0  0  0  0  0  0  0
  1  5  1  0
  1 11  1  0
  2  1  1  0
  3  2  1  0
  3  4  1  0
  4  5  1  0
  6  7  1  0
  7  8  2  0
  9 10  2  0
  9  8  1  0
 11  9  1  0
 12 11  1  0
 12  6  1  0
 13 12  2  0
 14 15  2  0
 14  6  1  0
 16 15  1  0
 17 16  2  0
 18 17  1  0
 18 19  2  0
 19 14  1  0
 20 21  2  0
 20  5  1  0
 22 21  1  0
 23 22  2  0
 24 23  1  0
 24 25  2  0
 25 20  1  0
  1 26  1  6
  2 27  1  0
  2 28  1  0
  3 29  1  0
  3 30  1  0
  4 31  1  0
  4 32  1  0
  5 33  1  1
  7 34  1  0
  8 35  1  0
 15 36  1  0
 16 37  1  0
 18 38  1  0
 21 39  1  0
 22 40  1  0
 24 41  1  0
M  ISO  8  26  13  27  13  28  13  29  13  30  13  31  13  32  13  33  13
M  ISO  8  34  14  35  14  36  14  37  14  38  14  39  14  40  14  41  14
M  END
>  <minimizedAffinity>  (1) 
-5.23938179

>  <minimizedRMSD>  (1) 
0.609127402

$$$$
