
     RDKit          3D

 39 42  0  0  1  0  0  0  0  0999 V2000
   37.5540   28.8950   41.8290 N   0  0  0  0  0  0  0  0  0  0  0  0
   37.0310   28.5930   43.0090 C   0  0  0  0  0  0  0  0  0  0  0  0
   36.6820   27.3160   43.3790 C   0  0  0  0  0  0  0  0  0  0  0  0
   36.8720   26.2560   42.4950 C   0  0  0  0  0  0  0  0  0  0  0  0
   36.5570   25.0930   42.8220 O   0  0  0  0  0  0  0  0  0  0  0  0
   37.4050   26.5970   41.3050 N   0  0  0  0  0  0  0  0  0  0  0  0
   37.7260   27.8610   41.0010 C   0  0  0  0  0  0  0  0  0  0  0  0
   38.2240   28.0850   39.8510 O   0  0  0  0  0  0  0  0  0  0  0  0
   37.6310   25.5420   40.3330 C   0  0  2  0  0  0  0  0  0  0  0  0
   36.4430   24.7970   39.9210 C   0  0  0  0  0  0  0  0  0  0  0  0
   37.0220   23.4870   39.3800 C   0  0  0  0  0  0  0  0  0  0  0  0
   38.0580   23.1640   40.4010 C   0  0  0  0  0  0  0  0  0  0  0  0
   38.5800   24.4770   40.8790 C   0  0  1  0  0  0  0  0  0  0  0  0
   39.9870   24.7030   40.4400 C   0  0  0  0  0  0  0  0  0  0  0  0
   40.8440   25.3280   41.3690 C   0  0  0  0  0  0  0  0  0  0  0  0
   42.4290   25.3930   40.4130 S   0  0  0  0  0  0  0  0  0  0  0  0
   41.6140   24.5510   38.9220 C   0  0  0  0  0  0  0  0  0  0  0  0
   40.5650   24.3990   39.2870 N   0  0  0  0  0  0  0  0  0  0  0  0
   37.9120   30.2080   41.4510 C   0  0  0  0  0  0  0  0  0  0  0  0
   39.1560   30.8170   41.7330 C   0  0  0  0  0  0  0  0  0  0  0  0
   39.3730   32.1180   41.2990 C   0  0  0  0  0  0  0  0  0  0  0  0
   38.3730   32.7400   40.6260 N   0  0  0  0  0  0  0  0  0  0  0  0
   37.1990   32.1500   40.3660 C   0  0  0  0  0  0  0  0  0  0  0  0
   37.0000   30.9050   40.7840 N   0  0  0  0  0  0  0  0  0  0  0  0
   36.8677   29.4073   43.7302 H   0  0  0  0  0  0  0  0  0  0  0  0
   36.2521   27.1307   44.3744 H   0  0  0  0  0  0  0  0  0  0  0  0
   38.0321   26.0972   39.4723 H   0  0  0  0  0  0  0  0  0  0  0  0
   35.7778   24.6105   40.7770 H   0  0  0  0  0  0  0  0  0  0  0  0
   35.8306   25.3354   39.1828 H   0  0  0  0  0  0  0  0  0  0  0  0
   36.2537   22.7016   39.3273 H   0  0  0  0  0  0  0  0  0  0  0  0
   37.4162   23.5647   38.3560 H   0  0  0  0  0  0  0  0  0  0  0  0
   37.6120   22.6024   41.2351 H   0  0  0  0  0  0  0  0  0  0  0  0
   38.8592   22.5381   39.9811 H   0  0  0  0  0  0  0  0  0  0  0  0
   38.6113   24.5125   41.9780 H   0  0  0  0  0  0  0  0  0  0  0  0
   40.6289   25.6820   42.3880 H   0  0  0  0  0  0  0  0  0  0  0  0
   42.0558   24.2817   37.9513 H   0  0  0  0  0  0  0  0  0  0  0  0
   39.9359   30.2717   42.2847 H   0  0  0  0  0  0  0  0  0  0  0  0
   40.3272   32.6289   41.4951 H   0  0  0  0  0  0  0  0  0  0  0  0
   36.4128   32.6875   39.8155 H   0  0  0  0  0  0  0  0  0  0  0  0
  1  2  1  0
  2  3  2  0
  4  5  2  0
  4  3  1  0
  6  4  1  0
  7  6  1  0
  7  1  1  0
  8  7  2  0
  9 13  1  0
  9  6  1  0
 10  9  1  0
 11 10  1  0
 11 12  1  0
 12 13  1  0
 14 13  1  0
 14 15  2  0
 16 15  1  0
 17 18  2  0
 17 16  1  0
 18 14  1  0
 19 20  2  0
 19  1  1  0
 21 20  1  0
 22 21  2  0
 23 22  1  0
 23 24  2  0
 24 19  1  0
  2 25  1  0
  3 26  1  0
  9 27  1  6
 10 28  1  0
 10 29  1  0
 11 30  1  0
 11 31  1  0
 12 32  1  0
 12 33  1  0
 13 34  1  1
 15 35  1  0
 17 36  1  0
 20 37  1  0
 21 38  1  0
 23 39  1  0
M  ISO  8  25  14  26  14  27  13  28  13  29  13  30  13  31  13  32  13
M  ISO  7  33  13  34  13  35  14  36  14  37  14  38  14  39  14
M  END
>  <minimizedAffinity>  (1) 
-5.15192795

>  <minimizedRMSD>  (1) 
0.327597111

$$$$
