
     RDKit          3D

 38 41  0  0  1  0  0  0  0  0999 V2000
   37.6210   28.9290   41.8120 N   0  0  0  0  0  0  0  0  0  0  0  0
   36.9980   28.6240   42.9570 C   0  0  0  0  0  0  0  0  0  0  0  0
   36.6610   27.3310   43.3070 C   0  0  0  0  0  0  0  0  0  0  0  0
   36.9650   26.2690   42.4610 C   0  0  0  0  0  0  0  0  0  0  0  0
   36.6630   25.1120   42.7770 O   0  0  0  0  0  0  0  0  0  0  0  0
   37.5920   26.6220   41.3200 N   0  0  0  0  0  0  0  0  0  0  0  0
   37.9040   27.8850   41.0090 C   0  0  0  0  0  0  0  0  0  0  0  0
   38.4910   28.1030   39.9160 O   0  0  0  0  0  0  0  0  0  0  0  0
   37.9310   25.5530   40.4040 C   0  0  2  0  0  0  0  0  0  0  0  0
   36.8310   24.7050   39.9460 C   0  0  0  0  0  0  0  0  0  0  0  0
   37.5420   23.4410   39.4500 C   0  0  0  0  0  0  0  0  0  0  0  0
   38.5010   23.2010   40.5560 C   0  0  0  0  0  0  0  0  0  0  0  0
   38.9490   24.5870   40.9910 C   0  0  1  0  0  0  0  0  0  0  0  0
   40.3130   24.7920   40.4580 C   0  0  0  0  0  0  0  0  0  0  0  0
   40.7640   24.5450   39.1970 N   0  0  0  0  0  0  0  0  0  0  0  0
   42.0140   24.8650   39.1640 O   0  0  0  0  0  0  0  0  0  0  0  0
   42.4130   25.3080   40.3250 C   0  0  0  0  0  0  0  0  0  0  0  0
   41.3580   25.2800   41.1900 N   0  0  0  0  0  0  0  0  0  0  0  0
   37.9690   30.2460   41.4450 C   0  0  0  0  0  0  0  0  0  0  0  0
   39.2100   30.8580   41.7450 C   0  0  0  0  0  0  0  0  0  0  0  0
   39.4100   32.1630   41.3160 C   0  0  0  0  0  0  0  0  0  0  0  0
   38.4270   32.7840   40.6410 N   0  0  0  0  0  0  0  0  0  0  0  0
   37.2440   32.1870   40.3590 C   0  0  0  0  0  0  0  0  0  0  0  0
   37.0500   30.9300   40.7720 N   0  0  0  0  0  0  0  0  0  0  0  0
   36.7431   29.4394   43.6499 H   0  0  0  0  0  0  0  0  0  0  0  0
   36.1486   27.1395   44.2614 H   0  0  0  0  0  0  0  0  0  0  0  0
   38.3149   26.1302   39.5499 H   0  0  0  0  0  0  0  0  0  0  0  0
   36.1432   24.4716   40.7721 H   0  0  0  0  0  0  0  0  0  0  0  0
   36.2132   25.1829   39.1715 H   0  0  0  0  0  0  0  0  0  0  0  0
   36.8401   22.6018   39.3351 H   0  0  0  0  0  0  0  0  0  0  0  0
   38.0096   23.5436   38.4596 H   0  0  0  0  0  0  0  0  0  0  0  0
   38.0095   22.6742   41.3872 H   0  0  0  0  0  0  0  0  0  0  0  0
   39.3466   22.5713   40.2423 H   0  0  0  0  0  0  0  0  0  0  0  0
   38.9928   24.7327   42.0804 H   0  0  0  0  0  0  0  0  0  0  0  0
   43.4311   25.6477   40.5663 H   0  0  0  0  0  0  0  0  0  0  0  0
   39.9904   30.3169   42.3001 H   0  0  0  0  0  0  0  0  0  0  0  0
   40.3577   32.6808   41.5250 H   0  0  0  0  0  0  0  0  0  0  0  0
   36.4612   32.7238   39.8032 H   0  0  0  0  0  0  0  0  0  0  0  0
  1  2  1  0
  2  3  2  0
  4  5  2  0
  4  3  1  0
  6  4  1  0
  7  6  1  0
  7  1  1  0
  8  7  2  0
  9 13  1  0
  9  6  1  0
 10  9  1  0
 11 10  1  0
 11 12  1  0
 12 13  1  0
 14 13  1  0
 14 18  1  0
 15 14  2  0
 16 15  1  0
 16 17  1  0
 17 18  2  0
 19 20  2  0
 19  1  1  0
 21 20  1  0
 22 21  2  0
 23 22  1  0
 23 24  2  0
 24 19  1  0
  2 25  1  0
  3 26  1  0
  9 27  1  6
 10 28  1  0
 10 29  1  0
 11 30  1  0
 11 31  1  0
 12 32  1  0
 12 33  1  0
 13 34  1  1
 17 35  1  0
 20 36  1  0
 21 37  1  0
 23 38  1  0
M  ISO  8  25  14  26  14  27  13  28  13  29  13  30  13  31  13  32  13
M  ISO  6  33  13  34  13  35  14  36  14  37  14  38  14
M  END
>  <minimizedAffinity>  (1) 
-5.08447981

>  <minimizedRMSD>  (1) 
0.195935771

$$$$
