
     RDKit          3D

 38 40  0  0  1  0  0  0  0  0999 V2000
   37.9590   28.8160   41.9210 N   0  0  0  0  0  0  0  0  0  0  0  0
   37.3180   28.5650   43.0600 C   0  0  0  0  0  0  0  0  0  0  0  0
   36.8180   27.3300   43.3950 C   0  0  0  0  0  0  0  0  0  0  0  0
   36.9740   26.2620   42.5150 C   0  0  0  0  0  0  0  0  0  0  0  0
   36.5240   25.1290   42.8060 O   0  0  0  0  0  0  0  0  0  0  0  0
   37.6370   26.5590   41.3550 N   0  0  0  0  0  0  0  0  0  0  0  0
   38.0930   27.7690   41.0960 C   0  0  0  0  0  0  0  0  0  0  0  0
   38.6950   27.9440   39.9920 O   0  0  0  0  0  0  0  0  0  0  0  0
   37.8110   25.4730   40.4280 C   0  0  2  0  0  0  0  0  0  0  0  0
   36.6400   24.6780   40.0920 C   0  0  0  0  0  0  0  0  0  0  0  0
   37.2640   23.3760   39.5500 C   0  0  0  0  0  0  0  0  0  0  0  0
   38.3420   23.1200   40.5170 C   0  0  0  0  0  0  0  0  0  0  0  0
   38.8540   24.4700   40.9170 C   0  0  1  0  0  0  0  0  0  0  0  0
   40.2350   24.7950   40.4470 C   0  0  0  0  0  0  0  0  0  0  0  0
   38.4740   30.0940   41.5770 C   0  0  0  0  0  0  0  0  0  0  0  0
   39.7470   30.5810   42.0170 C   0  0  0  0  0  0  0  0  0  0  0  0
   40.1060   31.8620   41.5880 C   0  0  0  0  0  0  0  0  0  0  0  0
   39.2610   32.5480   40.8080 N   0  0  0  0  0  0  0  0  0  0  0  0
   38.0780   32.0760   40.4090 C   0  0  0  0  0  0  0  0  0  0  0  0
   37.7000   30.8500   40.8010 N   0  0  0  0  0  0  0  0  0  0  0  0
   37.1850   32.8560   39.5580 C   0  0  0  0  0  0  0  0  0  0  0  0
   37.2290   34.1160   39.5350 O   0  0  0  0  0  0  0  0  0  0  0  0
   37.1810   29.3919   43.7724 H   0  0  0  0  0  0  0  0  0  0  0  0
   36.2973   27.1856   44.3531 H   0  0  0  0  0  0  0  0  0  0  0  0
   38.1103   26.0248   39.5247 H   0  0  0  0  0  0  0  0  0  0  0  0
   36.0235   24.4828   40.9818 H   0  0  0  0  0  0  0  0  0  0  0  0
   35.9656   25.1717   39.3768 H   0  0  0  0  0  0  0  0  0  0  0  0
   36.5313   22.5555   39.5435 H   0  0  0  0  0  0  0  0  0  0  0  0
   37.6140   23.4545   38.5101 H   0  0  0  0  0  0  0  0  0  0  0  0
   37.9517   22.5823   41.3936 H   0  0  0  0  0  0  0  0  0  0  0  0
   39.1371   22.4952   40.0840 H   0  0  0  0  0  0  0  0  0  0  0  0
   38.9759   24.5027   42.0097 H   0  0  0  0  0  0  0  0  0  0  0  0
   40.8913   24.9494   41.3162 H   0  0  0  0  0  0  0  0  0  0  0  0
   40.6208   23.9631   39.8395 H   0  0  0  0  0  0  0  0  0  0  0  0
   40.2093   25.7116   39.8395 H   0  0  0  0  0  0  0  0  0  0  0  0
   40.4072   29.9789   42.6585 H   0  0  0  0  0  0  0  0  0  0  0  0
   41.0695   32.3005   41.8871 H   0  0  0  0  0  0  0  0  0  0  0  0
   36.4564   32.3324   38.9217 H   0  0  0  0  0  0  0  0  0  0  0  0
  1  2  1  0
  2  3  2  0
  4  5  2  0
  4  3  1  0
  6  4  1  0
  7  6  1  0
  7  1  1  0
  8  7  2  0
  9 13  1  0
  9  6  1  0
 10  9  1  0
 11 10  1  0
 11 12  1  0
 12 13  1  0
 14 13  1  0
 15  1  1  0
 15 16  2  0
 17 16  1  0
 18 17  2  0
 19 20  2  0
 19 18  1  0
 20 15  1  0
 21 19  1  0
 22 21  2  0
  2 23  1  0
  3 24  1  0
  9 25  1  6
 10 26  1  0
 10 27  1  0
 11 28  1  0
 11 29  1  0
 12 30  1  0
 12 31  1  0
 13 32  1  1
 14 33  1  0
 14 34  1  0
 14 35  1  0
 16 36  1  0
 17 37  1  0
 21 38  1  0
M  ISO  8  23  14  24  14  25  13  26  13  27  13  28  13  29  13  30  13
M  ISO  8  31  13  32  13  33   8  34   8  35   8  36  14  37  14  38   6
M  END
>  <minimizedAffinity>  (1) 
-5.16504717

>  <minimizedRMSD>  (1) 
0.56108284

$$$$
