
     RDKit          3D

 48 50  0  0  1  0  0  0  0  0999 V2000
   38.2020   28.5450   42.0990 N   0  0  0  0  0  0  0  0  0  0  0  0
   37.3980   28.2860   43.1280 C   0  0  0  0  0  0  0  0  0  0  0  0
   36.7700   27.0750   43.2990 C   0  0  0  0  0  0  0  0  0  0  0  0
   36.9540   26.0520   42.3860 C   0  0  0  0  0  0  0  0  0  0  0  0
   36.3880   24.9530   42.5350 O   0  0  0  0  0  0  0  0  0  0  0  0
   37.7860   26.3610   41.3470 N   0  0  0  0  0  0  0  0  0  0  0  0
   38.3740   27.5490   41.2200 C   0  0  0  0  0  0  0  0  0  0  0  0
   39.1210   27.7290   40.2280 O   0  0  0  0  0  0  0  0  0  0  0  0
   38.0020   25.3210   40.3770 C   0  0  2  0  0  0  0  0  0  0  0  0
   36.8380   24.5810   39.9060 C   0  0  0  0  0  0  0  0  0  0  0  0
   37.4510   23.2940   39.3450 C   0  0  0  0  0  0  0  0  0  0  0  0
   38.4530   22.9470   40.3760 C   0  0  0  0  0  0  0  0  0  0  0  0
   38.9820   24.2530   40.8870 C   0  0  1  0  0  0  0  0  0  0  0  0
   40.3930   24.5510   40.5430 C   0  0  0  0  0  0  0  0  0  0  0  0
   38.8480   29.7850   41.9190 C   0  0  0  0  0  0  0  0  0  0  0  0
   39.9530   30.2340   42.6900 C   0  0  0  0  0  0  0  0  0  0  0  0
   40.5070   31.4790   42.4190 C   0  0  0  0  0  0  0  0  0  0  0  0
   39.9530   32.2000   41.4230 N   0  0  0  0  0  0  0  0  0  0  0  0
   38.9150   31.7740   40.7020 C   0  0  0  0  0  0  0  0  0  0  0  0
   38.3750   30.5700   40.9590 N   0  0  0  0  0  0  0  0  0  0  0  0
   38.3410   32.6110   39.6100 C   0  0  0  0  0  0  0  0  0  0  0  0
   38.3130   34.0780   40.0560 C   0  0  0  0  0  0  0  0  0  0  0  0
   37.0240   32.1280   39.1010 C   0  0  0  0  0  0  0  0  0  0  0  0
   39.3210   32.5960   38.4320 C   0  0  0  0  0  0  0  0  0  0  0  0
   37.2286   29.0760   43.8745 H   0  0  0  0  0  0  0  0  0  0  0  0
   36.1156   26.9181   44.1692 H   0  0  0  0  0  0  0  0  0  0  0  0
   38.3861   25.9134   39.5335 H   0  0  0  0  0  0  0  0  0  0  0  0
   36.1475   24.3618   40.7337 H   0  0  0  0  0  0  0  0  0  0  0  0
   36.2424   25.1356   39.1660 H   0  0  0  0  0  0  0  0  0  0  0  0
   36.6933   22.5030   39.2437 H   0  0  0  0  0  0  0  0  0  0  0  0
   37.8777   23.4118   38.3380 H   0  0  0  0  0  0  0  0  0  0  0  0
   37.9822   22.3788   41.1918 H   0  0  0  0  0  0  0  0  0  0  0  0
   39.2561   22.3179   39.9646 H   0  0  0  0  0  0  0  0  0  0  0  0
   39.0293   24.2230   41.9856 H   0  0  0  0  0  0  0  0  0  0  0  0
   40.9774   24.6744   41.4667 H   0  0  0  0  0  0  0  0  0  0  0  0
   40.8098   23.7211   39.9535 H   0  0  0  0  0  0  0  0  0  0  0  0
   40.4387   25.4786   39.9535 H   0  0  0  0  0  0  0  0  0  0  0  0
   40.3652   29.6038   43.4919 H   0  0  0  0  0  0  0  0  0  0  0  0
   41.3633   31.8614   42.9939 H   0  0  0  0  0  0  0  0  0  0  0  0
   38.3121   34.1272   41.1549 H   0  0  0  0  0  0  0  0  0  0  0  0
   39.2014   34.5967   39.6665 H   0  0  0  0  0  0  0  0  0  0  0  0
   37.4054   34.5624   39.6665 H   0  0  0  0  0  0  0  0  0  0  0  0
   36.3683   31.8875   39.9508 H   0  0  0  0  0  0  0  0  0  0  0  0
   36.5572   32.9134   38.4885 H   0  0  0  0  0  0  0  0  0  0  0  0
   37.1757   31.2270   38.4885 H   0  0  0  0  0  0  0  0  0  0  0  0
   40.3526   32.5802   38.8134 H   0  0  0  0  0  0  0  0  0  0  0  0
   39.1432   31.7005   37.8185 H   0  0  0  0  0  0  0  0  0  0  0  0
   39.1707   33.4966   37.8185 H   0  0  0  0  0  0  0  0  0  0  0  0
  1  2  1  0
  2  3  2  0
  4  5  2  0
  4  3  1  0
  6  4  1  0
  7  6  1  0
  7  1  1  0
  8  7  2  0
  9 13  1  0
  9  6  1  0
 10  9  1  0
 11 10  1  0
 11 12  1  0
 12 13  1  0
 14 13  1  0
 15  1  1  0
 15 16  2  0
 17 16  1  0
 18 17  2  0
 19 20  2  0
 19 18  1  0
 20 15  1  0
 21 22  1  0
 21 19  1  0
 23 21  1  0
 24 21  1  0
  2 25  1  0
  3 26  1  0
  9 27  1  6
 10 28  1  0
 10 29  1  0
 11 30  1  0
 11 31  1  0
 12 32  1  0
 12 33  1  0
 13 34  1  1
 14 35  1  0
 14 36  1  0
 14 37  1  0
 16 38  1  0
 17 39  1  0
 22 40  1  0
 22 41  1  0
 22 42  1  0
 23 43  1  0
 23 44  1  0
 23 45  1  0
 24 46  1  0
 24 47  1  0
 24 48  1  0
M  ISO  8  25  14  26  14  27  13  28  13  29  13  30  13  31  13  32  13
M  ISO  8  33  13  34  13  35   8  36   8  37   8  38  14  39  14  40   8
M  ISO  8  41   8  42   8  43   8  44   8  45   8  46   8  47   8  48   8
M  END
>  <minimizedAffinity>  (1) 
-5.1396513

>  <minimizedRMSD>  (1) 
1.28604436

$$$$
