
     RDKit          3D

 46 49  0  0  1  0  0  0  0  0999 V2000
   37.9320   29.2290   41.6240 N   0  0  0  0  0  0  0  0  0  0  0  0
   37.1310   28.9230   42.6110 C   0  0  0  0  0  0  0  0  0  0  0  0
   37.4710   28.0360   43.6080 C   0  0  0  0  0  0  0  0  0  0  0  0
   38.7160   27.4150   43.6020 C   0  0  0  0  0  0  0  0  0  0  0  0
   39.0250   26.6050   44.5120 O   0  0  0  0  0  0  0  0  0  0  0  0
   39.5240   27.7510   42.5680 N   0  0  0  0  0  0  0  0  0  0  0  0
   39.1400   28.6180   41.6300 C   0  0  0  0  0  0  0  0  0  0  0  0
   39.9780   28.8650   40.7010 O   0  0  0  0  0  0  0  0  0  0  0  0
   40.8120   27.1220   42.5440 C   0  0  2  0  0  0  0  0  0  0  0  0
   40.8730   25.6730   42.5120 C   0  0  0  0  0  0  0  0  0  0  0  0
   42.2930   25.3720   43.0130 C   0  0  0  0  0  0  0  0  0  0  0  0
   42.4490   26.3290   44.1240 C   0  0  0  0  0  0  0  0  0  0  0  0
   41.6840   27.5560   43.7260 C   0  0  1  0  0  0  0  0  0  0  0  0
   42.5230   28.7440   43.4070 C   0  0  0  0  0  0  0  0  0  0  0  0
   37.6060   30.1430   40.5820 C   0  0  0  0  0  0  0  0  0  0  0  0
   37.0660   29.7450   39.3300 C   0  0  0  0  0  0  0  0  0  0  0  0
   36.7940   30.7430   38.4040 C   0  0  0  0  0  0  0  0  0  0  0  0
   37.0520   32.0070   38.7430 N   0  0  0  0  0  0  0  0  0  0  0  0
   37.5670   32.3890   39.9350 C   0  0  0  0  0  0  0  0  0  0  0  0
   37.8300   31.4270   40.8290 N   0  0  0  0  0  0  0  0  0  0  0  0
   37.8180   33.7010   40.2460 O   0  0  0  0  0  0  0  0  0  0  0  0
   39.0030   34.3340   39.9990 C   0  0  0  0  0  0  0  0  0  0  0  0
   40.2900   34.0090   39.6440 C   0  0  0  0  0  0  0  0  0  0  0  0
   41.2990   34.9240   39.4650 C   0  0  0  0  0  0  0  0  0  0  0  0
   41.0090   36.2610   39.6500 C   0  0  0  0  0  0  0  0  0  0  0  0
   39.7210   36.5970   40.0050 C   0  0  0  0  0  0  0  0  0  0  0  0
   38.7430   35.6650   40.1760 N   0  0  0  0  0  0  0  0  0  0  0  0
   36.1387   29.3964   42.6467 H   0  0  0  0  0  0  0  0  0  0  0  0
   36.7544   27.8173   44.4134 H   0  0  0  0  0  0  0  0  0  0  0  0
   41.1775   27.4744   41.5682 H   0  0  0  0  0  0  0  0  0  0  0  0
   40.1174   25.2313   43.1784 H   0  0  0  0  0  0  0  0  0  0  0  0
   40.6685   25.2539   41.5157 H   0  0  0  0  0  0  0  0  0  0  0  0
   42.3778   24.3341   43.3675 H   0  0  0  0  0  0  0  0  0  0  0  0
   43.0635   25.4743   42.2346 H   0  0  0  0  0  0  0  0  0  0  0  0
   42.0371   25.9067   45.0524 H   0  0  0  0  0  0  0  0  0  0  0  0
   43.5084   26.5587   44.3110 H   0  0  0  0  0  0  0  0  0  0  0  0
   41.0879   27.9150   44.5779 H   0  0  0  0  0  0  0  0  0  0  0  0
   42.8578   29.2180   44.3415 H   0  0  0  0  0  0  0  0  0  0  0  0
   43.3992   28.4277   42.8219 H   0  0  0  0  0  0  0  0  0  0  0  0
   41.9319   29.4639   42.8219 H   0  0  0  0  0  0  0  0  0  0  0  0
   36.8708   28.6866   39.1028 H   0  0  0  0  0  0  0  0  0  0  0  0
   36.3765   30.4977   37.4163 H   0  0  0  0  0  0  0  0  0  0  0  0
   40.5282   32.9457   39.4931 H   0  0  0  0  0  0  0  0  0  0  0  0
   42.3113   34.5999   39.1817 H   0  0  0  0  0  0  0  0  0  0  0  0
   41.7814   37.0330   39.5182 H   0  0  0  0  0  0  0  0  0  0  0  0
   39.4733   37.6580   40.1560 H   0  0  0  0  0  0  0  0  0  0  0  0
  1  7  1  0
  1  2  1  0
  2  3  2  0
  4  3  1  0
  4  5  2  0
  6  4  1  0
  7  6  1  0
  8  7  2  0
  9  6  1  0
  9 13  1  0
 10  9  1  0
 10 11  1  0
 11 12  1  0
 13 12  1  0
 14 13  1  0
 15 20  1  0
 15  1  1  0
 16 15  2  0
 17 18  2  0
 17 16  1  0
 18 19  1  0
 19 21  1  0
 19 20  2  0
 22 27  1  0
 22 21  1  0
 23 22  2  0
 24 23  1  0
 24 25  2  0
 25 26  1  0
 26 27  2  0
  2 28  1  0
  3 29  1  0
  9 30  1  6
 10 31  1  0
 10 32  1  0
 11 33  1  0
 11 34  1  0
 12 35  1  0
 12 36  1  0
 13 37  1  1
 14 38  1  0
 14 39  1  0
 14 40  1  0
 16 41  1  0
 17 42  1  0
 23 43  1  0
 24 44  1  0
 25 45  1  0
 26 46  1  0
M  ISO  8  28  14  29  14  30  13  31  13  32  13  33  13  34  13  35  13
M  ISO  8  36  13  37  13  38   8  39   8  40   8  41  14  42  14  43  14
M  ISO  3  44  14  45  14  46  14
M  END
>  <minimizedAffinity>  (1) 
-6.52398348

>  <minimizedRMSD>  (1) 
3.44840312

$$$$
