
     RDKit          3D

 44 47  0  0  1  0  0  0  0  0999 V2000
   39.3070   29.5300   42.3260 N   0  0  0  0  0  0  0  0  0  0  0  0
   38.2980   29.6970   43.1660 C   0  0  0  0  0  0  0  0  0  0  0  0
   37.3790   28.7090   43.4410 C   0  0  0  0  0  0  0  0  0  0  0  0
   37.4900   27.4630   42.8210 C   0  0  0  0  0  0  0  0  0  0  0  0
   36.6560   26.5610   43.0700 O   0  0  0  0  0  0  0  0  0  0  0  0
   38.5320   27.3300   41.9710 N   0  0  0  0  0  0  0  0  0  0  0  0
   39.3950   28.3270   41.7400 C   0  0  0  0  0  0  0  0  0  0  0  0
   40.3340   28.1010   40.9280 O   0  0  0  0  0  0  0  0  0  0  0  0
   38.6650   26.0610   41.3240 C   0  0  2  0  0  0  0  0  0  0  0  0
   37.6860   25.6920   40.3250 C   0  0  0  0  0  0  0  0  0  0  0  0
   37.7930   24.1660   40.2570 C   0  0  0  0  0  0  0  0  0  0  0  0
   37.9550   23.7790   41.6640 C   0  0  0  0  0  0  0  0  0  0  0  0
   38.6970   24.9050   42.3390 C   0  0  1  0  0  0  0  0  0  0  0  0
   40.0770   24.5590   42.7580 C   0  0  0  0  0  0  0  0  0  0  0  0
   40.2610   30.5440   42.0330 C   0  0  0  0  0  0  0  0  0  0  0  0
   41.4890   30.6990   42.7380 C   0  0  0  0  0  0  0  0  0  0  0  0
   42.3260   31.7390   42.3430 C   0  0  0  0  0  0  0  0  0  0  0  0
   41.9290   32.5210   41.3340 N   0  0  0  0  0  0  0  0  0  0  0  0
   40.7630   32.3630   40.6750 C   0  0  0  0  0  0  0  0  0  0  0  0
   39.9490   31.3800   41.0340 N   0  0  0  0  0  0  0  0  0  0  0  0
   40.3990   33.2040   39.6350 O   0  0  0  0  0  0  0  0  0  0  0  0
   41.0210   36.5860   39.4790 N   0  0  0  0  0  0  0  0  0  0  0  0
   41.2570   35.2870   39.2740 N   0  0  0  0  0  0  0  0  0  0  0  0
   40.2280   34.5730   39.8080 C   0  0  0  0  0  0  0  0  0  0  0  0
   39.3330   35.4900   40.3600 C   0  0  0  0  0  0  0  0  0  0  0  0
   39.8610   36.7490   40.1360 C   0  0  0  0  0  0  0  0  0  0  0  0
   38.1884   30.6698   43.6676 H   0  0  0  0  0  0  0  0  0  0  0  0
   36.5586   28.9012   44.1481 H   0  0  0  0  0  0  0  0  0  0  0  0
   39.6146   26.2123   40.7898 H   0  0  0  0  0  0  0  0  0  0  0  0
   36.6761   26.0009   40.6327 H   0  0  0  0  0  0  0  0  0  0  0  0
   37.8659   26.1753   39.3534 H   0  0  0  0  0  0  0  0  0  0  0  0
   36.8806   23.7251   39.8290 H   0  0  0  0  0  0  0  0  0  0  0  0
   38.6170   23.8191   39.6161 H   0  0  0  0  0  0  0  0  0  0  0  0
   36.9707   23.6376   42.1343 H   0  0  0  0  0  0  0  0  0  0  0  0
   38.5064   22.8314   41.7534 H   0  0  0  0  0  0  0  0  0  0  0  0
   38.2146   25.1692   43.2916 H   0  0  0  0  0  0  0  0  0  0  0  0
   40.1340   24.5447   43.8564 H   0  0  0  0  0  0  0  0  0  0  0  0
   40.3418   23.5667   42.3642 H   0  0  0  0  0  0  0  0  0  0  0  0
   40.7787   25.3090   42.3642 H   0  0  0  0  0  0  0  0  0  0  0  0
   41.7649   30.0240   43.5615 H   0  0  0  0  0  0  0  0  0  0  0  0
   43.2880   31.9126   42.8475 H   0  0  0  0  0  0  0  0  0  0  0  0
   41.6396   37.3521   39.1767 H   0  0  0  0  0  0  0  0  0  0  0  0
   38.3891   35.2568   40.8744 H   0  0  0  0  0  0  0  0  0  0  0  0
   39.4134   37.7067   40.4399 H   0  0  0  0  0  0  0  0  0  0  0  0
  1  2  1  0
  2  3  2  0
  4  5  2  0
  4  3  1  0
  6  4  1  0
  7  6  1  0
  7  1  1  0
  8  7  2  0
  9  6  1  0
  9 13  1  0
 10  9  1  0
 11 10  1  0
 11 12  1  0
 12 13  1  0
 13 14  1  0
 15  1  1  0
 15 16  2  0
 17 16  1  0
 18 17  2  0
 19 20  2  0
 19 18  1  0
 20 15  1  0
 21 24  1  0
 21 19  1  0
 22 26  1  0
 23 22  1  0
 23 24  2  0
 24 25  1  0
 26 25  2  0
  2 27  1  0
  3 28  1  0
  9 29  1  6
 10 30  1  0
 10 31  1  0
 11 32  1  0
 11 33  1  0
 12 34  1  0
 12 35  1  0
 13 36  1  1
 14 37  1  0
 14 38  1  0
 14 39  1  0
 16 40  1  0
 17 41  1  0
 22 42  1  0
 25 43  1  0
 26 44  1  0
M  ISO  8  27  14  28  14  29  13  30  13  31  13  32  13  33  13  34  13
M  ISO  8  35  13  36  13  37   8  38   8  39   8  40  14  41  14  42   9
M  ISO  2  43  14  44  14
M  END
>  <minimizedAffinity>  (1) 
-6.35467815

>  <minimizedRMSD>  (1) 
2.33664703

$$$$
