
     RDKit          3D

 44 47  0  0  1  0  0  0  0  0999 V2000
   38.7230   29.2500   42.2510 N   0  0  0  0  0  0  0  0  0  0  0  0
   37.9750   29.2170   43.3440 C   0  0  0  0  0  0  0  0  0  0  0  0
   37.1780   28.1450   43.6880 C   0  0  0  0  0  0  0  0  0  0  0  0
   37.1390   27.0230   42.8580 C   0  0  0  0  0  0  0  0  0  0  0  0
   36.4170   26.0460   43.1640 O   0  0  0  0  0  0  0  0  0  0  0  0
   37.9150   27.0830   41.7460 N   0  0  0  0  0  0  0  0  0  0  0  0
   38.6650   28.1580   41.4760 C   0  0  0  0  0  0  0  0  0  0  0  0
   39.3540   28.1140   40.4130 O   0  0  0  0  0  0  0  0  0  0  0  0
   37.8840   25.9390   40.8890 C   0  0  2  0  0  0  0  0  0  0  0  0
   36.6070   25.4860   40.3850 C   0  0  0  0  0  0  0  0  0  0  0  0
   36.8780   24.0290   39.9820 C   0  0  0  0  0  0  0  0  0  0  0  0
   37.7070   23.5390   41.1050 C   0  0  0  0  0  0  0  0  0  0  0  0
   38.5320   24.7150   41.5490 C   0  0  1  0  0  0  0  0  0  0  0  0
   39.9840   24.6040   41.2490 C   0  0  0  0  0  0  0  0  0  0  0  0
   39.5450   30.3490   41.8940 C   0  0  0  0  0  0  0  0  0  0  0  0
   40.9570   30.3500   41.9960 C   0  0  0  0  0  0  0  0  0  0  0  0
   41.6370   31.4920   41.6120 C   0  0  0  0  0  0  0  0  0  0  0  0
   40.9180   32.5410   41.1600 N   0  0  0  0  0  0  0  0  0  0  0  0
   39.5700   32.5250   41.0670 C   0  0  0  0  0  0  0  0  0  0  0  0
   38.9280   31.4220   41.4400 N   0  0  0  0  0  0  0  0  0  0  0  0
   38.8770   33.6260   40.5980 O   0  0  0  0  0  0  0  0  0  0  0  0
   39.5600   34.8570   40.6590 C   0  0  0  0  0  0  0  0  0  0  0  0
   38.8880   35.8470   39.9370 C   0  0  0  0  0  0  0  0  0  0  0  0
   39.6240   36.9890   40.0590 N   0  0  0  0  0  0  0  0  0  0  0  0
   40.7060   36.6980   40.8300 C   0  0  0  0  0  0  0  0  0  0  0  0
   40.6760   35.4120   41.1980 N   0  0  0  0  0  0  0  0  0  0  0  0
   37.9903   30.0905   44.0124 H   0  0  0  0  0  0  0  0  0  0  0  0
   36.5777   28.1739   44.6093 H   0  0  0  0  0  0  0  0  0  0  0  0
   38.4407   26.3332   40.0260 H   0  0  0  0  0  0  0  0  0  0  0  0
   35.8341   25.5409   41.1658 H   0  0  0  0  0  0  0  0  0  0  0  0
   36.2331   26.0989   39.5516 H   0  0  0  0  0  0  0  0  0  0  0  0
   35.9415   23.4579   39.8996 H   0  0  0  0  0  0  0  0  0  0  0  0
   37.3629   23.9270   38.9999 H   0  0  0  0  0  0  0  0  0  0  0  0
   37.0676   23.1871   41.9280 H   0  0  0  0  0  0  0  0  0  0  0  0
   38.3399   22.6921   40.8015 H   0  0  0  0  0  0  0  0  0  0  0  0
   38.5255   24.7848   42.6468 H   0  0  0  0  0  0  0  0  0  0  0  0
   40.5507   24.5607   42.1908 H   0  0  0  0  0  0  0  0  0  0  0  0
   40.1693   23.6891   40.6671 H   0  0  0  0  0  0  0  0  0  0  0  0
   40.3062   25.4801   40.6671 H   0  0  0  0  0  0  0  0  0  0  0  0
   41.4979   29.4681   42.3698 H   0  0  0  0  0  0  0  0  0  0  0  0
   42.7341   31.5437   41.6734 H   0  0  0  0  0  0  0  0  0  0  0  0
   37.9478   35.7283   39.3785 H   0  0  0  0  0  0  0  0  0  0  0  0
   41.4914   37.4154   41.1102 H   0  0  0  0  0  0  0  0  0  0  0  0
   41.3729   34.9304   41.7838 H   0  0  0  0  0  0  0  0  0  0  0  0
  1  2  1  0
  2  3  2  0
  4  5  2  0
  4  3  1  0
  6  4  1  0
  7  6  1  0
  7  1  1  0
  8  7  2  0
  9 13  1  0
  9  6  1  0
 10  9  1  0
 11 10  1  0
 11 12  1  0
 12 13  1  0
 14 13  1  0
 15 16  2  0
 15  1  1  0
 17 16  1  0
 18 17  2  0
 19 18  1  0
 19 20  2  0
 20 15  1  0
 21 22  1  0
 21 19  1  0
 22 26  1  0
 23 24  1  0
 23 22  2  0
 24 25  2  0
 25 26  1  0
  2 27  1  0
  3 28  1  0
  9 29  1  6
 10 30  1  0
 10 31  1  0
 11 32  1  0
 11 33  1  0
 12 34  1  0
 12 35  1  0
 13 36  1  1
 14 37  1  0
 14 38  1  0
 14 39  1  0
 16 40  1  0
 17 41  1  0
 23 42  1  0
 25 43  1  0
 26 44  1  0
M  ISO  8  27  14  28  14  29  13  30  13  31  13  32  13  33  13  34  13
M  ISO  8  35  13  36  13  37   8  38   8  39   8  40  14  41  14  42  14
M  ISO  2  43  14  44   9
M  END
>  <minimizedAffinity>  (1) 
-6.13628578

>  <minimizedRMSD>  (1) 
1.72955441

$$$$
