
     RDKit          3D

 44 47  0  0  1  0  0  0  0  0999 V2000
   39.6180   30.0440   40.7510 N   0  0  0  0  0  0  0  0  0  0  0  0
   39.4620   30.5210   41.9590 C   0  0  0  0  0  0  0  0  0  0  0  0
   38.9420   29.8040   43.0120 C   0  0  0  0  0  0  0  0  0  0  0  0
   38.5470   28.4760   42.8030 C   0  0  0  0  0  0  0  0  0  0  0  0
   38.0710   27.8090   43.7500 O   0  0  0  0  0  0  0  0  0  0  0  0
   38.7180   28.0020   41.5420 N   0  0  0  0  0  0  0  0  0  0  0  0
   39.2300   28.7540   40.5640 C   0  0  0  0  0  0  0  0  0  0  0  0
   39.3500   28.2220   39.4240 O   0  0  0  0  0  0  0  0  0  0  0  0
   38.3180   26.6460   41.3110 C   0  0  2  0  0  0  0  0  0  0  0  0
   36.9930   26.2420   41.7300 C   0  0  0  0  0  0  0  0  0  0  0  0
   37.1010   24.7170   41.8310 C   0  0  0  0  0  0  0  0  0  0  0  0
   38.4290   24.5260   42.4600 C   0  0  0  0  0  0  0  0  0  0  0  0
   39.2870   25.6510   41.9570 C   0  0  1  0  0  0  0  0  0  0  0  0
   40.3860   25.2330   41.0370 C   0  0  0  0  0  0  0  0  0  0  0  0
   40.1540   30.7750   39.6610 C   0  0  0  0  0  0  0  0  0  0  0  0
   40.6020   30.1760   38.4440 C   0  0  0  0  0  0  0  0  0  0  0  0
   41.1050   31.0270   37.4590 C   0  0  0  0  0  0  0  0  0  0  0  0
   41.1420   32.3480   37.7070 N   0  0  0  0  0  0  0  0  0  0  0  0
   40.7160   32.8930   38.8600 C   0  0  0  0  0  0  0  0  0  0  0  0
   40.2350   32.0890   39.8020 N   0  0  0  0  0  0  0  0  0  0  0  0
   40.7710   34.2600   39.0720 O   0  0  0  0  0  0  0  0  0  0  0  0
   40.2520   34.9230   40.1790 C   0  0  0  0  0  0  0  0  0  0  0  0
   40.0900   36.4380   39.9810 C   0  0  0  0  0  0  0  0  0  0  0  0
   38.9030   35.5350   40.1770 C   0  0  0  0  0  0  0  0  0  0  0  0
   39.7659   31.5617   42.1449 H   0  0  0  0  0  0  0  0  0  0  0  0
   38.8378   30.2670   44.0043 H   0  0  0  0  0  0  0  0  0  0  0  0
   38.3227   26.6235   40.2112 H   0  0  0  0  0  0  0  0  0  0  0  0
   36.7367   26.6837   42.7043 H   0  0  0  0  0  0  0  0  0  0  0  0
   36.2048   26.5713   41.0370 H   0  0  0  0  0  0  0  0  0  0  0  0
   36.3002   24.3034   42.4616 H   0  0  0  0  0  0  0  0  0  0  0  0
   36.9994   24.2068   40.8618 H   0  0  0  0  0  0  0  0  0  0  0  0
   38.3435   24.5702   43.5558 H   0  0  0  0  0  0  0  0  0  0  0  0
   38.8588   23.5455   42.2073 H   0  0  0  0  0  0  0  0  0  0  0  0
   39.8429   26.1020   42.7922 H   0  0  0  0  0  0  0  0  0  0  0  0
   41.2532   24.9031   41.6278 H   0  0  0  0  0  0  0  0  0  0  0  0
   40.0380   24.4045   40.4027 H   0  0  0  0  0  0  0  0  0  0  0  0
   40.6765   26.0834   40.4027 H   0  0  0  0  0  0  0  0  0  0  0  0
   40.5525   29.0880   38.2895 H   0  0  0  0  0  0  0  0  0  0  0  0
   41.4637   30.6255   36.4998 H   0  0  0  0  0  0  0  0  0  0  0  0
   40.7375   34.2264   40.8783 H   0  0  0  0  0  0  0  0  0  0  0  0
   40.2846   36.8929   38.9986 H   0  0  0  0  0  0  0  0  0  0  0  0
   40.4808   37.3425   40.4700 H   0  0  0  0  0  0  0  0  0  0  0  0
   38.3275   35.5875   41.1130 H   0  0  0  0  0  0  0  0  0  0  0  0
   37.9787   35.3505   39.6099 H   0  0  0  0  0  0  0  0  0  0  0  0
  1  2  1  0
  2  3  2  0
  4  3  1  0
  4  5  2  0
  6  4  1  0
  7  1  1  0
  7  6  1  0
  8  7  2  0
  9  6  1  0
  9 10  1  0
  9 13  1  0
 10 11  1  0
 11 12  1  0
 13 12  1  0
 14 13  1  0
 15 20  1  0
 15  1  1  0
 16 15  2  0
 17 18  2  0
 17 16  1  0
 18 19  1  0
 19 21  1  0
 19 20  2  0
 21 22  1  0
 23 24  1  0
 23 22  1  0
 24 22  1  0
  2 25  1  0
  3 26  1  0
  9 27  1  6
 10 28  1  0
 10 29  1  0
 11 30  1  0
 11 31  1  0
 12 32  1  0
 12 33  1  0
 13 34  1  1
 14 35  1  0
 14 36  1  0
 14 37  1  0
 16 38  1  0
 17 39  1  0
 22 40  1  0
 23 41  1  0
 23 42  1  0
 24 43  1  0
 24 44  1  0
M  ISO  8  25  14  26  14  27  13  28  13  29  13  30  13  31  13  32  13
M  ISO  8  33  13  34  13  35   8  36   8  37   8  38  14  39  14  40  13
M  ISO  4  41  13  42  13  43  13  44  13
M  END
>  <minimizedAffinity>  (1) 
-5.64996386

>  <minimizedRMSD>  (1) 
2.88634491

$$$$
