
     RDKit          3D

 23 25  0  0  0  0  0  0  0  0999 V2000
   39.6510   32.3720   40.0820 N   0  0  0  0  0  0  0  0  0  0  0  0
   40.0390   31.3370   39.2940 C   0  0  0  0  0  0  0  0  0  0  0  0
   39.6200   30.1850   39.8510 N   0  0  0  0  0  0  0  0  0  0  0  0
   38.9710   30.4990   40.9810 C   0  0  0  0  0  0  0  0  0  0  0  0
   39.0080   31.8330   41.0920 N   0  0  0  0  0  0  0  0  0  0  0  0
   38.6820   34.6680   40.1690 C   0  0  0  0  0  0  0  0  0  0  0  0
   39.7940   33.7860   40.0230 C   0  0  0  0  0  0  0  0  0  0  0  0
   41.0420   34.3720   39.8180 C   0  0  0  0  0  0  0  0  0  0  0  0
   41.1290   35.7290   39.7700 N   0  0  0  0  0  0  0  0  0  0  0  0
   40.0600   36.5270   39.9110 C   0  0  0  0  0  0  0  0  0  0  0  0
   38.8330   35.9960   40.1120 N   0  0  0  0  0  0  0  0  0  0  0  0
   38.3070   29.6460   41.9900 C   0  0  0  0  0  0  0  0  0  0  0  0
   38.7580   28.9300   43.0740 C   0  0  0  0  0  0  0  0  0  0  0  0
   37.6350   28.3450   43.6080 C   0  0  0  0  0  0  0  0  0  0  0  0
   36.5490   28.6810   42.8940 N   0  0  0  0  0  0  0  0  0  0  0  0
   36.9740   29.4640   41.9240 N   0  0  0  0  0  0  0  0  0  0  0  0
   40.6035   31.4251   38.3540 H   0  0  0  0  0  0  0  0  0  0  0  0
   37.6789   34.2469   40.3319 H   0  0  0  0  0  0  0  0  0  0  0  0
   41.9403   33.7487   39.6972 H   0  0  0  0  0  0  0  0  0  0  0  0
   40.1823   37.6191   39.8628 H   0  0  0  0  0  0  0  0  0  0  0  0
   39.7934   28.8441   43.4354 H   0  0  0  0  0  0  0  0  0  0  0  0
   37.6271   27.6939   44.4946 H   0  0  0  0  0  0  0  0  0  0  0  0
   35.5780   28.3857   43.0696 H   0  0  0  0  0  0  0  0  0  0  0  0
  1  5  1  0
  2  3  2  0
  2  1  1  0
  3  4  1  0
  4  5  2  0
  4 12  1  0
  7  1  1  0
  7  6  2  0
  8  7  1  0
  9  8  2  0
  9 10  1  0
 10 11  2  0
 11  6  1  0
 12 13  1  0
 13 14  2  0
 15 14  1  0
 16 12  2  0
 16 15  1  0
  2 17  1  0
  6 18  1  0
  8 19  1  0
 10 20  1  0
 13 21  1  0
 14 22  1  0
 15 23  1  0
M  ISO  7  17  14  18  14  19  14  20  14  21  14  22  14  23   9
M  END
>  <minimizedAffinity>  (1) 
-4.82666111

>  <minimizedRMSD>  (1) 
4.62170935

$$$$
