
     RDKit          3D

 29 31  0  0  0  0  0  0  0  0999 V2000
   39.2620   30.8720   41.6210 N   0  0  0  0  0  0  0  0  0  0  0  0
   40.5940   31.0410   41.8260 C   0  0  0  0  0  0  0  0  0  0  0  0
   40.9720   32.1930   41.2590 N   0  0  0  0  0  0  0  0  0  0  0  0
   39.8940   32.7460   40.7010 C   0  0  0  0  0  0  0  0  0  0  0  0
   38.8490   31.9200   40.9320 N   0  0  0  0  0  0  0  0  0  0  0  0
   37.2040   29.5340   41.1560 C   0  0  0  0  0  0  0  0  0  0  0  0
   38.3160   29.8650   41.9750 C   0  0  0  0  0  0  0  0  0  0  0  0
   38.4590   29.1560   43.1750 C   0  0  0  0  0  0  0  0  0  0  0  0
   37.5490   28.2100   43.4850 N   0  0  0  0  0  0  0  0  0  0  0  0
   36.5090   27.9220   42.6850 C   0  0  0  0  0  0  0  0  0  0  0  0
   36.3340   28.5850   41.5170 N   0  0  0  0  0  0  0  0  0  0  0  0
   39.7980   34.0390   39.9480 C   0  0  0  0  0  0  0  0  0  0  0  0
   38.9760   35.0370   40.7340 C   0  0  0  0  0  0  0  0  0  0  0  0
   39.2890   36.3280   40.0140 C   0  0  0  0  0  0  0  0  0  0  0  0
   40.7330   36.2000   39.6390 C   0  0  0  0  0  0  0  0  0  0  0  0
   41.1340   34.7540   39.9300 C   0  0  0  0  0  0  0  0  0  0  0  0
   41.2527   30.3465   42.3680 H   0  0  0  0  0  0  0  0  0  0  0  0
   37.0555   30.0687   40.2062 H   0  0  0  0  0  0  0  0  0  0  0  0
   39.2992   29.3673   43.8528 H   0  0  0  0  0  0  0  0  0  0  0  0
   35.7933   27.1409   42.9811 H   0  0  0  0  0  0  0  0  0  0  0  0
   39.4027   33.7747   38.9561 H   0  0  0  0  0  0  0  0  0  0  0  0
   37.9030   34.8002   40.6840 H   0  0  0  0  0  0  0  0  0  0  0  0
   39.2083   35.0581   41.8090 H   0  0  0  0  0  0  0  0  0  0  0  0
   38.6614   36.4364   39.1172 H   0  0  0  0  0  0  0  0  0  0  0  0
   39.0924   37.2145   40.6348 H   0  0  0  0  0  0  0  0  0  0  0  0
   41.3435   36.8911   40.2388 H   0  0  0  0  0  0  0  0  0  0  0  0
   40.8910   36.4496   38.5794 H   0  0  0  0  0  0  0  0  0  0  0  0
   41.7870   34.3560   39.1393 H   0  0  0  0  0  0  0  0  0  0  0  0
   41.7058   34.6372   40.8624 H   0  0  0  0  0  0  0  0  0  0  0  0
  1  2  1  0
  1  7  1  0
  3  2  2  0
  4  5  2  0
  4  3  1  0
  5  1  1  0
  6 11  2  0
  6  7  1  0
  7  8  2  0
  8  9  1  0
 10  9  2  0
 11 10  1  0
 12  4  1  0
 12 13  1  0
 14 13  1  0
 15 16  1  0
 15 14  1  0
 16 12  1  0
  2 17  1  0
  6 18  1  0
  8 19  1  0
 10 20  1  0
 12 21  1  0
 13 22  1  0
 13 23  1  0
 14 24  1  0
 14 25  1  0
 15 26  1  0
 15 27  1  0
 16 28  1  0
 16 29  1  0
M  ISO  8  17  14  18  14  19  14  20  14  21  13  22  13  23  13  24  13
M  ISO  5  25  13  26  13  27  13  28  13  29  13
M  END
>  <minimizedAffinity>  (1) 
-4.79144001

>  <minimizedRMSD>  (1) 
7.56769371

$$$$
