
     RDKit          3D

 21 23  0  0  0  0  0  0  0  0999 V2000
   39.6900   31.8880   40.5270 N   0  0  0  0  0  0  0  0  0  0  0  0
   40.4050   30.8530   40.0400 C   0  0  0  0  0  0  0  0  0  0  0  0
   39.9020   29.7110   40.5220 N   0  0  0  0  0  0  0  0  0  0  0  0
   38.8670   30.0260   41.3170 C   0  0  0  0  0  0  0  0  0  0  0  0
   38.7690   31.3610   41.2950 N   0  0  0  0  0  0  0  0  0  0  0  0
   38.5700   34.1090   40.2410 C   0  0  0  0  0  0  0  0  0  0  0  0
   39.7350   33.3110   40.3840 C   0  0  0  0  0  0  0  0  0  0  0  0
   40.9620   33.9770   40.3810 C   0  0  0  0  0  0  0  0  0  0  0  0
   40.9570   35.3270   40.2430 N   0  0  0  0  0  0  0  0  0  0  0  0
   39.8320   36.0430   40.1100 C   0  0  0  0  0  0  0  0  0  0  0  0
   38.6430   35.4300   40.1100 N   0  0  0  0  0  0  0  0  0  0  0  0
   37.9570   29.1760   42.1010 C   0  0  0  0  0  0  0  0  0  0  0  0
   36.8630   28.4390   41.8550 N   0  0  0  0  0  0  0  0  0  0  0  0
   36.4700   27.8920   42.9490 O   0  0  0  0  0  0  0  0  0  0  0  0
   37.2390   28.2100   43.9640 C   0  0  0  0  0  0  0  0  0  0  0  0
   38.1670   29.0160   43.4140 N   0  0  0  0  0  0  0  0  0  0  0  0
   41.2632   30.9349   39.3568 H   0  0  0  0  0  0  0  0  0  0  0  0
   37.5832   33.6229   40.2385 H   0  0  0  0  0  0  0  0  0  0  0  0
   41.9063   33.4230   40.4875 H   0  0  0  0  0  0  0  0  0  0  0  0
   39.8864   37.1362   40.0007 H   0  0  0  0  0  0  0  0  0  0  0  0
   37.1473   27.8936   45.0135 H   0  0  0  0  0  0  0  0  0  0  0  0
  1  5  1  0
  2  3  2  0
  2  1  1  0
  3  4  1  0
  4 12  1  0
  5  4  2  0
  6  7  2  0
  7  1  1  0
  8  7  1  0
  9  8  2  0
 10 11  2  0
 10  9  1  0
 11  6  1  0
 12 16  1  0
 13 12  2  0
 13 14  1  0
 14 15  1  0
 16 15  2  0
  2 17  1  0
  6 18  1  0
  8 19  1  0
 10 20  1  0
 15 21  1  0
M  ISO  5  17  14  18  14  19  14  20  14  21  14
M  END
>  <minimizedAffinity>  (1) 
-4.49834824

>  <minimizedRMSD>  (1) 
3.97192121

$$$$
