
     RDKit          3D

 23 25  0  0  0  0  0  0  0  0999 V2000
   40.1110   31.4760   41.5940 N   0  0  0  0  0  0  0  0  0  0  0  0
   41.1140   30.7130   42.0610 C   0  0  0  0  0  0  0  0  0  0  0  0
   40.6280   29.5390   42.4850 N   0  0  0  0  0  0  0  0  0  0  0  0
   39.3070   29.5660   42.2820 C   0  0  0  0  0  0  0  0  0  0  0  0
   39.0110   30.7570   41.7380 N   0  0  0  0  0  0  0  0  0  0  0  0
   38.7500   33.4550   40.8740 C   0  0  0  0  0  0  0  0  0  0  0  0
   39.9800   32.7740   41.0290 C   0  0  0  0  0  0  0  0  0  0  0  0
   41.1230   33.4480   40.5880 C   0  0  0  0  0  0  0  0  0  0  0  0
   40.9730   34.6880   40.0500 N   0  0  0  0  0  0  0  0  0  0  0  0
   39.7900   35.2950   39.9220 C   0  0  0  0  0  0  0  0  0  0  0  0
   38.6850   34.6690   40.3370 N   0  0  0  0  0  0  0  0  0  0  0  0
   38.3000   28.5270   42.5730 C   0  0  0  0  0  0  0  0  0  0  0  0
   37.4060   28.5710   43.6230 C   0  0  0  0  0  0  0  0  0  0  0  0
   36.6340   27.4600   43.5900 N   0  0  0  0  0  0  0  0  0  0  0  0
   37.0440   26.7320   42.5340 C   0  0  0  0  0  0  0  0  0  0  0  0
   38.0600   27.3760   41.9080 N   0  0  0  0  0  0  0  0  0  0  0  0
   42.1733   31.0079   42.0906 H   0  0  0  0  0  0  0  0  0  0  0  0
   37.8222   32.9667   41.2069 H   0  0  0  0  0  0  0  0  0  0  0  0
   42.1181   32.9871   40.6740 H   0  0  0  0  0  0  0  0  0  0  0  0
   39.7262   36.3000   39.4794 H   0  0  0  0  0  0  0  0  0  0  0  0
   37.3326   29.3784   44.3665 H   0  0  0  0  0  0  0  0  0  0  0  0
   36.6203   25.7645   42.2267 H   0  0  0  0  0  0  0  0  0  0  0  0
   38.5613   27.0452   41.0713 H   0  0  0  0  0  0  0  0  0  0  0  0
  1  5  1  0
  1  2  1  0
  2  3  2  0
  4  3  1  0
  4 12  1  0
  5  4  2  0
  6  7  2  0
  7  1  1  0
  8  7  1  0
  9  8  2  0
 10  9  1  0
 10 11  2  0
 11  6  1  0
 12 13  2  0
 14 13  1  0
 15 14  2  0
 16 15  1  0
 16 12  1  0
  2 17  1  0
  6 18  1  0
  8 19  1  0
 10 20  1  0
 13 21  1  0
 15 22  1  0
 16 23  1  0
M  ISO  7  17  14  18  14  19  14  20  14  21  14  22  14  23   9
M  END
>  <minimizedAffinity>  (1) 
-4.19299412

>  <minimizedRMSD>  (1) 
3.45954227

$$$$
