
     RDKit          3D

 18 19  0  0  0  0  0  0  0  0999 V2000
   36.8690   30.7420   40.8850 C   0  0  0  0  0  0  0  0  0  0  0  0
   38.0660   30.3320   41.5460 C   0  0  0  0  0  0  0  0  0  0  0  0
   39.1320   31.2360   41.5520 C   0  0  0  0  0  0  0  0  0  0  0  0
   38.9720   32.4370   40.9360 N   0  0  0  0  0  0  0  0  0  0  0  0
   37.8280   32.7750   40.3270 C   0  0  0  0  0  0  0  0  0  0  0  0
   36.7850   31.9370   40.3000 N   0  0  0  0  0  0  0  0  0  0  0  0
   38.1870   29.0620   42.1790 N   0  0  0  0  0  0  0  0  0  0  0  0
   38.9550   28.5490   43.1550 C   0  0  0  0  0  0  0  0  0  0  0  0
   38.6220   27.2670   43.3380 N   0  0  0  0  0  0  0  0  0  0  0  0
   37.6470   26.9590   42.4840 C   0  0  0  0  0  0  0  0  0  0  0  0
   37.4110   28.0770   41.7970 N   0  0  0  0  0  0  0  0  0  0  0  0
   36.9980   25.7120   42.3360 N   0  0  0  0  0  0  0  0  0  0  0  0
   36.0042   30.0627   40.8580 H   0  0  0  0  0  0  0  0  0  0  0  0
   40.0814   30.9806   42.0454 H   0  0  0  0  0  0  0  0  0  0  0  0
   37.7444   33.7581   39.8408 H   0  0  0  0  0  0  0  0  0  0  0  0
   39.7308   29.0945   43.7123 H   0  0  0  0  0  0  0  0  0  0  0  0
   36.2529   25.5993   41.6338 H   0  0  0  0  0  0  0  0  0  0  0  0
   37.2702   24.9160   42.9303 H   0  0  0  0  0  0  0  0  0  0  0  0
  1  2  2  0
  2  3  1  0
  2  7  1  0
  4  3  2  0
  5  4  1  0
  6  5  2  0
  6  1  1  0
  7  8  1  0
  8  9  2  0
 10  9  1  0
 11  7  1  0
 11 10  2  0
 12 10  1  0
  1 13  1  0
  3 14  1  0
  5 15  1  0
  8 16  1  0
 12 17  1  0
 12 18  1  0
M  ISO  4  13  14  14  14  15  14  16  14
M  END
>  <minimizedAffinity>  (1) 
-3.3795197

>  <minimizedRMSD>  (1) 
0.653312325

$$$$
