
     RDKit          3D

 38 40  0  0  1  0  0  0  0  0999 V2000
   38.4610   30.8190   41.6790 N   0  0  0  0  0  0  0  0  0  0  0  0
   39.5130   30.2360   42.3020 C   0  0  0  0  0  0  0  0  0  0  0  0
   39.1390   29.0790   42.8610 N   0  0  0  0  0  0  0  0  0  0  0  0
   37.8160   28.9230   42.5890 C   0  0  0  0  0  0  0  0  0  0  0  0
   37.4470   30.0060   41.8670 N   0  0  0  0  0  0  0  0  0  0  0  0
   37.2030   32.1650   39.9910 C   0  0  0  0  0  0  0  0  0  0  0  0
   38.2280   32.0070   40.9340 C   0  0  0  0  0  0  0  0  0  0  0  0
   39.0810   33.1180   41.1460 C   0  0  0  0  0  0  0  0  0  0  0  0
   38.8540   34.2470   40.4340 N   0  0  0  0  0  0  0  0  0  0  0  0
   37.8610   34.3450   39.5460 C   0  0  0  0  0  0  0  0  0  0  0  0
   37.0270   33.3000   39.3200 N   0  0  0  0  0  0  0  0  0  0  0  0
   36.9750   27.7660   43.0220 C   0  0  2  0  0  0  0  0  0  0  0  0
   36.7870   27.9670   44.5240 C   0  0  0  0  0  0  0  0  0  0  0  0
   37.6490   26.4560   42.7690 C   0  0  0  0  0  0  0  0  0  0  0  0
   37.1760   25.7060   41.6880 N   0  0  0  0  0  0  0  0  0  0  0  0
   37.3370   26.1990   40.3740 C   0  0  0  0  0  0  0  0  0  0  0  0
   36.4760   25.3810   39.4390 C   0  0  0  0  0  0  0  0  0  0  0  0
   36.7780   24.0420   39.4630 O   0  0  0  0  0  0  0  0  0  0  0  0
   37.2380   23.5460   40.6560 C   0  0  0  0  0  0  0  0  0  0  0  0
   36.8200   24.3560   41.8690 C   0  0  0  0  0  0  0  0  0  0  0  0
   40.5297   30.6539   42.3427 H   0  0  0  0  0  0  0  0  0  0  0  0
   36.5218   31.3228   39.7996 H   0  0  0  0  0  0  0  0  0  0  0  0
   39.9068   33.0648   41.8707 H   0  0  0  0  0  0  0  0  0  0  0  0
   37.7182   35.2843   38.9916 H   0  0  0  0  0  0  0  0  0  0  0  0
   36.0276   27.7347   42.4639 H   0  0  0  0  0  0  0  0  0  0  0  0
   37.4387   27.2702   45.0716 H   0  0  0  0  0  0  0  0  0  0  0  0
   37.0494   29.0013   44.7912 H   0  0  0  0  0  0  0  0  0  0  0  0
   35.7375   27.7743   44.7912 H   0  0  0  0  0  0  0  0  0  0  0  0
   38.7159   26.6583   42.5932 H   0  0  0  0  0  0  0  0  0  0  0  0
   37.4384   25.8453   43.6593 H   0  0  0  0  0  0  0  0  0  0  0  0
   37.0275   27.2538   40.3342 H   0  0  0  0  0  0  0  0  0  0  0  0
   38.3923   26.1238   40.0728 H   0  0  0  0  0  0  0  0  0  0  0  0
   36.6195   25.7541   38.4142 H   0  0  0  0  0  0  0  0  0  0  0  0
   35.4337   25.4886   39.7738 H   0  0  0  0  0  0  0  0  0  0  0  0
   36.8532   22.5225   40.7754 H   0  0  0  0  0  0  0  0  0  0  0  0
   38.3364   23.5860   40.6124 H   0  0  0  0  0  0  0  0  0  0  0  0
   37.3256   23.9619   42.7629 H   0  0  0  0  0  0  0  0  0  0  0  0
   35.7299   24.2823   41.9963 H   0  0  0  0  0  0  0  0  0  0  0  0
  1  5  1  0
  1  2  1  0
  2  3  2  0
  4  3  1  0
  4 12  1  0
  5  4  2  0
  6  7  2  0
  7  8  1  0
  7  1  1  0
  9  8  2  0
 10  9  1  0
 11 10  2  0
 11  6  1  0
 12 13  1  0
 14 12  1  0
 15 20  1  0
 15 14  1  0
 16 15  1  0
 17 18  1  0
 17 16  1  0
 18 19  1  0
 19 20  1  0
  2 21  1  0
  6 22  1  0
  8 23  1  0
 10 24  1  0
 12 25  1  6
 13 26  1  0
 13 27  1  0
 13 28  1  0
 14 29  1  0
 14 30  1  0
 16 31  1  0
 16 32  1  0
 17 33  1  0
 17 34  1  0
 19 35  1  0
 19 36  1  0
 20 37  1  0
 20 38  1  0
M  ISO  8  21  14  22  14  23  14  24  14  25   8  26   8  27   8  28   8
M  ISO  8  29   8  30   8  31  13  32  13  33  13  34  13  35  13  36  13
M  ISO  2  37  13  38  13
M  END
>  <minimizedAffinity>  (1) 
-4.94769859

>  <minimizedRMSD>  (1) 
0.897956908

$$$$
