
     RDKit          3D

 32 34  0  0  1  0  0  0  0  0999 V2000
   38.4700   30.4170   41.8240 N   0  0  0  0  0  0  0  0  0  0  0  0
   39.4570   29.6530   42.3330 C   0  0  0  0  0  0  0  0  0  0  0  0
   38.9310   28.5660   42.9140 N   0  0  0  0  0  0  0  0  0  0  0  0
   37.5810   28.6490   42.7670 C   0  0  0  0  0  0  0  0  0  0  0  0
   37.3690   29.7860   42.1020 N   0  0  0  0  0  0  0  0  0  0  0  0
   37.2510   32.0400   40.3640 C   0  0  0  0  0  0  0  0  0  0  0  0
   38.3930   31.6410   41.1160 C   0  0  0  0  0  0  0  0  0  0  0  0
   39.4790   32.5320   41.1320 C   0  0  0  0  0  0  0  0  0  0  0  0
   39.3550   33.6980   40.4340 N   0  0  0  0  0  0  0  0  0  0  0  0
   38.2620   34.0240   39.7450 C   0  0  0  0  0  0  0  0  0  0  0  0
   37.1960   33.1930   39.7050 N   0  0  0  0  0  0  0  0  0  0  0  0
   36.6520   27.6200   43.2810 C   0  0  2  0  0  0  0  0  0  0  0  0
   36.4780   27.9350   44.7870 C   0  0  0  0  0  0  0  0  0  0  0  0
   37.0920   26.2320   43.1200 C   0  0  0  0  0  0  0  0  0  0  0  0
   37.1340   25.6200   41.7830 C   0  0  0  0  0  0  0  0  0  0  0  0
   38.1900   24.5860   41.4870 C   0  0  0  0  0  0  0  0  0  0  0  0
   36.6760   24.2990   41.3840 C   0  0  0  0  0  0  0  0  0  0  0  0
   40.5307   29.8863   42.2796 H   0  0  0  0  0  0  0  0  0  0  0  0
   36.3809   31.3679   40.3272 H   0  0  0  0  0  0  0  0  0  0  0  0
   40.3984   32.2976   41.6885 H   0  0  0  0  0  0  0  0  0  0  0  0
   38.2265   34.9802   39.2025 H   0  0  0  0  0  0  0  0  0  0  0  0
   35.7229   27.6747   42.6947 H   0  0  0  0  0  0  0  0  0  0  0  0
   36.9245   27.1266   45.3847 H   0  0  0  0  0  0  0  0  0  0  0  0
   36.9791   28.8853   45.0231 H   0  0  0  0  0  0  0  0  0  0  0  0
   35.4068   28.0168   45.0231 H   0  0  0  0  0  0  0  0  0  0  0  0
   38.1123   26.1740   43.5271 H   0  0  0  0  0  0  0  0  0  0  0  0
   36.3064   25.6586   43.6339 H   0  0  0  0  0  0  0  0  0  0  0  0
   36.8335   26.6118   41.4143 H   0  0  0  0  0  0  0  0  0  0  0  0
   38.8070   24.6619   40.5795 H   0  0  0  0  0  0  0  0  0  0  0  0
   39.0480   24.1500   42.0197 H   0  0  0  0  0  0  0  0  0  0  0  0
   36.2103   24.1537   40.3981 H   0  0  0  0  0  0  0  0  0  0  0  0
   35.9968   23.5495   41.8164 H   0  0  0  0  0  0  0  0  0  0  0  0
  1  5  1  0
  1  2  1  0
  2  3  2  0
  4  3  1  0
  4 12  1  0
  5  4  2  0
  6  7  2  0
  7  8  1  0
  7  1  1  0
  9  8  2  0
 10  9  1  0
 11 10  2  0
 11  6  1  0
 12 13  1  0
 14 12  1  0
 15 14  1  0
 16 15  1  0
 17 16  1  0
 17 15  1  0
  2 18  1  0
  6 19  1  0
  8 20  1  0
 10 21  1  0
 12 22  1  6
 13 23  1  0
 13 24  1  0
 13 25  1  0
 14 26  1  0
 14 27  1  0
 15 28  1  0
 16 29  1  0
 16 30  1  0
 17 31  1  0
 17 32  1  0
M  ISO  8  18  14  19  14  20  14  21  14  22   8  23   8  24   8  25   8
M  ISO  7  26   8  27   8  28  13  29  13  30  13  31  13  32  13
M  END
>  <minimizedAffinity>  (1) 
-4.87919855

>  <minimizedRMSD>  (1) 
0.474888772

$$$$
