
     RDKit          3D

 31 33  0  0  1  0  0  0  0  0999 V2000
   38.4730   30.8110   41.6630 N   0  0  0  0  0  0  0  0  0  0  0  0
   39.5470   30.2190   42.2560 C   0  0  0  0  0  0  0  0  0  0  0  0
   39.1680   29.0510   42.8080 N   0  0  0  0  0  0  0  0  0  0  0  0
   37.8400   28.9110   42.5550 C   0  0  0  0  0  0  0  0  0  0  0  0
   37.4590   29.9950   41.8630 N   0  0  0  0  0  0  0  0  0  0  0  0
   37.2060   32.1620   39.9950 C   0  0  0  0  0  0  0  0  0  0  0  0
   38.2570   32.0100   40.9430 C   0  0  0  0  0  0  0  0  0  0  0  0
   39.0960   33.1180   41.1460 C   0  0  0  0  0  0  0  0  0  0  0  0
   38.8480   34.2490   40.4270 N   0  0  0  0  0  0  0  0  0  0  0  0
   37.8510   34.3320   39.5550 C   0  0  0  0  0  0  0  0  0  0  0  0
   37.0270   33.2960   39.3330 N   0  0  0  0  0  0  0  0  0  0  0  0
   37.0430   27.7500   42.9940 C   0  0  2  0  0  0  0  0  0  0  0  0
   36.7760   27.9680   44.4820 C   0  0  0  0  0  0  0  0  0  0  0  0
   37.6810   26.4340   42.8010 C   0  0  0  0  0  0  0  0  0  0  0  0
   37.1680   25.6260   41.7520 N   0  0  0  0  0  0  0  0  0  0  0  0
   36.9850   26.0340   40.4910 C   0  0  0  0  0  0  0  0  0  0  0  0
   36.4860   25.0300   39.7490 N   0  0  0  0  0  0  0  0  0  0  0  0
   36.3750   24.0020   40.6090 C   0  0  0  0  0  0  0  0  0  0  0  0
   36.7860   24.3410   41.8440 N   0  0  0  0  0  0  0  0  0  0  0  0
   40.5664   30.6315   42.2801 H   0  0  0  0  0  0  0  0  0  0  0  0
   36.5261   31.3179   39.8074 H   0  0  0  0  0  0  0  0  0  0  0  0
   39.9284   33.0743   41.8638 H   0  0  0  0  0  0  0  0  0  0  0  0
   37.6966   35.2703   39.0021 H   0  0  0  0  0  0  0  0  0  0  0  0
   36.1357   27.7071   42.3735 H   0  0  0  0  0  0  0  0  0  0  0  0
   37.4945   27.3813   45.0732 H   0  0  0  0  0  0  0  0  0  0  0  0
   36.8886   29.0355   44.7222 H   0  0  0  0  0  0  0  0  0  0  0  0
   35.7526   27.6441   44.7222 H   0  0  0  0  0  0  0  0  0  0  0  0
   38.7480   26.6072   42.5974 H   0  0  0  0  0  0  0  0  0  0  0  0
   37.4755   25.8740   43.7252 H   0  0  0  0  0  0  0  0  0  0  0  0
   37.2099   27.0434   40.1161 H   0  0  0  0  0  0  0  0  0  0  0  0
   35.9949   23.0065   40.3360 H   0  0  0  0  0  0  0  0  0  0  0  0
  1  5  1  0
  1  2  1  0
  2  3  2  0
  4  3  1  0
  4 12  1  0
  5  4  2  0
  6  7  2  0
  7  8  1  0
  7  1  1  0
  9  8  2  0
 10  9  1  0
 11 10  2  0
 11  6  1  0
 12 13  1  0
 14 12  1  0
 15 19  1  0
 15 14  1  0
 16 15  1  0
 17 16  2  0
 17 18  1  0
 18 19  2  0
  2 20  1  0
  6 21  1  0
  8 22  1  0
 10 23  1  0
 12 24  1  6
 13 25  1  0
 13 26  1  0
 13 27  1  0
 14 28  1  0
 14 29  1  0
 16 30  1  0
 18 31  1  0
M  ISO  8  20  14  21  14  22  14  23  14  24   8  25   8  26   8  27   8
M  ISO  4  28   8  29   8  30  14  31  14
M  END
>  <minimizedAffinity>  (1) 
-4.86674595

>  <minimizedRMSD>  (1) 
0.852934241

$$$$
