
     RDKit          3D

 32 34  0  0  1  0  0  0  0  0999 V2000
   38.9070   30.9180   41.7990 N   0  0  0  0  0  0  0  0  0  0  0  0
   39.4880   30.1450   42.7450 C   0  0  0  0  0  0  0  0  0  0  0  0
   38.7250   29.0670   42.9540 N   0  0  0  0  0  0  0  0  0  0  0  0
   37.6600   29.1450   42.1490 C   0  0  0  0  0  0  0  0  0  0  0  0
   37.7990   30.2940   41.4490 N   0  0  0  0  0  0  0  0  0  0  0  0
   38.2200   33.0310   40.6390 C   0  0  0  0  0  0  0  0  0  0  0  0
   39.1940   32.1560   41.1440 C   0  0  0  0  0  0  0  0  0  0  0  0
   40.5590   32.5360   40.9910 C   0  0  0  0  0  0  0  0  0  0  0  0
   40.8080   33.7180   40.3650 N   0  0  0  0  0  0  0  0  0  0  0  0
   39.8340   34.5130   39.9040 C   0  0  0  0  0  0  0  0  0  0  0  0
   38.5480   34.1730   40.0390 N   0  0  0  0  0  0  0  0  0  0  0  0
   36.5790   28.1410   42.0880 C   0  0  2  0  0  0  0  0  0  0  0  0
   36.5340   27.4930   43.4730 C   0  0  0  0  0  0  0  0  0  0  0  0
   36.7470   27.1220   41.0310 C   0  0  0  0  0  0  0  0  0  0  0  0
   37.4130   25.9100   41.4500 N   0  0  0  0  0  0  0  0  0  0  0  0
   38.7660   25.7850   41.3510 C   0  0  0  0  0  0  0  0  0  0  0  0
   39.2040   24.5540   41.8100 C   0  0  0  0  0  0  0  0  0  0  0  0
   38.0730   23.9340   42.1940 N   0  0  0  0  0  0  0  0  0  0  0  0
   37.0190   24.7420   41.9780 C   0  0  0  0  0  0  0  0  0  0  0  0
   40.4348   30.3673   43.2590 H   0  0  0  0  0  0  0  0  0  0  0  0
   37.1573   32.7661   40.7417 H   0  0  0  0  0  0  0  0  0  0  0  0
   41.3763   31.9008   41.3631 H   0  0  0  0  0  0  0  0  0  0  0  0
   40.0956   35.4590   39.4073 H   0  0  0  0  0  0  0  0  0  0  0  0
   35.6364   28.6412   41.8208 H   0  0  0  0  0  0  0  0  0  0  0  0
   36.5883   28.2744   44.2453 H   0  0  0  0  0  0  0  0  0  0  0  0
   35.5947   26.9316   43.5848 H   0  0  0  0  0  0  0  0  0  0  0  0
   37.3867   26.8071   43.5848 H   0  0  0  0  0  0  0  0  0  0  0  0
   37.3346   27.5697   40.2160 H   0  0  0  0  0  0  0  0  0  0  0  0
   35.7324   26.8252   40.7268 H   0  0  0  0  0  0  0  0  0  0  0  0
   39.4301   26.5671   40.9545 H   0  0  0  0  0  0  0  0  0  0  0  0
   40.2349   24.1724   41.8511 H   0  0  0  0  0  0  0  0  0  0  0  0
   35.9749   24.4798   42.2041 H   0  0  0  0  0  0  0  0  0  0  0  0
  1  2  1  0
  2  3  2  0
  4  3  1  0
  5  1  1  0
  5  4  2  0
  6  7  2  0
  7  1  1  0
  8  7  1  0
  9  8  2  0
 10 11  2  0
 10  9  1  0
 11  6  1  0
 12  4  1  0
 12 13  1  0
 14 15  1  0
 14 12  1  0
 15 19  1  0
 16 15  1  0
 16 17  2  0
 17 18  1  0
 19 18  2  0
  2 20  1  0
  6 21  1  0
  8 22  1  0
 10 23  1  0
 12 24  1  6
 13 25  1  0
 13 26  1  0
 13 27  1  0
 14 28  1  0
 14 29  1  0
 16 30  1  0
 17 31  1  0
 19 32  1  0
M  ISO  8  20  14  21  14  22  14  23  14  24   8  25   8  26   8  27   8
M  ISO  5  28   8  29   8  30  14  31  14  32  14
M  END
>  <minimizedAffinity>  (1) 
-4.8251667

>  <minimizedRMSD>  (1) 
1.53597558

$$$$
