
     RDKit          3D

 27 28  0  0  1  0  0  0  0  0999 V2000
   38.5060   30.5590   41.8790 N   0  0  0  0  0  0  0  0  0  0  0  0
   39.4550   29.8570   42.5600 C   0  0  0  0  0  0  0  0  0  0  0  0
   38.9110   28.7410   43.0740 N   0  0  0  0  0  0  0  0  0  0  0  0
   37.6020   28.7380   42.7110 C   0  0  0  0  0  0  0  0  0  0  0  0
   37.4120   29.8580   41.9910 N   0  0  0  0  0  0  0  0  0  0  0  0
   37.3810   32.2170   40.4270 C   0  0  0  0  0  0  0  0  0  0  0  0
   38.5190   31.7690   41.1570 C   0  0  0  0  0  0  0  0  0  0  0  0
   39.6550   32.5890   41.1180 C   0  0  0  0  0  0  0  0  0  0  0  0
   39.5910   33.7380   40.3980 N   0  0  0  0  0  0  0  0  0  0  0  0
   38.4890   34.1170   39.7240 C   0  0  0  0  0  0  0  0  0  0  0  0
   37.3700   33.3540   39.7330 N   0  0  0  0  0  0  0  0  0  0  0  0
   36.6360   27.6760   43.0730 C   0  0  2  0  0  0  0  0  0  0  0  0
   36.5480   27.7200   44.6130 C   0  0  0  0  0  0  0  0  0  0  0  0
   37.0220   26.3250   42.6150 C   0  0  0  0  0  0  0  0  0  0  0  0
   37.7630   26.4720   41.3770 N   0  0  0  0  0  0  0  0  0  0  0  0
   40.5070   30.1583   42.6720 H   0  0  0  0  0  0  0  0  0  0  0  0
   36.4721   31.5975   40.4367 H   0  0  0  0  0  0  0  0  0  0  0  0
   40.5729   32.3093   41.6559 H   0  0  0  0  0  0  0  0  0  0  0  0
   38.4975   35.0600   39.1578 H   0  0  0  0  0  0  0  0  0  0  0  0
   35.6737   27.8651   42.5747 H   0  0  0  0  0  0  0  0  0  0  0  0
   37.4528   27.2676   45.0450 H   0  0  0  0  0  0  0  0  0  0  0  0
   36.4659   28.7652   44.9459 H   0  0  0  0  0  0  0  0  0  0  0  0
   35.6626   27.1586   44.9459 H   0  0  0  0  0  0  0  0  0  0  0  0
   37.6531   25.8388   43.3735 H   0  0  0  0  0  0  0  0  0  0  0  0
   36.1287   25.7029   42.4568 H   0  0  0  0  0  0  0  0  0  0  0  0
   38.7515   26.6681   41.5898 H   0  0  0  0  0  0  0  0  0  0  0  0
   37.6955   25.6012   40.8310 H   0  0  0  0  0  0  0  0  0  0  0  0
  1  5  1  0
  1  2  1  0
  2  3  2  0
  4 12  1  0
  4  3  1  0
  5  4  2  0
  6  7  2  0
  7  1  1  0
  8  7  1  0
  9  8  2  0
 10 11  2  0
 10  9  1  0
 11  6  1  0
 12 13  1  0
 14 12  1  0
 15 14  1  0
  2 16  1  0
  6 17  1  0
  8 18  1  0
 10 19  1  0
 12 20  1  6
 13 21  1  0
 13 22  1  0
 13 23  1  0
 14 24  1  0
 14 25  1  0
 15 26  1  0
 15 27  1  0
M  ISO  8  16  14  17  14  18  14  19  14  20   8  21   8  22   8  23   8
M  ISO  4  24   8  25   8  26   5  27   5
M  END
>  <minimizedAffinity>  (1) 
-4.21831417

>  <minimizedRMSD>  (1) 
0.231119558

$$$$
