
     RDKit          3D

 45 48  0  0  1  0  0  0  0  0999 V2000
   37.6590   26.4820   42.9270 C   0  0  0  0  0  0  0  0  0  0  0  0
   37.2170   25.7680   41.7200 C   0  0  0  0  0  0  0  0  0  0  0  0
   36.7130   24.4840   41.7640 C   0  0  0  0  0  0  0  0  0  0  0  0
   36.3370   23.9480   40.5500 C   0  0  0  0  0  0  0  0  0  0  0  0
   36.4760   24.6870   39.3960 C   0  0  0  0  0  0  0  0  0  0  0  0
   36.9820   25.9700   39.3740 C   0  0  0  0  0  0  0  0  0  0  0  0
   37.3440   26.4760   40.5750 N   0  0  0  0  0  0  0  0  0  0  0  0
   37.0970   26.6700   38.1550 N   0  0  0  0  0  0  0  0  0  0  0  0
   38.1370   26.5330   37.2830 C   0  0  0  0  0  0  0  0  0  0  0  0
   38.1610   27.2640   36.1100 C   0  0  0  0  0  0  0  0  0  0  0  0
   37.1480   28.1560   35.7700 C   0  0  0  0  0  0  0  0  0  0  0  0
   37.2820   28.8540   34.5350 N   0  0  0  0  0  0  0  0  0  0  0  0
   36.1280   28.2780   36.6460 N   0  0  0  0  0  0  0  0  0  0  0  0
   36.1450   27.5380   37.7880 C   0  0  0  0  0  0  0  0  0  0  0  0
   35.1260   27.7540   38.5180 O   0  0  0  0  0  0  0  0  0  0  0  0
   37.0080   27.8000   43.1130 C   0  0  2  0  0  0  0  0  0  0  0  0
   38.4900   30.8170   41.7030 N   0  0  0  0  0  0  0  0  0  0  0  0
   39.5210   30.2460   42.3230 C   0  0  0  0  0  0  0  0  0  0  0  0
   39.1470   29.1030   42.9060 N   0  0  0  0  0  0  0  0  0  0  0  0
   37.8140   28.9430   42.6400 C   0  0  0  0  0  0  0  0  0  0  0  0
   37.4580   30.0070   41.9070 N   0  0  0  0  0  0  0  0  0  0  0  0
   37.1850   32.1280   39.9930 C   0  0  0  0  0  0  0  0  0  0  0  0
   38.2250   31.9980   40.9280 C   0  0  0  0  0  0  0  0  0  0  0  0
   39.1010   33.1120   41.1490 C   0  0  0  0  0  0  0  0  0  0  0  0
   38.8360   34.2220   40.4110 N   0  0  0  0  0  0  0  0  0  0  0  0
   37.8360   34.2940   39.5360 C   0  0  0  0  0  0  0  0  0  0  0  0
   37.0250   33.2620   39.3310 N   0  0  0  0  0  0  0  0  0  0  0  0
   36.7800   28.0470   44.6200 C   0  0  0  0  0  0  0  0  0  0  0  0
   38.7457   26.6382   42.8594 H   0  0  0  0  0  0  0  0  0  0  0  0
   37.3765   25.8601   43.7892 H   0  0  0  0  0  0  0  0  0  0  0  0
   36.6173   23.9243   42.7061 H   0  0  0  0  0  0  0  0  0  0  0  0
   35.9255   22.9289   40.5034 H   0  0  0  0  0  0  0  0  0  0  0  0
   36.1679   24.2309   38.4436 H   0  0  0  0  0  0  0  0  0  0  0  0
   38.9587   25.8390   37.5138 H   0  0  0  0  0  0  0  0  0  0  0  0
   39.0096   27.1364   35.4218 H   0  0  0  0  0  0  0  0  0  0  0  0
   36.5574   29.5244   34.2411 H   0  0  0  0  0  0  0  0  0  0  0  0
   38.1035   28.6882   33.9362 H   0  0  0  0  0  0  0  0  0  0  0  0
   36.0795   27.7505   42.5253 H   0  0  0  0  0  0  0  0  0  0  0  0
   40.5404   30.6584   42.3514 H   0  0  0  0  0  0  0  0  0  0  0  0
   36.5021   31.2851   39.8109 H   0  0  0  0  0  0  0  0  0  0  0  0
   39.9323   33.0707   41.8682 H   0  0  0  0  0  0  0  0  0  0  0  0
   37.6780   35.2252   38.9721 H   0  0  0  0  0  0  0  0  0  0  0  0
   37.4124   27.3619   45.2036 H   0  0  0  0  0  0  0  0  0  0  0  0
   37.0425   29.0867   44.8650 H   0  0  0  0  0  0  0  0  0  0  0  0
   35.7226   27.8684   44.8650 H   0  0  0  0  0  0  0  0  0  0  0  0
  1 16  1  0
  2  3  2  0
  2  1  1  0
  4  3  1  0
  5  4  2  0
  6  5  1  0
  6  7  2  0
  7  2  1  0
  8  6  1  0
  9  8  1  0
 10  9  2  0
 11 10  1  0
 11 13  2  0
 12 11  1  0
 13 14  1  0
 14  8  1  0
 14 15  2  0
 16 28  1  0
 17 21  1  0
 17 18  1  0
 18 19  2  0
 20 19  1  0
 20 16  1  0
 21 20  2  0
 22 23  2  0
 23 24  1  0
 23 17  1  0
 25 24  2  0
 26 25  1  0
 27 26  2  0
 27 22  1  0
  1 29  1  0
  1 30  1  0
  3 31  1  0
  4 32  1  0
  5 33  1  0
  9 34  1  0
 10 35  1  0
 12 36  1  0
 12 37  1  0
 16 38  1  6
 18 39  1  0
 22 40  1  0
 24 41  1  0
 26 42  1  0
 28 43  1  0
 28 44  1  0
 28 45  1  0
M  ISO  8  29   8  30   8  31  14  32  14  33  14  34  14  35  14  38   8
M  ISO  7  39  14  40  14  41  14  42  14  43   8  44   8  45   8
M  END
>  <minimizedAffinity>  (1) 
-6.84681892

>  <minimizedRMSD>  (1) 
0.648721337

$$$$
