
     RDKit          3D

 48 52  0  0  1  0  0  0  0  0999 V2000
   37.5000   26.4230   42.9910 C   0  0  0  0  0  0  0  0  0  0  0  0
   37.0520   25.7720   41.7500 C   0  0  0  0  0  0  0  0  0  0  0  0
   36.8620   24.4220   41.6510 C   0  0  0  0  0  0  0  0  0  0  0  0
   36.4420   23.9540   40.4220 C   0  0  0  0  0  0  0  0  0  0  0  0
   36.2430   24.8400   39.3940 C   0  0  0  0  0  0  0  0  0  0  0  0
   36.4310   26.1920   39.4880 C   0  0  0  0  0  0  0  0  0  0  0  0
   36.8450   26.6180   40.7120 N   0  0  0  0  0  0  0  0  0  0  0  0
   36.2720   27.1960   38.4670 C   0  0  0  0  0  0  0  0  0  0  0  0
   37.2570   28.1750   38.2750 C   0  0  0  0  0  0  0  0  0  0  0  0
   36.9010   29.0130   37.2880 N   0  0  0  0  0  0  0  0  0  0  0  0
   35.7070   28.6540   36.7880 C   0  0  0  0  0  0  0  0  0  0  0  0
   34.8690   29.1330   35.8040 C   0  0  0  0  0  0  0  0  0  0  0  0
   33.6550   28.5380   35.5140 C   0  0  0  0  0  0  0  0  0  0  0  0
   33.3210   27.4220   36.2760 C   0  0  0  0  0  0  0  0  0  0  0  0
   34.1650   26.9620   37.2490 C   0  0  0  0  0  0  0  0  0  0  0  0
   35.3540   27.5530   37.5230 C   0  0  0  0  0  0  0  0  0  0  0  0
   36.9190   27.7660   43.2160 C   0  0  2  0  0  0  0  0  0  0  0  0
   38.4640   30.7360   41.7790 N   0  0  0  0  0  0  0  0  0  0  0  0
   39.4830   30.1540   42.4250 C   0  0  0  0  0  0  0  0  0  0  0  0
   39.0720   29.0260   43.0170 N   0  0  0  0  0  0  0  0  0  0  0  0
   37.7580   28.8890   42.7390 C   0  0  0  0  0  0  0  0  0  0  0  0
   37.4260   29.9500   41.9840 N   0  0  0  0  0  0  0  0  0  0  0  0
   37.1950   32.0670   40.0730 C   0  0  0  0  0  0  0  0  0  0  0  0
   38.2460   31.9060   40.9900 C   0  0  0  0  0  0  0  0  0  0  0  0
   39.1720   32.9890   41.1540 C   0  0  0  0  0  0  0  0  0  0  0  0
   38.9580   34.0890   40.4070 N   0  0  0  0  0  0  0  0  0  0  0  0
   37.9330   34.1810   39.5460 C   0  0  0  0  0  0  0  0  0  0  0  0
   37.0640   33.1910   39.3780 N   0  0  0  0  0  0  0  0  0  0  0  0
   36.7280   27.9970   44.7230 C   0  0  0  0  0  0  0  0  0  0  0  0
   38.5948   26.5229   42.9523 H   0  0  0  0  0  0  0  0  0  0  0  0
   37.1589   25.7879   43.8219 H   0  0  0  0  0  0  0  0  0  0  0  0
   37.0340   23.7469   42.5022 H   0  0  0  0  0  0  0  0  0  0  0  0
   36.2683   22.8787   40.2683 H   0  0  0  0  0  0  0  0  0  0  0  0
   35.9091   24.4356   38.4270 H   0  0  0  0  0  0  0  0  0  0  0  0
   38.1907   28.2466   38.8521 H   0  0  0  0  0  0  0  0  0  0  0  0
   37.4612   29.8135   36.9621 H   0  0  0  0  0  0  0  0  0  0  0  0
   35.1767   30.0192   35.2296 H   0  0  0  0  0  0  0  0  0  0  0  0
   32.9913   28.9243   34.7264 H   0  0  0  0  0  0  0  0  0  0  0  0
   32.3677   26.9043   36.0936 H   0  0  0  0  0  0  0  0  0  0  0  0
   33.8675   26.0780   37.8320 H   0  0  0  0  0  0  0  0  0  0  0  0
   35.9787   27.7642   42.6452 H   0  0  0  0  0  0  0  0  0  0  0  0
   40.5098   30.5466   42.4635 H   0  0  0  0  0  0  0  0  0  0  0  0
   36.4709   31.2517   39.9284 H   0  0  0  0  0  0  0  0  0  0  0  0
   40.0163   32.9242   41.8561 H   0  0  0  0  0  0  0  0  0  0  0  0
   37.8088   35.1046   38.9615 H   0  0  0  0  0  0  0  0  0  0  0  0
   37.3306   27.2682   45.2849 H   0  0  0  0  0  0  0  0  0  0  0  0
   37.0505   29.0164   44.9815 H   0  0  0  0  0  0  0  0  0  0  0  0
   35.6662   27.8718   44.9815 H   0  0  0  0  0  0  0  0  0  0  0  0
  1 17  1  0
  2  1  1  0
  3  2  2  0
  4  3  1  0
  5  6  1  0
  5  4  2  0
  6  7  2  0
  7  2  1  0
  8  6  1  0
  9  8  2  0
 10  9  1  0
 11 10  1  0
 11 16  2  0
 12 11  1  0
 13 12  2  0
 13 14  1  0
 14 15  2  0
 15 16  1  0
 16  8  1  0
 17 29  1  0
 18 22  1  0
 18 19  1  0
 19 20  2  0
 21 20  1  0
 21 17  1  0
 22 21  2  0
 23 24  2  0
 24 25  1  0
 24 18  1  0
 26 25  2  0
 27 26  1  0
 28 27  2  0
 28 23  1  0
  1 30  1  0
  1 31  1  0
  3 32  1  0
  4 33  1  0
  5 34  1  0
  9 35  1  0
 10 36  1  0
 12 37  1  0
 13 38  1  0
 14 39  1  0
 15 40  1  0
 17 41  1  6
 19 42  1  0
 23 43  1  0
 25 44  1  0
 27 45  1  0
 29 46  1  0
 29 47  1  0
 29 48  1  0
M  ISO  8  30   8  31   8  32  14  33  14  34  14  35  14  36   9  37  14
M  ISO  8  38  14  39  14  40  14  41   8  42  14  43  14  44  14  45  14
M  ISO  3  46   8  47   8  48   8
M  END
>  <minimizedAffinity>  (1) 
-6.53284264

>  <minimizedRMSD>  (1) 
0.328481764

$$$$
