
     RDKit          3D

 49 52  0  0  1  0  0  0  0  0999 V2000
   36.9710   27.7980   43.1120 C   0  0  2  0  0  0  0  0  0  0  0  0
   38.4750   30.8300   41.7560 N   0  0  0  0  0  0  0  0  0  0  0  0
   39.4840   30.2760   42.4290 C   0  0  0  0  0  0  0  0  0  0  0  0
   39.1020   29.1300   43.0000 N   0  0  0  0  0  0  0  0  0  0  0  0
   37.7830   28.9520   42.6720 C   0  0  0  0  0  0  0  0  0  0  0  0
   37.4460   30.0070   41.9170 N   0  0  0  0  0  0  0  0  0  0  0  0
   37.1800   32.1360   40.0350 C   0  0  0  0  0  0  0  0  0  0  0  0
   38.2260   32.0020   40.9640 C   0  0  0  0  0  0  0  0  0  0  0  0
   39.1200   33.1070   41.1540 C   0  0  0  0  0  0  0  0  0  0  0  0
   38.8870   34.2040   40.4150 N   0  0  0  0  0  0  0  0  0  0  0  0
   37.8740   34.2840   39.5390 C   0  0  0  0  0  0  0  0  0  0  0  0
   37.0390   33.2650   39.3570 N   0  0  0  0  0  0  0  0  0  0  0  0
   36.7470   27.9970   44.6230 C   0  0  0  0  0  0  0  0  0  0  0  0
   37.6190   26.4820   42.8850 C   0  0  0  0  0  0  0  0  0  0  0  0
   37.1280   25.7750   41.6990 C   0  0  0  0  0  0  0  0  0  0  0  0
   37.0020   24.4010   41.6520 C   0  0  0  0  0  0  0  0  0  0  0  0
   36.5190   23.8900   40.4470 C   0  0  0  0  0  0  0  0  0  0  0  0
   36.2080   24.7320   39.4220 C   0  0  0  0  0  0  0  0  0  0  0  0
   36.3390   26.1000   39.4850 C   0  0  0  0  0  0  0  0  0  0  0  0
   36.8080   26.5890   40.6540 N   0  0  0  0  0  0  0  0  0  0  0  0
   36.0130   26.9460   38.4180 N   0  0  0  0  0  0  0  0  0  0  0  0
   34.9750   26.5820   37.4810 C   0  0  0  0  0  0  0  0  0  0  0  0
   34.6140   27.7760   36.6260 C   0  0  0  0  0  0  0  0  0  0  0  0
   34.3830   28.9550   37.5520 C   0  0  0  0  0  0  0  0  0  0  0  0
   35.7290   29.3640   38.1130 C   0  0  0  0  0  0  0  0  0  0  0  0
   36.6790   28.1920   38.2030 C   0  0  0  0  0  0  0  0  0  0  0  0
   36.0409   27.7722   42.5252 H   0  0  0  0  0  0  0  0  0  0  0  0
   40.4943   30.7045   42.5040 H   0  0  0  0  0  0  0  0  0  0  0  0
   36.4792   31.3041   39.8711 H   0  0  0  0  0  0  0  0  0  0  0  0
   39.9545   33.0586   41.8690 H   0  0  0  0  0  0  0  0  0  0  0  0
   37.7315   35.2090   38.9610 H   0  0  0  0  0  0  0  0  0  0  0  0
   37.4542   27.3687   45.1844 H   0  0  0  0  0  0  0  0  0  0  0  0
   36.9099   29.0536   44.8818 H   0  0  0  0  0  0  0  0  0  0  0  0
   35.7169   27.7107   44.8818 H   0  0  0  0  0  0  0  0  0  0  0  0
   38.7007   26.6441   42.7685 H   0  0  0  0  0  0  0  0  0  0  0  0
   37.3774   25.8530   43.7545 H   0  0  0  0  0  0  0  0  0  0  0  0
   37.2636   23.7555   42.5034 H   0  0  0  0  0  0  0  0  0  0  0  0
   36.3889   22.8046   40.3242 H   0  0  0  0  0  0  0  0  0  0  0  0
   35.8294   24.2915   38.4879 H   0  0  0  0  0  0  0  0  0  0  0  0
   35.3348   25.7667   36.8362 H   0  0  0  0  0  0  0  0  0  0  0  0
   34.0850   26.2507   38.0361 H   0  0  0  0  0  0  0  0  0  0  0  0
   35.4364   28.0012   35.9311 H   0  0  0  0  0  0  0  0  0  0  0  0
   33.7094   27.5672   36.0359 H   0  0  0  0  0  0  0  0  0  0  0  0
   33.9398   29.7914   36.9917 H   0  0  0  0  0  0  0  0  0  0  0  0
   33.6923   28.6810   38.3631 H   0  0  0  0  0  0  0  0  0  0  0  0
   36.1698   30.1302   37.4582 H   0  0  0  0  0  0  0  0  0  0  0  0
   35.5715   29.7553   39.1289 H   0  0  0  0  0  0  0  0  0  0  0  0
   37.2463   28.1281   37.2627 H   0  0  0  0  0  0  0  0  0  0  0  0
   37.3349   28.3671   39.0685 H   0  0  0  0  0  0  0  0  0  0  0  0
  1 13  1  0
  2  6  1  0
  2  3  1  0
  3  4  2  0
  5  4  1  0
  5  1  1  0
  6  5  2  0
  7  8  2  0
  8  9  1  0
  8  2  1  0
 10  9  2  0
 11 10  1  0
 12 11  2  0
 12  7  1  0
 14  1  1  0
 15 14  1  0
 16 15  2  0
 17 16  1  0
 18 19  1  0
 18 17  2  0
 19 20  2  0
 20 15  1  0
 21 19  1  0
 22 21  1  0
 23 22  1  0
 23 24  1  0
 24 25  1  0
 25 26  1  0
 26 21  1  0
  1 27  1  6
  3 28  1  0
  7 29  1  0
  9 30  1  0
 11 31  1  0
 13 32  1  0
 13 33  1  0
 13 34  1  0
 14 35  1  0
 14 36  1  0
 16 37  1  0
 17 38  1  0
 18 39  1  0
 22 40  1  0
 22 41  1  0
 23 42  1  0
 23 43  1  0
 24 44  1  0
 24 45  1  0
 25 46  1  0
 25 47  1  0
 26 48  1  0
 26 49  1  0
M  ISO  8  27   8  28  14  29  14  30  14  31  14  32   8  33   8  34   8
M  ISO  8  35   8  36   8  37  14  38  14  39  14  40  13  41  13  42  13
M  ISO  7  43  13  44  13  45  13  46  13  47  13  48  13  49  13
M  END
>  <minimizedAffinity>  (1) 
-6.49464226

>  <minimizedRMSD>  (1) 
0.294831634

$$$$
