
     RDKit          3D

 41 44  0  0  1  0  0  0  0  0999 V2000
   36.9590   27.7910   43.1490 C   0  0  2  0  0  0  0  0  0  0  0  0
   38.4770   30.8120   41.7620 N   0  0  0  0  0  0  0  0  0  0  0  0
   39.4840   30.2630   42.4400 C   0  0  0  0  0  0  0  0  0  0  0  0
   39.1000   29.1200   43.0240 N   0  0  0  0  0  0  0  0  0  0  0  0
   37.7810   28.9410   42.6970 C   0  0  0  0  0  0  0  0  0  0  0  0
   37.4480   29.9910   41.9320 N   0  0  0  0  0  0  0  0  0  0  0  0
   37.1850   32.1010   40.0300 C   0  0  0  0  0  0  0  0  0  0  0  0
   38.2260   31.9720   40.9610 C   0  0  0  0  0  0  0  0  0  0  0  0
   39.1160   33.0790   41.1480 C   0  0  0  0  0  0  0  0  0  0  0  0
   38.8740   34.1790   40.3960 N   0  0  0  0  0  0  0  0  0  0  0  0
   37.8770   34.2480   39.5320 C   0  0  0  0  0  0  0  0  0  0  0  0
   37.0300   33.2260   39.3370 N   0  0  0  0  0  0  0  0  0  0  0  0
   36.7500   28.0130   44.6620 C   0  0  0  0  0  0  0  0  0  0  0  0
   37.6000   26.4720   42.9270 C   0  0  0  0  0  0  0  0  0  0  0  0
   37.1100   25.7700   41.7340 C   0  0  0  0  0  0  0  0  0  0  0  0
   36.9340   24.4040   41.7050 C   0  0  0  0  0  0  0  0  0  0  0  0
   36.4650   23.8840   40.5090 C   0  0  0  0  0  0  0  0  0  0  0  0
   36.2090   24.7220   39.4500 C   0  0  0  0  0  0  0  0  0  0  0  0
   36.3920   26.0850   39.5010 C   0  0  0  0  0  0  0  0  0  0  0  0
   36.8490   26.5730   40.6770 N   0  0  0  0  0  0  0  0  0  0  0  0
   36.1060   26.9340   38.3530 C   0  0  0  0  0  0  0  0  0  0  0  0
   35.3020   28.0530   38.3490 C   0  0  0  0  0  0  0  0  0  0  0  0
   35.3860   28.4600   37.0130 C   0  0  0  0  0  0  0  0  0  0  0  0
   36.1820   27.6400   36.2840 N   0  0  0  0  0  0  0  0  0  0  0  0
   36.6120   26.7090   37.1300 N   0  0  0  0  0  0  0  0  0  0  0  0
   36.0239   27.7586   42.5707 H   0  0  0  0  0  0  0  0  0  0  0  0
   40.4949   30.6908   42.5108 H   0  0  0  0  0  0  0  0  0  0  0  0
   36.4897   31.2635   39.8712 H   0  0  0  0  0  0  0  0  0  0  0  0
   39.9505   33.0377   41.8635 H   0  0  0  0  0  0  0  0  0  0  0  0
   37.7368   35.1732   38.9538 H   0  0  0  0  0  0  0  0  0  0  0  0
   37.3972   27.3255   45.2263 H   0  0  0  0  0  0  0  0  0  0  0  0
   37.0058   29.0515   44.9190 H   0  0  0  0  0  0  0  0  0  0  0  0
   35.6980   27.8202   44.9190 H   0  0  0  0  0  0  0  0  0  0  0  0
   38.6836   26.6266   42.8182 H   0  0  0  0  0  0  0  0  0  0  0  0
   37.3503   25.8436   43.7946 H   0  0  0  0  0  0  0  0  0  0  0  0
   37.1517   23.7671   42.5750 H   0  0  0  0  0  0  0  0  0  0  0  0
   36.2978   22.8015   40.4073 H   0  0  0  0  0  0  0  0  0  0  0  0
   35.8386   24.2803   38.5131 H   0  0  0  0  0  0  0  0  0  0  0  0
   34.7410   28.5074   39.1789 H   0  0  0  0  0  0  0  0  0  0  0  0
   34.8682   29.3398   36.6034 H   0  0  0  0  0  0  0  0  0  0  0  0
   36.4071   27.7214   35.2822 H   0  0  0  0  0  0  0  0  0  0  0  0
  1 13  1  0
  2  6  1  0
  2  3  1  0
  3  4  2  0
  5  4  1  0
  5  1  1  0
  6  5  2  0
  7  8  2  0
  8  9  1  0
  8  2  1  0
 10  9  2  0
 11 10  1  0
 12 11  2  0
 12  7  1  0
 14  1  1  0
 15 14  1  0
 16 15  2  0
 17 16  1  0
 18 19  1  0
 18 17  2  0
 19 20  2  0
 20 15  1  0
 21 19  1  0
 22 21  1  0
 23 22  2  0
 24 23  1  0
 24 25  1  0
 25 21  2  0
  1 26  1  6
  3 27  1  0
  7 28  1  0
  9 29  1  0
 11 30  1  0
 13 31  1  0
 13 32  1  0
 13 33  1  0
 14 34  1  0
 14 35  1  0
 16 36  1  0
 17 37  1  0
 18 38  1  0
 22 39  1  0
 23 40  1  0
 24 41  1  0
M  ISO  8  26   8  27  14  28  14  29  14  30  14  31   8  32   8  33   8
M  ISO  8  34   8  35   8  36  14  37  14  38  14  39  14  40  14  41   9
M  END
>  <minimizedAffinity>  (1) 
-5.83520079

>  <minimizedRMSD>  (1) 
0.212273598

$$$$
