
     RDKit          3D

 48 51  0  0  1  0  0  0  0  0999 V2000
   39.2140   25.9490   42.1370 C   0  0  1  0  0  0  0  0  0  0  0  0
   39.0260   24.5280   41.5570 C   0  0  0  0  0  0  0  0  0  0  0  0
   37.6420   24.1200   41.9430 C   0  0  0  0  0  0  0  0  0  0  0  0
   36.9500   25.4870   42.0370 C   0  0  0  0  0  0  0  0  0  0  0  0
   37.9610   26.2090   42.8840 C   0  0  2  0  0  0  0  0  0  0  0  0
   41.8620   26.9520   44.6360 C   0  0  0  0  0  0  0  0  0  0  0  0
   40.6150   26.9440   43.9890 C   0  0  0  0  0  0  0  0  0  0  0  0
   40.4420   26.0600   42.9030 C   0  0  0  0  0  0  0  0  0  0  0  0
   41.4890   25.2660   42.5440 N   0  0  0  0  0  0  0  0  0  0  0  0
   42.6670   25.2980   43.1820 C   0  0  0  0  0  0  0  0  0  0  0  0
   42.8560   26.1340   44.2210 N   0  0  0  0  0  0  0  0  0  0  0  0
   37.4880   27.6230   42.9380 C   0  0  2  0  0  0  0  0  0  0  0  0
   37.0210   28.0960   44.2650 C   0  0  0  0  0  0  0  0  0  0  0  0
   36.3750   27.7320   41.9150 C   0  0  0  0  0  0  0  0  0  0  0  0
   36.7640   28.8480   41.0370 C   0  0  0  0  0  0  0  0  0  0  0  0
   36.4610   30.1480   41.4780 C   0  0  0  0  0  0  0  0  0  0  0  0
   36.6840   31.2950   40.7510 C   0  0  0  0  0  0  0  0  0  0  0  0
   37.2420   31.1920   39.4970 C   0  0  0  0  0  0  0  0  0  0  0  0
   37.5620   29.9440   39.0140 C   0  0  0  0  0  0  0  0  0  0  0  0
   38.1510   29.8330   37.7840 C   0  0  0  0  0  0  0  0  0  0  0  0
   38.5280   28.5880   37.2680 C   0  0  0  0  0  0  0  0  0  0  0  0
   38.2810   27.4600   38.0610 C   0  0  0  0  0  0  0  0  0  0  0  0
   37.6940   27.6510   39.2650 C   0  0  0  0  0  0  0  0  0  0  0  0
   37.3090   28.8650   39.7990 C   0  0  0  0  0  0  0  0  0  0  0  0
   39.3553   26.7264   41.3717 H   0  0  0  0  0  0  0  0  0  0  0  0
   39.7650   23.8361   41.9874 H   0  0  0  0  0  0  0  0  0  0  0  0
   39.1678   24.5101   40.4663 H   0  0  0  0  0  0  0  0  0  0  0  0
   37.1787   23.4846   41.1738 H   0  0  0  0  0  0  0  0  0  0  0  0
   37.5860   23.5189   42.8625 H   0  0  0  0  0  0  0  0  0  0  0  0
   36.8296   25.9564   41.0495 H   0  0  0  0  0  0  0  0  0  0  0  0
   35.9254   25.4704   42.4369 H   0  0  0  0  0  0  0  0  0  0  0  0
   38.1073   25.9119   43.9330 H   0  0  0  0  0  0  0  0  0  0  0  0
   42.0313   27.6287   45.4866 H   0  0  0  0  0  0  0  0  0  0  0  0
   39.8001   27.6054   44.3183 H   0  0  0  0  0  0  0  0  0  0  0  0
   43.4841   24.6379   42.8554 H   0  0  0  0  0  0  0  0  0  0  0  0
   38.3465   28.2764   42.7234 H   0  0  0  0  0  0  0  0  0  0  0  0
   37.5571   27.5530   45.0573 H   0  0  0  0  0  0  0  0  0  0  0  0
   37.2190   29.1738   44.3606 H   0  0  0  0  0  0  0  0  0  0  0  0
   35.9408   27.9118   44.3606 H   0  0  0  0  0  0  0  0  0  0  0  0
   36.2890   26.7994   41.3380 H   0  0  0  0  0  0  0  0  0  0  0  0
   35.3972   27.9038   42.3887 H   0  0  0  0  0  0  0  0  0  0  0  0
   36.0131   30.2563   42.4768 H   0  0  0  0  0  0  0  0  0  0  0  0
   36.4203   32.2791   41.1657 H   0  0  0  0  0  0  0  0  0  0  0  0
   37.4288   32.0913   38.8918 H   0  0  0  0  0  0  0  0  0  0  0  0
   38.3318   30.7403   37.1890 H   0  0  0  0  0  0  0  0  0  0  0  0
   38.9999   28.4987   36.2784 H   0  0  0  0  0  0  0  0  0  0  0  0
   38.5553   26.4521   37.7162 H   0  0  0  0  0  0  0  0  0  0  0  0
   37.5058   26.7556   39.8756 H   0  0  0  0  0  0  0  0  0  0  0  0
  1  5  1  0
  1  8  1  0
  2  3  1  0
  2  1  1  0
  3  4  1  0
  4  5  1  0
  5 12  1  0
  7  6  2  0
  8  7  1  0
  9  8  2  0
  9 10  1  0
 10 11  2  0
 11  6  1  0
 12 13  1  0
 14 12  1  0
 15 16  2  0
 15 14  1  0
 17 16  1  0
 18 17  2  0
 19 18  1  0
 19 24  2  0
 20 19  1  0
 21 20  2  0
 21 22  1  0
 22 23  2  0
 23 24  1  0
 24 15  1  0
  1 25  1  6
  2 26  1  0
  2 27  1  0
  3 28  1  0
  3 29  1  0
  4 30  1  0
  4 31  1  0
  5 32  1  1
  6 33  1  0
  7 34  1  0
 10 35  1  0
 12 36  1  6
 13 37  1  0
 13 38  1  0
 13 39  1  0
 14 40  1  0
 14 41  1  0
 16 42  1  0
 17 43  1  0
 18 44  1  0
 20 45  1  0
 21 46  1  0
 22 47  1  0
 23 48  1  0
M  ISO  8  25  13  26  13  27  13  28  13  29  13  30  13  31  13  32  13
M  ISO  8  33  14  34  14  35  14  36   8  37   8  38   8  39   8  40   8
M  ISO  8  41   8  42  14  43  14  44  14  45  14  46  14  47  14  48  14
M  END
>  <minimizedAffinity>  (1) 
-6.07739067

>  <minimizedRMSD>  (1) 
2.5236094

$$$$
