
     RDKit          3D

 46 49  0  0  1  0  0  0  0  0999 V2000
   37.3640   27.2800   42.7300 C   0  0  2  0  0  0  0  0  0  0  0  0
   39.2240   25.7760   41.9450 C   0  0  1  0  0  0  0  0  0  0  0  0
   39.1730   24.3860   41.2680 C   0  0  0  0  0  0  0  0  0  0  0  0
   37.7880   23.8760   41.5460 C   0  0  0  0  0  0  0  0  0  0  0  0
   37.0060   25.1740   41.6810 C   0  0  0  0  0  0  0  0  0  0  0  0
   37.9290   25.9160   42.6320 C   0  0  2  0  0  0  0  0  0  0  0  0
   41.6810   26.8770   44.5960 C   0  0  0  0  0  0  0  0  0  0  0  0
   40.4810   26.8100   43.8780 C   0  0  0  0  0  0  0  0  0  0  0  0
   40.4100   25.9330   42.7740 C   0  0  0  0  0  0  0  0  0  0  0  0
   41.4960   25.1800   42.4350 N   0  0  0  0  0  0  0  0  0  0  0  0
   42.6400   25.2750   43.1590 C   0  0  0  0  0  0  0  0  0  0  0  0
   42.7320   26.1150   44.2270 N   0  0  0  0  0  0  0  0  0  0  0  0
   36.2810   27.4680   43.7370 C   0  0  0  0  0  0  0  0  0  0  0  0
   36.7850   27.5910   41.3660 C   0  0  0  0  0  0  0  0  0  0  0  0
   37.4670   28.8410   40.9960 N   0  0  0  0  0  0  0  0  0  0  0  0
   37.7890   29.8310   41.8460 C   0  0  0  0  0  0  0  0  0  0  0  0
   38.4040   30.8320   41.1850 N   0  0  0  0  0  0  0  0  0  0  0  0
   38.4840   30.4940   39.8870 C   0  0  0  0  0  0  0  0  0  0  0  0
   38.9970   31.1060   38.7560 C   0  0  0  0  0  0  0  0  0  0  0  0
   39.5230   32.2290   38.8790 O   0  0  0  0  0  0  0  0  0  0  0  0
   38.9370   30.5140   37.5460 N   0  0  0  0  0  0  0  0  0  0  0  0
   38.3490   29.2960   37.5070 C   0  0  0  0  0  0  0  0  0  0  0  0
   38.2740   28.6520   36.2410 N   0  0  0  0  0  0  0  0  0  0  0  0
   37.8340   28.6610   38.5820 N   0  0  0  0  0  0  0  0  0  0  0  0
   37.9030   29.2700   39.7960 C   0  0  0  0  0  0  0  0  0  0  0  0
   38.1793   27.9420   43.0570 H   0  0  0  0  0  0  0  0  0  0  0  0
   39.3402   26.6052   41.2316 H   0  0  0  0  0  0  0  0  0  0  0  0
   39.9280   23.7148   41.7033 H   0  0  0  0  0  0  0  0  0  0  0  0
   39.3876   24.4402   40.1905 H   0  0  0  0  0  0  0  0  0  0  0  0
   37.4106   23.2647   40.7130 H   0  0  0  0  0  0  0  0  0  0  0  0
   37.7209   23.2193   42.4259 H   0  0  0  0  0  0  0  0  0  0  0  0
   36.9030   25.6946   40.7175 H   0  0  0  0  0  0  0  0  0  0  0  0
   35.9664   25.0642   42.0233 H   0  0  0  0  0  0  0  0  0  0  0  0
   38.0405   25.5735   43.6713 H   0  0  0  0  0  0  0  0  0  0  0  0
   41.7672   27.5509   45.4611 H   0  0  0  0  0  0  0  0  0  0  0  0
   39.6158   27.4249   44.1666 H   0  0  0  0  0  0  0  0  0  0  0  0
   43.5091   24.6621   42.8779 H   0  0  0  0  0  0  0  0  0  0  0  0
   36.7049   27.3944   44.7494 H   0  0  0  0  0  0  0  0  0  0  0  0
   35.8231   28.4591   43.6023 H   0  0  0  0  0  0  0  0  0  0  0  0
   35.5159   26.6892   43.6023 H   0  0  0  0  0  0  0  0  0  0  0  0
   37.0115   26.7892   40.6478 H   0  0  0  0  0  0  0  0  0  0  0  0
   35.6886   27.6793   41.3696 H   0  0  0  0  0  0  0  0  0  0  0  0
   37.5806   29.8253   42.9261 H   0  0  0  0  0  0  0  0  0  0  0  0
   39.3168   30.9630   36.7004 H   0  0  0  0  0  0  0  0  0  0  0  0
   37.8354   27.7235   36.1607 H   0  0  0  0  0  0  0  0  0  0  0  0
   38.6583   29.1141   35.4046 H   0  0  0  0  0  0  0  0  0  0  0  0
  1 13  1  0
  2  6  1  0
  2  9  1  0
  3  4  1  0
  3  2  1  0
  4  5  1  0
  5  6  1  0
  6  1  1  0
  8  7  2  0
  9  8  1  0
 10  9  2  0
 10 11  1  0
 11 12  2  0
 12  7  1  0
 14  1  1  0
 15 14  1  0
 15 16  1  0
 17 16  2  0
 18 17  1  0
 19 20  2  0
 19 18  1  0
 21 19  1  0
 22 21  1  0
 22 24  2  0
 23 22  1  0
 24 25  1  0
 25 18  2  0
 25 15  1  0
  1 26  1  1
  2 27  1  6
  3 28  1  0
  3 29  1  0
  4 30  1  0
  4 31  1  0
  5 32  1  0
  5 33  1  0
  6 34  1  1
  7 35  1  0
  8 36  1  0
 11 37  1  0
 13 38  1  0
 13 39  1  0
 13 40  1  0
 14 41  1  0
 14 42  1  0
 16 43  1  0
 21 44  1  0
 23 45  1  0
 23 46  1  0
M  ISO  8  26   8  27  13  28  13  29  13  30  13  31  13  32  13  33  13
M  ISO  8  34  13  35  14  36  14  37  14  38   8  39   8  40   8  41   8
M  ISO  3  42   8  43  14  44   9
M  END
>  <minimizedAffinity>  (1) 
-6.07504797

>  <minimizedRMSD>  (1) 
2.35336113

$$$$
