
     RDKit          3D

 39 42  0  0  1  0  0  0  0  0999 V2000
   36.9740   27.8020   43.1300 C   0  0  2  0  0  0  0  0  0  0  0  0
   38.4720   30.8080   41.7070 N   0  0  0  0  0  0  0  0  0  0  0  0
   39.5000   30.2450   42.3430 C   0  0  0  0  0  0  0  0  0  0  0  0
   39.1230   29.1060   42.9330 N   0  0  0  0  0  0  0  0  0  0  0  0
   37.7910   28.9410   42.6570 C   0  0  0  0  0  0  0  0  0  0  0  0
   37.4380   30.0020   41.9080 N   0  0  0  0  0  0  0  0  0  0  0  0
   37.1730   32.1000   39.9750 C   0  0  0  0  0  0  0  0  0  0  0  0
   38.2070   31.9800   40.9180 C   0  0  0  0  0  0  0  0  0  0  0  0
   39.0740   33.0990   41.1270 C   0  0  0  0  0  0  0  0  0  0  0  0
   38.8370   34.2010   40.3970 N   0  0  0  0  0  0  0  0  0  0  0  0
   37.8340   34.2670   39.5080 C   0  0  0  0  0  0  0  0  0  0  0  0
   37.0220   33.2340   39.3060 N   0  0  0  0  0  0  0  0  0  0  0  0
   36.7790   28.0390   44.6420 C   0  0  0  0  0  0  0  0  0  0  0  0
   37.6120   26.4790   42.9210 C   0  0  0  0  0  0  0  0  0  0  0  0
   37.1190   25.7640   41.7400 C   0  0  0  0  0  0  0  0  0  0  0  0
   36.9280   24.4000   41.7270 C   0  0  0  0  0  0  0  0  0  0  0  0
   36.4580   23.8670   40.5430 C   0  0  0  0  0  0  0  0  0  0  0  0
   36.2100   24.6930   39.4690 C   0  0  0  0  0  0  0  0  0  0  0  0
   36.4050   26.0580   39.4950 C   0  0  0  0  0  0  0  0  0  0  0  0
   36.8680   26.5550   40.6710 N   0  0  0  0  0  0  0  0  0  0  0  0
   36.1470   26.9330   38.3700 C   0  0  0  0  0  0  0  0  0  0  0  0
   36.6660   28.1830   38.4230 N   0  0  0  0  0  0  0  0  0  0  0  0
   36.3610   28.8430   37.3680 O   0  0  0  0  0  0  0  0  0  0  0  0
   35.6390   28.0340   36.6120 C   0  0  0  0  0  0  0  0  0  0  0  0
   35.4900   26.8240   37.2200 N   0  0  0  0  0  0  0  0  0  0  0  0
   36.0341   27.7671   42.5596 H   0  0  0  0  0  0  0  0  0  0  0  0
   40.5179   30.6605   42.3775 H   0  0  0  0  0  0  0  0  0  0  0  0
   36.4913   31.2562   39.7925 H   0  0  0  0  0  0  0  0  0  0  0  0
   39.8986   33.0583   41.8539 H   0  0  0  0  0  0  0  0  0  0  0  0
   37.6808   35.1936   38.9354 H   0  0  0  0  0  0  0  0  0  0  0  0
   37.3784   27.3105   45.2076 H   0  0  0  0  0  0  0  0  0  0  0  0
   37.1033   29.0584   44.8982 H   0  0  0  0  0  0  0  0  0  0  0  0
   35.7162   27.9171   44.8982 H   0  0  0  0  0  0  0  0  0  0  0  0
   38.6955   26.6307   42.8073 H   0  0  0  0  0  0  0  0  0  0  0  0
   37.3627   25.8614   43.7965 H   0  0  0  0  0  0  0  0  0  0  0  0
   37.1372   23.7733   42.6065 H   0  0  0  0  0  0  0  0  0  0  0  0
   36.2819   22.7845   40.4577 H   0  0  0  0  0  0  0  0  0  0  0  0
   35.8359   24.2390   38.5395 H   0  0  0  0  0  0  0  0  0  0  0  0
   35.2182   28.3000   35.6311 H   0  0  0  0  0  0  0  0  0  0  0  0
  1 13  1  0
  2  6  1  0
  2  3  1  0
  3  4  2  0
  5  4  1  0
  5  1  1  0
  6  5  2  0
  7  8  2  0
  8  9  1  0
  8  2  1  0
 10  9  2  0
 11 10  1  0
 12 11  2  0
 12  7  1  0
 14  1  1  0
 15 14  1  0
 16 15  2  0
 17 16  1  0
 18 19  1  0
 18 17  2  0
 19 20  2  0
 20 15  1  0
 21 22  2  0
 21 19  1  0
 23 22  1  0
 24 25  2  0
 24 23  1  0
 25 21  1  0
  1 26  1  6
  3 27  1  0
  7 28  1  0
  9 29  1  0
 11 30  1  0
 13 31  1  0
 13 32  1  0
 13 33  1  0
 14 34  1  0
 14 35  1  0
 16 36  1  0
 17 37  1  0
 18 38  1  0
 24 39  1  0
M  ISO  8  26   8  27  14  28  14  29  14  30  14  31   8  32   8  33   8
M  ISO  6  34   8  35   8  36  14  37  14  38  14  39  14
M  END
>  <minimizedAffinity>  (1) 
-5.80357742

>  <minimizedRMSD>  (1) 
0.242837802

$$$$
