
     RDKit          3D

 51 54  0  0  1  0  0  0  0  0999 V2000
   36.9330   27.8010   43.1770 C   0  0  2  0  0  0  0  0  0  0  0  0
   38.4610   30.7730   41.7420 N   0  0  0  0  0  0  0  0  0  0  0  0
   39.4780   30.2050   42.3730 C   0  0  0  0  0  0  0  0  0  0  0  0
   39.0870   29.0770   42.9690 N   0  0  0  0  0  0  0  0  0  0  0  0
   37.7540   28.9250   42.6970 C   0  0  0  0  0  0  0  0  0  0  0  0
   37.4150   29.9840   41.9460 N   0  0  0  0  0  0  0  0  0  0  0  0
   37.1750   32.0810   40.0070 C   0  0  0  0  0  0  0  0  0  0  0  0
   38.2030   31.9470   40.9410 C   0  0  0  0  0  0  0  0  0  0  0  0
   39.0980   33.0560   41.1500 C   0  0  0  0  0  0  0  0  0  0  0  0
   38.8820   34.1540   40.4240 N   0  0  0  0  0  0  0  0  0  0  0  0
   37.8740   34.2340   39.5320 C   0  0  0  0  0  0  0  0  0  0  0  0
   37.0480   33.2120   39.3400 N   0  0  0  0  0  0  0  0  0  0  0  0
   36.7940   28.0170   44.7090 C   0  0  0  0  0  0  0  0  0  0  0  0
   37.5110   26.4680   42.9450 C   0  0  0  0  0  0  0  0  0  0  0  0
   37.0620   25.8330   41.7040 C   0  0  0  0  0  0  0  0  0  0  0  0
   36.9090   24.4670   41.5840 C   0  0  0  0  0  0  0  0  0  0  0  0
   36.4790   24.0130   40.3600 C   0  0  0  0  0  0  0  0  0  0  0  0
   36.2310   24.9090   39.3530 C   0  0  0  0  0  0  0  0  0  0  0  0
   36.3850   26.2780   39.4750 C   0  0  0  0  0  0  0  0  0  0  0  0
   36.8110   26.6930   40.6950 N   0  0  0  0  0  0  0  0  0  0  0  0
   36.1250   27.2270   38.4140 C   0  0  0  0  0  0  0  0  0  0  0  0
   36.2240   28.5340   38.7170 N   0  0  0  0  0  0  0  0  0  0  0  0
   35.9710   29.2620   37.6980 O   0  0  0  0  0  0  0  0  0  0  0  0
   35.7000   28.4280   36.7100 C   0  0  0  0  0  0  0  0  0  0  0  0
   35.7900   27.1290   37.1340 N   0  0  0  0  0  0  0  0  0  0  0  0
   35.3410   28.7760   35.3070 C   0  0  0  0  0  0  0  0  0  0  0  0
   36.2890   29.8540   34.8640 C   0  0  0  0  0  0  0  0  0  0  0  0
   35.6010   27.5720   34.4220 C   0  0  0  0  0  0  0  0  0  0  0  0
   33.8980   29.1650   35.1490 C   0  0  0  0  0  0  0  0  0  0  0  0
   35.9830   27.8049   42.6225 H   0  0  0  0  0  0  0  0  0  0  0  0
   40.5015   30.6070   42.4016 H   0  0  0  0  0  0  0  0  0  0  0  0
   36.4763   31.2504   39.8284 H   0  0  0  0  0  0  0  0  0  0  0  0
   39.9227   33.0000   41.8758 H   0  0  0  0  0  0  0  0  0  0  0  0
   37.7337   35.1597   38.9546 H   0  0  0  0  0  0  0  0  0  0  0  0
   37.3147   27.2079   45.2421 H   0  0  0  0  0  0  0  0  0  0  0  0
   37.2397   28.9841   44.9849 H   0  0  0  0  0  0  0  0  0  0  0  0
   35.7292   28.0120   44.9849 H   0  0  0  0  0  0  0  0  0  0  0  0
   38.6058   26.5674   42.9065 H   0  0  0  0  0  0  0  0  0  0  0  0
   37.1734   25.8259   43.7719 H   0  0  0  0  0  0  0  0  0  0  0  0
   37.1188   23.7818   42.4186 H   0  0  0  0  0  0  0  0  0  0  0  0
   36.3346   22.9359   40.1895 H   0  0  0  0  0  0  0  0  0  0  0  0
   35.8874   24.5139   38.3856 H   0  0  0  0  0  0  0  0  0  0  0  0
   36.7223   30.3467   35.7469 H   0  0  0  0  0  0  0  0  0  0  0  0
   37.0938   29.4092   34.2604 H   0  0  0  0  0  0  0  0  0  0  0  0
   35.7450   30.5954   34.2604 H   0  0  0  0  0  0  0  0  0  0  0  0
   35.7916   26.6894   35.0503 H   0  0  0  0  0  0  0  0  0  0  0  0
   34.7221   27.3871   33.7869 H   0  0  0  0  0  0  0  0  0  0  0  0
   36.4779   27.7663   33.7869 H   0  0  0  0  0  0  0  0  0  0  0  0
   33.4407   29.2883   36.1418 H   0  0  0  0  0  0  0  0  0  0  0  0
   33.8323   30.1129   34.5948 H   0  0  0  0  0  0  0  0  0  0  0  0
   33.3648   28.3785   34.5948 H   0  0  0  0  0  0  0  0  0  0  0  0
  1 13  1  0
  2  6  1  0
  2  3  1  0
  3  4  2  0
  5  4  1  0
  5  1  1  0
  6  5  2  0
  7  8  2  0
  8  9  1  0
  8  2  1  0
 10  9  2  0
 11 10  1  0
 12 11  2  0
 12  7  1  0
 14  1  1  0
 15 14  1  0
 16 15  2  0
 17 16  1  0
 18 19  1  0
 18 17  2  0
 19 20  2  0
 20 15  1  0
 21 22  2  0
 21 19  1  0
 23 22  1  0
 24 25  2  0
 24 23  1  0
 25 21  1  0
 26 24  1  0
 27 26  1  0
 28 26  1  0
 29 26  1  0
  1 30  1  6
  3 31  1  0
  7 32  1  0
  9 33  1  0
 11 34  1  0
 13 35  1  0
 13 36  1  0
 13 37  1  0
 14 38  1  0
 14 39  1  0
 16 40  1  0
 17 41  1  0
 18 42  1  0
 27 43  1  0
 27 44  1  0
 27 45  1  0
 28 46  1  0
 28 47  1  0
 28 48  1  0
 29 49  1  0
 29 50  1  0
 29 51  1  0
M  ISO  8  30   8  31  14  32  14  33  14  34  14  35   8  36   8  37   8
M  ISO  8  38   8  39   8  40  14  41  14  42  14  43   8  44   8  45   8
M  ISO  6  46   8  47   8  48   8  49   8  50   8  51   8
M  END
>  <minimizedAffinity>  (1) 
-6.20744514

>  <minimizedRMSD>  (1) 
0.324720949

$$$$
