
     RDKit          3D

 41 44  0  0  1  0  0  0  0  0999 V2000
   36.9620   27.8060   43.1290 C   0  0  2  0  0  0  0  0  0  0  0  0
   38.4610   30.8030   41.7090 N   0  0  0  0  0  0  0  0  0  0  0  0
   39.4850   30.2430   42.3380 C   0  0  0  0  0  0  0  0  0  0  0  0
   39.1070   29.1070   42.9280 N   0  0  0  0  0  0  0  0  0  0  0  0
   37.7650   28.9430   42.6530 C   0  0  0  0  0  0  0  0  0  0  0  0
   37.4200   30.0000   41.9100 N   0  0  0  0  0  0  0  0  0  0  0  0
   37.1700   32.1010   39.9780 C   0  0  0  0  0  0  0  0  0  0  0  0
   38.1950   31.9740   40.9170 C   0  0  0  0  0  0  0  0  0  0  0  0
   39.0690   33.0970   41.1300 C   0  0  0  0  0  0  0  0  0  0  0  0
   38.8450   34.1970   40.4110 N   0  0  0  0  0  0  0  0  0  0  0  0
   37.8380   34.2650   39.5130 C   0  0  0  0  0  0  0  0  0  0  0  0
   37.0310   33.2360   39.3130 N   0  0  0  0  0  0  0  0  0  0  0  0
   36.7880   28.0370   44.6560 C   0  0  0  0  0  0  0  0  0  0  0  0
   37.5760   26.4840   42.9220 C   0  0  0  0  0  0  0  0  0  0  0  0
   37.0990   25.7810   41.7370 C   0  0  0  0  0  0  0  0  0  0  0  0
   36.9080   24.4170   41.7160 C   0  0  0  0  0  0  0  0  0  0  0  0
   36.4530   23.8940   40.5220 C   0  0  0  0  0  0  0  0  0  0  0  0
   36.2190   24.7230   39.4490 C   0  0  0  0  0  0  0  0  0  0  0  0
   36.4150   26.0920   39.4860 C   0  0  0  0  0  0  0  0  0  0  0  0
   36.8640   26.5800   40.6720 N   0  0  0  0  0  0  0  0  0  0  0  0
   36.1720   26.9800   38.3640 C   0  0  0  0  0  0  0  0  0  0  0  0
   36.6800   28.2260   38.4440 N   0  0  0  0  0  0  0  0  0  0  0  0
   36.3890   28.8920   37.3890 O   0  0  0  0  0  0  0  0  0  0  0  0
   35.6880   28.0920   36.6100 C   0  0  0  0  0  0  0  0  0  0  0  0
   35.5400   26.8840   37.2030 N   0  0  0  0  0  0  0  0  0  0  0  0
   35.1680   28.4480   35.3350 N   0  0  0  0  0  0  0  0  0  0  0  0
   36.0228   27.7800   42.5569 H   0  0  0  0  0  0  0  0  0  0  0  0
   40.5037   30.6568   42.3693 H   0  0  0  0  0  0  0  0  0  0  0  0
   36.4824   31.2627   39.7923 H   0  0  0  0  0  0  0  0  0  0  0  0
   39.8914   33.0496   41.8590 H   0  0  0  0  0  0  0  0  0  0  0  0
   37.6866   35.1910   38.9388 H   0  0  0  0  0  0  0  0  0  0  0  0
   37.3600   27.2776   45.2092 H   0  0  0  0  0  0  0  0  0  0  0  0
   37.1578   29.0388   44.9198 H   0  0  0  0  0  0  0  0  0  0  0  0
   35.7230   27.9581   44.9198 H   0  0  0  0  0  0  0  0  0  0  0  0
   38.6635   26.6199   42.8278 H   0  0  0  0  0  0  0  0  0  0  0  0
   37.2964   25.8671   43.7887 H   0  0  0  0  0  0  0  0  0  0  0  0
   37.1054   23.7849   42.5943 H   0  0  0  0  0  0  0  0  0  0  0  0
   36.2772   22.8122   40.4283 H   0  0  0  0  0  0  0  0  0  0  0  0
   35.8570   24.2736   38.5125 H   0  0  0  0  0  0  0  0  0  0  0  0
   35.3288   29.3933   34.9589 H   0  0  0  0  0  0  0  0  0  0  0  0
   34.6306   27.7605   34.7878 H   0  0  0  0  0  0  0  0  0  0  0  0
  1 13  1  0
  2  6  1  0
  2  3  1  0
  3  4  2  0
  5  4  1  0
  5  1  1  0
  6  5  2  0
  7  8  2  0
  8  9  1  0
  8  2  1  0
 10  9  2  0
 11 10  1  0
 12 11  2  0
 12  7  1  0
 14  1  1  0
 15 14  1  0
 16 15  2  0
 17 16  1  0
 18 19  1  0
 18 17  2  0
 19 20  2  0
 20 15  1  0
 21 22  2  0
 21 19  1  0
 23 22  1  0
 24 25  2  0
 24 23  1  0
 25 21  1  0
 26 24  1  0
  1 27  1  6
  3 28  1  0
  7 29  1  0
  9 30  1  0
 11 31  1  0
 13 32  1  0
 13 33  1  0
 13 34  1  0
 14 35  1  0
 14 36  1  0
 16 37  1  0
 17 38  1  0
 18 39  1  0
 26 40  1  0
 26 41  1  0
M  ISO  8  27   8  28  14  29  14  30  14  31  14  32   8  33   8  34   8
M  ISO  5  35   8  36   8  37  14  38  14  39  14
M  END
>  <minimizedAffinity>  (1) 
-5.92009401

>  <minimizedRMSD>  (1) 
0.0396000072

$$$$
