
     RDKit          3D

 26 28  0  0  0  0  0  0  0  0999 V2000
   37.7240   27.9150   43.7160 C   0  0  0  0  0  0  0  0  0  0  0  0
   38.1150   26.8010   42.9390 C   0  0  0  0  0  0  0  0  0  0  0  0
   38.3330   27.0290   41.5530 C   0  0  0  0  0  0  0  0  0  0  0  0
   38.1550   28.2810   41.0770 N   0  0  0  0  0  0  0  0  0  0  0  0
   37.7830   29.3150   41.8530 C   0  0  0  0  0  0  0  0  0  0  0  0
   37.5720   29.1160   43.1630 N   0  0  0  0  0  0  0  0  0  0  0  0
   38.7240   26.0280   40.6450 N   0  0  0  0  0  0  0  0  0  0  0  0
   37.6130   30.6370   41.2580 C   0  0  0  0  0  0  0  0  0  0  0  0
   36.4060   31.1790   40.8640 C   0  0  0  0  0  0  0  0  0  0  0  0
   36.6700   32.3980   40.3720 N   0  0  0  0  0  0  0  0  0  0  0  0
   38.0060   32.6600   40.4350 C   0  0  0  0  0  0  0  0  0  0  0  0
   38.7940   33.7420   40.0710 C   0  0  0  0  0  0  0  0  0  0  0  0
   40.1710   33.6910   40.2770 C   0  0  0  0  0  0  0  0  0  0  0  0
   40.7960   32.5960   40.8320 C   0  0  0  0  0  0  0  0  0  0  0  0
   39.9840   31.5340   41.1840 C   0  0  0  0  0  0  0  0  0  0  0  0
   38.6130   31.5500   40.9950 C   0  0  0  0  0  0  0  0  0  0  0  0
   37.5427   27.7875   44.7934 H   0  0  0  0  0  0  0  0  0  0  0  0
   38.2445   25.8043   43.3859 H   0  0  0  0  0  0  0  0  0  0  0  0
   38.8653   26.2605   39.6516 H   0  0  0  0  0  0  0  0  0  0  0  0
   38.8689   25.0627   40.9737 H   0  0  0  0  0  0  0  0  0  0  0  0
   35.4175   30.7023   40.9393 H   0  0  0  0  0  0  0  0  0  0  0  0
   35.9619   33.0461   39.9985 H   0  0  0  0  0  0  0  0  0  0  0  0
   38.3344   34.6350   39.6224 H   0  0  0  0  0  0  0  0  0  0  0  0
   40.7822   34.5579   39.9854 H   0  0  0  0  0  0  0  0  0  0  0  0
   41.8847   32.5681   40.9870 H   0  0  0  0  0  0  0  0  0  0  0  0
   40.4455   30.6415   41.6317 H   0  0  0  0  0  0  0  0  0  0  0  0
  2  1  2  0
  3  2  1  0
  4  3  2  0
  4  5  1  0
  5  6  2  0
  6  1  1  0
  7  3  1  0
  8  5  1  0
  9  8  2  0
 10 11  1  0
 10  9  1  0
 11 16  2  0
 12 13  2  0
 12 11  1  0
 13 14  1  0
 14 15  2  0
 16 15  1  0
 16  8  1  0
  1 17  1  0
  2 18  1  0
  7 19  1  0
  7 20  1  0
  9 21  1  0
 10 22  1  0
 12 23  1  0
 13 24  1  0
 14 25  1  0
 15 26  1  0
M  ISO  8  17  14  18  14  21  14  22   9  23  14  24  14  25  14  26  14
M  END
>  <minimizedAffinity>  (1) 
-5.0896349

>  <minimizedRMSD>  (1) 
4.52892208

$$$$
