
     RDKit          3D

 19 19  0  0  0  0  0  0  0  0999 V2000
   37.5310   28.4030   43.6380 C   0  0  0  0  0  0  0  0  0  0  0  0
   38.0700   27.1550   43.2460 C   0  0  0  0  0  0  0  0  0  0  0  0
   38.5180   27.0420   41.9050 C   0  0  0  0  0  0  0  0  0  0  0  0
   38.3970   28.1270   41.1140 N   0  0  0  0  0  0  0  0  0  0  0  0
   37.8820   29.2930   41.5160 C   0  0  0  0  0  0  0  0  0  0  0  0
   37.4520   29.4250   42.7770 N   0  0  0  0  0  0  0  0  0  0  0  0
   39.0760   25.8800   41.3550 N   0  0  0  0  0  0  0  0  0  0  0  0
   37.7890   30.3980   40.6080 N   0  0  0  0  0  0  0  0  0  0  0  0
   36.7300   31.3450   40.7790 C   0  0  0  0  0  0  0  0  0  0  0  0
   35.6530   30.8840   41.3290 N   0  0  0  0  0  0  0  0  0  0  0  0
   36.9450   32.6930   40.3410 N   0  0  0  0  0  0  0  0  0  0  0  0
   34.8110   31.4790   41.5080 H   0  0  0  0  0  0  0  0  0  0  0  0
   37.1704   28.5359   44.6687 H   0  0  0  0  0  0  0  0  0  0  0  0
   38.1385   26.3114   43.9487 H   0  0  0  0  0  0  0  0  0  0  0  0
   39.3801   25.8707   40.3709 H   0  0  0  0  0  0  0  0  0  0  0  0
   39.1820   25.0353   41.9348 H   0  0  0  0  0  0  0  0  0  0  0  0
   38.4726   30.5085   39.8456 H   0  0  0  0  0  0  0  0  0  0  0  0
   36.2000   33.3955   40.4518 H   0  0  0  0  0  0  0  0  0  0  0  0
   37.8445   32.9590   39.9155 H   0  0  0  0  0  0  0  0  0  0  0  0
  2  1  2  0
  3  2  1  0
  4  5  1  0
  4  3  2  0
  5  6  2  0
  6  1  1  0
  7  3  1  0
  8  9  1  0
  8  5  1  0
  9 10  2  0
 10 12  1  0
 11  9  1  0
  1 13  1  0
  2 14  1  0
  7 15  1  0
  7 16  1  0
  8 17  1  0
 11 18  1  0
 11 19  1  0
M  ISO  2  13  14  14  14
M  END
>  <minimizedAffinity>  (1) 
-4.72661972

>  <minimizedRMSD>  (1) 
1.42471528

$$$$
