
     RDKit          3D

 22 23  0  0  0  0  0  0  0  0999 V2000
   37.3960   28.6310   43.6560 C   0  0  0  0  0  0  0  0  0  0  0  0
   37.2800   27.2250   43.6140 C   0  0  0  0  0  0  0  0  0  0  0  0
   37.2110   26.6220   42.3410 C   0  0  0  0  0  0  0  0  0  0  0  0
   37.2620   27.4250   41.2640 N   0  0  0  0  0  0  0  0  0  0  0  0
   37.3730   28.7600   41.3240 C   0  0  0  0  0  0  0  0  0  0  0  0
   37.4400   29.3500   42.5330 N   0  0  0  0  0  0  0  0  0  0  0  0
   37.0940   25.2410   42.1090 N   0  0  0  0  0  0  0  0  0  0  0  0
   37.4210   29.5480   40.1380 N   0  0  0  0  0  0  0  0  0  0  0  0
   38.0230   29.1070   39.0170 C   0  0  0  0  0  0  0  0  0  0  0  0
   38.0860   29.8470   37.8520 C   0  0  0  0  0  0  0  0  0  0  0  0
   37.4910   31.1140   37.8440 C   0  0  0  0  0  0  0  0  0  0  0  0
   37.5970   31.7140   36.7430 O   0  0  0  0  0  0  0  0  0  0  0  0
   36.8900   31.5450   38.9720 N   0  0  0  0  0  0  0  0  0  0  0  0
   36.8680   30.7720   40.0720 C   0  0  0  0  0  0  0  0  0  0  0  0
   36.2790   31.2680   41.0840 O   0  0  0  0  0  0  0  0  0  0  0  0
   37.4509   29.1415   44.6288 H   0  0  0  0  0  0  0  0  0  0  0  0
   37.2449   26.6249   44.5352 H   0  0  0  0  0  0  0  0  0  0  0  0
   37.0498   24.8828   41.1443 H   0  0  0  0  0  0  0  0  0  0  0  0
   37.0524   24.5870   42.9036 H   0  0  0  0  0  0  0  0  0  0  0  0
   38.4869   28.1097   39.0295 H   0  0  0  0  0  0  0  0  0  0  0  0
   38.5890   29.4521   36.9570 H   0  0  0  0  0  0  0  0  0  0  0  0
   36.4445   32.4735   38.9909 H   0  0  0  0  0  0  0  0  0  0  0  0
  2  1  2  0
  3  2  1  0
  4  5  1  0
  4  3  2  0
  5  6  2  0
  6  1  1  0
  7  3  1  0
  8  5  1  0
  9  8  1  0
 10  9  2  0
 11 10  1  0
 11 13  1  0
 12 11  2  0
 13 14  1  0
 14  8  1  0
 14 15  2  0
  1 16  1  0
  2 17  1  0
  7 18  1  0
  7 19  1  0
  9 20  1  0
 10 21  1  0
 13 22  1  0
M  ISO  5  16  14  17  14  20  14  21  14  22   9
M  END
>  <minimizedAffinity>  (1) 
-4.5066762

>  <minimizedRMSD>  (1) 
1.8146795

$$$$
