
     RDKit          3D

 39 41  0  0  1  0  0  0  0  0999 V2000
   39.1580   26.0230   42.2460 C   0  0  1  0  0  0  0  0  0  0  0  0
   38.9610   24.6240   41.6170 C   0  0  0  0  0  0  0  0  0  0  0  0
   37.5910   24.1960   42.0000 C   0  0  0  0  0  0  0  0  0  0  0  0
   36.8930   25.5360   42.2210 C   0  0  0  0  0  0  0  0  0  0  0  0
   37.9460   26.2340   43.0590 C   0  0  2  0  0  0  0  0  0  0  0  0
   41.9160   26.9640   44.6520 C   0  0  0  0  0  0  0  0  0  0  0  0
   40.6500   26.9970   44.0520 C   0  0  0  0  0  0  0  0  0  0  0  0
   40.4230   26.1060   42.9710 C   0  0  0  0  0  0  0  0  0  0  0  0
   41.4250   25.2720   42.5710 N   0  0  0  0  0  0  0  0  0  0  0  0
   42.6210   25.2730   43.1730 C   0  0  0  0  0  0  0  0  0  0  0  0
   42.8730   26.1140   44.2110 N   0  0  0  0  0  0  0  0  0  0  0  0
   37.4630   27.6340   43.1910 C   0  0  2  0  0  0  0  0  0  0  0  0
   36.8510   27.9990   44.4950 C   0  0  0  0  0  0  0  0  0  0  0  0
   36.4220   27.8240   42.0990 C   0  0  0  0  0  0  0  0  0  0  0  0
   36.7080   29.2180   41.6090 C   0  0  0  0  0  0  0  0  0  0  0  0
   37.9340   29.8490   41.4280 C   0  0  0  0  0  0  0  0  0  0  0  0
   37.7230   31.0960   40.9730 N   0  0  0  0  0  0  0  0  0  0  0  0
   36.4060   31.2890   40.8530 C   0  0  0  0  0  0  0  0  0  0  0  0
   35.8170   30.1520   41.2390 N   0  0  0  0  0  0  0  0  0  0  0  0
   39.2536   26.8336   41.5086 H   0  0  0  0  0  0  0  0  0  0  0  0
   39.7069   23.9184   42.0116 H   0  0  0  0  0  0  0  0  0  0  0  0
   39.0857   24.6507   40.5244 H   0  0  0  0  0  0  0  0  0  0  0  0
   37.1106   23.6229   41.1933 H   0  0  0  0  0  0  0  0  0  0  0  0
   37.5616   23.5298   42.8748 H   0  0  0  0  0  0  0  0  0  0  0  0
   36.7076   26.0629   41.2734 H   0  0  0  0  0  0  0  0  0  0  0  0
   35.8957   25.4732   42.6809 H   0  0  0  0  0  0  0  0  0  0  0  0
   38.1457   25.8923   44.0853 H   0  0  0  0  0  0  0  0  0  0  0  0
   42.1352   27.6382   45.4931 H   0  0  0  0  0  0  0  0  0  0  0  0
   39.8661   27.6838   44.4037 H   0  0  0  0  0  0  0  0  0  0  0  0
   43.4070   24.5869   42.8244 H   0  0  0  0  0  0  0  0  0  0  0  0
   38.3448   28.2866   43.1103 H   0  0  0  0  0  0  0  0  0  0  0  0
   37.4816   27.6229   45.3141 H   0  0  0  0  0  0  0  0  0  0  0  0
   36.7692   29.0935   44.5681 H   0  0  0  0  0  0  0  0  0  0  0  0
   35.8491   27.5508   44.5681 H   0  0  0  0  0  0  0  0  0  0  0  0
   36.5523   27.0859   41.2939 H   0  0  0  0  0  0  0  0  0  0  0  0
   35.3890   27.6885   42.4520 H   0  0  0  0  0  0  0  0  0  0  0  0
   38.9184   29.3997   41.6255 H   0  0  0  0  0  0  0  0  0  0  0  0
   35.9045   32.2041   40.5048 H   0  0  0  0  0  0  0  0  0  0  0  0
   34.7970   30.0092   41.2511 H   0  0  0  0  0  0  0  0  0  0  0  0
  1  8  1  0
  1  5  1  0
  2  3  1  0
  2  1  1  0
  3  4  1  0
  4  5  1  0
  5 12  1  0
  7  6  2  0
  8  7  1  0
  9  8  2  0
  9 10  1  0
 10 11  2  0
 11  6  1  0
 12 13  1  0
 14 12  1  0
 15 14  1  0
 16 15  2  0
 17 16  1  0
 18 17  2  0
 18 19  1  0
 19 15  1  0
  1 20  1  6
  2 21  1  0
  2 22  1  0
  3 23  1  0
  3 24  1  0
  4 25  1  0
  4 26  1  0
  5 27  1  1
  6 28  1  0
  7 29  1  0
 10 30  1  0
 12 31  1  6
 13 32  1  0
 13 33  1  0
 13 34  1  0
 14 35  1  0
 14 36  1  0
 16 37  1  0
 18 38  1  0
 19 39  1  0
M  ISO  8  20  13  21  13  22  13  23  13  24  13  25  13  26  13  27  13
M  ISO  8  28  14  29  14  30  14  31   8  32   8  33   8  34   8  35   8
M  ISO  4  36   8  37  14  38  14  39   9
M  END
>  <minimizedAffinity>  (1) 
-5.63277674

>  <minimizedRMSD>  (1) 
0.930585682

$$$$
