
     RDKit          3D

 28 29  0  0  0  0  0  0  0  0999 V2000
   40.0530   27.3920   43.5610 C   0  0  0  0  0  0  0  0  0  0  0  0
   40.3420   26.0140   43.7130 C   0  0  0  0  0  0  0  0  0  0  0  0
   39.4560   25.0890   43.1400 C   0  0  0  0  0  0  0  0  0  0  0  0
   38.3730   25.5730   42.4740 N   0  0  0  0  0  0  0  0  0  0  0  0
   38.1150   26.8950   42.3410 C   0  0  0  0  0  0  0  0  0  0  0  0
   38.9540   27.7870   42.8840 N   0  0  0  0  0  0  0  0  0  0  0  0
   39.6000   23.6900   43.2010 N   0  0  0  0  0  0  0  0  0  0  0  0
   36.8830   27.2960   41.5810 C   0  0  0  0  0  0  0  0  0  0  0  0
   36.8280   28.8010   41.4030 C   0  0  0  0  0  0  0  0  0  0  0  0
   35.4550   29.0330   40.7860 C   0  0  0  0  0  0  0  0  0  0  0  0
   35.5920   28.6330   39.3400 C   0  0  0  0  0  0  0  0  0  0  0  0
   36.4310   27.4300   39.1040 C   0  0  0  0  0  0  0  0  0  0  0  0
   36.7550   26.5920   40.2860 C   0  0  0  0  0  0  0  0  0  0  0  0
   40.7273   28.1440   43.9967 H   0  0  0  0  0  0  0  0  0  0  0  0
   41.2336   25.6791   44.2633 H   0  0  0  0  0  0  0  0  0  0  0  0
   38.9018   23.0803   42.7519 H   0  0  0  0  0  0  0  0  0  0  0  0
   40.4036   23.2760   43.6947 H   0  0  0  0  0  0  0  0  0  0  0  0
   36.0174   26.9862   42.1850 H   0  0  0  0  0  0  0  0  0  0  0  0
   36.9165   29.3155   42.3712 H   0  0  0  0  0  0  0  0  0  0  0  0
   37.6490   29.1906   40.7832 H   0  0  0  0  0  0  0  0  0  0  0  0
   34.6982   28.4115   41.2870 H   0  0  0  0  0  0  0  0  0  0  0  0
   35.1311   30.0789   40.8916 H   0  0  0  0  0  0  0  0  0  0  0  0
   34.5858   28.4318   38.9437 H   0  0  0  0  0  0  0  0  0  0  0  0
   36.0983   29.4682   38.8340 H   0  0  0  0  0  0  0  0  0  0  0  0
   35.9014   26.7928   38.3805 H   0  0  0  0  0  0  0  0  0  0  0  0
   37.3989   27.8204   38.7565 H   0  0  0  0  0  0  0  0  0  0  0  0
   35.9581   25.8411   40.3915 H   0  0  0  0  0  0  0  0  0  0  0  0
   37.7524   26.1754   40.0821 H   0  0  0  0  0  0  0  0  0  0  0  0
  1  2  2  0
  3  7  1  0
  3  2  1  0
  4  3  2  0
  5  4  1  0
  5  6  2  0
  6  1  1  0
  8  5  1  0
  9  8  1  0
 10  9  1  0
 11 10  1  0
 12 11  1  0
 12 13  1  0
 13  8  1  0
  1 14  1  0
  2 15  1  0
  7 16  1  0
  7 17  1  0
  8 18  1  0
  9 19  1  0
  9 20  1  0
 10 21  1  0
 10 22  1  0
 11 23  1  0
 11 24  1  0
 12 25  1  0
 12 26  1  0
 13 27  1  0
 13 28  1  0
M  ISO  8  14  14  15  14  18  13  19  13  20  13  21  13  22  13  23  13
M  ISO  5  24  13  25  13  26  13  27  13  28  13
M  END
>  <minimizedAffinity>  (1) 
-4.39446497

>  <minimizedRMSD>  (1) 
3.11392856

$$$$
