
     RDKit          3D

 20 21  0  0  0  0  0  0  0  0999 V2000
   40.0620   26.5880   43.8990 C   0  0  0  0  0  0  0  0  0  0  0  0
   39.8900   25.2390   43.5330 C   0  0  0  0  0  0  0  0  0  0  0  0
   38.8840   24.9440   42.5990 C   0  0  0  0  0  0  0  0  0  0  0  0
   38.1400   25.9770   42.1070 N   0  0  0  0  0  0  0  0  0  0  0  0
   38.3320   27.2480   42.4780 C   0  0  0  0  0  0  0  0  0  0  0  0
   39.2850   27.5550   43.3670 N   0  0  0  0  0  0  0  0  0  0  0  0
   38.5860   23.6530   42.1300 N   0  0  0  0  0  0  0  0  0  0  0  0
   37.4790   28.2770   41.8880 C   0  0  0  0  0  0  0  0  0  0  0  0
   36.2720   27.9890   41.2900 C   0  0  0  0  0  0  0  0  0  0  0  0
   35.4770   28.9880   40.7350 C   0  0  0  0  0  0  0  0  0  0  0  0
   35.9650   30.2500   40.8220 N   0  0  0  0  0  0  0  0  0  0  0  0
   37.1270   30.5580   41.3950 C   0  0  0  0  0  0  0  0  0  0  0  0
   37.8860   29.5600   41.9300 N   0  0  0  0  0  0  0  0  0  0  0  0
   40.8402   26.8573   44.6284 H   0  0  0  0  0  0  0  0  0  0  0  0
   40.5201   24.4463   43.9627 H   0  0  0  0  0  0  0  0  0  0  0  0
   37.8311   23.5163   41.4427 H   0  0  0  0  0  0  0  0  0  0  0  0
   39.1225   22.8437   42.4736 H   0  0  0  0  0  0  0  0  0  0  0  0
   35.9281   26.9449   41.2500 H   0  0  0  0  0  0  0  0  0  0  0  0
   34.5121   28.7671   40.2553 H   0  0  0  0  0  0  0  0  0  0  0  0
   37.4694   31.6026   41.4360 H   0  0  0  0  0  0  0  0  0  0  0  0
  2  1  2  0
  3  2  1  0
  4  5  1  0
  4  3  2  0
  5  6  2  0
  6  1  1  0
  7  3  1  0
  8 13  1  0
  8  5  1  0
  9  8  2  0
 10 11  2  0
 10  9  1  0
 11 12  1  0
 12 13  2  0
  1 14  1  0
  2 15  1  0
  7 16  1  0
  7 17  1  0
  9 18  1  0
 10 19  1  0
 12 20  1  0
M  ISO  5  14  14  15  14  18  14  19  14  20  14
M  END
>  <minimizedAffinity>  (1) 
-4.20198059

>  <minimizedRMSD>  (1) 
2.75152683

$$$$
