
     RDKit          3D

 19 20  0  0  0  0  0  0  0  0999 V2000
   41.0370   27.2210   43.8150 C   0  0  0  0  0  0  0  0  0  0  0  0
   40.9580   25.8100   43.8500 C   0  0  0  0  0  0  0  0  0  0  0  0
   39.8240   25.2010   43.2890 C   0  0  0  0  0  0  0  0  0  0  0  0
   38.8830   26.0020   42.7540 N   0  0  0  0  0  0  0  0  0  0  0  0
   38.9740   27.3470   42.7310 C   0  0  0  0  0  0  0  0  0  0  0  0
   40.0540   27.9350   43.2640 N   0  0  0  0  0  0  0  0  0  0  0  0
   39.6080   23.8110   43.2510 N   0  0  0  0  0  0  0  0  0  0  0  0
   37.9120   28.1210   42.1340 C   0  0  0  0  0  0  0  0  0  0  0  0
   36.6880   27.7380   41.6550 C   0  0  0  0  0  0  0  0  0  0  0  0
   35.8600   28.6830   41.1330 C   0  0  0  0  0  0  0  0  0  0  0  0
   36.2740   29.9980   41.1000 C   0  0  0  0  0  0  0  0  0  0  0  0
   37.9540   29.9360   41.8540 S   0  0  0  0  0  0  0  0  0  0  0  0
   41.9119   27.7319   44.2435 H   0  0  0  0  0  0  0  0  0  0  0  0
   41.7598   25.2080   44.3025 H   0  0  0  0  0  0  0  0  0  0  0  0
   38.7505   23.4346   42.8222 H   0  0  0  0  0  0  0  0  0  0  0  0
   40.3074   23.1700   43.6520 H   0  0  0  0  0  0  0  0  0  0  0  0
   36.3789   26.6830   41.6916 H   0  0  0  0  0  0  0  0  0  0  0  0
   34.8713   28.4012   40.7416 H   0  0  0  0  0  0  0  0  0  0  0  0
   35.7312   30.8741   40.7156 H   0  0  0  0  0  0  0  0  0  0  0  0
  1  2  2  0
  3  2  1  0
  4  3  2  0
  5  4  1  0
  5  6  2  0
  6  1  1  0
  7  3  1  0
  8  5  1  0
  9  8  2  0
 10  9  1  0
 11 10  2  0
 11 12  1  0
 12  8  1  0
  1 13  1  0
  2 14  1  0
  7 15  1  0
  7 16  1  0
  9 17  1  0
 10 18  1  0
 11 19  1  0
M  ISO  5  13  14  14  14  17  14  18  14  19  14
M  END
>  <minimizedAffinity>  (1) 
-4.03840637

>  <minimizedRMSD>  (1) 
3.23562884

$$$$
