
     RDKit          3D

 24 25  0  0  0  0  0  0  0  0999 V2000
   40.1130   27.0650   43.6710 C   0  0  0  0  0  0  0  0  0  0  0  0
   39.9070   25.6710   43.5910 C   0  0  0  0  0  0  0  0  0  0  0  0
   38.9000   25.1980   42.7320 C   0  0  0  0  0  0  0  0  0  0  0  0
   38.1850   26.1260   42.0330 N   0  0  0  0  0  0  0  0  0  0  0  0
   38.4070   27.4430   42.1340 C   0  0  0  0  0  0  0  0  0  0  0  0
   39.3640   27.9090   42.9470 N   0  0  0  0  0  0  0  0  0  0  0  0
   38.5680   23.8480   42.5370 N   0  0  0  0  0  0  0  0  0  0  0  0
   37.6140   28.3440   41.3660 N   0  0  0  0  0  0  0  0  0  0  0  0
   36.3680   28.0190   40.6940 C   0  0  0  0  0  0  0  0  0  0  0  0
   35.6140   29.3460   40.5750 C   0  0  0  0  0  0  0  0  0  0  0  0
   36.4650   30.3070   41.4150 C   0  0  0  0  0  0  0  0  0  0  0  0
   37.8520   29.7400   41.0860 C   0  0  0  0  0  0  0  0  0  0  0  0
   40.8956   27.4628   44.3338 H   0  0  0  0  0  0  0  0  0  0  0  0
   40.5174   24.9743   44.1843 H   0  0  0  0  0  0  0  0  0  0  0  0
   37.8125   23.5924   41.8852 H   0  0  0  0  0  0  0  0  0  0  0  0
   39.0799   23.1131   43.0457 H   0  0  0  0  0  0  0  0  0  0  0  0
   36.5664   27.5980   39.6973 H   0  0  0  0  0  0  0  0  0  0  0  0
   35.7879   27.2664   41.2481 H   0  0  0  0  0  0  0  0  0  0  0  0
   35.5617   29.6778   39.5275 H   0  0  0  0  0  0  0  0  0  0  0  0
   34.5703   29.2821   40.9164 H   0  0  0  0  0  0  0  0  0  0  0  0
   36.3564   31.3509   41.0857 H   0  0  0  0  0  0  0  0  0  0  0  0
   36.2124   30.3544   42.4846 H   0  0  0  0  0  0  0  0  0  0  0  0
   38.6321   30.1615   41.7370 H   0  0  0  0  0  0  0  0  0  0  0  0
   38.2170   29.9574   40.0713 H   0  0  0  0  0  0  0  0  0  0  0  0
  2  1  2  0
  3  2  1  0
  4  5  1  0
  4  3  2  0
  5  6  2  0
  6  1  1  0
  7  3  1  0
  8  5  1  0
  9  8  1  0
 10  9  1  0
 10 11  1  0
 12  8  1  0
 12 11  1  0
  1 13  1  0
  2 14  1  0
  7 15  1  0
  7 16  1  0
  9 17  1  0
  9 18  1  0
 10 19  1  0
 10 20  1  0
 11 21  1  0
 11 22  1  0
 12 23  1  0
 12 24  1  0
M  ISO  8  13  14  14  14  17  13  18  13  19  13  20  13  21  13  22  13
M  ISO  2  23  13  24  13
M  END
>  <minimizedAffinity>  (1) 
-3.9529984

>  <minimizedRMSD>  (1) 
2.46503615

$$$$
