
     RDKit          3D

 48 50  0  0  1  0  0  0  0  0999 V2000
   39.1590   25.9970   42.2510 C   0  0  1  0  0  0  0  0  0  0  0  0
   38.9640   24.5790   41.6560 C   0  0  0  0  0  0  0  0  0  0  0  0
   37.5800   24.1900   42.0340 C   0  0  0  0  0  0  0  0  0  0  0  0
   36.9050   25.5520   42.1550 C   0  0  0  0  0  0  0  0  0  0  0  0
   37.9400   26.2380   43.0360 C   0  0  2  0  0  0  0  0  0  0  0  0
   41.9080   27.0020   44.6360 C   0  0  0  0  0  0  0  0  0  0  0  0
   40.6450   27.0170   44.0350 C   0  0  0  0  0  0  0  0  0  0  0  0
   40.4190   26.0920   42.9680 C   0  0  0  0  0  0  0  0  0  0  0  0
   41.4140   25.2440   42.5750 N   0  0  0  0  0  0  0  0  0  0  0  0
   42.6190   25.2770   43.2000 C   0  0  0  0  0  0  0  0  0  0  0  0
   42.8670   26.1450   44.2180 N   0  0  0  0  0  0  0  0  0  0  0  0
   37.4710   27.6440   43.1560 C   0  0  2  0  0  0  0  0  0  0  0  0
   36.8890   28.0130   44.4720 C   0  0  0  0  0  0  0  0  0  0  0  0
   36.4050   27.8210   42.1000 C   0  0  0  0  0  0  0  0  0  0  0  0
   36.6050   29.1320   41.3590 C   0  0  0  0  0  0  0  0  0  0  0  0
   36.2670   28.9200   39.8770 C   0  0  0  0  0  0  0  0  0  0  0  0
   36.3090   30.2400   39.1770 C   0  0  0  0  0  0  0  0  0  0  0  0
   37.5330   31.0590   39.4530 C   0  0  0  0  0  0  0  0  0  0  0  0
   37.9350   31.0800   40.8950 C   0  0  0  0  0  0  0  0  0  0  0  0
   38.0170   29.6240   41.3590 C   0  0  0  0  0  0  0  0  0  0  0  0
   39.2614   26.7953   41.5012 H   0  0  0  0  0  0  0  0  0  0  0  0
   39.6938   23.8763   42.0845 H   0  0  0  0  0  0  0  0  0  0  0  0
   39.1144   24.5639   40.5664 H   0  0  0  0  0  0  0  0  0  0  0  0
   37.1078   23.5752   41.2535 H   0  0  0  0  0  0  0  0  0  0  0  0
   37.5191   23.5762   42.9448 H   0  0  0  0  0  0  0  0  0  0  0  0
   36.7959   26.0488   41.1797 H   0  0  0  0  0  0  0  0  0  0  0  0
   35.8763   25.5429   42.5444 H   0  0  0  0  0  0  0  0  0  0  0  0
   38.1064   25.9059   44.0714 H   0  0  0  0  0  0  0  0  0  0  0  0
   42.1243   27.6973   45.4605 H   0  0  0  0  0  0  0  0  0  0  0  0
   39.8592   27.7106   44.3688 H   0  0  0  0  0  0  0  0  0  0  0  0
   43.4120   24.5869   42.8762 H   0  0  0  0  0  0  0  0  0  0  0  0
   38.3493   28.2954   43.0366 H   0  0  0  0  0  0  0  0  0  0  0  0
   37.5213   27.6121   45.2779 H   0  0  0  0  0  0  0  0  0  0  0  0
   36.8383   29.1086   44.5563 H   0  0  0  0  0  0  0  0  0  0  0  0
   35.8765   27.5915   44.5563 H   0  0  0  0  0  0  0  0  0  0  0  0
   36.4623   26.9878   41.3841 H   0  0  0  0  0  0  0  0  0  0  0  0
   35.4190   27.8339   42.5875 H   0  0  0  0  0  0  0  0  0  0  0  0
   35.9632   29.8601   41.8767 H   0  0  0  0  0  0  0  0  0  0  0  0
   37.0024   28.2385   39.4244 H   0  0  0  0  0  0  0  0  0  0  0  0
   35.2632   28.4802   39.7830 H   0  0  0  0  0  0  0  0  0  0  0  0
   35.4299   30.8219   39.4910 H   0  0  0  0  0  0  0  0  0  0  0  0
   36.3209   30.0188   38.0995 H   0  0  0  0  0  0  0  0  0  0  0  0
   38.3666   30.6448   38.8668 H   0  0  0  0  0  0  0  0  0  0  0  0
   37.2942   32.0955   39.1724 H   0  0  0  0  0  0  0  0  0  0  0  0
   38.9146   31.5677   41.0068 H   0  0  0  0  0  0  0  0  0  0  0  0
   37.2065   31.6430   41.4970 H   0  0  0  0  0  0  0  0  0  0  0  0
   38.6317   29.0321   40.6649 H   0  0  0  0  0  0  0  0  0  0  0  0
   38.4834   29.5345   42.3512 H   0  0  0  0  0  0  0  0  0  0  0  0
  1  8  1  0
  1  5  1  0
  2  3  1  0
  2  1  1  0
  3  4  1  0
  4  5  1  0
  5 12  1  0
  7  6  2  0
  8  7  1  0
  9  8  2  0
  9 10  1  0
 10 11  2  0
 11  6  1  0
 12 13  1  0
 14 12  1  0
 15 14  1  0
 16 15  1  0
 17 18  1  0
 17 16  1  0
 18 19  1  0
 19 20  1  0
 20 15  1  0
  1 21  1  6
  2 22  1  0
  2 23  1  0
  3 24  1  0
  3 25  1  0
  4 26  1  0
  4 27  1  0
  5 28  1  1
  6 29  1  0
  7 30  1  0
 10 31  1  0
 12 32  1  6
 13 33  1  0
 13 34  1  0
 13 35  1  0
 14 36  1  0
 14 37  1  0
 15 38  1  0
 16 39  1  0
 16 40  1  0
 17 41  1  0
 17 42  1  0
 18 43  1  0
 18 44  1  0
 19 45  1  0
 19 46  1  0
 20 47  1  0
 20 48  1  0
M  ISO  8  21  13  22  13  23  13  24  13  25  13  26  13  27  13  28  13
M  ISO  8  29  14  30  14  31  14  32   8  33   8  34   8  35   8  36   8
M  ISO  8  37   8  38  13  39  13  40  13  41  13  42  13  43  13  44  13
M  ISO  4  45  13  46  13  47  13  48  13
M  END
>  <minimizedAffinity>  (1) 
-5.44263315

>  <minimizedRMSD>  (1) 
1.26199508

$$$$
