
     RDKit          3D

 23 24  0  0  0  0  0  0  0  0999 V2000
   38.1850   28.9070   43.3060 C   0  0  0  0  0  0  0  0  0  0  0  0
   38.3850   27.4990   43.2920 C   0  0  0  0  0  0  0  0  0  0  0  0
   37.6040   26.7590   42.3990 C   0  0  0  0  0  0  0  0  0  0  0  0
   36.7200   27.4100   41.6170 N   0  0  0  0  0  0  0  0  0  0  0  0
   36.5620   28.7450   41.6620 C   0  0  0  0  0  0  0  0  0  0  0  0
   37.2950   29.4770   42.5050 N   0  0  0  0  0  0  0  0  0  0  0  0
   37.6850   25.3450   42.2640 N   0  0  0  0  0  0  0  0  0  0  0  0
   35.5440   29.3130   40.7340 C   0  0  0  0  0  0  0  0  0  0  0  0
   36.2590   30.3170   39.8860 C   0  0  0  0  0  0  0  0  0  0  0  0
   36.6140   29.9150   38.6280 C   0  0  0  0  0  0  0  0  0  0  0  0
   37.2830   30.8270   37.8110 C   0  0  0  0  0  0  0  0  0  0  0  0
   37.5590   32.0670   38.2800 N   0  0  0  0  0  0  0  0  0  0  0  0
   37.2010   32.4410   39.5210 C   0  0  0  0  0  0  0  0  0  0  0  0
   36.5450   31.5690   40.3420 N   0  0  0  0  0  0  0  0  0  0  0  0
   38.7769   29.5320   43.9909 H   0  0  0  0  0  0  0  0  0  0  0  0
   39.1195   27.0150   43.9525 H   0  0  0  0  0  0  0  0  0  0  0  0
   37.0816   24.8569   41.5868 H   0  0  0  0  0  0  0  0  0  0  0  0
   38.3470   24.8094   42.8434 H   0  0  0  0  0  0  0  0  0  0  0  0
   35.1175   28.5181   40.1045 H   0  0  0  0  0  0  0  0  0  0  0  0
   34.7145   29.7771   41.2877 H   0  0  0  0  0  0  0  0  0  0  0  0
   36.3789   28.9017   38.2705 H   0  0  0  0  0  0  0  0  0  0  0  0
   37.5843   30.5406   36.7926 H   0  0  0  0  0  0  0  0  0  0  0  0
   37.4378   33.4546   39.8767 H   0  0  0  0  0  0  0  0  0  0  0  0
  2  1  2  0
  3  2  1  0
  4  5  1  0
  4  3  2  0
  5  6  2  0
  6  1  1  0
  7  3  1  0
  8  5  1  0
  9 14  1  0
  9  8  1  0
 10  9  2  0
 11 12  2  0
 11 10  1  0
 12 13  1  0
 13 14  2  0
  1 15  1  0
  2 16  1  0
  7 17  1  0
  7 18  1  0
  8 19  1  0
  8 20  1  0
 10 21  1  0
 11 22  1  0
 13 23  1  0
M  ISO  7  15  14  16  14  19   8  20   8  21  14  22  14  23  14
M  END
>  <minimizedAffinity>  (1) 
-4.26969814

>  <minimizedRMSD>  (1) 
1.32007122

$$$$
