
     RDKit          3D

 27 28  0  0  0  0  0  0  0  0999 V2000
   37.9500   28.7010   43.5090 C   0  0  0  0  0  0  0  0  0  0  0  0
   37.8800   27.3000   43.3710 C   0  0  0  0  0  0  0  0  0  0  0  0
   37.2170   26.8150   42.2370 C   0  0  0  0  0  0  0  0  0  0  0  0
   36.6880   27.6960   41.3480 N   0  0  0  0  0  0  0  0  0  0  0  0
   36.7910   29.0300   41.5390 C   0  0  0  0  0  0  0  0  0  0  0  0
   37.4190   29.5330   42.6170 N   0  0  0  0  0  0  0  0  0  0  0  0
   37.0450   25.4460   41.9260 N   0  0  0  0  0  0  0  0  0  0  0  0
   36.1690   29.8830   40.4920 C   0  0  0  0  0  0  0  0  0  0  0  0
   37.2050   30.1160   39.5030 N   0  0  0  0  0  0  0  0  0  0  0  0
   36.7250   29.9810   38.1610 C   0  0  0  0  0  0  0  0  0  0  0  0
   37.4230   31.0930   37.3730 C   0  0  0  0  0  0  0  0  0  0  0  0
   37.3680   32.1760   38.4320 C   0  0  0  0  0  0  0  0  0  0  0  0
   37.8410   31.3900   39.6380 C   0  0  0  0  0  0  0  0  0  0  0  0
   38.4626   29.1219   44.3866 H   0  0  0  0  0  0  0  0  0  0  0  0
   38.3233   26.6226   44.1157 H   0  0  0  0  0  0  0  0  0  0  0  0
   36.5434   25.1716   41.0693 H   0  0  0  0  0  0  0  0  0  0  0  0
   37.4214   24.7235   42.5562 H   0  0  0  0  0  0  0  0  0  0  0  0
   35.3130   29.3650   40.0349 H   0  0  0  0  0  0  0  0  0  0  0  0
   35.7909   30.8270   40.9115 H   0  0  0  0  0  0  0  0  0  0  0  0
   36.9902   28.9943   37.7536 H   0  0  0  0  0  0  0  0  0  0  0  0
   35.6294   30.0622   38.1054 H   0  0  0  0  0  0  0  0  0  0  0  0
   38.4558   30.8266   37.1040 H   0  0  0  0  0  0  0  0  0  0  0  0
   36.9748   31.3477   36.4013 H   0  0  0  0  0  0  0  0  0  0  0  0
   38.0451   33.0107   38.1977 H   0  0  0  0  0  0  0  0  0  0  0  0
   36.3867   32.6590   38.5499 H   0  0  0  0  0  0  0  0  0  0  0  0
   37.5303   31.8835   40.5707 H   0  0  0  0  0  0  0  0  0  0  0  0
   38.9371   31.3092   39.6827 H   0  0  0  0  0  0  0  0  0  0  0  0
  2  1  2  0
  3  2  1  0
  4  5  1  0
  4  3  2  0
  5  6  2  0
  6  1  1  0
  7  3  1  0
  8  5  1  0
  9 13  1  0
  9  8  1  0
 10  9  1  0
 11 10  1  0
 11 12  1  0
 12 13  1  0
  1 14  1  0
  2 15  1  0
  7 16  1  0
  7 17  1  0
  8 18  1  0
  8 19  1  0
 10 20  1  0
 10 21  1  0
 11 22  1  0
 11 23  1  0
 12 24  1  0
 12 25  1  0
 13 26  1  0
 13 27  1  0
M  ISO  8  14  14  15  14  18   8  19   8  20  13  21  13  22  13  23  13
M  ISO  4  24  13  25  13  26  13  27  13
M  END
>  <minimizedAffinity>  (1) 
-3.7465086

>  <minimizedRMSD>  (1) 
0.996379316

$$$$
