
     RDKit          3D

 39 42  0  0  0  0  0  0  0  0999 V2000
   35.6499   29.7617   40.6640 C   0  0  0  0  0  0  0  0  0  0  0  0
   38.1901   28.9866   43.2512 C   0  0  0  0  0  0  0  0  0  0  0  0
   38.1787   27.5814   43.2849 C   0  0  0  0  0  0  0  0  0  0  0  0
   37.2813   26.9537   42.4000 C   0  0  0  0  0  0  0  0  0  0  0  0
   36.5067   27.6878   41.5950 N   0  0  0  0  0  0  0  0  0  0  0  0
   36.5551   29.0481   41.6001 C   0  0  0  0  0  0  0  0  0  0  0  0
   37.4017   29.6770   42.4337 N   0  0  0  0  0  0  0  0  0  0  0  0
   37.1301   25.5409   42.2930 N   0  0  0  0  0  0  0  0  0  0  0  0
   36.3774   30.4370   39.5655 C   0  0  0  0  0  0  0  0  0  0  0  0
   36.8703   31.7226   39.7523 C   0  0  0  0  0  0  0  0  0  0  0  0
   37.5391   32.2939   38.6868 C   0  0  0  0  0  0  0  0  0  0  0  0
   37.7414   31.6756   37.4749 C   0  0  0  0  0  0  0  0  0  0  0  0
   37.2385   30.3997   37.3244 C   0  0  0  0  0  0  0  0  0  0  0  0
   36.5607   29.7762   38.3543 C   0  0  0  0  0  0  0  0  0  0  0  0
   34.8264   29.1250   40.3618 H   0  0  0  0  0  0  0  0  0  0  0  0
   35.1773   30.5814   41.2806 H   0  0  0  0  0  0  0  0  0  0  0  0
   38.8940   29.4102   43.9476 H   0  0  0  0  0  0  0  0  0  0  0  0
   38.7479   26.9141   43.8806 H   0  0  0  0  0  0  0  0  0  0  0  0
   36.1597   25.1243   42.3981 H   0  0  0  0  0  0  0  0  0  0  0  0
   37.9977   24.9936   42.1149 H   0  0  0  0  0  0  0  0  0  0  0  0
   36.7416   32.2473   40.6712 H   0  0  0  0  0  0  0  0  0  0  0  0
   37.9155   33.3034   38.8609 H   0  0  0  0  0  0  0  0  0  0  0  0
   38.2708   32.1665   36.6751 H   0  0  0  0  0  0  0  0  0  0  0  0
   37.4085   29.9290   36.3610 H   0  0  0  0  0  0  0  0  0  0  0  0
   36.0820   28.4777   38.1165 N   0  0  0  0  0  0  0  0  0  0  0  0
   35.9506   27.5013   39.0274 C   0  0  0  0  0  0  0  0  0  0  0  0
   35.4677   26.3606   38.5213 N   0  0  0  0  0  0  0  0  0  0  0  0
   35.2643   26.5891   37.1916 C   0  0  0  0  0  0  0  0  0  0  0  0
   34.7888   25.8009   36.1651 C   0  0  0  0  0  0  0  0  0  0  0  0
   34.4421   24.6094   36.3886 O   0  0  0  0  0  0  0  0  0  0  0  0
   34.7103   26.3520   34.9227 N   0  0  0  0  0  0  0  0  0  0  0  0
   35.0843   27.6250   34.7013 C   0  0  0  0  0  0  0  0  0  0  0  0
   35.0238   28.2519   33.4253 N   0  0  0  0  0  0  0  0  0  0  0  0
   35.5499   28.3884   35.7195 N   0  0  0  0  0  0  0  0  0  0  0  0
   35.6518   27.8972   36.9792 C   0  0  0  0  0  0  0  0  0  0  0  0
   36.1799   27.5250   40.0836 H   0  0  0  0  0  0  0  0  0  0  0  0
   34.3498   25.7763   34.1102 H   0  0  0  0  0  0  0  0  0  0  0  0
   34.3434   28.8105   32.8639 H   0  0  0  0  0  0  0  0  0  0  0  0
   34.0574   28.6557   33.4553 H   0  0  0  0  0  0  0  0  0  0  0  0
  1  6  1  0
  2  3  2  0
  4  3  1  0
  5  4  2  0
  6  5  1  0
  6  7  2  0
  7  2  1  0
  8  4  1  0
  9 10  2  0
  9  1  1  0
 11 10  1  0
 12 11  2  0
 13 12  1  0
 13 14  2  0
 14  9  1  0
  1 15  1  0
  1 16  1  0
  2 17  1  0
  3 18  1  0
  8 19  1  0
  8 20  1  0
 10 21  1  0
 11 22  1  0
 12 23  1  0
 13 24  1  0
 25 26  1  0
 26 27  2  0
 27 28  1  0
 28 29  1  0
 29 30  2  0
 29 31  1  0
 31 32  1  0
 32 33  1  0
 32 34  2  0
 34 35  1  0
 35 25  1  0
 35 28  2  0
 26 36  1  0
 31 37  1  0
 33 38  1  0
 33 39  1  0
 14 25  1  0
M  END
>  <DihAtoms>  (1) 
12,13,24,25

>  <DihDeg>  (1) 
73.55404045879871

$$$$
