
     RDKit          3D

 38 41  0  0  0  0  0  0  0  0999 V2000
   36.3200   30.3720   40.0750 C   0  0  0  0  0  0  0  0  0  0  0  0
   36.7850   31.4990   40.7180 C   0  0  0  0  0  0  0  0  0  0  0  0
   37.3900   32.4750   39.9540 C   0  0  0  0  0  0  0  0  0  0  0  0
   37.5540   32.3850   38.5940 C   0  0  0  0  0  0  0  0  0  0  0  0
   37.0800   31.2400   37.9530 C   0  0  0  0  0  0  0  0  0  0  0  0
   36.4700   30.2510   38.7080 C   0  0  0  0  0  0  0  0  0  0  0  0
   36.0250   29.1310   37.9570 N   0  0  0  0  0  0  0  0  0  0  0  0
   35.5210   27.9520   38.3600 C   0  0  0  0  0  0  0  0  0  0  0  0
   35.2390   27.1980   37.2830 N   0  0  0  0  0  0  0  0  0  0  0  0
   35.5620   27.8880   36.1510 C   0  0  0  0  0  0  0  0  0  0  0  0
   35.4520   27.5330   34.8210 C   0  0  0  0  0  0  0  0  0  0  0  0
   35.8520   28.4220   33.8850 N   0  0  0  0  0  0  0  0  0  0  0  0
   36.3310   29.6030   34.3070 C   0  0  0  0  0  0  0  0  0  0  0  0
   36.4290   29.9300   35.6090 N   0  0  0  0  0  0  0  0  0  0  0  0
   36.0540   29.1030   36.6040 C   0  0  0  0  0  0  0  0  0  0  0  0
   34.9330   26.2600   34.4400 N   0  0  0  0  0  0  0  0  0  0  0  0
   35.6600   29.2820   40.8240 C   0  0  0  0  0  0  0  0  0  0  0  0
   38.0870   28.5040   43.5290 C   0  0  0  0  0  0  0  0  0  0  0  0
   38.2480   27.1230   43.3720 C   0  0  0  0  0  0  0  0  0  0  0  0
   37.5280   26.5000   42.3510 C   0  0  0  0  0  0  0  0  0  0  0  0
   36.7300   27.2510   41.5870 N   0  0  0  0  0  0  0  0  0  0  0  0
   36.5890   28.5790   41.7570 C   0  0  0  0  0  0  0  0  0  0  0  0
   37.2720   29.1850   42.7260 N   0  0  0  0  0  0  0  0  0  0  0  0
   37.5770   25.1100   42.0580 N   0  0  0  0  0  0  0  0  0  0  0  0
   36.6770   31.6163   41.8064 H   0  0  0  0  0  0  0  0  0  0  0  0
   37.7621   33.3763   40.4631 H   0  0  0  0  0  0  0  0  0  0  0  0
   38.0439   33.1905   38.0273 H   0  0  0  0  0  0  0  0  0  0  0  0
   37.1889   31.1241   36.8646 H   0  0  0  0  0  0  0  0  0  0  0  0
   35.3639   27.6512   39.4064 H   0  0  0  0  0  0  0  0  0  0  0  0
   36.6580   30.3363   33.5551 H   0  0  0  0  0  0  0  0  0  0  0  0
   34.8580   26.0118   33.4432 H   0  0  0  0  0  0  0  0  0  0  0  0
   34.6333   25.5891   35.1617 H   0  0  0  0  0  0  0  0  0  0  0  0
   34.8308   29.7082   41.4079 H   0  0  0  0  0  0  0  0  0  0  0  0
   35.3040   28.5434   40.0907 H   0  0  0  0  0  0  0  0  0  0  0  0
   38.6379   29.0311   44.3219 H   0  0  0  0  0  0  0  0  0  0  0  0
   38.9177   26.5489   44.0293 H   0  0  0  0  0  0  0  0  0  0  0  0
   37.0138   24.7263   41.2856 H   0  0  0  0  0  0  0  0  0  0  0  0
   38.1757   24.4864   42.6180 H   0  0  0  0  0  0  0  0  0  0  0  0
  1  2  2  0
  1 17  1  0
  3  2  1  0
  4  3  2  0
  5  4  1  0
  5  6  2  0
  6  1  1  0
  7  8  1  0
  7  6  1  0
  9  8  2  0
 10 15  2  0
 10  9  1  0
 11 10  1  0
 12 13  1  0
 12 11  2  0
 13 14  2  0
 14 15  1  0
 15  7  1  0
 16 11  1  0
 17 22  1  0
 19 18  2  0
 20 19  1  0
 21 22  1  0
 21 20  2  0
 22 23  2  0
 23 18  1  0
 24 20  1  0
  2 25  1  0
  3 26  1  0
  4 27  1  0
  5 28  1  0
  8 29  1  0
 13 30  1  0
 16 31  1  0
 16 32  1  0
 17 33  1  0
 17 34  1  0
 18 35  1  0
 19 36  1  0
 24 37  1  0
 24 38  1  0
M  ISO  8  25  14  26  14  27  14  28  14  29  14  30  14  33   8  34   8
M  ISO  2  35  14  36  14
M  END
>  <minimizedAffinity>  (1) 
-5.80923605

>  <minimizedRMSD>  (1) 
1.33659232

$$$$
