
     RDKit          3D

 35 37  0  0  0  0  0  0  0  0999 V2000
   36.4270   30.5990   39.7350 C   0  0  0  0  0  0  0  0  0  0  0  0
   37.0910   31.8070   39.9230 C   0  0  0  0  0  0  0  0  0  0  0  0
   37.7240   32.3700   38.8340 C   0  0  0  0  0  0  0  0  0  0  0  0
   37.7400   31.8160   37.5780 C   0  0  0  0  0  0  0  0  0  0  0  0
   37.0720   30.6190   37.4260 C   0  0  0  0  0  0  0  0  0  0  0  0
   36.4160   30.0070   38.4910 C   0  0  0  0  0  0  0  0  0  0  0  0
   35.7500   28.7690   38.1060 C   0  0  0  0  0  0  0  0  0  0  0  0
   36.1350   27.4460   38.1680 C   0  0  0  0  0  0  0  0  0  0  0  0
   35.3210   26.4540   37.7120 C   0  0  0  0  0  0  0  0  0  0  0  0
   34.0880   26.6700   37.1690 C   0  0  0  0  0  0  0  0  0  0  0  0
   33.6610   27.9760   37.0860 C   0  0  0  0  0  0  0  0  0  0  0  0
   34.4820   28.9850   37.5470 C   0  0  0  0  0  0  0  0  0  0  0  0
   35.7630   29.9500   40.8770 C   0  0  0  0  0  0  0  0  0  0  0  0
   38.4820   28.9110   43.1850 C   0  0  0  0  0  0  0  0  0  0  0  0
   38.3460   27.5140   43.2030 C   0  0  0  0  0  0  0  0  0  0  0  0
   37.3280   26.9740   42.4230 C   0  0  0  0  0  0  0  0  0  0  0  0
   36.5510   27.8050   41.7150 N   0  0  0  0  0  0  0  0  0  0  0  0
   36.7110   29.1520   41.7200 C   0  0  0  0  0  0  0  0  0  0  0  0
   37.6790   29.6780   42.4600 N   0  0  0  0  0  0  0  0  0  0  0  0
   37.0310   25.5810   42.3070 N   0  0  0  0  0  0  0  0  0  0  0  0
   37.1107   32.2972   40.9076 H   0  0  0  0  0  0  0  0  0  0  0  0
   38.2500   33.3247   38.9817 H   0  0  0  0  0  0  0  0  0  0  0  0
   38.2581   32.3010   36.7375 H   0  0  0  0  0  0  0  0  0  0  0  0
   37.0570   30.1353   36.4382 H   0  0  0  0  0  0  0  0  0  0  0  0
   37.1162   27.1878   38.5930 H   0  0  0  0  0  0  0  0  0  0  0  0
   35.6789   25.4165   37.7858 H   0  0  0  0  0  0  0  0  0  0  0  0
   33.4630   25.8376   36.8134 H   0  0  0  0  0  0  0  0  0  0  0  0
   32.6762   28.2128   36.6569 H   0  0  0  0  0  0  0  0  0  0  0  0
   34.1201   30.0210   37.4715 H   0  0  0  0  0  0  0  0  0  0  0  0
   35.3028   30.7273   41.5047 H   0  0  0  0  0  0  0  0  0  0  0  0
   35.0116   29.2553   40.4736 H   0  0  0  0  0  0  0  0  0  0  0  0
   39.2738   29.3809   43.7868 H   0  0  0  0  0  0  0  0  0  0  0  0
   39.0116   26.8773   43.8043 H   0  0  0  0  0  0  0  0  0  0  0  0
   36.2564   25.2680   41.7046 H   0  0  0  0  0  0  0  0  0  0  0  0
   37.5916   24.8900   42.8258 H   0  0  0  0  0  0  0  0  0  0  0  0
  1  2  2  0
  1 13  1  0
  3  2  1  0
  4  3  2  0
  5  4  1  0
  5  6  2  0
  6  1  1  0
  7  8  2  0
  7  6  1  0
  9  8  1  0
 10  9  2  0
 11 10  1  0
 11 12  2  0
 12  7  1  0
 13 18  1  0
 14 15  2  0
 16 15  1  0
 17 18  1  0
 17 16  2  0
 18 19  2  0
 19 14  1  0
 20 16  1  0
  2 21  1  0
  3 22  1  0
  4 23  1  0
  5 24  1  0
  8 25  1  0
  9 26  1  0
 10 27  1  0
 11 28  1  0
 12 29  1  0
 13 30  1  0
 13 31  1  0
 14 32  1  0
 15 33  1  0
 20 34  1  0
 20 35  1  0
M  ISO  8  21  14  22  14  23  14  24  14  25  14  26  14  27  14  28  14
M  ISO  5  29  14  30   8  31   8  32  14  33  14
M  END
>  <minimizedAffinity>  (1) 
-5.65548944

>  <minimizedRMSD>  (1) 
0.919536054

$$$$
