
     RDKit          3D

 36 38  0  0  0  0  0  0  0  0999 V2000
   35.6513   29.7673   40.6679 C   0  0  0  0  0  0  0  0  0  0  0  0
   38.1859   28.9894   43.2490 C   0  0  0  0  0  0  0  0  0  0  0  0
   38.1719   27.5751   43.2792 C   0  0  0  0  0  0  0  0  0  0  0  0
   37.2850   26.9520   42.4042 C   0  0  0  0  0  0  0  0  0  0  0  0
   36.5159   27.6987   41.6049 N   0  0  0  0  0  0  0  0  0  0  0  0
   36.5536   29.0489   41.6005 C   0  0  0  0  0  0  0  0  0  0  0  0
   37.3946   29.6649   42.4295 N   0  0  0  0  0  0  0  0  0  0  0  0
   37.1343   25.5394   42.2965 N   0  0  0  0  0  0  0  0  0  0  0  0
   36.3769   30.4400   39.5701 C   0  0  0  0  0  0  0  0  0  0  0  0
   36.8675   31.7104   39.7528 C   0  0  0  0  0  0  0  0  0  0  0  0
   37.5400   32.2901   38.6856 C   0  0  0  0  0  0  0  0  0  0  0  0
   37.7440   31.6806   37.4710 C   0  0  0  0  0  0  0  0  0  0  0  0
   37.2419   30.4015   37.3081 C   0  0  0  0  0  0  0  0  0  0  0  0
   36.5582   29.7837   38.3606 C   0  0  0  0  0  0  0  0  0  0  0  0
   34.8799   29.1064   40.2798 H   0  0  0  0  0  0  0  0  0  0  0  0
   35.1762   30.5787   41.2917 H   0  0  0  0  0  0  0  0  0  0  0  0
   38.8855   29.4470   43.9403 H   0  0  0  0  0  0  0  0  0  0  0  0
   38.7666   26.9587   43.8985 H   0  0  0  0  0  0  0  0  0  0  0  0
   37.1965   25.0380   43.2181 H   0  0  0  0  0  0  0  0  0  0  0  0
   36.9782   25.0786   41.3737 H   0  0  0  0  0  0  0  0  0  0  0  0
   36.7304   32.2312   40.6951 H   0  0  0  0  0  0  0  0  0  0  0  0
   37.9169   33.2982   38.8625 H   0  0  0  0  0  0  0  0  0  0  0  0
   38.2778   32.1896   36.6793 H   0  0  0  0  0  0  0  0  0  0  0  0
   37.3772   29.8873   36.3777 H   0  0  0  0  0  0  0  0  0  0  0  0
   36.0476   28.4644   38.1739 N   0  0  0  0  0  0  0  0  0  0  0  0
   34.7160   28.2973   38.2513 C   0  0  0  0  0  0  0  0  0  0  0  0
   34.2713   27.0028   38.0635 C   0  0  0  0  0  0  0  0  0  0  0  0
   35.1927   26.0081   37.8187 C   0  0  0  0  0  0  0  0  0  0  0  0
   34.8378   24.6586   37.6144 N   0  0  0  0  0  0  0  0  0  0  0  0
   36.5147   26.2335   37.7522 N   0  0  0  0  0  0  0  0  0  0  0  0
   36.9668   27.5083   37.9359 C   0  0  0  0  0  0  0  0  0  0  0  0
   38.1941   27.7796   37.8849 O   0  0  0  0  0  0  0  0  0  0  0  0
   34.0572   29.1310   38.4474 H   0  0  0  0  0  0  0  0  0  0  0  0
   33.2264   26.7757   38.1077 H   0  0  0  0  0  0  0  0  0  0  0  0
   34.4263   23.8797   37.0762 H   0  0  0  0  0  0  0  0  0  0  0  0
   34.3462   24.4329   36.7013 H   0  0  0  0  0  0  0  0  0  0  0  0
  1  6  1  0
  2  3  2  0
  4  3  1  0
  5  4  2  0
  6  5  1  0
  6  7  2  0
  7  2  1  0
  8  4  1  0
  9 10  2  0
  9  1  1  0
 11 10  1  0
 12 11  2  0
 13 12  1  0
 13 14  2  0
 14  9  1  0
  1 15  1  0
  1 16  1  0
  2 17  1  0
  3 18  1  0
  8 19  1  0
  8 20  1  0
 10 21  1  0
 11 22  1  0
 12 23  1  0
 13 24  1  0
 25 26  1  0
 26 27  2  0
 27 28  1  0
 28 29  1  0
 28 30  2  0
 30 31  1  0
 31 32  2  0
 31 25  1  0
 26 33  1  0
 27 34  1  0
 29 35  1  0
 29 36  1  0
 14 25  1  0
M  END
>  <DihAtoms>  (1) 
12,13,24,25

>  <DihDeg>  (1) 
-102.5188601020054

$$$$
