
     RDKit          3D

 45 47  0  0  1  0  0  0  0  0999 V2000
   39.1550   26.1610   42.2690 C   0  0  1  0  0  0  0  0  0  0  0  0
   38.8980   24.8150   41.5510 C   0  0  0  0  0  0  0  0  0  0  0  0
   37.5080   24.4170   41.9760 C   0  0  0  0  0  0  0  0  0  0  0  0
   36.8720   25.7710   42.2500 C   0  0  0  0  0  0  0  0  0  0  0  0
   37.9650   26.3880   43.1080 C   0  0  2  0  0  0  0  0  0  0  0  0
   41.9900   26.9010   44.6500 C   0  0  0  0  0  0  0  0  0  0  0  0
   40.7180   26.9930   44.0710 C   0  0  0  0  0  0  0  0  0  0  0  0
   40.4350   26.1640   42.9650 C   0  0  0  0  0  0  0  0  0  0  0  0
   41.3950   25.3140   42.5040 N   0  0  0  0  0  0  0  0  0  0  0  0
   42.6090   25.2530   43.0880 C   0  0  0  0  0  0  0  0  0  0  0  0
   42.9080   26.0430   44.1560 N   0  0  0  0  0  0  0  0  0  0  0  0
   37.5440   27.7950   43.3120 C   0  0  2  0  0  0  0  0  0  0  0  0
   36.7870   28.0680   44.5620 C   0  0  0  0  0  0  0  0  0  0  0  0
   36.6450   28.1400   42.1390 C   0  0  0  0  0  0  0  0  0  0  0  0
   36.9380   29.6320   41.9000 C   0  0  0  0  0  0  0  0  0  0  0  0
   35.9940   30.1520   40.8080 C   0  0  0  0  0  0  0  0  0  0  0  0
   36.7650   31.3010   40.1490 C   0  0  0  0  0  0  0  0  0  0  0  0
   38.1020   31.3500   40.8780 C   0  0  0  0  0  0  0  0  0  0  0  0
   38.2570   29.8660   41.2370 C   0  0  0  0  0  0  0  0  0  0  0  0
   39.2679   27.0086   41.5770 H   0  0  0  0  0  0  0  0  0  0  0  0
   39.6322   24.0595   41.8676 H   0  0  0  0  0  0  0  0  0  0  0  0
   38.9918   24.9004   40.4583 H   0  0  0  0  0  0  0  0  0  0  0  0
   36.9808   23.8811   41.1729 H   0  0  0  0  0  0  0  0  0  0  0  0
   37.4823   23.7289   42.8339 H   0  0  0  0  0  0  0  0  0  0  0  0
   36.7048   26.3414   41.3244 H   0  0  0  0  0  0  0  0  0  0  0  0
   35.8747   25.7365   42.7129 H   0  0  0  0  0  0  0  0  0  0  0  0
   38.1626   25.9943   44.1159 H   0  0  0  0  0  0  0  0  0  0  0  0
   42.2431   27.5328   45.5141 H   0  0  0  0  0  0  0  0  0  0  0  0
   39.9637   27.6894   44.4660 H   0  0  0  0  0  0  0  0  0  0  0  0
   43.3662   24.5573   42.6972 H   0  0  0  0  0  0  0  0  0  0  0  0
   38.4606   28.3981   43.3901 H   0  0  0  0  0  0  0  0  0  0  0  0
   37.4206   27.8395   45.4317 H   0  0  0  0  0  0  0  0  0  0  0  0
   36.4948   29.1281   44.5896 H   0  0  0  0  0  0  0  0  0  0  0  0
   35.8854   27.4384   44.5896 H   0  0  0  0  0  0  0  0  0  0  0  0
   36.9035   27.5403   41.2538 H   0  0  0  0  0  0  0  0  0  0  0  0
   35.5822   27.9345   42.3343 H   0  0  0  0  0  0  0  0  0  0  0  0
   36.8618   30.1019   42.8917 H   0  0  0  0  0  0  0  0  0  0  0  0
   35.7737   29.3613   40.0757 H   0  0  0  0  0  0  0  0  0  0  0  0
   35.0246   30.4773   41.2134 H   0  0  0  0  0  0  0  0  0  0  0  0
   36.9160   31.1007   39.0780 H   0  0  0  0  0  0  0  0  0  0  0  0
   36.2222   32.2552   40.2182 H   0  0  0  0  0  0  0  0  0  0  0  0
   38.9131   31.6993   40.2222 H   0  0  0  0  0  0  0  0  0  0  0  0
   38.1417   32.0423   41.7319 H   0  0  0  0  0  0  0  0  0  0  0  0
   38.3833   29.2386   40.3423 H   0  0  0  0  0  0  0  0  0  0  0  0
   39.1379   29.6225   41.8492 H   0  0  0  0  0  0  0  0  0  0  0  0
  1  8  1  0
  1  5  1  0
  2  3  1  0
  2  1  1  0
  3  4  1  0
  4  5  1  0
  5 12  1  0
  7  6  2  0
  8  7  1  0
  9  8  2  0
  9 10  1  0
 10 11  2  0
 11  6  1  0
 12 13  1  0
 14 12  1  0
 15 14  1  0
 16 15  1  0
 17 16  1  0
 17 18  1  0
 18 19  1  0
 19 15  1  0
  1 20  1  6
  2 21  1  0
  2 22  1  0
  3 23  1  0
  3 24  1  0
  4 25  1  0
  4 26  1  0
  5 27  1  1
  6 28  1  0
  7 29  1  0
 10 30  1  0
 12 31  1  1
 13 32  1  0
 13 33  1  0
 13 34  1  0
 14 35  1  0
 14 36  1  0
 15 37  1  0
 16 38  1  0
 16 39  1  0
 17 40  1  0
 17 41  1  0
 18 42  1  0
 18 43  1  0
 19 44  1  0
 19 45  1  0
M  ISO  8  20  13  21  13  22  13  23  13  24  13  25  13  26  13  27  13
M  ISO  8  28  14  29  14  30  14  31   8  32   8  33   8  34   8  35   8
M  ISO  8  36   8  37  13  38  13  39  13  40  13  41  13  42  13  43  13
M  ISO  2  44  13  45  13
M  END
>  <minimizedAffinity>  (1) 
-5.37357569

>  <minimizedRMSD>  (1) 
0.703453541

$$$$
