
     RDKit          3D

 34 36  0  0  0  0  0  0  0  0999 V2000
   36.3260   30.4120   39.5760 C   0  0  0  0  0  0  0  0  0  0  0  0
   36.9260   31.6560   39.7720 C   0  0  0  0  0  0  0  0  0  0  0  0
   37.6020   32.2640   38.7430 C   0  0  0  0  0  0  0  0  0  0  0  0
   37.7070   31.6750   37.5090 C   0  0  0  0  0  0  0  0  0  0  0  0
   37.1110   30.4500   37.3250 C   0  0  0  0  0  0  0  0  0  0  0  0
   36.4170   29.8040   38.3460 C   0  0  0  0  0  0  0  0  0  0  0  0
   35.8280   28.5230   38.0100 C   0  0  0  0  0  0  0  0  0  0  0  0
   34.5720   28.4090   37.4730 C   0  0  0  0  0  0  0  0  0  0  0  0
   33.9330   27.2640   37.1190 C   0  0  0  0  0  0  0  0  0  0  0  0
   34.5880   26.0680   37.3090 C   0  0  0  0  0  0  0  0  0  0  0  0
   35.8510   26.1420   37.8450 C   0  0  0  0  0  0  0  0  0  0  0  0
   36.3580   27.3180   38.1450 N   0  0  0  0  0  0  0  0  0  0  0  0
   35.6200   29.7670   40.6980 C   0  0  0  0  0  0  0  0  0  0  0  0
   38.1750   28.9670   43.2560 C   0  0  0  0  0  0  0  0  0  0  0  0
   38.1740   27.5680   43.2870 C   0  0  0  0  0  0  0  0  0  0  0  0
   37.2880   26.9430   42.4150 C   0  0  0  0  0  0  0  0  0  0  0  0
   36.5250   27.7080   41.6360 N   0  0  0  0  0  0  0  0  0  0  0  0
   36.5410   29.0450   41.6220 C   0  0  0  0  0  0  0  0  0  0  0  0
   37.3840   29.6560   42.4510 N   0  0  0  0  0  0  0  0  0  0  0  0
   37.1270   25.5290   42.2960 N   0  0  0  0  0  0  0  0  0  0  0  0
   36.8575   32.1505   40.7522 H   0  0  0  0  0  0  0  0  0  0  0  0
   38.0696   33.2452   38.9122 H   0  0  0  0  0  0  0  0  0  0  0  0
   38.2520   32.1682   36.6906 H   0  0  0  0  0  0  0  0  0  0  0  0
   37.1843   29.9645   36.3407 H   0  0  0  0  0  0  0  0  0  0  0  0
   34.0214   29.3474   37.3111 H   0  0  0  0  0  0  0  0  0  0  0  0
   32.9196   27.2915   36.6921 H   0  0  0  0  0  0  0  0  0  0  0  0
   34.1253   25.1054   37.0459 H   0  0  0  0  0  0  0  0  0  0  0  0
   36.4331   25.2256   38.0217 H   0  0  0  0  0  0  0  0  0  0  0  0
   35.0856   30.5410   41.2684 H   0  0  0  0  0  0  0  0  0  0  0  0
   34.9296   29.0244   40.2716 H   0  0  0  0  0  0  0  0  0  0  0  0
   38.8574   29.5124   43.9244 H   0  0  0  0  0  0  0  0  0  0  0  0
   38.8326   26.9979   43.9588 H   0  0  0  0  0  0  0  0  0  0  0  0
   36.4479   25.1427   41.6248 H   0  0  0  0  0  0  0  0  0  0  0  0
   37.6900   24.8955   42.8814 H   0  0  0  0  0  0  0  0  0  0  0  0
  1  2  2  0
  1 13  1  0
  3  2  1  0
  4  3  2  0
  5  4  1  0
  5  6  2  0
  6  1  1  0
  7 12  1  0
  7  6  1  0
  8  7  2  0
  9 10  2  0
  9  8  1  0
 10 11  1  0
 11 12  2  0
 13 18  1  0
 14 15  2  0
 16 15  1  0
 17 16  2  0
 18 17  1  0
 18 19  2  0
 19 14  1  0
 20 16  1  0
  2 21  1  0
  3 22  1  0
  4 23  1  0
  5 24  1  0
  8 25  1  0
  9 26  1  0
 10 27  1  0
 11 28  1  0
 13 29  1  0
 13 30  1  0
 14 31  1  0
 15 32  1  0
 20 33  1  0
 20 34  1  0
M  ISO  8  21  14  22  14  23  14  24  14  25  14  26  14  27  14  28  14
M  ISO  4  29   8  30   8  31  14  32  14
M  END
>  <minimizedAffinity>  (1) 
-5.45278168

>  <minimizedRMSD>  (1) 
0.250067413

$$$$
