
     RDKit          3D

 30 32  0  0  0  0  0  0  0  0999 V2000
   36.3180   30.3960   39.5570 C   0  0  0  0  0  0  0  0  0  0  0  0
   36.9070   31.6440   39.7380 C   0  0  0  0  0  0  0  0  0  0  0  0
   37.5690   32.2200   38.6790 C   0  0  0  0  0  0  0  0  0  0  0  0
   37.6770   31.6220   37.4500 C   0  0  0  0  0  0  0  0  0  0  0  0
   37.0870   30.3830   37.2870 C   0  0  0  0  0  0  0  0  0  0  0  0
   36.4030   29.7620   38.3400 C   0  0  0  0  0  0  0  0  0  0  0  0
   35.8170   28.4680   38.0270 C   0  0  0  0  0  0  0  0  0  0  0  0
   34.5740   28.2940   37.5460 N   0  0  0  0  0  0  0  0  0  0  0  0
   34.3030   27.0370   37.3650 O   0  0  0  0  0  0  0  0  0  0  0  0
   35.3240   26.3180   37.7050 C   0  0  0  0  0  0  0  0  0  0  0  0
   36.2440   27.2010   38.1090 N   0  0  0  0  0  0  0  0  0  0  0  0
   35.6080   29.7420   40.6730 C   0  0  0  0  0  0  0  0  0  0  0  0
   38.1700   28.9840   43.2440 C   0  0  0  0  0  0  0  0  0  0  0  0
   38.1710   27.5710   43.2750 C   0  0  0  0  0  0  0  0  0  0  0  0
   37.2790   26.9550   42.3990 C   0  0  0  0  0  0  0  0  0  0  0  0
   36.5100   27.7020   41.6170 N   0  0  0  0  0  0  0  0  0  0  0  0
   36.5320   29.0430   41.6110 C   0  0  0  0  0  0  0  0  0  0  0  0
   37.3730   29.6650   42.4360 N   0  0  0  0  0  0  0  0  0  0  0  0
   37.1420   25.5340   42.3050 N   0  0  0  0  0  0  0  0  0  0  0  0
   36.8443   32.1590   40.7080 H   0  0  0  0  0  0  0  0  0  0  0  0
   38.0335   33.2064   38.8248 H   0  0  0  0  0  0  0  0  0  0  0  0
   38.2138   32.1107   36.6236 H   0  0  0  0  0  0  0  0  0  0  0  0
   37.1557   29.8756   36.3134 H   0  0  0  0  0  0  0  0  0  0  0  0
   35.4151   25.2224   37.6696 H   0  0  0  0  0  0  0  0  0  0  0  0
   35.0510   30.5077   41.2328 H   0  0  0  0  0  0  0  0  0  0  0  0
   34.9365   28.9849   40.2418 H   0  0  0  0  0  0  0  0  0  0  0  0
   38.8511   29.5335   43.9105 H   0  0  0  0  0  0  0  0  0  0  0  0
   38.8297   26.9975   43.9437 H   0  0  0  0  0  0  0  0  0  0  0  0
   36.4686   25.1243   41.6420 H   0  0  0  0  0  0  0  0  0  0  0  0
   37.7168   24.9207   42.9003 H   0  0  0  0  0  0  0  0  0  0  0  0
  1  2  2  0
  1 12  1  0
  3  2  1  0
  4  3  2  0
  5  4  1  0
  5  6  2  0
  6  1  1  0
  7 11  1  0
  7  6  1  0
  8  7  2  0
  9  8  1  0
  9 10  1  0
 10 11  2  0
 12 17  1  0
 13 14  2  0
 15 14  1  0
 16 15  2  0
 17 16  1  0
 17 18  2  0
 18 13  1  0
 19 15  1  0
  2 20  1  0
  3 21  1  0
  4 22  1  0
  5 23  1  0
 10 24  1  0
 12 25  1  0
 12 26  1  0
 13 27  1  0
 14 28  1  0
 19 29  1  0
 19 30  1  0
M  ISO  8  20  14  21  14  22  14  23  14  24  14  25   8  26   8  27  14
M  ISO  1  28  14
M  END
>  <minimizedAffinity>  (1) 
-5.11123753

>  <minimizedRMSD>  (1) 
0.420401096

$$$$
