
     RDKit          3D

 32 34  0  0  0  0  0  0  0  0999 V2000
   36.3430   30.4340   39.5530 C   0  0  0  0  0  0  0  0  0  0  0  0
   36.9580   31.6570   39.8030 C   0  0  0  0  0  0  0  0  0  0  0  0
   37.6190   32.2310   38.7240 C   0  0  0  0  0  0  0  0  0  0  0  0
   37.6920   31.6680   37.4690 C   0  0  0  0  0  0  0  0  0  0  0  0
   37.0740   30.4560   37.2500 C   0  0  0  0  0  0  0  0  0  0  0  0
   36.4020   29.8490   38.3030 C   0  0  0  0  0  0  0  0  0  0  0  0
   35.7890   28.5990   38.0030 N   0  0  0  0  0  0  0  0  0  0  0  0
   34.5520   28.6970   37.4450 C   0  0  0  0  0  0  0  0  0  0  0  0
   34.0680   27.4190   37.2000 C   0  0  0  0  0  0  0  0  0  0  0  0
   35.0280   26.5740   37.6190 N   0  0  0  0  0  0  0  0  0  0  0  0
   36.0620   27.2830   38.1010 C   0  0  0  0  0  0  0  0  0  0  0  0
   35.6090   29.7420   40.6530 C   0  0  0  0  0  0  0  0  0  0  0  0
   38.1680   28.9950   43.2450 C   0  0  0  0  0  0  0  0  0  0  0  0
   38.1600   27.5960   43.2760 C   0  0  0  0  0  0  0  0  0  0  0  0
   37.2740   26.9630   42.4060 C   0  0  0  0  0  0  0  0  0  0  0  0
   36.5020   27.7070   41.6090 N   0  0  0  0  0  0  0  0  0  0  0  0
   36.5270   29.0500   41.5950 C   0  0  0  0  0  0  0  0  0  0  0  0
   37.3660   29.6690   42.4190 N   0  0  0  0  0  0  0  0  0  0  0  0
   37.1340   25.5480   42.3050 N   0  0  0  0  0  0  0  0  0  0  0  0
   36.9231   32.1385   40.7914 H   0  0  0  0  0  0  0  0  0  0  0  0
   38.1169   33.1990   38.8825 H   0  0  0  0  0  0  0  0  0  0  0  0
   38.2332   32.1761   36.6572 H   0  0  0  0  0  0  0  0  0  0  0  0
   37.1122   29.9783   36.2599 H   0  0  0  0  0  0  0  0  0  0  0  0
   34.0221   29.6353   37.2241 H   0  0  0  0  0  0  0  0  0  0  0  0
   33.0984   27.1518   36.7546 H   0  0  0  0  0  0  0  0  0  0  0  0
   36.9884   26.8555   38.5122 H   0  0  0  0  0  0  0  0  0  0  0  0
   35.0245   30.4875   41.2120 H   0  0  0  0  0  0  0  0  0  0  0  0
   34.9583   28.9813   40.1971 H   0  0  0  0  0  0  0  0  0  0  0  0
   38.8461   29.5475   43.9120 H   0  0  0  0  0  0  0  0  0  0  0  0
   38.8171   27.0270   43.9502 H   0  0  0  0  0  0  0  0  0  0  0  0
   36.4592   25.1434   41.6403 H   0  0  0  0  0  0  0  0  0  0  0  0
   37.7076   24.9302   42.8968 H   0  0  0  0  0  0  0  0  0  0  0  0
  1  2  2  0
  1 12  1  0
  3  2  1  0
  4  3  2  0
  5  4  1  0
  5  6  2  0
  6  1  1  0
  7 11  1  0
  7  6  1  0
  8  7  1  0
  9  8  2  0
  9 10  1  0
 10 11  2  0
 12 17  1  0
 13 14  2  0
 15 14  1  0
 16 15  2  0
 17 16  1  0
 17 18  2  0
 18 13  1  0
 19 15  1  0
  2 20  1  0
  3 21  1  0
  4 22  1  0
  5 23  1  0
  8 24  1  0
  9 25  1  0
 11 26  1  0
 12 27  1  0
 12 28  1  0
 13 29  1  0
 14 30  1  0
 19 31  1  0
 19 32  1  0
M  ISO  8  20  14  21  14  22  14  23  14  24  14  25  14  26  14  27   8
M  ISO  3  28   8  29  14  30  14
M  END
>  <minimizedAffinity>  (1) 
-5.09202576

>  <minimizedRMSD>  (1) 
0.328743726

$$$$
