
     RDKit          3D

 31 33  0  0  0  0  0  0  0  0999 V2000
   36.3420   30.4090   39.5600 C   0  0  0  0  0  0  0  0  0  0  0  0
   36.9030   31.6450   39.7760 C   0  0  0  0  0  0  0  0  0  0  0  0
   37.5690   32.2500   38.7160 C   0  0  0  0  0  0  0  0  0  0  0  0
   37.6890   31.6700   37.4770 C   0  0  0  0  0  0  0  0  0  0  0  0
   37.1160   30.4180   37.2790 C   0  0  0  0  0  0  0  0  0  0  0  0
   36.4470   29.7970   38.3210 C   0  0  0  0  0  0  0  0  0  0  0  0
   35.8860   28.5200   38.0440 N   0  0  0  0  0  0  0  0  0  0  0  0
   34.6430   28.4890   37.5050 C   0  0  0  0  0  0  0  0  0  0  0  0
   34.2970   27.1890   37.3200 N   0  0  0  0  0  0  0  0  0  0  0  0
   35.3400   26.4200   37.7490 C   0  0  0  0  0  0  0  0  0  0  0  0
   36.2850   27.2610   38.1810 N   0  0  0  0  0  0  0  0  0  0  0  0
   35.6170   29.7100   40.6490 C   0  0  0  0  0  0  0  0  0  0  0  0
   38.1480   28.9910   43.2470 C   0  0  0  0  0  0  0  0  0  0  0  0
   38.1620   27.5850   43.2900 C   0  0  0  0  0  0  0  0  0  0  0  0
   37.2950   26.9300   42.4180 C   0  0  0  0  0  0  0  0  0  0  0  0
   36.5090   27.6660   41.6010 N   0  0  0  0  0  0  0  0  0  0  0  0
   36.5280   29.0140   41.5930 C   0  0  0  0  0  0  0  0  0  0  0  0
   37.3530   29.6550   42.4210 N   0  0  0  0  0  0  0  0  0  0  0  0
   37.1690   25.5270   42.3190 N   0  0  0  0  0  0  0  0  0  0  0  0
   36.8275   32.1395   40.7557 H   0  0  0  0  0  0  0  0  0  0  0  0
   38.0210   33.2398   38.8774 H   0  0  0  0  0  0  0  0  0  0  0  0
   38.2237   32.1816   36.6632 H   0  0  0  0  0  0  0  0  0  0  0  0
   37.1938   29.9234   36.2996 H   0  0  0  0  0  0  0  0  0  0  0  0
   34.0228   29.3639   37.2602 H   0  0  0  0  0  0  0  0  0  0  0  0
   35.3927   25.3213   37.7408 H   0  0  0  0  0  0  0  0  0  0  0  0
   35.0278   30.4501   41.2104 H   0  0  0  0  0  0  0  0  0  0  0  0
   34.9765   28.9465   40.1834 H   0  0  0  0  0  0  0  0  0  0  0  0
   38.8147   29.5539   43.9168 H   0  0  0  0  0  0  0  0  0  0  0  0
   38.8219   27.0325   43.9751 H   0  0  0  0  0  0  0  0  0  0  0  0
   36.5042   25.1157   41.6484 H   0  0  0  0  0  0  0  0  0  0  0  0
   37.7419   24.9150   42.9174 H   0  0  0  0  0  0  0  0  0  0  0  0
  1  2  2  0
  1 12  1  0
  3  2  1  0
  4  3  2  0
  5  4  1  0
  5  6  2  0
  6  1  1  0
  7 11  1  0
  7  6  1  0
  8  7  1  0
  9  8  2  0
  9 10  1  0
 10 11  2  0
 12 17  1  0
 13 14  2  0
 15 14  1  0
 16 15  2  0
 17 16  1  0
 17 18  2  0
 18 13  1  0
 19 15  1  0
  2 20  1  0
  3 21  1  0
  4 22  1  0
  5 23  1  0
  8 24  1  0
 10 25  1  0
 12 26  1  0
 12 27  1  0
 13 28  1  0
 14 29  1  0
 19 30  1  0
 19 31  1  0
M  ISO  8  20  14  21  14  22  14  23  14  24  14  25  14  26   8  27   8
M  ISO  2  28  14  29  14
M  END
>  <minimizedAffinity>  (1) 
-5.06898165

>  <minimizedRMSD>  (1) 
0.149902701

$$$$
