
     RDKit          3D

 31 32  0  0  0  0  0  0  0  0999 V2000
   35.6180   29.7620   40.6900 C   0  0  0  0  0  0  0  0  0  0  0  0
   38.1670   28.9910   43.2610 C   0  0  0  0  0  0  0  0  0  0  0  0
   38.1610   27.5880   43.2750 C   0  0  0  0  0  0  0  0  0  0  0  0
   37.2750   26.9410   42.3930 C   0  0  0  0  0  0  0  0  0  0  0  0
   36.5010   27.6980   41.6050 N   0  0  0  0  0  0  0  0  0  0  0  0
   36.5240   29.0410   41.6100 C   0  0  0  0  0  0  0  0  0  0  0  0
   37.3650   29.6590   42.4460 N   0  0  0  0  0  0  0  0  0  0  0  0
   37.1460   25.5350   42.2830 N   0  0  0  0  0  0  0  0  0  0  0  0
   36.3430   30.4350   39.5670 C   0  0  0  0  0  0  0  0  0  0  0  0
   36.9760   31.6340   39.7840 C   0  0  0  0  0  0  0  0  0  0  0  0
   37.6270   32.2060   38.7120 C   0  0  0  0  0  0  0  0  0  0  0  0
   37.6730   31.6400   37.4440 C   0  0  0  0  0  0  0  0  0  0  0  0
   37.0170   30.4250   37.2700 C   0  0  0  0  0  0  0  0  0  0  0  0
   36.3540   29.8220   38.3200 C   0  0  0  0  0  0  0  0  0  0  0  0
   35.6730   28.5270   38.0700 C   0  0  0  0  0  0  0  0  0  0  0  0
   34.3460   28.7210   37.3280 C   0  0  0  0  0  0  0  0  0  0  0  0
   34.9036   29.0416   40.2648 H   0  0  0  0  0  0  0  0  0  0  0  0
   35.1115   30.5457   41.2725 H   0  0  0  0  0  0  0  0  0  0  0  0
   38.8433   29.5404   43.9324 H   0  0  0  0  0  0  0  0  0  0  0  0
   38.8203   27.0182   43.9463 H   0  0  0  0  0  0  0  0  0  0  0  0
   36.4754   25.1301   41.6142 H   0  0  0  0  0  0  0  0  0  0  0  0
   37.7228   24.9173   42.8718 H   0  0  0  0  0  0  0  0  0  0  0  0
   36.9641   32.1178   40.7718 H   0  0  0  0  0  0  0  0  0  0  0  0
   38.1398   33.1663   38.8696 H   0  0  0  0  0  0  0  0  0  0  0  0
   38.2041   32.1302   36.6148 H   0  0  0  0  0  0  0  0  0  0  0  0
   37.0269   29.9390   36.2832 H   0  0  0  0  0  0  0  0  0  0  0  0
   36.3316   27.8888   37.4626 H   0  0  0  0  0  0  0  0  0  0  0  0
   35.4584   28.0581   39.0416 H   0  0  0  0  0  0  0  0  0  0  0  0
   33.5318   28.8400   38.0580 H   0  0  0  0  0  0  0  0  0  0  0  0
   34.4069   29.6198   36.6968 H   0  0  0  0  0  0  0  0  0  0  0  0
   34.1470   27.8424   36.6968 H   0  0  0  0  0  0  0  0  0  0  0  0
  1  6  1  0
  2  3  2  0
  4  3  1  0
  5  6  1  0
  5  4  2  0
  6  7  2  0
  7  2  1  0
  8  4  1  0
  9 10  2  0
  9  1  1  0
 11 10  1  0
 12 11  2  0
 13 12  1  0
 13 14  2  0
 14  9  1  0
 15 14  1  0
 16 15  1  0
  1 17  1  0
  1 18  1  0
  2 19  1  0
  3 20  1  0
  8 21  1  0
  8 22  1  0
 10 23  1  0
 11 24  1  0
 12 25  1  0
 13 26  1  0
 15 27  1  0
 15 28  1  0
 16 29  1  0
 16 30  1  0
 16 31  1  0
M  ISO  8  17   8  18   8  19  14  20  14  23  14  24  14  25  14  26  14
M  ISO  5  27   8  28   8  29   8  30   8  31   8
M  END
>  <minimizedAffinity>  (1) 
-4.88345671

>  <minimizedRMSD>  (1) 
0.462497562

$$$$
