
     RDKit          3D

 28 29  0  0  0  0  0  0  0  0999 V2000
   35.6370   29.5620   40.7010 C   0  0  0  0  0  0  0  0  0  0  0  0
   38.1530   28.8560   43.3190 C   0  0  0  0  0  0  0  0  0  0  0  0
   38.2390   27.4440   43.2990 C   0  0  0  0  0  0  0  0  0  0  0  0
   37.4140   26.7920   42.3710 C   0  0  0  0  0  0  0  0  0  0  0  0
   36.6220   27.5270   41.5870 N   0  0  0  0  0  0  0  0  0  0  0  0
   36.5680   28.8660   41.6360 C   0  0  0  0  0  0  0  0  0  0  0  0
   37.3450   29.5110   42.5120 N   0  0  0  0  0  0  0  0  0  0  0  0
   37.3500   25.3770   42.1910 N   0  0  0  0  0  0  0  0  0  0  0  0
   36.3430   30.3830   39.7020 C   0  0  0  0  0  0  0  0  0  0  0  0
   36.7780   31.6530   39.9990 C   0  0  0  0  0  0  0  0  0  0  0  0
   37.4360   32.3540   39.0070 C   0  0  0  0  0  0  0  0  0  0  0  0
   37.6780   31.8620   37.7490 C   0  0  0  0  0  0  0  0  0  0  0  0
   37.2430   30.5910   37.4520 C   0  0  0  0  0  0  0  0  0  0  0  0
   36.5850   29.8850   38.4390 C   0  0  0  0  0  0  0  0  0  0  0  0
   36.1700   28.5600   37.9910 C   0  0  0  0  0  0  0  0  0  0  0  0
   36.8260   27.4860   38.0580 O   0  0  0  0  0  0  0  0  0  0  0  0
   35.0540   28.0110   37.3950 O   0  0  0  0  0  0  0  0  0  0  0  0
   35.0368   28.8056   40.1741 H   0  0  0  0  0  0  0  0  0  0  0  0
   35.0072   30.2362   41.2999 H   0  0  0  0  0  0  0  0  0  0  0  0
   38.7772   29.4210   44.0269 H   0  0  0  0  0  0  0  0  0  0  0  0
   38.9122   26.8910   43.9706 H   0  0  0  0  0  0  0  0  0  0  0  0
   36.7158   24.9758   41.4855 H   0  0  0  0  0  0  0  0  0  0  0  0
   37.9380   24.7575   42.7666 H   0  0  0  0  0  0  0  0  0  0  0  0
   36.6081   32.0954   40.9917 H   0  0  0  0  0  0  0  0  0  0  0  0
   37.7879   33.3698   39.2400 H   0  0  0  0  0  0  0  0  0  0  0  0
   38.2059   32.4679   36.9978 H   0  0  0  0  0  0  0  0  0  0  0  0
   37.4143   30.1509   36.4585 H   0  0  0  0  0  0  0  0  0  0  0  0
   34.2779   28.5847   37.1744 H   0  0  0  0  0  0  0  0  0  0  0  0
  1  6  1  0
  3  2  2  0
  4  3  1  0
  5  6  1  0
  5  4  2  0
  6  7  2  0
  7  2  1  0
  8  4  1  0
  9 10  2  0
  9  1  1  0
 11 10  1  0
 12 11  2  0
 13 12  1  0
 13 14  2  0
 14  9  1  0
 15 16  2  0
 15 14  1  0
 17 15  1  0
  1 18  1  0
  1 19  1  0
  2 20  1  0
  3 21  1  0
  8 22  1  0
  8 23  1  0
 10 24  1  0
 11 25  1  0
 12 26  1  0
 13 27  1  0
 17 28  1  0
M  ISO  8  18   8  19   8  20  14  21  14  24  14  25  14  26  14  27  14
M  ISO  1  28   3
M  END
>  <minimizedAffinity>  (1) 
-4.80111504

>  <minimizedRMSD>  (1) 
0.472460866

$$$$
