
     RDKit          3D

 26 27  0  0  0  0  0  0  0  0999 V2000
   35.6410   29.7390   40.6410 C   0  0  0  0  0  0  0  0  0  0  0  0
   38.1590   28.9920   43.2500 C   0  0  0  0  0  0  0  0  0  0  0  0
   38.1580   27.5870   43.2840 C   0  0  0  0  0  0  0  0  0  0  0  0
   37.2870   26.9530   42.4040 C   0  0  0  0  0  0  0  0  0  0  0  0
   36.5160   27.6840   41.5930 N   0  0  0  0  0  0  0  0  0  0  0  0
   36.5430   29.0380   41.5870 C   0  0  0  0  0  0  0  0  0  0  0  0
   37.3720   29.6610   42.4230 N   0  0  0  0  0  0  0  0  0  0  0  0
   37.1560   25.5390   42.3050 N   0  0  0  0  0  0  0  0  0  0  0  0
   36.3740   30.4350   39.5560 C   0  0  0  0  0  0  0  0  0  0  0  0
   36.8790   31.6980   39.7790 C   0  0  0  0  0  0  0  0  0  0  0  0
   37.5550   32.2930   38.7190 C   0  0  0  0  0  0  0  0  0  0  0  0
   37.7400   31.6990   37.4860 C   0  0  0  0  0  0  0  0  0  0  0  0
   37.2200   30.4310   37.2960 C   0  0  0  0  0  0  0  0  0  0  0  0
   36.5410   29.8030   38.3250 C   0  0  0  0  0  0  0  0  0  0  0  0
   36.0260   28.5450   38.1300 O   0  0  0  0  0  0  0  0  0  0  0  0
   34.9629   29.0001   40.1891 H   0  0  0  0  0  0  0  0  0  0  0  0
   35.0915   30.5022   41.2116 H   0  0  0  0  0  0  0  0  0  0  0  0
   38.8276   29.5468   43.9246 H   0  0  0  0  0  0  0  0  0  0  0  0
   38.8085   27.0212   43.9672 H   0  0  0  0  0  0  0  0  0  0  0  0
   36.4922   25.1291   41.6325 H   0  0  0  0  0  0  0  0  0  0  0  0
   37.7250   24.9258   42.9059 H   0  0  0  0  0  0  0  0  0  0  0  0
   36.7539   32.2088   40.7451 H   0  0  0  0  0  0  0  0  0  0  0  0
   37.9685   33.3007   38.8725 H   0  0  0  0  0  0  0  0  0  0  0  0
   38.2828   32.2169   36.6816 H   0  0  0  0  0  0  0  0  0  0  0  0
   37.3462   29.9231   36.3285 H   0  0  0  0  0  0  0  0  0  0  0  0
   35.5392   28.0904   38.8624 H   0  0  0  0  0  0  0  0  0  0  0  0
  1  6  1  0
  2  3  2  0
  4  3  1  0
  5  4  2  0
  6  5  1  0
  6  7  2  0
  7  2  1  0
  8  4  1  0
  9 10  2  0
  9  1  1  0
 11 10  1  0
 12 11  2  0
 13 12  1  0
 13 14  2  0
 14  9  1  0
 15 14  1  0
  1 16  1  0
  1 17  1  0
  2 18  1  0
  3 19  1  0
  8 20  1  0
  8 21  1  0
 10 22  1  0
 11 23  1  0
 12 24  1  0
 13 25  1  0
 15 26  1  0
M  ISO  8  16   8  17   8  18  14  19  14  22  14  23  14  24  14  25  14
M  ISO  1  26   3
M  END
>  <minimizedAffinity>  (1) 
-4.7219882

>  <minimizedRMSD>  (1) 
0.0404382795

$$$$
