
     RDKit          3D

 41 43  0  0  0  0  0  0  0  0999 V2000
   36.3120   30.3360   39.9840 C   0  0  0  0  0  0  0  0  0  0  0  0
   36.6660   31.5640   40.4850 C   0  0  0  0  0  0  0  0  0  0  0  0
   37.2730   32.4660   39.6450 C   0  0  0  0  0  0  0  0  0  0  0  0
   37.5450   32.2020   38.3270 C   0  0  0  0  0  0  0  0  0  0  0  0
   37.1900   30.9780   37.8350 C   0  0  0  0  0  0  0  0  0  0  0  0
   36.5810   30.0560   38.6510 C   0  0  0  0  0  0  0  0  0  0  0  0
   35.6540   29.3380   40.8660 C   0  0  0  0  0  0  0  0  0  0  0  0
   38.1820   28.5720   43.4490 C   0  0  0  0  0  0  0  0  0  0  0  0
   38.3370   27.1850   43.3090 C   0  0  0  0  0  0  0  0  0  0  0  0
   37.5730   26.5490   42.3360 C   0  0  0  0  0  0  0  0  0  0  0  0
   36.7450   27.2900   41.5980 N   0  0  0  0  0  0  0  0  0  0  0  0
   36.6090   28.6260   41.7470 C   0  0  0  0  0  0  0  0  0  0  0  0
   37.3300   29.2570   42.6730 N   0  0  0  0  0  0  0  0  0  0  0  0
   37.6280   25.1630   42.0860 N   0  0  0  0  0  0  0  0  0  0  0  0
   36.1820   28.7000   38.1280 C   0  0  0  0  0  0  0  0  0  0  0  0
   32.7780   29.2360   35.5620 C   0  0  0  0  0  0  0  0  0  0  0  0
   34.0610   29.1610   35.0210 C   0  0  0  0  0  0  0  0  0  0  0  0
   35.1490   28.9880   35.8620 C   0  0  0  0  0  0  0  0  0  0  0  0
   35.0070   28.8870   37.2160 C   0  0  0  0  0  0  0  0  0  0  0  0
   33.7110   28.9650   37.7370 C   0  0  0  0  0  0  0  0  0  0  0  0
   32.6010   29.1370   36.9300 C   0  0  0  0  0  0  0  0  0  0  0  0
   31.3370   29.4530   34.5960 S   0  0  0  0  0  0  0  0  0  0  0  0
   31.3660   30.7820   33.8670 O   0  0  0  0  0  0  0  0  0  0  0  0
   31.1400   28.3310   33.6380 O   0  0  0  0  0  0  0  0  0  0  0  0
   36.4680   31.8203   41.5362 H   0  0  0  0  0  0  0  0  0  0  0  0
   37.5549   33.4491   40.0499 H   0  0  0  0  0  0  0  0  0  0  0  0
   38.0332   32.9515   37.6868 H   0  0  0  0  0  0  0  0  0  0  0  0
   37.3924   30.7301   36.7826 H   0  0  0  0  0  0  0  0  0  0  0  0
   34.9171   29.8583   41.4956 H   0  0  0  0  0  0  0  0  0  0  0  0
   35.1812   28.5861   40.2171 H   0  0  0  0  0  0  0  0  0  0  0  0
   38.7700   29.1073   44.2091 H   0  0  0  0  0  0  0  0  0  0  0  0
   39.0361   26.6216   43.9445 H   0  0  0  0  0  0  0  0  0  0  0  0
   37.0374   24.7484   41.3510 H   0  0  0  0  0  0  0  0  0  0  0  0
   38.2588   24.5647   42.6383 H   0  0  0  0  0  0  0  0  0  0  0  0
   37.0192   28.2523   37.5724 H   0  0  0  0  0  0  0  0  0  0  0  0
   35.9194   28.0299   38.9598 H   0  0  0  0  0  0  0  0  0  0  0  0
   34.2087   29.2386   33.9337 H   0  0  0  0  0  0  0  0  0  0  0  0
   36.1570   28.9304   35.4254 H   0  0  0  0  0  0  0  0  0  0  0  0
   33.5700   28.8869   38.8251 H   0  0  0  0  0  0  0  0  0  0  0  0
   31.5940   29.1941   37.3690 H   0  0  0  0  0  0  0  0  0  0  0  0
   30.2695   29.4550   35.4547 H   0  0  0  0  0  0  0  0  0  0  0  0
  1  2  2  0
  1  7  1  0
  3  2  1  0
  4  3  2  0
  5  4  1  0
  5  6  2  0
  6  1  1  0
  7 12  1  0
  9  8  2  0
 10  9  1  0
 11 12  1  0
 11 10  2  0
 12 13  2  0
 13  8  1  0
 14 10  1  0
 15  6  1  0
 16 21  2  0
 17 16  1  0
 17 18  2  0
 18 19  1  0
 19 20  2  0
 19 15  1  0
 21 20  1  0
 22 16  1  0
 23 22  2  0
 24 22  2  0
  2 25  1  0
  3 26  1  0
  4 27  1  0
  5 28  1  0
  7 29  1  0
  7 30  1  0
  8 31  1  0
  9 32  1  0
 14 33  1  0
 14 34  1  0
 15 35  1  0
 15 36  1  0
 17 37  1  0
 18 38  1  0
 20 39  1  0
 21 40  1  0
 22 41  1  0
M  ISO  8  25  14  26  14  27  14  28  14  29   8  30   8  31  14  32  14
M  ISO  7  35   8  36   8  37  14  38  14  39  14  40  14  41  11
M  END
>  <minimizedAffinity>  (1) 
-5.87633705

>  <minimizedRMSD>  (1) 
2.9264369

$$$$
