
     RDKit          3D

 36 38  0  0  0  0  0  0  0  0999 V2000
   36.2910   30.3320   39.9600 C   0  0  0  0  0  0  0  0  0  0  0  0
   36.6820   31.5590   40.4870 C   0  0  0  0  0  0  0  0  0  0  0  0
   37.2860   32.4590   39.6440 C   0  0  0  0  0  0  0  0  0  0  0  0
   37.5230   32.2160   38.3170 C   0  0  0  0  0  0  0  0  0  0  0  0
   37.1340   31.0040   37.8030 C   0  0  0  0  0  0  0  0  0  0  0  0
   36.5220   30.0720   38.6290 C   0  0  0  0  0  0  0  0  0  0  0  0
   35.6380   29.3440   40.8450 C   0  0  0  0  0  0  0  0  0  0  0  0
   38.1480   28.5900   43.4400 C   0  0  0  0  0  0  0  0  0  0  0  0
   38.3180   27.2090   43.3070 C   0  0  0  0  0  0  0  0  0  0  0  0
   37.5620   26.5680   42.3230 C   0  0  0  0  0  0  0  0  0  0  0  0
   36.7320   27.3100   41.5790 N   0  0  0  0  0  0  0  0  0  0  0  0
   36.5930   28.6310   41.7330 C   0  0  0  0  0  0  0  0  0  0  0  0
   37.3020   29.2690   42.6650 N   0  0  0  0  0  0  0  0  0  0  0  0
   37.6290   25.1880   42.0760 N   0  0  0  0  0  0  0  0  0  0  0  0
   36.0880   28.7430   38.0890 C   0  0  0  0  0  0  0  0  0  0  0  0
   34.9430   28.9160   37.1520 C   0  0  0  0  0  0  0  0  0  0  0  0
   33.6630   28.9750   37.7060 C   0  0  0  0  0  0  0  0  0  0  0  0
   32.5090   29.1320   36.9670 C   0  0  0  0  0  0  0  0  0  0  0  0
   32.6310   29.2360   35.6260 N   0  0  0  0  0  0  0  0  0  0  0  0
   33.8710   29.1780   35.0940 C   0  0  0  0  0  0  0  0  0  0  0  0
   35.0070   29.0250   35.7940 N   0  0  0  0  0  0  0  0  0  0  0  0
   36.5124   31.8006   41.5466 H   0  0  0  0  0  0  0  0  0  0  0  0
   37.5970   33.4297   40.0576 H   0  0  0  0  0  0  0  0  0  0  0  0
   38.0108   32.9700   37.6817 H   0  0  0  0  0  0  0  0  0  0  0  0
   37.3066   30.7728   36.7415 H   0  0  0  0  0  0  0  0  0  0  0  0
   34.9027   29.8691   41.4724 H   0  0  0  0  0  0  0  0  0  0  0  0
   35.1663   28.5887   40.1992 H   0  0  0  0  0  0  0  0  0  0  0  0
   38.7269   29.1303   44.2035 H   0  0  0  0  0  0  0  0  0  0  0  0
   39.0162   26.6518   43.9488 H   0  0  0  0  0  0  0  0  0  0  0  0
   37.0477   24.7684   41.3365 H   0  0  0  0  0  0  0  0  0  0  0  0
   38.2594   24.5949   42.6343 H   0  0  0  0  0  0  0  0  0  0  0  0
   36.9282   28.2767   37.5535 H   0  0  0  0  0  0  0  0  0  0  0  0
   35.7728   28.1019   38.9255 H   0  0  0  0  0  0  0  0  0  0  0  0
   33.5690   28.8912   38.7988 H   0  0  0  0  0  0  0  0  0  0  0  0
   31.5231   29.1712   37.4532 H   0  0  0  0  0  0  0  0  0  0  0  0
   33.9574   29.2628   34.0007 H   0  0  0  0  0  0  0  0  0  0  0  0
  1  2  2  0
  1  7  1  0
  3  2  1  0
  4  3  2  0
  5  4  1  0
  5  6  2  0
  6  1  1  0
  7 12  1  0
  9  8  2  0
 10  9  1  0
 11 12  1  0
 11 10  2  0
 12 13  2  0
 13  8  1  0
 14 10  1  0
 15  6  1  0
 16 17  2  0
 16 15  1  0
 18 17  1  0
 19 18  2  0
 20 19  1  0
 20 21  2  0
 21 16  1  0
  2 22  1  0
  3 23  1  0
  4 24  1  0
  5 25  1  0
  7 26  1  0
  7 27  1  0
  8 28  1  0
  9 29  1  0
 14 30  1  0
 14 31  1  0
 15 32  1  0
 15 33  1  0
 17 34  1  0
 18 35  1  0
 20 36  1  0
M  ISO  8  22  14  23  14  24  14  25  14  26   8  27   8  28  14  29  14
M  ISO  5  32   8  33   8  34  14  35  14  36  14
M  END
>  <minimizedAffinity>  (1) 
-5.48825073

>  <minimizedRMSD>  (1) 
1.81680822

$$$$
