
     RDKit          3D

 35 36  0  0  0  0  0  0  0  0999 V2000
   36.3620   30.2840   39.8740 C   0  0  0  0  0  0  0  0  0  0  0  0
   36.5830   31.4830   40.5440 C   0  0  0  0  0  0  0  0  0  0  0  0
   37.2000   32.5100   39.8830 C   0  0  0  0  0  0  0  0  0  0  0  0
   37.6150   32.4130   38.5690 C   0  0  0  0  0  0  0  0  0  0  0  0
   37.3940   31.2320   37.9170 C   0  0  0  0  0  0  0  0  0  0  0  0
   36.7700   30.1730   38.5700 C   0  0  0  0  0  0  0  0  0  0  0  0
   35.7010   29.1840   40.5880 C   0  0  0  0  0  0  0  0  0  0  0  0
   37.9720   28.4750   43.4250 C   0  0  0  0  0  0  0  0  0  0  0  0
   38.2240   27.0990   43.2750 C   0  0  0  0  0  0  0  0  0  0  0  0
   37.6050   26.4570   42.1970 C   0  0  0  0  0  0  0  0  0  0  0  0
   36.8220   27.1740   41.3890 N   0  0  0  0  0  0  0  0  0  0  0  0
   36.6000   28.4830   41.5560 C   0  0  0  0  0  0  0  0  0  0  0  0
   37.1750   29.1280   42.5740 N   0  0  0  0  0  0  0  0  0  0  0  0
   37.7570   25.0790   41.9110 N   0  0  0  0  0  0  0  0  0  0  0  0
   36.5370   28.8880   37.8640 C   0  0  0  0  0  0  0  0  0  0  0  0
   36.2400   29.0080   36.4720 N   0  0  0  0  0  0  0  0  0  0  0  0
   37.1020   28.5030   35.4700 C   0  0  0  0  0  0  0  0  0  0  0  0
   37.8780   27.5050   35.7490 N   0  0  0  0  0  0  0  0  0  0  0  0
   37.0510   29.1530   34.1880 N   0  0  0  0  0  0  0  0  0  0  0  0
   38.4980   27.1720   34.9640 H   0  0  0  0  0  0  0  0  0  0  0  0
   36.2662   31.6038   41.5904 H   0  0  0  0  0  0  0  0  0  0  0  0
   37.3730   33.4536   40.4212 H   0  0  0  0  0  0  0  0  0  0  0  0
   38.1068   33.2577   38.0643 H   0  0  0  0  0  0  0  0  0  0  0  0
   37.7112   31.1179   36.8699 H   0  0  0  0  0  0  0  0  0  0  0  0
   34.8428   29.5927   41.1415 H   0  0  0  0  0  0  0  0  0  0  0  0
   35.3935   28.4443   39.8342 H   0  0  0  0  0  0  0  0  0  0  0  0
   38.4389   29.0226   44.2569 H   0  0  0  0  0  0  0  0  0  0  0  0
   38.8769   26.5537   43.9724 H   0  0  0  0  0  0  0  0  0  0  0  0
   37.2740   24.6648   41.1010 H   0  0  0  0  0  0  0  0  0  0  0  0
   38.3506   24.4905   42.5129 H   0  0  0  0  0  0  0  0  0  0  0  0
   37.4430   28.2728   37.9676 H   0  0  0  0  0  0  0  0  0  0  0  0
   35.6476   28.4387   38.3300 H   0  0  0  0  0  0  0  0  0  0  0  0
   35.3687   29.4781   36.1880 H   0  0  0  0  0  0  0  0  0  0  0  0
   36.4079   29.9432   34.0364 H   0  0  0  0  0  0  0  0  0  0  0  0
   37.6575   28.8283   33.4215 H   0  0  0  0  0  0  0  0  0  0  0  0
  1  2  2  0
  1  7  1  0
  3  2  1  0
  4  3  2  0
  5  4  1  0
  5  6  2  0
  6  1  1  0
  7 12  1  0
  9  8  2  0
 10  9  1  0
 11 12  1  0
 11 10  2  0
 12 13  2  0
 13  8  1  0
 14 10  1  0
 15  6  1  0
 16 15  1  0
 17 18  2  0
 17 16  1  0
 19 17  1  0
 20 18  1  0
  2 21  1  0
  3 22  1  0
  4 23  1  0
  5 24  1  0
  7 25  1  0
  7 26  1  0
  8 27  1  0
  9 28  1  0
 14 29  1  0
 14 30  1  0
 15 31  1  0
 15 32  1  0
 16 33  1  0
 19 34  1  0
 19 35  1  0
M  ISO  8  21  14  22  14  23  14  24  14  25   8  26   8  27  14  28  14
M  ISO  2  31   8  32   8
M  END
>  <minimizedAffinity>  (1) 
-5.48611355

>  <minimizedRMSD>  (1) 
2.36120272

$$$$
