
     RDKit          3D

 32 35  0  0  0  0  0  0  0  0999 V2000
   37.3640   29.3280   40.1810 C   0  0  0  0  0  0  0  0  0  0  0  0
   36.3600   29.0510   39.2610 C   0  0  0  0  0  0  0  0  0  0  0  0
   36.5450   29.6280   38.0180 C   0  0  0  0  0  0  0  0  0  0  0  0
   37.5960   30.3940   37.6980 N   0  0  0  0  0  0  0  0  0  0  0  0
   38.5280   30.6290   38.6100 C   0  0  0  0  0  0  0  0  0  0  0  0
   38.4060   30.0950   39.8420 N   0  0  0  0  0  0  0  0  0  0  0  0
   39.6290   31.4460   38.2380 N   0  0  0  0  0  0  0  0  0  0  0  0
   40.5820   31.2860   37.2840 C   0  0  0  0  0  0  0  0  0  0  0  0
   41.3950   32.3630   37.3540 N   0  0  0  0  0  0  0  0  0  0  0  0
   40.9680   33.1990   38.3410 C   0  0  0  0  0  0  0  0  0  0  0  0
   41.4390   34.4110   38.8110 C   0  0  0  0  0  0  0  0  0  0  0  0
   42.4610   34.9490   38.3050 O   0  0  0  0  0  0  0  0  0  0  0  0
   40.8310   35.0620   39.8210 N   0  0  0  0  0  0  0  0  0  0  0  0
   39.7380   34.4640   40.3460 C   0  0  0  0  0  0  0  0  0  0  0  0
   38.9530   34.9930   41.4240 N   0  0  0  0  0  0  0  0  0  0  0  0
   39.2720   33.2890   39.8980 N   0  0  0  0  0  0  0  0  0  0  0  0
   39.8370   32.6010   38.8990 C   0  0  0  0  0  0  0  0  0  0  0  0
   37.6640   28.9450   43.8270 C   0  0  0  0  0  0  0  0  0  0  0  0
   37.0380   27.7110   44.0740 C   0  0  0  0  0  0  0  0  0  0  0  0
   36.5150   27.0180   42.9850 C   0  0  0  0  0  0  0  0  0  0  0  0
   36.6350   27.5660   41.7290 N   0  0  0  0  0  0  0  0  0  0  0  0
   37.2420   28.7500   41.5340 C   0  0  0  0  0  0  0  0  0  0  0  0
   37.7570   29.4420   42.5770 N   0  0  0  0  0  0  0  0  0  0  0  0
   35.4890   28.4238   39.5019 H   0  0  0  0  0  0  0  0  0  0  0  0
   35.7831   29.4470   37.2455 H   0  0  0  0  0  0  0  0  0  0  0  0
   40.6746   30.4403   36.5867 H   0  0  0  0  0  0  0  0  0  0  0  0
   41.1792   35.9649   40.1738 H   0  0  0  0  0  0  0  0  0  0  0  0
   38.1323   34.4735   41.7667 H   0  0  0  0  0  0  0  0  0  0  0  0
   39.2101   35.8923   41.8553 H   0  0  0  0  0  0  0  0  0  0  0  0
   38.0854   29.5152   44.6680 H   0  0  0  0  0  0  0  0  0  0  0  0
   36.9636   27.3059   45.0940 H   0  0  0  0  0  0  0  0  0  0  0  0
   36.0144   26.0488   43.1269 H   0  0  0  0  0  0  0  0  0  0  0  0
  1 22  1  0
  2  1  2  0
  3  2  1  0
  4  3  2  0
  4  5  1  0
  5  6  2  0
  6  1  1  0
  7  5  1  0
  7 17  1  0
  8  9  2  0
  8  7  1  0
  9 10  1  0
 10 11  1  0
 10 17  2  0
 11 13  1  0
 12 11  2  0
 13 14  1  0
 14 15  1  0
 16 14  2  0
 17 16  1  0
 18 19  2  0
 20 19  1  0
 21 20  2  0
 22 21  1  0
 22 23  2  0
 23 18  1  0
  2 24  1  0
  3 25  1  0
  8 26  1  0
 13 27  1  0
 15 28  1  0
 15 29  1  0
 18 30  1  0
 19 31  1  0
 20 32  1  0
M  ISO  7  24  14  25  14  26  14  27   9  30  14  31  14  32  14
M  END
>  <minimizedAffinity>  (1) 
-6.39031029

>  <minimizedRMSD>  (1) 
1.19399357

$$$$
