
     RDKit          3D

 32 35  0  0  0  0  0  0  0  0999 V2000
   38.1380   30.1410   40.2780 C   0  0  0  0  0  0  0  0  0  0  0  0
   37.5370   30.0810   39.0550 C   0  0  0  0  0  0  0  0  0  0  0  0
   37.9810   30.9810   38.1150 C   0  0  0  0  0  0  0  0  0  0  0  0
   38.9380   31.8690   38.3490 N   0  0  0  0  0  0  0  0  0  0  0  0
   39.5180   31.9160   39.5510 C   0  0  0  0  0  0  0  0  0  0  0  0
   39.0950   31.0470   40.4740 N   0  0  0  0  0  0  0  0  0  0  0  0
   40.5890   32.7850   40.0980 C   0  0  0  0  0  0  0  0  0  0  0  0
   41.8010   32.3180   40.4870 N   0  0  0  0  0  0  0  0  0  0  0  0
   42.7820   33.0700   40.9830 C   0  0  0  0  0  0  0  0  0  0  0  0
   42.5990   34.4010   41.1220 N   0  0  0  0  0  0  0  0  0  0  0  0
   41.4340   34.9830   40.7680 C   0  0  0  0  0  0  0  0  0  0  0  0
   41.2670   36.3400   40.9190 C   0  0  0  0  0  0  0  0  0  0  0  0
   40.0870   36.9430   40.5630 C   0  0  0  0  0  0  0  0  0  0  0  0
   39.0880   36.1260   40.0520 C   0  0  0  0  0  0  0  0  0  0  0  0
   39.3210   34.7760   39.9270 C   0  0  0  0  0  0  0  0  0  0  0  0
   40.4780   34.1300   40.2670 C   0  0  0  0  0  0  0  0  0  0  0  0
   37.5860   28.7260   43.6380 C   0  0  0  0  0  0  0  0  0  0  0  0
   37.0360   27.4720   43.3400 C   0  0  0  0  0  0  0  0  0  0  0  0
   36.8590   27.1300   41.9990 C   0  0  0  0  0  0  0  0  0  0  0  0
   37.2190   28.0090   41.0200 N   0  0  0  0  0  0  0  0  0  0  0  0
   37.7480   29.2130   41.3600 C   0  0  0  0  0  0  0  0  0  0  0  0
   37.9340   29.5760   42.6520 N   0  0  0  0  0  0  0  0  0  0  0  0
   36.7421   29.3537   38.8332 H   0  0  0  0  0  0  0  0  0  0  0  0
   37.5185   30.9636   37.1171 H   0  0  0  0  0  0  0  0  0  0  0  0
   43.7364   32.6095   41.2780 H   0  0  0  0  0  0  0  0  0  0  0  0
   42.0872   36.9475   41.3290 H   0  0  0  0  0  0  0  0  0  0  0  0
   39.9391   38.0270   40.6776 H   0  0  0  0  0  0  0  0  0  0  0  0
   38.1204   36.5534   39.7502 H   0  0  0  0  0  0  0  0  0  0  0  0
   38.5053   34.1619   39.5177 H   0  0  0  0  0  0  0  0  0  0  0  0
   37.7352   29.0195   44.6876 H   0  0  0  0  0  0  0  0  0  0  0  0
   36.7513   26.7755   44.1424 H   0  0  0  0  0  0  0  0  0  0  0  0
   36.4298   26.1531   41.7316 H   0  0  0  0  0  0  0  0  0  0  0  0
  1  6  1  0
  1 21  1  0
  2  1  2  0
  3  4  2  0
  3  2  1  0
  4  5  1  0
  5  7  1  0
  5  6  2  0
  7 16  1  0
  7  8  2  0
  8  9  1  0
  9 10  2  0
 11 12  2  0
 11 10  1  0
 13 12  1  0
 14 13  2  0
 15 14  1  0
 15 16  2  0
 16 11  1  0
 18 17  2  0
 19 18  1  0
 20 21  1  0
 20 19  2  0
 21 22  2  0
 22 17  1  0
  2 23  1  0
  3 24  1  0
  9 25  1  0
 12 26  1  0
 13 27  1  0
 14 28  1  0
 15 29  1  0
 17 30  1  0
 18 31  1  0
 19 32  1  0
M  ISO  8  23  14  24  14  25  14  26  14  27  14  28  14  29  14  30  14
M  ISO  2  31  14  32  14
M  END
>  <minimizedAffinity>  (1) 
-6.03860188

>  <minimizedRMSD>  (1) 
4.4518218

$$$$
