
     RDKit          3D

 33 35  0  0  0  0  0  0  0  0999 V2000
   37.5900   30.2390   40.2790 C   0  0  0  0  0  0  0  0  0  0  0  0
   36.9480   30.0360   39.0740 C   0  0  0  0  0  0  0  0  0  0  0  0
   37.1270   31.0090   38.1100 C   0  0  0  0  0  0  0  0  0  0  0  0
   37.8740   32.0950   38.3040 N   0  0  0  0  0  0  0  0  0  0  0  0
   38.4890   32.2710   39.4860 C   0  0  0  0  0  0  0  0  0  0  0  0
   38.3300   31.3380   40.4400 N   0  0  0  0  0  0  0  0  0  0  0  0
   39.2950   33.4350   39.7060 N   0  0  0  0  0  0  0  0  0  0  0  0
   40.5960   33.4940   39.0830 C   0  0  0  0  0  0  0  0  0  0  0  0
   41.4420   34.6060   39.5960 C   0  0  0  0  0  0  0  0  0  0  0  0
   40.7150   35.9180   39.6980 C   0  0  0  0  0  0  0  0  0  0  0  0
   39.3700   35.8400   40.3030 C   0  0  0  0  0  0  0  0  0  0  0  0
   38.8050   34.5000   40.5260 C   0  0  0  0  0  0  0  0  0  0  0  0
   37.6040   28.7060   43.6170 C   0  0  0  0  0  0  0  0  0  0  0  0
   37.1820   27.3860   43.3480 C   0  0  0  0  0  0  0  0  0  0  0  0
   36.8980   27.0380   42.0310 C   0  0  0  0  0  0  0  0  0  0  0  0
   37.0470   28.0040   41.0680 N   0  0  0  0  0  0  0  0  0  0  0  0
   37.4500   29.2500   41.3570 C   0  0  0  0  0  0  0  0  0  0  0  0
   37.7290   29.6080   42.6180 N   0  0  0  0  0  0  0  0  0  0  0  0
   36.3269   29.1467   38.8911 H   0  0  0  0  0  0  0  0  0  0  0  0
   36.6298   30.8813   37.1371 H   0  0  0  0  0  0  0  0  0  0  0  0
   40.4592   33.6298   38.0000 H   0  0  0  0  0  0  0  0  0  0  0  0
   41.1145   32.5531   39.3193 H   0  0  0  0  0  0  0  0  0  0  0  0
   41.8070   34.3320   40.5969 H   0  0  0  0  0  0  0  0  0  0  0  0
   42.2614   34.7465   38.8757 H   0  0  0  0  0  0  0  0  0  0  0  0
   41.3251   36.5998   40.3088 H   0  0  0  0  0  0  0  0  0  0  0  0
   40.5684   36.2697   38.6661 H   0  0  0  0  0  0  0  0  0  0  0  0
   39.4175   36.3448   41.2792 H   0  0  0  0  0  0  0  0  0  0  0  0
   38.7018   36.3079   39.5650 H   0  0  0  0  0  0  0  0  0  0  0  0
   37.7191   34.5685   40.3642 H   0  0  0  0  0  0  0  0  0  0  0  0
   39.1105   34.2320   41.5482 H   0  0  0  0  0  0  0  0  0  0  0  0
   37.8336   29.0038   44.6507 H   0  0  0  0  0  0  0  0  0  0  0  0
   37.0802   26.6505   44.1596 H   0  0  0  0  0  0  0  0  0  0  0  0
   36.5652   26.0224   41.7706 H   0  0  0  0  0  0  0  0  0  0  0  0
  1  6  1  0
  1 17  1  0
  2  1  2  0
  3  4  2  0
  3  2  1  0
  4  5  1  0
  5  7  1  0
  5  6  2  0
  7 12  1  0
  8  9  1  0
  8  7  1  0
  9 10  1  0
 10 11  1  0
 11 12  1  0
 14 13  2  0
 15 14  1  0
 16 17  1  0
 16 15  2  0
 17 18  2  0
 18 13  1  0
  2 19  1  0
  3 20  1  0
  8 21  1  0
  8 22  1  0
  9 23  1  0
  9 24  1  0
 10 25  1  0
 10 26  1  0
 11 27  1  0
 11 28  1  0
 12 29  1  0
 12 30  1  0
 13 31  1  0
 14 32  1  0
 15 33  1  0
M  ISO  8  19  14  20  14  21  13  22  13  23  13  24  13  25  13  26  13
M  ISO  7  27  13  28  13  29  13  30  13  31  14  32  14  33  14
M  END
>  <minimizedAffinity>  (1) 
-5.59913921

>  <minimizedRMSD>  (1) 
2.80940008

$$$$
