
     RDKit          3D

 39 41  0  0  1  0  0  0  0  0999 V2000
   39.1420   26.1600   42.3000 C   0  0  1  0  0  0  0  0  0  0  0  0
   38.8700   24.8110   41.5900 C   0  0  0  0  0  0  0  0  0  0  0  0
   37.4810   24.4470   41.9730 C   0  0  0  0  0  0  0  0  0  0  0  0
   36.8600   25.8010   42.2590 C   0  0  0  0  0  0  0  0  0  0  0  0
   37.9540   26.3870   43.1430 C   0  0  2  0  0  0  0  0  0  0  0  0
   41.9970   26.9080   44.6560 C   0  0  0  0  0  0  0  0  0  0  0  0
   40.7230   26.9960   44.0840 C   0  0  0  0  0  0  0  0  0  0  0  0
   40.4240   26.1610   42.9850 C   0  0  0  0  0  0  0  0  0  0  0  0
   41.3730   25.3010   42.5140 N   0  0  0  0  0  0  0  0  0  0  0  0
   42.5960   25.2500   43.1010 C   0  0  0  0  0  0  0  0  0  0  0  0
   42.8990   26.0490   44.1630 N   0  0  0  0  0  0  0  0  0  0  0  0
   37.5430   27.7910   43.3660 C   0  0  2  0  0  0  0  0  0  0  0  0
   36.7670   28.0760   44.5910 C   0  0  0  0  0  0  0  0  0  0  0  0
   36.6990   28.1900   42.1710 C   0  0  0  0  0  0  0  0  0  0  0  0
   37.2000   29.6050   41.8500 C   0  0  0  0  0  0  0  0  0  0  0  0
   37.4760   29.9770   40.4210 C   0  0  0  0  0  0  0  0  0  0  0  0
   36.3230   30.5760   41.1490 C   0  0  0  0  0  0  0  0  0  0  0  0
   39.2597   27.0074   41.6086 H   0  0  0  0  0  0  0  0  0  0  0  0
   39.5793   24.0436   41.9335 H   0  0  0  0  0  0  0  0  0  0  0  0
   38.9911   24.8867   40.4993 H   0  0  0  0  0  0  0  0  0  0  0  0
   36.9613   23.9363   41.1490 H   0  0  0  0  0  0  0  0  0  0  0  0
   37.4263   23.7490   42.8214 H   0  0  0  0  0  0  0  0  0  0  0  0
   36.7132   26.3890   41.3410 H   0  0  0  0  0  0  0  0  0  0  0  0
   35.8556   25.7743   42.7066 H   0  0  0  0  0  0  0  0  0  0  0  0
   38.1442   25.9763   44.1456 H   0  0  0  0  0  0  0  0  0  0  0  0
   42.2586   27.5461   45.5130 H   0  0  0  0  0  0  0  0  0  0  0  0
   39.9738   27.6973   44.4801 H   0  0  0  0  0  0  0  0  0  0  0  0
   43.3540   24.5533   42.7137 H   0  0  0  0  0  0  0  0  0  0  0  0
   38.4745   28.3620   43.4933 H   0  0  0  0  0  0  0  0  0  0  0  0
   37.3814   27.8503   45.4751 H   0  0  0  0  0  0  0  0  0  0  0  0
   36.4806   29.1380   44.6049 H   0  0  0  0  0  0  0  0  0  0  0  0
   35.8614   27.4518   44.6049 H   0  0  0  0  0  0  0  0  0  0  0  0
   36.8674   27.5094   41.3234 H   0  0  0  0  0  0  0  0  0  0  0  0
   35.6181   28.1483   42.3709 H   0  0  0  0  0  0  0  0  0  0  0  0
   37.7686   29.6205   42.7915 H   0  0  0  0  0  0  0  0  0  0  0  0
   37.3013   29.2464   39.6174 H   0  0  0  0  0  0  0  0  0  0  0  0
   38.3424   30.3724   39.8705 H   0  0  0  0  0  0  0  0  0  0  0  0
   36.3458   31.6387   41.4320 H   0  0  0  0  0  0  0  0  0  0  0  0
   35.2415   30.6464   40.9611 H   0  0  0  0  0  0  0  0  0  0  0  0
  1  8  1  0
  1  5  1  0
  2  3  1  0
  2  1  1  0
  3  4  1  0
  4  5  1  0
  5 12  1  0
  7  6  2  0
  8  7  1  0
  9  8  2  0
  9 10  1  0
 10 11  2  0
 11  6  1  0
 12 13  1  0
 14 12  1  0
 15 14  1  0
 16 17  1  0
 16 15  1  0
 17 15  1  0
  1 18  1  6
  2 19  1  0
  2 20  1  0
  3 21  1  0
  3 22  1  0
  4 23  1  0
  4 24  1  0
  5 25  1  1
  6 26  1  0
  7 27  1  0
 10 28  1  0
 12 29  1  1
 13 30  1  0
 13 31  1  0
 13 32  1  0
 14 33  1  0
 14 34  1  0
 15 35  1  0
 16 36  1  0
 16 37  1  0
 17 38  1  0
 17 39  1  0
M  ISO  8  18  13  19  13  20  13  21  13  22  13  23  13  24  13  25  13
M  ISO  8  26  14  27  14  28  14  29   8  30   8  31   8  32   8  33   8
M  ISO  6  34   8  35  13  36  13  37  13  38  13  39  13
M  END
>  <minimizedAffinity>  (1) 
-4.86737776

>  <minimizedRMSD>  (1) 
0.638177395

$$$$
