
     RDKit          3D

 28 30  0  0  0  0  0  0  0  0999 V2000
   37.9250   30.5160   40.9170 C   0  0  0  0  0  0  0  0  0  0  0  0
   36.8640   30.3150   40.0510 C   0  0  0  0  0  0  0  0  0  0  0  0
   36.6580   31.3350   39.1410 C   0  0  0  0  0  0  0  0  0  0  0  0
   37.4040   32.4470   39.0700 N   0  0  0  0  0  0  0  0  0  0  0  0
   38.4090   32.5950   39.9210 C   0  0  0  0  0  0  0  0  0  0  0  0
   38.6610   31.6390   40.8310 N   0  0  0  0  0  0  0  0  0  0  0  0
   37.4720   28.1360   43.6730 C   0  0  0  0  0  0  0  0  0  0  0  0
   38.7650   27.5570   43.7960 C   0  0  0  0  0  0  0  0  0  0  0  0
   39.7720   27.9930   42.9300 C   0  0  0  0  0  0  0  0  0  0  0  0
   39.4600   28.9540   42.0100 N   0  0  0  0  0  0  0  0  0  0  0  0
   38.2230   29.4780   41.9270 C   0  0  0  0  0  0  0  0  0  0  0  0
   37.2280   29.0770   42.7490 N   0  0  0  0  0  0  0  0  0  0  0  0
   39.2470   33.7880   39.8810 C   0  0  0  0  0  0  0  0  0  0  0  0
   38.7400   35.0140   40.3060 C   0  0  0  0  0  0  0  0  0  0  0  0
   39.5440   36.1570   40.2670 C   0  0  0  0  0  0  0  0  0  0  0  0
   40.8500   36.0070   39.7920 C   0  0  0  0  0  0  0  0  0  0  0  0
   41.3730   34.8210   39.3690 C   0  0  0  0  0  0  0  0  0  0  0  0
   40.5460   33.7170   39.4250 C   0  0  0  0  0  0  0  0  0  0  0  0
   36.2339   29.4139   40.0843 H   0  0  0  0  0  0  0  0  0  0  0  0
   35.8273   31.2273   38.4281 H   0  0  0  0  0  0  0  0  0  0  0  0
   36.6633   27.8086   44.3429 H   0  0  0  0  0  0  0  0  0  0  0  0
   38.9677   26.7855   44.5535 H   0  0  0  0  0  0  0  0  0  0  0  0
   40.7875   27.5741   42.9875 H   0  0  0  0  0  0  0  0  0  0  0  0
   37.7053   35.0828   40.6729 H   0  0  0  0  0  0  0  0  0  0  0  0
   39.1641   37.1352   40.5969 H   0  0  0  0  0  0  0  0  0  0  0  0
   41.4938   36.8983   39.7574 H   0  0  0  0  0  0  0  0  0  0  0  0
   42.4066   34.7472   39.0000 H   0  0  0  0  0  0  0  0  0  0  0  0
   40.9383   32.7443   39.0934 H   0  0  0  0  0  0  0  0  0  0  0  0
  1 11  1  0
  2  1  2  0
  3  2  1  0
  4  3  2  0
  4  5  1  0
  5  6  2  0
  6  1  1  0
  7  8  2  0
  9  8  1  0
 10  9  2  0
 11 10  1  0
 11 12  2  0
 12  7  1  0
 13  5  1  0
 13 14  2  0
 15 14  1  0
 16 15  2  0
 17 18  2  0
 17 16  1  0
 18 13  1  0
  2 19  1  0
  3 20  1  0
  7 21  1  0
  8 22  1  0
  9 23  1  0
 14 24  1  0
 15 25  1  0
 16 26  1  0
 17 27  1  0
 18 28  1  0
M  ISO  8  19  14  20  14  21  14  22  14  23  14  24  14  25  14  26  14
M  ISO  2  27  14  28  14
M  END
>  <minimizedAffinity>  (1) 
-5.46790743

>  <minimizedRMSD>  (1) 
3.27844644

$$$$
