
     RDKit          3D

 27 29  0  0  0  0  0  0  0  0999 V2000
   37.9100   30.4420   40.7890 C   0  0  0  0  0  0  0  0  0  0  0  0
   36.9060   30.2220   39.8670 C   0  0  0  0  0  0  0  0  0  0  0  0
   36.7150   31.2180   38.9270 C   0  0  0  0  0  0  0  0  0  0  0  0
   37.4350   32.3380   38.8800 N   0  0  0  0  0  0  0  0  0  0  0  0
   38.3990   32.5110   39.7940 C   0  0  0  0  0  0  0  0  0  0  0  0
   38.6390   31.5810   40.7390 N   0  0  0  0  0  0  0  0  0  0  0  0
   37.4450   28.2060   43.6770 C   0  0  0  0  0  0  0  0  0  0  0  0
   38.6800   27.5500   43.7560 C   0  0  0  0  0  0  0  0  0  0  0  0
   39.6620   27.8810   42.8180 C   0  0  0  0  0  0  0  0  0  0  0  0
   39.3790   28.8240   41.8680 N   0  0  0  0  0  0  0  0  0  0  0  0
   38.1800   29.4310   41.8250 C   0  0  0  0  0  0  0  0  0  0  0  0
   37.2310   29.1220   42.7210 N   0  0  0  0  0  0  0  0  0  0  0  0
   39.2400   33.7180   39.8140 C   0  0  0  0  0  0  0  0  0  0  0  0
   38.7110   34.9230   40.2700 C   0  0  0  0  0  0  0  0  0  0  0  0
   39.4940   36.0680   40.2930 C   0  0  0  0  0  0  0  0  0  0  0  0
   40.8090   36.0340   39.8650 C   0  0  0  0  0  0  0  0  0  0  0  0
   41.2930   34.8210   39.4190 C   0  0  0  0  0  0  0  0  0  0  0  0
   40.5330   33.7010   39.3950 N   0  0  0  0  0  0  0  0  0  0  0  0
   36.2940   29.3081   39.8795 H   0  0  0  0  0  0  0  0  0  0  0  0
   35.9240   31.0777   38.1756 H   0  0  0  0  0  0  0  0  0  0  0  0
   36.6500   27.9697   44.3996 H   0  0  0  0  0  0  0  0  0  0  0  0
   38.8716   26.7961   44.5338 H   0  0  0  0  0  0  0  0  0  0  0  0
   40.6466   27.3912   42.8432 H   0  0  0  0  0  0  0  0  0  0  0  0
   37.6670   34.9671   40.6137 H   0  0  0  0  0  0  0  0  0  0  0  0
   39.0644   37.0135   40.6556 H   0  0  0  0  0  0  0  0  0  0  0  0
   41.4411   36.9342   39.8795 H   0  0  0  0  0  0  0  0  0  0  0  0
   42.3346   34.7621   39.0702 H   0  0  0  0  0  0  0  0  0  0  0  0
  1 11  1  0
  2  1  2  0
  3  2  1  0
  4  3  2  0
  4  5  1  0
  5 13  1  0
  5  6  2  0
  6  1  1  0
  7  8  2  0
  9  8  1  0
 10  9  2  0
 11 10  1  0
 11 12  2  0
 12  7  1  0
 13 14  2  0
 14 15  1  0
 16 15  2  0
 17 16  1  0
 18 17  2  0
 18 13  1  0
  2 19  1  0
  3 20  1  0
  7 21  1  0
  8 22  1  0
  9 23  1  0
 14 24  1  0
 15 25  1  0
 16 26  1  0
 17 27  1  0
M  ISO  8  19  14  20  14  21  14  22  14  23  14  24  14  25  14  26  14
M  ISO  1  27  14
M  END
>  <minimizedAffinity>  (1) 
-5.38108397

>  <minimizedRMSD>  (1) 
3.20090437

$$$$
