
     RDKit          3D

 24 26  0  0  0  0  0  0  0  0999 V2000
   37.5160   30.2050   40.2670 C   0  0  0  0  0  0  0  0  0  0  0  0
   36.8240   30.0120   39.1020 C   0  0  0  0  0  0  0  0  0  0  0  0
   36.9570   30.9820   38.1290 C   0  0  0  0  0  0  0  0  0  0  0  0
   37.7170   32.0670   38.2800 N   0  0  0  0  0  0  0  0  0  0  0  0
   38.3840   32.2240   39.4350 C   0  0  0  0  0  0  0  0  0  0  0  0
   38.2800   31.3010   40.4110 N   0  0  0  0  0  0  0  0  0  0  0  0
   37.6180   28.7010   43.6220 C   0  0  0  0  0  0  0  0  0  0  0  0
   37.2560   27.3680   43.3700 C   0  0  0  0  0  0  0  0  0  0  0  0
   36.9770   26.9890   42.0480 C   0  0  0  0  0  0  0  0  0  0  0  0
   37.0720   27.9430   41.0610 N   0  0  0  0  0  0  0  0  0  0  0  0
   37.4260   29.2120   41.3590 C   0  0  0  0  0  0  0  0  0  0  0  0
   37.6950   29.5860   42.6190 N   0  0  0  0  0  0  0  0  0  0  0  0
   39.2500   33.3970   39.6890 C   0  0  0  0  0  0  0  0  0  0  0  0
   40.6410   33.4870   39.3570 C   0  0  0  0  0  0  0  0  0  0  0  0
   41.0150   35.2070   39.9670 S   0  0  0  0  0  0  0  0  0  0  0  0
   39.2210   35.4570   40.5470 C   0  0  0  0  0  0  0  0  0  0  0  0
   38.6860   34.4590   40.2780 N   0  0  0  0  0  0  0  0  0  0  0  0
   36.1914   29.1253   38.9483 H   0  0  0  0  0  0  0  0  0  0  0  0
   36.4096   30.8537   37.1835 H   0  0  0  0  0  0  0  0  0  0  0  0
   37.8401   29.0212   44.6507 H   0  0  0  0  0  0  0  0  0  0  0  0
   37.1926   26.6376   44.1900 H   0  0  0  0  0  0  0  0  0  0  0  0
   36.6895   25.9550   41.8068 H   0  0  0  0  0  0  0  0  0  0  0  0
   41.3012   32.7492   38.8776 H   0  0  0  0  0  0  0  0  0  0  0  0
   38.7866   36.3454   41.0286 H   0  0  0  0  0  0  0  0  0  0  0  0
  1  6  1  0
  1 11  1  0
  2  1  2  0
  3  4  2  0
  3  2  1  0
  4  5  1  0
  5 13  1  0
  5  6  2  0
  8  7  2  0
  9  8  1  0
 10 11  1  0
 10  9  2  0
 11 12  2  0
 12  7  1  0
 13 17  1  0
 14 13  2  0
 14 15  1  0
 15 16  1  0
 17 16  2  0
  2 18  1  0
  3 19  1  0
  7 20  1  0
  8 21  1  0
  9 22  1  0
 14 23  1  0
 16 24  1  0
M  ISO  7  18  14  19  14  20  14  21  14  22  14  23  14  24  14
M  END
>  <minimizedAffinity>  (1) 
-4.8324151

>  <minimizedRMSD>  (1) 
2.47842836

$$$$
