
     RDKit          3D

 25 27  0  0  0  0  0  0  0  0999 V2000
   37.6020   29.8920   40.0630 C   0  0  0  0  0  0  0  0  0  0  0  0
   36.7070   29.7460   39.0120 C   0  0  0  0  0  0  0  0  0  0  0  0
   36.9280   30.5840   37.9300 C   0  0  0  0  0  0  0  0  0  0  0  0
   37.9120   31.4790   37.8550 N   0  0  0  0  0  0  0  0  0  0  0  0
   38.7560   31.5890   38.8900 C   0  0  0  0  0  0  0  0  0  0  0  0
   38.6010   30.8010   39.9810 N   0  0  0  0  0  0  0  0  0  0  0  0
   39.8000   32.5490   38.7920 N   0  0  0  0  0  0  0  0  0  0  0  0
   39.8850   33.5660   39.6390 N   0  0  0  0  0  0  0  0  0  0  0  0
   40.9300   34.3490   39.3800 C   0  0  0  0  0  0  0  0  0  0  0  0
   41.5720   33.8020   38.2850 C   0  0  0  0  0  0  0  0  0  0  0  0
   40.8370   32.6880   37.9520 C   0  0  0  0  0  0  0  0  0  0  0  0
   37.6190   28.8420   43.5860 C   0  0  0  0  0  0  0  0  0  0  0  0
   37.2000   27.5040   43.4970 C   0  0  0  0  0  0  0  0  0  0  0  0
   36.9160   26.9700   42.2390 C   0  0  0  0  0  0  0  0  0  0  0  0
   37.0540   27.7700   41.1210 N   0  0  0  0  0  0  0  0  0  0  0  0
   37.4600   29.0520   41.2610 C   0  0  0  0  0  0  0  0  0  0  0  0
   37.7380   29.5810   42.4750 N   0  0  0  0  0  0  0  0  0  0  0  0
   35.8824   29.0183   39.0360 H   0  0  0  0  0  0  0  0  0  0  0  0
   36.2428   30.5044   37.0732 H   0  0  0  0  0  0  0  0  0  0  0  0
   41.2250   35.2547   39.9302 H   0  0  0  0  0  0  0  0  0  0  0  0
   42.4776   34.1775   37.7862 H   0  0  0  0  0  0  0  0  0  0  0  0
   41.0663   32.0091   37.1175 H   0  0  0  0  0  0  0  0  0  0  0  0
   37.8492   29.2825   44.5673 H   0  0  0  0  0  0  0  0  0  0  0  0
   37.0976   26.8881   44.4026 H   0  0  0  0  0  0  0  0  0  0  0  0
   36.5864   25.9253   42.1390 H   0  0  0  0  0  0  0  0  0  0  0  0
  1 16  1  0
  2  1  2  0
  3  2  1  0
  4  3  2  0
  4  5  1  0
  5  6  2  0
  6  1  1  0
  7  5  1  0
  7  8  1  0
  9  8  2  0
 10  9  1  0
 11 10  2  0
 11  7  1  0
 13 12  2  0
 14 13  1  0
 15 16  1  0
 15 14  2  0
 16 17  2  0
 17 12  1  0
  2 18  1  0
  3 19  1  0
  9 20  1  0
 10 21  1  0
 11 22  1  0
 12 23  1  0
 13 24  1  0
 14 25  1  0
M  ISO  8  18  14  19  14  20  14  21  14  22  14  23  14  24  14  25  14
M  END
>  <minimizedAffinity>  (1) 
-4.66226864

>  <minimizedRMSD>  (1) 
1.80682981

$$$$
