
     RDKit          3D

 21 22  0  0  0  0  0  0  0  0999 V2000
   37.2720   29.6520   39.8830 C   0  0  0  0  0  0  0  0  0  0  0  0
   36.2290   29.3030   39.0370 C   0  0  0  0  0  0  0  0  0  0  0  0
   36.2990   29.8920   37.7740 C   0  0  0  0  0  0  0  0  0  0  0  0
   37.2670   30.7230   37.3750 N   0  0  0  0  0  0  0  0  0  0  0  0
   38.2390   31.0160   38.2360 C   0  0  0  0  0  0  0  0  0  0  0  0
   38.2340   30.4830   39.4760 N   0  0  0  0  0  0  0  0  0  0  0  0
   38.1870   29.1040   43.4000 C   0  0  0  0  0  0  0  0  0  0  0  0
   37.3540   28.0420   43.7850 C   0  0  0  0  0  0  0  0  0  0  0  0
   36.4820   27.5230   42.8290 C   0  0  0  0  0  0  0  0  0  0  0  0
   36.4680   28.0570   41.5630 N   0  0  0  0  0  0  0  0  0  0  0  0
   37.2970   29.0820   41.2550 C   0  0  0  0  0  0  0  0  0  0  0  0
   38.1390   29.5940   42.1530 N   0  0  0  0  0  0  0  0  0  0  0  0
   39.3450   31.9010   37.9360 C   0  0  0  0  0  0  0  0  0  0  0  0
   40.1310   32.3910   38.7990 O   0  0  0  0  0  0  0  0  0  0  0  0
   39.7200   32.3500   36.6800 O   0  0  0  0  0  0  0  0  0  0  0  0
   35.4184   28.6220   39.3357 H   0  0  0  0  0  0  0  0  0  0  0  0
   35.5005   29.6556   37.0553 H   0  0  0  0  0  0  0  0  0  0  0  0
   38.8866   29.5388   44.1291 H   0  0  0  0  0  0  0  0  0  0  0  0
   37.3880   27.6333   44.8057 H   0  0  0  0  0  0  0  0  0  0  0  0
   35.8096   26.6914   43.0865 H   0  0  0  0  0  0  0  0  0  0  0  0
   40.4963   32.9566   36.5826 H   0  0  0  0  0  0  0  0  0  0  0  0
  1 11  1  0
  2  1  2  0
  3  2  1  0
  4  3  2  0
  4  5  1  0
  5  6  2  0
  6  1  1  0
  7  8  2  0
  9  8  1  0
 10  9  2  0
 11 10  1  0
 11 12  2  0
 12  7  1  0
 13  5  1  0
 13 14  2  0
 15 13  1  0
  2 16  1  0
  3 17  1  0
  7 18  1  0
  8 19  1  0
  9 20  1  0
 15 21  1  0
M  ISO  6  16  14  17  14  18  14  19  14  20  14  21   3
M  END
>  <minimizedAffinity>  (1) 
-4.57517433

>  <minimizedRMSD>  (1) 
0.88839823

$$$$
