
     RDKit          3D

 27 28  0  0  0  0  0  0  0  0999 V2000
   37.5340   30.4780   40.5980 C   0  0  0  0  0  0  0  0  0  0  0  0
   36.8700   30.4670   39.3900 C   0  0  0  0  0  0  0  0  0  0  0  0
   37.0480   31.6000   38.6070 C   0  0  0  0  0  0  0  0  0  0  0  0
   37.8050   32.6480   38.9690 N   0  0  0  0  0  0  0  0  0  0  0  0
   38.4210   32.6080   40.1420 C   0  0  0  0  0  0  0  0  0  0  0  0
   38.2800   31.5310   40.9360 N   0  0  0  0  0  0  0  0  0  0  0  0
   37.4920   28.4190   43.6330 C   0  0  0  0  0  0  0  0  0  0  0  0
   37.1440   27.1460   43.1500 C   0  0  0  0  0  0  0  0  0  0  0  0
   36.9270   27.0000   41.7910 C   0  0  0  0  0  0  0  0  0  0  0  0
   37.0650   28.1130   41.0000 N   0  0  0  0  0  0  0  0  0  0  0  0
   37.3970   29.3120   41.4910 C   0  0  0  0  0  0  0  0  0  0  0  0
   37.6120   29.4680   42.8100 N   0  0  0  0  0  0  0  0  0  0  0  0
   39.2880   33.6880   40.6770 C   0  0  0  0  0  0  0  0  0  0  0  0
   38.8160   35.0660   40.2960 C   0  0  0  0  0  0  0  0  0  0  0  0
   40.7310   33.5140   40.2290 C   0  0  0  0  0  0  0  0  0  0  0  0
   36.2440   29.6213   39.0692 H   0  0  0  0  0  0  0  0  0  0  0  0
   36.5388   31.6412   37.6328 H   0  0  0  0  0  0  0  0  0  0  0  0
   37.6695   28.5564   44.7099 H   0  0  0  0  0  0  0  0  0  0  0  0
   37.0468   26.2894   43.8332 H   0  0  0  0  0  0  0  0  0  0  0  0
   36.6534   26.0257   41.3598 H   0  0  0  0  0  0  0  0  0  0  0  0
   39.2261   33.5995   41.7717 H   0  0  0  0  0  0  0  0  0  0  0  0
   38.6160   35.6499   41.2065 H   0  0  0  0  0  0  0  0  0  0  0  0
   39.5933   35.5685   39.7015 H   0  0  0  0  0  0  0  0  0  0  0  0
   37.8939   34.9864   39.7015 H   0  0  0  0  0  0  0  0  0  0  0  0
   41.3822   33.4355   41.1121 H   0  0  0  0  0  0  0  0  0  0  0  0
   40.8197   32.5987   39.6255 H   0  0  0  0  0  0  0  0  0  0  0  0
   41.0348   34.3820   39.6255 H   0  0  0  0  0  0  0  0  0  0  0  0
  1  6  1  0
  1 11  1  0
  2  1  2  0
  3  4  2  0
  3  2  1  0
  4  5  1  0
  5 13  1  0
  5  6  2  0
  8  7  2  0
  9  8  1  0
 10 11  1  0
 10  9  2  0
 11 12  2  0
 12  7  1  0
 14 13  1  0
 15 13  1  0
  2 16  1  0
  3 17  1  0
  7 18  1  0
  8 19  1  0
  9 20  1  0
 13 21  1  0
 14 22  1  0
 14 23  1  0
 14 24  1  0
 15 25  1  0
 15 26  1  0
 15 27  1  0
M  ISO  8  16  14  17  14  18  14  19  14  20  14  21   8  22   8  23   8
M  ISO  4  24   8  25   8  26   8  27   8
M  END
>  <minimizedAffinity>  (1) 
-4.37958479

>  <minimizedRMSD>  (1) 
2.6382618

$$$$
