
     RDKit          3D

 35 37  0  0  0  0  0  0  0  0999 V2000
   36.9210   29.2250   40.0200 C   0  0  0  0  0  0  0  0  0  0  0  0
   36.5330   28.4180   38.9750 C   0  0  0  0  0  0  0  0  0  0  0  0
   36.4220   29.0520   37.7520 C   0  0  0  0  0  0  0  0  0  0  0  0
   36.6620   30.3440   37.5570 N   0  0  0  0  0  0  0  0  0  0  0  0
   37.0360   31.0920   38.6050 C   0  0  0  0  0  0  0  0  0  0  0  0
   37.1700   30.5520   39.8350 N   0  0  0  0  0  0  0  0  0  0  0  0
   37.6550   28.9000   43.6100 C   0  0  0  0  0  0  0  0  0  0  0  0
   37.3410   27.5630   43.8740 C   0  0  0  0  0  0  0  0  0  0  0  0
   36.8820   26.7950   42.8090 C   0  0  0  0  0  0  0  0  0  0  0  0
   36.7590   27.3650   41.5810 N   0  0  0  0  0  0  0  0  0  0  0  0
   37.0780   28.6630   41.3870 C   0  0  0  0  0  0  0  0  0  0  0  0
   37.5240   29.4450   42.3780 N   0  0  0  0  0  0  0  0  0  0  0  0
   37.3470   32.5530   38.5810 C   0  0  0  0  0  0  0  0  0  0  0  0
   37.5060   33.0370   40.0140 C   0  0  0  0  0  0  0  0  0  0  0  0
   38.5840   33.9630   40.1890 N   0  0  0  0  0  0  0  0  0  0  0  0
   38.5650   35.2880   40.0050 C   0  0  0  0  0  0  0  0  0  0  0  0
   39.7040   36.0540   40.2180 C   0  0  0  0  0  0  0  0  0  0  0  0
   40.8640   35.3890   40.6280 C   0  0  0  0  0  0  0  0  0  0  0  0
   42.0680   36.1150   40.8640 N   0  0  0  0  0  0  0  0  0  0  0  0
   40.8690   34.0430   40.8100 N   0  0  0  0  0  0  0  0  0  0  0  0
   39.7200   33.3560   40.5840 C   0  0  0  0  0  0  0  0  0  0  0  0
   39.8720   32.1060   40.7930 O   0  0  0  0  0  0  0  0  0  0  0  0
   36.3261   27.3454   39.1039 H   0  0  0  0  0  0  0  0  0  0  0  0
   36.1154   28.4485   36.8849 H   0  0  0  0  0  0  0  0  0  0  0  0
   38.0215   29.5312   44.4330 H   0  0  0  0  0  0  0  0  0  0  0  0
   37.4524   27.1365   44.8818 H   0  0  0  0  0  0  0  0  0  0  0  0
   36.6211   25.7370   42.9589 H   0  0  0  0  0  0  0  0  0  0  0  0
   38.2811   32.7243   38.0259 H   0  0  0  0  0  0  0  0  0  0  0  0
   36.5332   33.1031   38.0859 H   0  0  0  0  0  0  0  0  0  0  0  0
   36.5713   33.5292   40.3208 H   0  0  0  0  0  0  0  0  0  0  0  0
   37.7351   32.1545   40.6295 H   0  0  0  0  0  0  0  0  0  0  0  0
   37.6348   35.7774   39.6807 H   0  0  0  0  0  0  0  0  0  0  0  0
   39.6940   37.1439   40.0696 H   0  0  0  0  0  0  0  0  0  0  0  0
   42.9183   35.6181   41.1658 H   0  0  0  0  0  0  0  0  0  0  0  0
   42.0876   37.1364   40.7327 H   0  0  0  0  0  0  0  0  0  0  0  0
  1 11  1  0
  2  1  2  0
  3  2  1  0
  4  3  2  0
  4  5  1  0
  5  6  2  0
  6  1  1  0
  7  8  2  0
  9  8  1  0
 10  9  2  0
 11 10  1  0
 11 12  2  0
 12  7  1  0
 13  5  1  0
 13 14  1  0
 14 15  1  0
 15 21  1  0
 16 15  1  0
 16 17  2  0
 17 18  1  0
 18 20  2  0
 18 19  1  0
 21 22  2  0
 21 20  1  0
  2 23  1  0
  3 24  1  0
  7 25  1  0
  8 26  1  0
  9 27  1  0
 13 28  1  0
 13 29  1  0
 14 30  1  0
 14 31  1  0
 16 32  1  0
 17 33  1  0
 19 34  1  0
 19 35  1  0
M  ISO  8  23  14  24  14  25  14  26  14  27  14  28   8  29   8  30   8
M  ISO  3  31   8  32  14  33  14
M  END
>  <minimizedAffinity>  (1) 
-5.74141932

>  <minimizedRMSD>  (1) 
1.67126906

$$$$
