
     RDKit          3D

 31 33  0  0  0  0  0  0  0  0999 V2000
   36.9920   29.3120   40.1050 C   0  0  0  0  0  0  0  0  0  0  0  0
   36.7540   28.5300   39.0040 C   0  0  0  0  0  0  0  0  0  0  0  0
   36.6620   29.2060   37.8050 C   0  0  0  0  0  0  0  0  0  0  0  0
   36.7890   30.5190   37.6840 N   0  0  0  0  0  0  0  0  0  0  0  0
   37.0190   31.2490   38.7720 C   0  0  0  0  0  0  0  0  0  0  0  0
   37.1250   30.6630   39.9880 N   0  0  0  0  0  0  0  0  0  0  0  0
   37.6650   28.8940   43.7050 C   0  0  0  0  0  0  0  0  0  0  0  0
   37.3160   27.5340   43.9020 C   0  0  0  0  0  0  0  0  0  0  0  0
   36.8650   26.7940   42.8150 C   0  0  0  0  0  0  0  0  0  0  0  0
   36.7730   27.4010   41.6030 N   0  0  0  0  0  0  0  0  0  0  0  0
   37.1120   28.6980   41.4510 C   0  0  0  0  0  0  0  0  0  0  0  0
   37.5490   29.4320   42.4790 N   0  0  0  0  0  0  0  0  0  0  0  0
   37.1860   32.7240   38.8020 C   0  0  0  0  0  0  0  0  0  0  0  0
   37.8190   33.1480   40.1070 C   0  0  0  0  0  0  0  0  0  0  0  0
   38.8660   34.1190   40.0030 C   0  0  0  0  0  0  0  0  0  0  0  0
   38.9260   35.4510   40.2190 C   0  0  0  0  0  0  0  0  0  0  0  0
   40.0620   36.1910   40.0530 C   0  0  0  0  0  0  0  0  0  0  0  0
   41.2240   35.3460   39.6050 C   0  0  0  0  0  0  0  0  0  0  0  0
   40.4920   33.6400   39.4990 S   0  0  0  0  0  0  0  0  0  0  0  0
   36.6439   27.4377   39.0722 H   0  0  0  0  0  0  0  0  0  0  0  0
   36.4717   28.6192   36.8943 H   0  0  0  0  0  0  0  0  0  0  0  0
   38.0269   29.5024   44.5469 H   0  0  0  0  0  0  0  0  0  0  0  0
   37.4006   27.0727   44.8970 H   0  0  0  0  0  0  0  0  0  0  0  0
   36.5877   25.7362   42.9340 H   0  0  0  0  0  0  0  0  0  0  0  0
   37.8312   33.0342   37.9669 H   0  0  0  0  0  0  0  0  0  0  0  0
   36.1988   33.2003   38.7090 H   0  0  0  0  0  0  0  0  0  0  0  0
   37.0284   33.5706   40.7445 H   0  0  0  0  0  0  0  0  0  0  0  0
   38.2893   32.2433   40.5198 H   0  0  0  0  0  0  0  0  0  0  0  0
   38.0114   35.9673   40.5460 H   0  0  0  0  0  0  0  0  0  0  0  0
   40.1206   37.2757   40.2262 H   0  0  0  0  0  0  0  0  0  0  0  0
   42.2561   35.6612   39.3919 H   0  0  0  0  0  0  0  0  0  0  0  0
  1 11  1  0
  2  1  2  0
  3  2  1  0
  4  3  2  0
  4  5  1  0
  5 13  1  0
  5  6  2  0
  6  1  1  0
  7  8  2  0
  9  8  1  0
 10  9  2  0
 11 10  1  0
 11 12  2  0
 12  7  1  0
 13 14  1  0
 15 14  1  0
 15 16  2  0
 17 16  1  0
 18 17  2  0
 19 18  1  0
 19 15  1  0
  2 20  1  0
  3 21  1  0
  7 22  1  0
  8 23  1  0
  9 24  1  0
 13 25  1  0
 13 26  1  0
 14 27  1  0
 14 28  1  0
 16 29  1  0
 17 30  1  0
 18 31  1  0
M  ISO  8  20  14  21  14  22  14  23  14  24  14  25   8  26   8  27   8
M  ISO  4  28   8  29  14  30  14  31  14
M  END
>  <minimizedAffinity>  (1) 
-5.20227909

>  <minimizedRMSD>  (1) 
1.12957728

$$$$
