
     RDKit          3D

 25 26  0  0  0  0  0  0  0  0999 V2000
   36.6080   29.1220   40.0490 C   0  0  0  0  0  0  0  0  0  0  0  0
   35.7130   28.3720   39.3310 C   0  0  0  0  0  0  0  0  0  0  0  0
   35.4810   28.8010   38.0430 C   0  0  0  0  0  0  0  0  0  0  0  0
   36.0590   29.8620   37.4940 N   0  0  0  0  0  0  0  0  0  0  0  0
   36.9280   30.5700   38.2240 C   0  0  0  0  0  0  0  0  0  0  0  0
   37.2020   30.2030   39.4960 N   0  0  0  0  0  0  0  0  0  0  0  0
   38.1490   29.1240   43.3910 C   0  0  0  0  0  0  0  0  0  0  0  0
   37.5000   28.0320   44.0180 C   0  0  0  0  0  0  0  0  0  0  0  0
   36.5390   27.3080   43.2820 C   0  0  0  0  0  0  0  0  0  0  0  0
   36.2850   27.6970   42.0060 N   0  0  0  0  0  0  0  0  0  0  0  0
   36.9410   28.7570   41.4520 C   0  0  0  0  0  0  0  0  0  0  0  0
   37.8690   29.4780   42.1240 N   0  0  0  0  0  0  0  0  0  0  0  0
   37.6590   31.7730   37.7670 C   0  0  0  0  0  0  0  0  0  0  0  0
   38.4810   32.3250   38.9230 C   0  0  0  0  0  0  0  0  0  0  0  0
   39.7270   31.7570   38.9940 O   0  0  0  0  0  0  0  0  0  0  0  0
   35.2141   27.4879   39.7546 H   0  0  0  0  0  0  0  0  0  0  0  0
   34.7707   28.2271   37.4297 H   0  0  0  0  0  0  0  0  0  0  0  0
   38.9006   29.6966   43.9543 H   0  0  0  0  0  0  0  0  0  0  0  0
   37.7400   27.7550   45.0551 H   0  0  0  0  0  0  0  0  0  0  0  0
   36.0105   26.4529   43.7287 H   0  0  0  0  0  0  0  0  0  0  0  0
   38.3269   31.5044   36.9353 H   0  0  0  0  0  0  0  0  0  0  0  0
   36.9426   32.5344   37.4247 H   0  0  0  0  0  0  0  0  0  0  0  0
   38.5945   33.4109   38.7894 H   0  0  0  0  0  0  0  0  0  0  0  0
   37.9497   32.0882   39.8566 H   0  0  0  0  0  0  0  0  0  0  0  0
   39.9829   31.6404   39.9432 H   0  0  0  0  0  0  0  0  0  0  0  0
  1 11  1  0
  2  1  2  0
  3  2  1  0
  4  3  2  0
  4  5  1  0
  5  6  2  0
  6  1  1  0
  7  8  2  0
  9  8  1  0
 10  9  2  0
 11 10  1  0
 11 12  2  0
 12  7  1  0
 13  5  1  0
 13 14  1  0
 14 15  1  0
  2 16  1  0
  3 17  1  0
  7 18  1  0
  8 19  1  0
  9 20  1  0
 13 21  1  0
 13 22  1  0
 14 23  1  0
 14 24  1  0
 15 25  1  0
M  ISO  8  16  14  17  14  18  14  19  14  20  14  21   8  22   8  23   8
M  ISO  2  24   8  25   3
M  END
>  <minimizedAffinity>  (1) 
-3.8134203

>  <minimizedRMSD>  (1) 
0.277211607

$$$$
