
     RDKit          3D

 36 39  0  0  0  0  0  0  0  0999 V2000
   36.5950   29.0650   39.9630 C   0  0  0  0  0  0  0  0  0  0  0  0
   35.6980   28.2750   39.2710 C   0  0  0  0  0  0  0  0  0  0  0  0
   35.4590   28.6470   37.9660 C   0  0  0  0  0  0  0  0  0  0  0  0
   36.0300   29.6870   37.3800 N   0  0  0  0  0  0  0  0  0  0  0  0
   36.8990   30.4360   38.0840 C   0  0  0  0  0  0  0  0  0  0  0  0
   37.1700   30.1210   39.3530 N   0  0  0  0  0  0  0  0  0  0  0  0
   38.1440   29.2260   43.3020 C   0  0  0  0  0  0  0  0  0  0  0  0
   37.5070   28.1550   43.9620 C   0  0  0  0  0  0  0  0  0  0  0  0
   36.5610   27.3950   43.2600 C   0  0  0  0  0  0  0  0  0  0  0  0
   36.3020   27.7280   41.9770 N   0  0  0  0  0  0  0  0  0  0  0  0
   36.9320   28.7620   41.3710 C   0  0  0  0  0  0  0  0  0  0  0  0
   37.8430   29.5120   42.0090 N   0  0  0  0  0  0  0  0  0  0  0  0
   37.6230   31.6320   37.5730 C   0  0  0  0  0  0  0  0  0  0  0  0
   39.0300   31.6500   38.1590 C   0  0  0  0  0  0  0  0  0  0  0  0
   39.1750   32.8010   39.1010 C   0  0  0  0  0  0  0  0  0  0  0  0
   38.2620   33.5210   39.7260 N   0  0  0  0  0  0  0  0  0  0  0  0
   38.8400   34.4220   40.4490 O   0  0  0  0  0  0  0  0  0  0  0  0
   40.1310   34.3420   40.3420 C   0  0  0  0  0  0  0  0  0  0  0  0
   40.3330   33.3280   39.5000 N   0  0  0  0  0  0  0  0  0  0  0  0
   41.0050   35.2230   41.0380 N   0  0  0  0  0  0  0  0  0  0  0  0
   40.8160   36.4560   41.5400 C   0  0  0  0  0  0  0  0  0  0  0  0
   42.0380   36.8100   42.1130 C   0  0  0  0  0  0  0  0  0  0  0  0
   42.9220   35.8030   41.9490 N   0  0  0  0  0  0  0  0  0  0  0  0
   42.2680   34.8410   41.2880 C   0  0  0  0  0  0  0  0  0  0  0  0
   35.2064   27.4055   39.7317 H   0  0  0  0  0  0  0  0  0  0  0  0
   34.7522   28.0442   37.3769 H   0  0  0  0  0  0  0  0  0  0  0  0
   38.8888   29.8331   43.8374 H   0  0  0  0  0  0  0  0  0  0  0  0
   37.7481   27.9200   45.0092 H   0  0  0  0  0  0  0  0  0  0  0  0
   36.0442   26.5512   43.7406 H   0  0  0  0  0  0  0  0  0  0  0  0
   37.6814   31.5864   36.4755 H   0  0  0  0  0  0  0  0  0  0  0  0
   37.0861   32.5453   37.8690 H   0  0  0  0  0  0  0  0  0  0  0  0
   39.2112   30.7102   38.7011 H   0  0  0  0  0  0  0  0  0  0  0  0
   39.7603   31.7560   37.3432 H   0  0  0  0  0  0  0  0  0  0  0  0
   39.8952   37.0569   41.5062 H   0  0  0  0  0  0  0  0  0  0  0  0
   42.2486   37.7630   42.6203 H   0  0  0  0  0  0  0  0  0  0  0  0
   42.7028   33.8750   40.9916 H   0  0  0  0  0  0  0  0  0  0  0  0
  1 11  1  0
  2  1  2  0
  3  2  1  0
  4  3  2  0
  4  5  1  0
  5  6  2  0
  6  1  1  0
  7  8  2  0
  9  8  1  0
 10  9  2  0
 11 10  1  0
 11 12  2  0
 12  7  1  0
 13  5  1  0
 13 14  1  0
 14 15  1  0
 15 19  1  0
 15 16  2  0
 16 17  1  0
 18 17  1  0
 18 20  1  0
 19 18  2  0
 20 24  1  0
 20 21  1  0
 21 22  2  0
 23 22  1  0
 24 23  2  0
  2 25  1  0
  3 26  1  0
  7 27  1  0
  8 28  1  0
  9 29  1  0
 13 30  1  0
 13 31  1  0
 14 32  1  0
 14 33  1  0
 21 34  1  0
 22 35  1  0
 24 36  1  0
M  ISO  8  25  14  26  14  27  14  28  14  29  14  30   8  31   8  32   8
M  ISO  4  33   8  34  14  35  14  36  14
M  END
>  <minimizedAffinity>  (1) 
-5.92784929

>  <minimizedRMSD>  (1) 
0.935926497

$$$$
