
     RDKit          3D

 41 44  0  0  0  0  0  0  0  0999 V2000
   36.7970   27.1590   40.2710 C   0  0  0  0  0  0  0  0  0  0  0  0
   36.5270   25.9430   39.6680 C   0  0  0  0  0  0  0  0  0  0  0  0
   35.9910   26.0080   38.3990 C   0  0  0  0  0  0  0  0  0  0  0  0
   35.7350   27.1420   37.7650 N   0  0  0  0  0  0  0  0  0  0  0  0
   36.0080   28.3070   38.3760 C   0  0  0  0  0  0  0  0  0  0  0  0
   36.5300   28.3050   39.6100 N   0  0  0  0  0  0  0  0  0  0  0  0
   37.3080   28.0050   43.8010 C   0  0  0  0  0  0  0  0  0  0  0  0
   38.4620   27.2610   44.1180 C   0  0  0  0  0  0  0  0  0  0  0  0
   39.0500   26.4760   43.1100 C   0  0  0  0  0  0  0  0  0  0  0  0
   38.4780   26.4690   41.8720 N   0  0  0  0  0  0  0  0  0  0  0  0
   37.3730   27.2040   41.6280 C   0  0  0  0  0  0  0  0  0  0  0  0
   36.7820   27.9660   42.5650 N   0  0  0  0  0  0  0  0  0  0  0  0
   35.7780   29.6510   37.8000 C   0  0  0  0  0  0  0  0  0  0  0  0
   37.1100   30.2960   37.4790 C   0  0  0  0  0  0  0  0  0  0  0  0
   37.4470   31.3690   38.4460 C   0  0  0  0  0  0  0  0  0  0  0  0
   36.7160   31.8710   39.4270 N   0  0  0  0  0  0  0  0  0  0  0  0
   37.4010   32.8030   40.0350 O   0  0  0  0  0  0  0  0  0  0  0  0
   38.5800   32.9310   39.4750 C   0  0  0  0  0  0  0  0  0  0  0  0
   38.6120   32.0350   38.4820 N   0  0  0  0  0  0  0  0  0  0  0  0
   39.4190   33.9230   40.0560 N   0  0  0  0  0  0  0  0  0  0  0  0
   40.8630   34.0320   40.1770 C   0  0  0  0  0  0  0  0  0  0  0  0
   41.0860   35.3560   39.4310 C   0  0  0  0  0  0  0  0  0  0  0  0
   40.0170   36.2140   40.1030 C   0  0  0  0  0  0  0  0  0  0  0  0
   39.0830   35.1820   40.7350 C   0  0  0  0  0  0  0  0  0  0  0  0
   36.7274   24.9847   40.1695 H   0  0  0  0  0  0  0  0  0  0  0  0
   35.7630   25.0633   37.8837 H   0  0  0  0  0  0  0  0  0  0  0  0
   36.8319   28.6253   44.5747 H   0  0  0  0  0  0  0  0  0  0  0  0
   38.8926   27.2934   45.1297 H   0  0  0  0  0  0  0  0  0  0  0  0
   39.9517   25.8806   43.3157 H   0  0  0  0  0  0  0  0  0  0  0  0
   35.1837   29.5586   36.8790 H   0  0  0  0  0  0  0  0  0  0  0  0
   35.2341   30.2734   38.5258 H   0  0  0  0  0  0  0  0  0  0  0  0
   37.8957   29.5268   37.5118 H   0  0  0  0  0  0  0  0  0  0  0  0
   37.0407   30.7461   36.4777 H   0  0  0  0  0  0  0  0  0  0  0  0
   41.1823   34.0952   41.2277 H   0  0  0  0  0  0  0  0  0  0  0  0
   41.4298   33.1747   39.7848 H   0  0  0  0  0  0  0  0  0  0  0  0
   40.9080   35.2521   38.3505 H   0  0  0  0  0  0  0  0  0  0  0  0
   42.1089   35.7565   39.4883 H   0  0  0  0  0  0  0  0  0  0  0  0
   40.4601   36.8663   40.8700 H   0  0  0  0  0  0  0  0  0  0  0  0
   39.5025   36.8876   39.4019 H   0  0  0  0  0  0  0  0  0  0  0  0
   38.0307   35.4502   40.5599 H   0  0  0  0  0  0  0  0  0  0  0  0
   39.2064   35.1165   41.8261 H   0  0  0  0  0  0  0  0  0  0  0  0
  1 11  1  0
  2  1  2  0
  3  2  1  0
  4  5  1  0
  4  3  2  0
  5  6  2  0
  6  1  1  0
  7  8  2  0
  9  8  1  0
 10  9  2  0
 11 10  1  0
 11 12  2  0
 12  7  1  0
 13  5  1  0
 14 13  1  0
 14 15  1  0
 15 19  1  0
 15 16  2  0
 16 17  1  0
 18 17  1  0
 18 20  1  0
 19 18  2  0
 20 21  1  0
 20 24  1  0
 22 23  1  0
 22 21  1  0
 23 24  1  0
  2 25  1  0
  3 26  1  0
  7 27  1  0
  8 28  1  0
  9 29  1  0
 13 30  1  0
 13 31  1  0
 14 32  1  0
 14 33  1  0
 21 34  1  0
 21 35  1  0
 22 36  1  0
 22 37  1  0
 23 38  1  0
 23 39  1  0
 24 40  1  0
 24 41  1  0
M  ISO  8  25  14  26  14  27  14  28  14  29  14  30   8  31   8  32   8
M  ISO  8  33   8  34  13  35  13  36  13  37  13  38  13  39  13  40  13
M  ISO  1  41  13
M  END
>  <minimizedAffinity>  (1) 
-5.84309196

>  <minimizedRMSD>  (1) 
2.67290139

$$$$
