
     RDKit          3D

 36 39  0  0  0  0  0  0  0  0999 V2000
   36.5410   29.0820   40.0320 C   0  0  0  0  0  0  0  0  0  0  0  0
   35.5770   28.3580   39.3610 C   0  0  0  0  0  0  0  0  0  0  0  0
   35.3160   28.7460   38.0640 C   0  0  0  0  0  0  0  0  0  0  0  0
   35.9370   29.7580   37.4570 N   0  0  0  0  0  0  0  0  0  0  0  0
   36.8700   30.4380   38.1460 C   0  0  0  0  0  0  0  0  0  0  0  0
   37.1640   30.1060   39.4060 N   0  0  0  0  0  0  0  0  0  0  0  0
   38.1340   29.1680   43.3390 C   0  0  0  0  0  0  0  0  0  0  0  0
   37.5190   28.0960   43.9910 C   0  0  0  0  0  0  0  0  0  0  0  0
   36.5580   27.3500   43.2820 C   0  0  0  0  0  0  0  0  0  0  0  0
   36.2730   27.7030   42.0070 N   0  0  0  0  0  0  0  0  0  0  0  0
   36.8960   28.7490   41.4240 C   0  0  0  0  0  0  0  0  0  0  0  0
   37.8200   29.4880   42.0630 N   0  0  0  0  0  0  0  0  0  0  0  0
   37.6510   31.5880   37.6160 C   0  0  0  0  0  0  0  0  0  0  0  0
   38.9460   31.7060   38.3870 C   0  0  0  0  0  0  0  0  0  0  0  0
   38.9380   32.9400   39.2230 C   0  0  0  0  0  0  0  0  0  0  0  0
   37.9420   33.7020   39.6180 N   0  0  0  0  0  0  0  0  0  0  0  0
   38.3920   34.6870   40.3410 O   0  0  0  0  0  0  0  0  0  0  0  0
   39.6800   34.6150   40.4500 C   0  0  0  0  0  0  0  0  0  0  0  0
   40.0110   33.5270   39.7520 N   0  0  0  0  0  0  0  0  0  0  0  0
   40.7460   35.3760   41.0970 C   0  0  0  0  0  0  0  0  0  0  0  0
   40.8280   36.6410   41.6400 C   0  0  0  0  0  0  0  0  0  0  0  0
   42.1240   36.7930   42.1100 C   0  0  0  0  0  0  0  0  0  0  0  0
   42.7610   35.6030   41.8240 C   0  0  0  0  0  0  0  0  0  0  0  0
   41.9260   34.7760   41.2230 O   0  0  0  0  0  0  0  0  0  0  0  0
   35.0466   27.5185   39.8342 H   0  0  0  0  0  0  0  0  0  0  0  0
   34.5535   28.1901   37.4987 H   0  0  0  0  0  0  0  0  0  0  0  0
   38.8884   29.7634   43.8741 H   0  0  0  0  0  0  0  0  0  0  0  0
   37.7784   27.8419   45.0293 H   0  0  0  0  0  0  0  0  0  0  0  0
   36.0490   26.4973   43.7551 H   0  0  0  0  0  0  0  0  0  0  0  0
   37.8706   31.4240   36.5507 H   0  0  0  0  0  0  0  0  0  0  0  0
   37.0681   32.5141   37.7282 H   0  0  0  0  0  0  0  0  0  0  0  0
   39.0624   30.8270   39.0381 H   0  0  0  0  0  0  0  0  0  0  0  0
   39.7831   31.7605   37.6755 H   0  0  0  0  0  0  0  0  0  0  0  0
   40.0206   37.3863   41.6906 H   0  0  0  0  0  0  0  0  0  0  0  0
   42.5534   37.6759   42.6061 H   0  0  0  0  0  0  0  0  0  0  0  0
   43.8108   35.3766   42.0619 H   0  0  0  0  0  0  0  0  0  0  0  0
  1 11  1  0
  2  1  2  0
  3  2  1  0
  4  3  2  0
  4  5  1  0
  5  6  2  0
  6  1  1  0
  7  8  2  0
  9  8  1  0
 10  9  2  0
 11 10  1  0
 11 12  2  0
 12  7  1  0
 13  5  1  0
 13 14  1  0
 14 15  1  0
 15 16  2  0
 15 19  1  0
 16 17  1  0
 17 18  1  0
 18 20  1  0
 19 18  2  0
 20 24  1  0
 20 21  2  0
 21 22  1  0
 23 22  2  0
 24 23  1  0
  2 25  1  0
  3 26  1  0
  7 27  1  0
  8 28  1  0
  9 29  1  0
 13 30  1  0
 13 31  1  0
 14 32  1  0
 14 33  1  0
 21 34  1  0
 22 35  1  0
 23 36  1  0
M  ISO  8  25  14  26  14  27  14  28  14  29  14  30   8  31   8  32   8
M  ISO  4  33   8  34  14  35  14  36  14
M  END
>  <minimizedAffinity>  (1) 
-5.70226717

>  <minimizedRMSD>  (1) 
0.843777001

$$$$
