
     RDKit          3D

 34 37  0  0  0  0  0  0  0  0999 V2000
   36.5840   29.0920   40.0240 C   0  0  0  0  0  0  0  0  0  0  0  0
   35.7070   28.3020   39.2970 C   0  0  0  0  0  0  0  0  0  0  0  0
   35.4810   28.7100   38.0030 C   0  0  0  0  0  0  0  0  0  0  0  0
   36.0340   29.7680   37.4450 N   0  0  0  0  0  0  0  0  0  0  0  0
   36.8830   30.5180   38.1760 C   0  0  0  0  0  0  0  0  0  0  0  0
   37.1440   30.1700   39.4530 N   0  0  0  0  0  0  0  0  0  0  0  0
   38.1090   29.1700   43.3730 C   0  0  0  0  0  0  0  0  0  0  0  0
   37.4580   28.0970   44.0000 C   0  0  0  0  0  0  0  0  0  0  0  0
   36.5040   27.3550   43.2780 C   0  0  0  0  0  0  0  0  0  0  0  0
   36.2650   27.7230   42.0010 N   0  0  0  0  0  0  0  0  0  0  0  0
   36.9050   28.7560   41.4280 C   0  0  0  0  0  0  0  0  0  0  0  0
   37.8220   29.4860   42.0880 N   0  0  0  0  0  0  0  0  0  0  0  0
   37.5860   31.7350   37.7020 C   0  0  0  0  0  0  0  0  0  0  0  0
   38.9840   31.7720   38.3170 C   0  0  0  0  0  0  0  0  0  0  0  0
   39.1280   32.9530   39.2150 C   0  0  0  0  0  0  0  0  0  0  0  0
   38.2010   33.7170   39.7670 N   0  0  0  0  0  0  0  0  0  0  0  0
   38.7730   34.6390   40.4830 O   0  0  0  0  0  0  0  0  0  0  0  0
   40.0640   34.5210   40.4300 C   0  0  0  0  0  0  0  0  0  0  0  0
   40.2830   33.4690   39.6400 N   0  0  0  0  0  0  0  0  0  0  0  0
   41.0070   35.3940   41.1200 C   0  0  0  0  0  0  0  0  0  0  0  0
   40.9790   36.6700   41.5830 N   0  0  0  0  0  0  0  0  0  0  0  0
   42.1220   36.9530   42.1310 O   0  0  0  0  0  0  0  0  0  0  0  0
   42.9300   35.9370   42.0680 C   0  0  0  0  0  0  0  0  0  0  0  0
   42.2550   34.9550   41.4420 N   0  0  0  0  0  0  0  0  0  0  0  0
   35.2252   27.4107   39.7253 H   0  0  0  0  0  0  0  0  0  0  0  0
   34.7903   28.1112   37.3911 H   0  0  0  0  0  0  0  0  0  0  0  0
   38.8558   29.7571   43.9277 H   0  0  0  0  0  0  0  0  0  0  0  0
   37.6903   27.8385   45.0436 H   0  0  0  0  0  0  0  0  0  0  0  0
   35.9734   26.5076   43.7367 H   0  0  0  0  0  0  0  0  0  0  0  0
   37.6659   31.7113   36.6052 H   0  0  0  0  0  0  0  0  0  0  0  0
   37.0232   32.6308   38.0032 H   0  0  0  0  0  0  0  0  0  0  0  0
   39.1481   30.8528   38.8986 H   0  0  0  0  0  0  0  0  0  0  0  0
   39.7264   31.8469   37.5088 H   0  0  0  0  0  0  0  0  0  0  0  0
   43.9604   35.8891   42.4502 H   0  0  0  0  0  0  0  0  0  0  0  0
  1 11  1  0
  2  1  2  0
  3  2  1  0
  4  3  2  0
  4  5  1  0
  5  6  2  0
  6  1  1  0
  7  8  2  0
  9  8  1  0
 10  9  2  0
 11 10  1  0
 11 12  2  0
 12  7  1  0
 13  5  1  0
 13 14  1  0
 14 15  1  0
 15 19  1  0
 15 16  2  0
 16 17  1  0
 18 17  1  0
 18 20  1  0
 19 18  2  0
 20 24  1  0
 20 21  2  0
 21 22  1  0
 23 22  1  0
 24 23  2  0
  2 25  1  0
  3 26  1  0
  7 27  1  0
  8 28  1  0
  9 29  1  0
 13 30  1  0
 13 31  1  0
 14 32  1  0
 14 33  1  0
 23 34  1  0
M  ISO  8  25  14  26  14  27  14  28  14  29  14  30   8  31   8  32   8
M  ISO  2  33   8  34  14
M  END
>  <minimizedAffinity>  (1) 
-5.69674253

>  <minimizedRMSD>  (1) 
1.00551116

$$$$
