
     RDKit          3D

 36 39  0  0  0  0  0  0  0  0999 V2000
   36.5170   29.1250   40.1000 C   0  0  0  0  0  0  0  0  0  0  0  0
   35.4750   28.4930   39.4480 C   0  0  0  0  0  0  0  0  0  0  0  0
   35.2380   28.9280   38.1570 C   0  0  0  0  0  0  0  0  0  0  0  0
   35.9340   29.8750   37.5590 N   0  0  0  0  0  0  0  0  0  0  0  0
   36.9390   30.4660   38.2260 C   0  0  0  0  0  0  0  0  0  0  0  0
   37.2230   30.0910   39.4830 N   0  0  0  0  0  0  0  0  0  0  0  0
   38.0750   29.1000   43.4360 C   0  0  0  0  0  0  0  0  0  0  0  0
   37.4550   27.9890   44.0400 C   0  0  0  0  0  0  0  0  0  0  0  0
   36.5150   27.2680   43.2980 C   0  0  0  0  0  0  0  0  0  0  0  0
   36.2450   27.6700   42.0350 N   0  0  0  0  0  0  0  0  0  0  0  0
   36.8550   28.7340   41.4870 C   0  0  0  0  0  0  0  0  0  0  0  0
   37.7660   29.4570   42.1660 N   0  0  0  0  0  0  0  0  0  0  0  0
   37.8180   31.5460   37.7020 C   0  0  0  0  0  0  0  0  0  0  0  0
   39.1410   31.5280   38.4410 C   0  0  0  0  0  0  0  0  0  0  0  0
   39.2870   32.7430   39.2750 C   0  0  0  0  0  0  0  0  0  0  0  0
   38.5480   33.1900   40.2840 N   0  0  0  0  0  0  0  0  0  0  0  0
   39.0530   34.3030   40.7170 O   0  0  0  0  0  0  0  0  0  0  0  0
   40.1050   34.6420   40.0490 C   0  0  0  0  0  0  0  0  0  0  0  0
   40.2530   33.6690   39.1480 N   0  0  0  0  0  0  0  0  0  0  0  0
   41.0250   35.8200   40.1650 C   0  0  0  0  0  0  0  0  0  0  0  0
   41.0820   36.5870   41.4320 C   0  0  0  0  0  0  0  0  0  0  0  0
   40.4050   37.1750   40.2600 C   0  0  0  0  0  0  0  0  0  0  0  0
   34.8771   27.7007   39.9221 H   0  0  0  0  0  0  0  0  0  0  0  0
   34.4192   28.4554   37.5947 H   0  0  0  0  0  0  0  0  0  0  0  0
   38.8171   29.6834   44.0007 H   0  0  0  0  0  0  0  0  0  0  0  0
   37.7044   27.6958   45.0705 H   0  0  0  0  0  0  0  0  0  0  0  0
   36.0066   26.3940   43.7312 H   0  0  0  0  0  0  0  0  0  0  0  0
   37.9960   31.3846   36.6286 H   0  0  0  0  0  0  0  0  0  0  0  0
   37.3291   32.5199   37.8518 H   0  0  0  0  0  0  0  0  0  0  0  0
   39.1825   30.6386   39.0870 H   0  0  0  0  0  0  0  0  0  0  0  0
   39.9585   31.5016   37.7055 H   0  0  0  0  0  0  0  0  0  0  0  0
   41.7774   35.3344   39.5261 H   0  0  0  0  0  0  0  0  0  0  0  0
   40.4903   36.2581   42.2990 H   0  0  0  0  0  0  0  0  0  0  0  0
   41.8897   36.9132   42.1037 H   0  0  0  0  0  0  0  0  0  0  0  0
   40.8593   38.0263   39.7318 H   0  0  0  0  0  0  0  0  0  0  0  0
   39.4045   37.5886   40.0653 H   0  0  0  0  0  0  0  0  0  0  0  0
  1 11  1  0
  2  1  2  0
  3  2  1  0
  4  3  2  0
  4  5  1  0
  5  6  2  0
  6  1  1  0
  7  8  2  0
  9  8  1  0
 10  9  2  0
 11 10  1  0
 11 12  2  0
 12  7  1  0
 13  5  1  0
 13 14  1  0
 14 15  1  0
 15 16  2  0
 16 17  1  0
 18 20  1  0
 18 17  1  0
 19 15  1  0
 19 18  2  0
 20 22  1  0
 20 21  1  0
 22 21  1  0
  2 23  1  0
  3 24  1  0
  7 25  1  0
  8 26  1  0
  9 27  1  0
 13 28  1  0
 13 29  1  0
 14 30  1  0
 14 31  1  0
 20 32  1  0
 21 33  1  0
 21 34  1  0
 22 35  1  0
 22 36  1  0
M  ISO  8  23  14  24  14  25  14  26  14  27  14  28   8  29   8  30   8
M  ISO  6  31   8  32  13  33  13  34  13  35  13  36  13
M  END
>  <minimizedAffinity>  (1) 
-5.47428799

>  <minimizedRMSD>  (1) 
0.528700233

$$$$
