
     RDKit          3D

 43 47  0  0  0  0  0  0  0  0999 V2000
   38.1190   32.2090   39.1660 C   0  0  0  0  0  0  0  0  0  0  0  0
   39.3890   32.7130   39.7270 C   0  0  0  0  0  0  0  0  0  0  0  0
   39.6200   33.3920   40.8480 N   0  0  0  0  0  0  0  0  0  0  0  0
   40.8890   33.6310   40.9490 O   0  0  0  0  0  0  0  0  0  0  0  0
   41.5340   33.1460   39.9470 C   0  0  0  0  0  0  0  0  0  0  0  0
   40.6100   32.5620   39.1630 N   0  0  0  0  0  0  0  0  0  0  0  0
   42.9420   33.3210   39.9020 N   0  0  0  0  0  0  0  0  0  0  0  0
   43.8950   32.6750   39.2360 N   0  0  0  0  0  0  0  0  0  0  0  0
   45.1060   33.2190   39.5130 C   0  0  0  0  0  0  0  0  0  0  0  0
   44.8950   34.2760   40.4110 C   0  0  0  0  0  0  0  0  0  0  0  0
   43.5210   34.2990   40.6250 C   0  0  0  0  0  0  0  0  0  0  0  0
   43.0440   35.3190   41.5310 N   0  0  0  0  0  0  0  0  0  0  0  0
   43.7820   35.4800   42.6310 N   0  0  0  0  0  0  0  0  0  0  0  0
   43.2670   36.4460   43.4150 C   0  0  0  0  0  0  0  0  0  0  0  0
   42.1430   36.9100   42.7620 C   0  0  0  0  0  0  0  0  0  0  0  0
   42.0240   36.1910   41.5870 C   0  0  0  0  0  0  0  0  0  0  0  0
   37.0250   32.2060   40.2010 C   0  0  0  0  0  0  0  0  0  0  0  0
   37.6060   28.9360   41.7100 C   0  0  0  0  0  0  0  0  0  0  0  0
   36.4590   28.2230   41.4680 C   0  0  0  0  0  0  0  0  0  0  0  0
   35.4800   28.8770   40.7790 C   0  0  0  0  0  0  0  0  0  0  0  0
   35.5970   30.1360   40.3500 N   0  0  0  0  0  0  0  0  0  0  0  0
   36.7380   30.8040   40.6080 C   0  0  0  0  0  0  0  0  0  0  0  0
   37.7190   30.2010   41.2780 N   0  0  0  0  0  0  0  0  0  0  0  0
   40.9880   28.2480   43.0100 C   0  0  0  0  0  0  0  0  0  0  0  0
   40.7690   27.1500   43.8320 C   0  0  0  0  0  0  0  0  0  0  0  0
   39.4720   26.6490   43.9390 C   0  0  0  0  0  0  0  0  0  0  0  0
   38.4750   27.2370   43.2500 N   0  0  0  0  0  0  0  0  0  0  0  0
   38.7400   28.3090   42.4600 C   0  0  0  0  0  0  0  0  0  0  0  0
   39.9890   28.8310   42.3250 N   0  0  0  0  0  0  0  0  0  0  0  0
   37.8170   32.8539   38.3276 H   0  0  0  0  0  0  0  0  0  0  0  0
   38.2767   31.1750   38.8254 H   0  0  0  0  0  0  0  0  0  0  0  0
   46.0751   32.8918   39.1082 H   0  0  0  0  0  0  0  0  0  0  0  0
   45.6521   34.9421   40.8505 H   0  0  0  0  0  0  0  0  0  0  0  0
   43.6621   36.7948   44.3805 H   0  0  0  0  0  0  0  0  0  0  0  0
   41.4672   37.7045   43.1115 H   0  0  0  0  0  0  0  0  0  0  0  0
   41.2336   36.3118   40.8316 H   0  0  0  0  0  0  0  0  0  0  0  0
   37.3479   32.7848   41.0789 H   0  0  0  0  0  0  0  0  0  0  0  0
   36.1167   32.6608   39.7789 H   0  0  0  0  0  0  0  0  0  0  0  0
   36.3360   27.1846   41.8096 H   0  0  0  0  0  0  0  0  0  0  0  0
   34.5448   28.3387   40.5656 H   0  0  0  0  0  0  0  0  0  0  0  0
   42.0070   28.6517   42.9170 H   0  0  0  0  0  0  0  0  0  0  0  0
   41.5990   26.6866   44.3855 H   0  0  0  0  0  0  0  0  0  0  0  0
   39.2647   25.7803   44.5811 H   0  0  0  0  0  0  0  0  0  0  0  0
  1  2  1  0
  1 17  1  0
  2  3  2  0
  3  4  1  0
  5  4  1  0
  6  2  1  0
  6  5  2  0
  7  5  1  0
  7 11  1  0
  8  9  2  0
  8  7  1  0
  9 10  1  0
 10 11  2  0
 11 12  1  0
 12 16  1  0
 12 13  1  0
 13 14  2  0
 15 14  1  0
 16 15  2  0
 17 22  1  0
 18 28  1  0
 19 18  2  0
 20 19  1  0
 21 22  1  0
 21 20  2  0
 22 23  2  0
 23 18  1  0
 24 25  2  0
 25 26  1  0
 27 26  2  0
 28 27  1  0
 29 28  2  0
 29 24  1  0
  1 30  1  0
  1 31  1  0
  9 32  1  0
 10 33  1  0
 14 34  1  0
 15 35  1  0
 16 36  1  0
 17 37  1  0
 17 38  1  0
 19 39  1  0
 20 40  1  0
 24 41  1  0
 25 42  1  0
 26 43  1  0
M  ISO  8  30   8  31   8  32  14  33  14  34  14  35  14  36  14  37   8
M  ISO  6  38   8  39  14  40  14  41  14  42  14  43  14
M  END
>  <minimizedAffinity>  (1) 
-6.62857389

>  <minimizedRMSD>  (1) 
3.02644134

$$$$
