
     RDKit          3D

 39 42  0  0  0  0  0  0  0  0999 V2000
   37.7790   32.0010   37.9450 C   0  0  0  0  0  0  0  0  0  0  0  0
   36.6810   29.2420   40.0660 C   0  0  0  0  0  0  0  0  0  0  0  0
   35.8520   28.4850   39.2620 C   0  0  0  0  0  0  0  0  0  0  0  0
   35.6780   28.9360   37.9890 C   0  0  0  0  0  0  0  0  0  0  0  0
   36.2570   30.0390   37.5120 N   0  0  0  0  0  0  0  0  0  0  0  0
   37.0590   30.7500   38.3240 C   0  0  0  0  0  0  0  0  0  0  0  0
   37.2550   30.3430   39.5790 N   0  0  0  0  0  0  0  0  0  0  0  0
   38.0620   29.1340   43.4880 C   0  0  0  0  0  0  0  0  0  0  0  0
   37.3710   28.0520   44.0410 C   0  0  0  0  0  0  0  0  0  0  0  0
   36.4490   27.3730   43.2550 C   0  0  0  0  0  0  0  0  0  0  0  0
   36.2370   27.7710   41.9710 N   0  0  0  0  0  0  0  0  0  0  0  0
   36.9330   28.8300   41.4740 C   0  0  0  0  0  0  0  0  0  0  0  0
   37.8440   29.5220   42.2080 N   0  0  0  0  0  0  0  0  0  0  0  0
   39.2640   31.7680   38.0420 C   0  0  0  0  0  0  0  0  0  0  0  0
   39.8790   32.6560   39.0460 C   0  0  0  0  0  0  0  0  0  0  0  0
   39.3320   33.5960   39.8130 N   0  0  0  0  0  0  0  0  0  0  0  0
   40.2570   34.1260   40.5520 O   0  0  0  0  0  0  0  0  0  0  0  0
   41.4110   33.5960   40.3290 C   0  0  0  0  0  0  0  0  0  0  0  0
   41.1900   32.6690   39.3830 N   0  0  0  0  0  0  0  0  0  0  0  0
   42.5090   34.0880   41.0740 N   0  0  0  0  0  0  0  0  0  0  0  0
   43.6830   33.5560   41.3890 N   0  0  0  0  0  0  0  0  0  0  0  0
   44.4050   34.4110   42.1300 C   0  0  0  0  0  0  0  0  0  0  0  0
   43.6450   35.5570   42.2950 C   0  0  0  0  0  0  0  0  0  0  0  0
   42.4770   35.3050   41.6200 C   0  0  0  0  0  0  0  0  0  0  0  0
   41.5210   36.4080   41.6670 C   0  0  0  0  0  0  0  0  0  0  0  0
   41.1440   37.2370   40.8010 O   0  0  0  0  0  0  0  0  0  0  0  0
   40.6940   36.9560   42.6090 O   0  0  0  0  0  0  0  0  0  0  0  0
   37.4889   32.8134   38.6276 H   0  0  0  0  0  0  0  0  0  0  0  0
   37.5158   32.2804   36.9141 H   0  0  0  0  0  0  0  0  0  0  0  0
   35.3610   27.5714   39.6283 H   0  0  0  0  0  0  0  0  0  0  0  0
   35.0246   28.3595   37.3176 H   0  0  0  0  0  0  0  0  0  0  0  0
   38.7943   29.6792   44.1016 H   0  0  0  0  0  0  0  0  0  0  0  0
   37.5543   27.7436   45.0809 H   0  0  0  0  0  0  0  0  0  0  0  0
   35.8932   26.5183   43.6680 H   0  0  0  0  0  0  0  0  0  0  0  0
   39.4450   30.7218   38.3296 H   0  0  0  0  0  0  0  0  0  0  0  0
   39.7152   31.9848   37.0625 H   0  0  0  0  0  0  0  0  0  0  0  0
   45.4136   34.2343   42.5318 H   0  0  0  0  0  0  0  0  0  0  0  0
   43.9177   36.4691   42.8462 H   0  0  0  0  0  0  0  0  0  0  0  0
   40.1239   37.7312   42.3764 H   0  0  0  0  0  0  0  0  0  0  0  0
  1 14  1  0
  1  6  1  0
  2 12  1  0
  3  2  2  0
  4  3  1  0
  5  4  2  0
  5  6  1  0
  6  7  2  0
  7  2  1  0
  8  9  2  0
 10  9  1  0
 11 10  2  0
 12 11  1  0
 12 13  2  0
 13  8  1  0
 14 15  1  0
 15 19  1  0
 15 16  2  0
 16 17  1  0
 18 17  1  0
 18 20  1  0
 19 18  2  0
 20 21  1  0
 20 24  1  0
 21 22  2  0
 22 23  1  0
 24 25  1  0
 24 23  2  0
 25 27  1  0
 26 25  2  0
  1 28  1  0
  1 29  1  0
  3 30  1  0
  4 31  1  0
  8 32  1  0
  9 33  1  0
 10 34  1  0
 14 35  1  0
 14 36  1  0
 22 37  1  0
 23 38  1  0
 27 39  1  0
M  ISO  8  28   8  29   8  30  14  31  14  32  14  33  14  34  14  35   8
M  ISO  4  36   8  37  14  38  14  39   3
M  END
>  <minimizedAffinity>  (1) 
-6.5985527

>  <minimizedRMSD>  (1) 
1.11332846

$$$$
