
     RDKit          3D

 43 47  0  0  0  0  0  0  0  0999 V2000
   39.6370   31.8310   37.9250 C   0  0  0  0  0  0  0  0  0  0  0  0
   40.5990   32.4090   38.8860 C   0  0  0  0  0  0  0  0  0  0  0  0
   40.4010   33.1030   40.0060 N   0  0  0  0  0  0  0  0  0  0  0  0
   41.5500   33.3990   40.5190 O   0  0  0  0  0  0  0  0  0  0  0  0
   42.5280   32.9510   39.8200 C   0  0  0  0  0  0  0  0  0  0  0  0
   41.9300   32.3320   38.8010 N   0  0  0  0  0  0  0  0  0  0  0  0
   43.8310   33.2340   40.3090 N   0  0  0  0  0  0  0  0  0  0  0  0
   44.9930   32.5780   40.0830 N   0  0  0  0  0  0  0  0  0  0  0  0
   46.0020   33.1560   40.7530 C   0  0  0  0  0  0  0  0  0  0  0  0
   45.4380   34.2150   41.4220 C   0  0  0  0  0  0  0  0  0  0  0  0
   44.0630   34.2590   41.1330 C   0  0  0  0  0  0  0  0  0  0  0  0
   43.3510   35.3440   41.7800 C   0  0  0  0  0  0  0  0  0  0  0  0
   43.6290   35.9350   43.0230 C   0  0  0  0  0  0  0  0  0  0  0  0
   42.7150   36.8680   43.3400 N   0  0  0  0  0  0  0  0  0  0  0  0
   41.8050   36.9280   42.3230 C   0  0  0  0  0  0  0  0  0  0  0  0
   42.2440   36.0210   41.4660 N   0  0  0  0  0  0  0  0  0  0  0  0
   38.2160   32.2360   38.2850 C   0  0  0  0  0  0  0  0  0  0  0  0
   36.8700   29.4030   40.1530 C   0  0  0  0  0  0  0  0  0  0  0  0
   36.0380   28.7610   39.2600 C   0  0  0  0  0  0  0  0  0  0  0  0
   35.9450   29.3130   38.0110 C   0  0  0  0  0  0  0  0  0  0  0  0
   36.6040   30.4020   37.6470 N   0  0  0  0  0  0  0  0  0  0  0  0
   37.4100   31.0040   38.5460 C   0  0  0  0  0  0  0  0  0  0  0  0
   37.5330   30.5020   39.7780 N   0  0  0  0  0  0  0  0  0  0  0  0
   38.0800   28.9700   43.6090 C   0  0  0  0  0  0  0  0  0  0  0  0
   37.3160   27.8870   44.0450 C   0  0  0  0  0  0  0  0  0  0  0  0
   36.3990   27.3120   43.1710 C   0  0  0  0  0  0  0  0  0  0  0  0
   36.2770   27.8260   41.9140 N   0  0  0  0  0  0  0  0  0  0  0  0
   37.0390   28.8790   41.5320 C   0  0  0  0  0  0  0  0  0  0  0  0
   37.9430   29.4650   42.3570 N   0  0  0  0  0  0  0  0  0  0  0  0
   39.7175   30.7342   37.9475 H   0  0  0  0  0  0  0  0  0  0  0  0
   39.8700   32.2077   36.9181 H   0  0  0  0  0  0  0  0  0  0  0  0
   47.0577   32.8470   40.7641 H   0  0  0  0  0  0  0  0  0  0  0  0
   45.9756   34.9155   42.0780 H   0  0  0  0  0  0  0  0  0  0  0  0
   44.4869   35.6680   43.6575 H   0  0  0  0  0  0  0  0  0  0  0  0
   40.9197   37.5752   42.2373 H   0  0  0  0  0  0  0  0  0  0  0  0
   41.7462   35.8423   40.5821 H   0  0  0  0  0  0  0  0  0  0  0  0
   38.2293   32.8659   39.1867 H   0  0  0  0  0  0  0  0  0  0  0  0
   37.7696   32.8032   37.4549 H   0  0  0  0  0  0  0  0  0  0  0  0
   35.4795   27.8546   39.5365 H   0  0  0  0  0  0  0  0  0  0  0  0
   35.2899   28.8275   37.2727 H   0  0  0  0  0  0  0  0  0  0  0  0
   38.8066   29.4296   44.2951 H   0  0  0  0  0  0  0  0  0  0  0  0
   37.4370   27.4935   45.0651 H   0  0  0  0  0  0  0  0  0  0  0  0
   35.7831   26.4576   43.4885 H   0  0  0  0  0  0  0  0  0  0  0  0
  1 17  1  0
  1  2  1  0
  2  3  2  0
  3  4  1  0
  5  7  1  0
  5  4  1  0
  6  2  1  0
  6  5  2  0
  7 11  1  0
  8  7  1  0
  8  9  2  0
  9 10  1  0
 11 10  2  0
 11 12  1  0
 12 13  2  0
 13 14  1  0
 15 14  2  0
 16 12  1  0
 16 15  1  0
 17 22  1  0
 18 28  1  0
 19 18  2  0
 20 19  1  0
 21 20  2  0
 21 22  1  0
 22 23  2  0
 23 18  1  0
 24 25  2  0
 26 25  1  0
 27 26  2  0
 28 27  1  0
 28 29  2  0
 29 24  1  0
  1 30  1  0
  1 31  1  0
  9 32  1  0
 10 33  1  0
 13 34  1  0
 15 35  1  0
 16 36  1  0
 17 37  1  0
 17 38  1  0
 19 39  1  0
 20 40  1  0
 24 41  1  0
 25 42  1  0
 26 43  1  0
M  ISO  8  30   8  31   8  32  14  33  14  34  14  35  14  36   9  37   8
M  ISO  6  38   8  39  14  40  14  41  14  42  14  43  14
M  END
>  <minimizedAffinity>  (1) 
-6.35653353

>  <minimizedRMSD>  (1) 
2.58442569

$$$$
