
     RDKit          3D

 43 47  0  0  0  0  0  0  0  0999 V2000
   39.1430   30.5560   37.8080 C   0  0  0  0  0  0  0  0  0  0  0  0
   39.7580   31.5490   38.7090 C   0  0  0  0  0  0  0  0  0  0  0  0
   39.2530   32.6570   39.2470 N   0  0  0  0  0  0  0  0  0  0  0  0
   40.1670   33.2150   39.9780 O   0  0  0  0  0  0  0  0  0  0  0  0
   41.2670   32.5500   39.9680 C   0  0  0  0  0  0  0  0  0  0  0  0
   41.0110   31.5040   39.1720 N   0  0  0  0  0  0  0  0  0  0  0  0
   42.3300   33.0950   40.7490 N   0  0  0  0  0  0  0  0  0  0  0  0
   43.4110   32.4560   41.2550 N   0  0  0  0  0  0  0  0  0  0  0  0
   44.1870   33.3120   41.9350 C   0  0  0  0  0  0  0  0  0  0  0  0
   43.5500   34.5330   41.8420 C   0  0  0  0  0  0  0  0  0  0  0  0
   42.3810   34.3770   41.0890 C   0  0  0  0  0  0  0  0  0  0  0  0
   41.5470   35.5520   40.8530 C   0  0  0  0  0  0  0  0  0  0  0  0
   41.0400   35.9990   39.6570 C   0  0  0  0  0  0  0  0  0  0  0  0
   40.2920   37.1410   39.7900 C   0  0  0  0  0  0  0  0  0  0  0  0
   40.3430   37.3990   41.1040 N   0  0  0  0  0  0  0  0  0  0  0  0
   41.0570   36.4860   41.6730 N   0  0  0  0  0  0  0  0  0  0  0  0
   37.7360   30.9900   37.4130 C   0  0  0  0  0  0  0  0  0  0  0  0
   36.2990   29.0710   40.1660 C   0  0  0  0  0  0  0  0  0  0  0  0
   35.0950   28.6090   39.6790 C   0  0  0  0  0  0  0  0  0  0  0  0
   34.7830   28.9640   38.3910 C   0  0  0  0  0  0  0  0  0  0  0  0
   35.5750   29.7120   37.6300 N   0  0  0  0  0  0  0  0  0  0  0  0
   36.7410   30.1450   38.1390 C   0  0  0  0  0  0  0  0  0  0  0  0
   37.0870   29.8250   39.3840 N   0  0  0  0  0  0  0  0  0  0  0  0
   38.0700   29.1650   43.3990 C   0  0  0  0  0  0  0  0  0  0  0  0
   37.4760   28.1040   44.0810 C   0  0  0  0  0  0  0  0  0  0  0  0
   36.4850   27.3660   43.4440 C   0  0  0  0  0  0  0  0  0  0  0  0
   36.1220   27.6970   42.1810 N   0  0  0  0  0  0  0  0  0  0  0  0
   36.7270   28.7380   41.5570 C   0  0  0  0  0  0  0  0  0  0  0  0
   37.6940   29.4870   42.1290 N   0  0  0  0  0  0  0  0  0  0  0  0
   39.7593   30.4591   36.9020 H   0  0  0  0  0  0  0  0  0  0  0  0
   39.0828   29.5906   38.3318 H   0  0  0  0  0  0  0  0  0  0  0  0
   45.1299   33.0890   42.4558 H   0  0  0  0  0  0  0  0  0  0  0  0
   43.9036   35.4747   42.2871 H   0  0  0  0  0  0  0  0  0  0  0  0
   41.2152   35.4948   38.6952 H   0  0  0  0  0  0  0  0  0  0  0  0
   39.7733   37.7101   39.0044 H   0  0  0  0  0  0  0  0  0  0  0  0
   39.8892   38.1918   41.5798 H   0  0  0  0  0  0  0  0  0  0  0  0
   37.5875   32.0463   37.6815 H   0  0  0  0  0  0  0  0  0  0  0  0
   37.6023   30.8694   36.3278 H   0  0  0  0  0  0  0  0  0  0  0  0
   34.4214   27.9897   40.2895 H   0  0  0  0  0  0  0  0  0  0  0  0
   33.8307   28.6122   37.9675 H   0  0  0  0  0  0  0  0  0  0  0  0
   38.8564   29.7530   43.8948 H   0  0  0  0  0  0  0  0  0  0  0  0
   37.7864   27.8549   45.1065 H   0  0  0  0  0  0  0  0  0  0  0  0
   36.0011   26.5231   43.9592 H   0  0  0  0  0  0  0  0  0  0  0  0
  1  2  1  0
  2  6  1  0
  2  3  2  0
  3  4  1  0
  5  4  1  0
  5  7  1  0
  6  5  2  0
  7 11  1  0
  7  8  1  0
  8  9  2  0
 10  9  1  0
 11 10  2  0
 12 11  1  0
 12 16  2  0
 13 14  2  0
 13 12  1  0
 14 15  1  0
 15 16  1  0
 17  1  1  0
 17 22  1  0
 18 28  1  0
 19 18  2  0
 20 19  1  0
 21 22  1  0
 21 20  2  0
 22 23  2  0
 23 18  1  0
 24 25  2  0
 26 25  1  0
 27 26  2  0
 28 29  2  0
 28 27  1  0
 29 24  1  0
  1 30  1  0
  1 31  1  0
  9 32  1  0
 10 33  1  0
 13 34  1  0
 14 35  1  0
 15 36  1  0
 17 37  1  0
 17 38  1  0
 19 39  1  0
 20 40  1  0
 24 41  1  0
 25 42  1  0
 26 43  1  0
M  ISO  8  30   8  31   8  32  14  33  14  34  14  35  14  36   9  37   8
M  ISO  6  38   8  39  14  40  14  41  14  42  14  43  14
M  END
>  <minimizedAffinity>  (1) 
-6.31970596

>  <minimizedRMSD>  (1) 
1.71004367

$$$$
