
     RDKit          3D

 38 41  0  0  0  0  0  0  0  0999 V2000
   37.8340   31.9920   37.9440 C   0  0  0  0  0  0  0  0  0  0  0  0
   36.7010   29.2460   40.0680 C   0  0  0  0  0  0  0  0  0  0  0  0
   35.8690   28.5100   39.2580 C   0  0  0  0  0  0  0  0  0  0  0  0
   35.6960   28.9540   37.9810 C   0  0  0  0  0  0  0  0  0  0  0  0
   36.2870   30.0480   37.5010 N   0  0  0  0  0  0  0  0  0  0  0  0
   37.0960   30.7480   38.3190 C   0  0  0  0  0  0  0  0  0  0  0  0
   37.2930   30.3460   39.5800 N   0  0  0  0  0  0  0  0  0  0  0  0
   38.0760   29.1310   43.4880 C   0  0  0  0  0  0  0  0  0  0  0  0
   37.3690   28.0440   44.0280 C   0  0  0  0  0  0  0  0  0  0  0  0
   36.4520   27.3810   43.2370 C   0  0  0  0  0  0  0  0  0  0  0  0
   36.2520   27.7850   41.9650 N   0  0  0  0  0  0  0  0  0  0  0  0
   36.9540   28.8380   41.4800 C   0  0  0  0  0  0  0  0  0  0  0  0
   37.8620   29.5230   42.2070 N   0  0  0  0  0  0  0  0  0  0  0  0
   39.2920   31.8410   38.3070 C   0  0  0  0  0  0  0  0  0  0  0  0
   39.7260   32.9000   39.2380 C   0  0  0  0  0  0  0  0  0  0  0  0
   39.0280   33.8740   39.7930 N   0  0  0  0  0  0  0  0  0  0  0  0
   39.8150   34.5850   40.5510 O   0  0  0  0  0  0  0  0  0  0  0  0
   41.0200   34.1250   40.5270 C   0  0  0  0  0  0  0  0  0  0  0  0
   40.9660   33.0720   39.7070 N   0  0  0  0  0  0  0  0  0  0  0  0
   41.9810   34.8200   41.3210 N   0  0  0  0  0  0  0  0  0  0  0  0
   43.1660   34.4070   41.8110 N   0  0  0  0  0  0  0  0  0  0  0  0
   43.7500   35.3900   42.5160 C   0  0  0  0  0  0  0  0  0  0  0  0
   42.8780   36.4720   42.4600 C   0  0  0  0  0  0  0  0  0  0  0  0
   41.7880   36.0850   41.7100 C   0  0  0  0  0  0  0  0  0  0  0  0
   40.7510   37.0430   41.5110 N   0  0  0  0  0  0  0  0  0  0  0  0
   37.4079   32.8488   38.4865 H   0  0  0  0  0  0  0  0  0  0  0  0
   37.7413   32.1610   36.8610 H   0  0  0  0  0  0  0  0  0  0  0  0
   35.3654   27.6032   39.6242 H   0  0  0  0  0  0  0  0  0  0  0  0
   35.0358   28.3810   37.3133 H   0  0  0  0  0  0  0  0  0  0  0  0
   38.8085   29.6683   44.1083 H   0  0  0  0  0  0  0  0  0  0  0  0
   37.5435   27.7255   45.0663 H   0  0  0  0  0  0  0  0  0  0  0  0
   35.8874   26.5280   43.6415 H   0  0  0  0  0  0  0  0  0  0  0  0
   39.4428   30.8612   38.7837 H   0  0  0  0  0  0  0  0  0  0  0  0
   39.8888   31.9225   37.3866 H   0  0  0  0  0  0  0  0  0  0  0  0
   44.7203   35.3478   43.0324 H   0  0  0  0  0  0  0  0  0  0  0  0
   43.0301   37.4557   42.9281 H   0  0  0  0  0  0  0  0  0  0  0  0
   40.8320   37.9829   41.9244 H   0  0  0  0  0  0  0  0  0  0  0  0
   39.9209   36.7952   40.9539 H   0  0  0  0  0  0  0  0  0  0  0  0
  1 14  1  0
  1  6  1  0
  2 12  1  0
  3  2  2  0
  4  3  1  0
  5  4  2  0
  5  6  1  0
  6  7  2  0
  7  2  1  0
  8  9  2  0
 10  9  1  0
 11 10  2  0
 12 11  1  0
 12 13  2  0
 13  8  1  0
 14 15  1  0
 15 19  1  0
 15 16  2  0
 16 17  1  0
 18 17  1  0
 18 20  1  0
 19 18  2  0
 20 24  1  0
 20 21  1  0
 21 22  2  0
 23 22  1  0
 24 23  2  0
 25 24  1  0
  1 26  1  0
  1 27  1  0
  3 28  1  0
  4 29  1  0
  8 30  1  0
  9 31  1  0
 10 32  1  0
 14 33  1  0
 14 34  1  0
 22 35  1  0
 23 36  1  0
 25 37  1  0
 25 38  1  0
M  ISO  8  26   8  27   8  28  14  29  14  30  14  31  14  32  14  33   8
M  ISO  3  34   8  35  14  36  14
M  END
>  <minimizedAffinity>  (1) 
-6.30443335

>  <minimizedRMSD>  (1) 
0.446677953

$$$$
