
     RDKit          3D

 45 48  0  0  0  0  0  0  0  0999 V2000
   37.6040   31.9750   37.9430 C   0  0  0  0  0  0  0  0  0  0  0  0
   36.6210   29.1830   40.0870 C   0  0  0  0  0  0  0  0  0  0  0  0
   35.8080   28.4050   39.2970 C   0  0  0  0  0  0  0  0  0  0  0  0
   35.5990   28.8490   38.0170 C   0  0  0  0  0  0  0  0  0  0  0  0
   36.1390   29.9690   37.5320 N   0  0  0  0  0  0  0  0  0  0  0  0
   36.9300   30.7070   38.3330 C   0  0  0  0  0  0  0  0  0  0  0  0
   37.1610   30.3100   39.5900 N   0  0  0  0  0  0  0  0  0  0  0  0
   38.0600   29.1330   43.4880 C   0  0  0  0  0  0  0  0  0  0  0  0
   37.3870   28.0590   44.0450 C   0  0  0  0  0  0  0  0  0  0  0  0
   36.4640   27.3540   43.2980 C   0  0  0  0  0  0  0  0  0  0  0  0
   36.2340   27.7360   42.0140 N   0  0  0  0  0  0  0  0  0  0  0  0
   36.9080   28.7920   41.4940 C   0  0  0  0  0  0  0  0  0  0  0  0
   37.8240   29.5060   42.2070 N   0  0  0  0  0  0  0  0  0  0  0  0
   39.0930   31.7410   37.8860 C   0  0  0  0  0  0  0  0  0  0  0  0
   39.7970   32.5510   38.8970 C   0  0  0  0  0  0  0  0  0  0  0  0
   39.3160   33.2940   39.8920 N   0  0  0  0  0  0  0  0  0  0  0  0
   40.3100   33.8240   40.5300 O   0  0  0  0  0  0  0  0  0  0  0  0
   41.4440   33.4900   40.0330 C   0  0  0  0  0  0  0  0  0  0  0  0
   41.1330   32.6850   39.0010 N   0  0  0  0  0  0  0  0  0  0  0  0
   42.6190   34.0030   40.6360 N   0  0  0  0  0  0  0  0  0  0  0  0
   43.8790   33.5700   40.6220 N   0  0  0  0  0  0  0  0  0  0  0  0
   44.6490   34.3900   41.3450 C   0  0  0  0  0  0  0  0  0  0  0  0
   43.8420   35.3960   41.8460 C   0  0  0  0  0  0  0  0  0  0  0  0
   42.5540   35.1280   41.3800 C   0  0  0  0  0  0  0  0  0  0  0  0
   41.5080   36.0970   41.7980 C   0  0  0  0  0  0  0  0  0  0  0  0
   41.1470   36.9380   40.5920 C   0  0  0  0  0  0  0  0  0  0  0  0
   42.0690   36.9980   42.9000 C   0  0  0  0  0  0  0  0  0  0  0  0
   37.2428   32.2961   36.9548 H   0  0  0  0  0  0  0  0  0  0  0  0
   37.3785   32.7586   38.6813 H   0  0  0  0  0  0  0  0  0  0  0  0
   35.3505   27.4774   39.6714 H   0  0  0  0  0  0  0  0  0  0  0  0
   34.9535   28.2519   37.3561 H   0  0  0  0  0  0  0  0  0  0  0  0
   38.7932   29.6887   44.0910 H   0  0  0  0  0  0  0  0  0  0  0  0
   37.5882   27.7663   45.0861 H   0  0  0  0  0  0  0  0  0  0  0  0
   35.9252   26.4997   43.7337 H   0  0  0  0  0  0  0  0  0  0  0  0
   39.2967   30.6764   38.0733 H   0  0  0  0  0  0  0  0  0  0  0  0
   39.4548   32.0346   36.8895 H   0  0  0  0  0  0  0  0  0  0  0  0
   45.7311   34.2837   41.5117 H   0  0  0  0  0  0  0  0  0  0  0  0
   44.1528   36.2372   42.4830 H   0  0  0  0  0  0  0  0  0  0  0  0
   40.6200   35.5718   42.1796 H   0  0  0  0  0  0  0  0  0  0  0  0
   40.7337   37.9008   40.9269 H   0  0  0  0  0  0  0  0  0  0  0  0
   42.0478   37.1164   39.9864 H   0  0  0  0  0  0  0  0  0  0  0  0
   40.3972   36.4078   39.9864 H   0  0  0  0  0  0  0  0  0  0  0  0
   41.8086   36.5798   43.8835 H   0  0  0  0  0  0  0  0  0  0  0  0
   43.1633   37.0563   42.8044 H   0  0  0  0  0  0  0  0  0  0  0  0
   41.6384   38.0057   42.8044 H   0  0  0  0  0  0  0  0  0  0  0  0
  1  6  1  0
  2 12  1  0
  3  2  2  0
  4  3  1  0
  5  4  2  0
  5  6  1  0
  6  7  2  0
  7  2  1  0
  8  9  2  0
 10  9  1  0
 11 10  2  0
 12 11  1  0
 12 13  2  0
 13  8  1  0
 14  1  1  0
 14 15  1  0
 15 19  1  0
 15 16  2  0
 16 17  1  0
 18 17  1  0
 18 20  1  0
 19 18  2  0
 20 24  1  0
 21 20  1  0
 21 22  2  0
 22 23  1  0
 24 25  1  0
 24 23  2  0
 25 27  1  0
 26 25  1  0
  1 28  1  0
  1 29  1  0
  3 30  1  0
  4 31  1  0
  8 32  1  0
  9 33  1  0
 10 34  1  0
 14 35  1  0
 14 36  1  0
 22 37  1  0
 23 38  1  0
 25 39  1  0
 26 40  1  0
 26 41  1  0
 26 42  1  0
 27 43  1  0
 27 44  1  0
 27 45  1  0
M  ISO  8  28   8  29   8  30  14  31  14  32  14  33  14  34  14  35   8
M  ISO  8  36   8  37  14  38  14  39   8  40   8  41   8  42   8  43   8
M  ISO  2  44   8  45   8
M  END
>  <minimizedAffinity>  (1) 
-6.04103518

>  <minimizedRMSD>  (1) 
1.23397028

$$$$
