
     RDKit          3D

 42 44  0  0  1  0  0  0  0  0999 V2000
   38.1710   30.8830   41.2640 C   0  0  1  0  0  0  0  0  0  0  0  0
   39.4310   31.6670   41.4540 C   0  0  0  0  0  0  0  0  0  0  0  0
   39.1590   33.0680   41.0320 C   0  0  0  0  0  0  0  0  0  0  0  0
   38.6070   33.1840   39.6490 C   0  0  0  0  0  0  0  0  0  0  0  0
   37.6700   32.1240   39.2210 C   0  0  0  0  0  0  0  0  0  0  0  0
   37.9370   30.7450   39.7630 C   0  0  2  0  0  0  0  0  0  0  0  0
   39.2410   27.4470   42.0510 C   0  0  0  0  0  0  0  0  0  0  0  0
   38.3850   27.1060   43.1360 C   0  0  0  0  0  0  0  0  0  0  0  0
   37.4370   28.0450   43.5960 C   0  0  0  0  0  0  0  0  0  0  0  0
   37.4040   29.2410   42.9560 N   0  0  0  0  0  0  0  0  0  0  0  0
   38.2240   29.5490   41.9270 C   0  0  0  0  0  0  0  0  0  0  0  0
   39.1320   28.6580   41.4810 N   0  0  0  0  0  0  0  0  0  0  0  0
   36.7710   29.8680   39.4680 C   0  0  0  0  0  0  0  0  0  0  0  0
   35.5030   30.2110   40.1750 C   0  0  0  0  0  0  0  0  0  0  0  0
   34.5480   29.0200   40.0180 C   0  0  0  0  0  0  0  0  0  0  0  0
   34.2790   28.8370   38.5420 C   0  0  0  0  0  0  0  0  0  0  0  0
   35.5380   28.7390   37.7180 C   0  0  0  0  0  0  0  0  0  0  0  0
   36.4580   29.9320   37.9830 C   0  0  0  0  0  0  0  0  0  0  0  0
   37.3346   31.4158   41.7400 H   0  0  0  0  0  0  0  0  0  0  0  0
   39.7297   31.6457   42.5124 H   0  0  0  0  0  0  0  0  0  0  0  0
   40.2474   31.2357   40.8561 H   0  0  0  0  0  0  0  0  0  0  0  0
   38.4337   33.5068   41.7330 H   0  0  0  0  0  0  0  0  0  0  0  0
   40.1231   33.5975   41.0379 H   0  0  0  0  0  0  0  0  0  0  0  0
   38.0774   34.1457   39.5803 H   0  0  0  0  0  0  0  0  0  0  0  0
   39.4757   33.0915   38.9805 H   0  0  0  0  0  0  0  0  0  0  0  0
   36.6595   32.4202   39.5391 H   0  0  0  0  0  0  0  0  0  0  0  0
   37.7946   32.0422   38.1311 H   0  0  0  0  0  0  0  0  0  0  0  0
   38.8219   30.2877   39.2962 H   0  0  0  0  0  0  0  0  0  0  0  0
   39.9849   26.7252   41.6828 H   0  0  0  0  0  0  0  0  0  0  0  0
   38.4618   26.1176   43.6126 H   0  0  0  0  0  0  0  0  0  0  0  0
   36.7586   27.8185   44.4318 H   0  0  0  0  0  0  0  0  0  0  0  0
   37.0856   28.8746   39.8204 H   0  0  0  0  0  0  0  0  0  0  0  0
   35.7050   30.3920   41.2411 H   0  0  0  0  0  0  0  0  0  0  0  0
   35.0575   31.1223   39.7495 H   0  0  0  0  0  0  0  0  0  0  0  0
   35.0117   28.1114   40.4296 H   0  0  0  0  0  0  0  0  0  0  0  0
   33.6091   29.2054   40.5603 H   0  0  0  0  0  0  0  0  0  0  0  0
   33.6978   27.9133   38.4041 H   0  0  0  0  0  0  0  0  0  0  0  0
   33.7297   29.7252   38.1965 H   0  0  0  0  0  0  0  0  0  0  0  0
   35.2698   28.7210   36.6513 H   0  0  0  0  0  0  0  0  0  0  0  0
   36.0693   27.8169   37.9962 H   0  0  0  0  0  0  0  0  0  0  0  0
   37.3805   29.8475   37.3899 H   0  0  0  0  0  0  0  0  0  0  0  0
   35.9877   30.8857   37.7016 H   0  0  0  0  0  0  0  0  0  0  0  0
  1  2  1  0
  1 11  1  0
  3  2  1  0
  4  3  1  0
  5  4  1  0
  5  6  1  0
  6  1  1  0
  7  8  2  0
  8  9  1  0
 10  9  2  0
 11 10  1  0
 12 11  2  0
 12  7  1  0
 13  6  1  0
 13 14  1  0
 15 14  1  0
 16 15  1  0
 17 18  1  0
 17 16  1  0
 18 13  1  0
  1 19  1  1
  2 20  1  0
  2 21  1  0
  3 22  1  0
  3 23  1  0
  4 24  1  0
  4 25  1  0
  5 26  1  0
  5 27  1  0
  6 28  1  6
  7 29  1  0
  8 30  1  0
  9 31  1  0
 13 32  1  0
 14 33  1  0
 14 34  1  0
 15 35  1  0
 15 36  1  0
 16 37  1  0
 16 38  1  0
 17 39  1  0
 17 40  1  0
 18 41  1  0
 18 42  1  0
M  ISO  8  19  13  20  13  21  13  22  13  23  13  24  13  25  13  26  13
M  ISO  8  27  13  28  13  29  14  30  14  31  14  32  13  33  13  34  13
M  ISO  8  35  13  36  13  37  13  38  13  39  13  40  13  41  13  42  13
M  END
>  <minimizedAffinity>  (1) 
-5.02841759

>  <minimizedRMSD>  (1) 
2.58308744

$$$$
