
     RDKit          3D

 36 38  0  0  1  0  0  0  0  0999 V2000
   37.1480   30.3670   40.5310 C   0  0  1  0  0  0  0  0  0  0  0  0
   37.8570   31.6610   40.7980 C   0  0  0  0  0  0  0  0  0  0  0  0
   37.2840   32.6830   39.8780 C   0  0  0  0  0  0  0  0  0  0  0  0
   37.3540   32.2810   38.4460 C   0  0  0  0  0  0  0  0  0  0  0  0
   37.0660   30.8500   38.1490 C   0  0  0  0  0  0  0  0  0  0  0  0
   37.6320   29.8810   39.1600 C   0  0  2  0  0  0  0  0  0  0  0  0
   38.9160   28.4130   43.1020 C   0  0  0  0  0  0  0  0  0  0  0  0
   37.9090   27.5320   43.5800 C   0  0  0  0  0  0  0  0  0  0  0  0
   36.6190   27.6060   43.0090 C   0  0  0  0  0  0  0  0  0  0  0  0
   36.4090   28.5260   42.0240 N   0  0  0  0  0  0  0  0  0  0  0  0
   37.4080   29.3530   41.5940 C   0  0  0  0  0  0  0  0  0  0  0  0
   38.6470   29.2980   42.1270 N   0  0  0  0  0  0  0  0  0  0  0  0
   37.1770   28.5240   38.8500 C   0  0  0  0  0  0  0  0  0  0  0  0
   37.9200   27.3640   38.9410 C   0  0  0  0  0  0  0  0  0  0  0  0
   37.4290   26.1130   38.6320 C   0  0  0  0  0  0  0  0  0  0  0  0
   36.1140   26.0430   38.2080 C   0  0  0  0  0  0  0  0  0  0  0  0
   35.2990   27.1560   38.0890 C   0  0  0  0  0  0  0  0  0  0  0  0
   35.8550   28.3820   38.4150 C   0  0  0  0  0  0  0  0  0  0  0  0
   36.0585   30.5183   40.5352 H   0  0  0  0  0  0  0  0  0  0  0  0
   37.7005   31.9664   41.8431 H   0  0  0  0  0  0  0  0  0  0  0  0
   38.9388   31.5520   40.6309 H   0  0  0  0  0  0  0  0  0  0  0  0
   36.2293   32.8437   40.1458 H   0  0  0  0  0  0  0  0  0  0  0  0
   37.8809   33.5999   39.9920 H   0  0  0  0  0  0  0  0  0  0  0  0
   36.6273   32.8918   37.8902 H   0  0  0  0  0  0  0  0  0  0  0  0
   38.4009   32.4384   38.1473 H   0  0  0  0  0  0  0  0  0  0  0  0
   35.9745   30.7172   38.1176 H   0  0  0  0  0  0  0  0  0  0  0  0
   37.5511   30.6231   37.1882 H   0  0  0  0  0  0  0  0  0  0  0  0
   38.7313   29.8459   39.1454 H   0  0  0  0  0  0  0  0  0  0  0  0
   39.9265   28.3703   43.5345 H   0  0  0  0  0  0  0  0  0  0  0  0
   38.1292   26.8075   44.3779 H   0  0  0  0  0  0  0  0  0  0  0  0
   35.8095   26.9428   43.3479 H   0  0  0  0  0  0  0  0  0  0  0  0
   38.9637   27.4421   39.2795 H   0  0  0  0  0  0  0  0  0  0  0  0
   38.0542   25.2121   38.7187 H   0  0  0  0  0  0  0  0  0  0  0  0
   35.6966   25.0576   37.9536 H   0  0  0  0  0  0  0  0  0  0  0  0
   34.2559   27.0703   37.7505 H   0  0  0  0  0  0  0  0  0  0  0  0
   35.2300   29.2830   38.3281 H   0  0  0  0  0  0  0  0  0  0  0  0
  1  2  1  0
  1 11  1  0
  3  2  1  0
  4  3  1  0
  5  4  1  0
  5  6  1  0
  6  1  1  0
  7  8  2  0
  9  8  1  0
 10  9  2  0
 11 10  1  0
 11 12  2  0
 12  7  1  0
 13 14  2  0
 13  6  1  0
 15 14  1  0
 16 15  2  0
 17 16  1  0
 17 18  2  0
 18 13  1  0
  1 19  1  6
  2 20  1  0
  2 21  1  0
  3 22  1  0
  3 23  1  0
  4 24  1  0
  4 25  1  0
  5 26  1  0
  5 27  1  0
  6 28  1  1
  7 29  1  0
  8 30  1  0
  9 31  1  0
 14 32  1  0
 15 33  1  0
 16 34  1  0
 17 35  1  0
 18 36  1  0
M  ISO  8  19  13  20  13  21  13  22  13  23  13  24  13  25  13  26  13
M  ISO  8  27  13  28  13  29  14  30  14  31  14  32  14  33  14  34  14
M  ISO  2  35  14  36  14
M  END
>  <minimizedAffinity>  (1) 
-4.70109987

>  <minimizedRMSD>  (1) 
0.540150881

$$$$
