
     RDKit          3D

 39 41  0  0  1  0  0  0  0  0999 V2000
   37.0150   30.3780   40.3090 C   0  0  1  0  0  0  0  0  0  0  0  0
   37.5390   31.7430   40.5940 C   0  0  0  0  0  0  0  0  0  0  0  0
   37.2000   32.6650   39.5030 C   0  0  0  0  0  0  0  0  0  0  0  0
   37.3440   32.1500   38.1170 C   0  0  0  0  0  0  0  0  0  0  0  0
   37.1640   30.6940   37.9210 C   0  0  0  0  0  0  0  0  0  0  0  0
   37.6960   29.8460   39.0700 C   0  0  1  0  0  0  0  0  0  0  0  0
   38.1210   28.9810   43.5000 C   0  0  0  0  0  0  0  0  0  0  0  0
   37.3090   27.8250   43.6440 C   0  0  0  0  0  0  0  0  0  0  0  0
   36.3730   27.5210   42.6350 C   0  0  0  0  0  0  0  0  0  0  0  0
   36.3080   28.3620   41.5770 N   0  0  0  0  0  0  0  0  0  0  0  0
   37.1090   29.4660   41.4750 C   0  0  0  0  0  0  0  0  0  0  0  0
   38.0100   29.7770   42.4240 N   0  0  0  0  0  0  0  0  0  0  0  0
   39.1730   29.9410   39.0310 C   0  0  0  0  0  0  0  0  0  0  0  0
   39.8240   29.7960   37.7010 C   0  0  0  0  0  0  0  0  0  0  0  0
   41.0520   30.7210   37.7280 C   0  0  0  0  0  0  0  0  0  0  0  0
   40.7850   31.7570   38.7680 C   0  0  0  0  0  0  0  0  0  0  0  0
   39.4950   31.3920   39.4240 C   0  0  0  0  0  0  0  0  0  0  0  0
   35.9345   30.4413   40.1128 H   0  0  0  0  0  0  0  0  0  0  0  0
   37.0953   32.1123   41.5304 H   0  0  0  0  0  0  0  0  0  0  0  0
   38.6338   31.6903   40.6864 H   0  0  0  0  0  0  0  0  0  0  0  0
   36.1510   32.9673   39.6376 H   0  0  0  0  0  0  0  0  0  0  0  0
   37.9313   33.4829   39.5818 H   0  0  0  0  0  0  0  0  0  0  0  0
   36.5984   32.6639   37.4925 H   0  0  0  0  0  0  0  0  0  0  0  0
   38.3912   32.3484   37.8450 H   0  0  0  0  0  0  0  0  0  0  0  0
   36.0889   30.4899   37.8087 H   0  0  0  0  0  0  0  0  0  0  0  0
   37.7418   30.4183   37.0265 H   0  0  0  0  0  0  0  0  0  0  0  0
   37.4771   28.7689   39.0258 H   0  0  0  0  0  0  0  0  0  0  0  0
   38.8531   29.2286   44.2828 H   0  0  0  0  0  0  0  0  0  0  0  0
   37.4088   27.1778   44.5279 H   0  0  0  0  0  0  0  0  0  0  0  0
   35.7224   26.6368   42.7047 H   0  0  0  0  0  0  0  0  0  0  0  0
   39.5392   29.1240   39.6701 H   0  0  0  0  0  0  0  0  0  0  0  0
   39.1328   30.1014   36.9016 H   0  0  0  0  0  0  0  0  0  0  0  0
   40.1097   28.7523   37.5035 H   0  0  0  0  0  0  0  0  0  0  0  0
   41.9536   30.1468   37.9875 H   0  0  0  0  0  0  0  0  0  0  0  0
   41.2218   31.1824   36.7440 H   0  0  0  0  0  0  0  0  0  0  0  0
   41.5971   31.7661   39.5099 H   0  0  0  0  0  0  0  0  0  0  0  0
   40.7280   32.7595   38.3189 H   0  0  0  0  0  0  0  0  0  0  0  0
   38.6943   32.0618   39.0773 H   0  0  0  0  0  0  0  0  0  0  0  0
   39.5740   31.4897   40.5168 H   0  0  0  0  0  0  0  0  0  0  0  0
  1  2  1  0
  1 11  1  0
  3  2  1  0
  4  3  1  0
  5  4  1  0
  5  6  1  0
  6  1  1  0
  7  8  2  0
  9  8  1  0
 10  9  2  0
 11 10  1  0
 11 12  2  0
 12  7  1  0
 13  6  1  0
 13 17  1  0
 14 15  1  0
 14 13  1  0
 15 16  1  0
 16 17  1  0
  1 18  1  6
  2 19  1  0
  2 20  1  0
  3 21  1  0
  3 22  1  0
  4 23  1  0
  4 24  1  0
  5 25  1  0
  5 26  1  0
  6 27  1  6
  7 28  1  0
  8 29  1  0
  9 30  1  0
 13 31  1  0
 14 32  1  0
 14 33  1  0
 15 34  1  0
 15 35  1  0
 16 36  1  0
 16 37  1  0
 17 38  1  0
 17 39  1  0
M  ISO  8  18  13  19  13  20  13  21  13  22  13  23  13  24  13  25  13
M  ISO  8  26  13  27  13  28  14  29  14  30  14  31  13  32  13  33  13
M  ISO  6  34  13  35  13  36  13  37  13  38  13  39  13
M  END
>  <minimizedAffinity>  (1) 
-4.62042189

>  <minimizedRMSD>  (1) 
0.143237025

$$$$
