
     RDKit          3D

 38 40  0  0  1  0  0  0  0  0999 V2000
   37.1610   30.1850   40.3400 C   0  0  1  0  0  0  0  0  0  0  0  0
   37.5690   31.6130   40.6550 C   0  0  0  0  0  0  0  0  0  0  0  0
   37.0970   32.5000   39.5750 C   0  0  0  0  0  0  0  0  0  0  0  0
   37.4400   32.0300   38.1860 C   0  0  0  0  0  0  0  0  0  0  0  0
   37.3060   30.5590   37.9840 C   0  0  0  0  0  0  0  0  0  0  0  0
   37.9620   29.7830   39.1230 C   0  0  2  0  0  0  0  0  0  0  0  0
   38.8250   28.5350   43.1860 C   0  0  0  0  0  0  0  0  0  0  0  0
   37.8000   27.6950   43.6910 C   0  0  0  0  0  0  0  0  0  0  0  0
   36.5440   27.6850   43.0550 C   0  0  0  0  0  0  0  0  0  0  0  0
   36.3960   28.5040   41.9700 N   0  0  0  0  0  0  0  0  0  0  0  0
   37.3960   29.2940   41.5130 C   0  0  0  0  0  0  0  0  0  0  0  0
   38.6040   29.3110   42.1160 N   0  0  0  0  0  0  0  0  0  0  0  0
   38.0360   28.3850   38.8490 N   0  0  0  0  0  0  0  0  0  0  0  0
   36.6460   27.9190   38.6940 C   0  0  0  0  0  0  0  0  0  0  0  0
   36.5110   26.6190   39.4020 C   0  0  0  0  0  0  0  0  0  0  0  0
   37.9410   26.2100   39.6720 C   0  0  0  0  0  0  0  0  0  0  0  0
   38.5480   27.5980   39.9540 C   0  0  0  0  0  0  0  0  0  0  0  0
   36.0852   30.0980   40.1278 H   0  0  0  0  0  0  0  0  0  0  0  0
   37.1182   31.9228   41.6094 H   0  0  0  0  0  0  0  0  0  0  0  0
   38.6643   31.6763   40.7340 H   0  0  0  0  0  0  0  0  0  0  0  0
   36.0025   32.5803   39.6500 H   0  0  0  0  0  0  0  0  0  0  0  0
   37.6096   33.4632   39.7148 H   0  0  0  0  0  0  0  0  0  0  0  0
   36.7705   32.5374   37.4758 H   0  0  0  0  0  0  0  0  0  0  0  0
   38.5003   32.2742   38.0244 H   0  0  0  0  0  0  0  0  0  0  0  0
   36.2381   30.2986   37.9409 H   0  0  0  0  0  0  0  0  0  0  0  0
   37.8094   30.2894   37.0438 H   0  0  0  0  0  0  0  0  0  0  0  0
   39.0240   30.0236   39.2787 H   0  0  0  0  0  0  0  0  0  0  0  0
   39.8094   28.5497   43.6766 H   0  0  0  0  0  0  0  0  0  0  0  0
   37.9841   27.0588   44.5693 H   0  0  0  0  0  0  0  0  0  0  0  0
   35.7213   27.0490   43.4136 H   0  0  0  0  0  0  0  0  0  0  0  0
   35.9554   28.6549   39.1316 H   0  0  0  0  0  0  0  0  0  0  0  0
   36.4019   27.7987   37.6282 H   0  0  0  0  0  0  0  0  0  0  0  0
   35.9531   26.7401   40.3423 H   0  0  0  0  0  0  0  0  0  0  0  0
   35.9557   25.8703   38.8179 H   0  0  0  0  0  0  0  0  0  0  0  0
   38.0203   25.5420   40.5423 H   0  0  0  0  0  0  0  0  0  0  0  0
   38.4267   25.6392   38.8669 H   0  0  0  0  0  0  0  0  0  0  0  0
   39.6474   27.5625   39.9430 H   0  0  0  0  0  0  0  0  0  0  0  0
   38.2866   28.0022   40.9431 H   0  0  0  0  0  0  0  0  0  0  0  0
  1  2  1  0
  1 11  1  0
  3  2  1  0
  4  3  1  0
  5  4  1  0
  5  6  1  0
  6  1  1  0
  7  8  2  0
  9  8  1  0
 10  9  2  0
 11 10  1  0
 11 12  2  0
 12  7  1  0
 13 14  1  0
 13  6  1  0
 13 17  1  0
 14 15  1  0
 15 16  1  0
 16 17  1  0
  1 18  1  6
  2 19  1  0
  2 20  1  0
  3 21  1  0
  3 22  1  0
  4 23  1  0
  4 24  1  0
  5 25  1  0
  5 26  1  0
  6 27  1  1
  7 28  1  0
  8 29  1  0
  9 30  1  0
 14 31  1  0
 14 32  1  0
 15 33  1  0
 15 34  1  0
 16 35  1  0
 16 36  1  0
 17 37  1  0
 17 38  1  0
M  ISO  8  18  13  19  13  20  13  21  13  22  13  23  13  24  13  25  13
M  ISO  8  26  13  27  13  28  14  29  14  30  14  31  13  32  13  33  13
M  ISO  5  34  13  35  13  36  13  37  13  38  13
M  END
>  <minimizedAffinity>  (1) 
-4.49068928

>  <minimizedRMSD>  (1) 
0.575636744

$$$$
