
     RDKit          3D

 33 35  0  0  1  0  0  0  0  0999 V2000
   37.1680   30.2690   40.4410 C   0  0  1  0  0  0  0  0  0  0  0  0
   37.7630   31.6150   40.7180 C   0  0  0  0  0  0  0  0  0  0  0  0
   37.1960   32.5760   39.7320 C   0  0  0  0  0  0  0  0  0  0  0  0
   37.3820   32.1560   38.3180 C   0  0  0  0  0  0  0  0  0  0  0  0
   37.2190   30.6970   38.0360 C   0  0  0  0  0  0  0  0  0  0  0  0
   37.7590   29.7840   39.1140 C   0  0  2  0  0  0  0  0  0  0  0  0
   38.9460   28.4020   43.0600 C   0  0  0  0  0  0  0  0  0  0  0  0
   37.9240   27.5580   43.5800 C   0  0  0  0  0  0  0  0  0  0  0  0
   36.6250   27.6200   43.0330 C   0  0  0  0  0  0  0  0  0  0  0  0
   36.4300   28.5020   42.0190 N   0  0  0  0  0  0  0  0  0  0  0  0
   37.4140   29.2980   41.5350 C   0  0  0  0  0  0  0  0  0  0  0  0
   38.6570   29.2430   42.0560 N   0  0  0  0  0  0  0  0  0  0  0  0
   37.1510   28.4820   38.8480 N   0  0  0  0  0  0  0  0  0  0  0  0
   37.8980   27.3760   38.9450 N   0  0  0  0  0  0  0  0  0  0  0  0
   37.1150   26.3230   38.6550 C   0  0  0  0  0  0  0  0  0  0  0  0
   35.8740   26.8410   38.3810 C   0  0  0  0  0  0  0  0  0  0  0  0
   35.9020   28.2120   38.5050 C   0  0  0  0  0  0  0  0  0  0  0  0
   36.0731   30.3526   40.3764 H   0  0  0  0  0  0  0  0  0  0  0  0
   37.5084   31.9334   41.7396 H   0  0  0  0  0  0  0  0  0  0  0  0
   38.8587   31.5759   40.6294 H   0  0  0  0  0  0  0  0  0  0  0  0
   36.1180   32.6778   39.9258 H   0  0  0  0  0  0  0  0  0  0  0  0
   37.7353   33.5261   39.8603 H   0  0  0  0  0  0  0  0  0  0  0  0
   36.6469   32.7001   37.7068 H   0  0  0  0  0  0  0  0  0  0  0  0
   38.4303   32.3870   38.0778 H   0  0  0  0  0  0  0  0  0  0  0  0
   36.1457   30.4885   37.9155 H   0  0  0  0  0  0  0  0  0  0  0  0
   37.8034   30.4875   37.1279 H   0  0  0  0  0  0  0  0  0  0  0  0
   38.8583   29.7561   39.1409 H   0  0  0  0  0  0  0  0  0  0  0  0
   39.9629   28.3647   43.4777 H   0  0  0  0  0  0  0  0  0  0  0  0
   38.1457   26.8623   44.4027 H   0  0  0  0  0  0  0  0  0  0  0  0
   35.8097   26.9848   43.4096 H   0  0  0  0  0  0  0  0  0  0  0  0
   37.4086   25.2630   38.6403 H   0  0  0  0  0  0  0  0  0  0  0  0
   34.9891   26.2493   38.1037 H   0  0  0  0  0  0  0  0  0  0  0  0
   35.0748   28.9210   38.3535 H   0  0  0  0  0  0  0  0  0  0  0  0
  1  2  1  0
  1 11  1  0
  3  2  1  0
  4  3  1  0
  5  4  1  0
  5  6  1  0
  6  1  1  0
  7  8  2  0
  9  8  1  0
 10  9  2  0
 11 10  1  0
 11 12  2  0
 12  7  1  0
 13 14  1  0
 13  6  1  0
 15 14  2  0
 16 17  2  0
 16 15  1  0
 17 13  1  0
  1 18  1  6
  2 19  1  0
  2 20  1  0
  3 21  1  0
  3 22  1  0
  4 23  1  0
  4 24  1  0
  5 25  1  0
  5 26  1  0
  6 27  1  1
  7 28  1  0
  8 29  1  0
  9 30  1  0
 15 31  1  0
 16 32  1  0
 17 33  1  0
M  ISO  8  18  13  19  13  20  13  21  13  22  13  23  13  24  13  25  13
M  ISO  8  26  13  27  13  28  14  29  14  30  14  31  14  32  14  33  14
M  END
>  <minimizedAffinity>  (1) 
-4.40964031

>  <minimizedRMSD>  (1) 
0.444599777

$$$$
