
     RDKit          3D

 33 35  0  0  1  0  0  0  0  0999 V2000
   37.1290   30.0900   40.4910 C   0  0  1  0  0  0  0  0  0  0  0  0
   37.7710   31.4320   40.6930 C   0  0  0  0  0  0  0  0  0  0  0  0
   37.2030   32.3720   39.6920 C   0  0  0  0  0  0  0  0  0  0  0  0
   37.2640   31.8870   38.2900 C   0  0  0  0  0  0  0  0  0  0  0  0
   37.0910   30.4300   38.0820 C   0  0  0  0  0  0  0  0  0  0  0  0
   37.6760   29.5470   39.1650 C   0  0  2  0  0  0  0  0  0  0  0  0
   38.8990   28.3310   43.1860 C   0  0  0  0  0  0  0  0  0  0  0  0
   37.8940   27.4970   43.7420 C   0  0  0  0  0  0  0  0  0  0  0  0
   36.6030   27.5360   43.1790 C   0  0  0  0  0  0  0  0  0  0  0  0
   36.3830   28.3820   42.1190 N   0  0  0  0  0  0  0  0  0  0  0  0
   37.3960   29.1610   41.6290 C   0  0  0  0  0  0  0  0  0  0  0  0
   38.6420   29.1440   42.1470 N   0  0  0  0  0  0  0  0  0  0  0  0
   37.1900   28.2150   38.9240 N   0  0  0  0  0  0  0  0  0  0  0  0
   37.9960   27.1370   38.9910 C   0  0  0  0  0  0  0  0  0  0  0  0
   37.1750   26.0510   38.7010 C   0  0  0  0  0  0  0  0  0  0  0  0
   35.9300   26.4820   38.4730 N   0  0  0  0  0  0  0  0  0  0  0  0
   35.9380   27.8210   38.6090 C   0  0  0  0  0  0  0  0  0  0  0  0
   36.0336   30.1837   40.4544 H   0  0  0  0  0  0  0  0  0  0  0  0
   37.5597   31.7971   41.7089 H   0  0  0  0  0  0  0  0  0  0  0  0
   38.8611   31.3552   40.5674 H   0  0  0  0  0  0  0  0  0  0  0  0
   36.1484   32.5512   39.9483 H   0  0  0  0  0  0  0  0  0  0  0  0
   37.8163   33.2841   39.7351 H   0  0  0  0  0  0  0  0  0  0  0  0
   36.4724   32.4008   37.7248 H   0  0  0  0  0  0  0  0  0  0  0  0
   38.2871   32.1080   37.9518 H   0  0  0  0  0  0  0  0  0  0  0  0
   36.0128   30.2215   38.0192 H   0  0  0  0  0  0  0  0  0  0  0  0
   37.6416   30.1869   37.1613 H   0  0  0  0  0  0  0  0  0  0  0  0
   38.7758   29.5360   39.1832 H   0  0  0  0  0  0  0  0  0  0  0  0
   39.9116   28.3115   43.6154 H   0  0  0  0  0  0  0  0  0  0  0  0
   38.1177   26.8359   44.5922 H   0  0  0  0  0  0  0  0  0  0  0  0
   35.7936   26.9065   43.5771 H   0  0  0  0  0  0  0  0  0  0  0  0
   39.0708   27.1192   39.2245 H   0  0  0  0  0  0  0  0  0  0  0  0
   37.5001   25.0008   38.6650 H   0  0  0  0  0  0  0  0  0  0  0  0
   35.0690   28.4838   38.4842 H   0  0  0  0  0  0  0  0  0  0  0  0
  1  2  1  0
  1 11  1  0
  3  2  1  0
  4  3  1  0
  5  4  1  0
  5  6  1  0
  6  1  1  0
  7  8  2  0
  9  8  1  0
 10  9  2  0
 11 10  1  0
 11 12  2  0
 12  7  1  0
 13 14  1  0
 13  6  1  0
 15 14  2  0
 16 17  2  0
 16 15  1  0
 17 13  1  0
  1 18  1  6
  2 19  1  0
  2 20  1  0
  3 21  1  0
  3 22  1  0
  4 23  1  0
  4 24  1  0
  5 25  1  0
  5 26  1  0
  6 27  1  1
  7 28  1  0
  8 29  1  0
  9 30  1  0
 14 31  1  0
 15 32  1  0
 17 33  1  0
M  ISO  8  18  13  19  13  20  13  21  13  22  13  23  13  24  13  25  13
M  ISO  8  26  13  27  13  28  14  29  14  30  14  31  14  32  14  33  14
M  END
>  <minimizedAffinity>  (1) 
-4.33961582

>  <minimizedRMSD>  (1) 
0.773279488

$$$$
