
     RDKit          3D

 29 30  0  0  1  0  0  0  0  0999 V2000
   36.9330   30.3780   40.3480 C   0  0  1  0  0  0  0  0  0  0  0  0
   37.6280   31.6780   40.5950 C   0  0  0  0  0  0  0  0  0  0  0  0
   37.2540   32.6270   39.5170 C   0  0  0  0  0  0  0  0  0  0  0  0
   37.3190   32.1150   38.1320 C   0  0  0  0  0  0  0  0  0  0  0  0
   36.9930   30.6780   37.9420 C   0  0  0  0  0  0  0  0  0  0  0  0
   37.4130   29.7770   39.0680 C   0  0  1  0  0  0  0  0  0  0  0  0
   38.0720   28.9400   43.5250 C   0  0  0  0  0  0  0  0  0  0  0  0
   37.2690   27.7760   43.6510 C   0  0  0  0  0  0  0  0  0  0  0  0
   36.3320   27.4720   42.6440 C   0  0  0  0  0  0  0  0  0  0  0  0
   36.2590   28.3320   41.5990 N   0  0  0  0  0  0  0  0  0  0  0  0
   37.0530   29.4490   41.5110 C   0  0  0  0  0  0  0  0  0  0  0  0
   37.9550   29.7550   42.4640 N   0  0  0  0  0  0  0  0  0  0  0  0
   38.8220   29.3430   38.9930 C   0  0  0  0  0  0  0  0  0  0  0  0
   39.7070   30.1670   39.6220 F   0  0  0  0  0  0  0  0  0  0  0  0
   39.0360   28.0520   39.4270 F   0  0  0  0  0  0  0  0  0  0  0  0
   39.2080   29.3320   37.6440 F   0  0  0  0  0  0  0  0  0  0  0  0
   35.8554   30.5705   40.2400 H   0  0  0  0  0  0  0  0  0  0  0  0
   37.3193   32.0839   41.5697 H   0  0  0  0  0  0  0  0  0  0  0  0
   38.7175   31.5265   40.6011 H   0  0  0  0  0  0  0  0  0  0  0  0
   36.2203   32.9536   39.7038 H   0  0  0  0  0  0  0  0  0  0  0  0
   38.0043   33.4300   39.5646 H   0  0  0  0  0  0  0  0  0  0  0  0
   36.6132   32.7012   37.5252 H   0  0  0  0  0  0  0  0  0  0  0  0
   38.3724   32.2173   37.8322 H   0  0  0  0  0  0  0  0  0  0  0  0
   35.9033   30.5884   37.8217 H   0  0  0  0  0  0  0  0  0  0  0  0
   37.5588   30.3489   37.0579 H   0  0  0  0  0  0  0  0  0  0  0  0
   36.9232   28.7952   38.9894 H   0  0  0  0  0  0  0  0  0  0  0  0
   38.8036   29.1788   44.3110 H   0  0  0  0  0  0  0  0  0  0  0  0
   37.3774   27.1182   44.5260 H   0  0  0  0  0  0  0  0  0  0  0  0
   35.6908   26.5801   42.7029 H   0  0  0  0  0  0  0  0  0  0  0  0
  1  2  1  0
  1 11  1  0
  3  2  1  0
  4  3  1  0
  5  4  1  0
  5  6  1  0
  6  1  1  0
  7  8  2  0
  9  8  1  0
 10  9  2  0
 11 10  1  0
 11 12  2  0
 12  7  1  0
 13  6  1  0
 13 15  1  0
 13 14  1  0
 16 13  1  0
  1 17  1  6
  2 18  1  0
  2 19  1  0
  3 20  1  0
  3 21  1  0
  4 22  1  0
  4 23  1  0
  5 24  1  0
  5 25  1  0
  6 26  1  6
  7 27  1  0
  8 28  1  0
  9 29  1  0
M  ISO  8  17  13  18  13  19  13  20  13  21  13  22  13  23  13  24  13
M  ISO  5  25  13  26  13  27  14  28  14  29  14
M  END
>  <minimizedAffinity>  (1) 
-4.31710958

>  <minimizedRMSD>  (1) 
0.296229273

$$$$
