
     RDKit          3D

 33 35  0  0  1  0  0  0  0  0999 V2000
   37.2540   30.2000   40.7770 C   0  0  1  0  0  0  0  0  0  0  0  0
   38.0540   31.4570   40.9410 C   0  0  0  0  0  0  0  0  0  0  0  0
   37.4350   32.5160   40.1040 C   0  0  0  0  0  0  0  0  0  0  0  0
   37.1870   32.1220   38.6810 C   0  0  0  0  0  0  0  0  0  0  0  0
   36.7620   30.7260   38.4530 C   0  0  0  0  0  0  0  0  0  0  0  0
   37.5030   29.7410   39.3350 C   0  0  2  0  0  0  0  0  0  0  0  0
   39.2880   28.0970   42.9950 C   0  0  0  0  0  0  0  0  0  0  0  0
   38.3140   27.2840   43.6290 C   0  0  0  0  0  0  0  0  0  0  0  0
   36.9560   27.4460   43.2910 C   0  0  0  0  0  0  0  0  0  0  0  0
   36.6360   28.3980   42.3520 N   0  0  0  0  0  0  0  0  0  0  0  0
   37.6090   29.1540   41.7720 C   0  0  0  0  0  0  0  0  0  0  0  0
   38.9130   29.0090   42.0860 N   0  0  0  0  0  0  0  0  0  0  0  0
   37.1070   28.3330   39.1090 C   0  0  0  0  0  0  0  0  0  0  0  0
   35.7150   27.9300   38.7940 C   0  0  0  0  0  0  0  0  0  0  0  0
   36.8050   27.7720   37.7840 C   0  0  0  0  0  0  0  0  0  0  0  0
   36.1860   30.3877   40.9616 H   0  0  0  0  0  0  0  0  0  0  0  0
   38.0484   31.7664   41.9966 H   0  0  0  0  0  0  0  0  0  0  0  0
   39.0950   31.2872   40.6288 H   0  0  0  0  0  0  0  0  0  0  0  0
   36.4709   32.7910   40.5566 H   0  0  0  0  0  0  0  0  0  0  0  0
   38.1524   33.3494   40.0757 H   0  0  0  0  0  0  0  0  0  0  0  0
   36.4012   32.7808   38.2829 H   0  0  0  0  0  0  0  0  0  0  0  0
   38.1595   32.2186   38.1762 H   0  0  0  0  0  0  0  0  0  0  0  0
   35.6852   30.6465   38.6631 H   0  0  0  0  0  0  0  0  0  0  0  0
   36.9902   30.4743   37.4068 H   0  0  0  0  0  0  0  0  0  0  0  0
   38.5764   29.7436   39.0948 H   0  0  0  0  0  0  0  0  0  0  0  0
   40.3518   27.9794   43.2490 H   0  0  0  0  0  0  0  0  0  0  0  0
   38.6156   26.5353   44.3763 H   0  0  0  0  0  0  0  0  0  0  0  0
   36.1764   26.8304   43.7634 H   0  0  0  0  0  0  0  0  0  0  0  0
   37.8296   28.0873   39.9012 H   0  0  0  0  0  0  0  0  0  0  0  0
   35.2745   27.0439   39.2743 H   0  0  0  0  0  0  0  0  0  0  0  0
   34.7331   28.4254   38.8148 H   0  0  0  0  0  0  0  0  0  0  0  0
   37.1658   26.7678   37.5167 H   0  0  0  0  0  0  0  0  0  0  0  0
   36.9575   28.1031   36.7462 H   0  0  0  0  0  0  0  0  0  0  0  0
  1  2  1  0
  1 11  1  0
  3  2  1  0
  4  3  1  0
  5  4  1  0
  5  6  1  0
  6  1  1  0
  7  8  2  0
  9  8  1  0
 10  9  2  0
 11 12  2  0
 11 10  1  0
 12  7  1  0
 13  6  1  0
 14 13  1  0
 15 14  1  0
 15 13  1  0
  1 16  1  6
  2 17  1  0
  2 18  1  0
  3 19  1  0
  3 20  1  0
  4 21  1  0
  4 22  1  0
  5 23  1  0
  5 24  1  0
  6 25  1  6
  7 26  1  0
  8 27  1  0
  9 28  1  0
 13 29  1  0
 14 30  1  0
 14 31  1  0
 15 32  1  0
 15 33  1  0
M  ISO  8  16  13  17  13  18  13  19  13  20  13  21  13  22  13  23  13
M  ISO  8  24  13  25  13  26  14  27  14  28  14  29  13  30  13  31  13
M  ISO  2  32  13  33  13
M  END
>  <minimizedAffinity>  (1) 
-4.13522768

>  <minimizedRMSD>  (1) 
1.00570369

$$$$
