
     RDKit          3D

 22 22  0  0  0  0  0  0  0  0999 V2000
   39.7280   28.8020   42.7820 C   0  0  0  0  0  0  0  0  0  0  0  0
   38.7430   27.9170   43.2260 C   0  0  0  0  0  0  0  0  0  0  0  0
   39.1790   26.7390   43.8820 C   0  0  0  0  0  0  0  0  0  0  0  0
   40.5110   26.5560   44.0300 N   0  0  0  0  0  0  0  0  0  0  0  0
   41.4280   27.4230   43.5930 C   0  0  0  0  0  0  0  0  0  0  0  0
   41.0360   28.5480   42.9670 N   0  0  0  0  0  0  0  0  0  0  0  0
   37.3120   28.1200   43.0640 C   0  0  0  0  0  0  0  0  0  0  0  0
   36.4220   27.5060   43.6970 O   0  0  0  0  0  0  0  0  0  0  0  0
   36.9800   29.0960   42.1100 O   0  0  0  0  0  0  0  0  0  0  0  0
   36.6720   28.6500   40.7930 C   0  0  0  0  0  0  0  0  0  0  0  0
   35.2220   29.0280   40.5660 C   0  0  0  0  0  0  0  0  0  0  0  0
   36.7760   27.1570   40.6330 C   0  0  0  0  0  0  0  0  0  0  0  0
   39.4274   29.7277   42.2694 H   0  0  0  0  0  0  0  0  0  0  0  0
   38.4583   25.9981   44.2583 H   0  0  0  0  0  0  0  0  0  0  0  0
   42.4983   27.2186   43.7440 H   0  0  0  0  0  0  0  0  0  0  0  0
   37.3819   29.1040   40.0860 H   0  0  0  0  0  0  0  0  0  0  0  0
   34.7209   29.1586   41.5365 H   0  0  0  0  0  0  0  0  0  0  0  0
   35.1729   29.9690   39.9984 H   0  0  0  0  0  0  0  0  0  0  0  0
   34.7198   28.2308   39.9984 H   0  0  0  0  0  0  0  0  0  0  0  0
   36.8090   26.6833   41.6252 H   0  0  0  0  0  0  0  0  0  0  0  0
   35.9015   26.7859   40.0784 H   0  0  0  0  0  0  0  0  0  0  0  0
   37.6935   26.9107   40.0784 H   0  0  0  0  0  0  0  0  0  0  0  0
  1  6  2  0
  1  2  1  0
  2  3  2  0
  3  4  1  0
  5  4  2  0
  6  5  1  0
  7  2  1  0
  7  8  2  0
  9  7  1  0
 10  9  1  0
 11 10  1  0
 12 10  1  0
  1 13  1  0
  3 14  1  0
  5 15  1  0
 10 16  1  0
 11 17  1  0
 11 18  1  0
 11 19  1  0
 12 20  1  0
 12 21  1  0
 12 22  1  0
M  ISO  8  13  14  14  14  15  14  16   8  17   8  18   8  19   8  20   8
M  ISO  2  21   8  22   8
M  END
>  <minimizedAffinity>  (1) 
-3.42943025

>  <minimizedRMSD>  (1) 
3.71118927

$$$$
