
     RDKit          3D

 19 19  0  0  0  0  0  0  0  0999 V2000
   37.5380   29.7310   41.9740 C   0  0  0  0  0  0  0  0  0  0  0  0
   36.6660   28.6450   41.8350 C   0  0  0  0  0  0  0  0  0  0  0  0
   35.6330   28.7890   40.8800 C   0  0  0  0  0  0  0  0  0  0  0  0
   35.5520   29.9300   40.1790 N   0  0  0  0  0  0  0  0  0  0  0  0
   36.4130   30.9600   40.3390 C   0  0  0  0  0  0  0  0  0  0  0  0
   37.4020   30.8420   41.2440 N   0  0  0  0  0  0  0  0  0  0  0  0
   36.7400   27.3980   42.5880 C   0  0  0  0  0  0  0  0  0  0  0  0
   36.2490   27.2600   43.7420 O   0  0  0  0  0  0  0  0  0  0  0  0
   37.3960   26.3640   41.9310 O   0  0  0  0  0  0  0  0  0  0  0  0
   37.0680   25.0210   42.2560 C   0  0  0  0  0  0  0  0  0  0  0  0
   36.6100   24.2100   41.0770 C   0  0  0  0  0  0  0  0  0  0  0  0
   38.3581   29.6682   42.7045 H   0  0  0  0  0  0  0  0  0  0  0  0
   34.9077   27.9787   40.7146 H   0  0  0  0  0  0  0  0  0  0  0  0
   36.3072   31.8771   39.7408 H   0  0  0  0  0  0  0  0  0  0  0  0
   37.9596   24.5393   42.6838 H   0  0  0  0  0  0  0  0  0  0  0  0
   36.2294   25.0574   42.9670 H   0  0  0  0  0  0  0  0  0  0  0  0
   36.0981   23.3035   41.4322 H   0  0  0  0  0  0  0  0  0  0  0  0
   35.9163   24.8080   40.4678 H   0  0  0  0  0  0  0  0  0  0  0  0
   37.4804   23.9247   40.4678 H   0  0  0  0  0  0  0  0  0  0  0  0
  2  1  2  0
  2  7  1  0
  3  2  1  0
  4  5  1  0
  4  3  2  0
  5  6  2  0
  6  1  1  0
  7  8  2  0
  9 10  1  0
  9  7  1  0
 11 10  1  0
  1 12  1  0
  3 13  1  0
  5 14  1  0
 10 15  1  0
 10 16  1  0
 11 17  1  0
 11 18  1  0
 11 19  1  0
M  ISO  8  12  14  13  14  14  14  15   8  16   8  17   8  18   8  19   8
M  END
>  <minimizedAffinity>  (1) 
-3.33295798

>  <minimizedRMSD>  (1) 
4.90765095

$$$$
