
     RDKit          3D

 16 16  0  0  0  0  0  0  0  0999 V2000
   38.0510   29.6290   42.4190 C   0  0  0  0  0  0  0  0  0  0  0  0
   36.8750   29.2240   41.7710 C   0  0  0  0  0  0  0  0  0  0  0  0
   36.4220   27.9230   42.0230 C   0  0  0  0  0  0  0  0  0  0  0  0
   37.1420   27.1540   42.8650 N   0  0  0  0  0  0  0  0  0  0  0  0
   38.2690   27.5720   43.4740 C   0  0  0  0  0  0  0  0  0  0  0  0
   38.7200   28.8240   43.2430 N   0  0  0  0  0  0  0  0  0  0  0  0
   36.1040   30.0730   40.8580 C   0  0  0  0  0  0  0  0  0  0  0  0
   35.1420   29.6920   40.1680 O   0  0  0  0  0  0  0  0  0  0  0  0
   36.5620   31.4070   40.8270 O   0  0  0  0  0  0  0  0  0  0  0  0
   37.0320   31.9460   39.6010 C   0  0  0  0  0  0  0  0  0  0  0  0
   38.4336   30.6449   42.2410 H   0  0  0  0  0  0  0  0  0  0  0  0
   35.5065   27.5399   41.5485 H   0  0  0  0  0  0  0  0  0  0  0  0
   38.8160   26.9006   44.1522 H   0  0  0  0  0  0  0  0  0  0  0  0
   37.7422   32.7604   39.8068 H   0  0  0  0  0  0  0  0  0  0  0  0
   37.5360   31.1574   39.0230 H   0  0  0  0  0  0  0  0  0  0  0  0
   36.1821   32.3379   39.0230 H   0  0  0  0  0  0  0  0  0  0  0  0
  1  6  2  0
  2  3  2  0
  2  1  1  0
  3  4  1  0
  4  5  2  0
  6  5  1  0
  7  2  1  0
  8  7  2  0
  9  7  1  0
 10  9  1  0
  1 11  1  0
  3 12  1  0
  5 13  1  0
 10 14  1  0
 10 15  1  0
 10 16  1  0
M  ISO  6  11  14  12  14  13  14  14   8  15   8  16   8
M  END
>  <minimizedAffinity>  (1) 
-3.10532212

>  <minimizedRMSD>  (1) 
1.40341055

$$$$
