
     RDKit          3D

 32 34  0  0  0  0  0  0  0  0999 V2000
   37.2910   32.5260   39.9350 C   0  0  0  0  0  0  0  0  0  0  0  0
   38.7790   32.5800   39.6990 C   0  0  0  0  0  0  0  0  0  0  0  0
   39.5690   31.4590   39.4220 C   0  0  0  0  0  0  0  0  0  0  0  0
   40.9240   31.6220   39.2210 C   0  0  0  0  0  0  0  0  0  0  0  0
   41.5010   32.8760   39.2930 C   0  0  0  0  0  0  0  0  0  0  0  0
   40.7520   34.0140   39.5650 C   0  0  0  0  0  0  0  0  0  0  0  0
   41.3450   35.2490   39.6310 C   0  0  0  0  0  0  0  0  0  0  0  0
   40.5510   36.3630   39.9080 C   0  0  0  0  0  0  0  0  0  0  0  0
   39.1790   36.1940   40.1100 C   0  0  0  0  0  0  0  0  0  0  0  0
   38.6570   34.9410   40.0300 C   0  0  0  0  0  0  0  0  0  0  0  0
   39.3840   33.7960   39.7600 C   0  0  0  0  0  0  0  0  0  0  0  0
   37.1260   31.6870   41.0180 O   0  0  0  0  0  0  0  0  0  0  0  0
   36.4900   30.4500   40.9680 C   0  0  0  0  0  0  0  0  0  0  0  0
   35.5070   30.3090   40.2460 O   0  0  0  0  0  0  0  0  0  0  0  0
   38.3020   29.6160   42.5010 C   0  0  0  0  0  0  0  0  0  0  0  0
   37.0870   29.3990   41.8190 C   0  0  0  0  0  0  0  0  0  0  0  0
   36.4430   28.1800   41.9330 C   0  0  0  0  0  0  0  0  0  0  0  0
   37.0510   27.2660   42.7140 N   0  0  0  0  0  0  0  0  0  0  0  0
   38.2080   27.4760   43.3640 C   0  0  0  0  0  0  0  0  0  0  0  0
   38.8420   28.6640   43.2570 N   0  0  0  0  0  0  0  0  0  0  0  0
   36.7749   32.1216   39.0518 H   0  0  0  0  0  0  0  0  0  0  0  0
   36.8680   33.5243   40.1205 H   0  0  0  0  0  0  0  0  0  0  0  0
   39.1147   30.4588   39.3651 H   0  0  0  0  0  0  0  0  0  0  0  0
   41.5514   30.7456   39.0013 H   0  0  0  0  0  0  0  0  0  0  0  0
   42.5843   32.9757   39.1303 H   0  0  0  0  0  0  0  0  0  0  0  0
   42.4273   35.3596   39.4685 H   0  0  0  0  0  0  0  0  0  0  0  0
   41.0014   37.3648   39.9667 H   0  0  0  0  0  0  0  0  0  0  0  0
   38.5338   37.0575   40.3294 H   0  0  0  0  0  0  0  0  0  0  0  0
   37.5747   34.8297   40.1923 H   0  0  0  0  0  0  0  0  0  0  0  0
   38.8107   30.5867   42.4065 H   0  0  0  0  0  0  0  0  0  0  0  0
   35.4938   27.9701   41.4182 H   0  0  0  0  0  0  0  0  0  0  0  0
   38.6404   26.6779   43.9853 H   0  0  0  0  0  0  0  0  0  0  0  0
  1 12  1  0
  2 11  1  0
  2  1  1  0
  3  2  2  0
  4  5  2  0
  4  3  1  0
  5  6  1  0
  6  7  1  0
  6 11  2  0
  7  8  2  0
  8  9  1  0
 10  9  2  0
 11 10  1  0
 13 12  1  0
 13 16  1  0
 14 13  2  0
 15 20  2  0
 16 17  2  0
 16 15  1  0
 17 18  1  0
 18 19  2  0
 20 19  1  0
  1 21  1  0
  1 22  1  0
  3 23  1  0
  4 24  1  0
  5 25  1  0
  7 26  1  0
  8 27  1  0
  9 28  1  0
 10 29  1  0
 15 30  1  0
 17 31  1  0
 19 32  1  0
M  ISO  8  21   8  22   8  23  14  24  14  25  14  26  14  27  14  28  14
M  ISO  4  29  14  30  14  31  14  32  14
M  END
>  <minimizedAffinity>  (1) 
-5.44159985

>  <minimizedRMSD>  (1) 
2.9507463

$$$$
