
     RDKit          3D

 31 32  0  0  0  0  0  0  0  0999 V2000
   36.2350   30.0120   41.0570 C   0  0  0  0  0  0  0  0  0  0  0  0
   35.2290   29.6720   40.4340 O   0  0  0  0  0  0  0  0  0  0  0  0
   38.3420   29.5400   42.3630 C   0  0  0  0  0  0  0  0  0  0  0  0
   37.0770   29.1470   41.9090 C   0  0  0  0  0  0  0  0  0  0  0  0
   36.5710   27.9010   42.2490 C   0  0  0  0  0  0  0  0  0  0  0  0
   37.3700   27.1250   43.0260 N   0  0  0  0  0  0  0  0  0  0  0  0
   38.5840   27.4990   43.4630 C   0  0  0  0  0  0  0  0  0  0  0  0
   39.0720   28.7250   43.1240 N   0  0  0  0  0  0  0  0  0  0  0  0
   36.6700   31.3340   40.9920 O   0  0  0  0  0  0  0  0  0  0  0  0
   36.9710   32.0000   39.8260 C   0  0  0  0  0  0  0  0  0  0  0  0
   38.1020   32.8950   40.1550 N   0  0  0  0  0  0  0  0  0  0  0  0
   39.3030   32.3540   39.5600 C   0  0  0  0  0  0  0  0  0  0  0  0
   40.3720   33.4140   39.3910 C   0  0  0  0  0  0  0  0  0  0  0  0
   40.2320   34.5290   40.4050 C   0  0  0  0  0  0  0  0  0  0  0  0
   38.8570   35.1600   40.3780 C   0  0  0  0  0  0  0  0  0  0  0  0
   37.8320   34.2430   39.7480 C   0  0  0  0  0  0  0  0  0  0  0  0
   38.7365   30.5297   42.0893 H   0  0  0  0  0  0  0  0  0  0  0  0
   35.5813   27.5616   41.9094 H   0  0  0  0  0  0  0  0  0  0  0  0
   39.1801   26.8199   44.0903 H   0  0  0  0  0  0  0  0  0  0  0  0
   36.1050   32.5862   39.4850 H   0  0  0  0  0  0  0  0  0  0  0  0
   37.2286   31.3023   39.0156 H   0  0  0  0  0  0  0  0  0  0  0  0
   39.6928   31.5549   40.2077 H   0  0  0  0  0  0  0  0  0  0  0  0
   39.0463   31.9645   38.5638 H   0  0  0  0  0  0  0  0  0  0  0  0
   41.3594   32.9449   39.5134 H   0  0  0  0  0  0  0  0  0  0  0  0
   40.2602   33.8516   38.3880 H   0  0  0  0  0  0  0  0  0  0  0  0
   40.4133   34.1187   41.4094 H   0  0  0  0  0  0  0  0  0  0  0  0
   40.9653   35.3087   40.1514 H   0  0  0  0  0  0  0  0  0  0  0  0
   38.5478   35.3848   41.4094 H   0  0  0  0  0  0  0  0  0  0  0  0
   38.9130   36.0776   39.7739 H   0  0  0  0  0  0  0  0  0  0  0  0
   37.8941   34.3173   38.6523 H   0  0  0  0  0  0  0  0  0  0  0  0
   36.8221   34.5348   40.0719 H   0  0  0  0  0  0  0  0  0  0  0  0
  1  4  1  0
  2  1  2  0
  3  8  2  0
  4  5  2  0
  4  3  1  0
  5  6  1  0
  6  7  2  0
  8  7  1  0
  9  1  1  0
 10 11  1  0
 10  9  1  0
 12 11  1  0
 13 12  1  0
 13 14  1  0
 15 14  1  0
 16 11  1  0
 16 15  1  0
  3 17  1  0
  5 18  1  0
  7 19  1  0
 10 20  1  0
 10 21  1  0
 12 22  1  0
 12 23  1  0
 13 24  1  0
 13 25  1  0
 14 26  1  0
 14 27  1  0
 15 28  1  0
 15 29  1  0
 16 30  1  0
 16 31  1  0
M  ISO  8  17  14  18  14  19  14  20   8  21   8  22  13  23  13  24  13
M  ISO  7  25  13  26  13  27  13  28  13  29  13  30  13  31  13
M  END
>  <minimizedAffinity>  (1) 
-4.36239576

>  <minimizedRMSD>  (1) 
1.05827272

$$$$
