
     RDKit          3D

 17 17  0  0  0  0  0  0  0  0999 V2000
   38.0680   29.6390   42.4250 C   0  0  0  0  0  0  0  0  0  0  0  0
   36.8810   29.2080   41.7890 C   0  0  0  0  0  0  0  0  0  0  0  0
   36.4140   27.9230   42.0190 C   0  0  0  0  0  0  0  0  0  0  0  0
   37.1430   27.1600   42.8520 N   0  0  0  0  0  0  0  0  0  0  0  0
   38.2800   27.5760   43.4610 C   0  0  0  0  0  0  0  0  0  0  0  0
   38.7350   28.8260   43.2380 N   0  0  0  0  0  0  0  0  0  0  0  0
   36.1300   30.0890   40.8760 C   0  0  0  0  0  0  0  0  0  0  0  0
   35.1920   29.7350   40.1430 O   0  0  0  0  0  0  0  0  0  0  0  0
   36.5450   31.4170   40.8700 O   0  0  0  0  0  0  0  0  0  0  0  0
   37.0810   32.0490   39.7650 C   0  0  0  0  0  0  0  0  0  0  0  0
   38.0750   31.4410   39.0550 O   0  0  0  0  0  0  0  0  0  0  0  0
   38.4432   30.6573   42.2452 H   0  0  0  0  0  0  0  0  0  0  0  0
   35.4952   27.5475   41.5448 H   0  0  0  0  0  0  0  0  0  0  0  0
   38.8281   26.8988   44.1326 H   0  0  0  0  0  0  0  0  0  0  0  0
   36.2512   32.2261   39.0649 H   0  0  0  0  0  0  0  0  0  0  0  0
   37.5750   32.9348   40.1908 H   0  0  0  0  0  0  0  0  0  0  0  0
   38.7297   31.0405   39.6804 H   0  0  0  0  0  0  0  0  0  0  0  0
  1  6  2  0
  2  3  2  0
  2  1  1  0
  3  4  1  0
  4  5  2  0
  6  5  1  0
  7  2  1  0
  8  7  2  0
  9  7  1  0
 10  9  1  0
 11 10  1  0
  1 12  1  0
  3 13  1  0
  5 14  1  0
 10 15  1  0
 10 16  1  0
 11 17  1  0
M  ISO  6  12  14  13  14  14  14  15   8  16   8  17   3
M  END
>  <minimizedAffinity>  (1) 
-3.13342071

>  <minimizedRMSD>  (1) 
0.066956453

$$$$
