
     RDKit          3D

 27 29  0  0  0  0  0  0  0  0999 V2000
   37.6870   28.3260   43.5040 C   0  0  0  0  0  0  0  0  0  0  0  0
   37.4390   27.0130   42.9810 C   0  0  0  0  0  0  0  0  0  0  0  0
   37.1410   26.8880   41.6100 C   0  0  0  0  0  0  0  0  0  0  0  0
   37.1010   28.0200   40.8440 N   0  0  0  0  0  0  0  0  0  0  0  0
   37.3420   29.2460   41.3780 C   0  0  0  0  0  0  0  0  0  0  0  0
   37.6320   29.4050   42.6910 N   0  0  0  0  0  0  0  0  0  0  0  0
   37.3160   30.4450   40.6210 N   0  0  0  0  0  0  0  0  0  0  0  0
   38.0090   31.4700   41.1360 N   0  0  0  0  0  0  0  0  0  0  0  0
   37.8740   32.5230   40.2700 C   0  0  0  0  0  0  0  0  0  0  0  0
   37.0690   32.0570   39.2280 C   0  0  0  0  0  0  0  0  0  0  0  0
   36.7010   30.7230   39.4380 C   0  0  0  0  0  0  0  0  0  0  0  0
   35.9030   29.8470   38.6530 C   0  0  0  0  0  0  0  0  0  0  0  0
   36.4500   29.4450   37.4290 C   0  0  0  0  0  0  0  0  0  0  0  0
   35.8060   28.6050   36.5470 C   0  0  0  0  0  0  0  0  0  0  0  0
   34.5700   28.1210   36.8470 C   0  0  0  0  0  0  0  0  0  0  0  0
   34.0080   28.5060   38.0570 C   0  0  0  0  0  0  0  0  0  0  0  0
   34.6500   29.3480   38.9430 C   0  0  0  0  0  0  0  0  0  0  0  0
   37.9228   28.4553   44.5706 H   0  0  0  0  0  0  0  0  0  0  0  0
   37.4805   26.1281   43.6331 H   0  0  0  0  0  0  0  0  0  0  0  0
   36.9447   25.9013   41.1652 H   0  0  0  0  0  0  0  0  0  0  0  0
   38.3095   33.5277   40.3738 H   0  0  0  0  0  0  0  0  0  0  0  0
   36.7649   32.6581   38.3584 H   0  0  0  0  0  0  0  0  0  0  0  0
   37.4476   29.8198   37.1566 H   0  0  0  0  0  0  0  0  0  0  0  0
   36.2910   28.3255   35.6001 H   0  0  0  0  0  0  0  0  0  0  0  0
   34.0365   27.4504   36.1573 H   0  0  0  0  0  0  0  0  0  0  0  0
   33.0105   28.1245   38.3204 H   0  0  0  0  0  0  0  0  0  0  0  0
   34.1584   29.6232   39.8878 H   0  0  0  0  0  0  0  0  0  0  0  0
  2  1  2  0
  3  2  1  0
  4  5  1  0
  4  3  2  0
  5  6  2  0
  6  1  1  0
  7  8  1  0
  7  5  1  0
  9  8  2  0
 10 11  2  0
 10  9  1  0
 11  7  1  0
 12 17  1  0
 12 11  1  0
 13 12  2  0
 14 15  2  0
 14 13  1  0
 15 16  1  0
 16 17  2  0
  1 18  1  0
  2 19  1  0
  3 20  1  0
  9 21  1  0
 10 22  1  0
 13 23  1  0
 14 24  1  0
 15 25  1  0
 16 26  1  0
 17 27  1  0
M  ISO  8  18  14  19  14  20  14  21  14  22  14  23  14  24  14  25  14
M  ISO  2  26  14  27  14
M  END
>  <minimizedAffinity>  (1) 
-4.87335348

>  <minimizedRMSD>  (1) 
1.9930687

$$$$
