
     RDKit          3D

 33 35  0  0  0  0  0  0  0  0999 V2000
   37.1200   32.0270   40.2220 C   0  0  0  0  0  0  0  0  0  0  0  0
   36.4410   31.2110   41.0490 O   0  0  0  0  0  0  0  0  0  0  0  0
   36.0280   29.9090   40.8440 C   0  0  0  0  0  0  0  0  0  0  0  0
   35.1050   29.7180   40.0540 O   0  0  0  0  0  0  0  0  0  0  0  0
   37.4630   29.2180   42.7760 C   0  0  0  0  0  0  0  0  0  0  0  0
   36.7600   28.8820   41.6150 C   0  0  0  0  0  0  0  0  0  0  0  0
   36.7210   27.5880   41.1410 C   0  0  0  0  0  0  0  0  0  0  0  0
   37.4140   26.6780   41.8870 N   0  0  0  0  0  0  0  0  0  0  0  0
   38.0940   26.9980   43.0090 C   0  0  0  0  0  0  0  0  0  0  0  0
   38.1200   28.2800   43.4600 N   0  0  0  0  0  0  0  0  0  0  0  0
   38.8430   32.1330   40.8700 S   0  0  0  0  0  0  0  0  0  0  0  0
   39.6590   33.5930   40.2810 C   0  0  0  0  0  0  0  0  0  0  0  0
   39.1620   34.7890   40.8060 C   0  0  0  0  0  0  0  0  0  0  0  0
   39.7140   36.0120   40.4260 C   0  0  0  0  0  0  0  0  0  0  0  0
   40.7590   35.9680   39.5180 C   0  0  0  0  0  0  0  0  0  0  0  0
   41.2540   34.7860   38.9970 C   0  0  0  0  0  0  0  0  0  0  0  0
   42.2990   34.7830   38.0920 C   0  0  0  0  0  0  0  0  0  0  0  0
   42.7490   33.5670   37.6080 C   0  0  0  0  0  0  0  0  0  0  0  0
   42.1880   32.3790   37.9990 C   0  0  0  0  0  0  0  0  0  0  0  0
   41.1280   32.3500   38.9110 C   0  0  0  0  0  0  0  0  0  0  0  0
   40.7000   33.5760   39.3800 C   0  0  0  0  0  0  0  0  0  0  0  0
   36.6577   33.0251   40.2116 H   0  0  0  0  0  0  0  0  0  0  0  0
   37.1097   31.6411   39.1920 H   0  0  0  0  0  0  0  0  0  0  0  0
   37.4743   30.2605   43.1269 H   0  0  0  0  0  0  0  0  0  0  0  0
   36.1723   27.3092   40.2293 H   0  0  0  0  0  0  0  0  0  0  0  0
   38.6316   26.2143   43.5628 H   0  0  0  0  0  0  0  0  0  0  0  0
   38.3292   34.7655   41.5243 H   0  0  0  0  0  0  0  0  0  0  0  0
   39.3380   36.9646   40.8276 H   0  0  0  0  0  0  0  0  0  0  0  0
   41.2159   36.9156   39.1967 H   0  0  0  0  0  0  0  0  0  0  0  0
   42.7622   35.7253   37.7641 H   0  0  0  0  0  0  0  0  0  0  0  0
   43.5811   33.5535   36.8886 H   0  0  0  0  0  0  0  0  0  0  0  0
   42.5770   31.4350   37.5897 H   0  0  0  0  0  0  0  0  0  0  0  0
   40.6633   31.4071   39.2351 H   0  0  0  0  0  0  0  0  0  0  0  0
  1 11  1  0
  1  2  1  0
  3  2  1  0
  3  6  1  0
  4  3  2  0
  5 10  2  0
  6  5  1  0
  7  6  2  0
  7  8  1  0
  8  9  2  0
  9 10  1  0
 12 13  2  0
 12 11  1  0
 14 13  1  0
 15 14  2  0
 16 21  2  0
 16 15  1  0
 17 16  1  0
 18 19  1  0
 18 17  2  0
 19 20  2  0
 20 21  1  0
 21 12  1  0
  1 22  1  0
  1 23  1  0
  5 24  1  0
  7 25  1  0
  9 26  1  0
 13 27  1  0
 14 28  1  0
 15 29  1  0
 17 30  1  0
 18 31  1  0
 19 32  1  0
 20 33  1  0
M  ISO  8  22   8  23   8  24  14  25  14  26  14  27  14  28  14  29  14
M  ISO  4  30  14  31  14  32  14  33  14
M  END
>  <minimizedAffinity>  (1) 
-5.38997364

>  <minimizedRMSD>  (1) 
1.52456415

$$$$
