
     RDKit          3D

 20 20  0  0  0  0  0  0  0  0999 V2000
   36.9770   31.3070   39.7160 C   0  0  0  0  0  0  0  0  0  0  0  0
   36.5030   30.7880   38.6970 O   0  0  0  0  0  0  0  0  0  0  0  0
   37.6210   33.7070   40.0890 C   0  0  0  0  0  0  0  0  0  0  0  0
   37.9890   32.3880   39.7940 C   0  0  0  0  0  0  0  0  0  0  0  0
   39.2970   32.0180   39.5600 C   0  0  0  0  0  0  0  0  0  0  0  0
   40.1990   33.0450   39.6390 N   0  0  0  0  0  0  0  0  0  0  0  0
   39.8690   34.3170   39.9200 C   0  0  0  0  0  0  0  0  0  0  0  0
   38.5650   34.6540   40.1480 N   0  0  0  0  0  0  0  0  0  0  0  0
   36.5370   30.8530   40.9580 O   0  0  0  0  0  0  0  0  0  0  0  0
   37.1740   30.0140   41.7930 C   0  0  0  0  0  0  0  0  0  0  0  0
   36.4330   28.3510   41.6260 S   0  0  0  0  0  0  0  0  0  0  0  0
   36.8150   27.3570   43.0900 C   0  0  0  0  0  0  0  0  0  0  0  0
   37.9600   27.8110   43.7090 F   0  0  0  0  0  0  0  0  0  0  0  0
   35.7700   27.3880   43.9840 F   0  0  0  0  0  0  0  0  0  0  0  0
   37.0500   26.0420   42.7460 F   0  0  0  0  0  0  0  0  0  0  0  0
   36.5665   33.9620   40.2704 H   0  0  0  0  0  0  0  0  0  0  0  0
   39.5911   30.9835   39.3290 H   0  0  0  0  0  0  0  0  0  0  0  0
   40.6512   35.0890   39.9665 H   0  0  0  0  0  0  0  0  0  0  0  0
   38.2419   29.9718   41.5325 H   0  0  0  0  0  0  0  0  0  0  0  0
   37.0739   30.3677   42.8298 H   0  0  0  0  0  0  0  0  0  0  0  0
  1  4  1  0
  1  9  1  0
  2  1  2  0
  3  8  2  0
  4  3  1  0
  5  6  1  0
  5  4  2  0
  6  7  2  0
  7  8  1  0
  9 10  1  0
 11 10  1  0
 11 12  1  0
 12 13  1  0
 12 14  1  0
 15 12  1  0
  3 16  1  0
  5 17  1  0
  7 18  1  0
 10 19  1  0
 10 20  1  0
M  ISO  5  16  14  17  14  18  14  19   8  20   8
M  END
>  <minimizedAffinity>  (1) 
-4.2028327

>  <minimizedRMSD>  (1) 
5.85349274

$$$$
