
     RDKit          3D

 43 45  0  0  0  0  0  0  0  0999 V2000
   40.1000   33.1800   39.8320 C   0  0  0  0  0  0  0  0  0  0  0  0
   39.9510   32.2310   38.6240 C   0  0  0  0  0  0  0  0  0  0  0  0
   40.6270   32.3630   40.9470 C   0  0  0  0  0  0  0  0  0  0  0  0
   40.9580   34.3230   39.4120 C   0  0  0  0  0  0  0  0  0  0  0  0
   42.1990   34.3840   40.1760 C   0  0  0  0  0  0  0  0  0  0  0  0
   43.1590   33.5050   39.8120 N   0  0  0  0  0  0  0  0  0  0  0  0
   44.3470   33.3860   40.4450 C   0  0  0  0  0  0  0  0  0  0  0  0
   44.6570   34.1540   41.5020 N   0  0  0  0  0  0  0  0  0  0  0  0
   43.7480   35.0530   41.9190 C   0  0  0  0  0  0  0  0  0  0  0  0
   44.0200   35.8910   42.9720 C   0  0  0  0  0  0  0  0  0  0  0  0
   43.0650   36.8270   43.3410 C   0  0  0  0  0  0  0  0  0  0  0  0
   41.8420   36.9680   42.7060 C   0  0  0  0  0  0  0  0  0  0  0  0
   41.6170   36.1040   41.6560 C   0  0  0  0  0  0  0  0  0  0  0  0
   42.5520   35.1530   41.2600 C   0  0  0  0  0  0  0  0  0  0  0  0
   38.4220   33.7730   40.1580 S   0  0  0  0  0  0  0  0  0  0  0  0
   37.1580   32.5080   39.7380 C   0  0  0  0  0  0  0  0  0  0  0  0
   37.0570   31.6770   40.7560 O   0  0  0  0  0  0  0  0  0  0  0  0
   36.4640   30.4400   40.8450 C   0  0  0  0  0  0  0  0  0  0  0  0
   35.4380   30.2370   40.1670 O   0  0  0  0  0  0  0  0  0  0  0  0
   38.3510   29.8220   42.3740 C   0  0  0  0  0  0  0  0  0  0  0  0
   37.1320   29.4670   41.7620 C   0  0  0  0  0  0  0  0  0  0  0  0
   36.5030   28.2770   41.9520 C   0  0  0  0  0  0  0  0  0  0  0  0
   37.1230   27.4230   42.7810 N   0  0  0  0  0  0  0  0  0  0  0  0
   38.2950   27.7160   43.3920 C   0  0  0  0  0  0  0  0  0  0  0  0
   38.9070   28.9280   43.1810 N   0  0  0  0  0  0  0  0  0  0  0  0
   39.7897   31.2036   38.9825 H   0  0  0  0  0  0  0  0  0  0  0  0
   39.0913   32.5458   38.0143 H   0  0  0  0  0  0  0  0  0  0  0  0
   40.8658   32.2672   38.0143 H   0  0  0  0  0  0  0  0  0  0  0  0
   40.3339   32.8174   41.9049 H   0  0  0  0  0  0  0  0  0  0  0  0
   40.2147   31.3452   40.8826 H   0  0  0  0  0  0  0  0  0  0  0  0
   41.7242   32.3189   40.8826 H   0  0  0  0  0  0  0  0  0  0  0  0
   41.2027   34.2103   38.3455 H   0  0  0  0  0  0  0  0  0  0  0  0
   40.3996   35.2527   39.5960 H   0  0  0  0  0  0  0  0  0  0  0  0
   45.0758   32.6440   40.0867 H   0  0  0  0  0  0  0  0  0  0  0  0
   44.9758   35.8216   43.5121 H   0  0  0  0  0  0  0  0  0  0  0  0
   43.2916   37.4947   44.1853 H   0  0  0  0  0  0  0  0  0  0  0  0
   41.1009   37.7184   43.0185 H   0  0  0  0  0  0  0  0  0  0  0  0
   40.6635   36.1687   41.1113 H   0  0  0  0  0  0  0  0  0  0  0  0
   36.1886   32.9953   39.5567 H   0  0  0  0  0  0  0  0  0  0  0  0
   37.4514   31.9631   38.8286 H   0  0  0  0  0  0  0  0  0  0  0  0
   38.8215   30.7992   42.1902 H   0  0  0  0  0  0  0  0  0  0  0  0
   35.5506   28.0308   41.4597 H   0  0  0  0  0  0  0  0  0  0  0  0
   38.7607   26.9785   44.0622 H   0  0  0  0  0  0  0  0  0  0  0  0
  1 15  1  0
  1  3  1  0
  2  1  1  0
  4  1  1  0
  4  5  1  0
  5 14  1  0
  6  5  2  0
  6  7  1  0
  7  8  2  0
  8  9  1  0
  9 10  2  0
 10 11  1  0
 12 11  2  0
 13 12  1  0
 14 13  2  0
 14  9  1  0
 16 15  1  0
 16 17  1  0
 17 18  1  0
 18 21  1  0
 19 18  2  0
 20 25  2  0
 21 22  2  0
 21 20  1  0
 22 23  1  0
 23 24  2  0
 25 24  1  0
  2 26  1  0
  2 27  1  0
  2 28  1  0
  3 29  1  0
  3 30  1  0
  3 31  1  0
  4 32  1  0
  4 33  1  0
  7 34  1  0
 10 35  1  0
 11 36  1  0
 12 37  1  0
 13 38  1  0
 16 39  1  0
 16 40  1  0
 20 41  1  0
 22 42  1  0
 24 43  1  0
M  ISO  8  26   8  27   8  28   8  29   8  30   8  31   8  32   8  33   8
M  ISO  8  34  14  35  14  36  14  37  14  38  14  39   8  40   8  41  14
M  ISO  2  42  14  43  14
M  END
>  <minimizedAffinity>  (1) 
-5.69742823

>  <minimizedRMSD>  (1) 
0.844252884

$$$$
