
     RDKit          3D

 43 45  0  0  0  0  0  0  0  0999 V2000
   40.1060   33.3820   39.8640 C   0  0  0  0  0  0  0  0  0  0  0  0
   40.1580   32.5250   38.6320 C   0  0  0  0  0  0  0  0  0  0  0  0
   40.6100   32.5740   41.0390 C   0  0  0  0  0  0  0  0  0  0  0  0
   40.9160   34.6410   39.6930 C   0  0  0  0  0  0  0  0  0  0  0  0
   42.1390   34.7290   40.5040 C   0  0  0  0  0  0  0  0  0  0  0  0
   43.2440   33.9150   40.2180 C   0  0  0  0  0  0  0  0  0  0  0  0
   44.2890   34.1480   41.0460 N   0  0  0  0  0  0  0  0  0  0  0  0
   43.8550   35.1070   41.8610 C   0  0  0  0  0  0  0  0  0  0  0  0
   44.4870   35.7410   42.9170 C   0  0  0  0  0  0  0  0  0  0  0  0
   43.8160   36.7250   43.6430 C   0  0  0  0  0  0  0  0  0  0  0  0
   42.5260   37.0670   43.3120 C   0  0  0  0  0  0  0  0  0  0  0  0
   41.8810   36.4460   42.2620 C   0  0  0  0  0  0  0  0  0  0  0  0
   42.5810   35.4800   41.5700 C   0  0  0  0  0  0  0  0  0  0  0  0
   38.3770   33.8310   40.1610 S   0  0  0  0  0  0  0  0  0  0  0  0
   37.2500   32.4730   39.6620 C   0  0  0  0  0  0  0  0  0  0  0  0
   37.1150   31.6570   40.6920 O   0  0  0  0  0  0  0  0  0  0  0  0
   36.4820   30.4440   40.8330 C   0  0  0  0  0  0  0  0  0  0  0  0
   35.4420   30.2600   40.1870 O   0  0  0  0  0  0  0  0  0  0  0  0
   38.3550   29.8210   42.3630 C   0  0  0  0  0  0  0  0  0  0  0  0
   37.1400   29.4790   41.7640 C   0  0  0  0  0  0  0  0  0  0  0  0
   36.4860   28.2760   41.9600 C   0  0  0  0  0  0  0  0  0  0  0  0
   37.1230   27.4260   42.7960 N   0  0  0  0  0  0  0  0  0  0  0  0
   38.2990   27.7270   43.3880 C   0  0  0  0  0  0  0  0  0  0  0  0
   38.9270   28.9320   43.1750 N   0  0  0  0  0  0  0  0  0  0  0  0
   40.2222   31.4664   38.9241 H   0  0  0  0  0  0  0  0  0  0  0  0
   39.2484   32.6860   38.0347 H   0  0  0  0  0  0  0  0  0  0  0  0
   41.0414   32.7948   38.0347 H   0  0  0  0  0  0  0  0  0  0  0  0
   40.3058   33.0617   41.9769 H   0  0  0  0  0  0  0  0  0  0  0  0
   40.1833   31.5610   40.9974 H   0  0  0  0  0  0  0  0  0  0  0  0
   41.7074   32.5116   40.9974 H   0  0  0  0  0  0  0  0  0  0  0  0
   41.2067   34.7144   38.6346 H   0  0  0  0  0  0  0  0  0  0  0  0
   40.2694   35.4618   40.0368 H   0  0  0  0  0  0  0  0  0  0  0  0
   43.2600   33.1691   39.4097 H   0  0  0  0  0  0  0  0  0  0  0  0
   45.2105   33.6879   41.0456 H   0  0  0  0  0  0  0  0  0  0  0  0
   45.5188   35.4686   43.1837 H   0  0  0  0  0  0  0  0  0  0  0  0
   44.3196   37.2282   44.4816 H   0  0  0  0  0  0  0  0  0  0  0  0
   42.0030   37.8432   43.8899 H   0  0  0  0  0  0  0  0  0  0  0  0
   40.8492   36.7110   41.9878 H   0  0  0  0  0  0  0  0  0  0  0  0
   36.2697   32.8853   39.3811 H   0  0  0  0  0  0  0  0  0  0  0  0
   37.6616   31.9325   38.7969 H   0  0  0  0  0  0  0  0  0  0  0  0
   38.8261   30.7961   42.1700 H   0  0  0  0  0  0  0  0  0  0  0  0
   35.5286   28.0317   41.4765 H   0  0  0  0  0  0  0  0  0  0  0  0
   38.7664   26.9898   44.0574 H   0  0  0  0  0  0  0  0  0  0  0  0
  1 14  1  0
  1  3  1  0
  2  1  1  0
  4  1  1  0
  4  5  1  0
  5 13  1  0
  6  5  2  0
  6  7  1  0
  7  8  1  0
  8  9  2  0
  9 10  1  0
 11 10  2  0
 12 11  1  0
 13  8  1  0
 13 12  2  0
 15 14  1  0
 15 16  1  0
 16 17  1  0
 17 20  1  0
 18 17  2  0
 19 24  2  0
 20 21  2  0
 20 19  1  0
 21 22  1  0
 22 23  2  0
 24 23  1  0
  2 25  1  0
  2 26  1  0
  2 27  1  0
  3 28  1  0
  3 29  1  0
  3 30  1  0
  4 31  1  0
  4 32  1  0
  6 33  1  0
  7 34  1  0
  9 35  1  0
 10 36  1  0
 11 37  1  0
 12 38  1  0
 15 39  1  0
 15 40  1  0
 19 41  1  0
 21 42  1  0
 23 43  1  0
M  ISO  8  25   8  26   8  27   8  28   8  29   8  30   8  31   8  32   8
M  ISO  8  33  14  34   9  35  14  36  14  37  14  38  14  39   8  40   8
M  ISO  3  41  14  42  14  43  14
M  END
>  <minimizedAffinity>  (1) 
-5.68099022

>  <minimizedRMSD>  (1) 
0.9749856

$$$$
