
     RDKit          3D

 43 44  0  0  0  0  0  0  0  0999 V2000
   39.5690   32.6690   39.7480 C   0  0  0  0  0  0  0  0  0  0  0  0
   39.7640   31.6840   38.6020 C   0  0  0  0  0  0  0  0  0  0  0  0
   40.0450   31.9920   41.0200 C   0  0  0  0  0  0  0  0  0  0  0  0
   40.4090   33.8780   39.4550 C   0  0  0  0  0  0  0  0  0  0  0  0
   40.6490   34.7510   40.5640 N   0  0  0  0  0  0  0  0  0  0  0  0
   39.9970   36.0030   40.3810 C   0  0  0  0  0  0  0  0  0  0  0  0
   40.8100   37.1720   40.9110 C   0  0  0  0  0  0  0  0  0  0  0  0
   41.3310   36.7330   42.1990 N   0  0  0  0  0  0  0  0  0  0  0  0
   42.3980   35.7970   41.9360 C   0  0  0  0  0  0  0  0  0  0  0  0
   42.0690   34.9410   40.7350 C   0  0  0  0  0  0  0  0  0  0  0  0
   37.8280   33.0530   39.8880 S   0  0  0  0  0  0  0  0  0  0  0  0
   36.8120   31.5680   39.4140 C   0  0  0  0  0  0  0  0  0  0  0  0
   36.3940   31.0120   40.5270 O   0  0  0  0  0  0  0  0  0  0  0  0
   35.9340   29.7570   40.8310 C   0  0  0  0  0  0  0  0  0  0  0  0
   34.8990   29.3850   40.2750 O   0  0  0  0  0  0  0  0  0  0  0  0
   37.8250   29.5940   42.4630 C   0  0  0  0  0  0  0  0  0  0  0  0
   36.7530   28.9780   41.8110 C   0  0  0  0  0  0  0  0  0  0  0  0
   36.3890   27.6560   41.9930 C   0  0  0  0  0  0  0  0  0  0  0  0
   37.1750   26.9910   42.8730 N   0  0  0  0  0  0  0  0  0  0  0  0
   38.2180   27.5700   43.5120 C   0  0  0  0  0  0  0  0  0  0  0  0
   38.5530   28.8770   43.3130 N   0  0  0  0  0  0  0  0  0  0  0  0
   39.9624   30.6818   39.0097 H   0  0  0  0  0  0  0  0  0  0  0  0
   38.8541   31.6551   37.9845 H   0  0  0  0  0  0  0  0  0  0  0  0
   40.6162   32.0040   37.9845 H   0  0  0  0  0  0  0  0  0  0  0  0
   39.6600   32.5395   41.8929 H   0  0  0  0  0  0  0  0  0  0  0  0
   39.6753   30.9563   41.0446 H   0  0  0  0  0  0  0  0  0  0  0  0
   41.1447   31.9894   41.0446 H   0  0  0  0  0  0  0  0  0  0  0  0
   41.3835   33.5300   39.0818 H   0  0  0  0  0  0  0  0  0  0  0  0
   39.8375   34.4704   38.7254 H   0  0  0  0  0  0  0  0  0  0  0  0
   39.8226   36.1548   39.3056 H   0  0  0  0  0  0  0  0  0  0  0  0
   39.0539   35.9716   40.9463 H   0  0  0  0  0  0  0  0  0  0  0  0
   41.6352   37.4093   40.2234 H   0  0  0  0  0  0  0  0  0  0  0  0
   40.2002   38.0825   41.0068 H   0  0  0  0  0  0  0  0  0  0  0  0
   41.6928   37.5405   42.7262 H   0  0  0  0  0  0  0  0  0  0  0  0
   43.3268   36.3529   41.7405 H   0  0  0  0  0  0  0  0  0  0  0  0
   42.5229   35.1452   42.8132 H   0  0  0  0  0  0  0  0  0  0  0  0
   42.5437   33.9569   40.8626 H   0  0  0  0  0  0  0  0  0  0  0  0
   42.4467   35.4596   39.8415 H   0  0  0  0  0  0  0  0  0  0  0  0
   35.9524   31.8793   38.8023 H   0  0  0  0  0  0  0  0  0  0  0  0
   37.4101   30.8582   38.8237 H   0  0  0  0  0  0  0  0  0  0  0  0
   38.0616   30.6519   42.2762 H   0  0  0  0  0  0  0  0  0  0  0  0
   35.5406   27.1885   41.4718 H   0  0  0  0  0  0  0  0  0  0  0  0
   38.8140   26.9679   44.2136 H   0  0  0  0  0  0  0  0  0  0  0  0
  1 11  1  0
  1  3  1  0
  2  1  1  0
  4  1  1  0
  4  5  1  0
  5 10  1  0
  6  5  1  0
  6  7  1  0
  7  8  1  0
  9  8  1  0
 10  9  1  0
 12 11  1  0
 12 13  1  0
 13 14  1  0
 14 17  1  0
 15 14  2  0
 16 21  2  0
 17 18  2  0
 17 16  1  0
 18 19  1  0
 19 20  2  0
 21 20  1  0
  2 22  1  0
  2 23  1  0
  2 24  1  0
  3 25  1  0
  3 26  1  0
  3 27  1  0
  4 28  1  0
  4 29  1  0
  6 30  1  0
  6 31  1  0
  7 32  1  0
  7 33  1  0
  8 34  1  0
  9 35  1  0
  9 36  1  0
 10 37  1  0
 10 38  1  0
 12 39  1  0
 12 40  1  0
 16 41  1  0
 18 42  1  0
 20 43  1  0
M  ISO  8  22   8  23   8  24   8  25   8  26   8  27   8  28   8  29   8
M  ISO  8  30  13  31  13  32  13  33  13  34   5  35  13  36  13  37  13
M  ISO  6  38  13  39   8  40   8  41  14  42  14  43  14
M  END
>  <minimizedAffinity>  (1) 
-5.04749393

>  <minimizedRMSD>  (1) 
1.15820122

$$$$
