
     RDKit          3D

 37 38  0  0  0  0  0  0  0  0999 V2000
   40.0670   33.0010   39.8800 C   0  0  0  0  0  0  0  0  0  0  0  0
   39.9480   31.9820   38.7720 C   0  0  0  0  0  0  0  0  0  0  0  0
   40.6010   32.3030   41.1160 C   0  0  0  0  0  0  0  0  0  0  0  0
   41.0380   34.0680   39.4280 C   0  0  0  0  0  0  0  0  0  0  0  0
   41.5640   34.9100   40.4980 C   0  0  0  0  0  0  0  0  0  0  0  0
   42.7750   34.5130   41.0300 C   0  0  0  0  0  0  0  0  0  0  0  0
   43.4250   35.1880   42.0510 C   0  0  0  0  0  0  0  0  0  0  0  0
   42.7920   36.2920   42.5140 N   0  0  0  0  0  0  0  0  0  0  0  0
   41.5990   36.7100   42.0140 C   0  0  0  0  0  0  0  0  0  0  0  0
   41.0010   36.0180   41.0160 N   0  0  0  0  0  0  0  0  0  0  0  0
   38.4490   33.6810   40.2380 S   0  0  0  0  0  0  0  0  0  0  0  0
   37.1370   32.4580   39.7460 C   0  0  0  0  0  0  0  0  0  0  0  0
   36.9860   31.6250   40.7470 O   0  0  0  0  0  0  0  0  0  0  0  0
   36.3950   30.3880   40.8430 C   0  0  0  0  0  0  0  0  0  0  0  0
   35.3940   30.1870   40.1590 O   0  0  0  0  0  0  0  0  0  0  0  0
   38.2410   29.7710   42.4210 C   0  0  0  0  0  0  0  0  0  0  0  0
   37.0480   29.4190   41.7760 C   0  0  0  0  0  0  0  0  0  0  0  0
   36.4290   28.1970   41.9210 C   0  0  0  0  0  0  0  0  0  0  0  0
   37.0710   27.3370   42.7510 N   0  0  0  0  0  0  0  0  0  0  0  0
   38.2280   27.6690   43.3780 C   0  0  0  0  0  0  0  0  0  0  0  0
   38.8250   28.8850   43.2210 N   0  0  0  0  0  0  0  0  0  0  0  0
   39.8308   30.9787   39.2076 H   0  0  0  0  0  0  0  0  0  0  0  0
   39.0712   32.2167   38.1506 H   0  0  0  0  0  0  0  0  0  0  0  0
   40.8553   32.0083   38.1506 H   0  0  0  0  0  0  0  0  0  0  0  0
   40.2165   32.8055   42.0158 H   0  0  0  0  0  0  0  0  0  0  0  0
   40.2736   31.2529   41.1143 H   0  0  0  0  0  0  0  0  0  0  0  0
   41.7002   32.3443   41.1143 H   0  0  0  0  0  0  0  0  0  0  0  0
   41.8866   33.5716   38.9347 H   0  0  0  0  0  0  0  0  0  0  0  0
   40.4756   34.7345   38.7576 H   0  0  0  0  0  0  0  0  0  0  0  0
   43.2506   33.6098   40.6201 H   0  0  0  0  0  0  0  0  0  0  0  0
   44.3896   34.8500   42.4577 H   0  0  0  0  0  0  0  0  0  0  0  0
   41.1188   37.6121   42.4211 H   0  0  0  0  0  0  0  0  0  0  0  0
   36.1905   32.9814   39.5457 H   0  0  0  0  0  0  0  0  0  0  0  0
   37.4289   31.9200   38.8321 H   0  0  0  0  0  0  0  0  0  0  0  0
   38.6870   30.7647   42.2677 H   0  0  0  0  0  0  0  0  0  0  0  0
   35.4915   27.9397   41.4063 H   0  0  0  0  0  0  0  0  0  0  0  0
   38.7026   26.9284   44.0385 H   0  0  0  0  0  0  0  0  0  0  0  0
  1 11  1  0
  1  3  1  0
  2  1  1  0
  4  1  1  0
  4  5  1  0
  5 10  1  0
  5  6  2  0
  6  7  1  0
  7  8  2  0
  9  8  1  0
 10  9  2  0
 12 11  1  0
 12 13  1  0
 13 14  1  0
 14 17  1  0
 15 14  2  0
 16 21  2  0
 17 18  2  0
 17 16  1  0
 18 19  1  0
 19 20  2  0
 21 20  1  0
  2 22  1  0
  2 23  1  0
  2 24  1  0
  3 25  1  0
  3 26  1  0
  3 27  1  0
  4 28  1  0
  4 29  1  0
  6 30  1  0
  7 31  1  0
  9 32  1  0
 12 33  1  0
 12 34  1  0
 16 35  1  0
 18 36  1  0
 20 37  1  0
M  ISO  8  22   8  23   8  24   8  25   8  26   8  27   8  28   8  29   8
M  ISO  8  30  14  31  14  32  14  33   8  34   8  35  14  36  14  37  14
M  END
>  <minimizedAffinity>  (1) 
-4.94707966

>  <minimizedRMSD>  (1) 
1.88657725

$$$$
