
     RDKit          3D

 36 37  0  0  0  0  0  0  0  0999 V2000
   39.9610   32.5200   39.9670 C   0  0  0  0  0  0  0  0  0  0  0  0
   39.7430   31.2640   39.1550 C   0  0  0  0  0  0  0  0  0  0  0  0
   40.7870   32.1330   41.1760 C   0  0  0  0  0  0  0  0  0  0  0  0
   40.7030   33.5430   39.1250 C   0  0  0  0  0  0  0  0  0  0  0  0
   40.7010   34.8180   39.8960 C   0  0  0  0  0  0  0  0  0  0  0  0
   39.8670   35.9160   39.8770 C   0  0  0  0  0  0  0  0  0  0  0  0
   40.3360   36.8090   40.8020 C   0  0  0  0  0  0  0  0  0  0  0  0
   41.4490   36.2200   41.3580 C   0  0  0  0  0  0  0  0  0  0  0  0
   41.6310   35.0380   40.7890 O   0  0  0  0  0  0  0  0  0  0  0  0
   38.3740   33.1650   40.4840 S   0  0  0  0  0  0  0  0  0  0  0  0
   37.0120   32.0850   39.8240 C   0  0  0  0  0  0  0  0  0  0  0  0
   36.5620   31.3690   40.8280 O   0  0  0  0  0  0  0  0  0  0  0  0
   36.1780   30.0570   40.9340 C   0  0  0  0  0  0  0  0  0  0  0  0
   35.1860   29.6990   40.2800 O   0  0  0  0  0  0  0  0  0  0  0  0
   38.2150   29.6820   42.3270 C   0  0  0  0  0  0  0  0  0  0  0  0
   37.0060   29.1950   41.8300 C   0  0  0  0  0  0  0  0  0  0  0  0
   36.5190   27.9390   42.1070 C   0  0  0  0  0  0  0  0  0  0  0  0
   37.3190   27.2010   42.9100 N   0  0  0  0  0  0  0  0  0  0  0  0
   38.4960   27.6450   43.4050 C   0  0  0  0  0  0  0  0  0  0  0  0
   38.9510   28.9120   43.1050 N   0  0  0  0  0  0  0  0  0  0  0  0
   39.5948   30.4103   39.8327 H   0  0  0  0  0  0  0  0  0  0  0  0
   38.8528   31.3874   38.5207 H   0  0  0  0  0  0  0  0  0  0  0  0
   40.6227   31.0802   38.5207 H   0  0  0  0  0  0  0  0  0  0  0  0
   40.2373   32.3906   42.0933 H   0  0  0  0  0  0  0  0  0  0  0  0
   40.9808   31.0504   41.1564 H   0  0  0  0  0  0  0  0  0  0  0  0
   41.7429   32.6770   41.1564 H   0  0  0  0  0  0  0  0  0  0  0  0
   40.1918   33.6826   38.1611 H   0  0  0  0  0  0  0  0  0  0  0  0
   41.7302   33.2106   38.9145 H   0  0  0  0  0  0  0  0  0  0  0  0
   38.9843   36.0499   39.2345 H   0  0  0  0  0  0  0  0  0  0  0  0
   39.9116   37.7931   41.0497 H   0  0  0  0  0  0  0  0  0  0  0  0
   42.0818   36.6581   42.1439 H   0  0  0  0  0  0  0  0  0  0  0  0
   36.2035   32.7074   39.4130 H   0  0  0  0  0  0  0  0  0  0  0  0
   37.3849   31.4357   39.0182 H   0  0  0  0  0  0  0  0  0  0  0  0
   38.5512   30.6980   42.0727 H   0  0  0  0  0  0  0  0  0  0  0  0
   35.5628   27.5672   41.7103 H   0  0  0  0  0  0  0  0  0  0  0  0
   39.0965   26.9897   44.0531 H   0  0  0  0  0  0  0  0  0  0  0  0
  1 10  1  0
  1  3  1  0
  2  1  1  0
  4  5  1  0
  4  1  1  0
  5  9  1  0
  6  5  2  0
  6  7  1  0
  7  8  2  0
  9  8  1  0
 11 10  1  0
 11 12  1  0
 12 13  1  0
 13 16  1  0
 14 13  2  0
 15 20  2  0
 16 17  2  0
 16 15  1  0
 17 18  1  0
 18 19  2  0
 20 19  1  0
  2 21  1  0
  2 22  1  0
  2 23  1  0
  3 24  1  0
  3 25  1  0
  3 26  1  0
  4 27  1  0
  4 28  1  0
  6 29  1  0
  7 30  1  0
  8 31  1  0
 11 32  1  0
 11 33  1  0
 15 34  1  0
 17 35  1  0
 19 36  1  0
M  ISO  8  21   8  22   8  23   8  24   8  25   8  26   8  27   8  28   8
M  ISO  8  29  14  30  14  31  14  32   8  33   8  34  14  35  14  36  14
M  END
>  <minimizedAffinity>  (1) 
-4.7717123

>  <minimizedRMSD>  (1) 
1.54145467

$$$$
