
     RDKit          3D

 42 44  0  0  0  0  0  0  0  0999 V2000
   40.4650   28.4350   38.1190 C   0  0  0  0  0  0  0  0  0  0  0  0
   40.9050   27.6630   36.8900 C   0  0  0  0  0  0  0  0  0  0  0  0
   40.2540   27.4420   39.2420 C   0  0  0  0  0  0  0  0  0  0  0  0
   41.5500   29.4270   38.4680 C   0  0  0  0  0  0  0  0  0  0  0  0
   41.0660   30.7840   38.4150 N   0  0  0  0  0  0  0  0  0  0  0  0
   41.1020   31.6640   37.4040 C   0  0  0  0  0  0  0  0  0  0  0  0
   40.5220   32.8300   37.8160 N   0  0  0  0  0  0  0  0  0  0  0  0
   40.1190   32.6780   39.0980 C   0  0  0  0  0  0  0  0  0  0  0  0
   39.4790   33.5460   39.9870 C   0  0  0  0  0  0  0  0  0  0  0  0
   39.2250   33.0490   41.2120 N   0  0  0  0  0  0  0  0  0  0  0  0
   39.5520   31.8050   41.5830 C   0  0  0  0  0  0  0  0  0  0  0  0
   40.1690   30.9650   40.7310 N   0  0  0  0  0  0  0  0  0  0  0  0
   40.4630   31.3780   39.4850 C   0  0  0  0  0  0  0  0  0  0  0  0
   39.1220   34.8700   39.6130 N   0  0  0  0  0  0  0  0  0  0  0  0
   38.9270   29.2790   37.7480 S   0  0  0  0  0  0  0  0  0  0  0  0
   37.5590   28.0340   37.5730 C   0  0  0  0  0  0  0  0  0  0  0  0
   36.8570   28.0650   38.6810 O   0  0  0  0  0  0  0  0  0  0  0  0
   36.6190   27.1330   39.6650 C   0  0  0  0  0  0  0  0  0  0  0  0
   36.1670   26.0440   39.3120 O   0  0  0  0  0  0  0  0  0  0  0  0
   36.9900   28.9180   41.3810 C   0  0  0  0  0  0  0  0  0  0  0  0
   36.9430   27.5570   41.0610 C   0  0  0  0  0  0  0  0  0  0  0  0
   37.1980   26.5480   41.9620 C   0  0  0  0  0  0  0  0  0  0  0  0
   37.5070   26.9810   43.2080 N   0  0  0  0  0  0  0  0  0  0  0  0
   37.5580   28.2920   43.5350 C   0  0  0  0  0  0  0  0  0  0  0  0
   37.2960   29.2800   42.6110 N   0  0  0  0  0  0  0  0  0  0  0  0
   41.4275   26.7462   37.2005 H   0  0  0  0  0  0  0  0  0  0  0  0
   40.0230   27.3967   36.2890 H   0  0  0  0  0  0  0  0  0  0  0  0
   41.5836   28.2862   36.2890 H   0  0  0  0  0  0  0  0  0  0  0  0
   40.3628   27.9540   40.2095 H   0  0  0  0  0  0  0  0  0  0  0  0
   39.2444   27.0119   39.1663 H   0  0  0  0  0  0  0  0  0  0  0  0
   41.0015   26.6385   39.1663 H   0  0  0  0  0  0  0  0  0  0  0  0
   41.9121   29.2167   39.4852 H   0  0  0  0  0  0  0  0  0  0  0  0
   42.3612   29.3223   37.7325 H   0  0  0  0  0  0  0  0  0  0  0  0
   41.5283   31.4777   36.4072 H   0  0  0  0  0  0  0  0  0  0  0  0
   39.3126   31.4636   42.6009 H   0  0  0  0  0  0  0  0  0  0  0  0
   38.6509   35.4871   40.2899 H   0  0  0  0  0  0  0  0  0  0  0  0
   39.3344   35.2124   38.6651 H   0  0  0  0  0  0  0  0  0  0  0  0
   36.9207   28.2946   36.7159 H   0  0  0  0  0  0  0  0  0  0  0  0
   37.9688   27.0279   37.4006 H   0  0  0  0  0  0  0  0  0  0  0  0
   36.7741   29.6774   40.6150 H   0  0  0  0  0  0  0  0  0  0  0  0
   37.1546   25.4822   41.6935 H   0  0  0  0  0  0  0  0  0  0  0  0
   37.8154   28.5773   44.5657 H   0  0  0  0  0  0  0  0  0  0  0  0
  1  4  1  0
  1  3  1  0
  2  1  1  0
  5  4  1  0
  5 13  1  0
  6  7  2  0
  6  5  1  0
  7  8  1  0
  8 13  2  0
  8  9  1  0
  9 10  2  0
 10 11  1  0
 12 11  2  0
 13 12  1  0
 14  9  1  0
 15  1  1  0
 16 15  1  0
 16 17  1  0
 17 18  1  0
 18 21  1  0
 19 18  2  0
 20 25  2  0
 21 20  1  0
 21 22  2  0
 22 23  1  0
 23 24  2  0
 25 24  1  0
  2 26  1  0
  2 27  1  0
  2 28  1  0
  3 29  1  0
  3 30  1  0
  3 31  1  0
  4 32  1  0
  4 33  1  0
  6 34  1  0
 11 35  1  0
 14 36  1  0
 14 37  1  0
 16 38  1  0
 16 39  1  0
 20 40  1  0
 22 41  1  0
 24 42  1  0
M  ISO  8  26   8  27   8  28   8  29   8  30   8  31   8  32   8  33   8
M  ISO  7  34  14  35  14  38   8  39   8  40  14  41  14  42  14
M  END
>  <minimizedAffinity>  (1) 
-4.26099777

>  <minimizedRMSD>  (1) 
4.2953701

$$$$
