
     RDKit          3D

 31 31  0  0  0  0  0  0  0  0999 V2000
   37.5750   33.2390   39.7100 S   0  0  0  0  0  0  0  0  0  0  0  0
   36.9470   31.5330   39.3110 C   0  0  0  0  0  0  0  0  0  0  0  0
   36.4220   31.0490   40.4170 O   0  0  0  0  0  0  0  0  0  0  0  0
   35.9490   29.8090   40.7530 C   0  0  0  0  0  0  0  0  0  0  0  0
   34.8880   29.4360   40.2200 O   0  0  0  0  0  0  0  0  0  0  0  0
   37.7860   29.6800   42.4340 C   0  0  0  0  0  0  0  0  0  0  0  0
   36.7710   29.0360   41.7330 C   0  0  0  0  0  0  0  0  0  0  0  0
   36.4630   27.6950   41.8640 C   0  0  0  0  0  0  0  0  0  0  0  0
   37.2470   27.0360   42.7500 N   0  0  0  0  0  0  0  0  0  0  0  0
   38.2380   27.6340   43.4410 C   0  0  0  0  0  0  0  0  0  0  0  0
   38.5190   28.9720   43.2870 N   0  0  0  0  0  0  0  0  0  0  0  0
   39.3540   33.1970   39.8920 C   0  0  0  0  0  0  0  0  0  0  0  0
   39.9610   32.5150   38.6890 C   0  0  0  0  0  0  0  0  0  0  0  0
   39.7390   32.3860   41.1120 C   0  0  0  0  0  0  0  0  0  0  0  0
   39.9290   34.5980   40.0050 C   0  0  0  0  0  0  0  0  0  0  0  0
   39.4060   35.1450   41.2440 N   0  0  0  0  0  0  0  0  0  0  0  0
   36.1827   31.5865   38.5217 H   0  0  0  0  0  0  0  0  0  0  0  0
   37.7617   30.8891   38.9480 H   0  0  0  0  0  0  0  0  0  0  0  0
   37.9777   30.7529   42.2852 H   0  0  0  0  0  0  0  0  0  0  0  0
   35.6544   27.2073   41.2998 H   0  0  0  0  0  0  0  0  0  0  0  0
   38.8367   27.0376   44.1452 H   0  0  0  0  0  0  0  0  0  0  0  0
   40.6576   31.7323   39.0239 H   0  0  0  0  0  0  0  0  0  0  0  0
   39.1629   32.0608   38.0834 H   0  0  0  0  0  0  0  0  0  0  0  0
   40.5047   33.2551   38.0834 H   0  0  0  0  0  0  0  0  0  0  0  0
   39.4740   32.9443   42.0220 H   0  0  0  0  0  0  0  0  0  0  0  0
   39.1999   31.4272   41.1000 H   0  0  0  0  0  0  0  0  0  0  0  0
   40.8227   32.1976   41.1000 H   0  0  0  0  0  0  0  0  0  0  0  0
   41.0278   34.5589   40.0379 H   0  0  0  0  0  0  0  0  0  0  0  0
   39.6511   35.2191   39.1407 H   0  0  0  0  0  0  0  0  0  0  0  0
   39.8550   34.6754   42.0432 H   0  0  0  0  0  0  0  0  0  0  0  0
   39.6038   36.1550   41.2839 H   0  0  0  0  0  0  0  0  0  0  0  0
  1 12  1  0
  2  1  1  0
  2  3  1  0
  3  4  1  0
  4  7  1  0
  5  4  2  0
  6 11  2  0
  7  8  2  0
  7  6  1  0
  8  9  1  0
  9 10  2  0
 11 10  1  0
 12 15  1  0
 12 14  1  0
 13 12  1  0
 15 16  1  0
  2 17  1  0
  2 18  1  0
  6 19  1  0
  8 20  1  0
 10 21  1  0
 13 22  1  0
 13 23  1  0
 13 24  1  0
 14 25  1  0
 14 26  1  0
 14 27  1  0
 15 28  1  0
 15 29  1  0
 16 30  1  0
 16 31  1  0
M  ISO  8  17   8  18   8  19  14  20  14  21  14  22   8  23   8  24   8
M  ISO  7  25   8  26   8  27   8  28   8  29   8  30   5  31   5
M  END
>  <minimizedAffinity>  (1) 
-4.07337666

>  <minimizedRMSD>  (1) 
0.104323797

$$$$
