
     RDKit          3D

 49 51  0  0  0  0  0  0  0  0999 V2000
   37.5240   32.9630   39.9020 C   0  0  0  0  0  0  0  0  0  0  0  0
   38.8370   34.2020   40.2900 S   0  0  0  0  0  0  0  0  0  0  0  0
   40.4450   33.5570   39.9090 C   0  0  0  0  0  0  0  0  0  0  0  0
   40.3660   32.6710   38.7130 C   0  0  0  0  0  0  0  0  0  0  0  0
   40.9630   32.6990   41.0480 C   0  0  0  0  0  0  0  0  0  0  0  0
   41.4370   34.6670   39.6320 C   0  0  0  0  0  0  0  0  0  0  0  0
   41.7720   35.4340   40.7940 N   0  0  0  0  0  0  0  0  0  0  0  0
   42.8880   35.1530   41.5100 C   0  0  0  0  0  0  0  0  0  0  0  0
   42.9850   35.9980   42.5430 N   0  0  0  0  0  0  0  0  0  0  0  0
   41.9220   36.8360   42.4970 C   0  0  0  0  0  0  0  0  0  0  0  0
   41.2270   36.4630   41.4390 N   0  0  0  0  0  0  0  0  0  0  0  0
   37.4620   32.1090   40.9140 O   0  0  0  0  0  0  0  0  0  0  0  0
   36.9830   30.8290   40.9930 C   0  0  0  0  0  0  0  0  0  0  0  0
   35.8510   30.6060   40.5360 O   0  0  0  0  0  0  0  0  0  0  0  0
   39.1090   29.5370   41.0330 C   0  0  0  0  0  0  0  0  0  0  0  0
   37.8910   29.8260   41.6300 C   0  0  0  0  0  0  0  0  0  0  0  0
   37.4500   29.2250   42.7820 C   0  0  0  0  0  0  0  0  0  0  0  0
   38.3110   28.3120   43.2980 N   0  0  0  0  0  0  0  0  0  0  0  0
   39.4910   28.0130   42.7410 C   0  0  0  0  0  0  0  0  0  0  0  0
   39.9070   28.6270   41.5920 N   0  0  0  0  0  0  0  0  0  0  0  0
   40.3720   27.0510   43.3060 N   0  0  0  0  0  0  0  0  0  0  0  0
   39.9380   25.7560   43.7980 C   0  0  0  0  0  0  0  0  0  0  0  0
   40.5900   24.7640   42.8580 C   0  0  0  0  0  0  0  0  0  0  0  0
   42.0090   24.8490   43.0400 N   0  0  0  0  0  0  0  0  0  0  0  0
   42.4490   25.9520   43.8370 C   0  0  0  0  0  0  0  0  0  0  0  0
   41.7980   27.2800   43.4400 C   0  0  0  0  0  0  0  0  0  0  0  0
   36.5554   33.4698   39.7800 H   0  0  0  0  0  0  0  0  0  0  0  0
   37.7586   32.4342   38.9664 H   0  0  0  0  0  0  0  0  0  0  0  0
   40.2727   31.6242   39.0377 H   0  0  0  0  0  0  0  0  0  0  0  0
   39.4889   32.9472   38.1093 H   0  0  0  0  0  0  0  0  0  0  0  0
   41.2781   32.7877   38.1093 H   0  0  0  0  0  0  0  0  0  0  0  0
   40.6858   33.1582   42.0084 H   0  0  0  0  0  0  0  0  0  0  0  0
   40.5205   31.6942   40.9807 H   0  0  0  0  0  0  0  0  0  0  0  0
   42.0583   32.6226   40.9807 H   0  0  0  0  0  0  0  0  0  0  0  0
   42.3587   34.2191   39.2323 H   0  0  0  0  0  0  0  0  0  0  0  0
   40.9635   35.3540   38.9151 H   0  0  0  0  0  0  0  0  0  0  0  0
   43.6051   34.3520   41.2773 H   0  0  0  0  0  0  0  0  0  0  0  0
   41.6876   37.6542   43.1939 H   0  0  0  0  0  0  0  0  0  0  0  0
   39.4128   30.0522   40.1098 H   0  0  0  0  0  0  0  0  0  0  0  0
   36.4820   29.4628   43.2471 H   0  0  0  0  0  0  0  0  0  0  0  0
   40.2796   25.5968   44.8314 H   0  0  0  0  0  0  0  0  0  0  0  0
   38.8425   25.6589   43.8193 H   0  0  0  0  0  0  0  0  0  0  0  0
   40.3316   25.0102   41.8175 H   0  0  0  0  0  0  0  0  0  0  0  0
   40.2373   23.7446   43.0733 H   0  0  0  0  0  0  0  0  0  0  0  0
   42.3260   23.9802   43.4933 H   0  0  0  0  0  0  0  0  0  0  0  0
   42.2041   25.7431   44.8888 H   0  0  0  0  0  0  0  0  0  0  0  0
   43.5323   26.0585   43.6786 H   0  0  0  0  0  0  0  0  0  0  0  0
   42.2127   27.6289   42.4828 H   0  0  0  0  0  0  0  0  0  0  0  0
   41.9943   28.0478   44.2028 H   0  0  0  0  0  0  0  0  0  0  0  0
  1  2  1  0
  1 12  1  0
  3  2  1  0
  3  5  1  0
  4  3  1  0
  6  3  1  0
  6  7  1  0
  7 11  1  0
  7  8  1  0
  8  9  2  0
 10  9  1  0
 11 10  2  0
 12 13  1  0
 13 16  1  0
 14 13  2  0
 15 20  2  0
 15 16  1  0
 16 17  2  0
 17 18  1  0
 19 18  2  0
 19 21  1  0
 20 19  1  0
 21 26  1  0
 21 22  1  0
 23 24  1  0
 23 22  1  0
 24 25  1  0
 26 25  1  0
  1 27  1  0
  1 28  1  0
  4 29  1  0
  4 30  1  0
  4 31  1  0
  5 32  1  0
  5 33  1  0
  5 34  1  0
  6 35  1  0
  6 36  1  0
  8 37  1  0
 10 38  1  0
 15 39  1  0
 17 40  1  0
 22 41  1  0
 22 42  1  0
 23 43  1  0
 23 44  1  0
 24 45  1  0
 25 46  1  0
 25 47  1  0
 26 48  1  0
 26 49  1  0
M  ISO  8  27   8  28   8  29   8  30   8  31   8  32   8  33   8  34   8
M  ISO  8  35   8  36   8  37  14  38  14  39  14  40  14  41  13  42  13
M  ISO  7  43  13  44  13  45   5  46  13  47  13  48  13  49  13
M  END
>  <minimizedAffinity>  (1) 
-5.91763258

>  <minimizedRMSD>  (1) 
1.19321656

$$$$
