
     RDKit          3D

 50 52  0  0  0  0  0  0  0  0999 V2000
   37.7130   33.1440   39.9860 C   0  0  0  0  0  0  0  0  0  0  0  0
   39.0270   34.3700   40.4150 S   0  0  0  0  0  0  0  0  0  0  0  0
   40.6330   33.7510   39.9820 C   0  0  0  0  0  0  0  0  0  0  0  0
   40.5490   32.9460   38.7290 C   0  0  0  0  0  0  0  0  0  0  0  0
   41.1560   32.8130   41.0570 C   0  0  0  0  0  0  0  0  0  0  0  0
   41.6250   34.8770   39.7850 C   0  0  0  0  0  0  0  0  0  0  0  0
   41.9690   35.5630   40.9930 N   0  0  0  0  0  0  0  0  0  0  0  0
   43.0650   35.2000   41.7030 C   0  0  0  0  0  0  0  0  0  0  0  0
   43.1740   35.9820   42.7880 N   0  0  0  0  0  0  0  0  0  0  0  0
   42.1360   36.8510   42.7660 C   0  0  0  0  0  0  0  0  0  0  0  0
   41.4430   36.5640   41.6780 N   0  0  0  0  0  0  0  0  0  0  0  0
   37.7210   32.1990   40.9200 O   0  0  0  0  0  0  0  0  0  0  0  0
   37.0670   30.9990   41.0070 C   0  0  0  0  0  0  0  0  0  0  0  0
   35.9230   30.9280   40.5380 O   0  0  0  0  0  0  0  0  0  0  0  0
   39.2100   29.9170   41.6740 C   0  0  0  0  0  0  0  0  0  0  0  0
   37.8200   29.8890   41.6700 C   0  0  0  0  0  0  0  0  0  0  0  0
   37.0820   28.8890   42.2410 C   0  0  0  0  0  0  0  0  0  0  0  0
   37.8230   27.9050   42.8240 N   0  0  0  0  0  0  0  0  0  0  0  0
   39.1630   27.9080   42.8420 C   0  0  0  0  0  0  0  0  0  0  0  0
   39.8630   28.9360   42.2530 N   0  0  0  0  0  0  0  0  0  0  0  0
   39.8750   26.8470   43.4690 N   0  0  0  0  0  0  0  0  0  0  0  0
   41.1510   27.1090   44.0550 C   0  0  0  0  0  0  0  0  0  0  0  0
   42.0980   25.9470   43.7410 C   0  0  0  0  0  0  0  0  0  0  0  0
   41.5420   25.2200   42.5450 C   0  0  0  0  0  0  0  0  0  0  0  0
   40.2930   24.4830   42.9820 C   0  0  0  0  0  0  0  0  0  0  0  0
   39.3260   25.5130   43.5230 C   0  0  0  0  0  0  0  0  0  0  0  0
   36.7313   33.6397   39.9632 H   0  0  0  0  0  0  0  0  0  0  0  0
   37.9030   32.7070   38.9946 H   0  0  0  0  0  0  0  0  0  0  0  0
   40.4379   31.8817   38.9837 H   0  0  0  0  0  0  0  0  0  0  0  0
   39.6803   33.2746   38.1396 H   0  0  0  0  0  0  0  0  0  0  0  0
   41.4669   33.0881   38.1396 H   0  0  0  0  0  0  0  0  0  0  0  0
   40.9249   33.2275   42.0494 H   0  0  0  0  0  0  0  0  0  0  0  0
   40.6764   31.8289   40.9499 H   0  0  0  0  0  0  0  0  0  0  0  0
   42.2453   32.7036   40.9499 H   0  0  0  0  0  0  0  0  0  0  0  0
   42.5444   34.4570   39.3511 H   0  0  0  0  0  0  0  0  0  0  0  0
   41.1453   35.6140   39.1241 H   0  0  0  0  0  0  0  0  0  0  0  0
   43.7578   34.3898   41.4318 H   0  0  0  0  0  0  0  0  0  0  0  0
   41.9145   37.6363   43.5038 H   0  0  0  0  0  0  0  0  0  0  0  0
   39.7538   30.7474   41.1999 H   0  0  0  0  0  0  0  0  0  0  0  0
   35.9821   28.8798   42.2305 H   0  0  0  0  0  0  0  0  0  0  0  0
   41.5621   28.0410   43.6398 H   0  0  0  0  0  0  0  0  0  0  0  0
   41.0427   27.2131   45.1447 H   0  0  0  0  0  0  0  0  0  0  0  0
   43.1026   26.3325   43.5125 H   0  0  0  0  0  0  0  0  0  0  0  0
   42.1784   25.2690   44.6035 H   0  0  0  0  0  0  0  0  0  0  0  0
   42.2849   24.5028   42.1660 H   0  0  0  0  0  0  0  0  0  0  0  0
   41.3028   25.9332   41.7424 H   0  0  0  0  0  0  0  0  0  0  0  0
   39.8449   23.9608   42.1238 H   0  0  0  0  0  0  0  0  0  0  0  0
   40.5330   23.7339   43.7510 H   0  0  0  0  0  0  0  0  0  0  0  0
   39.0924   25.2666   44.5693 H   0  0  0  0  0  0  0  0  0  0  0  0
   38.4204   25.4914   42.8990 H   0  0  0  0  0  0  0  0  0  0  0  0
  1  2  1  0
  1 12  1  0
  3  2  1  0
  3  5  1  0
  4  3  1  0
  6  3  1  0
  6  7  1  0
  7 11  1  0
  7  8  1  0
  8  9  2  0
 10  9  1  0
 11 10  2  0
 12 13  1  0
 13 16  1  0
 14 13  2  0
 15 20  2  0
 16 15  1  0
 16 17  2  0
 17 18  1  0
 18 19  2  0
 19 21  1  0
 20 19  1  0
 21 26  1  0
 21 22  1  0
 23 22  1  0
 24 25  1  0
 24 23  1  0
 25 26  1  0
  1 27  1  0
  1 28  1  0
  4 29  1  0
  4 30  1  0
  4 31  1  0
  5 32  1  0
  5 33  1  0
  5 34  1  0
  6 35  1  0
  6 36  1  0
  8 37  1  0
 10 38  1  0
 15 39  1  0
 17 40  1  0
 22 41  1  0
 22 42  1  0
 23 43  1  0
 23 44  1  0
 24 45  1  0
 24 46  1  0
 25 47  1  0
 25 48  1  0
 26 49  1  0
 26 50  1  0
M  ISO  8  27   8  28   8  29   8  30   8  31   8  32   8  33   8  34   8
M  ISO  8  35   8  36   8  37  14  38  14  39  14  40  14  41  13  42  13
M  ISO  8  43  13  44  13  45  13  46  13  47  13  48  13  49  13  50  13
M  END
>  <minimizedAffinity>  (1) 
-5.67879486

>  <minimizedRMSD>  (1) 
0.840218008

$$$$
