
     RDKit          3D

 48 50  0  0  0  0  0  0  0  0999 V2000
   39.1400   34.4990   40.6000 S   0  0  0  0  0  0  0  0  0  0  0  0
   37.6260   33.8160   39.8040 C   0  0  0  0  0  0  0  0  0  0  0  0
   37.4460   32.5840   40.2580 O   0  0  0  0  0  0  0  0  0  0  0  0
   37.2120   31.3990   39.6000 C   0  0  0  0  0  0  0  0  0  0  0  0
   36.7500   31.4540   38.4570 O   0  0  0  0  0  0  0  0  0  0  0  0
   37.7620   30.2330   41.7360 C   0  0  0  0  0  0  0  0  0  0  0  0
   37.5520   30.1570   40.3620 C   0  0  0  0  0  0  0  0  0  0  0  0
   37.6430   28.9960   39.6550 C   0  0  0  0  0  0  0  0  0  0  0  0
   37.9590   27.9010   40.3950 N   0  0  0  0  0  0  0  0  0  0  0  0
   38.1710   27.9420   41.7280 C   0  0  0  0  0  0  0  0  0  0  0  0
   38.0660   29.1400   42.3950 N   0  0  0  0  0  0  0  0  0  0  0  0
   38.5020   26.7650   42.4670 N   0  0  0  0  0  0  0  0  0  0  0  0
   38.0250   25.4830   42.0400 C   0  0  0  0  0  0  0  0  0  0  0  0
   38.9030   24.3400   42.4640 C   0  0  0  0  0  0  0  0  0  0  0  0
   39.5500   24.5730   43.6710 O   0  0  0  0  0  0  0  0  0  0  0  0
   40.3070   25.7470   43.6330 C   0  0  0  0  0  0  0  0  0  0  0  0
   39.3190   26.8960   43.6390 C   0  0  0  0  0  0  0  0  0  0  0  0
   40.6010   33.6660   40.0290 C   0  0  0  0  0  0  0  0  0  0  0  0
   40.3170   32.9980   38.7210 C   0  0  0  0  0  0  0  0  0  0  0  0
   41.0160   32.5780   40.9900 C   0  0  0  0  0  0  0  0  0  0  0  0
   41.7460   34.6420   39.8430 C   0  0  0  0  0  0  0  0  0  0  0  0
   42.0450   35.4080   41.0200 N   0  0  0  0  0  0  0  0  0  0  0  0
   43.1070   35.0850   41.7970 C   0  0  0  0  0  0  0  0  0  0  0  0
   43.1720   35.9420   42.8310 N   0  0  0  0  0  0  0  0  0  0  0  0
   42.1430   36.8130   42.7040 C   0  0  0  0  0  0  0  0  0  0  0  0
   41.4950   36.4580   41.6090 N   0  0  0  0  0  0  0  0  0  0  0  0
   37.7547   33.7964   38.7117 H   0  0  0  0  0  0  0  0  0  0  0  0
   36.7534   34.4424   40.0411 H   0  0  0  0  0  0  0  0  0  0  0  0
   37.6743   31.1954   42.2615 H   0  0  0  0  0  0  0  0  0  0  0  0
   37.4738   28.9487   38.5691 H   0  0  0  0  0  0  0  0  0  0  0  0
   37.9623   25.4839   40.9418 H   0  0  0  0  0  0  0  0  0  0  0  0
   37.0453   25.3296   42.5162 H   0  0  0  0  0  0  0  0  0  0  0  0
   38.2803   23.4392   42.5679 H   0  0  0  0  0  0  0  0  0  0  0  0
   39.6779   24.2160   41.6932 H   0  0  0  0  0  0  0  0  0  0  0  0
   40.9180   25.7759   42.7187 H   0  0  0  0  0  0  0  0  0  0  0  0
   40.9920   25.8067   44.4916 H   0  0  0  0  0  0  0  0  0  0  0  0
   39.8574   27.8550   43.6168 H   0  0  0  0  0  0  0  0  0  0  0  0
   38.7006   26.8719   44.5484 H   0  0  0  0  0  0  0  0  0  0  0  0
   39.8926   31.9997   38.9036 H   0  0  0  0  0  0  0  0  0  0  0  0
   39.5982   33.6029   38.1488 H   0  0  0  0  0  0  0  0  0  0  0  0
   41.2513   32.9001   38.1488 H   0  0  0  0  0  0  0  0  0  0  0  0
   40.8815   32.9305   42.0233 H   0  0  0  0  0  0  0  0  0  0  0  0
   40.3952   31.6853   40.8234 H   0  0  0  0  0  0  0  0  0  0  0  0
   42.0736   32.3255   40.8234 H   0  0  0  0  0  0  0  0  0  0  0  0
   42.6446   34.0741   39.5600 H   0  0  0  0  0  0  0  0  0  0  0  0
   41.4390   35.3548   39.0635 H   0  0  0  0  0  0  0  0  0  0  0  0
   43.8043   34.2547   41.6116 H   0  0  0  0  0  0  0  0  0  0  0  0
   41.8965   37.6476   43.3768 H   0  0  0  0  0  0  0  0  0  0  0  0
  2  3  1  0
  2  1  1  0
  4  3  1  0
  4  7  1  0
  5  4  2  0
  6 11  2  0
  7  6  1  0
  8  7  2  0
  8  9  1  0
  9 10  2  0
 10 11  1  0
 10 12  1  0
 12 17  1  0
 13 14  1  0
 13 12  1  0
 14 15  1  0
 16 17  1  0
 16 15  1  0
 18  1  1  0
 18 20  1  0
 19 18  1  0
 21 18  1  0
 21 22  1  0
 22 26  1  0
 22 23  1  0
 23 24  2  0
 25 24  1  0
 26 25  2  0
  2 27  1  0
  2 28  1  0
  6 29  1  0
  8 30  1  0
 13 31  1  0
 13 32  1  0
 14 33  1  0
 14 34  1  0
 16 35  1  0
 16 36  1  0
 17 37  1  0
 17 38  1  0
 19 39  1  0
 19 40  1  0
 19 41  1  0
 20 42  1  0
 20 43  1  0
 20 44  1  0
 21 45  1  0
 21 46  1  0
 23 47  1  0
 25 48  1  0
M  ISO  8  27   8  28   8  29  14  30  14  31  13  32  13  33  13  34  13
M  ISO  8  35  13  36  13  37  13  38  13  39   8  40   8  41   8  42   8
M  ISO  6  43   8  44   8  45   8  46   8  47  14  48  14
M  END
>  <minimizedAffinity>  (1) 
-5.64367199

>  <minimizedRMSD>  (1) 
1.44171929

$$$$
