
     RDKit          3D

 47 49  0  0  0  0  0  0  0  0999 V2000
   39.0310   34.5060   40.5770 S   0  0  0  0  0  0  0  0  0  0  0  0
   37.5690   33.8190   39.6820 C   0  0  0  0  0  0  0  0  0  0  0  0
   37.3240   32.6110   40.1760 O   0  0  0  0  0  0  0  0  0  0  0  0
   37.1730   31.3910   39.5550 C   0  0  0  0  0  0  0  0  0  0  0  0
   36.7280   31.3810   38.4050 O   0  0  0  0  0  0  0  0  0  0  0  0
   37.6830   30.3200   41.7430 C   0  0  0  0  0  0  0  0  0  0  0  0
   37.5750   30.1980   40.3660 C   0  0  0  0  0  0  0  0  0  0  0  0
   37.8180   29.0390   39.6930 C   0  0  0  0  0  0  0  0  0  0  0  0
   38.1800   27.9960   40.4850 N   0  0  0  0  0  0  0  0  0  0  0  0
   38.2980   28.0660   41.8200 C   0  0  0  0  0  0  0  0  0  0  0  0
   38.0400   29.2640   42.4490 N   0  0  0  0  0  0  0  0  0  0  0  0
   38.6820   26.9300   42.5830 N   0  0  0  0  0  0  0  0  0  0  0  0
   38.1170   25.6160   42.3680 C   0  0  0  0  0  0  0  0  0  0  0  0
   39.3120   24.7210   42.7240 C   0  0  0  0  0  0  0  0  0  0  0  0
   40.0190   25.4830   43.8040 C   0  0  0  0  0  0  0  0  0  0  0  0
   39.6620   26.9260   43.6530 C   0  0  0  0  0  0  0  0  0  0  0  0
   40.5380   33.7330   40.0190 C   0  0  0  0  0  0  0  0  0  0  0  0
   40.2820   33.0270   38.7320 C   0  0  0  0  0  0  0  0  0  0  0  0
   41.0040   32.6950   41.0150 C   0  0  0  0  0  0  0  0  0  0  0  0
   41.6240   34.7640   39.8100 C   0  0  0  0  0  0  0  0  0  0  0  0
   41.9740   35.4810   41.0030 N   0  0  0  0  0  0  0  0  0  0  0  0
   43.0490   35.1150   41.7420 C   0  0  0  0  0  0  0  0  0  0  0  0
   43.1660   35.9240   42.7970 N   0  0  0  0  0  0  0  0  0  0  0  0
   42.1550   36.8230   42.7370 C   0  0  0  0  0  0  0  0  0  0  0  0
   41.4630   36.5240   41.6480 N   0  0  0  0  0  0  0  0  0  0  0  0
   37.7883   33.7465   38.6065 H   0  0  0  0  0  0  0  0  0  0  0  0
   36.6946   34.4734   39.8132 H   0  0  0  0  0  0  0  0  0  0  0  0
   37.4748   31.2800   42.2380 H   0  0  0  0  0  0  0  0  0  0  0  0
   37.7287   28.9545   38.5999 H   0  0  0  0  0  0  0  0  0  0  0  0
   37.2611   25.4306   43.0336 H   0  0  0  0  0  0  0  0  0  0  0  0
   37.7157   25.4551   41.3565 H   0  0  0  0  0  0  0  0  0  0  0  0
   38.9724   23.7420   43.0930 H   0  0  0  0  0  0  0  0  0  0  0  0
   39.9581   24.5096   41.8592 H   0  0  0  0  0  0  0  0  0  0  0  0
   39.6971   25.1191   44.7909 H   0  0  0  0  0  0  0  0  0  0  0  0
   41.1073   25.3457   43.7220 H   0  0  0  0  0  0  0  0  0  0  0  0
   40.5450   27.5214   43.3778 H   0  0  0  0  0  0  0  0  0  0  0  0
   39.2775   27.3687   44.5837 H   0  0  0  0  0  0  0  0  0  0  0  0
   39.9137   32.0112   38.9380 H   0  0  0  0  0  0  0  0  0  0  0  0
   39.5273   33.5805   38.1540 H   0  0  0  0  0  0  0  0  0  0  0  0
   41.2160   32.9682   38.1540 H   0  0  0  0  0  0  0  0  0  0  0  0
   40.8372   33.0665   42.0369 H   0  0  0  0  0  0  0  0  0  0  0  0
   40.4375   31.7639   40.8663 H   0  0  0  0  0  0  0  0  0  0  0  0
   42.0762   32.4996   40.8663 H   0  0  0  0  0  0  0  0  0  0  0  0
   42.5226   34.2514   39.4363 H   0  0  0  0  0  0  0  0  0  0  0  0
   41.2342   35.5018   39.0933 H   0  0  0  0  0  0  0  0  0  0  0  0
   43.7232   34.2779   41.5079 H   0  0  0  0  0  0  0  0  0  0  0  0
   41.9501   37.6366   43.4484 H   0  0  0  0  0  0  0  0  0  0  0  0
  2  3  1  0
  2  1  1  0
  4  3  1  0
  4  7  1  0
  5  4  2  0
  6 11  2  0
  7  6  1  0
  8  7  2  0
  8  9  1  0
  9 10  2  0
 10 11  1  0
 10 12  1  0
 12 16  1  0
 13 12  1  0
 13 14  1  0
 14 15  1  0
 16 15  1  0
 17  1  1  0
 17 19  1  0
 18 17  1  0
 20 17  1  0
 20 21  1  0
 21 25  1  0
 21 22  1  0
 22 23  2  0
 24 23  1  0
 25 24  2  0
  2 26  1  0
  2 27  1  0
  6 28  1  0
  8 29  1  0
 13 30  1  0
 13 31  1  0
 14 32  1  0
 14 33  1  0
 15 34  1  0
 15 35  1  0
 16 36  1  0
 16 37  1  0
 18 38  1  0
 18 39  1  0
 18 40  1  0
 19 41  1  0
 19 42  1  0
 19 43  1  0
 20 44  1  0
 20 45  1  0
 22 46  1  0
 24 47  1  0
M  ISO  8  26   8  27   8  28  14  29  14  30  13  31  13  32  13  33  13
M  ISO  8  34  13  35  13  36  13  37  13  38   8  39   8  40   8  41   8
M  ISO  6  42   8  43   8  44   8  45   8  46  14  47  14
M  END
>  <minimizedAffinity>  (1) 
-5.54811764

>  <minimizedRMSD>  (1) 
1.41258287

$$$$
