
     RDKit          3D

 40 42  0  0  0  0  0  0  0  0999 V2000
   39.1470   34.5450   40.5760 S   0  0  0  0  0  0  0  0  0  0  0  0
   37.6330   33.8270   39.8120 C   0  0  0  0  0  0  0  0  0  0  0  0
   37.4280   32.6280   40.3280 O   0  0  0  0  0  0  0  0  0  0  0  0
   37.1950   31.4100   39.7670 C   0  0  0  0  0  0  0  0  0  0  0  0
   36.5880   31.3730   38.6840 O   0  0  0  0  0  0  0  0  0  0  0  0
   38.7410   29.4710   39.9950 C   0  0  0  0  0  0  0  0  0  0  0  0
   37.7030   30.2220   40.5280 C   0  0  0  0  0  0  0  0  0  0  0  0
   37.1120   29.9560   41.7220 C   0  0  0  0  0  0  0  0  0  0  0  0
   37.6290   28.8740   42.3710 N   0  0  0  0  0  0  0  0  0  0  0  0
   38.6370   28.1180   41.8890 C   0  0  0  0  0  0  0  0  0  0  0  0
   39.1900   28.4410   40.6730 N   0  0  0  0  0  0  0  0  0  0  0  0
   39.1430   26.9710   42.6370 C   0  0  0  0  0  0  0  0  0  0  0  0
   39.7760   26.8960   43.8440 N   0  0  0  0  0  0  0  0  0  0  0  0
   40.0370   25.6400   44.0980 O   0  0  0  0  0  0  0  0  0  0  0  0
   39.6100   24.8750   43.1220 C   0  0  0  0  0  0  0  0  0  0  0  0
   39.0510   25.6810   42.2020 N   0  0  0  0  0  0  0  0  0  0  0  0
   40.6030   33.6650   40.0660 C   0  0  0  0  0  0  0  0  0  0  0  0
   40.3370   32.9710   38.7730 C   0  0  0  0  0  0  0  0  0  0  0  0
   40.9660   32.6050   41.0800 C   0  0  0  0  0  0  0  0  0  0  0  0
   41.7730   34.6180   39.8820 C   0  0  0  0  0  0  0  0  0  0  0  0
   42.0670   35.3990   41.0500 N   0  0  0  0  0  0  0  0  0  0  0  0
   43.1270   35.0910   41.8340 C   0  0  0  0  0  0  0  0  0  0  0  0
   43.1940   35.9520   42.8560 N   0  0  0  0  0  0  0  0  0  0  0  0
   42.1640   36.8240   42.7230 C   0  0  0  0  0  0  0  0  0  0  0  0
   41.5180   36.4570   41.6330 N   0  0  0  0  0  0  0  0  0  0  0  0
   37.7711   33.7434   38.7239 H   0  0  0  0  0  0  0  0  0  0  0  0
   36.7673   34.4753   40.0128 H   0  0  0  0  0  0  0  0  0  0  0  0
   39.1798   29.7344   39.0213 H   0  0  0  0  0  0  0  0  0  0  0  0
   36.2884   30.5606   42.1296 H   0  0  0  0  0  0  0  0  0  0  0  0
   39.6935   23.7796   43.0664 H   0  0  0  0  0  0  0  0  0  0  0  0
   39.9498   31.9608   38.9719 H   0  0  0  0  0  0  0  0  0  0  0  0
   39.5938   33.5416   38.1967 H   0  0  0  0  0  0  0  0  0  0  0  0
   41.2712   32.8987   38.1967 H   0  0  0  0  0  0  0  0  0  0  0  0
   40.8286   33.0062   42.0950 H   0  0  0  0  0  0  0  0  0  0  0  0
   40.3171   31.7276   40.9416 H   0  0  0  0  0  0  0  0  0  0  0  0
   42.0165   32.3096   40.9416 H   0  0  0  0  0  0  0  0  0  0  0  0
   42.6650   34.0280   39.6246 H   0  0  0  0  0  0  0  0  0  0  0  0
   41.4931   35.3224   39.0849 H   0  0  0  0  0  0  0  0  0  0  0  0
   43.8261   34.2602   41.6578 H   0  0  0  0  0  0  0  0  0  0  0  0
   41.9177   37.6650   43.3878 H   0  0  0  0  0  0  0  0  0  0  0  0
  2  3  1  0
  2  1  1  0
  4  3  1  0
  4  7  1  0
  5  4  2  0
  6  7  2  0
  6 11  1  0
  7  8  1  0
  8  9  2  0
 10  9  1  0
 10 12  1  0
 11 10  2  0
 12 13  2  0
 13 14  1  0
 15 14  1  0
 16 12  1  0
 16 15  2  0
 17  1  1  0
 17 19  1  0
 18 17  1  0
 20 17  1  0
 20 21  1  0
 21 25  1  0
 21 22  1  0
 22 23  2  0
 24 23  1  0
 25 24  2  0
  2 26  1  0
  2 27  1  0
  6 28  1  0
  8 29  1  0
 15 30  1  0
 18 31  1  0
 18 32  1  0
 18 33  1  0
 19 34  1  0
 19 35  1  0
 19 36  1  0
 20 37  1  0
 20 38  1  0
 22 39  1  0
 24 40  1  0
M  ISO  8  26   8  27   8  28  14  29  14  30  14  31   8  32   8  33   8
M  ISO  7  34   8  35   8  36   8  37   8  38   8  39  14  40  14
M  END
>  <minimizedAffinity>  (1) 
-5.24142981

>  <minimizedRMSD>  (1) 
1.33345306

$$$$
