
     RDKit          3D

 19 19  0  0  0  0  0  0  0  0999 V2000
   39.3050   30.4410   42.3900 C   0  0  0  0  0  0  0  0  0  0  0  0
   38.6710   29.3460   43.0100 C   0  0  0  0  0  0  0  0  0  0  0  0
   37.3710   28.9960   42.5770 C   0  0  0  0  0  0  0  0  0  0  0  0
   36.8140   29.7520   41.5780 N   0  0  0  0  0  0  0  0  0  0  0  0
   37.4510   30.7910   41.0110 C   0  0  0  0  0  0  0  0  0  0  0  0
   38.6870   31.1360   41.4130 N   0  0  0  0  0  0  0  0  0  0  0  0
   36.6550   27.8490   43.1940 C   0  0  0  0  0  0  0  0  0  0  0  0
   36.6770   27.9160   44.7110 C   0  0  0  0  0  0  0  0  0  0  0  0
   37.3480   26.5710   42.6980 C   0  0  0  0  0  0  0  0  0  0  0  0
   40.3171   30.7329   42.7069 H   0  0  0  0  0  0  0  0  0  0  0  0
   39.1730   28.7795   43.8082 H   0  0  0  0  0  0  0  0  0  0  0  0
   36.9574   31.3635   40.2119 H   0  0  0  0  0  0  0  0  0  0  0  0
   35.5946   27.8671   42.9020 H   0  0  0  0  0  0  0  0  0  0  0  0
   36.3591   26.9479   45.1254 H   0  0  0  0  0  0  0  0  0  0  0  0
   37.6972   28.1441   45.0532 H   0  0  0  0  0  0  0  0  0  0  0  0
   35.9906   28.7045   45.0532 H   0  0  0  0  0  0  0  0  0  0  0  0
   37.6730   25.9716   43.5611 H   0  0  0  0  0  0  0  0  0  0  0  0
   36.6441   25.9850   42.0888 H   0  0  0  0  0  0  0  0  0  0  0  0
   38.2231   26.8413   42.0888 H   0  0  0  0  0  0  0  0  0  0  0  0
  1  2  2  0
  3  2  1  0
  3  7  1  0
  4  3  2  0
  5  6  2  0
  5  4  1  0
  6  1  1  0
  7  8  1  0
  9  7  1  0
  1 10  1  0
  2 11  1  0
  5 12  1  0
  7 13  1  0
  8 14  1  0
  8 15  1  0
  8 16  1  0
  9 17  1  0
  9 18  1  0
  9 19  1  0
M  ISO  8  10  14  11  14  12  14  13   8  14   8  15   8  16   8  17   8
M  ISO  2  18   8  19   8
M  END
>  <minimizedAffinity>  (1) 
-3.4774766

>  <minimizedRMSD>  (1) 
1.88384557

$$$$
