
     RDKit          3D

 33 35  0  0  1  0  0  0  0  0999 V2000
   37.4120   27.9460   43.3870 C   0  0  2  0  0  0  0  0  0  0  0  0
   40.8900   26.5620   44.0110 C   0  0  0  0  0  0  0  0  0  0  0  0
   39.4890   26.6700   44.0130 C   0  0  0  0  0  0  0  0  0  0  0  0
   38.8790   27.8020   43.4080 C   0  0  0  0  0  0  0  0  0  0  0  0
   39.7330   28.7090   42.8620 N   0  0  0  0  0  0  0  0  0  0  0  0
   41.0620   28.5970   42.8640 C   0  0  0  0  0  0  0  0  0  0  0  0
   41.6460   27.5190   43.4420 N   0  0  0  0  0  0  0  0  0  0  0  0
   36.8320   28.0900   44.7700 C   0  0  0  0  0  0  0  0  0  0  0  0
   36.8520   26.6770   42.7050 C   0  0  0  0  0  0  0  0  0  0  0  0
   37.0680   26.7380   41.2390 C   0  0  0  0  0  0  0  0  0  0  0  0
   37.8680   25.9470   40.4020 C   0  0  0  0  0  0  0  0  0  0  0  0
   37.6640   26.4650   39.1800 N   0  0  0  0  0  0  0  0  0  0  0  0
   36.8140   27.4990   39.1860 C   0  0  0  0  0  0  0  0  0  0  0  0
   36.3460   28.2990   38.1480 C   0  0  0  0  0  0  0  0  0  0  0  0
   35.4560   29.3180   38.4430 C   0  0  0  0  0  0  0  0  0  0  0  0
   35.0250   29.5560   39.7420 C   0  0  0  0  0  0  0  0  0  0  0  0
   35.5190   28.7370   40.7300 C   0  0  0  0  0  0  0  0  0  0  0  0
   36.4070   27.7050   40.5100 C   0  0  0  0  0  0  0  0  0  0  0  0
   37.1366   28.8606   42.8414 H   0  0  0  0  0  0  0  0  0  0  0  0
   41.3717   25.6900   44.4773 H   0  0  0  0  0  0  0  0  0  0  0  0
   38.8714   25.8872   44.4776 H   0  0  0  0  0  0  0  0  0  0  0  0
   41.6822   29.3769   42.3981 H   0  0  0  0  0  0  0  0  0  0  0  0
   37.6148   27.8956   45.5180 H   0  0  0  0  0  0  0  0  0  0  0  0
   36.4453   29.1114   44.9009 H   0  0  0  0  0  0  0  0  0  0  0  0
   36.0124   27.3681   44.9009 H   0  0  0  0  0  0  0  0  0  0  0  0
   37.3645   25.7920   43.1101 H   0  0  0  0  0  0  0  0  0  0  0  0
   35.7719   26.6131   42.9035 H   0  0  0  0  0  0  0  0  0  0  0  0
   38.5121   25.1001   40.6812 H   0  0  0  0  0  0  0  0  0  0  0  0
   38.1146   26.1043   38.3270 H   0  0  0  0  0  0  0  0  0  0  0  0
   36.6766   28.1253   37.1133 H   0  0  0  0  0  0  0  0  0  0  0  0
   35.0809   29.9549   37.6284 H   0  0  0  0  0  0  0  0  0  0  0  0
   34.3174   30.3665   39.9709 H   0  0  0  0  0  0  0  0  0  0  0  0
   35.1843   28.9166   41.7623 H   0  0  0  0  0  0  0  0  0  0  0  0
  1  4  1  0
  1  8  1  0
  2  3  2  0
  4  3  1  0
  5  6  1  0
  5  4  2  0
  6  7  2  0
  7  2  1  0
  9  1  1  0
 10  9  1  0
 11 10  2  0
 12 13  1  0
 12 11  1  0
 13 18  2  0
 14 15  2  0
 14 13  1  0
 15 16  1  0
 16 17  2  0
 18 17  1  0
 18 10  1  0
  1 19  1  6
  2 20  1  0
  3 21  1  0
  6 22  1  0
  8 23  1  0
  8 24  1  0
  8 25  1  0
  9 26  1  0
  9 27  1  0
 11 28  1  0
 12 29  1  0
 14 30  1  0
 15 31  1  0
 16 32  1  0
 17 33  1  0
M  ISO  8  19   8  20  14  21  14  22  14  23   8  24   8  25   8  26   8
M  ISO  7  27   8  28  14  29   9  30  14  31  14  32  14  33  14
M  END
>  <minimizedAffinity>  (1) 
-5.23500109

>  <minimizedRMSD>  (1) 
2.31719875

$$$$
