
     RDKit          3D

 28 29  0  0  1  0  0  0  0  0999 V2000
   37.2040   27.8560   43.3410 C   0  0  2  0  0  0  0  0  0  0  0  0
   39.1290   30.7970   41.9560 C   0  0  0  0  0  0  0  0  0  0  0  0
   38.8630   29.6460   42.7200 C   0  0  0  0  0  0  0  0  0  0  0  0
   37.5690   29.0660   42.5790 C   0  0  0  0  0  0  0  0  0  0  0  0
   36.6750   29.6660   41.7140 N   0  0  0  0  0  0  0  0  0  0  0  0
   37.0060   30.7750   41.0120 C   0  0  0  0  0  0  0  0  0  0  0  0
   38.2240   31.3370   41.1310 N   0  0  0  0  0  0  0  0  0  0  0  0
   36.7960   28.1690   44.7560 C   0  0  0  0  0  0  0  0  0  0  0  0
   38.4550   26.9510   43.3620 C   0  0  0  0  0  0  0  0  0  0  0  0
   38.2820   25.7870   42.4980 C   0  0  0  0  0  0  0  0  0  0  0  0
   36.9710   25.3710   42.2770 C   0  0  0  0  0  0  0  0  0  0  0  0
   36.7110   24.2910   41.4820 C   0  0  0  0  0  0  0  0  0  0  0  0
   37.7730   23.6100   40.8950 C   0  0  0  0  0  0  0  0  0  0  0  0
   39.0670   24.0360   41.1240 C   0  0  0  0  0  0  0  0  0  0  0  0
   39.2990   25.1180   41.9220 N   0  0  0  0  0  0  0  0  0  0  0  0
   36.3409   27.3713   42.8613 H   0  0  0  0  0  0  0  0  0  0  0  0
   40.1181   31.2710   42.0399 H   0  0  0  0  0  0  0  0  0  0  0  0
   39.6177   29.2144   43.3939 H   0  0  0  0  0  0  0  0  0  0  0  0
   36.2672   31.2250   40.3325 H   0  0  0  0  0  0  0  0  0  0  0  0
   37.4700   27.6519   45.4548 H   0  0  0  0  0  0  0  0  0  0  0  0
   36.8566   29.2545   44.9235 H   0  0  0  0  0  0  0  0  0  0  0  0
   35.7633   27.8293   44.9235 H   0  0  0  0  0  0  0  0  0  0  0  0
   39.3224   27.5305   43.0131 H   0  0  0  0  0  0  0  0  0  0  0  0
   38.6114   26.5986   44.3922 H   0  0  0  0  0  0  0  0  0  0  0  0
   36.1389   25.9163   42.7462 H   0  0  0  0  0  0  0  0  0  0  0  0
   35.6753   23.9638   41.3081 H   0  0  0  0  0  0  0  0  0  0  0  0
   37.5833   22.7376   40.2524 H   0  0  0  0  0  0  0  0  0  0  0  0
   39.9110   23.5024   40.6626 H   0  0  0  0  0  0  0  0  0  0  0  0
  1  9  1  0
  1  8  1  0
  2  3  2  0
  4  3  1  0
  4  1  1  0
  5  4  2  0
  6  7  2  0
  6  5  1  0
  7  2  1  0
 10  9  1  0
 11 10  2  0
 12 11  1  0
 13 14  1  0
 13 12  2  0
 14 15  2  0
 15 10  1  0
  1 16  1  6
  2 17  1  0
  3 18  1  0
  6 19  1  0
  8 20  1  0
  8 21  1  0
  8 22  1  0
  9 23  1  0
  9 24  1  0
 11 25  1  0
 12 26  1  0
 13 27  1  0
 14 28  1  0
M  ISO  8  16   8  17  14  18  14  19  14  20   8  21   8  22   8  23   8
M  ISO  5  24   8  25  14  26  14  27  14  28  14
M  END
>  <minimizedAffinity>  (1) 
-4.78509712

>  <minimizedRMSD>  (1) 
1.85735035

$$$$
