
     RDKit          3D

 26 27  0  0  1  0  0  0  0  0999 V2000
   36.9280   27.8560   43.3120 C   0  0  2  0  0  0  0  0  0  0  0  0
   39.2230   30.6560   42.1540 C   0  0  0  0  0  0  0  0  0  0  0  0
   38.7530   29.5290   42.8520 C   0  0  0  0  0  0  0  0  0  0  0  0
   37.4380   29.0510   42.5870 C   0  0  0  0  0  0  0  0  0  0  0  0
   36.7140   29.7340   41.6570 N   0  0  0  0  0  0  0  0  0  0  0  0
   37.1790   30.8010   41.0060 C   0  0  0  0  0  0  0  0  0  0  0  0
   38.4200   31.2650   41.2460 N   0  0  0  0  0  0  0  0  0  0  0  0
   36.7480   28.0940   44.7840 C   0  0  0  0  0  0  0  0  0  0  0  0
   37.9460   26.7220   43.0440 C   0  0  0  0  0  0  0  0  0  0  0  0
   37.3970   25.9220   41.9160 C   0  0  0  0  0  0  0  0  0  0  0  0
   37.0040   24.5990   42.1420 C   0  0  0  0  0  0  0  0  0  0  0  0
   36.5300   24.0640   40.9510 C   0  0  0  0  0  0  0  0  0  0  0  0
   36.6610   25.0930   40.0690 C   0  0  0  0  0  0  0  0  0  0  0  0
   37.1580   26.1430   40.6430 O   0  0  0  0  0  0  0  0  0  0  0  0
   35.9234   27.5951   42.9475 H   0  0  0  0  0  0  0  0  0  0  0  0
   40.2358   31.0413   42.3433 H   0  0  0  0  0  0  0  0  0  0  0  0
   39.3918   29.0242   43.5917 H   0  0  0  0  0  0  0  0  0  0  0  0
   36.5423   31.3071   40.2655 H   0  0  0  0  0  0  0  0  0  0  0  0
   37.3172   27.3414   45.3494 H   0  0  0  0  0  0  0  0  0  0  0  0
   37.1138   29.0992   45.0403 H   0  0  0  0  0  0  0  0  0  0  0  0
   35.6812   28.0157   45.0403 H   0  0  0  0  0  0  0  0  0  0  0  0
   38.9235   27.1454   42.7697 H   0  0  0  0  0  0  0  0  0  0  0  0
   38.0943   26.0998   43.9389 H   0  0  0  0  0  0  0  0  0  0  0  0
   37.0609   24.0693   43.1044 H   0  0  0  0  0  0  0  0  0  0  0  0
   36.1419   23.0517   40.7650 H   0  0  0  0  0  0  0  0  0  0  0  0
   36.3811   25.0398   39.0065 H   0  0  0  0  0  0  0  0  0  0  0  0
  1  8  1  0
  2  3  2  0
  4  3  1  0
  4  1  1  0
  5  4  2  0
  6  7  2  0
  6  5  1  0
  7  2  1  0
  9  1  1  0
 10 11  2  0
 10  9  1  0
 12 11  1  0
 13 14  1  0
 13 12  2  0
 14 10  1  0
  1 15  1  6
  2 16  1  0
  3 17  1  0
  6 18  1  0
  8 19  1  0
  8 20  1  0
  8 21  1  0
  9 22  1  0
  9 23  1  0
 11 24  1  0
 12 25  1  0
 13 26  1  0
M  ISO  8  15   8  16  14  17  14  18  14  19   8  20   8  21   8  22   8
M  ISO  4  23   8  24  14  25  14  26  14
M  END
>  <minimizedAffinity>  (1) 
-4.57451534

>  <minimizedRMSD>  (1) 
1.13108087

$$$$
