
     RDKit          3D

 52 55  0  0  1  0  0  0  0  0999 V2000
   39.0350   26.0640   42.2100 C   0  0  1  0  0  0  0  0  0  0  0  0
   38.7480   24.6940   41.5430 C   0  0  0  0  0  0  0  0  0  0  0  0
   37.3920   24.3100   41.9020 C   0  0  0  0  0  0  0  0  0  0  0  0
   36.7440   25.6340   42.3650 C   0  0  0  0  0  0  0  0  0  0  0  0
   37.8410   26.2950   43.0200 C   0  0  2  0  0  0  0  0  0  0  0  0
   41.8150   26.7090   44.6680 C   0  0  0  0  0  0  0  0  0  0  0  0
   40.5470   26.7520   44.0740 C   0  0  0  0  0  0  0  0  0  0  0  0
   40.3120   26.0610   42.8780 C   0  0  0  0  0  0  0  0  0  0  0  0
   41.3300   25.3580   42.3180 N   0  0  0  0  0  0  0  0  0  0  0  0
   42.5460   25.3210   42.8960 C   0  0  0  0  0  0  0  0  0  0  0  0
   42.7990   25.9830   44.0560 N   0  0  0  0  0  0  0  0  0  0  0  0
   37.4430   27.6920   43.2720 C   0  0  2  0  0  0  0  0  0  0  0  0
   36.7150   27.9200   44.5430 C   0  0  0  0  0  0  0  0  0  0  0  0
   36.6200   27.9950   42.0770 C   0  0  0  0  0  0  0  0  0  0  0  0
   36.9180   29.3040   41.6520 N   0  0  0  0  0  0  0  0  0  0  0  0
   36.1270   30.1590   40.9490 C   0  0  0  0  0  0  0  0  0  0  0  0
   36.8020   31.2940   40.6880 C   0  0  0  0  0  0  0  0  0  0  0  0
   37.9960   31.0910   41.2480 N   0  0  0  0  0  0  0  0  0  0  0  0
   38.1110   29.8860   41.8460 C   0  0  0  0  0  0  0  0  0  0  0  0
   39.4120   29.7190   42.3580 C   0  0  0  0  0  0  0  0  0  0  0  0
   40.5090   29.4070   41.2790 C   0  0  0  0  0  0  0  0  0  0  0  0
   41.7350   29.6870   42.1430 C   0  0  0  0  0  0  0  0  0  0  0  0
   41.4110   31.0650   42.6200 C   0  0  0  0  0  0  0  0  0  0  0  0
   39.9450   31.0870   42.7850 C   0  0  0  0  0  0  0  0  0  0  0  0
   39.1706   26.9132   41.5241 H   0  0  0  0  0  0  0  0  0  0  0  0
   39.4613   23.9409   41.9092 H   0  0  0  0  0  0  0  0  0  0  0  0
   38.8549   24.7644   40.4505 H   0  0  0  0  0  0  0  0  0  0  0  0
   36.8591   23.8957   41.0334 H   0  0  0  0  0  0  0  0  0  0  0  0
   37.3620   23.5285   42.6756 H   0  0  0  0  0  0  0  0  0  0  0  0
   36.3786   26.2202   41.5089 H   0  0  0  0  0  0  0  0  0  0  0  0
   35.8639   25.4937   43.0098 H   0  0  0  0  0  0  0  0  0  0  0  0
   38.0967   25.9033   44.0156 H   0  0  0  0  0  0  0  0  0  0  0  0
   42.0147   27.2475   45.6062 H   0  0  0  0  0  0  0  0  0  0  0  0
   39.7370   27.3275   44.5459 H   0  0  0  0  0  0  0  0  0  0  0  0
   43.3513   24.7429   42.4193 H   0  0  0  0  0  0  0  0  0  0  0  0
   38.3126   28.3521   43.4061 H   0  0  0  0  0  0  0  0  0  0  0  0
   37.3835   27.7106   45.3911 H   0  0  0  0  0  0  0  0  0  0  0  0
   36.3791   28.9664   44.5905 H   0  0  0  0  0  0  0  0  0  0  0  0
   35.8422   27.2522   44.5905 H   0  0  0  0  0  0  0  0  0  0  0  0
   36.8547   27.2812   41.2736 H   0  0  0  0  0  0  0  0  0  0  0  0
   35.5512   27.9119   42.3234 H   0  0  0  0  0  0  0  0  0  0  0  0
   35.0914   29.9536   40.6403 H   0  0  0  0  0  0  0  0  0  0  0  0
   36.4512   32.1815   40.1409 H   0  0  0  0  0  0  0  0  0  0  0  0
   39.2918   28.9252   43.1099 H   0  0  0  0  0  0  0  0  0  0  0  0
   40.4460   30.0817   40.4125 H   0  0  0  0  0  0  0  0  0  0  0  0
   40.4614   28.4116   40.8133 H   0  0  0  0  0  0  0  0  0  0  0  0
   41.8166   28.9753   42.9778 H   0  0  0  0  0  0  0  0  0  0  0  0
   42.6990   29.5933   41.6215 H   0  0  0  0  0  0  0  0  0  0  0  0
   41.9095   31.2675   43.5794 H   0  0  0  0  0  0  0  0  0  0  0  0
   41.7550   31.8344   41.9131 H   0  0  0  0  0  0  0  0  0  0  0  0
   39.5080   31.8740   42.1528 H   0  0  0  0  0  0  0  0  0  0  0  0
   39.6767   31.2973   43.8309 H   0  0  0  0  0  0  0  0  0  0  0  0
  1  8  1  0
  1  5  1  0
  2  3  1  0
  2  1  1  0
  3  4  1  0
  4  5  1  0
  5 12  1  0
  7  6  2  0
  8  7  1  0
  9  8  2  0
  9 10  1  0
 10 11  2  0
 11  6  1  0
 12 13  1  0
 14 12  1  0
 15 19  1  0
 15 14  1  0
 16 15  1  0
 17 16  2  0
 17 18  1  0
 18 19  2  0
 19 20  1  0
 20 24  1  0
 21 22  1  0
 21 20  1  0
 22 23  1  0
 23 24  1  0
  1 25  1  6
  2 26  1  0
  2 27  1  0
  3 28  1  0
  3 29  1  0
  4 30  1  0
  4 31  1  0
  5 32  1  1
  6 33  1  0
  7 34  1  0
 10 35  1  0
 12 36  1  1
 13 37  1  0
 13 38  1  0
 13 39  1  0
 14 40  1  0
 14 41  1  0
 16 42  1  0
 17 43  1  0
 20 44  1  0
 21 45  1  0
 21 46  1  0
 22 47  1  0
 22 48  1  0
 23 49  1  0
 23 50  1  0
 24 51  1  0
 24 52  1  0
M  ISO  8  25  13  26  13  27  13  28  13  29  13  30  13  31  13  32  13
M  ISO  8  33  14  34  14  35  14  36   8  37   8  38   8  39   8  40   8
M  ISO  8  41   8  42  14  43  14  44  13  45  13  46  13  47  13  48  13
M  ISO  4  49  13  50  13  51  13  52  13
M  END
>  <minimizedAffinity>  (1) 
-5.9657855

>  <minimizedRMSD>  (1) 
0.32221508

$$$$
