
     RDKit          3D

 45 47  0  0  1  0  0  0  0  0999 V2000
   37.7900   26.6270   43.0640 C   0  0  0  0  0  0  0  0  0  0  0  0
   37.1600   25.5930   42.2140 C   0  0  2  0  0  0  0  0  0  0  0  0
   37.7340   24.2270   42.2450 C   0  0  0  0  0  0  0  0  0  0  0  0
   37.2720   23.6150   40.9380 C   0  0  0  0  0  0  0  0  0  0  0  0
   36.5350   24.6940   40.1690 C   0  0  0  0  0  0  0  0  0  0  0  0
   37.2450   25.9640   40.7550 C   0  0  2  0  0  0  0  0  0  0  0  0
   38.5810   26.0030   40.1120 C   0  0  0  0  0  0  0  0  0  0  0  0
   39.7180   25.9800   41.1690 C   0  0  0  0  0  0  0  0  0  0  0  0
   40.8790   26.0130   40.1520 C   0  0  0  0  0  0  0  0  0  0  0  0
   40.5410   24.7140   39.4600 C   0  0  0  0  0  0  0  0  0  0  0  0
   39.0260   24.8460   39.2860 C   0  0  0  0  0  0  0  0  0  0  0  0
   36.8170   27.8000   43.2760 C   0  0  2  0  0  0  0  0  0  0  0  0
   39.2380   30.5060   42.2000 C   0  0  0  0  0  0  0  0  0  0  0  0
   38.7340   29.3840   42.8900 C   0  0  0  0  0  0  0  0  0  0  0  0
   37.4110   28.9770   42.6110 C   0  0  0  0  0  0  0  0  0  0  0  0
   36.7260   29.7180   41.6830 N   0  0  0  0  0  0  0  0  0  0  0  0
   37.2240   30.7750   41.0440 C   0  0  0  0  0  0  0  0  0  0  0  0
   38.4810   31.1680   41.3020 N   0  0  0  0  0  0  0  0  0  0  0  0
   36.6290   28.0270   44.7550 C   0  0  0  0  0  0  0  0  0  0  0  0
   38.7028   26.9953   42.5730 H   0  0  0  0  0  0  0  0  0  0  0  0
   38.0424   26.1869   44.0400 H   0  0  0  0  0  0  0  0  0  0  0  0
   36.1490   25.5659   42.6467 H   0  0  0  0  0  0  0  0  0  0  0  0
   38.8323   24.2638   42.2946 H   0  0  0  0  0  0  0  0  0  0  0  0
   37.4129   23.6489   43.1241 H   0  0  0  0  0  0  0  0  0  0  0  0
   38.1395   23.2660   40.3586 H   0  0  0  0  0  0  0  0  0  0  0  0
   36.6154   22.7521   41.1233 H   0  0  0  0  0  0  0  0  0  0  0  0
   35.4570   24.6895   40.3876 H   0  0  0  0  0  0  0  0  0  0  0  0
   36.5769   24.5987   39.0739 H   0  0  0  0  0  0  0  0  0  0  0  0
   36.8579   26.9813   40.5964 H   0  0  0  0  0  0  0  0  0  0  0  0
   38.4376   26.9030   39.4960 H   0  0  0  0  0  0  0  0  0  0  0  0
   39.7043   26.8607   41.8280 H   0  0  0  0  0  0  0  0  0  0  0  0
   39.7108   25.1562   41.8980 H   0  0  0  0  0  0  0  0  0  0  0  0
   40.8237   26.8788   39.4757 H   0  0  0  0  0  0  0  0  0  0  0  0
   41.8953   26.1066   40.5623 H   0  0  0  0  0  0  0  0  0  0  0  0
   41.0513   24.6314   38.4890 H   0  0  0  0  0  0  0  0  0  0  0  0
   40.8522   23.8163   40.0144 H   0  0  0  0  0  0  0  0  0  0  0  0
   38.7833   25.0241   38.2280 H   0  0  0  0  0  0  0  0  0  0  0  0
   38.5171   23.9239   39.6036 H   0  0  0  0  0  0  0  0  0  0  0  0
   35.8242   27.5978   42.8477 H   0  0  0  0  0  0  0  0  0  0  0  0
   40.2651   30.8464   42.3977 H   0  0  0  0  0  0  0  0  0  0  0  0
   39.3518   28.8433   43.6221 H   0  0  0  0  0  0  0  0  0  0  0  0
   36.6109   31.3207   40.3117 H   0  0  0  0  0  0  0  0  0  0  0  0
   37.2320   27.2989   45.3173 H   0  0  0  0  0  0  0  0  0  0  0  0
   36.9506   29.0467   45.0133 H   0  0  0  0  0  0  0  0  0  0  0  0
   35.5672   27.9010   45.0133 H   0  0  0  0  0  0  0  0  0  0  0  0
  1 12  1  0
  2  3  1  0
  2  1  1  0
  4  3  1  0
  5  6  1  0
  5  4  1  0
  6  2  1  0
  7  6  1  0
  7  8  1  0
  9  8  1  0
 10  9  1  0
 11 10  1  0
 11  7  1  0
 12 19  1  0
 13 14  2  0
 15 14  1  0
 15 12  1  0
 16 15  2  0
 17 18  2  0
 17 16  1  0
 18 13  1  0
  1 20  1  0
  1 21  1  0
  2 22  1  1
  3 23  1  0
  3 24  1  0
  4 25  1  0
  4 26  1  0
  5 27  1  0
  5 28  1  0
  6 29  1  1
  7 30  1  0
  8 31  1  0
  8 32  1  0
  9 33  1  0
  9 34  1  0
 10 35  1  0
 10 36  1  0
 11 37  1  0
 11 38  1  0
 12 39  1  6
 13 40  1  0
 14 41  1  0
 17 42  1  0
 19 43  1  0
 19 44  1  0
 19 45  1  0
M  ISO  8  20   8  21   8  22  13  23  13  24  13  25  13  26  13  27  13
M  ISO  8  28  13  29  13  30  13  31  13  32  13  33  13  34  13  35  13
M  ISO  8  36  13  37  13  38  13  39   8  40  14  41  14  42  14  43   8
M  ISO  2  44   8  45   8
M  END
>  <minimizedAffinity>  (1) 
-5.15641451

>  <minimizedRMSD>  (1) 
0.272438645

$$$$
