
     RDKit          3D

 40 42  0  0  1  0  0  0  0  0999 V2000
   37.1090   25.6310   42.1780 C   0  0  2  0  0  0  0  0  0  0  0  0
   37.7120   24.2830   42.3040 C   0  0  0  0  0  0  0  0  0  0  0  0
   37.4070   23.5580   41.0150 C   0  0  0  0  0  0  0  0  0  0  0  0
   36.6850   24.5490   40.1260 C   0  0  0  0  0  0  0  0  0  0  0  0
   37.0530   25.8820   40.7040 C   0  0  2  0  0  0  0  0  0  0  0  0
   38.2080   26.5120   40.0950 C   0  0  0  0  0  0  0  0  0  0  0  0
   39.4840   25.9880   40.0680 C   0  0  0  0  0  0  0  0  0  0  0  0
   40.5860   26.5810   39.4880 C   0  0  0  0  0  0  0  0  0  0  0  0
   40.4280   27.7900   38.8820 N   0  0  0  0  0  0  0  0  0  0  0  0
   39.2000   28.3160   38.8950 C   0  0  0  0  0  0  0  0  0  0  0  0
   38.1570   27.7140   39.4650 N   0  0  0  0  0  0  0  0  0  0  0  0
   37.8810   26.7550   42.8190 C   0  0  0  0  0  0  0  0  0  0  0  0
   36.8960   27.8730   43.1770 C   0  0  2  0  0  0  0  0  0  0  0  0
   39.1420   30.6730   41.9800 C   0  0  0  0  0  0  0  0  0  0  0  0
   38.7350   29.5180   42.6620 C   0  0  0  0  0  0  0  0  0  0  0  0
   37.3810   29.0890   42.4840 C   0  0  0  0  0  0  0  0  0  0  0  0
   36.5610   29.8430   41.6520 N   0  0  0  0  0  0  0  0  0  0  0  0
   36.9980   30.9300   41.0300 C   0  0  0  0  0  0  0  0  0  0  0  0
   38.2750   31.3530   41.1840 N   0  0  0  0  0  0  0  0  0  0  0  0
   36.8030   28.0550   44.6700 C   0  0  0  0  0  0  0  0  0  0  0  0
   36.1404   25.6264   42.6994 H   0  0  0  0  0  0  0  0  0  0  0  0
   38.7997   24.3645   42.4466 H   0  0  0  0  0  0  0  0  0  0  0  0
   37.3046   23.7431   43.1715 H   0  0  0  0  0  0  0  0  0  0  0  0
   38.3397   23.2263   40.5354 H   0  0  0  0  0  0  0  0  0  0  0  0
   36.7920   22.6643   41.1967 H   0  0  0  0  0  0  0  0  0  0  0  0
   35.5971   24.3913   40.1662 H   0  0  0  0  0  0  0  0  0  0  0  0
   36.9650   24.4528   39.0666 H   0  0  0  0  0  0  0  0  0  0  0  0
   36.3134   26.6644   40.4785 H   0  0  0  0  0  0  0  0  0  0  0  0
   39.6358   25.0117   40.5514 H   0  0  0  0  0  0  0  0  0  0  0  0
   41.5694   26.0888   39.5144 H   0  0  0  0  0  0  0  0  0  0  0  0
   39.0426   29.2919   38.4125 H   0  0  0  0  0  0  0  0  0  0  0  0
   38.3787   26.3920   43.7303 H   0  0  0  0  0  0  0  0  0  0  0  0
   38.6467   27.1325   42.1253 H   0  0  0  0  0  0  0  0  0  0  0  0
   35.8729   27.6341   42.8512 H   0  0  0  0  0  0  0  0  0  0  0  0
   40.1754   31.0334   42.0903 H   0  0  0  0  0  0  0  0  0  0  0  0
   39.4296   28.9625   43.3093 H   0  0  0  0  0  0  0  0  0  0  0  0
   36.3137   31.4954   40.3803 H   0  0  0  0  0  0  0  0  0  0  0  0
   37.2479   27.1843   45.1739 H   0  0  0  0  0  0  0  0  0  0  0  0
   37.3464   28.9655   44.9630 H   0  0  0  0  0  0  0  0  0  0  0  0
   35.7468   28.1481   44.9630 H   0  0  0  0  0  0  0  0  0  0  0  0
  1  2  1  0
  1 12  1  0
  3  2  1  0
  4  5  1  0
  4  3  1  0
  5  1  1  0
  6  5  1  0
  7  6  2  0
  8  7  1  0
  9 10  1  0
  9  8  2  0
 10 11  2  0
 11  6  1  0
 12 13  1  0
 13 20  1  0
 14 15  2  0
 16 15  1  0
 16 13  1  0
 17 16  2  0
 18 19  2  0
 18 17  1  0
 19 14  1  0
  1 21  1  1
  2 22  1  0
  2 23  1  0
  3 24  1  0
  3 25  1  0
  4 26  1  0
  4 27  1  0
  5 28  1  1
  7 29  1  0
  8 30  1  0
 10 31  1  0
 12 32  1  0
 12 33  1  0
 13 34  1  6
 14 35  1  0
 15 36  1  0
 18 37  1  0
 20 38  1  0
 20 39  1  0
 20 40  1  0
M  ISO  8  21  13  22  13  23  13  24  13  25  13  26  13  27  13  28  13
M  ISO  8  29  14  30  14  31  14  32   8  33   8  34   8  35  14  36  14
M  ISO  4  37  14  38   8  39   8  40   8
M  END
>  <minimizedAffinity>  (1) 
-5.133533

>  <minimizedRMSD>  (1) 
0.39586252

$$$$
