
     RDKit          3D

 39 41  0  0  1  0  0  0  0  0999 V2000
   37.0840   25.5740   42.2230 C   0  0  2  0  0  0  0  0  0  0  0  0
   37.7800   24.2520   42.2760 C   0  0  0  0  0  0  0  0  0  0  0  0
   37.4240   23.5320   41.0050 C   0  0  0  0  0  0  0  0  0  0  0  0
   36.6000   24.5010   40.1840 C   0  0  0  0  0  0  0  0  0  0  0  0
   37.0080   25.8560   40.7300 C   0  0  2  0  0  0  0  0  0  0  0  0
   38.3290   26.2460   40.1940 C   0  0  0  0  0  0  0  0  0  0  0  0
   39.4500   25.4420   39.9840 C   0  0  0  0  0  0  0  0  0  0  0  0
   40.4170   26.2700   39.4740 C   0  0  0  0  0  0  0  0  0  0  0  0
   39.8530   27.5160   39.3970 C   0  0  0  0  0  0  0  0  0  0  0  0
   38.6170   27.4750   39.8290 O   0  0  0  0  0  0  0  0  0  0  0  0
   37.8650   26.7040   42.8400 C   0  0  0  0  0  0  0  0  0  0  0  0
   36.8860   27.8350   43.1700 C   0  0  2  0  0  0  0  0  0  0  0  0
   39.1750   30.6600   42.0790 C   0  0  0  0  0  0  0  0  0  0  0  0
   38.7240   29.5040   42.7510 C   0  0  0  0  0  0  0  0  0  0  0  0
   37.4110   29.0440   42.4930 C   0  0  0  0  0  0  0  0  0  0  0  0
   36.6560   29.7680   41.5930 N   0  0  0  0  0  0  0  0  0  0  0  0
   37.1190   30.8610   40.9760 C   0  0  0  0  0  0  0  0  0  0  0  0
   38.3650   31.3090   41.2110 N   0  0  0  0  0  0  0  0  0  0  0  0
   36.7760   28.0260   44.6700 C   0  0  0  0  0  0  0  0  0  0  0  0
   36.1311   25.5215   42.7699 H   0  0  0  0  0  0  0  0  0  0  0  0
   38.8685   24.3977   42.3383 H   0  0  0  0  0  0  0  0  0  0  0  0
   37.4718   23.6749   43.1603 H   0  0  0  0  0  0  0  0  0  0  0  0
   38.3362   23.2499   40.4588 H   0  0  0  0  0  0  0  0  0  0  0  0
   36.8648   22.6077   41.2124 H   0  0  0  0  0  0  0  0  0  0  0  0
   35.5240   24.3252   40.3298 H   0  0  0  0  0  0  0  0  0  0  0  0
   36.7724   24.4033   39.1020 H   0  0  0  0  0  0  0  0  0  0  0  0
   36.3265   26.6790   40.4687 H   0  0  0  0  0  0  0  0  0  0  0  0
   39.5397   24.3645   40.1862 H   0  0  0  0  0  0  0  0  0  0  0  0
   41.4406   25.9897   39.1847 H   0  0  0  0  0  0  0  0  0  0  0  0
   40.3627   28.4178   39.0270 H   0  0  0  0  0  0  0  0  0  0  0  0
   38.3582   26.3575   43.7602 H   0  0  0  0  0  0  0  0  0  0  0  0
   38.6366   27.0598   42.1414 H   0  0  0  0  0  0  0  0  0  0  0  0
   35.8679   27.6099   42.8195 H   0  0  0  0  0  0  0  0  0  0  0  0
   40.1923   31.0362   42.2621 H   0  0  0  0  0  0  0  0  0  0  0  0
   39.3777   28.9731   43.4587 H   0  0  0  0  0  0  0  0  0  0  0  0
   36.4725   31.3999   40.2677 H   0  0  0  0  0  0  0  0  0  0  0  0
   37.2615   27.1830   45.1835 H   0  0  0  0  0  0  0  0  0  0  0  0
   37.2717   28.9650   44.9574 H   0  0  0  0  0  0  0  0  0  0  0  0
   35.7151   28.0685   44.9574 H   0  0  0  0  0  0  0  0  0  0  0  0
  1  2  1  0
  1 11  1  0
  3  2  1  0
  4  5  1  0
  4  3  1  0
  5  1  1  0
  6  5  1  0
  7  6  2  0
  8  7  1  0
  9  8  2  0
  9 10  1  0
 10  6  1  0
 11 12  1  0
 12 19  1  0
 13 14  2  0
 15 14  1  0
 15 12  1  0
 16 15  2  0
 17 18  2  0
 17 16  1  0
 18 13  1  0
  1 20  1  1
  2 21  1  0
  2 22  1  0
  3 23  1  0
  3 24  1  0
  4 25  1  0
  4 26  1  0
  5 27  1  1
  7 28  1  0
  8 29  1  0
  9 30  1  0
 11 31  1  0
 11 32  1  0
 12 33  1  6
 13 34  1  0
 14 35  1  0
 17 36  1  0
 19 37  1  0
 19 38  1  0
 19 39  1  0
M  ISO  8  20  13  21  13  22  13  23  13  24  13  25  13  26  13  27  13
M  ISO  8  28  14  29  14  30  14  31   8  32   8  33   8  34  14  35  14
M  ISO  4  36  14  37   8  38   8  39   8
M  END
>  <minimizedAffinity>  (1) 
-5.0929141

>  <minimizedRMSD>  (1) 
0.0710224062

$$$$
