
     RDKit          3D

 38 40  0  0  1  0  0  0  0  0999 V2000
   37.1190   25.5930   42.2040 C   0  0  2  0  0  0  0  0  0  0  0  0
   37.7610   24.2550   42.2820 C   0  0  0  0  0  0  0  0  0  0  0  0
   37.4220   23.5310   41.0060 C   0  0  0  0  0  0  0  0  0  0  0  0
   36.5920   24.4950   40.1880 C   0  0  0  0  0  0  0  0  0  0  0  0
   37.0080   25.8450   40.7100 C   0  0  2  0  0  0  0  0  0  0  0  0
   38.3530   26.2620   40.1680 C   0  0  0  0  0  0  0  0  0  0  0  0
   39.5140   25.3880   40.3220 C   0  0  0  0  0  0  0  0  0  0  0  0
   40.8070   26.3680   39.5100 S   0  0  0  0  0  0  0  0  0  0  0  0
   39.5880   27.7910   39.0910 C   0  0  0  0  0  0  0  0  0  0  0  0
   38.2480   27.4600   39.5900 N   0  0  0  0  0  0  0  0  0  0  0  0
   37.9110   26.7360   42.7950 C   0  0  0  0  0  0  0  0  0  0  0  0
   36.9140   27.8460   43.1440 C   0  0  2  0  0  0  0  0  0  0  0  0
   39.1450   30.6750   41.9960 C   0  0  0  0  0  0  0  0  0  0  0  0
   38.7340   29.5110   42.6700 C   0  0  0  0  0  0  0  0  0  0  0  0
   37.4100   29.0690   42.4630 C   0  0  0  0  0  0  0  0  0  0  0  0
   36.6330   29.8240   41.6140 N   0  0  0  0  0  0  0  0  0  0  0  0
   37.0470   30.9180   40.9910 C   0  0  0  0  0  0  0  0  0  0  0  0
   38.3070   31.3460   41.1830 N   0  0  0  0  0  0  0  0  0  0  0  0
   36.7810   28.0270   44.6330 C   0  0  0  0  0  0  0  0  0  0  0  0
   36.1807   25.5696   42.7776 H   0  0  0  0  0  0  0  0  0  0  0  0
   38.8515   24.3638   42.3767 H   0  0  0  0  0  0  0  0  0  0  0  0
   37.4010   23.6965   43.1586 H   0  0  0  0  0  0  0  0  0  0  0  0
   38.3404   23.2618   40.4637 H   0  0  0  0  0  0  0  0  0  0  0  0
   36.8756   22.5974   41.2053 H   0  0  0  0  0  0  0  0  0  0  0  0
   35.5174   24.3246   40.3500 H   0  0  0  0  0  0  0  0  0  0  0  0
   36.7509   24.3861   39.1050 H   0  0  0  0  0  0  0  0  0  0  0  0
   36.3076   26.6448   40.4275 H   0  0  0  0  0  0  0  0  0  0  0  0
   39.5850   24.4006   40.8017 H   0  0  0  0  0  0  0  0  0  0  0  0
   39.8539   28.7153   38.5572 H   0  0  0  0  0  0  0  0  0  0  0  0
   38.4354   26.4016   43.7023 H   0  0  0  0  0  0  0  0  0  0  0  0
   38.6648   27.0989   42.0808 H   0  0  0  0  0  0  0  0  0  0  0  0
   35.8987   27.5976   42.8013 H   0  0  0  0  0  0  0  0  0  0  0  0
   40.1715   31.0447   42.1358 H   0  0  0  0  0  0  0  0  0  0  0  0
   39.4198   28.9650   43.3344 H   0  0  0  0  0  0  0  0  0  0  0  0
   36.3676   31.4695   40.3245 H   0  0  0  0  0  0  0  0  0  0  0  0
   37.3558   27.2447   45.1503 H   0  0  0  0  0  0  0  0  0  0  0  0
   37.1688   29.0161   44.9182 H   0  0  0  0  0  0  0  0  0  0  0  0
   35.7212   27.9524   44.9182 H   0  0  0  0  0  0  0  0  0  0  0  0
  1  2  1  0
  1 11  1  0
  3  2  1  0
  4  5  1  0
  4  3  1  0
  5  1  1  0
  6  7  2  0
  6  5  1  0
  8  7  1  0
  9  8  1  0
  9 10  2  0
 10  6  1  0
 11 12  1  0
 12 19  1  0
 13 14  2  0
 15 14  1  0
 15 12  1  0
 16 15  2  0
 17 18  2  0
 17 16  1  0
 18 13  1  0
  1 20  1  1
  2 21  1  0
  2 22  1  0
  3 23  1  0
  3 24  1  0
  4 25  1  0
  4 26  1  0
  5 27  1  1
  7 28  1  0
  9 29  1  0
 11 30  1  0
 11 31  1  0
 12 32  1  6
 13 33  1  0
 14 34  1  0
 17 35  1  0
 19 36  1  0
 19 37  1  0
 19 38  1  0
M  ISO  8  20  13  21  13  22  13  23  13  24  13  25  13  26  13  27  13
M  ISO  8  28  14  29  14  30   8  31   8  32   8  33  14  34  14  35  14
M  ISO  3  36   8  37   8  38   8
M  END
>  <minimizedAffinity>  (1) 
-5.07716465

>  <minimizedRMSD>  (1) 
0.287148416

$$$$
