
     RDKit          3D

 41 42  0  0  1  0  0  0  0  0999 V2000
   37.9610   26.8340   42.6120 C   0  0  0  0  0  0  0  0  0  0  0  0
   37.2850   25.5820   42.2000 C   0  0  2  0  0  0  0  0  0  0  0  0
   38.0540   24.3180   42.3270 C   0  0  0  0  0  0  0  0  0  0  0  0
   37.6660   23.4600   41.1440 C   0  0  0  0  0  0  0  0  0  0  0  0
   36.4910   24.1950   40.4950 C   0  0  0  0  0  0  0  0  0  0  0  0
   36.8440   25.6480   40.7960 C   0  0  2  0  0  0  0  0  0  0  0  0
   37.6690   26.2570   39.7530 C   0  0  0  0  0  0  0  0  0  0  0  0
   36.7810   27.3320   39.0930 C   0  0  0  0  0  0  0  0  0  0  0  0
   38.2380   25.4400   38.6770 C   0  0  0  0  0  0  0  0  0  0  0  0
   36.8960   27.8750   42.9980 C   0  0  2  0  0  0  0  0  0  0  0  0
   38.8850   30.7830   41.6250 C   0  0  0  0  0  0  0  0  0  0  0  0
   38.6090   29.5910   42.3260 C   0  0  0  0  0  0  0  0  0  0  0  0
   37.2770   29.1220   42.2930 C   0  0  0  0  0  0  0  0  0  0  0  0
   36.3640   29.8740   41.5760 N   0  0  0  0  0  0  0  0  0  0  0  0
   36.6610   30.9920   40.9280 C   0  0  0  0  0  0  0  0  0  0  0  0
   37.9340   31.4490   40.9530 N   0  0  0  0  0  0  0  0  0  0  0  0
   36.8290   28.0540   44.4880 C   0  0  0  0  0  0  0  0  0  0  0  0
   38.5665   27.2179   41.7777 H   0  0  0  0  0  0  0  0  0  0  0  0
   38.6165   26.6363   43.4730 H   0  0  0  0  0  0  0  0  0  0  0  0
   36.4573   25.5344   42.9229 H   0  0  0  0  0  0  0  0  0  0  0  0
   39.1339   24.5264   42.3076 H   0  0  0  0  0  0  0  0  0  0  0  0
   37.8316   23.8103   43.2772 H   0  0  0  0  0  0  0  0  0  0  0  0
   38.5049   23.3715   40.4381 H   0  0  0  0  0  0  0  0  0  0  0  0
   37.3997   22.4358   41.4441 H   0  0  0  0  0  0  0  0  0  0  0  0
   35.5337   23.9095   40.9555 H   0  0  0  0  0  0  0  0  0  0  0  0
   36.3584   23.9761   39.4252 H   0  0  0  0  0  0  0  0  0  0  0  0
   36.0352   26.3916   40.7414 H   0  0  0  0  0  0  0  0  0  0  0  0
   38.5695   26.5887   40.2907 H   0  0  0  0  0  0  0  0  0  0  0  0
   36.2874   27.9296   39.8735 H   0  0  0  0  0  0  0  0  0  0  0  0
   37.4037   27.9885   38.4674 H   0  0  0  0  0  0  0  0  0  0  0  0
   36.0188   26.8445   38.4674 H   0  0  0  0  0  0  0  0  0  0  0  0
   38.8154   24.6110   39.1122 H   0  0  0  0  0  0  0  0  0  0  0  0
   37.4258   25.0347   38.0557 H   0  0  0  0  0  0  0  0  0  0  0  0
   38.8998   26.0613   38.0557 H   0  0  0  0  0  0  0  0  0  0  0  0
   35.8853   27.5580   42.7015 H   0  0  0  0  0  0  0  0  0  0  0  0
   39.9113   31.1788   41.6293 H   0  0  0  0  0  0  0  0  0  0  0  0
   39.3953   29.0509   42.8737 H   0  0  0  0  0  0  0  0  0  0  0  0
   35.8826   31.5406   40.3774 H   0  0  0  0  0  0  0  0  0  0  0  0
   37.1732   27.1343   44.9836 H   0  0  0  0  0  0  0  0  0  0  0  0
   37.4735   28.8942   44.7857 H   0  0  0  0  0  0  0  0  0  0  0  0
   35.7912   28.2645   44.7857 H   0  0  0  0  0  0  0  0  0  0  0  0
  1 10  1  0
  2  3  1  0
  2  1  1  0
  4  3  1  0
  5  6  1  0
  5  4  1  0
  6  2  1  0
  7  6  1  0
  8  7  1  0
  9  7  1  0
 10 17  1  0
 11 12  2  0
 13 12  1  0
 13 10  1  0
 14 13  2  0
 15 16  2  0
 15 14  1  0
 16 11  1  0
  1 18  1  0
  1 19  1  0
  2 20  1  1
  3 21  1  0
  3 22  1  0
  4 23  1  0
  4 24  1  0
  5 25  1  0
  5 26  1  0
  6 27  1  1
  7 28  1  0
  8 29  1  0
  8 30  1  0
  8 31  1  0
  9 32  1  0
  9 33  1  0
  9 34  1  0
 10 35  1  6
 11 36  1  0
 12 37  1  0
 15 38  1  0
 17 39  1  0
 17 40  1  0
 17 41  1  0
M  ISO  8  18   8  19   8  20  13  21  13  22  13  23  13  24  13  25  13
M  ISO  8  26  13  27  13  28   8  29   8  30   8  31   8  32   8  33   8
M  ISO  8  34   8  35   8  36  14  37  14  38  14  39   8  40   8  41   8
M  END
>  <minimizedAffinity>  (1) 
-4.89906359

>  <minimizedRMSD>  (1) 
0.869930446

$$$$
