
     RDKit          3D

 35 36  0  0  1  0  0  0  0  0999 V2000
   37.8650   26.7000   42.8690 C   0  0  0  0  0  0  0  0  0  0  0  0
   37.0950   25.5700   42.2420 C   0  0  2  0  0  0  0  0  0  0  0  0
   37.8010   24.2530   42.2710 C   0  0  0  0  0  0  0  0  0  0  0  0
   37.4530   23.5470   40.9840 C   0  0  0  0  0  0  0  0  0  0  0  0
   36.6080   24.5220   40.1820 C   0  0  0  0  0  0  0  0  0  0  0  0
   36.9800   25.8650   40.7630 C   0  0  2  0  0  0  0  0  0  0  0  0
   38.2220   26.4080   40.1680 C   0  0  0  0  0  0  0  0  0  0  0  0
   38.2230   27.4700   39.4550 O   0  0  0  0  0  0  0  0  0  0  0  0
   39.4690   26.7820   39.6850 O   0  0  0  0  0  0  0  0  0  0  0  0
   36.8880   27.8330   43.1920 C   0  0  2  0  0  0  0  0  0  0  0  0
   39.1650   30.6560   42.0730 C   0  0  0  0  0  0  0  0  0  0  0  0
   38.7330   29.5010   42.7620 C   0  0  0  0  0  0  0  0  0  0  0  0
   37.4090   29.0400   42.5050 C   0  0  0  0  0  0  0  0  0  0  0  0
   36.6500   29.7570   41.6040 N   0  0  0  0  0  0  0  0  0  0  0  0
   37.1040   30.8430   40.9800 C   0  0  0  0  0  0  0  0  0  0  0  0
   38.3560   31.2950   41.2090 N   0  0  0  0  0  0  0  0  0  0  0  0
   36.7910   28.0320   44.6920 C   0  0  0  0  0  0  0  0  0  0  0  0
   38.6322   27.0602   42.1678 H   0  0  0  0  0  0  0  0  0  0  0  0
   38.3590   26.3546   43.7891 H   0  0  0  0  0  0  0  0  0  0  0  0
   36.1520   25.5025   42.8044 H   0  0  0  0  0  0  0  0  0  0  0  0
   38.8882   24.4069   42.3372 H   0  0  0  0  0  0  0  0  0  0  0  0
   37.4943   23.6585   43.1442 H   0  0  0  0  0  0  0  0  0  0  0  0
   38.3681   23.2902   40.4303 H   0  0  0  0  0  0  0  0  0  0  0  0
   36.9110   22.6090   41.1748 H   0  0  0  0  0  0  0  0  0  0  0  0
   35.5357   24.3177   40.3173 H   0  0  0  0  0  0  0  0  0  0  0  0
   36.7881   24.4572   39.0988 H   0  0  0  0  0  0  0  0  0  0  0  0
   36.2440   26.6550   40.5527 H   0  0  0  0  0  0  0  0  0  0  0  0
   39.5601   27.5937   39.1256 H   0  0  0  0  0  0  0  0  0  0  0  0
   35.8688   27.6076   42.8450 H   0  0  0  0  0  0  0  0  0  0  0  0
   40.1812   31.0398   42.2461 H   0  0  0  0  0  0  0  0  0  0  0  0
   39.3929   28.9776   43.4695 H   0  0  0  0  0  0  0  0  0  0  0  0
   36.4531   31.3765   40.2717 H   0  0  0  0  0  0  0  0  0  0  0  0
   37.2171   27.1579   45.2062 H   0  0  0  0  0  0  0  0  0  0  0  0
   37.3501   28.9348   44.9790 H   0  0  0  0  0  0  0  0  0  0  0  0
   35.7354   28.1477   44.9790 H   0  0  0  0  0  0  0  0  0  0  0  0
  1 10  1  0
  2  3  1  0
  2  1  1  0
  4  3  1  0
  5  6  1  0
  5  4  1  0
  6  2  1  0
  7  6  1  0
  8  7  2  0
  9  7  1  0
 10 17  1  0
 11 12  2  0
 13 12  1  0
 13 10  1  0
 14 13  2  0
 15 16  2  0
 15 14  1  0
 16 11  1  0
  1 18  1  0
  1 19  1  0
  2 20  1  1
  3 21  1  0
  3 22  1  0
  4 23  1  0
  4 24  1  0
  5 25  1  0
  5 26  1  0
  6 27  1  1
  9 28  1  0
 10 29  1  6
 11 30  1  0
 12 31  1  0
 15 32  1  0
 17 33  1  0
 17 34  1  0
 17 35  1  0
M  ISO  8  18   8  19   8  20  13  21  13  22  13  23  13  24  13  25  13
M  ISO  8  26  13  27  13  28   3  29   8  30  14  31  14  32  14  33   8
M  ISO  2  34   8  35   8
M  END
>  <minimizedAffinity>  (1) 
-4.8863349

>  <minimizedRMSD>  (1) 
0.114827842

$$$$
