
     RDKit          3D

 34 35  0  0  1  0  0  0  0  0999 V2000
   37.8680   26.7090   42.7960 C   0  0  0  0  0  0  0  0  0  0  0  0
   37.0870   25.5810   42.1850 C   0  0  2  0  0  0  0  0  0  0  0  0
   37.7290   24.2480   42.2760 C   0  0  0  0  0  0  0  0  0  0  0  0
   37.4400   23.5280   40.9820 C   0  0  0  0  0  0  0  0  0  0  0  0
   36.6440   24.5060   40.1260 C   0  0  0  0  0  0  0  0  0  0  0  0
   36.9950   25.8510   40.6950 C   0  0  2  0  0  0  0  0  0  0  0  0
   38.1900   26.4190   40.1570 N   0  0  0  0  0  0  0  0  0  0  0  0
   36.9030   27.8460   43.1450 C   0  0  2  0  0  0  0  0  0  0  0  0
   39.2090   30.6870   42.1300 C   0  0  0  0  0  0  0  0  0  0  0  0
   38.7340   29.5280   42.7790 C   0  0  0  0  0  0  0  0  0  0  0  0
   37.4330   29.0600   42.4800 C   0  0  0  0  0  0  0  0  0  0  0  0
   36.6930   29.7730   41.5580 N   0  0  0  0  0  0  0  0  0  0  0  0
   37.1800   30.8730   40.9590 C   0  0  0  0  0  0  0  0  0  0  0  0
   38.4180   31.3290   41.2350 N   0  0  0  0  0  0  0  0  0  0  0  0
   36.7920   28.0170   44.6460 C   0  0  0  0  0  0  0  0  0  0  0  0
   38.6197   27.0694   42.0783 H   0  0  0  0  0  0  0  0  0  0  0  0
   38.3786   26.3600   43.7057 H   0  0  0  0  0  0  0  0  0  0  0  0
   36.1342   25.5492   42.7337 H   0  0  0  0  0  0  0  0  0  0  0  0
   38.8149   24.3605   42.4110 H   0  0  0  0  0  0  0  0  0  0  0  0
   37.3381   23.6826   43.1348 H   0  0  0  0  0  0  0  0  0  0  0  0
   38.3791   23.2557   40.4781 H   0  0  0  0  0  0  0  0  0  0  0  0
   36.8810   22.5966   41.1552 H   0  0  0  0  0  0  0  0  0  0  0  0
   35.5644   24.3137   40.2130 H   0  0  0  0  0  0  0  0  0  0  0  0
   36.8808   24.4231   39.0550 H   0  0  0  0  0  0  0  0  0  0  0  0
   36.2455   26.6143   40.4390 H   0  0  0  0  0  0  0  0  0  0  0  0
   38.8076   26.7126   40.9273 H   0  0  0  0  0  0  0  0  0  0  0  0
   38.6731   25.7175   39.5779 H   0  0  0  0  0  0  0  0  0  0  0  0
   35.8822   27.6344   42.7940 H   0  0  0  0  0  0  0  0  0  0  0  0
   40.2172   31.0685   42.3491 H   0  0  0  0  0  0  0  0  0  0  0  0
   39.3654   28.9965   43.5062 H   0  0  0  0  0  0  0  0  0  0  0  0
   36.5567   31.4113   40.2298 H   0  0  0  0  0  0  0  0  0  0  0  0
   37.3247   27.1964   45.1489 H   0  0  0  0  0  0  0  0  0  0  0  0
   37.2387   28.9784   44.9395 H   0  0  0  0  0  0  0  0  0  0  0  0
   35.7320   28.0004   44.9395 H   0  0  0  0  0  0  0  0  0  0  0  0
  1  8  1  0
  2  3  1  0
  2  1  1  0
  4  3  1  0
  5  6  1  0
  5  4  1  0
  6  2  1  0
  7  6  1  0
  8 15  1  0
  9 10  2  0
 11 10  1  0
 11  8  1  0
 12 11  2  0
 13 14  2  0
 13 12  1  0
 14  9  1  0
  1 16  1  0
  1 17  1  0
  2 18  1  1
  3 19  1  0
  3 20  1  0
  4 21  1  0
  4 22  1  0
  5 23  1  0
  5 24  1  0
  6 25  1  1
  7 26  1  0
  7 27  1  0
  8 28  1  6
  9 29  1  0
 10 30  1  0
 13 31  1  0
 15 32  1  0
 15 33  1  0
 15 34  1  0
M  ISO  8  16   8  17   8  18  13  19  13  20  13  21  13  22  13  23  13
M  ISO  8  24  13  25  13  26   5  27   5  28   8  29  14  30  14  31  14
M  ISO  3  32   8  33   8  34   8
M  END
>  <minimizedAffinity>  (1) 
-4.79980755

>  <minimizedRMSD>  (1) 
0.0591670536

$$$$
