
     RDKit          3D

 48 51  0  0  1  0  0  0  0  0999 V2000
   37.3440   27.2760   42.8780 C   0  0  2  0  0  0  0  0  0  0  0  0
   39.1950   25.8010   42.0830 C   0  0  1  0  0  0  0  0  0  0  0  0
   39.1200   24.4080   41.3810 C   0  0  0  0  0  0  0  0  0  0  0  0
   37.7880   23.8670   41.6800 C   0  0  0  0  0  0  0  0  0  0  0  0
   36.9560   25.1360   42.0110 C   0  0  0  0  0  0  0  0  0  0  0  0
   37.9050   25.8920   42.7560 C   0  0  2  0  0  0  0  0  0  0  0  0
   41.7110   26.9160   44.6160 C   0  0  0  0  0  0  0  0  0  0  0  0
   40.5080   26.8160   43.9150 C   0  0  0  0  0  0  0  0  0  0  0  0
   40.4030   25.9370   42.8360 C   0  0  0  0  0  0  0  0  0  0  0  0
   41.4880   25.1900   42.4930 N   0  0  0  0  0  0  0  0  0  0  0  0
   42.6470   25.2890   43.1740 C   0  0  0  0  0  0  0  0  0  0  0  0
   42.7700   26.1400   44.2270 N   0  0  0  0  0  0  0  0  0  0  0  0
   36.2820   27.4670   43.8930 C   0  0  0  0  0  0  0  0  0  0  0  0
   36.9050   27.6110   41.5450 C   0  0  0  0  0  0  0  0  0  0  0  0
   36.9060   29.0120   41.3530 N   0  0  0  0  0  0  0  0  0  0  0  0
   35.8870   29.8120   40.9500 C   0  0  0  0  0  0  0  0  0  0  0  0
   36.3700   31.0710   40.7280 C   0  0  0  0  0  0  0  0  0  0  0  0
   37.6910   30.9960   41.0100 N   0  0  0  0  0  0  0  0  0  0  0  0
   38.0230   29.7400   41.3940 C   0  0  0  0  0  0  0  0  0  0  0  0
   39.4230   29.8210   41.6630 C   0  0  0  0  0  0  0  0  0  0  0  0
   39.9720   30.6520   42.6200 C   0  0  0  0  0  0  0  0  0  0  0  0
   41.2950   30.7900   42.9730 C   0  0  0  0  0  0  0  0  0  0  0  0
   42.1260   29.9690   42.2440 C   0  0  0  0  0  0  0  0  0  0  0  0
   41.6190   29.1260   41.2810 C   0  0  0  0  0  0  0  0  0  0  0  0
   40.3220   29.0380   40.9830 N   0  0  0  0  0  0  0  0  0  0  0  0
   38.1215   27.9523   43.2628 H   0  0  0  0  0  0  0  0  0  0  0  0
   39.3009   26.6839   41.4354 H   0  0  0  0  0  0  0  0  0  0  0  0
   39.8998   23.7401   41.7757 H   0  0  0  0  0  0  0  0  0  0  0  0
   39.2809   24.4976   40.2965 H   0  0  0  0  0  0  0  0  0  0  0  0
   37.3722   23.3387   40.8094 H   0  0  0  0  0  0  0  0  0  0  0  0
   37.7949   23.1303   42.4969 H   0  0  0  0  0  0  0  0  0  0  0  0
   36.6442   25.6649   41.0982 H   0  0  0  0  0  0  0  0  0  0  0  0
   36.0144   24.9365   42.5435 H   0  0  0  0  0  0  0  0  0  0  0  0
   38.0812   25.5192   43.7758 H   0  0  0  0  0  0  0  0  0  0  0  0
   41.8067   27.6067   45.4667 H   0  0  0  0  0  0  0  0  0  0  0  0
   39.6443   27.4289   44.2125 H   0  0  0  0  0  0  0  0  0  0  0  0
   43.5064   24.6718   42.8731 H   0  0  0  0  0  0  0  0  0  0  0  0
   36.7185   27.3885   44.8996 H   0  0  0  0  0  0  0  0  0  0  0  0
   35.8284   28.4611   43.7665 H   0  0  0  0  0  0  0  0  0  0  0  0
   35.5105   26.6932   43.7665 H   0  0  0  0  0  0  0  0  0  0  0  0
   37.5836   27.1464   40.8145 H   0  0  0  0  0  0  0  0  0  0  0  0
   35.8797   27.2371   41.4071 H   0  0  0  0  0  0  0  0  0  0  0  0
   34.8406   29.4978   40.8225 H   0  0  0  0  0  0  0  0  0  0  0  0
   35.8066   31.9542   40.3926 H   0  0  0  0  0  0  0  0  0  0  0  0
   39.2604   31.2847   43.1707 H   0  0  0  0  0  0  0  0  0  0  0  0
   41.6498   31.4806   43.7522 H   0  0  0  0  0  0  0  0  0  0  0  0
   43.2094   29.9870   42.4337 H   0  0  0  0  0  0  0  0  0  0  0  0
   42.3234   28.4890   40.7259 H   0  0  0  0  0  0  0  0  0  0  0  0
  1 13  1  0
  2  6  1  0
  2  9  1  0
  3  4  1  0
  3  2  1  0
  4  5  1  0
  5  6  1  0
  6  1  1  0
  8  7  2  0
  9  8  1  0
 10  9  2  0
 10 11  1  0
 11 12  2  0
 12  7  1  0
 14  1  1  0
 15 19  1  0
 15 14  1  0
 16 15  1  0
 17 16  2  0
 17 18  1  0
 18 19  2  0
 19 20  1  0
 20 21  2  0
 21 22  1  0
 23 22  2  0
 24 23  1  0
 25 24  2  0
 25 20  1  0
  1 26  1  1
  2 27  1  6
  3 28  1  0
  3 29  1  0
  4 30  1  0
  4 31  1  0
  5 32  1  0
  5 33  1  0
  6 34  1  1
  7 35  1  0
  8 36  1  0
 11 37  1  0
 13 38  1  0
 13 39  1  0
 13 40  1  0
 14 41  1  0
 14 42  1  0
 16 43  1  0
 17 44  1  0
 21 45  1  0
 22 46  1  0
 23 47  1  0
 24 48  1  0
M  ISO  8  26   8  27  13  28  13  29  13  30  13  31  13  32  13  33  13
M  ISO  8  34  13  35  14  36  14  37  14  38   8  39   8  40   8  41   8
M  ISO  7  42   8  43  14  44  14  45  14  46  14  47  14  48  14
M  END
>  <minimizedAffinity>  (1) 
-5.78144693

>  <minimizedRMSD>  (1) 
0.759636223

$$$$
