
     RDKit          3D

 47 49  0  0  1  0  0  0  0  0999 V2000
   38.2490   28.4830   41.7070 C   0  0  1  0  0  0  0  0  0  0  0  0
   40.1210   26.0940   43.9530 C   0  0  0  0  0  0  0  0  0  0  0  0
   39.6690   27.3200   43.4120 C   0  0  0  0  0  0  0  0  0  0  0  0
   38.7720   27.2510   42.3320 C   0  0  0  0  0  0  0  0  0  0  0  0
   38.4100   25.9980   41.8910 N   0  0  0  0  0  0  0  0  0  0  0  0
   38.8540   24.8690   42.4230 C   0  0  0  0  0  0  0  0  0  0  0  0
   39.7090   24.9040   43.4520 N   0  0  0  0  0  0  0  0  0  0  0  0
   36.7550   28.3140   41.5530 C   0  0  0  0  0  0  0  0  0  0  0  0
   36.2600   29.0370   40.3640 C   0  0  2  0  0  0  0  0  0  0  0  0
   34.7580   29.1170   40.2740 C   0  0  0  0  0  0  0  0  0  0  0  0
   34.4340   29.0750   38.7960 C   0  0  0  0  0  0  0  0  0  0  0  0
   35.7800   28.9260   38.0690 C   0  0  0  0  0  0  0  0  0  0  0  0
   36.6360   28.3140   39.1280 C   0  0  2  0  0  0  0  0  0  0  0  0
   36.3150   26.8510   39.1480 C   0  0  0  0  0  0  0  0  0  0  0  0
   35.8880   25.8940   38.5010 O   0  0  0  0  0  0  0  0  0  0  0  0
   38.5510   29.7190   42.5550 C   0  0  0  0  0  0  0  0  0  0  0  0
   39.5940   30.4790   42.0110 O   0  0  0  0  0  0  0  0  0  0  0  0
   39.5250   32.7350   41.6590 N   0  0  0  0  0  0  0  0  0  0  0  0
   39.4810   33.5740   40.5040 C   0  0  0  0  0  0  0  0  0  0  0  0
   38.9140   32.7870   39.3500 C   0  0  0  0  0  0  0  0  0  0  0  0
   39.1290   31.3570   39.8010 C   0  0  0  0  0  0  0  0  0  0  0  0
   38.9200   31.4590   41.2710 C   0  0  1  0  0  0  0  0  0  0  0  0
   38.7353   28.6360   40.7323 H   0  0  0  0  0  0  0  0  0  0  0  0
   40.8230   26.1065   44.7998 H   0  0  0  0  0  0  0  0  0  0  0  0
   40.0047   28.2854   43.8186 H   0  0  0  0  0  0  0  0  0  0  0  0
   38.5197   23.9021   42.0187 H   0  0  0  0  0  0  0  0  0  0  0  0
   36.5232   27.2441   41.4457 H   0  0  0  0  0  0  0  0  0  0  0  0
   36.2619   28.7277   42.4450 H   0  0  0  0  0  0  0  0  0  0  0  0
   36.7020   30.0396   40.4611 H   0  0  0  0  0  0  0  0  0  0  0  0
   34.2966   28.2635   40.7923 H   0  0  0  0  0  0  0  0  0  0  0  0
   34.3707   30.0304   40.7490 H   0  0  0  0  0  0  0  0  0  0  0  0
   33.7822   28.2176   38.5722 H   0  0  0  0  0  0  0  0  0  0  0  0
   33.9021   29.9828   38.4751 H   0  0  0  0  0  0  0  0  0  0  0  0
   35.6913   28.2646   37.1945 H   0  0  0  0  0  0  0  0  0  0  0  0
   36.1759   29.8710   37.6686 H   0  0  0  0  0  0  0  0  0  0  0  0
   37.7233   28.3958   38.9830 H   0  0  0  0  0  0  0  0  0  0  0  0
   36.5621   26.4785   40.1531 H   0  0  0  0  0  0  0  0  0  0  0  0
   37.6467   30.3429   42.6102 H   0  0  0  0  0  0  0  0  0  0  0  0
   38.8590   29.3811   43.5555 H   0  0  0  0  0  0  0  0  0  0  0  0
   40.5004   32.5902   41.9564 H   0  0  0  0  0  0  0  0  0  0  0  0
   38.8419   34.4463   40.7054 H   0  0  0  0  0  0  0  0  0  0  0  0
   40.4952   33.9205   40.2562 H   0  0  0  0  0  0  0  0  0  0  0  0
   39.4589   32.9974   38.4179 H   0  0  0  0  0  0  0  0  0  0  0  0
   37.8639   33.0261   39.1263 H   0  0  0  0  0  0  0  0  0  0  0  0
   38.3964   30.6784   39.3397 H   0  0  0  0  0  0  0  0  0  0  0  0
   40.1107   30.9474   39.5209 H   0  0  0  0  0  0  0  0  0  0  0  0
   37.8441   31.3517   41.4733 H   0  0  0  0  0  0  0  0  0  0  0  0
  1  4  1  0
  1 16  1  0
  3  2  2  0
  4  3  1  0
  5  4  2  0
  5  6  1  0
  6  7  2  0
  7  2  1  0
  8  1  1  0
  9  8  1  0
 10  9  1  0
 11 10  1  0
 12 11  1  0
 12 13  1  0
 13 14  1  0
 13  9  1  0
 15 14  2  0
 17 16  1  0
 19 18  1  0
 20 21  1  0
 20 19  1  0
 21 22  1  0
 22 18  1  0
 22 17  1  0
  1 23  1  6
  2 24  1  0
  3 25  1  0
  6 26  1  0
  8 27  1  0
  8 28  1  0
  9 29  1  6
 10 30  1  0
 10 31  1  0
 11 32  1  0
 11 33  1  0
 12 34  1  0
 12 35  1  0
 13 36  1  6
 14 37  1  0
 16 38  1  0
 16 39  1  0
 18 40  1  0
 19 41  1  0
 19 42  1  0
 20 43  1  0
 20 44  1  0
 21 45  1  0
 21 46  1  0
 22 47  1  6
M  ISO  8  23   8  24  14  25  14  26  14  27   8  28   8  29  13  30  13
M  ISO  8  31  13  32  13  33  13  34  13  35  13  36  13  37   6  38   8
M  ISO  8  39   8  40   5  41  13  42  13  43  13  44  13  45  13  46  13
M  ISO  1  47  13
M  END
>  <minimizedAffinity>  (1) 
-4.65476513

>  <minimizedRMSD>  (1) 
5.79960918

$$$$
