
     RDKit          3D

 44 45  0  0  1  0  0  0  0  0999 V2000
   37.1080   26.3580   41.9460 C   0  0  0  0  0  0  0  0  0  0  0  0
   37.9840   27.5570   41.8830 C   0  0  2  0  0  0  0  0  0  0  0  0
   39.3750   27.3570   42.3850 C   0  0  0  0  0  0  0  0  0  0  0  0
   39.7780   28.6730   43.0480 C   0  0  0  0  0  0  0  0  0  0  0  0
   38.5740   29.6010   42.9000 C   0  0  0  0  0  0  0  0  0  0  0  0
   37.4490   28.6170   42.7710 C   0  0  2  0  0  0  0  0  0  0  0  0
   37.1200   28.1530   44.1550 C   0  0  0  0  0  0  0  0  0  0  0  0
   36.4670   28.4050   45.1580 O   0  0  0  0  0  0  0  0  0  0  0  0
   36.6850   25.9410   40.5570 C   0  0  2  0  0  0  0  0  0  0  0  0
   39.2850   23.6280   39.0870 C   0  0  0  0  0  0  0  0  0  0  0  0
   38.5940   24.8250   39.3740 C   0  0  0  0  0  0  0  0  0  0  0  0
   37.4660   24.7320   40.2060 C   0  0  0  0  0  0  0  0  0  0  0  0
   37.1230   23.4770   40.6770 N   0  0  0  0  0  0  0  0  0  0  0  0
   37.8020   22.3770   40.3810 C   0  0  0  0  0  0  0  0  0  0  0  0
   38.8790   22.4420   39.5900 N   0  0  0  0  0  0  0  0  0  0  0  0
   36.9170   27.0700   39.5630 C   0  0  0  0  0  0  0  0  0  0  0  0
   35.7780   27.3910   38.8450 O   0  0  0  0  0  0  0  0  0  0  0  0
   35.4140   28.6950   38.8740 C   0  0  0  0  0  0  0  0  0  0  0  0
   34.4280   28.9600   37.7630 C   0  0  0  0  0  0  0  0  0  0  0  0
   34.9150   29.2200   40.1690 C   0  0  0  0  0  0  0  0  0  0  0  0
   37.6579   25.5320   42.4207 H   0  0  0  0  0  0  0  0  0  0  0  0
   36.2109   26.6021   42.5339 H   0  0  0  0  0  0  0  0  0  0  0  0
   38.0038   27.8045   40.8114 H   0  0  0  0  0  0  0  0  0  0  0  0
   39.4027   26.5363   43.1169 H   0  0  0  0  0  0  0  0  0  0  0  0
   40.0628   27.0903   41.5691 H   0  0  0  0  0  0  0  0  0  0  0  0
   40.0081   28.5112   44.1114 H   0  0  0  0  0  0  0  0  0  0  0  0
   40.6781   29.1012   42.5826 H   0  0  0  0  0  0  0  0  0  0  0  0
   38.4485   30.2402   43.7864 H   0  0  0  0  0  0  0  0  0  0  0  0
   38.6520   30.3045   42.0580 H   0  0  0  0  0  0  0  0  0  0  0  0
   36.5145   29.0042   42.3388 H   0  0  0  0  0  0  0  0  0  0  0  0
   37.6833   27.2271   44.3431 H   0  0  0  0  0  0  0  0  0  0  0  0
   35.6090   25.7148   40.5240 H   0  0  0  0  0  0  0  0  0  0  0  0
   40.1736   23.6618   38.4395 H   0  0  0  0  0  0  0  0  0  0  0  0
   38.9250   25.7903   38.9633 H   0  0  0  0  0  0  0  0  0  0  0  0
   37.4784   21.4074   40.7874 H   0  0  0  0  0  0  0  0  0  0  0  0
   37.2486   27.9621   40.1146 H   0  0  0  0  0  0  0  0  0  0  0  0
   37.6779   26.7300   38.8451 H   0  0  0  0  0  0  0  0  0  0  0  0
   36.3480   29.2566   38.7250 H   0  0  0  0  0  0  0  0  0  0  0  0
   33.4510   29.2226   38.1948 H   0  0  0  0  0  0  0  0  0  0  0  0
   34.7902   29.7927   37.1421 H   0  0  0  0  0  0  0  0  0  0  0  0
   34.3240   28.0579   37.1421 H   0  0  0  0  0  0  0  0  0  0  0  0
   35.4153   28.6937   40.9953 H   0  0  0  0  0  0  0  0  0  0  0  0
   35.1309   30.2965   40.2359 H   0  0  0  0  0  0  0  0  0  0  0  0
   33.8289   29.0590   40.2359 H   0  0  0  0  0  0  0  0  0  0  0  0
  2  1  1  0
  2  3  1  0
  2  6  1  0
  3  4  1  0
  5  4  1  0
  6  5  1  0
  6  7  1  0
  7  8  2  0
  9  1  1  0
 10 11  2  0
 10 15  1  0
 11 12  1  0
 12  9  1  0
 12 13  2  0
 14 13  1  0
 15 14  2  0
 16  9  1  0
 17 18  1  0
 17 16  1  0
 18 20  1  0
 19 18  1  0
  1 21  1  0
  1 22  1  0
  2 23  1  6
  3 24  1  0
  3 25  1  0
  4 26  1  0
  4 27  1  0
  5 28  1  0
  5 29  1  0
  6 30  1  6
  7 31  1  0
  9 32  1  1
 10 33  1  0
 11 34  1  0
 14 35  1  0
 16 36  1  0
 16 37  1  0
 18 38  1  0
 19 39  1  0
 19 40  1  0
 19 41  1  0
 20 42  1  0
 20 43  1  0
 20 44  1  0
M  ISO  8  21   8  22   8  23  13  24  13  25  13  26  13  27  13  28  13
M  ISO  8  29  13  30  13  31   6  32   8  33  14  34  14  35  14  36   8
M  ISO  8  37   8  38   8  39   8  40   8  41   8  42   8  43   8  44   8
M  END
>  <minimizedAffinity>  (1) 
-4.50752783

>  <minimizedRMSD>  (1) 
6.22417593

$$$$
