
     RDKit          3D

 52 54  0  0  1  0  0  0  0  0999 V2000
   37.8740   28.2230   41.3690 C   0  0  1  0  0  0  0  0  0  0  0  0
   38.6360   30.9670   38.8990 C   0  0  0  0  0  0  0  0  0  0  0  0
   38.6430   29.7060   39.5120 C   0  0  0  0  0  0  0  0  0  0  0  0
   37.8660   29.5220   40.6510 C   0  0  0  0  0  0  0  0  0  0  0  0
   37.1450   30.5890   41.0950 N   0  0  0  0  0  0  0  0  0  0  0  0
   37.1580   31.7770   40.4910 C   0  0  0  0  0  0  0  0  0  0  0  0
   37.9040   31.9670   39.3920 N   0  0  0  0  0  0  0  0  0  0  0  0
   38.4650   27.1710   40.5160 C   0  0  0  0  0  0  0  0  0  0  0  0
   38.3210   25.8350   41.0860 C   0  0  2  0  0  0  0  0  0  0  0  0
   39.2110   24.8190   40.4220 C   0  0  0  0  0  0  0  0  0  0  0  0
   38.4320   23.5100   40.5120 C   0  0  0  0  0  0  0  0  0  0  0  0
   37.0800   23.8660   41.1360 C   0  0  0  0  0  0  0  0  0  0  0  0
   36.9430   25.3270   40.8030 C   0  0  2  0  0  0  0  0  0  0  0  0
   36.5510   25.4250   39.3670 C   0  0  0  0  0  0  0  0  0  0  0  0
   35.6940   24.9020   38.6380 O   0  0  0  0  0  0  0  0  0  0  0  0
   38.4660   28.2960   42.7590 C   0  0  1  0  0  0  0  0  0  0  0  0
   39.7380   28.6970   42.8860 N   0  0  0  0  0  0  0  0  0  0  0  0
   40.3390   29.8620   42.6070 C   0  0  0  0  0  0  0  0  0  0  0  0
   41.6650   30.2070   42.7590 C   0  0  0  0  0  0  0  0  0  0  0  0
   42.1680   31.5570   42.3960 C   0  0  0  0  0  0  0  0  0  0  0  0
   42.5020   29.2140   43.2720 C   0  0  0  0  0  0  0  0  0  0  0  0
   43.7020   29.4870   43.4220 O   0  0  0  0  0  0  0  0  0  0  0  0
   41.9400   28.0300   43.5650 N   0  0  0  0  0  0  0  0  0  0  0  0
   40.6110   27.7650   43.3840 C   0  0  0  0  0  0  0  0  0  0  0  0
   40.3590   26.5640   43.7450 O   0  0  0  0  0  0  0  0  0  0  0  0
   37.5080   28.7380   43.6860 O   0  0  0  0  0  0  0  0  0  0  0  0
   36.6320   28.0130   44.3550 C   0  0  0  0  0  0  0  0  0  0  0  0
   36.2530   28.4620   45.6350 N   0  0  0  0  0  0  0  0  0  0  0  0
   36.1790   26.9780   43.8220 O   0  0  0  0  0  0  0  0  0  0  0  0
   36.8276   27.9414   41.5581 H   0  0  0  0  0  0  0  0  0  0  0  0
   39.2437   31.1341   37.9975 H   0  0  0  0  0  0  0  0  0  0  0  0
   39.2475   28.8832   39.1026 H   0  0  0  0  0  0  0  0  0  0  0  0
   36.5555   32.6041   40.8946 H   0  0  0  0  0  0  0  0  0  0  0  0
   39.5363   27.3843   40.3860 H   0  0  0  0  0  0  0  0  0  0  0  0
   37.9280   27.1817   39.5561 H   0  0  0  0  0  0  0  0  0  0  0  0
   38.5630   25.9390   42.1540 H   0  0  0  0  0  0  0  0  0  0  0  0
   40.1709   24.7372   40.9529 H   0  0  0  0  0  0  0  0  0  0  0  0
   39.4531   25.0906   39.3839 H   0  0  0  0  0  0  0  0  0  0  0  0
   38.2891   23.0805   39.5094 H   0  0  0  0  0  0  0  0  0  0  0  0
   38.9691   22.7619   41.1136 H   0  0  0  0  0  0  0  0  0  0  0  0
   36.2670   23.2776   40.6857 H   0  0  0  0  0  0  0  0  0  0  0  0
   37.0251   23.6547   42.2141 H   0  0  0  0  0  0  0  0  0  0  0  0
   36.1861   25.8982   41.3605 H   0  0  0  0  0  0  0  0  0  0  0  0
   37.1794   26.1404   38.8163 H   0  0  0  0  0  0  0  0  0  0  0  0
   38.6927   27.2622   43.0589 H   0  0  0  0  0  0  0  0  0  0  0  0
   39.6860   30.6492   42.2020 H   0  0  0  0  0  0  0  0  0  0  0  0
   42.3806   32.1276   43.3121 H   0  0  0  0  0  0  0  0  0  0  0  0
   43.0895   31.4579   41.8036 H   0  0  0  0  0  0  0  0  0  0  0  0
   41.4063   32.0850   41.8036 H   0  0  0  0  0  0  0  0  0  0  0  0
   42.5402   27.2842   43.9451 H   0  0  0  0  0  0  0  0  0  0  0  0
   35.5715   27.9236   46.1887 H   0  0  0  0  0  0  0  0  0  0  0  0
   36.6573   29.3287   46.0173 H   0  0  0  0  0  0  0  0  0  0  0  0
  1 16  1  0
  2  7  2  0
  2  3  1  0
  3  4  2  0
  4  5  1  0
  4  1  1  0
  6  5  2  0
  7  6  1  0
  8  9  1  0
  8  1  1  0
 10 11  1  0
 10  9  1  0
 11 12  1  0
 13  9  1  0
 13 12  1  0
 14 13  1  0
 15 14  2  0
 16 17  1  0
 16 26  1  0
 17 24  1  0
 18 19  2  0
 18 17  1  0
 19 21  1  0
 20 19  1  0
 21 22  2  0
 21 23  1  0
 24 23  1  0
 24 25  2  0
 26 27  1  0
 27 28  1  0
 29 27  2  0
  1 30  1  1
  2 31  1  0
  3 32  1  0
  6 33  1  0
  8 34  1  0
  8 35  1  0
  9 36  1  1
 10 37  1  0
 10 38  1  0
 11 39  1  0
 11 40  1  0
 12 41  1  0
 12 42  1  0
 13 43  1  1
 14 44  1  0
 16 45  1  1
 18 46  1  0
 20 47  1  0
 20 48  1  0
 20 49  1  0
 23 50  1  0
 28 51  1  0
 28 52  1  0
M  ISO  8  30   8  31  14  32  14  33  14  34   8  35   8  36  13  37  13
M  ISO  8  38  13  39  13  40  13  41  13  42  13  43  13  44   6  45   8
M  ISO  5  46  14  47   8  48   8  49   8  50   9
M  END
>  <minimizedAffinity>  (1) 
-5.32717466

>  <minimizedRMSD>  (1) 
1.6007607

$$$$
