
     RDKit          3D

 49 51  0  0  1  0  0  0  0  0999 V2000
   37.6880   28.3620   41.2900 C   0  0  1  0  0  0  0  0  0  0  0  0
   38.3740   30.9910   38.6810 C   0  0  0  0  0  0  0  0  0  0  0  0
   38.4220   29.7580   39.3560 C   0  0  0  0  0  0  0  0  0  0  0  0
   37.6350   29.6100   40.4940 C   0  0  0  0  0  0  0  0  0  0  0  0
   36.8680   30.6740   40.8740 N   0  0  0  0  0  0  0  0  0  0  0  0
   36.8490   31.8280   40.2100 C   0  0  0  0  0  0  0  0  0  0  0  0
   37.6070   31.9850   39.1090 N   0  0  0  0  0  0  0  0  0  0  0  0
   38.3020   27.2740   40.4980 C   0  0  0  0  0  0  0  0  0  0  0  0
   38.3140   25.9970   41.2100 C   0  0  2  0  0  0  0  0  0  0  0  0
   39.3380   25.0410   40.6640 C   0  0  0  0  0  0  0  0  0  0  0  0
   38.7310   23.6550   40.8820 C   0  0  0  0  0  0  0  0  0  0  0  0
   37.3520   23.9000   41.4770 C   0  0  0  0  0  0  0  0  0  0  0  0
   37.0180   25.2830   40.9850 C   0  0  2  0  0  0  0  0  0  0  0  0
   36.6310   25.1670   39.5540 C   0  0  0  0  0  0  0  0  0  0  0  0
   35.7550   24.5730   38.9140 O   0  0  0  0  0  0  0  0  0  0  0  0
   38.3150   28.5370   42.6600 C   0  0  1  0  0  0  0  0  0  0  0  0
   39.5550   29.1180   42.7320 C   0  0  0  0  0  0  0  0  0  0  0  0
   40.7090   28.3310   42.8680 C   0  0  0  0  0  0  0  0  0  0  0  0
   41.9890   28.8450   42.9600 C   0  0  0  0  0  0  0  0  0  0  0  0
   42.2000   30.2080   42.9190 C   0  0  0  0  0  0  0  0  0  0  0  0
   41.1160   31.0390   42.7860 C   0  0  0  0  0  0  0  0  0  0  0  0
   39.8640   30.4650   42.7000 C   0  0  0  0  0  0  0  0  0  0  0  0
   37.3410   28.8600   43.6140 O   0  0  0  0  0  0  0  0  0  0  0  0
   36.6050   28.0470   44.3420 C   0  0  0  0  0  0  0  0  0  0  0  0
   36.3050   28.4460   45.6580 N   0  0  0  0  0  0  0  0  0  0  0  0
   36.2090   26.9800   43.8310 O   0  0  0  0  0  0  0  0  0  0  0  0
   36.6507   28.0710   41.5120 H   0  0  0  0  0  0  0  0  0  0  0  0
   38.9860   31.1342   37.7783 H   0  0  0  0  0  0  0  0  0  0  0  0
   39.0606   28.9378   38.9962 H   0  0  0  0  0  0  0  0  0  0  0  0
   36.2131   32.6538   40.5617 H   0  0  0  0  0  0  0  0  0  0  0  0
   39.3387   27.5539   40.2594 H   0  0  0  0  0  0  0  0  0  0  0  0
   37.6974   27.1423   39.5886 H   0  0  0  0  0  0  0  0  0  0  0  0
   38.5169   26.2487   42.2614 H   0  0  0  0  0  0  0  0  0  0  0  0
   40.2886   25.1381   41.2089 H   0  0  0  0  0  0  0  0  0  0  0  0
   39.5643   25.2341   39.6050 H   0  0  0  0  0  0  0  0  0  0  0  0
   38.6465   23.1183   39.9256 H   0  0  0  0  0  0  0  0  0  0  0  0
   39.3555   23.0371   41.5440 H   0  0  0  0  0  0  0  0  0  0  0  0
   36.6245   23.1618   41.1085 H   0  0  0  0  0  0  0  0  0  0  0  0
   37.3281   23.8099   42.5730 H   0  0  0  0  0  0  0  0  0  0  0  0
   36.1836   25.8069   41.4742 H   0  0  0  0  0  0  0  0  0  0  0  0
   37.2892   25.7580   38.9002 H   0  0  0  0  0  0  0  0  0  0  0  0
   38.6890   27.5504   42.9710 H   0  0  0  0  0  0  0  0  0  0  0  0
   40.5876   27.2383   42.9036 H   0  0  0  0  0  0  0  0  0  0  0  0
   42.8452   28.1627   43.0666 H   0  0  0  0  0  0  0  0  0  0  0  0
   43.2172   30.6204   42.9915 H   0  0  0  0  0  0  0  0  0  0  0  0
   41.2415   32.1312   42.7490 H   0  0  0  0  0  0  0  0  0  0  0  0
   39.0160   31.1576   42.5940 H   0  0  0  0  0  0  0  0  0  0  0  0
   35.7319   27.8396   46.2620 H   0  0  0  0  0  0  0  0  0  0  0  0
   36.6585   29.3443   46.0170 H   0  0  0  0  0  0  0  0  0  0  0  0
  1 16  1  0
  2  7  2  0
  2  3  1  0
  3  4  2  0
  4  5  1  0
  4  1  1  0
  6  5  2  0
  7  6  1  0
  8  9  1  0
  8  1  1  0
 10 11  1  0
 10  9  1  0
 11 12  1  0
 13  9  1  0
 13 12  1  0
 14 13  1  0
 15 14  2  0
 16 17  1  0
 16 23  1  0
 17 18  2  0
 18 19  1  0
 20 19  2  0
 21 20  1  0
 22 17  1  0
 22 21  2  0
 23 24  1  0
 24 25  1  0
 26 24  2  0
  1 27  1  1
  2 28  1  0
  3 29  1  0
  6 30  1  0
  8 31  1  0
  8 32  1  0
  9 33  1  1
 10 34  1  0
 10 35  1  0
 11 36  1  0
 11 37  1  0
 12 38  1  0
 12 39  1  0
 13 40  1  1
 14 41  1  0
 16 42  1  1
 18 43  1  0
 19 44  1  0
 20 45  1  0
 21 46  1  0
 22 47  1  0
 25 48  1  0
 25 49  1  0
M  ISO  8  27   8  28  14  29  14  30  14  31   8  32   8  33  13  34  13
M  ISO  8  35  13  36  13  37  13  38  13  39  13  40  13  41   6  42   8
M  ISO  5  43  14  44  14  45  14  46  14  47  14
M  END
>  <minimizedAffinity>  (1) 
-5.26596022

>  <minimizedRMSD>  (1) 
0.806281924

$$$$
