
     RDKit          3D

 49 51  0  0  1  0  0  0  0  0999 V2000
   37.6780   28.3490   41.3130 C   0  0  1  0  0  0  0  0  0  0  0  0
   38.3740   30.9750   38.7030 C   0  0  0  0  0  0  0  0  0  0  0  0
   38.4180   29.7470   39.3810 C   0  0  0  0  0  0  0  0  0  0  0  0
   37.6300   29.5980   40.5180 C   0  0  0  0  0  0  0  0  0  0  0  0
   36.8680   30.6610   40.8930 N   0  0  0  0  0  0  0  0  0  0  0  0
   36.8460   31.8180   40.2290 C   0  0  0  0  0  0  0  0  0  0  0  0
   37.6020   31.9730   39.1320 N   0  0  0  0  0  0  0  0  0  0  0  0
   38.2340   27.2450   40.5000 C   0  0  0  0  0  0  0  0  0  0  0  0
   38.3040   25.9820   41.2360 C   0  0  2  0  0  0  0  0  0  0  0  0
   39.3220   25.0380   40.6600 C   0  0  0  0  0  0  0  0  0  0  0  0
   38.7550   23.6440   40.9350 C   0  0  0  0  0  0  0  0  0  0  0  0
   37.3930   23.8720   41.5770 C   0  0  0  0  0  0  0  0  0  0  0  0
   37.0150   25.2410   41.0770 C   0  0  2  0  0  0  0  0  0  0  0  0
   36.5710   25.0890   39.6640 C   0  0  0  0  0  0  0  0  0  0  0  0
   35.7230   24.4180   39.0670 O   0  0  0  0  0  0  0  0  0  0  0  0
   38.3590   28.5060   42.6610 C   0  0  1  0  0  0  0  0  0  0  0  0
   39.6170   29.0400   42.6960 C   0  0  0  0  0  0  0  0  0  0  0  0
   40.8310   28.3830   42.7040 C   0  0  0  0  0  0  0  0  0  0  0  0
   42.0960   28.9340   42.7610 C   0  0  0  0  0  0  0  0  0  0  0  0
   42.1760   30.3100   42.8160 C   0  0  0  0  0  0  0  0  0  0  0  0
   41.0230   31.0500   42.8130 C   0  0  0  0  0  0  0  0  0  0  0  0
   39.7770   30.4340   42.7550 C   0  0  0  0  0  0  0  0  0  0  0  0
   37.4260   28.8710   43.6420 O   0  0  0  0  0  0  0  0  0  0  0  0
   36.6240   28.0970   44.3410 C   0  0  0  0  0  0  0  0  0  0  0  0
   36.3370   28.4830   45.6640 N   0  0  0  0  0  0  0  0  0  0  0  0
   36.1560   27.0750   43.8000 O   0  0  0  0  0  0  0  0  0  0  0  0
   36.6417   28.0868   41.5726 H   0  0  0  0  0  0  0  0  0  0  0  0
   38.9878   31.1163   37.8012 H   0  0  0  0  0  0  0  0  0  0  0  0
   39.0570   28.9260   39.0238 H   0  0  0  0  0  0  0  0  0  0  0  0
   36.2091   32.6431   40.5805 H   0  0  0  0  0  0  0  0  0  0  0  0
   39.2488   27.5215   40.1780 H   0  0  0  0  0  0  0  0  0  0  0  0
   37.5625   27.0931   39.6421 H   0  0  0  0  0  0  0  0  0  0  0  0
   38.5472   26.2544   42.2736 H   0  0  0  0  0  0  0  0  0  0  0  0
   40.2952   25.1662   41.1565 H   0  0  0  0  0  0  0  0  0  0  0  0
   39.4945   25.2141   39.5880 H   0  0  0  0  0  0  0  0  0  0  0  0
   38.6469   23.0818   39.9957 H   0  0  0  0  0  0  0  0  0  0  0  0
   39.4183   23.0576   41.5878 H   0  0  0  0  0  0  0  0  0  0  0  0
   36.6670   23.1147   41.2462 H   0  0  0  0  0  0  0  0  0  0  0  0
   37.4104   23.7980   42.6744 H   0  0  0  0  0  0  0  0  0  0  0  0
   36.1936   25.7609   41.5917 H   0  0  0  0  0  0  0  0  0  0  0  0
   37.1406   25.7361   38.9808 H   0  0  0  0  0  0  0  0  0  0  0  0
   38.7123   27.5074   42.9575 H   0  0  0  0  0  0  0  0  0  0  0  0
   40.7851   27.2849   42.6595 H   0  0  0  0  0  0  0  0  0  0  0  0
   42.9982   28.3047   42.7625 H   0  0  0  0  0  0  0  0  0  0  0  0
   43.1557   30.8081   42.8618 H   0  0  0  0  0  0  0  0  0  0  0  0
   41.0834   32.1475   42.8571 H   0  0  0  0  0  0  0  0  0  0  0  0
   38.8773   31.0668   42.7554 H   0  0  0  0  0  0  0  0  0  0  0  0
   35.7136   27.9049   46.2454 H   0  0  0  0  0  0  0  0  0  0  0  0
   36.7504   29.3435   46.0506 H   0  0  0  0  0  0  0  0  0  0  0  0
  1 16  1  0
  2  7  2  0
  2  3  1  0
  3  4  2  0
  4  5  1  0
  4  1  1  0
  6  5  2  0
  7  6  1  0
  8  9  1  0
  8  1  1  0
 10 11  1  0
 10  9  1  0
 11 12  1  0
 13  9  1  0
 13 12  1  0
 14 13  1  0
 15 14  2  0
 16 17  1  0
 16 23  1  0
 17 18  2  0
 17 22  1  0
 18 19  1  0
 19 20  2  0
 21 20  1  0
 22 21  2  0
 23 24  1  0
 24 25  1  0
 26 24  2  0
  1 27  1  1
  2 28  1  0
  3 29  1  0
  6 30  1  0
  8 31  1  0
  8 32  1  0
  9 33  1  1
 10 34  1  0
 10 35  1  0
 11 36  1  0
 11 37  1  0
 12 38  1  0
 12 39  1  0
 13 40  1  1
 14 41  1  0
 16 42  1  1
 18 43  1  0
 19 44  1  0
 20 45  1  0
 21 46  1  0
 22 47  1  0
 25 48  1  0
 25 49  1  0
M  ISO  8  27   8  28  14  29  14  30  14  31   8  32   8  33  13  34  13
M  ISO  8  35  13  36  13  37  13  38  13  39  13  40  13  41   6  42   8
M  ISO  5  43  14  44  14  45  14  46  14  47  14
M  END
>  <minimizedAffinity>  (1) 
-5.25507212

>  <minimizedRMSD>  (1) 
0.572858036

$$$$
