
     RDKit          3D

 44 46  0  0  1  0  0  0  0  0999 V2000
   37.6880   28.3750   41.2870 C   0  0  1  0  0  0  0  0  0  0  0  0
   38.3290   30.9850   38.6520 C   0  0  0  0  0  0  0  0  0  0  0  0
   38.3850   29.7540   39.3350 C   0  0  0  0  0  0  0  0  0  0  0  0
   37.6290   29.6260   40.4960 C   0  0  0  0  0  0  0  0  0  0  0  0
   36.8860   30.7010   40.8910 N   0  0  0  0  0  0  0  0  0  0  0  0
   36.8590   31.8520   40.2170 C   0  0  0  0  0  0  0  0  0  0  0  0
   37.5840   31.9920   39.0940 N   0  0  0  0  0  0  0  0  0  0  0  0
   38.3650   27.3040   40.5070 C   0  0  0  0  0  0  0  0  0  0  0  0
   38.2590   25.9930   41.1570 C   0  0  2  0  0  0  0  0  0  0  0  0
   39.3070   25.0450   40.6350 C   0  0  0  0  0  0  0  0  0  0  0  0
   38.6660   23.6710   40.7650 C   0  0  0  0  0  0  0  0  0  0  0  0
   37.2540   23.9100   41.2830 C   0  0  0  0  0  0  0  0  0  0  0  0
   36.9750   25.3160   40.8490 C   0  0  2  0  0  0  0  0  0  0  0  0
   36.6010   25.3080   39.4100 C   0  0  0  0  0  0  0  0  0  0  0  0
   35.7150   24.8720   38.6710 O   0  0  0  0  0  0  0  0  0  0  0  0
   38.3570   28.5540   42.6450 C   0  0  1  0  0  0  0  0  0  0  0  0
   39.5920   29.1430   42.6410 C   0  0  0  0  0  0  0  0  0  0  0  0
   40.8070   28.5710   42.5610 N   0  0  0  0  0  0  0  0  0  0  0  0
   41.7440   29.4730   42.5870 O   0  0  0  0  0  0  0  0  0  0  0  0
   41.1860   30.6560   42.6830 C   0  0  0  0  0  0  0  0  0  0  0  0
   39.8510   30.4580   42.7160 N   0  0  0  0  0  0  0  0  0  0  0  0
   37.4210   28.8880   43.6280 O   0  0  0  0  0  0  0  0  0  0  0  0
   36.6410   28.0670   44.3120 C   0  0  0  0  0  0  0  0  0  0  0  0
   36.3130   28.4330   45.6310 N   0  0  0  0  0  0  0  0  0  0  0  0
   36.2290   27.0230   43.7670 O   0  0  0  0  0  0  0  0  0  0  0  0
   36.6480   28.0801   41.4908 H   0  0  0  0  0  0  0  0  0  0  0  0
   38.9161   31.1153   37.7309 H   0  0  0  0  0  0  0  0  0  0  0  0
   39.0041   28.9240   38.9637 H   0  0  0  0  0  0  0  0  0  0  0  0
   36.2427   32.6874   40.5808 H   0  0  0  0  0  0  0  0  0  0  0  0
   39.4291   27.5618   40.4011 H   0  0  0  0  0  0  0  0  0  0  0  0
   37.8699   27.2358   39.5271 H   0  0  0  0  0  0  0  0  0  0  0  0
   38.3640   26.2000   42.2322 H   0  0  0  0  0  0  0  0  0  0  0  0
   40.2241   25.1063   41.2392 H   0  0  0  0  0  0  0  0  0  0  0  0
   39.6052   25.2745   39.6014 H   0  0  0  0  0  0  0  0  0  0  0  0
   38.6337   23.1708   39.7858 H   0  0  0  0  0  0  0  0  0  0  0  0
   39.2389   23.0234   41.4450 H   0  0  0  0  0  0  0  0  0  0  0  0
   36.5409   23.2062   40.8289 H   0  0  0  0  0  0  0  0  0  0  0  0
   37.1575   23.7621   42.3687 H   0  0  0  0  0  0  0  0  0  0  0  0
   36.1357   25.8279   41.3426 H   0  0  0  0  0  0  0  0  0  0  0  0
   37.3460   25.8636   38.8216 H   0  0  0  0  0  0  0  0  0  0  0  0
   38.7227   27.5734   42.9835 H   0  0  0  0  0  0  0  0  0  0  0  0
   41.7062   31.6242   42.7280 H   0  0  0  0  0  0  0  0  0  0  0  0
   35.7084   27.8230   46.1995 H   0  0  0  0  0  0  0  0  0  0  0  0
   36.6776   29.3108   46.0277 H   0  0  0  0  0  0  0  0  0  0  0  0
  1 16  1  0
  2  7  2  0
  2  3  1  0
  3  4  2  0
  4  5  1  0
  4  1  1  0
  6  5  2  0
  7  6  1  0
  8  9  1  0
  8  1  1  0
 10 11  1  0
 10  9  1  0
 11 12  1  0
 13  9  1  0
 13 12  1  0
 14 13  1  0
 15 14  2  0
 16 22  1  0
 17 16  1  0
 17 21  1  0
 18 19  1  0
 18 17  2  0
 19 20  1  0
 20 21  2  0
 22 23  1  0
 23 24  1  0
 25 23  2  0
  1 26  1  1
  2 27  1  0
  3 28  1  0
  6 29  1  0
  8 30  1  0
  8 31  1  0
  9 32  1  1
 10 33  1  0
 10 34  1  0
 11 35  1  0
 11 36  1  0
 12 37  1  0
 12 38  1  0
 13 39  1  1
 14 40  1  0
 16 41  1  1
 20 42  1  0
 24 43  1  0
 24 44  1  0
M  ISO  8  26   8  27  14  28  14  29  14  30   8  31   8  32  13  33  13
M  ISO  8  34  13  35  13  36  13  37  13  38  13  39  13  40   6  41   8
M  ISO  1  42  14
M  END
>  <minimizedAffinity>  (1) 
-4.77957773

>  <minimizedRMSD>  (1) 
0.581856549

$$$$
