
     RDKit          3D

 31 34  0  0  0  0  0  0  0  0999 V2000
   41.4370   26.0140   43.9130 C   0  0  0  0  0  0  0  0  0  0  0  0
   42.6880   25.6060   43.6250 N   0  0  0  0  0  0  0  0  0  0  0  0
   43.5050   26.1870   44.4660 O   0  0  0  0  0  0  0  0  0  0  0  0
   42.8640   26.9540   45.2900 C   0  0  0  0  0  0  0  0  0  0  0  0
   41.5600   26.8490   44.9460 N   0  0  0  0  0  0  0  0  0  0  0  0
   43.2030   27.8280   46.4070 C   0  0  0  0  0  0  0  0  0  0  0  0
   43.0710   27.4590   47.7500 C   0  0  0  0  0  0  0  0  0  0  0  0
   43.3850   28.2690   48.8070 C   0  0  0  0  0  0  0  0  0  0  0  0
   43.8620   29.5300   48.5800 C   0  0  0  0  0  0  0  0  0  0  0  0
   44.0180   29.9600   47.2810 C   0  0  0  0  0  0  0  0  0  0  0  0
   44.5010   31.2370   47.1040 C   0  0  0  0  0  0  0  0  0  0  0  0
   44.6820   31.7330   45.8330 C   0  0  0  0  0  0  0  0  0  0  0  0
   44.3590   30.8990   44.7640 C   0  0  0  0  0  0  0  0  0  0  0  0
   43.8790   29.6310   45.0140 C   0  0  0  0  0  0  0  0  0  0  0  0
   43.6890   29.1090   46.2590 C   0  0  0  0  0  0  0  0  0  0  0  0
   39.7720   24.3760   42.8690 C   0  0  0  0  0  0  0  0  0  0  0  0
   40.1550   25.6700   43.2840 C   0  0  0  0  0  0  0  0  0  0  0  0
   39.2760   26.7510   43.0980 C   0  0  0  0  0  0  0  0  0  0  0  0
   38.0650   26.4980   42.5140 N   0  0  0  0  0  0  0  0  0  0  0  0
   37.7390   25.2260   42.1310 C   0  0  0  0  0  0  0  0  0  0  0  0
   38.5780   24.1860   42.3060 N   0  0  0  0  0  0  0  0  0  0  0  0
   42.6896   26.4511   47.9707 H   0  0  0  0  0  0  0  0  0  0  0  0
   43.2539   27.9064   49.8372 H   0  0  0  0  0  0  0  0  0  0  0  0
   44.1172   30.1907   49.4216 H   0  0  0  0  0  0  0  0  0  0  0  0
   44.7421   31.8604   47.9777 H   0  0  0  0  0  0  0  0  0  0  0  0
   45.0673   32.7499   45.6670 H   0  0  0  0  0  0  0  0  0  0  0  0
   44.4860   31.2497   43.7292 H   0  0  0  0  0  0  0  0  0  0  0  0
   43.6324   28.9970   44.1496 H   0  0  0  0  0  0  0  0  0  0  0  0
   40.4567   23.5266   43.0097 H   0  0  0  0  0  0  0  0  0  0  0  0
   39.5531   27.7682   43.4121 H   0  0  0  0  0  0  0  0  0  0  0  0
   36.7592   25.0459   41.6645 H   0  0  0  0  0  0  0  0  0  0  0  0
  1  5  1  0
  2  1  2  0
  2  3  1  0
  3  4  1  0
  4  6  1  0
  5  4  2  0
  6  7  2  0
  7  8  1  0
  9  8  2  0
 10  9  1  0
 11 10  2  0
 12 11  1  0
 13 14  1  0
 13 12  2  0
 14 15  2  0
 15  6  1  0
 15 10  1  0
 16 17  2  0
 17  1  1  0
 18 17  1  0
 19 18  2  0
 20 21  2  0
 20 19  1  0
 21 16  1  0
  7 22  1  0
  8 23  1  0
  9 24  1  0
 11 25  1  0
 12 26  1  0
 13 27  1  0
 14 28  1  0
 16 29  1  0
 18 30  1  0
 20 31  1  0
M  ISO  8  22  14  23  14  24  14  25  14  26  14  27  14  28  14  29  14
M  ISO  2  30  14  31  14
M  END
>  <minimizedAffinity>  (1) 
-6.34503794

>  <minimizedRMSD>  (1) 
4.41505289

$$$$
