
     RDKit          3D

 29 32  0  0  0  0  0  0  0  0999 V2000
   38.5130   28.0550   42.8290 C   0  0  0  0  0  0  0  0  0  0  0  0
   38.1730   27.3510   43.9520 N   0  0  0  0  0  0  0  0  0  0  0  0
   39.2390   26.6830   44.3240 O   0  0  0  0  0  0  0  0  0  0  0  0
   40.2460   26.9070   43.5190 C   0  0  0  0  0  0  0  0  0  0  0  0
   39.8040   27.7690   42.5710 N   0  0  0  0  0  0  0  0  0  0  0  0
   41.5730   26.3340   43.6310 C   0  0  0  0  0  0  0  0  0  0  0  0
   41.9430   25.1170   43.0980 C   0  0  0  0  0  0  0  0  0  0  0  0
   43.2550   24.9040   43.3960 N   0  0  0  0  0  0  0  0  0  0  0  0
   43.6970   25.9750   44.1060 C   0  0  0  0  0  0  0  0  0  0  0  0
   44.9490   26.2230   44.6310 C   0  0  0  0  0  0  0  0  0  0  0  0
   45.1850   27.3950   45.3300 C   0  0  0  0  0  0  0  0  0  0  0  0
   44.1380   28.2900   45.4780 C   0  0  0  0  0  0  0  0  0  0  0  0
   42.8720   28.0670   44.9610 C   0  0  0  0  0  0  0  0  0  0  0  0
   42.6640   26.8940   44.2710 C   0  0  0  0  0  0  0  0  0  0  0  0
   38.0200   30.2750   41.6810 C   0  0  0  0  0  0  0  0  0  0  0  0
   37.6670   28.9530   42.0350 C   0  0  0  0  0  0  0  0  0  0  0  0
   36.4350   28.4340   41.6180 C   0  0  0  0  0  0  0  0  0  0  0  0
   35.6190   29.2500   40.8730 N   0  0  0  0  0  0  0  0  0  0  0  0
   35.9930   30.5070   40.5560 C   0  0  0  0  0  0  0  0  0  0  0  0
   37.1770   31.0110   40.9560 N   0  0  0  0  0  0  0  0  0  0  0  0
   41.2915   24.4362   42.5305 H   0  0  0  0  0  0  0  0  0  0  0  0
   43.8120   24.0792   43.1308 H   0  0  0  0  0  0  0  0  0  0  0  0
   45.7584   25.4907   44.4944 H   0  0  0  0  0  0  0  0  0  0  0  0
   46.1763   27.6093   45.7559 H   0  0  0  0  0  0  0  0  0  0  0  0
   44.3205   29.2223   46.0325 H   0  0  0  0  0  0  0  0  0  0  0  0
   42.0631   28.8000   45.0968 H   0  0  0  0  0  0  0  0  0  0  0  0
   38.9849   30.6945   42.0018 H   0  0  0  0  0  0  0  0  0  0  0  0
   36.1315   27.4091   41.8779 H   0  0  0  0  0  0  0  0  0  0  0  0
   35.3162   31.1345   39.9576 H   0  0  0  0  0  0  0  0  0  0  0  0
  1  2  2  0
  2  3  1  0
  4  6  1  0
  4  3  1  0
  5  1  1  0
  5  4  2  0
  6 14  1  0
  7  8  1  0
  7  6  2  0
  8  9  1  0
  9 14  2  0
  9 10  1  0
 10 11  2  0
 11 12  1  0
 13 12  2  0
 14 13  1  0
 15 16  2  0
 16  1  1  0
 17 16  1  0
 18 17  2  0
 19 18  1  0
 19 20  2  0
 20 15  1  0
  7 21  1  0
  8 22  1  0
 10 23  1  0
 11 24  1  0
 12 25  1  0
 13 26  1  0
 15 27  1  0
 17 28  1  0
 19 29  1  0
M  ISO  8  21  14  22   9  23  14  24  14  25  14  26  14  27  14  28  14
M  ISO  1  29  14
M  END
>  <minimizedAffinity>  (1) 
-5.37954044

>  <minimizedRMSD>  (1) 
1.3988049

$$$$
