
     RDKit          3D

 28 30  0  0  0  0  0  0  0  0999 V2000
   38.7950   28.7940   42.5150 C   0  0  0  0  0  0  0  0  0  0  0  0
   38.1640   27.9060   43.3250 N   0  0  0  0  0  0  0  0  0  0  0  0
   39.0550   27.0310   43.7270 O   0  0  0  0  0  0  0  0  0  0  0  0
   40.2260   27.3020   43.2240 C   0  0  0  0  0  0  0  0  0  0  0  0
   40.0990   28.4220   42.4450 N   0  0  0  0  0  0  0  0  0  0  0  0
   41.5080   26.7080   43.3190 N   0  0  0  0  0  0  0  0  0  0  0  0
   42.5570   27.5810   43.3870 C   0  0  0  0  0  0  0  0  0  0  0  0
   43.8360   27.0210   43.4820 C   0  0  0  0  0  0  0  0  0  0  0  0
   45.0260   27.9140   43.5590 C   0  0  0  0  0  0  0  0  0  0  0  0
   43.9330   25.6490   43.4990 C   0  0  0  0  0  0  0  0  0  0  0  0
   45.0890   25.1470   43.5840 O   0  0  0  0  0  0  0  0  0  0  0  0
   42.8750   24.8110   43.4300 N   0  0  0  0  0  0  0  0  0  0  0  0
   41.6450   25.3680   43.3380 C   0  0  0  0  0  0  0  0  0  0  0  0
   40.5910   24.6830   43.2700 O   0  0  0  0  0  0  0  0  0  0  0  0
   38.9560   31.0620   41.3720 C   0  0  0  0  0  0  0  0  0  0  0  0
   38.2470   29.9490   41.8200 C   0  0  0  0  0  0  0  0  0  0  0  0
   36.8630   29.9350   41.5800 C   0  0  0  0  0  0  0  0  0  0  0  0
   36.3000   31.0010   40.9290 N   0  0  0  0  0  0  0  0  0  0  0  0
   37.0330   32.0530   40.5150 C   0  0  0  0  0  0  0  0  0  0  0  0
   38.3800   32.0830   40.7410 N   0  0  0  0  0  0  0  0  0  0  0  0
   42.4037   28.6701   43.3680 H   0  0  0  0  0  0  0  0  0  0  0  0
   45.2760   28.1016   44.6137 H   0  0  0  0  0  0  0  0  0  0  0  0
   45.8794   27.4315   43.0601 H   0  0  0  0  0  0  0  0  0  0  0  0
   44.8012   28.8682   43.0601 H   0  0  0  0  0  0  0  0  0  0  0  0
   42.9998   23.7887   43.4468 H   0  0  0  0  0  0  0  0  0  0  0  0
   40.0412   31.0986   41.5478 H   0  0  0  0  0  0  0  0  0  0  0  0
   36.2445   29.0864   41.9077 H   0  0  0  0  0  0  0  0  0  0  0  0
   36.5455   32.8900   39.9936 H   0  0  0  0  0  0  0  0  0  0  0  0
  1  2  2  0
  2  3  1  0
  4  6  1  0
  4  3  1  0
  5  1  1  0
  5  4  2  0
  6 13  1  0
  6  7  1  0
  7  8  2  0
  8 10  1  0
  8  9  1  0
 10 11  2  0
 12 10  1  0
 13 12  1  0
 14 13  2  0
 15 16  2  0
 16  1  1  0
 17 16  1  0
 18 17  2  0
 19 20  2  0
 19 18  1  0
 20 15  1  0
  7 21  1  0
  9 22  1  0
  9 23  1  0
  9 24  1  0
 12 25  1  0
 15 26  1  0
 17 27  1  0
 19 28  1  0
M  ISO  8  21  14  22   8  23   8  24   8  25   9  26  14  27  14  28  14
M  END
>  <minimizedAffinity>  (1) 
-5.37510824

>  <minimizedRMSD>  (1) 
2.47077703

$$$$
