
     RDKit          3D

 29 32  0  0  0  0  0  0  0  0999 V2000
   41.3320   32.5350   39.9030 C   0  0  0  0  0  0  0  0  0  0  0  0
   40.5180   33.3820   40.5600 N   0  0  0  0  0  0  0  0  0  0  0  0
   39.5950   32.6760   41.1600 O   0  0  0  0  0  0  0  0  0  0  0  0
   39.7490   31.3930   40.9370 C   0  0  0  0  0  0  0  0  0  0  0  0
   40.8290   31.3260   40.1590 N   0  0  0  0  0  0  0  0  0  0  0  0
   38.8120   30.4790   41.5300 C   0  0  0  0  0  0  0  0  0  0  0  0
   38.9630   29.9330   42.7450 N   0  0  0  0  0  0  0  0  0  0  0  0
   38.1050   29.0890   43.2970 C   0  0  0  0  0  0  0  0  0  0  0  0
   36.9720   28.6840   42.6950 N   0  0  0  0  0  0  0  0  0  0  0  0
   36.7300   29.1890   41.4500 C   0  0  0  0  0  0  0  0  0  0  0  0
   35.5810   28.8000   40.7970 C   0  0  0  0  0  0  0  0  0  0  0  0
   35.2890   29.2800   39.5390 C   0  0  0  0  0  0  0  0  0  0  0  0
   36.1850   30.1600   38.9640 C   0  0  0  0  0  0  0  0  0  0  0  0
   37.3170   30.5120   39.6640 C   0  0  0  0  0  0  0  0  0  0  0  0
   37.6540   30.0610   40.9210 C   0  0  0  0  0  0  0  0  0  0  0  0
   42.8430   32.0880   37.9180 C   0  0  0  0  0  0  0  0  0  0  0  0
   42.5020   32.8000   39.0850 C   0  0  0  0  0  0  0  0  0  0  0  0
   43.3310   33.8510   39.5220 C   0  0  0  0  0  0  0  0  0  0  0  0
   44.4480   34.1300   38.7720 N   0  0  0  0  0  0  0  0  0  0  0  0
   44.7530   33.4260   37.6480 C   0  0  0  0  0  0  0  0  0  0  0  0
   43.9430   32.4080   37.2320 N   0  0  0  0  0  0  0  0  0  0  0  0
   38.3304   28.6985   44.3004 H   0  0  0  0  0  0  0  0  0  0  0  0
   34.8889   28.0983   41.2855 H   0  0  0  0  0  0  0  0  0  0  0  0
   34.3742   28.9731   39.0109 H   0  0  0  0  0  0  0  0  0  0  0  0
   35.9970   30.5733   37.9621 H   0  0  0  0  0  0  0  0  0  0  0  0
   38.0114   31.2131   39.1780 H   0  0  0  0  0  0  0  0  0  0  0  0
   42.2006   31.2654   37.5707 H   0  0  0  0  0  0  0  0  0  0  0  0
   43.0935   34.4265   40.4289 H   0  0  0  0  0  0  0  0  0  0  0  0
   45.6557   33.6779   37.0721 H   0  0  0  0  0  0  0  0  0  0  0  0
  1  5  1  0
  1  2  2  0
  2  3  1  0
  4  3  1  0
  4  6  1  0
  5  4  2  0
  6  7  2  0
  7  8  1  0
  9  8  2  0
 10  9  1  0
 11 10  2  0
 12 11  1  0
 13 12  2  0
 13 14  1  0
 14 15  2  0
 15 10  1  0
 15  6  1  0
 16 17  2  0
 17 18  1  0
 17  1  1  0
 19 18  2  0
 20 19  1  0
 21 20  2  0
 21 16  1  0
  8 22  1  0
 11 23  1  0
 12 24  1  0
 13 25  1  0
 14 26  1  0
 16 27  1  0
 18 28  1  0
 20 29  1  0
M  ISO  8  22  14  23  14  24  14  25  14  26  14  27  14  28  14  29  14
M  END
>  <minimizedAffinity>  (1) 
-5.0976305

>  <minimizedRMSD>  (1) 
8.03568745

$$$$
