
     RDKit          3D

 28 30  0  0  0  0  0  0  0  0999 V2000
   37.1800   30.2990   41.2420 C   0  0  0  0  0  0  0  0  0  0  0  0
   36.0080   29.7290   40.9010 N   0  0  0  0  0  0  0  0  0  0  0  0
   35.9300   28.5630   41.4940 O   0  0  0  0  0  0  0  0  0  0  0  0
   37.0070   28.3410   42.2140 C   0  0  0  0  0  0  0  0  0  0  0  0
   37.8080   29.4250   42.0680 N   0  0  0  0  0  0  0  0  0  0  0  0
   39.0040   32.0910   41.2420 C   0  0  0  0  0  0  0  0  0  0  0  0
   37.7470   31.5950   40.8500 C   0  0  0  0  0  0  0  0  0  0  0  0
   36.9290   32.3700   40.0130 C   0  0  0  0  0  0  0  0  0  0  0  0
   37.3970   33.5910   39.6100 N   0  0  0  0  0  0  0  0  0  0  0  0
   38.6240   34.0350   40.0140 C   0  0  0  0  0  0  0  0  0  0  0  0
   39.4060   33.2820   40.8190 N   0  0  0  0  0  0  0  0  0  0  0  0
   37.4050   27.1910   43.0630 C   0  0  0  0  0  0  0  0  0  0  0  0
   37.3820   25.9200   42.2650 C   0  0  0  0  0  0  0  0  0  0  0  0
   38.8270   25.5020   42.1800 C   0  0  0  0  0  0  0  0  0  0  0  0
   39.3700   25.9790   43.5130 C   0  0  0  0  0  0  0  0  0  0  0  0
   38.8290   27.3990   43.5330 C   0  0  0  0  0  0  0  0  0  0  0  0
   39.6523   31.4919   41.8983 H   0  0  0  0  0  0  0  0  0  0  0  0
   35.9419   32.0069   39.6909 H   0  0  0  0  0  0  0  0  0  0  0  0
   38.9809   35.0201   39.6791 H   0  0  0  0  0  0  0  0  0  0  0  0
   36.7048   27.1211   43.9085 H   0  0  0  0  0  0  0  0  0  0  0  0
   36.7841   25.1509   42.7759 H   0  0  0  0  0  0  0  0  0  0  0  0
   36.9271   26.0571   41.2729 H   0  0  0  0  0  0  0  0  0  0  0  0
   38.9224   24.4110   42.0765 H   0  0  0  0  0  0  0  0  0  0  0  0
   39.3586   25.9153   41.3102 H   0  0  0  0  0  0  0  0  0  0  0  0
   38.9778   25.3820   44.3495 H   0  0  0  0  0  0  0  0  0  0  0  0
   40.4619   25.9003   43.6205 H   0  0  0  0  0  0  0  0  0  0  0  0
   39.3873   28.0506   42.8448 H   0  0  0  0  0  0  0  0  0  0  0  0
   38.9085   27.8936   44.5123 H   0  0  0  0  0  0  0  0  0  0  0  0
  1  5  1  0
  2  1  2  0
  2  3  1  0
  3  4  1  0
  4 12  1  0
  5  4  2  0
  7  6  2  0
  7  1  1  0
  8  7  1  0
  9  8  2  0
  9 10  1  0
 10 11  2  0
 11  6  1  0
 12 16  1  0
 13 12  1  0
 14 13  1  0
 14 15  1  0
 15 16  1  0
  6 17  1  0
  8 18  1  0
 10 19  1  0
 12 20  1  0
 13 21  1  0
 13 22  1  0
 14 23  1  0
 14 24  1  0
 15 25  1  0
 15 26  1  0
 16 27  1  0
 16 28  1  0
M  ISO  8  17  14  18  14  19  14  20  13  21  13  22  13  23  13  24  13
M  ISO  4  25  13  26  13  27  13  28  13
M  END
>  <minimizedAffinity>  (1) 
-4.94642591

>  <minimizedRMSD>  (1) 
4.33730125

$$$$
