
     RDKit          3D

 22 24  0  0  0  0  0  0  0  0999 V2000
   38.7830   31.9740   40.8330 C   0  0  0  0  0  0  0  0  0  0  0  0
   37.4830   32.0570   40.4510 N   0  0  0  0  0  0  0  0  0  0  0  0
   36.8440   31.0500   41.0060 O   0  0  0  0  0  0  0  0  0  0  0  0
   37.6520   30.3230   41.7210 C   0  0  0  0  0  0  0  0  0  0  0  0
   38.8810   30.8920   41.6230 N   0  0  0  0  0  0  0  0  0  0  0  0
   37.3350   29.1500   42.4710 N   0  0  0  0  0  0  0  0  0  0  0  0
   37.7540   28.9050   43.7160 N   0  0  0  0  0  0  0  0  0  0  0  0
   37.2700   27.7130   44.1210 C   0  0  0  0  0  0  0  0  0  0  0  0
   36.5150   27.1940   43.0790 C   0  0  0  0  0  0  0  0  0  0  0  0
   36.5760   28.1210   42.0610 C   0  0  0  0  0  0  0  0  0  0  0  0
   41.2370   32.5530   40.6310 C   0  0  0  0  0  0  0  0  0  0  0  0
   39.8810   32.8720   40.4690 C   0  0  0  0  0  0  0  0  0  0  0  0
   39.5430   34.1080   39.9350 C   0  0  0  0  0  0  0  0  0  0  0  0
   40.5620   34.9530   39.5920 N   0  0  0  0  0  0  0  0  0  0  0  0
   41.8560   34.6220   39.7580 C   0  0  0  0  0  0  0  0  0  0  0  0
   42.1860   33.4240   40.2770 N   0  0  0  0  0  0  0  0  0  0  0  0
   37.4423   27.2390   45.0986 H   0  0  0  0  0  0  0  0  0  0  0  0
   35.9760   26.2352   43.0677 H   0  0  0  0  0  0  0  0  0  0  0  0
   36.0864   28.0329   41.0799 H   0  0  0  0  0  0  0  0  0  0  0  0
   41.5214   31.5778   41.0529 H   0  0  0  0  0  0  0  0  0  0  0  0
   38.4914   34.3978   39.7926 H   0  0  0  0  0  0  0  0  0  0  0  0
   42.6455   35.3314   39.4692 H   0  0  0  0  0  0  0  0  0  0  0  0
  1  5  1  0
  2  1  2  0
  2  3  1  0
  3  4  1  0
  4  6  1  0
  5  4  2  0
  6  7  1  0
  7  8  2  0
  9  8  1  0
 10  6  1  0
 10  9  2  0
 12 11  2  0
 12  1  1  0
 13 12  1  0
 14 15  1  0
 14 13  2  0
 15 16  2  0
 16 11  1  0
  8 17  1  0
  9 18  1  0
 10 19  1  0
 11 20  1  0
 13 21  1  0
 15 22  1  0
M  ISO  6  17  14  18  14  19  14  20  14  21  14  22  14
M  END
>  <minimizedAffinity>  (1) 
-4.84498072

>  <minimizedRMSD>  (1) 
6.03509521

$$$$
