
     RDKit          3D

 45 48  0  0  1  0  0  0  0  0999 V2000
   39.2130   25.7750   42.0290 C   0  0  1  0  0  0  0  0  0  0  0  0
   39.1440   24.3820   41.3330 C   0  0  0  0  0  0  0  0  0  0  0  0
   37.8120   23.8410   41.6020 C   0  0  0  0  0  0  0  0  0  0  0  0
   36.9770   25.0980   41.9540 C   0  0  0  0  0  0  0  0  0  0  0  0
   37.9190   25.8600   42.6940 C   0  0  2  0  0  0  0  0  0  0  0  0
   41.6930   26.8720   44.6100 C   0  0  0  0  0  0  0  0  0  0  0  0
   40.4990   26.7720   43.8970 C   0  0  0  0  0  0  0  0  0  0  0  0
   40.4090   25.9130   42.8010 C   0  0  0  0  0  0  0  0  0  0  0  0
   41.5110   25.1830   42.4550 N   0  0  0  0  0  0  0  0  0  0  0  0
   42.6610   25.2810   43.1470 C   0  0  0  0  0  0  0  0  0  0  0  0
   42.7600   26.1140   44.2130 N   0  0  0  0  0  0  0  0  0  0  0  0
   37.3490   27.2400   42.8170 C   0  0  2  0  0  0  0  0  0  0  0  0
   36.2620   27.4210   43.8090 C   0  0  0  0  0  0  0  0  0  0  0  0
   36.9370   27.5900   41.4790 C   0  0  0  0  0  0  0  0  0  0  0  0
   36.9380   29.0030   41.3120 N   0  0  0  0  0  0  0  0  0  0  0  0
   35.8990   29.7880   40.9360 C   0  0  0  0  0  0  0  0  0  0  0  0
   36.3640   31.0650   40.7400 C   0  0  0  0  0  0  0  0  0  0  0  0
   37.6740   30.9920   41.0140 N   0  0  0  0  0  0  0  0  0  0  0  0
   38.0500   29.7410   41.3690 C   0  0  0  0  0  0  0  0  0  0  0  0
   39.4590   29.8230   41.6380 C   0  0  0  0  0  0  0  0  0  0  0  0
   39.9070   30.7840   42.6780 C   0  0  0  0  0  0  0  0  0  0  0  0
   41.7170   30.5380   42.7070 S   0  0  0  0  0  0  0  0  0  0  0  0
   41.6030   29.1960   41.3330 C   0  0  0  0  0  0  0  0  0  0  0  0
   40.4250   29.0960   41.0510 N   0  0  0  0  0  0  0  0  0  0  0  0
   39.3270   26.6529   41.3760 H   0  0  0  0  0  0  0  0  0  0  0  0
   39.9145   23.7140   41.7454 H   0  0  0  0  0  0  0  0  0  0  0  0
   39.3226   24.4718   40.2513 H   0  0  0  0  0  0  0  0  0  0  0  0
   37.4060   23.3351   40.7136 H   0  0  0  0  0  0  0  0  0  0  0  0
   37.8091   23.0861   42.4021 H   0  0  0  0  0  0  0  0  0  0  0  0
   36.6503   25.6308   41.0488 H   0  0  0  0  0  0  0  0  0  0  0  0
   36.0456   24.8821   42.4980 H   0  0  0  0  0  0  0  0  0  0  0  0
   38.0968   25.4885   43.7140 H   0  0  0  0  0  0  0  0  0  0  0  0
   41.7752   27.5471   45.4746 H   0  0  0  0  0  0  0  0  0  0  0  0
   39.6271   27.3709   44.1988 H   0  0  0  0  0  0  0  0  0  0  0  0
   43.5305   24.6788   42.8448 H   0  0  0  0  0  0  0  0  0  0  0  0
   38.1182   27.9109   43.2271 H   0  0  0  0  0  0  0  0  0  0  0  0
   36.6776   27.3518   44.8251 H   0  0  0  0  0  0  0  0  0  0  0  0
   35.7985   28.4087   43.6689 H   0  0  0  0  0  0  0  0  0  0  0  0
   35.5034   26.6368   43.6689 H   0  0  0  0  0  0  0  0  0  0  0  0
   37.6330   27.1394   40.7562 H   0  0  0  0  0  0  0  0  0  0  0  0
   35.9180   27.2120   41.3097 H   0  0  0  0  0  0  0  0  0  0  0  0
   34.8576   29.4574   40.8091 H   0  0  0  0  0  0  0  0  0  0  0  0
   35.7899   31.9499   40.4280 H   0  0  0  0  0  0  0  0  0  0  0  0
   39.2990   31.4737   43.2818 H   0  0  0  0  0  0  0  0  0  0  0  0
   42.4374   28.6318   40.8909 H   0  0  0  0  0  0  0  0  0  0  0  0
  1  5  1  0
  1  8  1  0
  2  3  1  0
  2  1  1  0
  3  4  1  0
  4  5  1  0
  5 12  1  0
  7  6  2  0
  8  7  1  0
  9  8  2  0
  9 10  1  0
 10 11  2  0
 11  6  1  0
 12 13  1  0
 14 12  1  0
 15 19  1  0
 15 14  1  0
 16 15  1  0
 17 16  2  0
 17 18  1  0
 18 19  2  0
 19 20  1  0
 20 21  2  0
 21 22  1  0
 23 22  1  0
 24 23  2  0
 24 20  1  0
  1 25  1  6
  2 26  1  0
  2 27  1  0
  3 28  1  0
  3 29  1  0
  4 30  1  0
  4 31  1  0
  5 32  1  1
  6 33  1  0
  7 34  1  0
 10 35  1  0
 12 36  1  1
 13 37  1  0
 13 38  1  0
 13 39  1  0
 14 40  1  0
 14 41  1  0
 16 42  1  0
 17 43  1  0
 21 44  1  0
 23 45  1  0
M  ISO  8  25  13  26  13  27  13  28  13  29  13  30  13  31  13  32  13
M  ISO  8  33  14  34  14  35  14  36   8  37   8  38   8  39   8  40   8
M  ISO  5  41   8  42  14  43  14  44  14  45  14
M  END
>  <minimizedAffinity>  (1) 
-5.55195427

>  <minimizedRMSD>  (1) 
0.749615073

$$$$
