
     RDKit          3D

 28 30  0  0  0  0  0  0  0  0999 V2000
   39.1190   27.5240   43.0200 C   0  0  0  0  0  0  0  0  0  0  0  0
   38.9410   26.2320   43.4350 N   0  0  0  0  0  0  0  0  0  0  0  0
   40.0770   25.8420   43.9690 O   0  0  0  0  0  0  0  0  0  0  0  0
   40.9830   26.8030   43.9260 C   0  0  0  0  0  0  0  0  0  0  0  0
   40.3930   27.8690   43.3310 N   0  0  0  0  0  0  0  0  0  0  0  0
   38.3950   29.7680   42.0760 C   0  0  0  0  0  0  0  0  0  0  0  0
   38.1770   28.4210   42.3650 C   0  0  0  0  0  0  0  0  0  0  0  0
   36.9470   27.8570   42.0030 C   0  0  0  0  0  0  0  0  0  0  0  0
   36.0120   28.6450   41.3820 N   0  0  0  0  0  0  0  0  0  0  0  0
   36.2780   29.9570   41.1230 C   0  0  0  0  0  0  0  0  0  0  0  0
   37.4690   30.5110   41.4720 N   0  0  0  0  0  0  0  0  0  0  0  0
   44.9220   26.5470   45.3230 C   0  0  0  0  0  0  0  0  0  0  0  0
   43.9460   27.1840   46.0780 C   0  0  0  0  0  0  0  0  0  0  0  0
   42.6190   27.2920   45.6510 C   0  0  0  0  0  0  0  0  0  0  0  0
   42.3520   26.7220   44.4270 C   0  0  0  0  0  0  0  0  0  0  0  0
   43.3020   26.0840   43.6560 C   0  0  0  0  0  0  0  0  0  0  0  0
   44.5800   25.9970   44.1020 C   0  0  0  0  0  0  0  0  0  0  0  0
   46.5780   26.4370   45.9060 S   0  0  0  0  0  0  0  0  0  0  0  0
   46.5240   25.9840   47.3240 O   0  0  0  0  0  0  0  0  0  0  0  0
   47.3150   25.4370   45.0600 O   0  0  0  0  0  0  0  0  0  0  0  0
   39.3549   30.2279   42.3536 H   0  0  0  0  0  0  0  0  0  0  0  0
   36.7343   26.7985   42.2135 H   0  0  0  0  0  0  0  0  0  0  0  0
   35.5176   30.5760   40.6244 H   0  0  0  0  0  0  0  0  0  0  0  0
   44.2273   27.6198   47.0480 H   0  0  0  0  0  0  0  0  0  0  0  0
   41.8453   27.7955   46.2493 H   0  0  0  0  0  0  0  0  0  0  0  0
   43.0244   25.6483   42.6849 H   0  0  0  0  0  0  0  0  0  0  0  0
   45.3428   25.4897   43.4931 H   0  0  0  0  0  0  0  0  0  0  0  0
   47.2254   27.6419   45.8294 H   0  0  0  0  0  0  0  0  0  0  0  0
  1  5  1  0
  1  2  2  0
  2  3  1  0
  4  3  1  0
  4 15  1  0
  5  4  2  0
  6  7  2  0
  7  1  1  0
  8  7  1  0
  9  8  2  0
 10  9  1  0
 10 11  2  0
 11  6  1  0
 12 18  1  0
 12 13  2  0
 14 13  1  0
 15 14  2  0
 16 17  2  0
 16 15  1  0
 17 12  1  0
 18 19  2  0
 20 18  2  0
  6 21  1  0
  8 22  1  0
 10 23  1  0
 13 24  1  0
 14 25  1  0
 16 26  1  0
 17 27  1  0
 18 28  1  0
M  ISO  8  21  14  22  14  23  14  24  14  25  14  26  14  27  14  28  11
M  END
>  <minimizedAffinity>  (1) 
-4.68113708

>  <minimizedRMSD>  (1) 
1.34630072

$$$$
