
     RDKit          3D

 30 32  0  0  0  0  0  0  0  0999 V2000
   39.3820   31.3400   39.8280 C   0  0  0  0  0  0  0  0  0  0  0  0
   38.8660   30.6150   38.8030 N   0  0  0  0  0  0  0  0  0  0  0  0
   38.1640   29.6270   39.3040 O   0  0  0  0  0  0  0  0  0  0  0  0
   38.1980   29.6750   40.6250 C   0  0  0  0  0  0  0  0  0  0  0  0
   38.9600   30.7470   40.9540 N   0  0  0  0  0  0  0  0  0  0  0  0
   37.5590   28.7760   41.5480 N   0  0  0  0  0  0  0  0  0  0  0  0
   37.4380   29.1810   42.9500 C   0  0  0  0  0  0  0  0  0  0  0  0
   37.3580   28.0330   43.8970 C   0  0  0  0  0  0  0  0  0  0  0  0
   36.5540   26.8710   43.3670 C   0  0  0  0  0  0  0  0  0  0  0  0
   37.0650   26.3990   42.0240 C   0  0  0  0  0  0  0  0  0  0  0  0
   37.0700   27.5150   41.0330 C   0  0  0  0  0  0  0  0  0  0  0  0
   39.7530   33.8450   39.8170 C   0  0  0  0  0  0  0  0  0  0  0  0
   40.2240   32.5260   39.7740 C   0  0  0  0  0  0  0  0  0  0  0  0
   41.6090   32.3090   39.6720 C   0  0  0  0  0  0  0  0  0  0  0  0
   42.4380   33.4060   39.6190 N   0  0  0  0  0  0  0  0  0  0  0  0
   41.9450   34.6610   39.6630 C   0  0  0  0  0  0  0  0  0  0  0  0
   40.6010   34.8780   39.7620 N   0  0  0  0  0  0  0  0  0  0  0  0
   38.3161   29.7889   43.2136 H   0  0  0  0  0  0  0  0  0  0  0  0
   36.4971   29.7431   43.0437 H   0  0  0  0  0  0  0  0  0  0  0  0
   38.3794   27.6828   44.1069 H   0  0  0  0  0  0  0  0  0  0  0  0
   36.8470   28.3945   44.8016 H   0  0  0  0  0  0  0  0  0  0  0  0
   36.6161   26.0389   44.0838 H   0  0  0  0  0  0  0  0  0  0  0  0
   35.5142   27.2058   43.2382 H   0  0  0  0  0  0  0  0  0  0  0  0
   38.0901   26.0182   42.1425 H   0  0  0  0  0  0  0  0  0  0  0  0
   36.3998   25.6045   41.6547 H   0  0  0  0  0  0  0  0  0  0  0  0
   36.0390   27.6652   40.6802 H   0  0  0  0  0  0  0  0  0  0  0  0
   37.7614   27.2167   40.2311 H   0  0  0  0  0  0  0  0  0  0  0  0
   38.6722   34.0333   39.8970 H   0  0  0  0  0  0  0  0  0  0  0  0
   42.0194   31.2891   39.6355 H   0  0  0  0  0  0  0  0  0  0  0  0
   42.6331   35.5181   39.6186 H   0  0  0  0  0  0  0  0  0  0  0  0
  1  5  1  0
  2  3  1  0
  2  1  2  0
  3  4  1  0
  4  5  2  0
  4  6  1  0
  6  7  1  0
  7  8  1  0
  9  8  1  0
 10  9  1  0
 11  6  1  0
 11 10  1  0
 13 12  2  0
 13  1  1  0
 14 13  1  0
 15 16  1  0
 15 14  2  0
 16 17  2  0
 17 12  1  0
  7 18  1  0
  7 19  1  0
  8 20  1  0
  8 21  1  0
  9 22  1  0
  9 23  1  0
 10 24  1  0
 10 25  1  0
 11 26  1  0
 11 27  1  0
 12 28  1  0
 14 29  1  0
 16 30  1  0
M  ISO  8  18  13  19  13  20  13  21  13  22  13  23  13  24  13  25  13
M  ISO  5  26  13  27  13  28  14  29  14  30  14
M  END
>  <minimizedAffinity>  (1) 
-4.66154385

>  <minimizedRMSD>  (1) 
6.16152573

$$$$
