
     RDKit          3D

 25 27  0  0  0  0  0  0  0  0999 V2000
   38.6730   30.1990   41.4030 C   0  0  0  0  0  0  0  0  0  0  0  0
   37.9880   29.0410   41.3060 N   0  0  0  0  0  0  0  0  0  0  0  0
   38.6420   28.1210   41.9700 O   0  0  0  0  0  0  0  0  0  0  0  0
   39.7340   28.6290   42.4990 C   0  0  0  0  0  0  0  0  0  0  0  0
   39.7750   29.9390   42.1560 N   0  0  0  0  0  0  0  0  0  0  0  0
   40.7690   28.0730   43.2940 N   0  0  0  0  0  0  0  0  0  0  0  0
   41.9440   28.7240   43.2440 C   0  0  0  0  0  0  0  0  0  0  0  0
   43.0230   28.2750   43.9760 C   0  0  0  0  0  0  0  0  0  0  0  0
   42.7820   27.1350   44.7350 C   0  0  0  0  0  0  0  0  0  0  0  0
   43.7340   26.6700   45.4330 O   0  0  0  0  0  0  0  0  0  0  0  0
   41.5890   26.4930   44.7730 N   0  0  0  0  0  0  0  0  0  0  0  0
   40.5710   26.9720   44.0410 C   0  0  0  0  0  0  0  0  0  0  0  0
   39.4500   26.4020   44.0520 O   0  0  0  0  0  0  0  0  0  0  0  0
   39.0450   32.7040   41.1370 C   0  0  0  0  0  0  0  0  0  0  0  0
   38.3700   31.5200   40.8430 C   0  0  0  0  0  0  0  0  0  0  0  0
   37.2990   31.5490   39.9370 C   0  0  0  0  0  0  0  0  0  0  0  0
   36.9730   32.7670   39.3830 N   0  0  0  0  0  0  0  0  0  0  0  0
   37.6590   33.8880   39.7010 C   0  0  0  0  0  0  0  0  0  0  0  0
   38.6890   33.8600   40.5720 N   0  0  0  0  0  0  0  0  0  0  0  0
   42.0455   29.6207   42.6151 H   0  0  0  0  0  0  0  0  0  0  0  0
   44.0000   28.7802   43.9607 H   0  0  0  0  0  0  0  0  0  0  0  0
   41.4656   25.6515   45.3540 H   0  0  0  0  0  0  0  0  0  0  0  0
   39.8853   32.6853   41.8466 H   0  0  0  0  0  0  0  0  0  0  0  0
   36.7423   30.6359   39.6796 H   0  0  0  0  0  0  0  0  0  0  0  0
   37.3709   34.8440   39.2393 H   0  0  0  0  0  0  0  0  0  0  0  0
  1  5  1  0
  2  1  2  0
  2  3  1  0
  3  4  1  0
  4  6  1  0
  5  4  2  0
  6 12  1  0
  7  6  1  0
  7  8  2  0
  8  9  1  0
  9 11  1  0
  9 10  2  0
 12 13  2  0
 12 11  1  0
 15 14  2  0
 15  1  1  0
 16 15  1  0
 17 18  1  0
 17 16  2  0
 18 19  2  0
 19 14  1  0
  7 20  1  0
  8 21  1  0
 11 22  1  0
 14 23  1  0
 16 24  1  0
 18 25  1  0
M  ISO  6  20  14  21  14  22   9  23  14  24  14  25  14
M  END
>  <minimizedAffinity>  (1) 
-5.02309895

>  <minimizedRMSD>  (1) 
2.94528985

$$$$
