
     RDKit          3D

 39 43  0  0  0  0  0  0  0  0999 V2000
   41.1700   30.6920   42.9040 C   0  0  0  0  0  0  0  0  0  0  0  0
   42.3650   30.2730   42.3500 C   0  0  0  0  0  0  0  0  0  0  0  0
   42.7020   30.7480   41.0870 C   0  0  0  0  0  0  0  0  0  0  0  0
   41.8290   31.5980   40.4750 N   0  0  0  0  0  0  0  0  0  0  0  0
   40.6880   31.9860   41.0250 C   0  0  0  0  0  0  0  0  0  0  0  0
   40.3720   31.5270   42.2370 N   0  0  0  0  0  0  0  0  0  0  0  0
   43.3340   29.3680   42.9690 C   0  0  0  0  0  0  0  0  0  0  0  0
   44.3770   28.7060   42.4180 N   0  0  0  0  0  0  0  0  0  0  0  0
   44.9600   28.0150   43.3670 O   0  0  0  0  0  0  0  0  0  0  0  0
   44.3410   28.1990   44.5170 C   0  0  0  0  0  0  0  0  0  0  0  0
   43.3110   29.0490   44.2910 N   0  0  0  0  0  0  0  0  0  0  0  0
   44.5620   27.6960   45.8270 N   0  0  0  0  0  0  0  0  0  0  0  0
   44.0790   28.4560   46.8270 C   0  0  0  0  0  0  0  0  0  0  0  0
   44.2280   28.0760   48.1420 C   0  0  0  0  0  0  0  0  0  0  0  0
   44.9090   26.8650   48.3190 C   0  0  0  0  0  0  0  0  0  0  0  0
   45.0890   26.4440   49.5020 O   0  0  0  0  0  0  0  0  0  0  0  0
   45.3930   26.1060   47.2960 N   0  0  0  0  0  0  0  0  0  0  0  0
   45.2090   26.5410   46.0430 C   0  0  0  0  0  0  0  0  0  0  0  0
   45.6410   25.8680   45.0780 O   0  0  0  0  0  0  0  0  0  0  0  0
   39.6270   32.8820   40.5390 C   0  0  0  0  0  0  0  0  0  0  0  0
   38.4120   32.4910   40.1280 N   0  0  0  0  0  0  0  0  0  0  0  0
   37.4400   33.2860   39.6870 C   0  0  0  0  0  0  0  0  0  0  0  0
   37.6280   34.6060   39.6220 N   0  0  0  0  0  0  0  0  0  0  0  0
   38.8280   35.1260   40.0140 C   0  0  0  0  0  0  0  0  0  0  0  0
   38.9830   36.4920   39.9320 C   0  0  0  0  0  0  0  0  0  0  0  0
   40.1770   37.0610   40.3160 C   0  0  0  0  0  0  0  0  0  0  0  0
   41.1830   36.2140   40.7770 C   0  0  0  0  0  0  0  0  0  0  0  0
   40.9380   34.8690   40.8220 C   0  0  0  0  0  0  0  0  0  0  0  0
   39.7790   34.2420   40.4560 C   0  0  0  0  0  0  0  0  0  0  0  0
   40.8752   30.3344   43.9016 H   0  0  0  0  0  0  0  0  0  0  0  0
   43.6408   30.4482   40.5985 H   0  0  0  0  0  0  0  0  0  0  0  0
   43.5573   29.3950   46.5903 H   0  0  0  0  0  0  0  0  0  0  0  0
   43.8446   28.6731   48.9825 H   0  0  0  0  0  0  0  0  0  0  0  0
   45.8871   25.2215   47.4816 H   0  0  0  0  0  0  0  0  0  0  0  0
   36.4779   32.8536   39.3748 H   0  0  0  0  0  0  0  0  0  0  0  0
   38.1607   37.1228   39.5632 H   0  0  0  0  0  0  0  0  0  0  0  0
   40.3315   38.1487   40.2606 H   0  0  0  0  0  0  0  0  0  0  0  0
   42.1541   36.6187   41.0981 H   0  0  0  0  0  0  0  0  0  0  0  0
   41.7536   34.2285   41.1887 H   0  0  0  0  0  0  0  0  0  0  0  0
  2  1  2  0
  2  7  1  0
  3  2  1  0
  4  5  1  0
  4  3  2  0
  5  6  2  0
  6  1  1  0
  7 11  1  0
  8  7  2  0
  8  9  1  0
  9 10  1  0
 10 12  1  0
 11 10  2  0
 12 18  1  0
 12 13  1  0
 13 14  2  0
 14 15  1  0
 15 16  2  0
 17 15  1  0
 18 17  1  0
 19 18  2  0
 20  5  1  0
 21 20  2  0
 22 21  1  0
 23 22  2  0
 23 24  1  0
 24 29  2  0
 25 24  1  0
 25 26  2  0
 26 27  1  0
 27 28  2  0
 29 20  1  0
 29 28  1  0
  1 30  1  0
  3 31  1  0
 13 32  1  0
 14 33  1  0
 17 34  1  0
 22 35  1  0
 25 36  1  0
 26 37  1  0
 27 38  1  0
 28 39  1  0
M  ISO  8  30  14  31  14  32  14  33  14  34   9  35  14  36  14  37  14
M  ISO  2  38  14  39  14
M  END
>  <minimizedAffinity>  (1) 
-6.35743427

>  <minimizedRMSD>  (1) 
4.32903051

$$$$
