
     RDKit          3D

 41 45  0  0  0  0  0  0  0  0999 V2000
   41.9310   30.9050   43.0970 C   0  0  0  0  0  0  0  0  0  0  0  0
   42.5500   29.8230   42.4980 C   0  0  0  0  0  0  0  0  0  0  0  0
   42.1730   29.5000   41.1980 C   0  0  0  0  0  0  0  0  0  0  0  0
   41.2200   30.2680   40.5980 N   0  0  0  0  0  0  0  0  0  0  0  0
   40.6410   31.3000   41.1940 C   0  0  0  0  0  0  0  0  0  0  0  0
   41.0040   31.6070   42.4380 N   0  0  0  0  0  0  0  0  0  0  0  0
   43.5750   28.9760   43.1000 C   0  0  0  0  0  0  0  0  0  0  0  0
   44.3840   28.0580   42.5200 N   0  0  0  0  0  0  0  0  0  0  0  0
   45.1450   27.5470   43.4570 O   0  0  0  0  0  0  0  0  0  0  0  0
   44.8670   28.0900   44.6200 C   0  0  0  0  0  0  0  0  0  0  0  0
   43.8790   28.9960   44.4230 N   0  0  0  0  0  0  0  0  0  0  0  0
   45.3900   27.8960   45.9240 N   0  0  0  0  0  0  0  0  0  0  0  0
   45.2290   28.9430   46.7670 C   0  0  0  0  0  0  0  0  0  0  0  0
   45.7000   28.8670   48.0680 C   0  0  0  0  0  0  0  0  0  0  0  0
   46.3210   27.6680   48.4010 C   0  0  0  0  0  0  0  0  0  0  0  0
   46.7680   27.5470   49.5740 O   0  0  0  0  0  0  0  0  0  0  0  0
   46.4710   26.6340   47.5390 N   0  0  0  0  0  0  0  0  0  0  0  0
   45.9980   26.7560   46.2900 C   0  0  0  0  0  0  0  0  0  0  0  0
   46.1190   25.8230   45.4710 O   0  0  0  0  0  0  0  0  0  0  0  0
   39.6160   32.2180   40.7050 C   0  0  0  0  0  0  0  0  0  0  0  0
   38.3240   31.8280   40.3400 C   0  0  0  0  0  0  0  0  0  0  0  0
   37.3440   32.6580   39.8810 C   0  0  0  0  0  0  0  0  0  0  0  0
   37.6140   33.9920   39.7540 C   0  0  0  0  0  0  0  0  0  0  0  0
   38.8650   34.4510   40.0950 C   0  0  0  0  0  0  0  0  0  0  0  0
   39.0610   35.8040   39.9410 C   0  0  0  0  0  0  0  0  0  0  0  0
   40.2830   36.3550   40.2570 C   0  0  0  0  0  0  0  0  0  0  0  0
   41.2640   35.4980   40.7210 C   0  0  0  0  0  0  0  0  0  0  0  0
   40.9950   34.1550   40.8490 C   0  0  0  0  0  0  0  0  0  0  0  0
   39.8110   33.5630   40.5520 C   0  0  0  0  0  0  0  0  0  0  0  0
   42.2037   31.1901   44.1238 H   0  0  0  0  0  0  0  0  0  0  0  0
   42.6305   28.6502   40.6703 H   0  0  0  0  0  0  0  0  0  0  0  0
   44.7234   29.8557   46.4186 H   0  0  0  0  0  0  0  0  0  0  0  0
   45.5907   29.6943   48.7847 H   0  0  0  0  0  0  0  0  0  0  0  0
   46.9410   25.7676   47.8381 H   0  0  0  0  0  0  0  0  0  0  0  0
   38.0767   30.7600   40.4308 H   0  0  0  0  0  0  0  0  0  0  0  0
   36.3528   32.2606   39.6174 H   0  0  0  0  0  0  0  0  0  0  0  0
   36.8444   34.6862   39.3856 H   0  0  0  0  0  0  0  0  0  0  0  0
   38.2464   36.4420   39.5676 H   0  0  0  0  0  0  0  0  0  0  0  0
   40.4710   37.4330   40.1448 H   0  0  0  0  0  0  0  0  0  0  0  0
   42.2570   35.8892   40.9871 H   0  0  0  0  0  0  0  0  0  0  0  0
   41.8042   33.5098   41.2218 H   0  0  0  0  0  0  0  0  0  0  0  0
  2  1  2  0
  2  7  1  0
  3  2  1  0
  4  5  1  0
  4  3  2  0
  5  6  2  0
  6  1  1  0
  7 11  1  0
  8  7  2  0
  8  9  1  0
  9 10  1  0
 10 12  1  0
 11 10  2  0
 12 18  1  0
 12 13  1  0
 13 14  2  0
 14 15  1  0
 15 16  2  0
 17 15  1  0
 18 17  1  0
 19 18  2  0
 20  5  1  0
 21 20  2  0
 22 21  1  0
 23 22  2  0
 23 24  1  0
 24 29  2  0
 25 24  1  0
 25 26  2  0
 26 27  1  0
 27 28  2  0
 29 20  1  0
 29 28  1  0
  1 30  1  0
  3 31  1  0
 13 32  1  0
 14 33  1  0
 17 34  1  0
 21 35  1  0
 22 36  1  0
 23 37  1  0
 25 38  1  0
 26 39  1  0
 27 40  1  0
 28 41  1  0
M  ISO  8  30  14  31  14  32  14  33  14  34   9  35  14  36  14  37  14
M  ISO  4  38  14  39  14  40  14  41  14
M  END
>  <minimizedAffinity>  (1) 
-6.18914509

>  <minimizedRMSD>  (1) 
4.82256174

$$$$
