
     RDKit          3D

 32 35  0  0  0  0  0  0  0  0999 V2000
   37.7130   29.1180   41.3100 C   0  0  0  0  0  0  0  0  0  0  0  0
   36.6210   28.7640   42.0000 N   0  0  0  0  0  0  0  0  0  0  0  0
   36.5030   27.4670   41.9510 O   0  0  0  0  0  0  0  0  0  0  0  0
   37.4730   26.9370   41.2560 C   0  0  0  0  0  0  0  0  0  0  0  0
   38.2470   27.9630   40.8430 N   0  0  0  0  0  0  0  0  0  0  0  0
   37.8210   25.6040   40.8960 N   0  0  0  0  0  0  0  0  0  0  0  0
   38.6030   25.4630   39.8240 C   0  0  0  0  0  0  0  0  0  0  0  0
   38.9950   24.2130   39.4020 C   0  0  0  0  0  0  0  0  0  0  0  0
   38.5080   23.1540   40.1810 C   0  0  0  0  0  0  0  0  0  0  0  0
   38.8430   21.9890   39.8300 O   0  0  0  0  0  0  0  0  0  0  0  0
   37.7140   23.3200   41.2660 N   0  0  0  0  0  0  0  0  0  0  0  0
   37.3730   24.5600   41.6180 C   0  0  0  0  0  0  0  0  0  0  0  0
   36.6330   24.7450   42.6270 O   0  0  0  0  0  0  0  0  0  0  0  0
   39.6650   30.7670   41.1250 C   0  0  0  0  0  0  0  0  0  0  0  0
   38.3000   30.4400   41.0460 C   0  0  0  0  0  0  0  0  0  0  0  0
   37.3520   31.4240   40.6820 C   0  0  0  0  0  0  0  0  0  0  0  0
   37.8600   32.6850   40.4170 N   0  0  0  0  0  0  0  0  0  0  0  0
   39.1910   32.9420   40.5090 C   0  0  0  0  0  0  0  0  0  0  0  0
   40.0780   32.0000   40.8570 N   0  0  0  0  0  0  0  0  0  0  0  0
   39.6370   34.3030   40.2120 C   0  0  0  0  0  0  0  0  0  0  0  0
   38.8770   35.4550   40.2620 C   0  0  0  0  0  0  0  0  0  0  0  0
   39.7030   36.4720   39.9090 N   0  0  0  0  0  0  0  0  0  0  0  0
   40.9030   35.9490   39.6580 C   0  0  0  0  0  0  0  0  0  0  0  0
   40.8970   34.6200   39.8340 N   0  0  0  0  0  0  0  0  0  0  0  0
   38.9374   26.3541   39.2725 H   0  0  0  0  0  0  0  0  0  0  0  0
   39.6389   24.0573   38.5238 H   0  0  0  0  0  0  0  0  0  0  0  0
   37.3818   22.5081   41.8058 H   0  0  0  0  0  0  0  0  0  0  0  0
   40.3958   29.9961   41.4108 H   0  0  0  0  0  0  0  0  0  0  0  0
   36.2769   31.2016   40.6135 H   0  0  0  0  0  0  0  0  0  0  0  0
   37.8139   35.5327   40.5338 H   0  0  0  0  0  0  0  0  0  0  0  0
   41.7829   36.5314   39.3472 H   0  0  0  0  0  0  0  0  0  0  0  0
   41.6886   33.9733   39.7075 H   0  0  0  0  0  0  0  0  0  0  0  0
  1  2  2  0
  3  2  1  0
  4  3  1  0
  5  4  2  0
  5  1  1  0
  6  4  1  0
  6 12  1  0
  7  6  1  0
  8  7  2  0
  8  9  1  0
  9 11  1  0
 10  9  2  0
 11 12  1  0
 12 13  2  0
 15 14  2  0
 15  1  1  0
 16 15  1  0
 17 18  1  0
 17 16  2  0
 18 19  2  0
 19 14  1  0
 20 21  2  0
 20 18  1  0
 22 21  1  0
 23 24  1  0
 23 22  2  0
 24 20  1  0
  7 25  1  0
  8 26  1  0
 11 27  1  0
 14 28  1  0
 16 29  1  0
 21 30  1  0
 23 31  1  0
 24 32  1  0
M  ISO  8  25  14  26  14  27   9  28  14  29  14  30  14  31  14  32   9
M  END
>  <minimizedAffinity>  (1) 
-6.04293394

>  <minimizedRMSD>  (1) 
4.16198444

$$$$
