
     RDKit          3D

 36 39  0  0  0  0  0  0  0  0999 V2000
   41.8510   31.5350   40.7970 C   0  0  0  0  0  0  0  0  0  0  0  0
   40.8890   30.5910   41.1350 C   0  0  0  0  0  0  0  0  0  0  0  0
   39.5470   31.0030   41.2840 C   0  0  0  0  0  0  0  0  0  0  0  0
   39.2690   32.3340   41.0830 N   0  0  0  0  0  0  0  0  0  0  0  0
   40.2360   33.2080   40.7570 C   0  0  0  0  0  0  0  0  0  0  0  0
   41.5080   32.8160   40.6160 N   0  0  0  0  0  0  0  0  0  0  0  0
   39.9940   34.5910   40.5400 N   0  0  0  0  0  0  0  0  0  0  0  0
   38.7610   34.9270   40.0900 C   0  0  0  0  0  0  0  0  0  0  0  0
   38.4810   36.2780   39.8630 C   0  0  0  0  0  0  0  0  0  0  0  0
   39.4920   37.1970   40.1150 C   0  0  0  0  0  0  0  0  0  0  0  0
   39.2900   38.5920   39.9100 N   0  0  0  0  0  0  0  0  0  0  0  0
   40.7080   36.8050   40.5650 N   0  0  0  0  0  0  0  0  0  0  0  0
   40.9720   35.4920   40.7820 C   0  0  0  0  0  0  0  0  0  0  0  0
   42.0880   35.1380   41.1940 O   0  0  0  0  0  0  0  0  0  0  0  0
   41.1040   29.1550   41.3660 C   0  0  0  0  0  0  0  0  0  0  0  0
   40.3460   28.0920   41.0680 N   0  0  0  0  0  0  0  0  0  0  0  0
   40.9660   27.0080   41.4760 O   0  0  0  0  0  0  0  0  0  0  0  0
   42.1090   27.3290   42.0340 C   0  0  0  0  0  0  0  0  0  0  0  0
   42.2110   28.6680   41.9730 N   0  0  0  0  0  0  0  0  0  0  0  0
   43.1360   26.5500   42.6250 N   0  0  0  0  0  0  0  0  0  0  0  0
   44.3580   27.1320   42.6500 C   0  0  0  0  0  0  0  0  0  0  0  0
   45.4350   26.4840   43.1940 C   0  0  0  0  0  0  0  0  0  0  0  0
   45.1570   25.2070   43.7030 C   0  0  0  0  0  0  0  0  0  0  0  0
   46.0930   24.5350   44.2240 O   0  0  0  0  0  0  0  0  0  0  0  0
   43.9320   24.6460   43.6690 N   0  0  0  0  0  0  0  0  0  0  0  0
   42.9140   25.3300   43.1220 C   0  0  0  0  0  0  0  0  0  0  0  0
   41.7570   24.8400   43.0720 O   0  0  0  0  0  0  0  0  0  0  0  0
   42.9004   31.2277   40.6775 H   0  0  0  0  0  0  0  0  0  0  0  0
   38.7553   30.2873   41.5504 H   0  0  0  0  0  0  0  0  0  0  0  0
   37.9985   34.1554   39.9076 H   0  0  0  0  0  0  0  0  0  0  0  0
   37.4952   36.6017   39.4978 H   0  0  0  0  0  0  0  0  0  0  0  0
   40.0528   39.2567   40.1030 H   0  0  0  0  0  0  0  0  0  0  0  0
   38.3811   38.9361   39.5688 H   0  0  0  0  0  0  0  0  0  0  0  0
   44.4877   28.1393   42.2275 H   0  0  0  0  0  0  0  0  0  0  0  0
   46.4398   26.9303   43.2290 H   0  0  0  0  0  0  0  0  0  0  0  0
   43.7786   23.7046   44.0576 H   0  0  0  0  0  0  0  0  0  0  0  0
  1  2  2  0
  2  3  1  0
  2 15  1  0
  4  3  2  0
  5  4  1  0
  6  5  2  0
  6  1  1  0
  7  5  1  0
  7 13  1  0
  8  7  1  0
  9  8  2  0
  9 10  1  0
 10 12  2  0
 11 10  1  0
 12 13  1  0
 13 14  2  0
 15 19  1  0
 16 15  2  0
 16 17  1  0
 17 18  1  0
 18 20  1  0
 19 18  2  0
 20 21  1  0
 20 26  1  0
 21 22  2  0
 22 23  1  0
 23 24  2  0
 25 23  1  0
 26 25  1  0
 27 26  2  0
  1 28  1  0
  3 29  1  0
  8 30  1  0
  9 31  1  0
 11 32  1  0
 11 33  1  0
 21 34  1  0
 22 35  1  0
 25 36  1  0
M  ISO  7  28  14  29  14  30  14  31  14  34  14  35  14  36   9
M  END
>  <minimizedAffinity>  (1) 
-5.81173086

>  <minimizedRMSD>  (1) 
3.0909071

$$$$
