
     RDKit          3D

 37 39  0  0  0  0  0  0  0  0999 V2000
   38.2640   31.1390   41.1040 C   0  0  0  0  0  0  0  0  0  0  0  0
   36.9550   30.8310   41.0710 N   0  0  0  0  0  0  0  0  0  0  0  0
   36.8180   29.5560   41.3510 O   0  0  0  0  0  0  0  0  0  0  0  0
   38.0020   29.0120   41.5690 C   0  0  0  0  0  0  0  0  0  0  0  0
   38.9080   29.9920   41.4170 N   0  0  0  0  0  0  0  0  0  0  0  0
   38.3870   27.6980   41.8990 N   0  0  0  0  0  0  0  0  0  0  0  0
   39.6650   27.3890   41.5750 C   0  0  0  0  0  0  0  0  0  0  0  0
   40.1540   26.1250   41.8470 C   0  0  0  0  0  0  0  0  0  0  0  0
   39.2520   25.2480   42.4550 C   0  0  0  0  0  0  0  0  0  0  0  0
   39.6490   24.0800   42.7260 O   0  0  0  0  0  0  0  0  0  0  0  0
   37.9870   25.5900   42.7640 N   0  0  0  0  0  0  0  0  0  0  0  0
   37.5610   26.8230   42.4800 C   0  0  0  0  0  0  0  0  0  0  0  0
   36.3820   27.1690   42.7580 O   0  0  0  0  0  0  0  0  0  0  0  0
   40.3170   32.6180   40.8780 C   0  0  0  0  0  0  0  0  0  0  0  0
   38.9480   32.4140   40.8670 C   0  0  0  0  0  0  0  0  0  0  0  0
   38.0950   33.4930   40.6080 C   0  0  0  0  0  0  0  0  0  0  0  0
   38.6710   34.7180   40.3770 N   0  0  0  0  0  0  0  0  0  0  0  0
   40.0090   34.8720   40.3980 C   0  0  0  0  0  0  0  0  0  0  0  0
   40.8380   33.8220   40.6480 N   0  0  0  0  0  0  0  0  0  0  0  0
   40.5350   36.2410   40.1340 C   0  0  0  0  0  0  0  0  0  0  0  0
   41.3530   36.6780   41.3310 C   0  0  0  0  0  0  0  0  0  0  0  0
   39.4170   37.2300   39.8820 C   0  0  0  0  0  0  0  0  0  0  0  0
   41.4080   36.1940   38.8880 C   0  0  0  0  0  0  0  0  0  0  0  0
   40.3111   28.1404   41.0975 H   0  0  0  0  0  0  0  0  0  0  0  0
   41.1846   25.8293   41.6012 H   0  0  0  0  0  0  0  0  0  0  0  0
   37.3569   24.9101   43.2131 H   0  0  0  0  0  0  0  0  0  0  0  0
   40.9873   31.7697   41.0805 H   0  0  0  0  0  0  0  0  0  0  0  0
   37.0027   33.3644   40.5901 H   0  0  0  0  0  0  0  0  0  0  0  0
   40.8280   36.3975   42.2560 H   0  0  0  0  0  0  0  0  0  0  0  0
   42.3358   36.1848   41.3033 H   0  0  0  0  0  0  0  0  0  0  0  0
   41.4894   37.7692   41.3033 H   0  0  0  0  0  0  0  0  0  0  0  0
   39.0169   37.5839   40.8436 H   0  0  0  0  0  0  0  0  0  0  0  0
   39.8059   38.0851   39.3097 H   0  0  0  0  0  0  0  0  0  0  0  0
   38.6158   36.7397   39.3097 H   0  0  0  0  0  0  0  0  0  0  0  0
   42.4660   36.1370   39.1835 H   0  0  0  0  0  0  0  0  0  0  0  0
   41.1462   35.3087   38.2900 H   0  0  0  0  0  0  0  0  0  0  0  0
   41.2427   37.1023   38.2900 H   0  0  0  0  0  0  0  0  0  0  0  0
  1  5  1  0
  2  1  2  0
  2  3  1  0
  3  4  1  0
  4  6  1  0
  5  4  2  0
  6 12  1  0
  7  8  2  0
  7  6  1  0
  8  9  1  0
  9 10  2  0
  9 11  1  0
 12 13  2  0
 12 11  1  0
 15 14  2  0
 15  1  1  0
 16 15  1  0
 17 18  1  0
 17 16  2  0
 18 19  2  0
 19 14  1  0
 20 18  1  0
 20 21  1  0
 22 20  1  0
 23 20  1  0
  7 24  1  0
  8 25  1  0
 11 26  1  0
 14 27  1  0
 16 28  1  0
 21 29  1  0
 21 30  1  0
 21 31  1  0
 22 32  1  0
 22 33  1  0
 22 34  1  0
 23 35  1  0
 23 36  1  0
 23 37  1  0
M  ISO  8  24  14  25  14  26   9  27  14  28  14  29   8  30   8  31   8
M  ISO  6  32   8  33   8  34   8  35   8  36   8  37   8
M  END
>  <minimizedAffinity>  (1) 
-5.79550457

>  <minimizedRMSD>  (1) 
3.21003413

$$$$
