
     RDKit          3D

 32 35  0  0  0  0  0  0  0  0999 V2000
   40.9510   29.3320   41.4150 C   0  0  0  0  0  0  0  0  0  0  0  0
   40.0660   28.3270   41.3140 N   0  0  0  0  0  0  0  0  0  0  0  0
   40.6390   27.2240   41.7230 O   0  0  0  0  0  0  0  0  0  0  0  0
   41.8700   27.4570   42.0920 C   0  0  0  0  0  0  0  0  0  0  0  0
   42.0860   28.7760   41.9060 N   0  0  0  0  0  0  0  0  0  0  0  0
   42.9020   26.6300   42.6010 N   0  0  0  0  0  0  0  0  0  0  0  0
   44.1570   27.0950   42.4050 C   0  0  0  0  0  0  0  0  0  0  0  0
   45.2460   26.3720   42.8580 C   0  0  0  0  0  0  0  0  0  0  0  0
   44.9300   25.1730   43.5090 C   0  0  0  0  0  0  0  0  0  0  0  0
   45.8830   24.4690   43.9470 O   0  0  0  0  0  0  0  0  0  0  0  0
   43.6660   24.7450   43.6850 N   0  0  0  0  0  0  0  0  0  0  0  0
   42.6510   25.4770   43.2280 C   0  0  0  0  0  0  0  0  0  0  0  0
   41.4650   25.1000   43.3810 O   0  0  0  0  0  0  0  0  0  0  0  0
   41.8130   31.5820   40.5810 C   0  0  0  0  0  0  0  0  0  0  0  0
   40.8260   30.7580   41.0930 C   0  0  0  0  0  0  0  0  0  0  0  0
   39.5460   31.2910   41.3510 C   0  0  0  0  0  0  0  0  0  0  0  0
   39.3670   32.6290   41.0670 N   0  0  0  0  0  0  0  0  0  0  0  0
   40.3690   33.3900   40.5670 C   0  0  0  0  0  0  0  0  0  0  0  0
   41.5930   32.8690   40.3230 N   0  0  0  0  0  0  0  0  0  0  0  0
   40.0760   34.7550   40.3110 N   0  0  0  0  0  0  0  0  0  0  0  0
   38.9130   35.3260   40.1740 N   0  0  0  0  0  0  0  0  0  0  0  0
   39.0060   36.6400   39.9380 C   0  0  0  0  0  0  0  0  0  0  0  0
   40.3580   36.9250   39.9250 C   0  0  0  0  0  0  0  0  0  0  0  0
   41.0080   35.7190   40.1610 C   0  0  0  0  0  0  0  0  0  0  0  0
   44.3122   28.0511   41.8837 H   0  0  0  0  0  0  0  0  0  0  0  0
   46.2822   26.7132   42.7174 H   0  0  0  0  0  0  0  0  0  0  0  0
   43.4843   23.8552   44.1710 H   0  0  0  0  0  0  0  0  0  0  0  0
   42.8093   31.1606   40.3813 H   0  0  0  0  0  0  0  0  0  0  0  0
   38.7327   30.6720   41.7576 H   0  0  0  0  0  0  0  0  0  0  0  0
   38.1773   37.3471   39.7858 H   0  0  0  0  0  0  0  0  0  0  0  0
   40.8253   37.9072   39.7611 H   0  0  0  0  0  0  0  0  0  0  0  0
   42.0972   35.5751   40.2161 H   0  0  0  0  0  0  0  0  0  0  0  0
  1  5  1  0
  2  1  2  0
  2  3  1  0
  3  4  1  0
  4  6  1  0
  5  4  2  0
  6 12  1  0
  7  6  1  0
  7  8  2  0
  8  9  1  0
  9 11  1  0
  9 10  2  0
 12 13  2  0
 12 11  1  0
 14 15  2  0
 15 16  1  0
 15  1  1  0
 17 16  2  0
 18 17  1  0
 19 18  2  0
 19 14  1  0
 20 18  1  0
 21 20  1  0
 22 21  2  0
 23 22  1  0
 23 24  2  0
 24 20  1  0
  7 25  1  0
  8 26  1  0
 11 27  1  0
 14 28  1  0
 16 29  1  0
 22 30  1  0
 23 31  1  0
 24 32  1  0
M  ISO  8  25  14  26  14  27   9  28  14  29  14  30  14  31  14  32  14
M  END
>  <minimizedAffinity>  (1) 
-5.63502979

>  <minimizedRMSD>  (1) 
2.91867614

$$$$
