
     RDKit          3D

 38 41  0  0  0  0  0  0  0  0999 V2000
   41.6700   31.4160   40.8610 C   0  0  0  0  0  0  0  0  0  0  0  0
   40.6890   30.4780   41.1340 C   0  0  0  0  0  0  0  0  0  0  0  0
   39.3330   30.8700   41.1390 C   0  0  0  0  0  0  0  0  0  0  0  0
   39.0640   32.1940   40.8660 N   0  0  0  0  0  0  0  0  0  0  0  0
   40.0660   33.0700   40.6050 C   0  0  0  0  0  0  0  0  0  0  0  0
   41.3650   32.6900   40.6010 N   0  0  0  0  0  0  0  0  0  0  0  0
   39.6120   34.3940   40.3440 N   0  0  0  0  0  0  0  0  0  0  0  0
   40.5110   35.3800   40.6270 C   0  0  0  0  0  0  0  0  0  0  0  0
   40.1930   36.7210   40.4180 C   0  0  0  0  0  0  0  0  0  0  0  0
   41.1460   37.8180   40.7160 C   0  0  0  0  0  0  0  0  0  0  0  0
   38.9420   37.0140   39.9160 C   0  0  0  0  0  0  0  0  0  0  0  0
   38.6490   38.2190   39.7240 O   0  0  0  0  0  0  0  0  0  0  0  0
   38.0690   36.0190   39.6430 N   0  0  0  0  0  0  0  0  0  0  0  0
   38.3860   34.7220   39.8500 C   0  0  0  0  0  0  0  0  0  0  0  0
   37.6060   33.7560   39.6100 O   0  0  0  0  0  0  0  0  0  0  0  0
   40.8940   29.0530   41.4340 C   0  0  0  0  0  0  0  0  0  0  0  0
   40.0800   27.9990   41.2980 N   0  0  0  0  0  0  0  0  0  0  0  0
   40.7120   26.9230   41.7010 O   0  0  0  0  0  0  0  0  0  0  0  0
   41.9170   27.2300   42.0980 C   0  0  0  0  0  0  0  0  0  0  0  0
   42.0490   28.5600   41.9390 N   0  0  0  0  0  0  0  0  0  0  0  0
   42.9890   26.4580   42.6160 N   0  0  0  0  0  0  0  0  0  0  0  0
   44.2160   27.0000   42.4410 C   0  0  0  0  0  0  0  0  0  0  0  0
   45.3370   26.3420   42.9040 C   0  0  0  0  0  0  0  0  0  0  0  0
   45.0860   25.1200   43.5370 C   0  0  0  0  0  0  0  0  0  0  0  0
   46.0720   24.4630   43.9860 O   0  0  0  0  0  0  0  0  0  0  0  0
   43.8500   24.6080   43.6940 N   0  0  0  0  0  0  0  0  0  0  0  0
   42.8000   25.2870   43.2290 C   0  0  0  0  0  0  0  0  0  0  0  0
   41.6340   24.8380   43.3590 O   0  0  0  0  0  0  0  0  0  0  0  0
   42.7250   31.1048   40.8582 H   0  0  0  0  0  0  0  0  0  0  0  0
   38.5275   30.1515   41.3511 H   0  0  0  0  0  0  0  0  0  0  0  0
   41.5009   35.1132   41.0258 H   0  0  0  0  0  0  0  0  0  0  0  0
   41.2449   37.9319   41.8056 H   0  0  0  0  0  0  0  0  0  0  0  0
   42.1279   37.5788   40.2817 H   0  0  0  0  0  0  0  0  0  0  0  0
   40.7719   38.7568   40.2817 H   0  0  0  0  0  0  0  0  0  0  0  0
   37.1393   36.2552   39.2680 H   0  0  0  0  0  0  0  0  0  0  0  0
   44.3204   27.9676   41.9284 H   0  0  0  0  0  0  0  0  0  0  0  0
   46.3523   26.7480   42.7843 H   0  0  0  0  0  0  0  0  0  0  0  0
   43.7171   23.7030   44.1675 H   0  0  0  0  0  0  0  0  0  0  0  0
  1  2  2  0
  2  3  1  0
  2 16  1  0
  4  3  2  0
  5  4  1  0
  6  5  2  0
  6  1  1  0
  7  5  1  0
  7  8  1  0
  9  8  2  0
  9 10  1  0
 11  9  1  0
 12 11  2  0
 13 14  1  0
 13 11  1  0
 14  7  1  0
 15 14  2  0
 16 20  1  0
 17 16  2  0
 17 18  1  0
 18 19  1  0
 19 21  1  0
 20 19  2  0
 21 27  1  0
 22 21  1  0
 22 23  2  0
 23 24  1  0
 24 26  1  0
 24 25  2  0
 27 28  2  0
 27 26  1  0
  1 29  1  0
  3 30  1  0
  8 31  1  0
 10 32  1  0
 10 33  1  0
 10 34  1  0
 13 35  1  0
 22 36  1  0
 23 37  1  0
 26 38  1  0
M  ISO  8  29  14  30  14  31  14  32   8  33   8  34   8  35   9  36  14
M  ISO  2  37  14  38   9
M  END
>  <minimizedAffinity>  (1) 
-5.54998302

>  <minimizedRMSD>  (1) 
2.96669102

$$$$
