
     RDKit          3D

 35 38  0  0  0  0  0  0  0  0999 V2000
   41.1200   29.3070   41.5510 C   0  0  0  0  0  0  0  0  0  0  0  0
   40.2740   28.2940   41.3250 N   0  0  0  0  0  0  0  0  0  0  0  0
   40.8610   27.1850   41.6980 O   0  0  0  0  0  0  0  0  0  0  0  0
   42.0580   27.4240   42.1600 C   0  0  0  0  0  0  0  0  0  0  0  0
   42.2340   28.7530   42.0740 N   0  0  0  0  0  0  0  0  0  0  0  0
   43.0890   26.5950   42.6810 N   0  0  0  0  0  0  0  0  0  0  0  0
   44.3360   27.1220   42.6310 C   0  0  0  0  0  0  0  0  0  0  0  0
   45.4020   26.3900   43.1180 C   0  0  0  0  0  0  0  0  0  0  0  0
   45.0730   25.1350   43.6310 C   0  0  0  0  0  0  0  0  0  0  0  0
   46.0380   24.4620   44.0780 O   0  0  0  0  0  0  0  0  0  0  0  0
   43.8240   24.6330   43.6700 N   0  0  0  0  0  0  0  0  0  0  0  0
   42.8130   25.3720   43.1870 C   0  0  0  0  0  0  0  0  0  0  0  0
   41.6380   24.9490   43.2020 O   0  0  0  0  0  0  0  0  0  0  0  0
   42.0010   31.6220   40.9300 C   0  0  0  0  0  0  0  0  0  0  0  0
   40.9580   30.7420   41.2940 C   0  0  0  0  0  0  0  0  0  0  0  0
   39.6230   31.2100   41.4090 C   0  0  0  0  0  0  0  0  0  0  0  0
   39.4460   32.5490   41.1390 N   0  0  0  0  0  0  0  0  0  0  0  0
   40.4830   33.3360   40.7950 C   0  0  0  0  0  0  0  0  0  0  0  0
   41.7490   32.9060   40.6850 N   0  0  0  0  0  0  0  0  0  0  0  0
   40.1670   34.7540   40.5300 C   0  0  0  0  0  0  0  0  0  0  0  0
   38.9080   35.0960   40.0640 C   0  0  0  0  0  0  0  0  0  0  0  0
   38.6280   36.4460   39.8190 C   0  0  0  0  0  0  0  0  0  0  0  0
   39.6330   37.3630   40.0590 C   0  0  0  0  0  0  0  0  0  0  0  0
   40.8960   37.0540   40.5230 C   0  0  0  0  0  0  0  0  0  0  0  0
   41.1450   35.7050   40.7570 C   0  0  0  0  0  0  0  0  0  0  0  0
   44.4985   28.1237   42.2065 H   0  0  0  0  0  0  0  0  0  0  0  0
   46.4345   26.7691   43.1024 H   0  0  0  0  0  0  0  0  0  0  0  0
   43.6475   23.6978   44.0638 H   0  0  0  0  0  0  0  0  0  0  0  0
   43.0305   31.2431   40.8482 H   0  0  0  0  0  0  0  0  0  0  0  0
   38.7896   30.5507   41.6933 H   0  0  0  0  0  0  0  0  0  0  0  0
   38.1445   34.3235   39.8901 H   0  0  0  0  0  0  0  0  0  0  0  0
   37.6426   36.7650   39.4485 H   0  0  0  0  0  0  0  0  0  0  0  0
   39.4094   38.4224   39.8652 H   0  0  0  0  0  0  0  0  0  0  0  0
   41.6590   37.8270   40.6971 H   0  0  0  0  0  0  0  0  0  0  0  0
   42.1322   35.3912   41.1272 H   0  0  0  0  0  0  0  0  0  0  0  0
  1  5  1  0
  2  1  2  0
  2  3  1  0
  3  4  1  0
  4  6  1  0
  5  4  2  0
  6 12  1  0
  7  6  1  0
  7  8  2  0
  8  9  1  0
  9 11  1  0
  9 10  2  0
 12 13  2  0
 12 11  1  0
 14 15  2  0
 15 16  1  0
 15  1  1  0
 17 16  2  0
 18 17  1  0
 19 18  2  0
 19 14  1  0
 20 25  1  0
 20 18  1  0
 21 20  2  0
 22 23  2  0
 22 21  1  0
 23 24  1  0
 24 25  2  0
  7 26  1  0
  8 27  1  0
 11 28  1  0
 14 29  1  0
 16 30  1  0
 21 31  1  0
 22 32  1  0
 23 33  1  0
 24 34  1  0
 25 35  1  0
M  ISO  8  26  14  27  14  28   9  29  14  30  14  31  14  32  14  33  14
M  ISO  2  34  14  35  14
M  END
>  <minimizedAffinity>  (1) 
-5.48264313

>  <minimizedRMSD>  (1) 
3.09640169

$$$$
