
     RDKit          3D

 28 30  0  0  0  0  0  0  0  0999 V2000
   38.7740   29.8310   41.4360 C   0  0  0  0  0  0  0  0  0  0  0  0
   38.2250   28.6160   41.3020 N   0  0  0  0  0  0  0  0  0  0  0  0
   38.9320   27.7670   41.9970 O   0  0  0  0  0  0  0  0  0  0  0  0
   39.9280   28.3690   42.5870 C   0  0  0  0  0  0  0  0  0  0  0  0
   39.8450   29.6710   42.2450 N   0  0  0  0  0  0  0  0  0  0  0  0
   40.9720   27.9180   43.4390 N   0  0  0  0  0  0  0  0  0  0  0  0
   42.0630   28.7170   43.4830 C   0  0  0  0  0  0  0  0  0  0  0  0
   43.1370   28.3720   44.2800 C   0  0  0  0  0  0  0  0  0  0  0  0
   42.9870   27.1820   44.9950 C   0  0  0  0  0  0  0  0  0  0  0  0
   43.9430   26.8180   45.7410 O   0  0  0  0  0  0  0  0  0  0  0  0
   41.8860   26.4110   44.9260 N   0  0  0  0  0  0  0  0  0  0  0  0
   40.8750   26.7860   44.1420 C   0  0  0  0  0  0  0  0  0  0  0  0
   39.8360   26.0860   44.0590 O   0  0  0  0  0  0  0  0  0  0  0  0
   38.9660   32.3600   41.1380 C   0  0  0  0  0  0  0  0  0  0  0  0
   38.3810   31.1360   40.8680 C   0  0  0  0  0  0  0  0  0  0  0  0
   37.2970   31.0580   39.9690 C   0  0  0  0  0  0  0  0  0  0  0  0
   36.8880   32.2520   39.4070 N   0  0  0  0  0  0  0  0  0  0  0  0
   37.4950   33.4230   39.7040 C   0  0  0  0  0  0  0  0  0  0  0  0
   38.5260   33.4800   40.5630 N   0  0  0  0  0  0  0  0  0  0  0  0
   37.0330   34.6940   39.0820 C   0  0  0  0  0  0  0  0  0  0  0  0
   42.0946   29.6398   42.8851 H   0  0  0  0  0  0  0  0  0  0  0  0
   44.0446   28.9898   44.3467 H   0  0  0  0  0  0  0  0  0  0  0  0
   41.8251   25.5404   45.4731 H   0  0  0  0  0  0  0  0  0  0  0  0
   39.8107   32.4106   41.8408 H   0  0  0  0  0  0  0  0  0  0  0  0
   36.8063   30.1031   39.7295 H   0  0  0  0  0  0  0  0  0  0  0  0
   36.7712   35.4144   39.8710 H   0  0  0  0  0  0  0  0  0  0  0  0
   37.8373   35.1103   38.4577 H   0  0  0  0  0  0  0  0  0  0  0  0
   36.1491   34.4966   38.4577 H   0  0  0  0  0  0  0  0  0  0  0  0
  1  5  1  0
  2  1  2  0
  2  3  1  0
  3  4  1  0
  4  6  1  0
  5  4  2  0
  6  7  1  0
  6 12  1  0
  7  8  2  0
  8  9  1  0
  9 10  2  0
 11  9  1  0
 12 11  1  0
 13 12  2  0
 15 14  2  0
 15  1  1  0
 16 15  1  0
 17 18  1  0
 17 16  2  0
 18 19  2  0
 19 14  1  0
 20 18  1  0
  7 21  1  0
  8 22  1  0
 11 23  1  0
 14 24  1  0
 16 25  1  0
 20 26  1  0
 20 27  1  0
 20 28  1  0
M  ISO  8  21  14  22  14  23   9  24  14  25  14  26   8  27   8  28   8
M  END
>  <minimizedAffinity>  (1) 
-4.91258049

>  <minimizedRMSD>  (1) 
0.411103964

$$$$
