
     RDKit          3D

 39 43  0  0  0  0  0  0  0  0999 V2000
   37.1640   29.2770   41.2310 C   0  0  0  0  0  0  0  0  0  0  0  0
   37.5480   27.9880   41.5180 C   0  0  0  0  0  0  0  0  0  0  0  0
   36.9850   26.9360   40.7570 C   0  0  0  0  0  0  0  0  0  0  0  0
   36.0860   27.2600   39.7760 N   0  0  0  0  0  0  0  0  0  0  0  0
   35.7550   28.5530   39.5520 C   0  0  0  0  0  0  0  0  0  0  0  0
   36.2870   29.5480   40.2690 N   0  0  0  0  0  0  0  0  0  0  0  0
   37.3330   25.5610   40.9930 N   0  0  0  0  0  0  0  0  0  0  0  0
   37.5290   25.0710   42.2270 C   0  0  0  0  0  0  0  0  0  0  0  0
   37.8350   23.7700   42.0750 N   0  0  0  0  0  0  0  0  0  0  0  0
   37.8250   23.4730   40.7630 C   0  0  0  0  0  0  0  0  0  0  0  0
   38.0680   22.2950   40.0890 C   0  0  0  0  0  0  0  0  0  0  0  0
   37.9740   22.3410   38.7380 N   0  0  0  0  0  0  0  0  0  0  0  0
   37.6600   23.4550   38.0510 C   0  0  0  0  0  0  0  0  0  0  0  0
   37.4210   24.6090   38.6990 N   0  0  0  0  0  0  0  0  0  0  0  0
   37.5020   24.6210   40.0420 C   0  0  0  0  0  0  0  0  0  0  0  0
   38.4980   27.5270   42.5410 C   0  0  0  0  0  0  0  0  0  0  0  0
   38.3750   27.3340   43.8520 N   0  0  0  0  0  0  0  0  0  0  0  0
   39.5270   26.9100   44.3260 O   0  0  0  0  0  0  0  0  0  0  0  0
   40.4040   26.8170   43.3690 C   0  0  0  0  0  0  0  0  0  0  0  0
   39.7780   27.2000   42.2420 N   0  0  0  0  0  0  0  0  0  0  0  0
   41.7650   26.4180   43.3430 N   0  0  0  0  0  0  0  0  0  0  0  0
   42.2100   25.9480   42.1630 C   0  0  0  0  0  0  0  0  0  0  0  0
   43.5090   25.5330   42.0160 C   0  0  0  0  0  0  0  0  0  0  0  0
   44.2920   25.6420   43.1690 C   0  0  0  0  0  0  0  0  0  0  0  0
   45.5050   25.2790   43.1180 O   0  0  0  0  0  0  0  0  0  0  0  0
   43.8260   26.1120   44.3270 N   0  0  0  0  0  0  0  0  0  0  0  0
   42.5560   26.5060   44.4250 C   0  0  0  0  0  0  0  0  0  0  0  0
   42.0910   26.9490   45.4930 O   0  0  0  0  0  0  0  0  0  0  0  0
   34.7750   28.7920   38.4680 C   0  0  0  0  0  0  0  0  0  0  0  0
   35.2220   29.8300   37.6630 F   0  0  0  0  0  0  0  0  0  0  0  0
   34.6080   27.6720   37.6950 F   0  0  0  0  0  0  0  0  0  0  0  0
   33.5560   29.2070   39.0010 F   0  0  0  0  0  0  0  0  0  0  0  0
   37.5938   30.1058   41.8127 H   0  0  0  0  0  0  0  0  0  0  0  0
   37.4542   25.6239   43.1750 H   0  0  0  0  0  0  0  0  0  0  0  0
   38.3247   21.3666   40.6201 H   0  0  0  0  0  0  0  0  0  0  0  0
   37.5985   23.4214   36.9532 H   0  0  0  0  0  0  0  0  0  0  0  0
   41.5231   25.8960   41.3054 H   0  0  0  0  0  0  0  0  0  0  0  0
   43.9037   25.1449   41.0655 H   0  0  0  0  0  0  0  0  0  0  0  0
   44.4477   26.1706   45.1461 H   0  0  0  0  0  0  0  0  0  0  0  0
  1  2  2  0
  2 16  1  0
  3  7  1  0
  3  2  1  0
  4  3  2  0
  5  4  1  0
  5  6  2  0
  6  1  1  0
  7  8  1  0
  9  8  2  0
 10  9  1  0
 11 10  2  0
 12 11  1  0
 13 14  1  0
 13 12  2  0
 14 15  2  0
 15 10  1  0
 15  7  1  0
 16 17  2  0
 17 18  1  0
 19 18  1  0
 20 16  1  0
 20 19  2  0
 21 19  1  0
 21 27  1  0
 22 21  1  0
 23 22  2  0
 23 24  1  0
 24 26  1  0
 25 24  2  0
 26 27  1  0
 27 28  2  0
 29 32  1  0
 29  5  1  0
 30 29  1  0
 31 29  1  0
  1 33  1  0
  8 34  1  0
 11 35  1  0
 13 36  1  0
 22 37  1  0
 23 38  1  0
 26 39  1  0
M  ISO  7  33  14  34  14  35  14  36  14  37  14  38  14  39   9
M  END
>  <minimizedAffinity>  (1) 
-6.50156212

>  <minimizedRMSD>  (1) 
3.21485853

$$$$
