
     RDKit          3D

 38 41  0  0  0  0  0  0  0  0999 V2000
   39.0990   29.9400   40.7340 C   0  0  0  0  0  0  0  0  0  0  0  0
   39.0580   28.6150   41.1430 C   0  0  0  0  0  0  0  0  0  0  0  0
   38.2280   27.7290   40.4410 C   0  0  0  0  0  0  0  0  0  0  0  0
   37.5070   28.2280   39.3870 N   0  0  0  0  0  0  0  0  0  0  0  0
   37.5890   29.5190   39.0380 C   0  0  0  0  0  0  0  0  0  0  0  0
   38.3820   30.3800   39.7070 N   0  0  0  0  0  0  0  0  0  0  0  0
   39.7970   28.0100   42.2540 C   0  0  0  0  0  0  0  0  0  0  0  0
   39.4380   27.7300   43.5040 N   0  0  0  0  0  0  0  0  0  0  0  0
   40.4620   27.1840   44.1260 O   0  0  0  0  0  0  0  0  0  0  0  0
   41.4840   27.0970   43.3230 C   0  0  0  0  0  0  0  0  0  0  0  0
   41.0880   27.6090   42.1450 N   0  0  0  0  0  0  0  0  0  0  0  0
   42.7930   26.5970   43.5030 N   0  0  0  0  0  0  0  0  0  0  0  0
   43.4170   26.1950   42.3600 C   0  0  0  0  0  0  0  0  0  0  0  0
   44.6970   25.6880   42.3920 C   0  0  0  0  0  0  0  0  0  0  0  0
   45.2650   25.6350   43.6810 C   0  0  0  0  0  0  0  0  0  0  0  0
   46.4440   25.1760   43.7690 O   0  0  0  0  0  0  0  0  0  0  0  0
   44.6350   26.0360   44.7930 N   0  0  0  0  0  0  0  0  0  0  0  0
   43.3970   26.5140   44.6780 C   0  0  0  0  0  0  0  0  0  0  0  0
   42.7660   26.9040   45.7040 O   0  0  0  0  0  0  0  0  0  0  0  0
   38.0510   26.3060   40.7200 C   0  0  0  0  0  0  0  0  0  0  0  0
   37.0700   25.9000   41.6280 C   0  0  0  0  0  0  0  0  0  0  0  0
   36.8710   24.5520   41.9220 C   0  0  0  0  0  0  0  0  0  0  0  0
   37.6970   23.6340   41.2640 C   0  0  0  0  0  0  0  0  0  0  0  0
   38.6790   23.9770   40.3600 C   0  0  0  0  0  0  0  0  0  0  0  0
   38.8180   25.3290   40.1210 C   0  0  0  0  0  0  0  0  0  0  0  0
   36.7670   29.9620   37.8830 C   0  0  0  0  0  0  0  0  0  0  0  0
   36.9480   31.3030   37.6570 F   0  0  0  0  0  0  0  0  0  0  0  0
   37.1010   29.2630   36.7520 F   0  0  0  0  0  0  0  0  0  0  0  0
   35.4220   29.7890   38.1710 F   0  0  0  0  0  0  0  0  0  0  0  0
   39.7444   30.6466   41.2764 H   0  0  0  0  0  0  0  0  0  0  0  0
   42.8904   26.2767   41.3977 H   0  0  0  0  0  0  0  0  0  0  0  0
   45.2300   25.3534   41.4898 H   0  0  0  0  0  0  0  0  0  0  0  0
   45.0955   25.9763   45.7124 H   0  0  0  0  0  0  0  0  0  0  0  0
   36.4430   26.6581   42.1201 H   0  0  0  0  0  0  0  0  0  0  0  0
   36.1015   24.2256   42.6370 H   0  0  0  0  0  0  0  0  0  0  0  0
   37.5527   22.5658   41.4832 H   0  0  0  0  0  0  0  0  0  0  0  0
   39.3089   23.2246   39.8630 H   0  0  0  0  0  0  0  0  0  0  0  0
   39.5908   25.6481   39.4062 H   0  0  0  0  0  0  0  0  0  0  0  0
  1  2  2  0
  2  7  1  0
  3 20  1  0
  3  2  1  0
  4  3  2  0
  5  4  1  0
  5  6  2  0
  6  1  1  0
  7  8  2  0
  8  9  1  0
 10 12  1  0
 10  9  1  0
 11  7  1  0
 11 10  2  0
 12 18  1  0
 13 14  2  0
 13 12  1  0
 14 15  1  0
 15 16  2  0
 15 17  1  0
 18 17  1  0
 18 19  2  0
 20 21  2  0
 21 22  1  0
 23 22  2  0
 24 23  1  0
 25 24  2  0
 25 20  1  0
 26 29  1  0
 26  5  1  0
 27 26  1  0
 28 26  1  0
  1 30  1  0
 13 31  1  0
 14 32  1  0
 17 33  1  0
 21 34  1  0
 22 35  1  0
 23 36  1  0
 24 37  1  0
 25 38  1  0
M  ISO  8  30  14  31  14  32  14  33   9  34  14  35  14  36  14  37  14
M  ISO  1  38  14
M  END
>  <minimizedAffinity>  (1) 
-5.91501522

>  <minimizedRMSD>  (1) 
2.27011013

$$$$
