
     RDKit          3D

 41 44  0  0  0  0  0  0  0  0999 V2000
   39.3240   27.5730   43.0290 C   0  0  0  0  0  0  0  0  0  0  0  0
   39.3380   26.7190   44.0490 N   0  0  0  0  0  0  0  0  0  0  0  0
   40.5520   26.6590   44.5410 O   0  0  0  0  0  0  0  0  0  0  0  0
   41.3560   27.4600   43.8680 C   0  0  0  0  0  0  0  0  0  0  0  0
   40.6050   28.0310   42.9280 N   0  0  0  0  0  0  0  0  0  0  0  0
   42.7250   27.7430   44.0020 N   0  0  0  0  0  0  0  0  0  0  0  0
   43.3110   28.2310   42.8920 C   0  0  0  0  0  0  0  0  0  0  0  0
   44.6600   28.5420   42.8940 C   0  0  0  0  0  0  0  0  0  0  0  0
   45.3180   28.3090   44.1100 C   0  0  0  0  0  0  0  0  0  0  0  0
   46.5550   28.5710   44.1830 O   0  0  0  0  0  0  0  0  0  0  0  0
   44.7040   27.8220   45.1990 N   0  0  0  0  0  0  0  0  0  0  0  0
   43.4050   27.5430   45.1320 C   0  0  0  0  0  0  0  0  0  0  0  0
   42.8070   27.0860   46.1430 O   0  0  0  0  0  0  0  0  0  0  0  0
   37.7090   29.2920   42.0780 C   0  0  0  0  0  0  0  0  0  0  0  0
   38.2440   28.0000   42.1470 C   0  0  0  0  0  0  0  0  0  0  0  0
   37.7150   27.0180   41.3180 C   0  0  0  0  0  0  0  0  0  0  0  0
   36.6890   27.3930   40.4760 N   0  0  0  0  0  0  0  0  0  0  0  0
   36.2110   28.6450   40.4460 C   0  0  0  0  0  0  0  0  0  0  0  0
   36.7190   29.5820   41.2410 N   0  0  0  0  0  0  0  0  0  0  0  0
   38.1020   25.6070   41.2040 C   0  0  0  0  0  0  0  0  0  0  0  0
   38.2020   25.2280   39.7310 C   0  0  0  0  0  0  0  0  0  0  0  0
   38.0200   23.7470   39.7080 C   0  0  0  0  0  0  0  0  0  0  0  0
   36.9090   23.5540   40.7110 C   0  0  0  0  0  0  0  0  0  0  0  0
   37.0160   24.6700   41.6960 C   0  0  0  0  0  0  0  0  0  0  0  0
   35.1110   28.9360   39.5060 C   0  0  0  0  0  0  0  0  0  0  0  0
   35.3820   30.0630   38.7800 F   0  0  0  0  0  0  0  0  0  0  0  0
   34.8940   27.8650   38.6670 F   0  0  0  0  0  0  0  0  0  0  0  0
   33.9380   29.1840   40.2280 F   0  0  0  0  0  0  0  0  0  0  0  0
   42.7152   28.3831   41.9799 H   0  0  0  0  0  0  0  0  0  0  0  0
   45.1765   28.9416   42.0088 H   0  0  0  0  0  0  0  0  0  0  0  0
   45.2291   27.6669   46.0714 H   0  0  0  0  0  0  0  0  0  0  0  0
   38.1155   30.0807   42.7282 H   0  0  0  0  0  0  0  0  0  0  0  0
   39.0345   25.5102   41.7795 H   0  0  0  0  0  0  0  0  0  0  0  0
   37.4126   25.7250   39.1481 H   0  0  0  0  0  0  0  0  0  0  0  0
   39.1593   25.5368   39.2858 H   0  0  0  0  0  0  0  0  0  0  0  0
   37.7224   23.3960   38.7089 H   0  0  0  0  0  0  0  0  0  0  0  0
   38.9346   23.1832   39.9440 H   0  0  0  0  0  0  0  0  0  0  0  0
   35.9327   23.5880   40.2054 H   0  0  0  0  0  0  0  0  0  0  0  0
   36.9948   22.5779   41.2109 H   0  0  0  0  0  0  0  0  0  0  0  0
   37.2825   24.2728   42.6866 H   0  0  0  0  0  0  0  0  0  0  0  0
   36.0569   25.2010   41.7868 H   0  0  0  0  0  0  0  0  0  0  0  0
  1  2  2  0
  2  3  1  0
  4  6  1  0
  4  3  1  0
  5  1  1  0
  5  4  2  0
  6 12  1  0
  7  8  2  0
  7  6  1  0
  8  9  1  0
  9 10  2  0
  9 11  1  0
 12 11  1  0
 12 13  2  0
 14 15  2  0
 15  1  1  0
 16 15  1  0
 17 16  2  0
 18 17  1  0
 18 19  2  0
 19 14  1  0
 20 16  1  0
 20 24  1  0
 21 20  1  0
 22 21  1  0
 22 23  1  0
 23 24  1  0
 25 28  1  0
 25 18  1  0
 26 25  1  0
 27 25  1  0
  7 29  1  0
  8 30  1  0
 11 31  1  0
 14 32  1  0
 20 33  1  0
 21 34  1  0
 21 35  1  0
 22 36  1  0
 22 37  1  0
 23 38  1  0
 23 39  1  0
 24 40  1  0
 24 41  1  0
M  ISO  8  29  14  30  14  31   9  32  14  33  13  34  13  35  13  36  13
M  ISO  5  37  13  38  13  39  13  40  13  41  13
M  END
>  <minimizedAffinity>  (1) 
-5.83199358

>  <minimizedRMSD>  (1) 
2.65405583

$$$$
