
     RDKit          3D

 35 38  0  0  0  0  0  0  0  0999 V2000
   39.2050   30.1530   40.7190 C   0  0  0  0  0  0  0  0  0  0  0  0
   39.1440   28.8160   41.0690 C   0  0  0  0  0  0  0  0  0  0  0  0
   38.3460   27.9610   40.3030 C   0  0  0  0  0  0  0  0  0  0  0  0
   37.6600   28.4880   39.2400 N   0  0  0  0  0  0  0  0  0  0  0  0
   37.7580   29.8020   38.9450 C   0  0  0  0  0  0  0  0  0  0  0  0
   38.5250   30.6330   39.6800 N   0  0  0  0  0  0  0  0  0  0  0  0
   39.8410   28.1630   42.1850 C   0  0  0  0  0  0  0  0  0  0  0  0
   39.4360   27.8460   43.4170 N   0  0  0  0  0  0  0  0  0  0  0  0
   40.4250   27.2690   44.0510 O   0  0  0  0  0  0  0  0  0  0  0  0
   41.4820   27.1910   43.2770 C   0  0  0  0  0  0  0  0  0  0  0  0
   41.1330   27.7460   42.1070 N   0  0  0  0  0  0  0  0  0  0  0  0
   42.7830   26.6630   43.4910 N   0  0  0  0  0  0  0  0  0  0  0  0
   43.4170   26.2830   42.3570 C   0  0  0  0  0  0  0  0  0  0  0  0
   44.6950   25.7490   42.4140 C   0  0  0  0  0  0  0  0  0  0  0  0
   45.2250   25.6540   43.7020 C   0  0  0  0  0  0  0  0  0  0  0  0
   46.3810   25.1810   43.8570 O   0  0  0  0  0  0  0  0  0  0  0  0
   44.5660   26.0420   44.8020 N   0  0  0  0  0  0  0  0  0  0  0  0
   43.3290   26.5530   44.6980 C   0  0  0  0  0  0  0  0  0  0  0  0
   42.6890   26.9240   45.7000 O   0  0  0  0  0  0  0  0  0  0  0  0
   38.1710   26.5340   40.5350 C   0  0  0  0  0  0  0  0  0  0  0  0
   36.9940   26.2160   41.1930 C   0  0  0  0  0  0  0  0  0  0  0  0
   36.9520   24.8310   41.3510 C   0  0  0  0  0  0  0  0  0  0  0  0
   38.1310   24.3810   40.7650 C   0  0  0  0  0  0  0  0  0  0  0  0
   38.8060   25.4050   40.3060 O   0  0  0  0  0  0  0  0  0  0  0  0
   36.9870   30.2910   37.7820 C   0  0  0  0  0  0  0  0  0  0  0  0
   37.0980   31.6490   37.6640 F   0  0  0  0  0  0  0  0  0  0  0  0
   37.4270   29.6890   36.6160 F   0  0  0  0  0  0  0  0  0  0  0  0
   35.6280   30.0130   37.9730 F   0  0  0  0  0  0  0  0  0  0  0  0
   39.8302   30.8357   41.3133 H   0  0  0  0  0  0  0  0  0  0  0  0
   42.9153   26.3986   41.3849 H   0  0  0  0  0  0  0  0  0  0  0  0
   45.2461   25.4267   41.5182 H   0  0  0  0  0  0  0  0  0  0  0  0
   45.0084   25.9482   45.7274 H   0  0  0  0  0  0  0  0  0  0  0  0
   36.2282   26.9296   41.5310 H   0  0  0  0  0  0  0  0  0  0  0  0
   36.1650   24.2303   41.8304 H   0  0  0  0  0  0  0  0  0  0  0  0
   38.4468   23.3294   40.6978 H   0  0  0  0  0  0  0  0  0  0  0  0
  1  2  2  0
  2  7  1  0
  3 20  1  0
  3  2  1  0
  4  3  2  0
  5  4  1  0
  5  6  2  0
  6  1  1  0
  7  8  2  0
  8  9  1  0
 10 12  1  0
 10  9  1  0
 11  7  1  0
 11 10  2  0
 12 18  1  0
 13 14  2  0
 13 12  1  0
 14 15  1  0
 15 16  2  0
 15 17  1  0
 18 17  1  0
 18 19  2  0
 20 21  2  0
 21 22  1  0
 23 22  2  0
 24 20  1  0
 24 23  1  0
 25 28  1  0
 25  5  1  0
 26 25  1  0
 27 25  1  0
  1 29  1  0
 13 30  1  0
 14 31  1  0
 17 32  1  0
 21 33  1  0
 22 34  1  0
 23 35  1  0
M  ISO  7  29  14  30  14  31  14  32   9  33  14  34  14  35  14
M  END
>  <minimizedAffinity>  (1) 
-5.41469193

>  <minimizedRMSD>  (1) 
2.12593389

$$$$
