
     RDKit          3D

 34 37  0  0  0  0  0  0  0  0999 V2000
   38.9100   29.8410   40.6770 C   0  0  0  0  0  0  0  0  0  0  0  0
   38.9040   28.5250   41.0900 C   0  0  0  0  0  0  0  0  0  0  0  0
   38.1210   27.6070   40.3800 C   0  0  0  0  0  0  0  0  0  0  0  0
   37.4010   28.0790   39.3080 N   0  0  0  0  0  0  0  0  0  0  0  0
   37.4470   29.3700   38.9530 C   0  0  0  0  0  0  0  0  0  0  0  0
   38.1930   30.2370   39.6310 N   0  0  0  0  0  0  0  0  0  0  0  0
   39.6410   27.9420   42.2190 C   0  0  0  0  0  0  0  0  0  0  0  0
   39.2670   27.6620   43.4740 N   0  0  0  0  0  0  0  0  0  0  0  0
   40.2850   27.1460   44.1120 O   0  0  0  0  0  0  0  0  0  0  0  0
   41.3350   27.0700   43.3220 C   0  0  0  0  0  0  0  0  0  0  0  0
   40.9390   27.5650   42.1380 N   0  0  0  0  0  0  0  0  0  0  0  0
   42.6510   26.6000   43.5210 N   0  0  0  0  0  0  0  0  0  0  0  0
   43.2890   26.1910   42.4100 C   0  0  0  0  0  0  0  0  0  0  0  0
   44.5710   25.7130   42.4700 C   0  0  0  0  0  0  0  0  0  0  0  0
   45.1270   25.6960   43.7650 C   0  0  0  0  0  0  0  0  0  0  0  0
   46.3110   25.2690   43.9120 O   0  0  0  0  0  0  0  0  0  0  0  0
   44.4730   26.1080   44.8580 N   0  0  0  0  0  0  0  0  0  0  0  0
   43.2200   26.5640   44.7250 C   0  0  0  0  0  0  0  0  0  0  0  0
   42.5790   26.9570   45.7320 O   0  0  0  0  0  0  0  0  0  0  0  0
   38.0660   26.1770   40.7660 C   0  0  0  0  0  0  0  0  0  0  0  0
   38.9770   25.1640   40.2960 C   0  0  0  0  0  0  0  0  0  0  0  0
   38.3780   23.7160   41.1120 S   0  0  0  0  0  0  0  0  0  0  0  0
   36.9640   24.6730   41.9890 C   0  0  0  0  0  0  0  0  0  0  0  0
   37.0670   25.9540   41.6010 N   0  0  0  0  0  0  0  0  0  0  0  0
   36.6310   29.7600   37.7850 C   0  0  0  0  0  0  0  0  0  0  0  0
   36.9430   31.0570   37.4130 F   0  0  0  0  0  0  0  0  0  0  0  0
   36.8880   28.9290   36.7070 F   0  0  0  0  0  0  0  0  0  0  0  0
   35.2880   29.7410   38.1010 F   0  0  0  0  0  0  0  0  0  0  0  0
   39.5194   30.5758   41.2235 H   0  0  0  0  0  0  0  0  0  0  0  0
   42.7739   26.2411   41.4394 H   0  0  0  0  0  0  0  0  0  0  0  0
   45.1212   25.3707   41.5811 H   0  0  0  0  0  0  0  0  0  0  0  0
   44.9242   26.0751   45.7833 H   0  0  0  0  0  0  0  0  0  0  0  0
   39.8275   25.2662   39.6059 H   0  0  0  0  0  0  0  0  0  0  0  0
   36.2146   24.2532   42.6762 H   0  0  0  0  0  0  0  0  0  0  0  0
  1  2  2  0
  2  7  1  0
  3 20  1  0
  3  2  1  0
  4  3  2  0
  5  4  1  0
  5  6  2  0
  6  1  1  0
  7  8  2  0
  8  9  1  0
 10 12  1  0
 10  9  1  0
 11  7  1  0
 11 10  2  0
 12 18  1  0
 13 14  2  0
 13 12  1  0
 14 15  1  0
 15 16  2  0
 15 17  1  0
 18 17  1  0
 18 19  2  0
 20 24  1  0
 21 20  2  0
 21 22  1  0
 22 23  1  0
 24 23  2  0
 25 28  1  0
 25  5  1  0
 26 25  1  0
 27 25  1  0
  1 29  1  0
 13 30  1  0
 14 31  1  0
 17 32  1  0
 21 33  1  0
 23 34  1  0
M  ISO  6  29  14  30  14  31  14  32   9  33  14  34  14
M  END
>  <minimizedAffinity>  (1) 
-5.32775831

>  <minimizedRMSD>  (1) 
2.32996988

$$$$
