
     RDKit          3D

 35 38  0  0  0  0  0  0  0  0999 V2000
   39.3250   30.2570   40.6270 C   0  0  0  0  0  0  0  0  0  0  0  0
   39.2040   28.9340   40.9870 C   0  0  0  0  0  0  0  0  0  0  0  0
   38.3470   28.0880   40.2430 C   0  0  0  0  0  0  0  0  0  0  0  0
   37.6770   28.6540   39.1820 N   0  0  0  0  0  0  0  0  0  0  0  0
   37.8350   29.9620   38.8720 C   0  0  0  0  0  0  0  0  0  0  0  0
   38.6510   30.7540   39.5880 N   0  0  0  0  0  0  0  0  0  0  0  0
   39.8840   28.2550   42.0980 C   0  0  0  0  0  0  0  0  0  0  0  0
   39.4790   27.9410   43.3320 N   0  0  0  0  0  0  0  0  0  0  0  0
   40.4580   27.3320   43.9570 O   0  0  0  0  0  0  0  0  0  0  0  0
   41.4990   27.2260   43.1840 C   0  0  0  0  0  0  0  0  0  0  0  0
   41.1500   27.8000   42.0250 N   0  0  0  0  0  0  0  0  0  0  0  0
   42.7800   26.6600   43.3820 N   0  0  0  0  0  0  0  0  0  0  0  0
   43.4090   26.2730   42.2390 C   0  0  0  0  0  0  0  0  0  0  0  0
   44.6670   25.7040   42.2990 C   0  0  0  0  0  0  0  0  0  0  0  0
   45.2010   25.5760   43.5750 C   0  0  0  0  0  0  0  0  0  0  0  0
   46.3450   25.0660   43.7080 O   0  0  0  0  0  0  0  0  0  0  0  0
   44.5500   25.9690   44.6720 N   0  0  0  0  0  0  0  0  0  0  0  0
   43.3270   26.5180   44.5830 C   0  0  0  0  0  0  0  0  0  0  0  0
   42.7050   26.8910   45.5960 O   0  0  0  0  0  0  0  0  0  0  0  0
   38.0630   26.6750   40.4520 C   0  0  0  0  0  0  0  0  0  0  0  0
   37.0100   26.1940   41.2400 C   0  0  0  0  0  0  0  0  0  0  0  0
   37.0550   24.7980   41.2100 C   0  0  0  0  0  0  0  0  0  0  0  0
   38.1230   24.5020   40.4140 N   0  0  0  0  0  0  0  0  0  0  0  0
   38.7020   25.5940   39.9790 N   0  0  0  0  0  0  0  0  0  0  0  0
   37.0710   30.4720   37.7180 C   0  0  0  0  0  0  0  0  0  0  0  0
   37.1310   31.8390   37.6730 F   0  0  0  0  0  0  0  0  0  0  0  0
   37.5370   29.9460   36.5440 F   0  0  0  0  0  0  0  0  0  0  0  0
   35.7180   30.1350   37.8680 F   0  0  0  0  0  0  0  0  0  0  0  0
   39.9888   30.9161   41.2058 H   0  0  0  0  0  0  0  0  0  0  0  0
   42.9155   26.4133   41.2660 H   0  0  0  0  0  0  0  0  0  0  0  0
   45.2077   25.3754   41.3992 H   0  0  0  0  0  0  0  0  0  0  0  0
   44.9896   25.8502   45.5959 H   0  0  0  0  0  0  0  0  0  0  0  0
   36.2774   26.8067   41.7858 H   0  0  0  0  0  0  0  0  0  0  0  0
   36.3789   24.0932   41.7162 H   0  0  0  0  0  0  0  0  0  0  0  0
   38.4330   23.5467   40.1854 H   0  0  0  0  0  0  0  0  0  0  0  0
  1  2  2  0
  2  7  1  0
  3 20  1  0
  3  2  1  0
  4  3  2  0
  5  4  1  0
  5  6  2  0
  6  1  1  0
  7  8  2  0
  8  9  1  0
 10 12  1  0
 10  9  1  0
 11  7  1  0
 11 10  2  0
 12 18  1  0
 13 14  2  0
 13 12  1  0
 14 15  1  0
 15 16  2  0
 15 17  1  0
 18 17  1  0
 18 19  2  0
 20 21  1  0
 22 21  2  0
 23 22  1  0
 24 23  1  0
 24 20  2  0
 25 28  1  0
 25  5  1  0
 26 25  1  0
 27 25  1  0
  1 29  1  0
 13 30  1  0
 14 31  1  0
 17 32  1  0
 21 33  1  0
 22 34  1  0
 23 35  1  0
M  ISO  7  29  14  30  14  31  14  32   9  33  14  34  14  35   9
M  END
>  <minimizedAffinity>  (1) 
-5.2552371

>  <minimizedRMSD>  (1) 
2.1266706

$$$$
