
     RDKit          3D

 29 31  0  0  0  0  0  0  0  0999 V2000
   40.4000   28.8870   42.6030 C   0  0  0  0  0  0  0  0  0  0  0  0
   40.1340   27.7230   43.1950 N   0  0  0  0  0  0  0  0  0  0  0  0
   41.1630   27.3840   43.9410 O   0  0  0  0  0  0  0  0  0  0  0  0
   42.1020   28.2930   43.8550 C   0  0  0  0  0  0  0  0  0  0  0  0
   41.6420   29.2420   43.0210 N   0  0  0  0  0  0  0  0  0  0  0  0
   43.3790   28.3920   44.4530 N   0  0  0  0  0  0  0  0  0  0  0  0
   44.2660   29.1600   43.7670 C   0  0  0  0  0  0  0  0  0  0  0  0
   45.5440   29.3350   44.2450 C   0  0  0  0  0  0  0  0  0  0  0  0
   45.8270   28.6710   45.4550 C   0  0  0  0  0  0  0  0  0  0  0  0
   46.9790   28.7860   45.9540 O   0  0  0  0  0  0  0  0  0  0  0  0
   44.9220   27.9160   46.1100 N   0  0  0  0  0  0  0  0  0  0  0  0
   43.6920   27.7860   45.5900 C   0  0  0  0  0  0  0  0  0  0  0  0
   42.8330   27.0930   46.1730 O   0  0  0  0  0  0  0  0  0  0  0  0
   39.4500   31.0890   41.7060 C   0  0  0  0  0  0  0  0  0  0  0  0
   39.6230   29.7250   41.6750 C   0  0  0  0  0  0  0  0  0  0  0  0
   38.9960   28.9830   40.6430 C   0  0  0  0  0  0  0  0  0  0  0  0
   38.2490   29.6710   39.7280 N   0  0  0  0  0  0  0  0  0  0  0  0
   38.1130   31.0070   39.8050 C   0  0  0  0  0  0  0  0  0  0  0  0
   38.7110   31.7080   40.7860 N   0  0  0  0  0  0  0  0  0  0  0  0
   37.2870   31.6710   38.7730 C   0  0  0  0  0  0  0  0  0  0  0  0
   36.7160   32.8240   39.2920 F   0  0  0  0  0  0  0  0  0  0  0  0
   38.0400   31.9900   37.6730 F   0  0  0  0  0  0  0  0  0  0  0  0
   36.2230   30.8480   38.4300 F   0  0  0  0  0  0  0  0  0  0  0  0
   39.1100   27.5910   40.5240 O   0  0  0  0  0  0  0  0  0  0  0  0
   43.9611   29.6430   42.8269 H   0  0  0  0  0  0  0  0  0  0  0  0
   46.2910   29.9489   43.7205 H   0  0  0  0  0  0  0  0  0  0  0  0
   45.1703   27.4477   46.9932 H   0  0  0  0  0  0  0  0  0  0  0  0
   39.9289   31.6779   42.5022 H   0  0  0  0  0  0  0  0  0  0  0  0
   38.6522   27.1183   39.7844 H   0  0  0  0  0  0  0  0  0  0  0  0
  1  5  1  0
  1  2  2  0
  2  3  1  0
  4  3  1  0
  4  6  1  0
  5  4  2  0
  6 12  1  0
  7  8  2  0
  7  6  1  0
  8  9  1  0
  9 10  2  0
  9 11  1  0
 12 11  1  0
 12 13  2  0
 15 14  2  0
 15  1  1  0
 16 15  1  0
 17 18  1  0
 17 16  2  0
 18 19  2  0
 19 14  1  0
 20 21  1  0
 20 18  1  0
 22 20  1  0
 23 20  1  0
 24 16  1  0
  7 25  1  0
  8 26  1  0
 11 27  1  0
 14 28  1  0
 24 29  1  0
M  ISO  5  25  14  26  14  27   9  28  14  29   3
M  END
>  <minimizedAffinity>  (1) 
-4.72190952

>  <minimizedRMSD>  (1) 
0.0161975101

$$$$
