
     RDKit          3D

 31 33  0  0  0  0  0  0  0  0999 V2000
   40.1120   28.5530   42.6770 C   0  0  0  0  0  0  0  0  0  0  0  0
   39.7430   27.5900   43.5170 N   0  0  0  0  0  0  0  0  0  0  0  0
   40.8040   27.1550   44.1530 O   0  0  0  0  0  0  0  0  0  0  0  0
   41.8730   27.8060   43.7530 C   0  0  0  0  0  0  0  0  0  0  0  0
   41.4510   28.6790   42.8330 N   0  0  0  0  0  0  0  0  0  0  0  0
   43.2280   27.7040   44.1330 N   0  0  0  0  0  0  0  0  0  0  0  0
   44.1020   28.1070   43.1680 C   0  0  0  0  0  0  0  0  0  0  0  0
   45.4590   28.0630   43.3950 C   0  0  0  0  0  0  0  0  0  0  0  0
   45.8290   27.5810   44.6680 C   0  0  0  0  0  0  0  0  0  0  0  0
   47.0590   27.5120   44.9510 O   0  0  0  0  0  0  0  0  0  0  0  0
   44.9350   27.1880   45.6040 N   0  0  0  0  0  0  0  0  0  0  0  0
   43.6390   27.2580   45.3150 C   0  0  0  0  0  0  0  0  0  0  0  0
   42.7820   26.9040   46.1550 O   0  0  0  0  0  0  0  0  0  0  0  0
   38.8930   30.6690   41.9000 C   0  0  0  0  0  0  0  0  0  0  0  0
   39.3500   29.3830   41.7260 C   0  0  0  0  0  0  0  0  0  0  0  0
   39.0830   28.7370   40.5030 C   0  0  0  0  0  0  0  0  0  0  0  0
   38.3800   29.4270   39.5510 N   0  0  0  0  0  0  0  0  0  0  0  0
   37.9610   30.6870   39.7900 C   0  0  0  0  0  0  0  0  0  0  0  0
   38.2140   31.3000   40.9490 N   0  0  0  0  0  0  0  0  0  0  0  0
   37.2080   31.3510   38.7010 C   0  0  0  0  0  0  0  0  0  0  0  0
   36.7040   32.5580   39.1460 F   0  0  0  0  0  0  0  0  0  0  0  0
   38.0140   31.5710   37.6080 F   0  0  0  0  0  0  0  0  0  0  0  0
   36.1070   30.5670   38.3420 F   0  0  0  0  0  0  0  0  0  0  0  0
   39.5480   27.3300   40.2310 C   0  0  0  0  0  0  0  0  0  0  0  0
   43.7208   28.4696   42.2020 H   0  0  0  0  0  0  0  0  0  0  0  0
   46.1968   28.3789   42.6428 H   0  0  0  0  0  0  0  0  0  0  0  0
   45.2514   26.8419   46.5210 H   0  0  0  0  0  0  0  0  0  0  0  0
   39.0948   31.1868   42.8493 H   0  0  0  0  0  0  0  0  0  0  0  0
   39.7199   26.8098   41.1849 H   0  0  0  0  0  0  0  0  0  0  0  0
   38.7790   26.7946   39.6548 H   0  0  0  0  0  0  0  0  0  0  0  0
   40.4846   27.3583   39.6548 H   0  0  0  0  0  0  0  0  0  0  0  0
  1  5  1  0
  1  2  2  0
  2  3  1  0
  4  6  1  0
  4  3  1  0
  5  4  2  0
  6 12  1  0
  7  8  2  0
  7  6  1  0
  8  9  1  0
  9 10  2  0
  9 11  1  0
 12 11  1  0
 12 13  2  0
 15 14  2  0
 15  1  1  0
 16 15  1  0
 17 18  1  0
 17 16  2  0
 18 19  2  0
 19 14  1  0
 20 21  1  0
 20 18  1  0
 22 20  1  0
 23 20  1  0
 24 16  1  0
  7 25  1  0
  8 26  1  0
 11 27  1  0
 14 28  1  0
 24 29  1  0
 24 30  1  0
 24 31  1  0
M  ISO  7  25  14  26  14  27   9  28  14  29   8  30   8  31   8
M  END
>  <minimizedAffinity>  (1) 
-4.68453121

>  <minimizedRMSD>  (1) 
0.765955329

$$$$
