
     RDKit          3D

 40 42  0  0  0  0  0  0  0  0999 V2000
   40.1410   28.6530   42.5680 C   0  0  0  0  0  0  0  0  0  0  0  0
   39.7200   27.7850   43.4870 N   0  0  0  0  0  0  0  0  0  0  0  0
   40.7430   27.2860   44.1140 O   0  0  0  0  0  0  0  0  0  0  0  0
   41.8540   27.7870   43.6510 C   0  0  0  0  0  0  0  0  0  0  0  0
   41.4960   28.6490   42.6780 N   0  0  0  0  0  0  0  0  0  0  0  0
   43.2250   27.5980   43.9650 N   0  0  0  0  0  0  0  0  0  0  0  0
   44.0940   27.9280   42.9920 C   0  0  0  0  0  0  0  0  0  0  0  0
   45.4470   27.7830   43.2030 C   0  0  0  0  0  0  0  0  0  0  0  0
   45.8040   27.2890   44.4600 C   0  0  0  0  0  0  0  0  0  0  0  0
   47.0310   27.1400   44.7000 O   0  0  0  0  0  0  0  0  0  0  0  0
   44.9060   26.9650   45.4200 N   0  0  0  0  0  0  0  0  0  0  0  0
   43.6090   27.1240   45.1630 C   0  0  0  0  0  0  0  0  0  0  0  0
   42.7530   26.8380   46.0220 O   0  0  0  0  0  0  0  0  0  0  0  0
   39.2000   30.8420   41.7040 C   0  0  0  0  0  0  0  0  0  0  0  0
   39.4060   29.4720   41.6120 C   0  0  0  0  0  0  0  0  0  0  0  0
   38.8600   28.7730   40.5220 C   0  0  0  0  0  0  0  0  0  0  0  0
   38.1480   29.5370   39.6150 N   0  0  0  0  0  0  0  0  0  0  0  0
   37.9800   30.8580   39.7540 C   0  0  0  0  0  0  0  0  0  0  0  0
   38.5010   31.5050   40.7870 N   0  0  0  0  0  0  0  0  0  0  0  0
   37.1940   31.5410   38.7040 C   0  0  0  0  0  0  0  0  0  0  0  0
   36.6580   32.7040   39.2010 F   0  0  0  0  0  0  0  0  0  0  0  0
   37.9790   31.8200   37.6190 F   0  0  0  0  0  0  0  0  0  0  0  0
   36.1210   30.7340   38.3110 F   0  0  0  0  0  0  0  0  0  0  0  0
   38.9240   27.3150   40.2420 C   0  0  0  0  0  0  0  0  0  0  0  0
   40.3260   26.7770   40.1180 C   0  0  0  0  0  0  0  0  0  0  0  0
   38.3400   27.0850   38.8140 C   0  0  0  0  0  0  0  0  0  0  0  0
   38.0540   26.4720   41.1310 C   0  0  0  0  0  0  0  0  0  0  0  0
   43.7243   28.3128   42.0301 H   0  0  0  0  0  0  0  0  0  0  0  0
   46.1935   28.0380   42.4364 H   0  0  0  0  0  0  0  0  0  0  0  0
   45.2199   26.6025   46.3316 H   0  0  0  0  0  0  0  0  0  0  0  0
   39.6253   31.3925   42.5561 H   0  0  0  0  0  0  0  0  0  0  0  0
   40.7468   26.6155   41.1214 H   0  0  0  0  0  0  0  0  0  0  0  0
   40.3056   25.8228   39.5710 H   0  0  0  0  0  0  0  0  0  0  0  0
   40.9491   27.4999   39.5710 H   0  0  0  0  0  0  0  0  0  0  0  0
   37.3193   26.6830   38.8956 H   0  0  0  0  0  0  0  0  0  0  0  0
   38.3153   28.0406   38.2697 H   0  0  0  0  0  0  0  0  0  0  0  0
   38.9735   26.3692   38.2697 H   0  0  0  0  0  0  0  0  0  0  0  0
   38.2824   26.6933   42.1840 H   0  0  0  0  0  0  0  0  0  0  0  0
   36.9964   26.6978   40.9299 H   0  0  0  0  0  0  0  0  0  0  0  0
   38.2464   25.4078   40.9299 H   0  0  0  0  0  0  0  0  0  0  0  0
  1  5  1  0
  1  2  2  0
  2  3  1  0
  4  6  1  0
  4  3  1  0
  5  4  2  0
  6 12  1  0
  7  8  2  0
  7  6  1  0
  8  9  1  0
  9 10  2  0
  9 11  1  0
 12 11  1  0
 12 13  2  0
 15 14  2  0
 15  1  1  0
 16 15  1  0
 17 18  1  0
 17 16  2  0
 18 19  2  0
 19 14  1  0
 20 21  1  0
 20 18  1  0
 22 20  1  0
 23 20  1  0
 24 16  1  0
 24 27  1  0
 25 24  1  0
 26 24  1  0
  7 28  1  0
  8 29  1  0
 11 30  1  0
 14 31  1  0
 25 32  1  0
 25 33  1  0
 25 34  1  0
 26 35  1  0
 26 36  1  0
 26 37  1  0
 27 38  1  0
 27 39  1  0
 27 40  1  0
M  ISO  8  28  14  29  14  30   9  31  14  32   8  33   8  34   8  35   8
M  ISO  5  36   8  37   8  38   8  39   8  40   8
M  END
>  <minimizedAffinity>  (1) 
-4.77339649

>  <minimizedRMSD>  (1) 
0.86083889

$$$$
