
     RDKit          3D

 56 59  0  0  0  0  0  0  0  0999 V2000
   39.6770   30.9520   40.7670 C   0  0  0  0  0  0  0  0  0  0  0  0
   39.5420   29.5830   40.8710 C   0  0  0  0  0  0  0  0  0  0  0  0
   38.7850   28.8920   39.8930 C   0  0  0  0  0  0  0  0  0  0  0  0
   38.2480   29.6890   38.9120 N   0  0  0  0  0  0  0  0  0  0  0  0
   38.4080   31.0050   38.8570 C   0  0  0  0  0  0  0  0  0  0  0  0
   39.1170   31.6350   39.7780 N   0  0  0  0  0  0  0  0  0  0  0  0
   40.1120   28.7460   41.9140 C   0  0  0  0  0  0  0  0  0  0  0  0
   39.6440   28.3660   43.0870 N   0  0  0  0  0  0  0  0  0  0  0  0
   40.4830   27.6110   43.7020 O   0  0  0  0  0  0  0  0  0  0  0  0
   41.5550   27.4490   42.9700 C   0  0  0  0  0  0  0  0  0  0  0  0
   41.3340   28.1530   41.8530 N   0  0  0  0  0  0  0  0  0  0  0  0
   42.7770   26.7370   43.1310 N   0  0  0  0  0  0  0  0  0  0  0  0
   43.4350   26.4410   42.0050 C   0  0  0  0  0  0  0  0  0  0  0  0
   44.6290   25.7600   42.0710 C   0  0  0  0  0  0  0  0  0  0  0  0
   45.0540   25.4280   43.3630 C   0  0  0  0  0  0  0  0  0  0  0  0
   46.1430   24.8040   43.4860 O   0  0  0  0  0  0  0  0  0  0  0  0
   44.3610   25.7430   44.4940 N   0  0  0  0  0  0  0  0  0  0  0  0
   43.2130   26.4040   44.3640 C   0  0  0  0  0  0  0  0  0  0  0  0
   42.5550   26.7080   45.3690 O   0  0  0  0  0  0  0  0  0  0  0  0
   37.7630   31.7160   37.7330 C   0  0  0  0  0  0  0  0  0  0  0  0
   37.0590   32.7970   38.1980 F   0  0  0  0  0  0  0  0  0  0  0  0
   38.6940   32.1350   36.8280 F   0  0  0  0  0  0  0  0  0  0  0  0
   36.8480   30.8720   37.0920 F   0  0  0  0  0  0  0  0  0  0  0  0
   38.5120   27.4160   39.8230 C   0  0  0  0  0  0  0  0  0  0  0  0
   39.6910   26.5900   39.4540 C   0  0  0  0  0  0  0  0  0  0  0  0
   37.5800   27.2310   38.5670 C   0  0  0  0  0  0  0  0  0  0  0  0
   37.7220   26.9200   40.9760 C   0  0  0  0  0  0  0  0  0  0  0  0
   36.8660   25.7290   40.8820 C   0  0  0  0  0  0  0  0  0  0  0  0
   37.4080   24.9510   39.6530 C   0  0  0  0  0  0  0  0  0  0  0  0
   37.1400   23.4710   39.7870 C   0  0  0  0  0  0  0  0  0  0  0  0
   38.0200   22.8290   40.8480 C   0  0  0  0  0  0  0  0  0  0  0  0
   38.2280   23.8880   41.9100 C   0  0  0  0  0  0  0  0  0  0  0  0
   36.9680   24.7240   41.9920 C   0  0  0  0  0  0  0  0  0  0  0  0
   40.2647   31.4912   41.5245 H   0  0  0  0  0  0  0  0  0  0  0  0
   43.0234   26.7407   41.0299 H   0  0  0  0  0  0  0  0  0  0  0  0
   45.2076   25.4956   41.1736 H   0  0  0  0  0  0  0  0  0  0  0  0
   44.7160   25.4768   45.4235 H   0  0  0  0  0  0  0  0  0  0  0  0
   40.1928   26.2384   40.3676 H   0  0  0  0  0  0  0  0  0  0  0  0
   39.3611   25.7245   38.8606 H   0  0  0  0  0  0  0  0  0  0  0  0
   40.3918   27.1957   38.8606 H   0  0  0  0  0  0  0  0  0  0  0  0
   36.5518   27.0269   38.9003 H   0  0  0  0  0  0  0  0  0  0  0  0
   37.5938   28.1494   37.9617 H   0  0  0  0  0  0  0  0  0  0  0  0
   37.9435   26.3875   37.9617 H   0  0  0  0  0  0  0  0  0  0  0  0
   38.4453   26.7160   41.7792 H   0  0  0  0  0  0  0  0  0  0  0  0
   36.9833   27.7238   41.1111 H   0  0  0  0  0  0  0  0  0  0  0  0
   35.8313   26.1021   40.8698 H   0  0  0  0  0  0  0  0  0  0  0  0
   38.4930   25.1142   39.5740 H   0  0  0  0  0  0  0  0  0  0  0  0
   36.8958   25.3193   38.7519 H   0  0  0  0  0  0  0  0  0  0  0  0
   36.0854   23.3242   40.0632 H   0  0  0  0  0  0  0  0  0  0  0  0
   37.3673   22.9947   38.8219 H   0  0  0  0  0  0  0  0  0  0  0  0
   37.5203   21.9485   41.2782 H   0  0  0  0  0  0  0  0  0  0  0  0
   38.9764   22.4860   40.4265 H   0  0  0  0  0  0  0  0  0  0  0  0
   38.4220   23.4094   42.8812 H   0  0  0  0  0  0  0  0  0  0  0  0
   39.0902   24.5213   41.6538 H   0  0  0  0  0  0  0  0  0  0  0  0
   36.9629   25.2594   42.9529 H   0  0  0  0  0  0  0  0  0  0  0  0
   36.1101   24.0414   41.9018 H   0  0  0  0  0  0  0  0  0  0  0  0
  1  2  2  0
  2  7  1  0
  3  2  1  0
  4  3  2  0
  5  4  1  0
  5  6  2  0
  6  1  1  0
  7  8  2  0
  8  9  1  0
 10 12  1  0
 10  9  1  0
 11  7  1  0
 11 10  2  0
 12 18  1  0
 13 14  2  0
 13 12  1  0
 14 15  1  0
 15 16  2  0
 15 17  1  0
 18 17  1  0
 18 19  2  0
 20 21  1  0
 20  5  1  0
 22 20  1  0
 23 20  1  0
 24  3  1  0
 24 27  1  0
 25 24  1  0
 26 24  1  0
 28 27  1  0
 28 33  1  0
 29 30  1  0
 29 28  1  0
 30 31  1  0
 31 32  1  0
 32 33  1  0
  1 34  1  0
 13 35  1  0
 14 36  1  0
 17 37  1  0
 25 38  1  0
 25 39  1  0
 25 40  1  0
 26 41  1  0
 26 42  1  0
 26 43  1  0
 27 44  1  0
 27 45  1  0
 28 46  1  0
 29 47  1  0
 29 48  1  0
 30 49  1  0
 30 50  1  0
 31 51  1  0
 31 52  1  0
 32 53  1  0
 32 54  1  0
 33 55  1  0
 33 56  1  0
M  ISO  8  34  14  35  14  36  14  37   9  38   8  39   8  40   8  41   8
M  ISO  8  42   8  43   8  44   8  45   8  46  13  47  13  48  13  49  13
M  ISO  7  50  13  51  13  52  13  53  13  54  13  55  13  56  13
M  END
>  <minimizedAffinity>  (1) 
-5.93555307

>  <minimizedRMSD>  (1) 
1.43403888

$$$$
