
     RDKit          3D

 47 50  0  0  0  0  0  0  0  0999 V2000
   39.6290   30.9160   40.7830 C   0  0  0  0  0  0  0  0  0  0  0  0
   39.4930   29.5420   40.8840 C   0  0  0  0  0  0  0  0  0  0  0  0
   38.7250   28.8610   39.9140 C   0  0  0  0  0  0  0  0  0  0  0  0
   38.1680   29.6590   38.9320 N   0  0  0  0  0  0  0  0  0  0  0  0
   38.3380   30.9910   38.8920 C   0  0  0  0  0  0  0  0  0  0  0  0
   39.0580   31.6090   39.8040 N   0  0  0  0  0  0  0  0  0  0  0  0
   40.0750   28.7020   41.9110 C   0  0  0  0  0  0  0  0  0  0  0  0
   39.6190   28.3060   43.0820 N   0  0  0  0  0  0  0  0  0  0  0  0
   40.4700   27.5560   43.6850 O   0  0  0  0  0  0  0  0  0  0  0  0
   41.5410   27.4120   42.9450 C   0  0  0  0  0  0  0  0  0  0  0  0
   41.3060   28.1220   41.8360 N   0  0  0  0  0  0  0  0  0  0  0  0
   42.7730   26.7130   43.0950 N   0  0  0  0  0  0  0  0  0  0  0  0
   43.4300   26.4360   41.9670 C   0  0  0  0  0  0  0  0  0  0  0  0
   44.6330   25.7650   42.0250 C   0  0  0  0  0  0  0  0  0  0  0  0
   45.0660   25.4250   43.3060 C   0  0  0  0  0  0  0  0  0  0  0  0
   46.1600   24.8120   43.4010 O   0  0  0  0  0  0  0  0  0  0  0  0
   44.3760   25.7190   44.4450 N   0  0  0  0  0  0  0  0  0  0  0  0
   43.2200   26.3690   44.3240 C   0  0  0  0  0  0  0  0  0  0  0  0
   42.5670   26.6530   45.3350 O   0  0  0  0  0  0  0  0  0  0  0  0
   37.6780   31.7080   37.7790 C   0  0  0  0  0  0  0  0  0  0  0  0
   37.0420   32.8250   38.2500 F   0  0  0  0  0  0  0  0  0  0  0  0
   38.5820   32.0590   36.8240 F   0  0  0  0  0  0  0  0  0  0  0  0
   36.6950   30.8890   37.1970 F   0  0  0  0  0  0  0  0  0  0  0  0
   38.4510   27.4080   39.8360 C   0  0  0  0  0  0  0  0  0  0  0  0
   39.6410   26.5680   39.4680 C   0  0  0  0  0  0  0  0  0  0  0  0
   37.5270   27.2000   38.5760 C   0  0  0  0  0  0  0  0  0  0  0  0
   37.6640   26.8470   40.9540 C   0  0  0  0  0  0  0  0  0  0  0  0
   37.6290   25.3470   40.7970 C   0  0  0  0  0  0  0  0  0  0  0  0
   36.6670   24.6080   40.1580 C   0  0  0  0  0  0  0  0  0  0  0  0
   36.8160   23.2440   40.1160 C   0  0  0  0  0  0  0  0  0  0  0  0
   37.9090   22.6460   40.7040 C   0  0  0  0  0  0  0  0  0  0  0  0
   38.8190   24.1700   41.3870 S   0  0  0  0  0  0  0  0  0  0  0  0
   40.2277   31.4498   41.5358 H   0  0  0  0  0  0  0  0  0  0  0  0
   43.0138   26.7415   40.9957 H   0  0  0  0  0  0  0  0  0  0  0  0
   45.2111   25.5152   41.1231 H   0  0  0  0  0  0  0  0  0  0  0  0
   44.7378   25.4468   45.3702 H   0  0  0  0  0  0  0  0  0  0  0  0
   40.1390   26.2165   40.3837 H   0  0  0  0  0  0  0  0  0  0  0  0
   39.3097   25.7025   38.8754 H   0  0  0  0  0  0  0  0  0  0  0  0
   40.3456   27.1700   38.8754 H   0  0  0  0  0  0  0  0  0  0  0  0
   36.5033   26.9696   38.9061 H   0  0  0  0  0  0  0  0  0  0  0  0
   37.5192   28.1189   37.9713 H   0  0  0  0  0  0  0  0  0  0  0  0
   37.9137   26.3664   37.9713 H   0  0  0  0  0  0  0  0  0  0  0  0
   38.1366   27.1106   41.9117 H   0  0  0  0  0  0  0  0  0  0  0  0
   36.6425   27.2550   40.9431 H   0  0  0  0  0  0  0  0  0  0  0  0
   35.7984   25.0954   39.6911 H   0  0  0  0  0  0  0  0  0  0  0  0
   36.0594   22.6258   39.6107 H   0  0  0  0  0  0  0  0  0  0  0  0
   38.1803   21.5816   40.7623 H   0  0  0  0  0  0  0  0  0  0  0  0
  1  2  2  0
  2  7  1  0
  3  2  1  0
  4  3  2  0
  5  4  1  0
  5  6  2  0
  6  1  1  0
  7  8  2  0
  8  9  1  0
 10 12  1  0
 10  9  1  0
 11  7  1  0
 11 10  2  0
 12 18  1  0
 13 14  2  0
 13 12  1  0
 14 15  1  0
 15 16  2  0
 15 17  1  0
 18 17  1  0
 18 19  2  0
 20 21  1  0
 20  5  1  0
 22 20  1  0
 23 20  1  0
 24  3  1  0
 24 27  1  0
 25 24  1  0
 26 24  1  0
 28 27  1  0
 28 32  1  0
 29 28  2  0
 30 29  1  0
 30 31  2  0
 31 32  1  0
  1 33  1  0
 13 34  1  0
 14 35  1  0
 17 36  1  0
 25 37  1  0
 25 38  1  0
 25 39  1  0
 26 40  1  0
 26 41  1  0
 26 42  1  0
 27 43  1  0
 27 44  1  0
 29 45  1  0
 30 46  1  0
 31 47  1  0
M  ISO  8  33  14  34  14  35  14  36   9  37   8  38   8  39   8  40   8
M  ISO  7  41   8  42   8  43   8  44   8  45  14  46  14  47  14
M  END
>  <minimizedAffinity>  (1) 
-5.43519068

>  <minimizedRMSD>  (1) 
1.25747979

$$$$
