
     RDKit          3D

 54 57  0  0  0  0  0  0  0  0999 V2000
   39.3160   31.0200   41.7940 C   0  0  0  0  0  0  0  0  0  0  0  0
   39.5140   29.6590   41.6690 C   0  0  0  0  0  0  0  0  0  0  0  0
   38.9580   28.9910   40.5580 C   0  0  0  0  0  0  0  0  0  0  0  0
   38.2470   29.8060   39.6820 N   0  0  0  0  0  0  0  0  0  0  0  0
   38.0880   31.1140   39.8560 C   0  0  0  0  0  0  0  0  0  0  0  0
   38.6200   31.7210   40.9060 N   0  0  0  0  0  0  0  0  0  0  0  0
   40.2500   28.8120   42.5800 C   0  0  0  0  0  0  0  0  0  0  0  0
   39.8520   27.8930   43.4390 N   0  0  0  0  0  0  0  0  0  0  0  0
   40.8510   27.3650   44.0590 O   0  0  0  0  0  0  0  0  0  0  0  0
   41.9670   27.9030   43.6460 C   0  0  0  0  0  0  0  0  0  0  0  0
   41.5960   28.8040   42.7270 N   0  0  0  0  0  0  0  0  0  0  0  0
   43.3390   27.7260   43.9600 N   0  0  0  0  0  0  0  0  0  0  0  0
   44.2150   28.1320   43.0250 C   0  0  0  0  0  0  0  0  0  0  0  0
   45.5640   28.0080   43.2550 C   0  0  0  0  0  0  0  0  0  0  0  0
   45.9130   27.4490   44.4910 C   0  0  0  0  0  0  0  0  0  0  0  0
   47.1380   27.3190   44.7480 O   0  0  0  0  0  0  0  0  0  0  0  0
   45.0000   27.0480   45.4160 N   0  0  0  0  0  0  0  0  0  0  0  0
   43.7090   27.1900   45.1400 C   0  0  0  0  0  0  0  0  0  0  0  0
   42.8500   26.8330   45.9630 O   0  0  0  0  0  0  0  0  0  0  0  0
   37.3040   31.8410   38.8380 C   0  0  0  0  0  0  0  0  0  0  0  0
   36.7370   32.9610   39.3910 F   0  0  0  0  0  0  0  0  0  0  0  0
   38.0910   32.2000   37.7850 F   0  0  0  0  0  0  0  0  0  0  0  0
   36.2580   31.0390   38.3850 F   0  0  0  0  0  0  0  0  0  0  0  0
   39.0190   27.5300   40.2070 C   0  0  0  0  0  0  0  0  0  0  0  0
   40.4340   27.0610   39.9590 C   0  0  0  0  0  0  0  0  0  0  0  0
   38.3370   27.3830   38.8150 C   0  0  0  0  0  0  0  0  0  0  0  0
   38.2170   26.6760   41.1080 C   0  0  0  0  0  0  0  0  0  0  0  0
   37.9040   25.3500   40.8590 N   0  0  0  0  0  0  0  0  0  0  0  0
   39.1300   24.5550   40.9180 C   0  0  0  0  0  0  0  0  0  0  0  0
   38.8890   23.1470   40.4240 C   0  0  0  0  0  0  0  0  0  0  0  0
   37.6140   22.7050   40.9000 N   0  0  0  0  0  0  0  0  0  0  0  0
   36.5780   23.4350   40.2440 C   0  0  0  0  0  0  0  0  0  0  0  0
   36.9500   24.8950   39.9460 C   0  0  0  0  0  0  0  0  0  0  0  0
   39.7500   31.5420   42.6595 H   0  0  0  0  0  0  0  0  0  0  0  0
   43.8534   28.5619   42.0793 H   0  0  0  0  0  0  0  0  0  0  0  0
   46.3176   28.3257   42.5194 H   0  0  0  0  0  0  0  0  0  0  0  0
   45.3040   26.6423   46.3126 H   0  0  0  0  0  0  0  0  0  0  0  0
   40.9389   26.8937   40.9219 H   0  0  0  0  0  0  0  0  0  0  0  0
   40.4140   26.1214   39.3873 H   0  0  0  0  0  0  0  0  0  0  0  0
   40.9791   27.8265   39.3873 H   0  0  0  0  0  0  0  0  0  0  0  0
   37.2701   27.1530   38.9519 H   0  0  0  0  0  0  0  0  0  0  0  0
   38.4403   28.3240   38.2549 H   0  0  0  0  0  0  0  0  0  0  0  0
   38.8188   26.5681   38.2549 H   0  0  0  0  0  0  0  0  0  0  0  0
   38.7503   26.6784   42.0701 H   0  0  0  0  0  0  0  0  0  0  0  0
   37.2264   27.1425   41.0027 H   0  0  0  0  0  0  0  0  0  0  0  0
   39.8971   25.0302   40.2889 H   0  0  0  0  0  0  0  0  0  0  0  0
   39.4649   24.5058   41.9646 H   0  0  0  0  0  0  0  0  0  0  0  0
   39.6773   22.4812   40.8050 H   0  0  0  0  0  0  0  0  0  0  0  0
   38.9053   23.1280   39.3243 H   0  0  0  0  0  0  0  0  0  0  0  0
   37.5037   21.7003   40.7017 H   0  0  0  0  0  0  0  0  0  0  0  0
   36.3478   22.9334   39.2925 H   0  0  0  0  0  0  0  0  0  0  0  0
   35.7149   23.4542   40.9257 H   0  0  0  0  0  0  0  0  0  0  0  0
   37.3607   24.9639   38.9279 H   0  0  0  0  0  0  0  0  0  0  0  0
   36.0476   25.5181   40.0323 H   0  0  0  0  0  0  0  0  0  0  0  0
  2  1  2  0
  2  7  1  0
  3  2  1  0
  4  5  1  0
  4  3  2  0
  5  6  2  0
  6  1  1  0
  7 11  1  0
  7  8  2  0
  8  9  1  0
 10 12  1  0
 10  9  1  0
 11 10  2  0
 12 18  1  0
 13 14  2  0
 13 12  1  0
 14 15  1  0
 15 16  2  0
 15 17  1  0
 18 17  1  0
 18 19  2  0
 20 21  1  0
 20  5  1  0
 22 20  1  0
 23 20  1  0
 24  3  1  0
 24 27  1  0
 25 24  1  0
 26 24  1  0
 28 29  1  0
 28 27  1  0
 30 31  1  0
 30 29  1  0
 32 31  1  0
 33 32  1  0
 33 28  1  0
  1 34  1  0
 13 35  1  0
 14 36  1  0
 17 37  1  0
 25 38  1  0
 25 39  1  0
 25 40  1  0
 26 41  1  0
 26 42  1  0
 26 43  1  0
 27 44  1  0
 27 45  1  0
 29 46  1  0
 29 47  1  0
 30 48  1  0
 30 49  1  0
 31 50  1  0
 32 51  1  0
 32 52  1  0
 33 53  1  0
 33 54  1  0
M  ISO  8  34  14  35  14  36  14  37   9  38   8  39   8  40   8  41   8
M  ISO  8  42   8  43   8  44   8  45   8  46  13  47  13  48  13  49  13
M  ISO  5  50   5  51  13  52  13  53  13  54  13
M  END
>  <minimizedAffinity>  (1) 
-5.30908251

>  <minimizedRMSD>  (1) 
0.31688112

$$$$
