
     RDKit          3D

 47 50  0  0  0  0  0  0  0  0999 V2000
   39.6480   30.9120   40.7740 C   0  0  0  0  0  0  0  0  0  0  0  0
   39.4950   29.5390   40.8850 C   0  0  0  0  0  0  0  0  0  0  0  0
   38.7110   28.8620   39.9230 C   0  0  0  0  0  0  0  0  0  0  0  0
   38.1650   29.6660   38.9420 N   0  0  0  0  0  0  0  0  0  0  0  0
   38.3470   30.9860   38.8860 C   0  0  0  0  0  0  0  0  0  0  0  0
   39.0800   31.6040   39.7910 N   0  0  0  0  0  0  0  0  0  0  0  0
   40.0730   28.7020   41.9160 C   0  0  0  0  0  0  0  0  0  0  0  0
   39.6090   28.3110   43.0860 N   0  0  0  0  0  0  0  0  0  0  0  0
   40.4590   27.5620   43.6980 O   0  0  0  0  0  0  0  0  0  0  0  0
   41.5320   27.4130   42.9690 C   0  0  0  0  0  0  0  0  0  0  0  0
   41.3070   28.1230   41.8450 N   0  0  0  0  0  0  0  0  0  0  0  0
   42.7640   26.7170   43.1200 N   0  0  0  0  0  0  0  0  0  0  0  0
   43.4210   26.4260   41.9950 C   0  0  0  0  0  0  0  0  0  0  0  0
   44.6230   25.7610   42.0590 C   0  0  0  0  0  0  0  0  0  0  0  0
   45.0610   25.4400   43.3450 C   0  0  0  0  0  0  0  0  0  0  0  0
   46.1580   24.8310   43.4440 O   0  0  0  0  0  0  0  0  0  0  0  0
   44.3710   25.7500   44.4750 N   0  0  0  0  0  0  0  0  0  0  0  0
   43.2120   26.3940   44.3500 C   0  0  0  0  0  0  0  0  0  0  0  0
   42.5500   26.6940   45.3630 O   0  0  0  0  0  0  0  0  0  0  0  0
   37.6900   31.7000   37.7690 C   0  0  0  0  0  0  0  0  0  0  0  0
   37.0540   32.8170   38.2360 F   0  0  0  0  0  0  0  0  0  0  0  0
   38.6140   32.0670   36.8210 F   0  0  0  0  0  0  0  0  0  0  0  0
   36.7180   30.8820   37.1860 F   0  0  0  0  0  0  0  0  0  0  0  0
   38.4180   27.4160   39.8600 C   0  0  0  0  0  0  0  0  0  0  0  0
   39.6070   26.5570   39.5060 C   0  0  0  0  0  0  0  0  0  0  0  0
   37.4870   27.2060   38.6090 C   0  0  0  0  0  0  0  0  0  0  0  0
   37.6240   26.8760   40.9880 C   0  0  0  0  0  0  0  0  0  0  0  0
   37.4450   25.4070   40.8580 N   0  0  0  0  0  0  0  0  0  0  0  0
   38.2810   24.5790   41.5110 C   0  0  0  0  0  0  0  0  0  0  0  0
   37.8990   23.2950   41.2210 C   0  0  0  0  0  0  0  0  0  0  0  0
   36.8390   23.3680   40.3970 N   0  0  0  0  0  0  0  0  0  0  0  0
   36.5570   24.6640   40.1720 C   0  0  0  0  0  0  0  0  0  0  0  0
   40.2564   31.4441   41.5201 H   0  0  0  0  0  0  0  0  0  0  0  0
   43.0024   26.7171   41.0203 H   0  0  0  0  0  0  0  0  0  0  0  0
   45.1994   25.5001   41.1592 H   0  0  0  0  0  0  0  0  0  0  0  0
   44.7353   25.4934   45.4036 H   0  0  0  0  0  0  0  0  0  0  0  0
   40.0931   26.2058   40.4281 H   0  0  0  0  0  0  0  0  0  0  0  0
   39.2713   25.6915   38.9159 H   0  0  0  0  0  0  0  0  0  0  0  0
   40.3233   27.1475   38.9159 H   0  0  0  0  0  0  0  0  0  0  0  0
   36.4657   26.9756   38.9465 H   0  0  0  0  0  0  0  0  0  0  0  0
   37.4746   28.1239   38.0030 H   0  0  0  0  0  0  0  0  0  0  0  0
   37.8698   26.3716   38.0030 H   0  0  0  0  0  0  0  0  0  0  0  0
   38.1461   27.0926   41.9316 H   0  0  0  0  0  0  0  0  0  0  0  0
   36.6324   27.3521   40.9781 H   0  0  0  0  0  0  0  0  0  0  0  0
   39.1180   24.8780   42.1591 H   0  0  0  0  0  0  0  0  0  0  0  0
   38.3723   22.3746   41.5936 H   0  0  0  0  0  0  0  0  0  0  0  0
   35.7439   25.0486   39.5389 H   0  0  0  0  0  0  0  0  0  0  0  0
  1  2  2  0
  2  7  1  0
  3  2  1  0
  4  3  2  0
  5  4  1  0
  5  6  2  0
  6  1  1  0
  7  8  2  0
  8  9  1  0
 10 12  1  0
 10  9  1  0
 11  7  1  0
 11 10  2  0
 12 18  1  0
 13 14  2  0
 13 12  1  0
 14 15  1  0
 15 16  2  0
 15 17  1  0
 18 17  1  0
 18 19  2  0
 20 21  1  0
 20  5  1  0
 22 20  1  0
 23 20  1  0
 24  3  1  0
 24 27  1  0
 25 24  1  0
 26 24  1  0
 28 27  1  0
 28 29  1  0
 30 29  2  0
 31 30  1  0
 32 31  2  0
 32 28  1  0
  1 33  1  0
 13 34  1  0
 14 35  1  0
 17 36  1  0
 25 37  1  0
 25 38  1  0
 25 39  1  0
 26 40  1  0
 26 41  1  0
 26 42  1  0
 27 43  1  0
 27 44  1  0
 29 45  1  0
 30 46  1  0
 32 47  1  0
M  ISO  8  33  14  34  14  35  14  36   9  37   8  38   8  39   8  40   8
M  ISO  7  41   8  42   8  43   8  44   8  45  14  46  14  47  14
M  END
>  <minimizedAffinity>  (1) 
-5.29816151

>  <minimizedRMSD>  (1) 
1.2604804

$$$$
