
     RDKit          3D

 46 49  0  0  0  0  0  0  0  0999 V2000
   39.7040   31.0260   40.6470 C   0  0  0  0  0  0  0  0  0  0  0  0
   39.4530   29.6750   40.8290 C   0  0  0  0  0  0  0  0  0  0  0  0
   38.6020   29.0230   39.9290 C   0  0  0  0  0  0  0  0  0  0  0  0
   38.0800   29.8070   38.9160 N   0  0  0  0  0  0  0  0  0  0  0  0
   38.3600   31.1130   38.7920 C   0  0  0  0  0  0  0  0  0  0  0  0
   39.1610   31.7130   39.6460 N   0  0  0  0  0  0  0  0  0  0  0  0
   39.9940   28.8480   41.8860 C   0  0  0  0  0  0  0  0  0  0  0  0
   39.5120   28.5060   43.0640 N   0  0  0  0  0  0  0  0  0  0  0  0
   40.3320   27.7420   43.6970 O   0  0  0  0  0  0  0  0  0  0  0  0
   41.4030   27.5340   42.9710 C   0  0  0  0  0  0  0  0  0  0  0  0
   41.2070   28.2170   41.8380 N   0  0  0  0  0  0  0  0  0  0  0  0
   42.6060   26.7940   43.1530 N   0  0  0  0  0  0  0  0  0  0  0  0
   43.2690   26.4670   42.0430 C   0  0  0  0  0  0  0  0  0  0  0  0
   44.4430   25.7540   42.1340 C   0  0  0  0  0  0  0  0  0  0  0  0
   44.8480   25.4270   43.4330 C   0  0  0  0  0  0  0  0  0  0  0  0
   45.9170   24.7750   43.5620 O   0  0  0  0  0  0  0  0  0  0  0  0
   44.1490   25.7740   44.5370 N   0  0  0  0  0  0  0  0  0  0  0  0
   43.0250   26.4600   44.3950 C   0  0  0  0  0  0  0  0  0  0  0  0
   42.3650   26.7920   45.3900 O   0  0  0  0  0  0  0  0  0  0  0  0
   37.7240   31.8180   37.6580 C   0  0  0  0  0  0  0  0  0  0  0  0
   37.0420   32.9120   38.1130 F   0  0  0  0  0  0  0  0  0  0  0  0
   38.6710   32.2260   36.7510 F   0  0  0  0  0  0  0  0  0  0  0  0
   36.7990   30.9880   37.0260 F   0  0  0  0  0  0  0  0  0  0  0  0
   38.1910   27.5960   39.9330 C   0  0  0  0  0  0  0  0  0  0  0  0
   39.3250   26.6280   39.6490 C   0  0  0  0  0  0  0  0  0  0  0  0
   37.2710   27.3820   38.6760 C   0  0  0  0  0  0  0  0  0  0  0  0
   37.3500   27.1740   41.0660 C   0  0  0  0  0  0  0  0  0  0  0  0
   37.5740   25.7480   41.4190 N   0  0  0  0  0  0  0  0  0  0  0  0
   36.8850   24.6730   40.9330 C   0  0  0  0  0  0  0  0  0  0  0  0
   37.4160   23.5900   41.5160 N   0  0  0  0  0  0  0  0  0  0  0  0
   38.4220   23.9600   42.3590 C   0  0  0  0  0  0  0  0  0  0  0  0
   38.4810   25.2890   42.2660 N   0  0  0  0  0  0  0  0  0  0  0  0
   40.3715   31.5448   41.3507 H   0  0  0  0  0  0  0  0  0  0  0  0
   42.8793   26.7658   41.0587 H   0  0  0  0  0  0  0  0  0  0  0  0
   45.0231   25.4613   41.2464 H   0  0  0  0  0  0  0  0  0  0  0  0
   44.4853   25.5090   45.4738 H   0  0  0  0  0  0  0  0  0  0  0  0
   39.7465   26.2682   40.5992 H   0  0  0  0  0  0  0  0  0  0  0  0
   38.9420   25.7740   39.0710 H   0  0  0  0  0  0  0  0  0  0  0  0
   40.1083   27.1403   39.0710 H   0  0  0  0  0  0  0  0  0  0  0  0
   36.2489   27.1443   39.0059 H   0  0  0  0  0  0  0  0  0  0  0  0
   37.2567   28.3008   38.0714 H   0  0  0  0  0  0  0  0  0  0  0  0
   37.6637   26.5512   38.0714 H   0  0  0  0  0  0  0  0  0  0  0  0
   37.5894   27.7987   41.9392 H   0  0  0  0  0  0  0  0  0  0  0  0
   36.2965   27.2919   40.7722 H   0  0  0  0  0  0  0  0  0  0  0  0
   36.0586   24.6928   40.2073 H   0  0  0  0  0  0  0  0  0  0  0  0
   39.0490   23.3043   42.9810 H   0  0  0  0  0  0  0  0  0  0  0  0
  1  2  2  0
  2  7  1  0
  3 24  1  0
  3  2  1  0
  4  3  2  0
  5  4  1  0
  5  6  2  0
  6  1  1  0
  7  8  2  0
  8  9  1  0
 10 12  1  0
 10  9  1  0
 11  7  1  0
 11 10  2  0
 12 18  1  0
 13 14  2  0
 13 12  1  0
 14 15  1  0
 15 16  2  0
 15 17  1  0
 18 17  1  0
 18 19  2  0
 20 21  1  0
 20  5  1  0
 22 20  1  0
 23 20  1  0
 24 27  1  0
 25 24  1  0
 26 24  1  0
 27 28  1  0
 28 32  1  0
 29 28  1  0
 29 30  2  0
 30 31  1  0
 32 31  2  0
  1 33  1  0
 13 34  1  0
 14 35  1  0
 17 36  1  0
 25 37  1  0
 25 38  1  0
 25 39  1  0
 26 40  1  0
 26 41  1  0
 26 42  1  0
 27 43  1  0
 27 44  1  0
 29 45  1  0
 31 46  1  0
M  ISO  8  33  14  34  14  35  14  36   9  37   8  38   8  39   8  40   8
M  ISO  6  41   8  42   8  43   8  44   8  45  14  46  14
M  END
>  <minimizedAffinity>  (1) 
-5.27292871

>  <minimizedRMSD>  (1) 
1.4596386

$$$$
