
     RDKit          3D

 13 13  0  0  0  0  0  0  0  0999 V2000
   37.1420   29.1590   42.0180 C   0  0  0  0  0  0  0  0  0  0  0  0
   36.7820   28.0650   41.2180 C   0  0  0  0  0  0  0  0  0  0  0  0
   37.0460   26.7790   41.7310 C   0  0  0  0  0  0  0  0  0  0  0  0
   37.6280   26.6960   42.9580 N   0  0  0  0  0  0  0  0  0  0  0  0
   37.9600   27.7720   43.7000 C   0  0  0  0  0  0  0  0  0  0  0  0
   37.7100   29.0150   43.2160 N   0  0  0  0  0  0  0  0  0  0  0  0
   36.8480   30.4690   41.4440 C   0  0  0  0  0  0  0  0  0  0  0  0
   37.7840   31.1600   40.9810 O   0  0  0  0  0  0  0  0  0  0  0  0
   35.5670   30.9990   41.3850 O   0  0  0  0  0  0  0  0  0  0  0  0
   36.3137   28.2045   40.2325 H   0  0  0  0  0  0  0  0  0  0  0  0
   36.7905   25.8745   41.1596 H   0  0  0  0  0  0  0  0  0  0  0  0
   38.4284   27.6436   44.6870 H   0  0  0  0  0  0  0  0  0  0  0  0
   35.4190   31.8927   40.9856 H   0  0  0  0  0  0  0  0  0  0  0  0
  1  6  2  0
  2  3  2  0
  2  1  1  0
  3  4  1  0
  4  5  2  0
  6  5  1  0
  7  1  1  0
  8  7  2  0
  9  7  1  0
  2 10  1  0
  3 11  1  0
  5 12  1  0
  9 13  1  0
M  ISO  4  10  14  11  14  12  14  13   3
M  END
>  <minimizedAffinity>  (1) 
-3.57451057

>  <minimizedRMSD>  (1) 
3.22874308

$$$$
