
     RDKit          3D

 25 26  0  0  0  0  0  0  0  0999 V2000
   37.6490   29.4640   40.0670 C   0  0  0  0  0  0  0  0  0  0  0  0
   38.4970   30.5790   39.9770 C   0  0  0  0  0  0  0  0  0  0  0  0
   38.2650   31.5010   38.9580 C   0  0  0  0  0  0  0  0  0  0  0  0
   37.2260   31.2680   38.1040 N   0  0  0  0  0  0  0  0  0  0  0  0
   36.4350   30.1870   38.2230 C   0  0  0  0  0  0  0  0  0  0  0  0
   36.6450   29.2940   39.1950 N   0  0  0  0  0  0  0  0  0  0  0  0
   37.7630   28.4400   41.0530 N   0  0  0  0  0  0  0  0  0  0  0  0
   36.6760   27.6980   41.6130 C   0  0  0  0  0  0  0  0  0  0  0  0
   36.6150   27.5490   43.0750 C   0  0  0  0  0  0  0  0  0  0  0  0
   37.8890   27.5950   43.8340 C   0  0  0  0  0  0  0  0  0  0  0  0
   38.9760   28.3670   43.1380 C   0  0  0  0  0  0  0  0  0  0  0  0
   38.9920   27.9810   41.6530 C   0  0  0  0  0  0  0  0  0  0  0  0
   39.3217   30.7211   40.6909 H   0  0  0  0  0  0  0  0  0  0  0  0
   38.9012   32.3913   38.8451 H   0  0  0  0  0  0  0  0  0  0  0  0
   35.6076   30.0364   37.5139 H   0  0  0  0  0  0  0  0  0  0  0  0
   35.7461   28.1933   41.2968 H   0  0  0  0  0  0  0  0  0  0  0  0
   36.8257   26.6736   41.2412 H   0  0  0  0  0  0  0  0  0  0  0  0
   35.9758   28.3573   43.4597 H   0  0  0  0  0  0  0  0  0  0  0  0
   36.2390   26.5271   43.2314 H   0  0  0  0  0  0  0  0  0  0  0  0
   37.6964   28.0671   44.8087 H   0  0  0  0  0  0  0  0  0  0  0  0
   38.2427   26.5583   43.9344 H   0  0  0  0  0  0  0  0  0  0  0  0
   38.7831   29.4455   43.2365 H   0  0  0  0  0  0  0  0  0  0  0  0
   39.9490   28.1307   43.5934 H   0  0  0  0  0  0  0  0  0  0  0  0
   39.0692   26.8882   41.5534 H   0  0  0  0  0  0  0  0  0  0  0  0
   39.8548   28.4425   41.1505 H   0  0  0  0  0  0  0  0  0  0  0  0
  1  7  1  0
  2  1  2  0
  3  2  1  0
  4  5  1  0
  4  3  2  0
  5  6  2  0
  6  1  1  0
  7  8  1  0
  7 12  1  0
  8  9  1  0
  9 10  1  0
 11 10  1  0
 12 11  1  0
  2 13  1  0
  3 14  1  0
  5 15  1  0
  8 16  1  0
  8 17  1  0
  9 18  1  0
  9 19  1  0
 10 20  1  0
 10 21  1  0
 11 22  1  0
 11 23  1  0
 12 24  1  0
 12 25  1  0
M  ISO  8  13  14  14  14  15  14  16  13  17  13  18  13  19  13  20  13
M  ISO  5  21  13  22  13  23  13  24  13  25  13
M  END
>  <minimizedAffinity>  (1) 
-3.48075485

>  <minimizedRMSD>  (1) 
4.4463129

$$$$
