
     RDKit          3D

 35 37  0  0  0  0  0  0  0  0999 V2000
   37.5330   30.7990   40.9850 C   0  0  0  0  0  0  0  0  0  0  0  0
   36.4670   28.6110   41.4600 C   0  0  0  0  0  0  0  0  0  0  0  0
   37.3730   29.6180   41.8170 C   0  0  0  0  0  0  0  0  0  0  0  0
   38.1040   29.4410   42.9910 C   0  0  0  0  0  0  0  0  0  0  0  0
   37.8970   28.3090   43.7170 N   0  0  0  0  0  0  0  0  0  0  0  0
   37.0260   27.3710   43.3450 C   0  0  0  0  0  0  0  0  0  0  0  0
   36.3110   27.5080   42.2290 N   0  0  0  0  0  0  0  0  0  0  0  0
   35.6530   28.6500   40.2940 N   0  0  0  0  0  0  0  0  0  0  0  0
   34.5000   29.1750   39.8890 C   0  0  0  0  0  0  0  0  0  0  0  0
   34.2860   28.8160   38.6030 N   0  0  0  0  0  0  0  0  0  0  0  0
   35.3490   28.0480   38.2210 C   0  0  0  0  0  0  0  0  0  0  0  0
   36.1670   27.9670   39.2810 N   0  0  0  0  0  0  0  0  0  0  0  0
   38.9570   30.8860   40.5150 C   0  0  0  0  0  0  0  0  0  0  0  0
   39.9490   35.0400   40.1460 C   0  0  0  0  0  0  0  0  0  0  0  0
   38.6390   34.6220   40.2140 C   0  0  0  0  0  0  0  0  0  0  0  0
   38.3140   33.2860   40.3330 C   0  0  0  0  0  0  0  0  0  0  0  0
   39.3090   32.3320   40.3860 C   0  0  0  0  0  0  0  0  0  0  0  0
   40.6530   32.7120   40.3210 C   0  0  0  0  0  0  0  0  0  0  0  0
   40.9450   34.0760   40.2000 C   0  0  0  0  0  0  0  0  0  0  0  0
   40.4430   36.7120   39.9950 S   0  0  0  0  0  0  0  0  0  0  0  0
   39.2790   37.6340   39.9870 O   0  0  0  0  0  0  0  0  0  0  0  0
   41.2740   37.0630   41.2090 O   0  0  0  0  0  0  0  0  0  0  0  0
   36.8627   30.7295   40.1156 H   0  0  0  0  0  0  0  0  0  0  0  0
   37.2819   31.6973   41.5681 H   0  0  0  0  0  0  0  0  0  0  0  0
   38.8302   30.1979   43.3222 H   0  0  0  0  0  0  0  0  0  0  0  0
   36.8959   26.4730   43.9668 H   0  0  0  0  0  0  0  0  0  0  0  0
   33.8306   29.7986   40.4997 H   0  0  0  0  0  0  0  0  0  0  0  0
   35.5042   27.5855   37.2351 H   0  0  0  0  0  0  0  0  0  0  0  0
   39.6222   30.4029   41.2458 H   0  0  0  0  0  0  0  0  0  0  0  0
   39.0738   30.3749   39.5480 H   0  0  0  0  0  0  0  0  0  0  0  0
   37.8332   35.3697   40.1726 H   0  0  0  0  0  0  0  0  0  0  0  0
   37.2585   32.9810   40.3857 H   0  0  0  0  0  0  0  0  0  0  0  0
   41.4566   31.9621   40.3636 H   0  0  0  0  0  0  0  0  0  0  0  0
   41.9969   34.3930   40.1461 H   0  0  0  0  0  0  0  0  0  0  0  0
   41.1312   36.8485   38.8183 H   0  0  0  0  0  0  0  0  0  0  0  0
  1  3  1  0
  2  3  1  0
  2  7  2  0
  3  4  2  0
  4  5  1  0
  6  5  2  0
  7  6  1  0
  8  2  1  0
  9  8  1  0
 10  9  2  0
 11 10  1  0
 11 12  2  0
 12  8  1  0
 13  1  1  0
 14 19  2  0
 14 15  1  0
 15 16  2  0
 16 17  1  0
 17 13  1  0
 18 17  2  0
 19 18  1  0
 20 14  1  0
 20 22  2  0
 21 20  2  0
  1 23  1  0
  1 24  1  0
  4 25  1  0
  6 26  1  0
  9 27  1  0
 11 28  1  0
 13 29  1  0
 13 30  1  0
 15 31  1  0
 16 32  1  0
 18 33  1  0
 19 34  1  0
 20 35  1  0
M  ISO  8  23   8  24   8  25  14  26  14  27  14  28  14  29   8  30   8
M  ISO  5  31  14  32  14  33  14  34  14  35  11
M  END
>  <minimizedAffinity>  (1) 
-5.6675005

>  <minimizedRMSD>  (1) 
5.37921

$$$$
