
     RDKit          3D

 29 31  0  0  0  0  0  0  0  0999 V2000
   37.9900   29.9790   39.6390 C   0  0  0  0  0  0  0  0  0  0  0  0
   37.1910   31.0070   40.1320 C   0  0  0  0  0  0  0  0  0  0  0  0
   36.0330   30.6830   40.8480 C   0  0  0  0  0  0  0  0  0  0  0  0
   35.7590   29.3520   41.0200 N   0  0  0  0  0  0  0  0  0  0  0  0
   36.5430   28.3890   40.5370 C   0  0  0  0  0  0  0  0  0  0  0  0
   37.6540   28.6810   39.8500 N   0  0  0  0  0  0  0  0  0  0  0  0
   39.1750   30.1650   38.9070 N   0  0  0  0  0  0  0  0  0  0  0  0
   39.5640   30.4170   37.6470 C   0  0  0  0  0  0  0  0  0  0  0  0
   40.9160   30.4830   37.6020 N   0  0  0  0  0  0  0  0  0  0  0  0
   41.3620   30.2630   38.8740 C   0  0  0  0  0  0  0  0  0  0  0  0
   40.2730   30.0740   39.6440 N   0  0  0  0  0  0  0  0  0  0  0  0
   37.5530   32.3970   39.9070 C   0  0  0  0  0  0  0  0  0  0  0  0
   38.5360   32.8480   40.9610 C   0  0  0  0  0  0  0  0  0  0  0  0
   39.3930   33.9860   40.4250 C   0  0  0  0  0  0  0  0  0  0  0  0
   39.0230   35.3710   40.5050 C   0  0  0  0  0  0  0  0  0  0  0  0
   39.9360   36.2400   39.9620 C   0  0  0  0  0  0  0  0  0  0  0  0
   41.0890   35.8110   39.4000 C   0  0  0  0  0  0  0  0  0  0  0  0
   40.9810   33.9840   39.6030 S   0  0  0  0  0  0  0  0  0  0  0  0
   35.3721   31.4627   41.2546 H   0  0  0  0  0  0  0  0  0  0  0  0
   36.2726   27.3362   40.7057 H   0  0  0  0  0  0  0  0  0  0  0  0
   38.8909   30.5490   36.7870 H   0  0  0  0  0  0  0  0  0  0  0  0
   42.4104   30.2438   39.2063 H   0  0  0  0  0  0  0  0  0  0  0  0
   38.0122   32.4982   38.9126 H   0  0  0  0  0  0  0  0  0  0  0  0
   36.6489   33.0210   39.9637 H   0  0  0  0  0  0  0  0  0  0  0  0
   37.9850   33.1942   41.8479 H   0  0  0  0  0  0  0  0  0  0  0  0
   39.1871   32.0034   41.2306 H   0  0  0  0  0  0  0  0  0  0  0  0
   38.0826   35.7087   40.9649 H   0  0  0  0  0  0  0  0  0  0  0  0
   39.7234   37.3190   39.9846 H   0  0  0  0  0  0  0  0  0  0  0  0
   41.8909   36.4050   38.9373 H   0  0  0  0  0  0  0  0  0  0  0  0
  1  6  2  0
  1  2  1  0
  2  3  2  0
  3  4  1  0
  5  4  2  0
  6  5  1  0
  7  1  1  0
  7 11  1  0
  8  7  1  0
  9  8  2  0
  9 10  1  0
 10 11  2  0
 12  2  1  0
 12 13  1  0
 14 15  2  0
 14 13  1  0
 16 15  1  0
 17 18  1  0
 17 16  2  0
 18 14  1  0
  3 19  1  0
  5 20  1  0
  8 21  1  0
 10 22  1  0
 12 23  1  0
 12 24  1  0
 13 25  1  0
 13 26  1  0
 15 27  1  0
 16 28  1  0
 17 29  1  0
M  ISO  8  19  14  20  14  21  14  22  14  23   8  24   8  25   8  26   8
M  ISO  3  27  14  28  14  29  14
M  END
>  <minimizedAffinity>  (1) 
-4.40352249

>  <minimizedRMSD>  (1) 
2.90113258

$$$$
