
     RDKit          3D

 24 25  0  0  0  0  0  0  0  0999 V2000
   39.0930   29.7860   40.7370 C   0  0  0  0  0  0  0  0  0  0  0  0
   38.8530   31.0220   40.1400 C   0  0  0  0  0  0  0  0  0  0  0  0
   39.6700   31.4250   39.0800 C   0  0  0  0  0  0  0  0  0  0  0  0
   40.6650   30.5710   38.6920 N   0  0  0  0  0  0  0  0  0  0  0  0
   40.8720   29.3990   39.2780 C   0  0  0  0  0  0  0  0  0  0  0  0
   40.1060   28.9860   40.2960 N   0  0  0  0  0  0  0  0  0  0  0  0
   38.3550   29.2510   41.8050 N   0  0  0  0  0  0  0  0  0  0  0  0
   38.3000   29.3090   43.1330 C   0  0  0  0  0  0  0  0  0  0  0  0
   37.3110   28.5130   43.5900 N   0  0  0  0  0  0  0  0  0  0  0  0
   36.7370   27.9470   42.4920 C   0  0  0  0  0  0  0  0  0  0  0  0
   37.4010   28.4190   41.4340 N   0  0  0  0  0  0  0  0  0  0  0  0
   37.7730   31.8640   40.6210 C   0  0  0  0  0  0  0  0  0  0  0  0
   37.1010   32.5430   39.4530 C   0  0  0  0  0  0  0  0  0  0  0  0
   37.0880   33.9660   39.5620 N   0  0  0  0  0  0  0  0  0  0  0  0
   39.5185   32.3916   38.5774 H   0  0  0  0  0  0  0  0  0  0  0  0
   41.6884   28.7540   38.9209 H   0  0  0  0  0  0  0  0  0  0  0  0
   38.9635   29.9168   43.7657 H   0  0  0  0  0  0  0  0  0  0  0  0
   35.8936   27.2410   42.4794 H   0  0  0  0  0  0  0  0  0  0  0  0
   37.0380   31.2458   41.1573 H   0  0  0  0  0  0  0  0  0  0  0  0
   38.1799   32.6263   41.3016 H   0  0  0  0  0  0  0  0  0  0  0  0
   36.0618   32.1874   39.3924 H   0  0  0  0  0  0  0  0  0  0  0  0
   37.6775   32.2893   38.5512 H   0  0  0  0  0  0  0  0  0  0  0  0
   37.0856   34.2342   40.5565 H   0  0  0  0  0  0  0  0  0  0  0  0
   37.9255   34.3531   39.1041 H   0  0  0  0  0  0  0  0  0  0  0  0
  1  7  1  0
  2 12  1  0
  2  1  2  0
  3  2  1  0
  4  3  2  0
  4  5  1  0
  5  6  2  0
  6  1  1  0
  7  8  1  0
  8  9  2  0
 10  9  1  0
 11  7  1  0
 11 10  2  0
 13 14  1  0
 13 12  1  0
  3 15  1  0
  5 16  1  0
  8 17  1  0
 10 18  1  0
 12 19  1  0
 12 20  1  0
 13 21  1  0
 13 22  1  0
 14 23  1  0
 14 24  1  0
M  ISO  8  15  14  16  14  17  14  18  14  19   8  20   8  21   8  22   8
M  ISO  2  23   5  24   5
M  END
>  <minimizedAffinity>  (1) 
-3.53695536

>  <minimizedRMSD>  (1) 
4.29444122

$$$$
