
     RDKit          3D

 23 24  0  0  0  0  0  0  0  0999 V2000
   38.7230   30.9650   40.2140 C   0  0  0  0  0  0  0  0  0  0  0  0
   37.4300   31.4720   40.0460 C   0  0  0  0  0  0  0  0  0  0  0  0
   36.4000   30.9990   40.8420 C   0  0  0  0  0  0  0  0  0  0  0  0
   36.7170   30.0440   41.7650 N   0  0  0  0  0  0  0  0  0  0  0  0
   37.9450   29.5660   41.9210 C   0  0  0  0  0  0  0  0  0  0  0  0
   38.9670   30.0060   41.1620 N   0  0  0  0  0  0  0  0  0  0  0  0
   39.8570   31.3560   39.4760 N   0  0  0  0  0  0  0  0  0  0  0  0
   40.4230   31.1410   38.2920 C   0  0  0  0  0  0  0  0  0  0  0  0
   41.5600   31.8590   38.2040 N   0  0  0  0  0  0  0  0  0  0  0  0
   41.6960   32.5360   39.3760 C   0  0  0  0  0  0  0  0  0  0  0  0
   40.6360   32.2040   40.1320 N   0  0  0  0  0  0  0  0  0  0  0  0
   37.1890   32.4980   39.0270 C   0  0  0  0  0  0  0  0  0  0  0  0
   37.4140   33.8640   39.6260 C   0  0  0  0  0  0  0  0  0  0  0  0
   36.8570   34.8710   38.8170 O   0  0  0  0  0  0  0  0  0  0  0  0
   35.3721   31.3760   40.7354 H   0  0  0  0  0  0  0  0  0  0  0  0
   38.1318   28.7962   42.6843 H   0  0  0  0  0  0  0  0  0  0  0  0
   40.0254   30.4805   37.5074 H   0  0  0  0  0  0  0  0  0  0  0  0
   42.5125   33.2201   39.6506 H   0  0  0  0  0  0  0  0  0  0  0  0
   36.1522   32.4215   38.6676 H   0  0  0  0  0  0  0  0  0  0  0  0
   37.8809   32.3483   38.1850 H   0  0  0  0  0  0  0  0  0  0  0  0
   36.9449   33.9017   40.6202 H   0  0  0  0  0  0  0  0  0  0  0  0
   38.4976   34.0373   39.7022 H   0  0  0  0  0  0  0  0  0  0  0  0
   36.4665   35.5770   39.3908 H   0  0  0  0  0  0  0  0  0  0  0  0
  1  6  1  0
  2  1  2  0
  2  3  1  0
  3  4  2  0
  4  5  1  0
  6  5  2  0
  7 11  1  0
  7  1  1  0
  8  7  1  0
  9  8  2  0
  9 10  1  0
 10 11  2  0
 12 13  1  0
 12  2  1  0
 14 13  1  0
  3 15  1  0
  5 16  1  0
  8 17  1  0
 10 18  1  0
 12 19  1  0
 12 20  1  0
 13 21  1  0
 13 22  1  0
 14 23  1  0
M  ISO  8  15  14  16  14  17  14  18  14  19   8  20   8  21   8  22   8
M  ISO  1  23   3
M  END
>  <minimizedAffinity>  (1) 
-3.49881315

>  <minimizedRMSD>  (1) 
0.175384581

$$$$
