
     RDKit          3D

 38 40  0  0  1  0  0  0  0  0999 V2000
   38.2660   33.4930   40.0640 C   0  0  0  0  0  0  0  0  0  0  0  0
   39.4010   34.3710   39.9570 N   0  0  0  0  0  0  0  0  0  0  0  0
   39.1660   35.6600   40.5100 C   0  0  0  0  0  0  0  0  0  0  0  0
   40.1220   36.6710   39.9680 C   0  0  0  0  0  0  0  0  0  0  0  0
   41.2880   36.0580   39.4150 N   0  0  0  0  0  0  0  0  0  0  0  0
   41.7140   34.8770   40.1030 C   0  0  0  0  0  0  0  0  0  0  0  0
   40.6560   33.7830   40.1360 C   0  0  2  0  0  0  0  0  0  0  0  0
   40.9580   32.9600   38.9040 C   0  0  0  0  0  0  0  0  0  0  0  0
   42.0920   32.5020   38.7020 O   0  0  0  0  0  0  0  0  0  0  0  0
   38.5640   32.1200   39.5030 C   0  0  0  0  0  0  0  0  0  0  0  0
   38.4840   30.3150   41.1990 C   0  0  0  0  0  0  0  0  0  0  0  0
   37.8300   31.1210   40.2590 C   0  0  0  0  0  0  0  0  0  0  0  0
   36.4580   30.9410   40.0680 C   0  0  0  0  0  0  0  0  0  0  0  0
   35.8460   29.9670   40.8320 N   0  0  0  0  0  0  0  0  0  0  0  0
   36.5040   29.2290   41.7090 C   0  0  0  0  0  0  0  0  0  0  0  0
   37.8280   29.3850   41.9110 N   0  0  0  0  0  0  0  0  0  0  0  0
   39.8690   30.4040   41.4820 N   0  0  0  0  0  0  0  0  0  0  0  0
   41.0270   29.9650   40.9730 C   0  0  0  0  0  0  0  0  0  0  0  0
   42.0430   30.4170   41.7460 N   0  0  0  0  0  0  0  0  0  0  0  0
   41.4760   31.1520   42.7530 C   0  0  0  0  0  0  0  0  0  0  0  0
   40.1430   31.1230   42.5610 N   0  0  0  0  0  0  0  0  0  0  0  0
   37.9920   33.3927   41.1246 H   0  0  0  0  0  0  0  0  0  0  0  0
   37.4403   33.9286   39.4823 H   0  0  0  0  0  0  0  0  0  0  0  0
   38.1397   35.9718   40.2661 H   0  0  0  0  0  0  0  0  0  0  0  0
   39.3087   35.5994   41.5990 H   0  0  0  0  0  0  0  0  0  0  0  0
   39.6179   37.2512   39.1811 H   0  0  0  0  0  0  0  0  0  0  0  0
   40.4387   37.3202   40.7976 H   0  0  0  0  0  0  0  0  0  0  0  0
   41.0873   35.8068   38.4365 H   0  0  0  0  0  0  0  0  0  0  0  0
   42.6081   34.4825   39.5981 H   0  0  0  0  0  0  0  0  0  0  0  0
   41.9181   35.1636   41.1452 H   0  0  0  0  0  0  0  0  0  0  0  0
   40.6592   33.2054   41.0721 H   0  0  0  0  0  0  0  0  0  0  0  0
   40.1580   32.7644   38.1748 H   0  0  0  0  0  0  0  0  0  0  0  0
   38.2571   32.0802   38.4474 H   0  0  0  0  0  0  0  0  0  0  0  0
   39.6428   31.9184   39.5779 H   0  0  0  0  0  0  0  0  0  0  0  0
   35.8924   31.5459   39.3440 H   0  0  0  0  0  0  0  0  0  0  0  0
   35.9585   28.4693   42.2880 H   0  0  0  0  0  0  0  0  0  0  0  0
   41.1353   29.3398   40.0744 H   0  0  0  0  0  0  0  0  0  0  0  0
   42.0085   31.6685   43.5652 H   0  0  0  0  0  0  0  0  0  0  0  0
  2  1  1  0
  2  7  1  0
  2  3  1  0
  4  3  1  0
  5  4  1  0
  5  6  1  0
  6  7  1  0
  8  7  1  0
  9  8  2  0
 10  1  1  0
 10 12  1  0
 11 17  1  0
 11 16  2  0
 12 11  1  0
 13 12  2  0
 13 14  1  0
 14 15  2  0
 15 16  1  0
 17 21  1  0
 18 17  1  0
 18 19  2  0
 19 20  1  0
 21 20  2  0
  1 22  1  0
  1 23  1  0
  3 24  1  0
  3 25  1  0
  4 26  1  0
  4 27  1  0
  5 28  1  0
  6 29  1  0
  6 30  1  0
  7 31  1  1
  8 32  1  0
 10 33  1  0
 10 34  1  0
 13 35  1  0
 15 36  1  0
 18 37  1  0
 20 38  1  0
M  ISO  8  22   8  23   8  24  13  25  13  26  13  27  13  28   5  29  13
M  ISO  8  30  13  31  13  32   6  33   8  34   8  35  14  36  14  37  14
M  ISO  1  38  14
M  END
>  <minimizedAffinity>  (1) 
-4.78140402

>  <minimizedRMSD>  (1) 
3.17899752

$$$$
