
     RDKit          3D

 54 58  0  0  1  0  0  0  0  0999 V2000
   38.7040   29.8160   41.0710 C   0  0  0  0  0  0  0  0  0  0  0  0
   38.0820   30.9770   40.5570 C   0  0  0  0  0  0  0  0  0  0  0  0
   36.6980   31.0560   40.6100 C   0  0  0  0  0  0  0  0  0  0  0  0
   36.0380   29.9820   41.1690 N   0  0  0  0  0  0  0  0  0  0  0  0
   36.6660   28.9220   41.6350 C   0  0  0  0  0  0  0  0  0  0  0  0
   38.0120   28.8080   41.6000 N   0  0  0  0  0  0  0  0  0  0  0  0
   40.1220   29.6380   41.0620 N   0  0  0  0  0  0  0  0  0  0  0  0
   41.0680   29.2500   40.2140 C   0  0  0  0  0  0  0  0  0  0  0  0
   42.2470   29.2970   40.8470 N   0  0  0  0  0  0  0  0  0  0  0  0
   42.0330   29.7240   42.1180 C   0  0  0  0  0  0  0  0  0  0  0  0
   40.7090   29.9170   42.1890 N   0  0  0  0  0  0  0  0  0  0  0  0
   42.8830   29.9870   43.3040 C   0  0  0  0  0  0  0  0  0  0  0  0
   43.0340   29.0240   44.3090 C   0  0  0  0  0  0  0  0  0  0  0  0
   43.8080   29.2410   45.4070 C   0  0  0  0  0  0  0  0  0  0  0  0
   44.4790   30.4180   45.5840 C   0  0  0  0  0  0  0  0  0  0  0  0
   44.3560   31.3910   44.6170 C   0  0  0  0  0  0  0  0  0  0  0  0
   45.0310   32.5810   44.7900 C   0  0  0  0  0  0  0  0  0  0  0  0
   44.9480   33.5930   43.8600 C   0  0  0  0  0  0  0  0  0  0  0  0
   44.1520   33.3600   42.7370 C   0  0  0  0  0  0  0  0  0  0  0  0
   43.5010   32.1550   42.6170 C   0  0  0  0  0  0  0  0  0  0  0  0
   43.5640   31.1340   43.5220 C   0  0  0  0  0  0  0  0  0  0  0  0
   38.8930   32.0440   40.0000 C   0  0  0  0  0  0  0  0  0  0  0  0
   38.8930   33.2320   40.9500 C   0  0  0  0  0  0  0  0  0  0  0  0
   39.8050   34.2430   40.5060 N   0  0  0  0  0  0  0  0  0  0  0  0
   39.3590   35.5650   40.7980 C   0  0  0  0  0  0  0  0  0  0  0  0
   40.0350   36.5830   39.9440 C   0  0  0  0  0  0  0  0  0  0  0  0
   41.2080   36.0560   39.3290 N   0  0  0  0  0  0  0  0  0  0  0  0
   41.9540   35.1900   40.1900 C   0  0  0  0  0  0  0  0  0  0  0  0
   41.1630   33.9460   40.5870 C   0  0  2  0  0  0  0  0  0  0  0  0
   41.5480   32.9550   39.5460 C   0  0  0  0  0  0  0  0  0  0  0  0
   42.7220   32.7350   39.2590 O   0  0  0  0  0  0  0  0  0  0  0  0
   36.1543   31.9315   40.2254 H   0  0  0  0  0  0  0  0  0  0  0  0
   36.0745   28.1016   42.0674 H   0  0  0  0  0  0  0  0  0  0  0  0
   40.9098   28.9425   39.1698 H   0  0  0  0  0  0  0  0  0  0  0  0
   42.5106   28.0618   44.2079 H   0  0  0  0  0  0  0  0  0  0  0  0
   43.8953   28.4519   46.1684 H   0  0  0  0  0  0  0  0  0  0  0  0
   45.1013   30.5842   46.4757 H   0  0  0  0  0  0  0  0  0  0  0  0
   45.6482   32.7247   45.6891 H   0  0  0  0  0  0  0  0  0  0  0  0
   45.4852   34.5432   43.9959 H   0  0  0  0  0  0  0  0  0  0  0  0
   44.0471   34.1302   41.9586 H   0  0  0  0  0  0  0  0  0  0  0  0
   42.8806   32.0011   41.7217 H   0  0  0  0  0  0  0  0  0  0  0  0
   39.9238   31.6862   39.8609 H   0  0  0  0  0  0  0  0  0  0  0  0
   38.4766   32.3516   39.0294 H   0  0  0  0  0  0  0  0  0  0  0  0
   37.8793   33.6566   40.9953 H   0  0  0  0  0  0  0  0  0  0  0  0
   39.2101   32.8858   41.9448 H   0  0  0  0  0  0  0  0  0  0  0  0
   38.2741   35.6202   40.6252 H   0  0  0  0  0  0  0  0  0  0  0  0
   39.6060   35.7833   41.8475 H   0  0  0  0  0  0  0  0  0  0  0  0
   39.3372   36.9111   39.1595 H   0  0  0  0  0  0  0  0  0  0  0  0
   40.3314   37.4271   40.5840 H   0  0  0  0  0  0  0  0  0  0  0  0
   40.9285   35.5245   38.4921 H   0  0  0  0  0  0  0  0  0  0  0  0
   42.8697   34.8753   39.6680 H   0  0  0  0  0  0  0  0  0  0  0  0
   42.1870   35.7481   41.1088 H   0  0  0  0  0  0  0  0  0  0  0  0
   41.3617   33.5834   41.6063 H   0  0  0  0  0  0  0  0  0  0  0  0
   40.7573   32.4025   39.0173 H   0  0  0  0  0  0  0  0  0  0  0  0
  1  6  2  0
  2  3  2  0
  2  1  1  0
  3  4  1  0
  4  5  2  0
  6  5  1  0
  7  1  1  0
  7 11  1  0
  8  9  2  0
  8  7  1  0
  9 10  1  0
 10 11  2  0
 10 12  1  0
 12 21  1  0
 12 13  2  0
 13 14  1  0
 14 15  2  0
 16 17  2  0
 16 15  1  0
 18 17  1  0
 19 18  2  0
 20 19  1  0
 20 21  2  0
 21 16  1  0
 22  2  1  0
 22 23  1  0
 24 29  1  0
 24 25  1  0
 24 23  1  0
 26 25  1  0
 27 26  1  0
 27 28  1  0
 28 29  1  0
 30 29  1  0
 31 30  2  0
  3 32  1  0
  5 33  1  0
  8 34  1  0
 13 35  1  0
 14 36  1  0
 15 37  1  0
 17 38  1  0
 18 39  1  0
 19 40  1  0
 20 41  1  0
 22 42  1  0
 22 43  1  0
 23 44  1  0
 23 45  1  0
 25 46  1  0
 25 47  1  0
 26 48  1  0
 26 49  1  0
 27 50  1  0
 28 51  1  0
 28 52  1  0
 29 53  1  1
 30 54  1  0
M  ISO  8  32  14  33  14  34  14  35  14  36  14  37  14  38  14  39  14
M  ISO  8  40  14  41  14  42   8  43   8  44   8  45   8  46  13  47  13
M  ISO  7  48  13  49  13  50   5  51  13  52  13  53  13  54   6
M  END
>  <minimizedAffinity>  (1) 
-5.86144972

>  <minimizedRMSD>  (1) 
1.50758362

$$$$
