
     RDKit          3D

 16 16  0  0  0  0  0  0  0  0999 V2000
   37.4040   28.7810   42.8020 C   0  0  0  0  0  0  0  0  0  0  0  0
   38.6920   29.2520   43.0990 C   0  0  0  0  0  0  0  0  0  0  0  0
   39.1740   30.3400   42.3430 C   0  0  0  0  0  0  0  0  0  0  0  0
   38.3650   30.8580   41.3830 N   0  0  0  0  0  0  0  0  0  0  0  0
   37.1340   30.3730   41.1310 C   0  0  0  0  0  0  0  0  0  0  0  0
   36.6560   29.3420   41.8370 N   0  0  0  0  0  0  0  0  0  0  0  0
   36.7690   27.6500   43.5110 C   0  0  0  0  0  0  0  0  0  0  0  0
   36.5690   28.0650   44.9550 C   0  0  0  0  0  0  0  0  0  0  0  0
   39.3013   28.7907   43.8902 H   0  0  0  0  0  0  0  0  0  0  0  0
   40.1755   30.7569   42.5253 H   0  0  0  0  0  0  0  0  0  0  0  0
   36.5184   30.8270   40.3405 H   0  0  0  0  0  0  0  0  0  0  0  0
   35.7977   27.4169   43.0503 H   0  0  0  0  0  0  0  0  0  0  0  0
   37.4036   26.7534   43.4522 H   0  0  0  0  0  0  0  0  0  0  0  0
   36.9496   27.2753   45.6195 H   0  0  0  0  0  0  0  0  0  0  0  0
   37.1152   29.0003   45.1467 H   0  0  0  0  0  0  0  0  0  0  0  0
   35.4971   28.2205   45.1467 H   0  0  0  0  0  0  0  0  0  0  0  0
  1  2  2  0
  1  7  1  0
  3  2  1  0
  4  3  2  0
  5  4  1  0
  5  6  2  0
  6  1  1  0
  7  8  1  0
  2  9  1  0
  3 10  1  0
  5 11  1  0
  7 12  1  0
  7 13  1  0
  8 14  1  0
  8 15  1  0
  8 16  1  0
M  ISO  8   9  14  10  14  11  14  12   8  13   8  14   8  15   8  16   8
M  END
>  <minimizedAffinity>  (1) 
-3.13367915

>  <minimizedRMSD>  (1) 
2.91394043

$$$$
