
     RDKit          3D

 46 49  0  0  1  0  0  0  0  0999 V2000
   39.1680   31.7570   39.7760 C   0  0  0  0  0  0  0  0  0  0  0  0
   39.6320   30.3140   41.7530 C   0  0  0  0  0  0  0  0  0  0  0  0
   38.7100   30.8900   40.8580 C   0  0  0  0  0  0  0  0  0  0  0  0
   37.3640   30.6120   41.0360 C   0  0  0  0  0  0  0  0  0  0  0  0
   37.0310   29.7890   42.0840 N   0  0  0  0  0  0  0  0  0  0  0  0
   37.9350   29.2740   42.8960 C   0  0  0  0  0  0  0  0  0  0  0  0
   39.2500   29.5210   42.7540 N   0  0  0  0  0  0  0  0  0  0  0  0
   41.0340   30.5330   41.6530 N   0  0  0  0  0  0  0  0  0  0  0  0
   42.0560   30.0480   40.9420 C   0  0  0  0  0  0  0  0  0  0  0  0
   43.1860   30.6720   41.3210 N   0  0  0  0  0  0  0  0  0  0  0  0
   42.8310   31.5640   42.2950 C   0  0  0  0  0  0  0  0  0  0  0  0
   41.4890   31.4450   42.4690 N   0  0  0  0  0  0  0  0  0  0  0  0
   43.7530   32.4720   43.0060 C   0  0  0  0  0  0  0  0  0  0  0  0
   44.5630   32.0950   44.0660 C   0  0  0  0  0  0  0  0  0  0  0  0
   45.3690   33.0790   44.6190 C   0  0  0  0  0  0  0  0  0  0  0  0
   45.3880   34.3440   44.1730 N   0  0  0  0  0  0  0  0  0  0  0  0
   44.5860   34.6730   43.1380 C   0  0  0  0  0  0  0  0  0  0  0  0
   43.7890   33.7450   42.5770 N   0  0  0  0  0  0  0  0  0  0  0  0
   38.5200   33.1250   39.9150 C   0  0  0  0  0  0  0  0  0  0  0  0
   39.4960   34.1690   39.8890 N   0  0  0  0  0  0  0  0  0  0  0  0
   39.0960   35.3470   40.5830 C   0  0  0  0  0  0  0  0  0  0  0  0
   39.8600   36.5460   40.1110 C   0  0  0  0  0  0  0  0  0  0  0  0
   41.0790   36.1810   39.4870 N   0  0  0  0  0  0  0  0  0  0  0  0
   41.7110   35.0300   40.0560 C   0  0  0  0  0  0  0  0  0  0  0  0
   40.8310   33.7810   39.9600 C   0  0  2  0  0  0  0  0  0  0  0  0
   41.2680   33.1670   38.6790 C   0  0  0  0  0  0  0  0  0  0  0  0
   42.3900   32.6940   38.5170 O   0  0  0  0  0  0  0  0  0  0  0  0
   38.8880   31.3151   38.8084 H   0  0  0  0  0  0  0  0  0  0  0  0
   40.2617   31.8621   39.8279 H   0  0  0  0  0  0  0  0  0  0  0  0
   36.5971   31.0315   40.3682 H   0  0  0  0  0  0  0  0  0  0  0  0
   37.6023   28.6210   43.7163 H   0  0  0  0  0  0  0  0  0  0  0  0
   41.9850   29.2657   40.1720 H   0  0  0  0  0  0  0  0  0  0  0  0
   44.5663   31.0643   44.4503 H   0  0  0  0  0  0  0  0  0  0  0  0
   46.0225   32.8098   45.4619 H   0  0  0  0  0  0  0  0  0  0  0  0
   44.5840   35.7030   42.7520 H   0  0  0  0  0  0  0  0  0  0  0  0
   37.8150   33.2733   39.0838 H   0  0  0  0  0  0  0  0  0  0  0  0
   37.9969   33.1639   40.8819 H   0  0  0  0  0  0  0  0  0  0  0  0
   38.0227   35.5163   40.4115 H   0  0  0  0  0  0  0  0  0  0  0  0
   39.3027   35.2046   41.6540 H   0  0  0  0  0  0  0  0  0  0  0  0
   39.2423   37.1002   39.3890 H   0  0  0  0  0  0  0  0  0  0  0  0
   40.0970   37.1672   40.9873 H   0  0  0  0  0  0  0  0  0  0  0  0
   41.7298   36.9759   39.5611 H   0  0  0  0  0  0  0  0  0  0  0  0
   42.6530   34.8418   39.5201 H   0  0  0  0  0  0  0  0  0  0  0  0
   41.8910   35.2355   41.1215 H   0  0  0  0  0  0  0  0  0  0  0  0
   40.9217   33.0954   40.8154 H   0  0  0  0  0  0  0  0  0  0  0  0
   40.5566   33.1348   37.8406 H   0  0  0  0  0  0  0  0  0  0  0  0
  1 19  1  0
  1  3  1  0
  2  7  2  0
  3  4  2  0
  3  2  1  0
  4  5  1  0
  5  6  2  0
  7  6  1  0
  8  2  1  0
  8 12  1  0
  9 10  2  0
  9  8  1  0
 10 11  1  0
 11 12  2  0
 11 13  1  0
 13 14  2  0
 14 15  1  0
 16 15  2  0
 17 16  1  0
 18 13  1  0
 18 17  2  0
 20 19  1  0
 20 25  1  0
 20 21  1  0
 22 21  1  0
 23 24  1  0
 23 22  1  0
 25 24  1  0
 26 25  1  0
 27 26  2  0
  1 28  1  0
  1 29  1  0
  4 30  1  0
  6 31  1  0
  9 32  1  0
 14 33  1  0
 15 34  1  0
 17 35  1  0
 19 36  1  0
 19 37  1  0
 21 38  1  0
 21 39  1  0
 22 40  1  0
 22 41  1  0
 23 42  1  0
 24 43  1  0
 24 44  1  0
 25 45  1  1
 26 46  1  0
M  ISO  8  28   8  29   8  30  14  31  14  32  14  33  14  34  14  35  14
M  ISO  8  36   8  37   8  38  13  39  13  40  13  41  13  42   5  43  13
M  ISO  3  44  13  45  13  46   6
M  END
>  <minimizedAffinity>  (1) 
-5.47392702

>  <minimizedRMSD>  (1) 
1.47305882

$$$$
