
     RDKit          3D

 46 49  0  0  1  0  0  0  0  0999 V2000
   39.1150   31.7320   39.7360 C   0  0  0  0  0  0  0  0  0  0  0  0
   39.6320   30.3310   41.7380 C   0  0  0  0  0  0  0  0  0  0  0  0
   38.6840   30.8800   40.8400 C   0  0  0  0  0  0  0  0  0  0  0  0
   37.3490   30.5870   41.0370 C   0  0  0  0  0  0  0  0  0  0  0  0
   37.0440   29.7720   42.1070 N   0  0  0  0  0  0  0  0  0  0  0  0
   37.9580   29.2880   42.9130 C   0  0  0  0  0  0  0  0  0  0  0  0
   39.2710   29.5500   42.7560 N   0  0  0  0  0  0  0  0  0  0  0  0
   41.0250   30.5690   41.6170 N   0  0  0  0  0  0  0  0  0  0  0  0
   42.0500   30.0930   40.9060 C   0  0  0  0  0  0  0  0  0  0  0  0
   43.1730   30.7400   41.2620 N   0  0  0  0  0  0  0  0  0  0  0  0
   42.8160   31.6400   42.2250 C   0  0  0  0  0  0  0  0  0  0  0  0
   41.4780   31.5000   42.4130 N   0  0  0  0  0  0  0  0  0  0  0  0
   43.7260   32.5780   42.9170 C   0  0  0  0  0  0  0  0  0  0  0  0
   44.5130   32.0910   43.9200 C   0  0  0  0  0  0  0  0  0  0  0  0
   45.3210   33.0550   44.4940 C   0  0  0  0  0  0  0  0  0  0  0  0
   45.3480   34.3470   44.1160 N   0  0  0  0  0  0  0  0  0  0  0  0
   44.5490   34.7690   43.1200 C   0  0  0  0  0  0  0  0  0  0  0  0
   43.7410   33.8450   42.5370 N   0  0  0  0  0  0  0  0  0  0  0  0
   38.5040   33.1170   39.9080 C   0  0  0  0  0  0  0  0  0  0  0  0
   39.4970   34.1430   39.8590 N   0  0  0  0  0  0  0  0  0  0  0  0
   39.2140   35.2610   40.6890 C   0  0  0  0  0  0  0  0  0  0  0  0
   39.9560   36.4780   40.2510 C   0  0  0  0  0  0  0  0  0  0  0  0
   41.0810   36.1500   39.4520 N   0  0  0  0  0  0  0  0  0  0  0  0
   41.7420   34.9400   39.8420 C   0  0  0  0  0  0  0  0  0  0  0  0
   40.8180   33.7230   39.7410 C   0  0  2  0  0  0  0  0  0  0  0  0
   41.0900   33.2220   38.3700 C   0  0  0  0  0  0  0  0  0  0  0  0
   42.0900   32.5760   38.0770 O   0  0  0  0  0  0  0  0  0  0  0  0
   38.7801   31.2973   38.7827 H   0  0  0  0  0  0  0  0  0  0  0  0
   40.2123   31.8085   39.7332 H   0  0  0  0  0  0  0  0  0  0  0  0
   36.5671   30.9842   40.3730 H   0  0  0  0  0  0  0  0  0  0  0  0
   37.6419   28.6449   43.7475 H   0  0  0  0  0  0  0  0  0  0  0  0
   41.9856   29.2975   40.1490 H   0  0  0  0  0  0  0  0  0  0  0  0
   44.5053   31.0384   44.2393 H   0  0  0  0  0  0  0  0  0  0  0  0
   45.9859   32.7459   45.3139 H   0  0  0  0  0  0  0  0  0  0  0  0
   44.5495   35.8186   42.7909 H   0  0  0  0  0  0  0  0  0  0  0  0
   37.7752   33.2876   39.1019 H   0  0  0  0  0  0  0  0  0  0  0  0
   38.0182   33.1571   40.8941 H   0  0  0  0  0  0  0  0  0  0  0  0
   38.1345   35.4690   40.6503 H   0  0  0  0  0  0  0  0  0  0  0  0
   39.5331   35.0161   41.7128 H   0  0  0  0  0  0  0  0  0  0  0  0
   39.2781   37.1171   39.6662 H   0  0  0  0  0  0  0  0  0  0  0  0
   40.3156   37.0010   41.1494 H   0  0  0  0  0  0  0  0  0  0  0  0
   41.7585   36.9233   39.5141 H   0  0  0  0  0  0  0  0  0  0  0  0
   42.6102   34.7821   39.1853 H   0  0  0  0  0  0  0  0  0  0  0  0
   42.0513   35.0453   40.8923 H   0  0  0  0  0  0  0  0  0  0  0  0
   40.9817   32.9606   40.5168 H   0  0  0  0  0  0  0  0  0  0  0  0
   40.3584   33.4412   37.5783 H   0  0  0  0  0  0  0  0  0  0  0  0
  1 19  1  0
  1  3  1  0
  2  7  2  0
  3  4  2  0
  3  2  1  0
  4  5  1  0
  5  6  2  0
  7  6  1  0
  8  2  1  0
  8 12  1  0
  9 10  2  0
  9  8  1  0
 10 11  1  0
 11 12  2  0
 11 13  1  0
 13 14  2  0
 14 15  1  0
 16 15  2  0
 17 16  1  0
 18 13  1  0
 18 17  2  0
 20 19  1  0
 20 21  1  0
 22 21  1  0
 23 24  1  0
 23 22  1  0
 25 24  1  0
 25 20  1  0
 26 25  1  0
 27 26  2  0
  1 28  1  0
  1 29  1  0
  4 30  1  0
  6 31  1  0
  9 32  1  0
 14 33  1  0
 15 34  1  0
 17 35  1  0
 19 36  1  0
 19 37  1  0
 21 38  1  0
 21 39  1  0
 22 40  1  0
 22 41  1  0
 23 42  1  0
 24 43  1  0
 24 44  1  0
 25 45  1  1
 26 46  1  0
M  ISO  8  28   8  29   8  30  14  31  14  32  14  33  14  34  14  35  14
M  ISO  8  36   8  37   8  38  13  39  13  40  13  41  13  42   5  43  13
M  ISO  3  44  13  45  13  46   6
M  END
>  <minimizedAffinity>  (1) 
-5.44624805

>  <minimizedRMSD>  (1) 
1.53377533

$$$$
