
     RDKit          3D

 40 42  0  0  1  0  0  0  0  0999 V2000
   38.2440   33.5380   40.0080 C   0  0  0  0  0  0  0  0  0  0  0  0
   39.3700   34.4150   39.9470 N   0  0  0  0  0  0  0  0  0  0  0  0
   39.1350   35.6970   40.5160 C   0  0  0  0  0  0  0  0  0  0  0  0
   40.0900   36.7110   39.9780 C   0  0  0  0  0  0  0  0  0  0  0  0
   41.2740   36.1130   39.4840 N   0  0  0  0  0  0  0  0  0  0  0  0
   41.6840   34.9350   40.1750 C   0  0  0  0  0  0  0  0  0  0  0  0
   40.6220   33.8320   40.1300 C   0  0  2  0  0  0  0  0  0  0  0  0
   41.0130   33.0450   38.9320 C   0  0  0  0  0  0  0  0  0  0  0  0
   42.1510   32.6230   38.7560 O   0  0  0  0  0  0  0  0  0  0  0  0
   38.5890   32.1490   39.4900 C   0  0  0  0  0  0  0  0  0  0  0  0
   38.5180   30.3200   41.1850 C   0  0  0  0  0  0  0  0  0  0  0  0
   37.8530   31.1510   40.2620 C   0  0  0  0  0  0  0  0  0  0  0  0
   36.4830   30.9980   40.1060 C   0  0  0  0  0  0  0  0  0  0  0  0
   35.8750   30.0340   40.8750 N   0  0  0  0  0  0  0  0  0  0  0  0
   36.5430   29.2800   41.7270 C   0  0  0  0  0  0  0  0  0  0  0  0
   37.8740   29.4010   41.9030 N   0  0  0  0  0  0  0  0  0  0  0  0
   39.9170   30.3980   41.4120 N   0  0  0  0  0  0  0  0  0  0  0  0
   41.0390   29.9510   40.8420 C   0  0  0  0  0  0  0  0  0  0  0  0
   42.0950   30.3730   41.5670 N   0  0  0  0  0  0  0  0  0  0  0  0
   41.5960   31.0960   42.6050 C   0  0  0  0  0  0  0  0  0  0  0  0
   40.2440   31.0870   42.4710 N   0  0  0  0  0  0  0  0  0  0  0  0
   42.3770   31.7360   43.6320 N   0  0  0  0  0  0  0  0  0  0  0  0
   37.9105   33.4569   41.0531 H   0  0  0  0  0  0  0  0  0  0  0  0
   37.4478   33.9546   39.3736 H   0  0  0  0  0  0  0  0  0  0  0  0
   38.1076   36.0113   40.2799 H   0  0  0  0  0  0  0  0  0  0  0  0
   39.2792   35.6263   41.6042 H   0  0  0  0  0  0  0  0  0  0  0  0
   39.6013   37.2604   39.1599 H   0  0  0  0  0  0  0  0  0  0  0  0
   40.3676   37.3869   40.8003 H   0  0  0  0  0  0  0  0  0  0  0  0
   41.1202   35.8672   38.4956 H   0  0  0  0  0  0  0  0  0  0  0  0
   42.6066   34.5562   39.7108 H   0  0  0  0  0  0  0  0  0  0  0  0
   41.8442   35.2035   41.2296 H   0  0  0  0  0  0  0  0  0  0  0  0
   40.5640   33.2204   41.0424 H   0  0  0  0  0  0  0  0  0  0  0  0
   40.2489   32.8316   38.1701 H   0  0  0  0  0  0  0  0  0  0  0  0
   38.3096   32.0724   38.4288 H   0  0  0  0  0  0  0  0  0  0  0  0
   39.6698   31.9737   39.5952 H   0  0  0  0  0  0  0  0  0  0  0  0
   35.9105   31.6183   39.4007 H   0  0  0  0  0  0  0  0  0  0  0  0
   35.9955   28.5274   42.3134 H   0  0  0  0  0  0  0  0  0  0  0  0
   41.0930   29.3385   39.9299 H   0  0  0  0  0  0  0  0  0  0  0  0
   41.9081   32.2645   44.3815 H   0  0  0  0  0  0  0  0  0  0  0  0
   43.4045   31.6652   43.6170 H   0  0  0  0  0  0  0  0  0  0  0  0
  2  1  1  0
  2  7  1  0
  2  3  1  0
  4  3  1  0
  5  4  1  0
  5  6  1  0
  7  6  1  0
  8  7  1  0
  9  8  2  0
 10  1  1  0
 10 12  1  0
 11 17  1  0
 11 16  2  0
 12 11  1  0
 13 12  2  0
 13 14  1  0
 14 15  2  0
 15 16  1  0
 17 21  1  0
 18 17  1  0
 18 19  2  0
 19 20  1  0
 20 22  1  0
 21 20  2  0
  1 23  1  0
  1 24  1  0
  3 25  1  0
  3 26  1  0
  4 27  1  0
  4 28  1  0
  5 29  1  0
  6 30  1  0
  6 31  1  0
  7 32  1  1
  8 33  1  0
 10 34  1  0
 10 35  1  0
 13 36  1  0
 15 37  1  0
 18 38  1  0
 22 39  1  0
 22 40  1  0
M  ISO  8  23   8  24   8  25  13  26  13  27  13  28  13  29   5  30  13
M  ISO  8  31  13  32  13  33   6  34   8  35   8  36  14  37  14  38  14
M  END
>  <minimizedAffinity>  (1) 
-5.23288918

>  <minimizedRMSD>  (1) 
0.105499052

$$$$
