
     RDKit          3D

 44 47  0  0  1  0  0  0  0  0999 V2000
   39.1820   32.0820   39.6730 C   0  0  0  0  0  0  0  0  0  0  0  0
   39.1670   30.3890   41.4880 C   0  0  0  0  0  0  0  0  0  0  0  0
   38.4630   31.2110   40.5940 C   0  0  0  0  0  0  0  0  0  0  0  0
   37.0750   31.1720   40.6140 C   0  0  0  0  0  0  0  0  0  0  0  0
   36.4920   30.3180   41.5210 N   0  0  0  0  0  0  0  0  0  0  0  0
   37.1990   29.5660   42.3410 C   0  0  0  0  0  0  0  0  0  0  0  0
   38.5470   29.5810   42.3470 N   0  0  0  0  0  0  0  0  0  0  0  0
   40.5910   30.3590   41.5420 N   0  0  0  0  0  0  0  0  0  0  0  0
   41.5860   29.7650   40.8720 C   0  0  0  0  0  0  0  0  0  0  0  0
   42.7590   30.1360   41.4250 N   0  0  0  0  0  0  0  0  0  0  0  0
   42.4570   30.9750   42.4530 C   0  0  0  0  0  0  0  0  0  0  0  0
   41.1040   31.0890   42.4930 N   0  0  0  0  0  0  0  0  0  0  0  0
   43.4540   31.6210   43.3360 C   0  0  0  0  0  0  0  0  0  0  0  0
   44.2380   32.7880   42.9760 C   0  0  0  0  0  0  0  0  0  0  0  0
   45.2110   33.0130   44.4850 S   0  0  0  0  0  0  0  0  0  0  0  0
   44.4020   31.5000   45.3500 C   0  0  0  0  0  0  0  0  0  0  0  0
   43.6180   31.0720   44.5300 N   0  0  0  0  0  0  0  0  0  0  0  0
   38.5680   33.4710   39.6940 C   0  0  0  0  0  0  0  0  0  0  0  0
   39.5750   34.4690   39.8890 N   0  0  0  0  0  0  0  0  0  0  0  0
   39.0450   35.7260   40.2700 C   0  0  0  0  0  0  0  0  0  0  0  0
   40.0090   36.8400   40.0290 C   0  0  0  0  0  0  0  0  0  0  0  0
   41.3350   36.3650   39.8490 N   0  0  0  0  0  0  0  0  0  0  0  0
   41.6650   35.2690   40.7110 C   0  0  0  0  0  0  0  0  0  0  0  0
   40.7800   34.0470   40.4550 C   0  0  2  0  0  0  0  0  0  0  0  0
   41.5700   33.2700   39.4570 C   0  0  0  0  0  0  0  0  0  0  0  0
   42.7740   33.0750   39.5850 O   0  0  0  0  0  0  0  0  0  0  0  0
   39.1181   31.6697   38.6552 H   0  0  0  0  0  0  0  0  0  0  0  0
   40.2360   32.1459   39.9812 H   0  0  0  0  0  0  0  0  0  0  0  0
   36.4709   31.7941   39.9371 H   0  0  0  0  0  0  0  0  0  0  0  0
   36.6715   28.9042   43.0437 H   0  0  0  0  0  0  0  0  0  0  0  0
   41.4669   29.0874   40.0137 H   0  0  0  0  0  0  0  0  0  0  0  0
   44.2402   33.3732   42.0446 H   0  0  0  0  0  0  0  0  0  0  0  0
   44.6040   31.1109   46.3589 H   0  0  0  0  0  0  0  0  0  0  0  0
   38.0589   33.6547   38.7364 H   0  0  0  0  0  0  0  0  0  0  0  0
   37.8506   33.5268   40.5260 H   0  0  0  0  0  0  0  0  0  0  0  0
   38.1310   35.9162   39.6883 H   0  0  0  0  0  0  0  0  0  0  0  0
   38.8324   35.6903   41.3487 H   0  0  0  0  0  0  0  0  0  0  0  0
   39.7016   37.3867   39.1253 H   0  0  0  0  0  0  0  0  0  0  0  0
   39.9993   37.4954   40.9124 H   0  0  0  0  0  0  0  0  0  0  0  0
   41.4423   36.0567   38.8721 H   0  0  0  0  0  0  0  0  0  0  0  0
   42.7149   34.9881   40.5412 H   0  0  0  0  0  0  0  0  0  0  0  0
   41.5010   35.5939   41.7491 H   0  0  0  0  0  0  0  0  0  0  0  0
   40.5357   33.4696   41.3588 H   0  0  0  0  0  0  0  0  0  0  0  0
   41.0555   32.8579   38.5764 H   0  0  0  0  0  0  0  0  0  0  0  0
  1 18  1  0
  1  3  1  0
  2  8  1  0
  2  7  2  0
  3  4  2  0
  3  2  1  0
  4  5  1  0
  5  6  2  0
  6  7  1  0
  8 12  1  0
  9 10  2  0
  9  8  1  0
 10 11  1  0
 11 12  2  0
 11 13  1  0
 13 17  1  0
 14 13  2  0
 14 15  1  0
 15 16  1  0
 17 16  2  0
 18 19  1  0
 19 20  1  0
 19 24  1  0
 21 20  1  0
 22 21  1  0
 22 23  1  0
 24 23  1  0
 25 26  2  0
 25 24  1  0
  1 27  1  0
  1 28  1  0
  4 29  1  0
  6 30  1  0
  9 31  1  0
 14 32  1  0
 16 33  1  0
 18 34  1  0
 18 35  1  0
 20 36  1  0
 20 37  1  0
 21 38  1  0
 21 39  1  0
 22 40  1  0
 23 41  1  0
 23 42  1  0
 24 43  1  1
 25 44  1  0
M  ISO  8  27   8  28   8  29  14  30  14  31  14  32  14  33  14  34   8
M  ISO  8  35   8  36  13  37  13  38  13  39  13  40   5  41  13  42  13
M  ISO  2  43  13  44   6
M  END
>  <minimizedAffinity>  (1) 
-5.19738579

>  <minimizedRMSD>  (1) 
1.03960049

$$$$
