
     RDKit          3D

 41 43  0  0  1  0  0  0  0  0999 V2000
   38.3520   33.5730   39.8580 C   0  0  0  0  0  0  0  0  0  0  0  0
   39.4520   34.4810   39.9350 N   0  0  0  0  0  0  0  0  0  0  0  0
   39.0850   35.7920   40.3600 C   0  0  0  0  0  0  0  0  0  0  0  0
   40.0970   36.8060   39.9440 C   0  0  0  0  0  0  0  0  0  0  0  0
   41.3670   36.2120   39.6990 N   0  0  0  0  0  0  0  0  0  0  0  0
   41.6680   35.1020   40.5470 C   0  0  0  0  0  0  0  0  0  0  0  0
   40.6600   33.9590   40.3920 C   0  0  2  0  0  0  0  0  0  0  0  0
   41.2870   33.1030   39.3530 C   0  0  0  0  0  0  0  0  0  0  0  0
   42.4640   32.7640   39.4040 O   0  0  0  0  0  0  0  0  0  0  0  0
   38.8260   32.1520   39.5880 C   0  0  0  0  0  0  0  0  0  0  0  0
   38.6680   30.3200   41.2730 C   0  0  0  0  0  0  0  0  0  0  0  0
   38.0380   31.2190   40.3870 C   0  0  0  0  0  0  0  0  0  0  0  0
   36.6530   31.1960   40.2930 C   0  0  0  0  0  0  0  0  0  0  0  0
   35.9980   30.2830   41.0830 N   0  0  0  0  0  0  0  0  0  0  0  0
   36.6360   29.4580   41.9020 C   0  0  0  0  0  0  0  0  0  0  0  0
   37.9770   29.4570   42.0160 N   0  0  0  0  0  0  0  0  0  0  0  0
   40.0800   30.2690   41.4350 N   0  0  0  0  0  0  0  0  0  0  0  0
   41.1220   29.7200   40.8010 C   0  0  0  0  0  0  0  0  0  0  0  0
   42.2450   30.0300   41.4650 N   0  0  0  0  0  0  0  0  0  0  0  0
   41.8700   30.7960   42.5440 C   0  0  0  0  0  0  0  0  0  0  0  0
   40.5220   30.9140   42.4780 N   0  0  0  0  0  0  0  0  0  0  0  0
   42.7890   31.3770   43.5770 C   0  0  0  0  0  0  0  0  0  0  0  0
   37.8036   33.5928   40.8113 H   0  0  0  0  0  0  0  0  0  0  0  0
   37.7011   33.8856   39.0282 H   0  0  0  0  0  0  0  0  0  0  0  0
   38.1137   36.0531   39.9146 H   0  0  0  0  0  0  0  0  0  0  0  0
   39.0260   35.7944   41.4584 H   0  0  0  0  0  0  0  0  0  0  0  0
   39.7504   37.2989   39.0237 H   0  0  0  0  0  0  0  0  0  0  0  0
   40.2103   37.5330   40.7617 H   0  0  0  0  0  0  0  0  0  0  0  0
   41.3885   35.8871   38.7218 H   0  0  0  0  0  0  0  0  0  0  0  0
   42.6703   34.7259   40.2943 H   0  0  0  0  0  0  0  0  0  0  0  0
   41.6201   35.4527   41.5885 H   0  0  0  0  0  0  0  0  0  0  0  0
   40.4461   33.4123   41.3223 H   0  0  0  0  0  0  0  0  0  0  0  0
   40.6730   32.7607   38.5069 H   0  0  0  0  0  0  0  0  0  0  0  0
   38.6991   31.9192   38.5204 H   0  0  0  0  0  0  0  0  0  0  0  0
   39.8885   32.0611   39.8580 H   0  0  0  0  0  0  0  0  0  0  0  0
   36.1080   31.8744   39.6201 H   0  0  0  0  0  0  0  0  0  0  0  0
   36.0500   28.7513   42.5080 H   0  0  0  0  0  0  0  0  0  0  0  0
   41.0668   29.1135   39.8849 H   0  0  0  0  0  0  0  0  0  0  0  0
   42.4099   31.1373   44.5814 H   0  0  0  0  0  0  0  0  0  0  0  0
   43.7955   30.9508   43.4536 H   0  0  0  0  0  0  0  0  0  0  0  0
   42.8356   32.4691   43.4536 H   0  0  0  0  0  0  0  0  0  0  0  0
  1  2  1  0
  2  3  1  0
  2  7  1  0
  4  3  1  0
  5  4  1  0
  5  6  1  0
  7  6  1  0
  8  9  2  0
  8  7  1  0
 10  1  1  0
 10 12  1  0
 11 17  1  0
 11 16  2  0
 12 11  1  0
 13 12  2  0
 13 14  1  0
 14 15  2  0
 15 16  1  0
 17 21  1  0
 18 17  1  0
 18 19  2  0
 19 20  1  0
 20 22  1  0
 21 20  2  0
  1 23  1  0
  1 24  1  0
  3 25  1  0
  3 26  1  0
  4 27  1  0
  4 28  1  0
  5 29  1  0
  6 30  1  0
  6 31  1  0
  7 32  1  1
  8 33  1  0
 10 34  1  0
 10 35  1  0
 13 36  1  0
 15 37  1  0
 18 38  1  0
 22 39  1  0
 22 40  1  0
 22 41  1  0
M  ISO  8  23   8  24   8  25  13  26  13  27  13  28  13  29   5  30  13
M  ISO  8  31  13  32  13  33   6  34   8  35   8  36  14  37  14  38  14
M  ISO  3  39   8  40   8  41   8
M  END
>  <minimizedAffinity>  (1) 
-4.89058638

>  <minimizedRMSD>  (1) 
0.413848251

$$$$
