
     RDKit          3D

 37 40  0  0  1  0  0  0  0  0999 V2000
   36.9160   30.9900   40.2800 C   0  0  1  0  0  0  0  0  0  0  0  0
   37.5740   32.3180   40.5910 C   0  0  0  0  0  0  0  0  0  0  0  0
   37.2510   33.0700   39.2950 C   0  0  0  0  0  0  0  0  0  0  0  0
   37.3120   32.0150   38.1990 C   0  0  0  0  0  0  0  0  0  0  0  0
   37.4570   30.7420   38.9430 C   0  0  2  0  0  0  0  0  0  0  0  0
   37.4520   29.4730   38.2830 C   0  0  0  0  0  0  0  0  0  0  0  0
   38.5670   28.7420   37.9580 N   0  0  0  0  0  0  0  0  0  0  0  0
   38.5560   27.5470   37.3600 C   0  0  0  0  0  0  0  0  0  0  0  0
   37.4130   26.9360   37.0120 N   0  0  0  0  0  0  0  0  0  0  0  0
   36.2470   27.5470   37.2750 C   0  0  0  0  0  0  0  0  0  0  0  0
   35.0660   26.9400   36.9180 C   0  0  0  0  0  0  0  0  0  0  0  0
   33.8600   27.5570   37.1730 C   0  0  0  0  0  0  0  0  0  0  0  0
   33.8410   28.7930   37.7880 C   0  0  0  0  0  0  0  0  0  0  0  0
   35.0650   29.3390   38.1160 C   0  0  0  0  0  0  0  0  0  0  0  0
   36.3040   28.7730   37.8910 C   0  0  0  0  0  0  0  0  0  0  0  0
   38.6340   29.2130   43.0170 C   0  0  0  0  0  0  0  0  0  0  0  0
   37.7510   28.1090   43.2570 C   0  0  0  0  0  0  0  0  0  0  0  0
   36.5970   28.0010   42.4630 C   0  0  0  0  0  0  0  0  0  0  0  0
   36.3540   28.9390   41.4990 N   0  0  0  0  0  0  0  0  0  0  0  0
   37.2230   29.9690   41.3110 C   0  0  0  0  0  0  0  0  0  0  0  0
   38.3360   30.1060   42.0470 N   0  0  0  0  0  0  0  0  0  0  0  0
   35.8163   30.9693   40.2942 H   0  0  0  0  0  0  0  0  0  0  0  0
   37.1241   32.8030   41.4699 H   0  0  0  0  0  0  0  0  0  0  0  0
   38.6425   32.2627   40.8463 H   0  0  0  0  0  0  0  0  0  0  0  0
   36.2465   33.5153   39.3469 H   0  0  0  0  0  0  0  0  0  0  0  0
   37.9537   33.8962   39.1116 H   0  0  0  0  0  0  0  0  0  0  0  0
   38.1760   32.1843   37.5395 H   0  0  0  0  0  0  0  0  0  0  0  0
   36.4271   32.0280   37.5457 H   0  0  0  0  0  0  0  0  0  0  0  0
   38.5051   30.4272   39.0543 H   0  0  0  0  0  0  0  0  0  0  0  0
   39.5132   27.0489   37.1465 H   0  0  0  0  0  0  0  0  0  0  0  0
   35.0837   25.9563   36.4260 H   0  0  0  0  0  0  0  0  0  0  0  0
   32.9173   27.0670   36.8879 H   0  0  0  0  0  0  0  0  0  0  0  0
   32.8980   29.3159   38.0054 H   0  0  0  0  0  0  0  0  0  0  0  0
   35.0524   30.3239   38.6058 H   0  0  0  0  0  0  0  0  0  0  0  0
   39.5475   29.3324   43.6181 H   0  0  0  0  0  0  0  0  0  0  0  0
   37.9707   27.3683   44.0399 H   0  0  0  0  0  0  0  0  0  0  0  0
   35.8947   27.1683   42.6159 H   0  0  0  0  0  0  0  0  0  0  0  0
  1  2  1  0
  1 20  1  0
  3  2  1  0
  4  5  1  0
  4  3  1  0
  5  1  1  0
  6  5  1  0
  7  6  2  0
  8  7  1  0
  9 10  1  0
  9  8  2  0
 10 15  2  0
 11 12  2  0
 11 10  1  0
 12 13  1  0
 13 14  2  0
 15 14  1  0
 15  6  1  0
 16 17  2  0
 18 17  1  0
 19 18  2  0
 20 19  1  0
 20 21  2  0
 21 16  1  0
  1 22  1  6
  2 23  1  0
  2 24  1  0
  3 25  1  0
  3 26  1  0
  4 27  1  0
  4 28  1  0
  5 29  1  1
  8 30  1  0
 11 31  1  0
 12 32  1  0
 13 33  1  0
 14 34  1  0
 16 35  1  0
 17 36  1  0
 18 37  1  0
M  ISO  8  22  13  23  13  24  13  25  13  26  13  27  13  28  13  29  13
M  ISO  8  30  14  31  14  32  14  33  14  34  14  35  14  36  14  37  14
M  END
>  <minimizedAffinity>  (1) 
-5.37372923

>  <minimizedRMSD>  (1) 
1.36774874

$$$$
