
     RDKit          3D

 36 38  0  0  1  0  0  0  0  0999 V2000
   39.0240   25.4870   42.5620 C   0  0  1  0  0  0  0  0  0  0  0  0
   40.3730   25.1770   43.1360 C   0  0  0  0  0  0  0  0  0  0  0  0
   40.5410   26.3540   44.0940 C   0  0  0  0  0  0  0  0  0  0  0  0
   39.7840   27.4980   43.4420 C   0  0  0  0  0  0  0  0  0  0  0  0
   39.1720   26.9190   42.1810 C   0  0  2  0  0  0  0  0  0  0  0  0
   38.0510   27.6020   41.6760 N   0  0  0  0  0  0  0  0  0  0  0  0
   38.0650   28.1730   40.4320 C   0  0  0  0  0  0  0  0  0  0  0  0
   37.0380   28.8510   39.8560 C   0  0  0  0  0  0  0  0  0  0  0  0
   37.1160   29.4420   38.5110 C   0  0  0  0  0  0  0  0  0  0  0  0
   35.8680   28.9880   40.5720 C   0  0  0  0  0  0  0  0  0  0  0  0
   34.8990   29.6100   40.0650 O   0  0  0  0  0  0  0  0  0  0  0  0
   35.7970   28.4380   41.8200 N   0  0  0  0  0  0  0  0  0  0  0  0
   36.8870   27.7790   42.3000 C   0  0  0  0  0  0  0  0  0  0  0  0
   36.7520   27.2940   43.4640 O   0  0  0  0  0  0  0  0  0  0  0  0
   39.2720   23.5370   39.4440 C   0  0  0  0  0  0  0  0  0  0  0  0
   38.0230   22.8350   39.4240 C   0  0  0  0  0  0  0  0  0  0  0  0
   37.1230   23.0580   40.4810 C   0  0  0  0  0  0  0  0  0  0  0  0
   37.4610   23.9190   41.4780 N   0  0  0  0  0  0  0  0  0  0  0  0
   38.6700   24.5650   41.4480 C   0  0  0  0  0  0  0  0  0  0  0  0
   39.5590   24.3780   40.4500 N   0  0  0  0  0  0  0  0  0  0  0  0
   38.1794   25.3369   43.2505 H   0  0  0  0  0  0  0  0  0  0  0  0
   40.3767   24.2149   43.6692 H   0  0  0  0  0  0  0  0  0  0  0  0
   41.1761   25.0718   42.3918 H   0  0  0  0  0  0  0  0  0  0  0  0
   40.1112   26.1165   45.0783 H   0  0  0  0  0  0  0  0  0  0  0  0
   41.5990   26.6013   44.2654 H   0  0  0  0  0  0  0  0  0  0  0  0
   38.9969   27.8697   44.1146 H   0  0  0  0  0  0  0  0  0  0  0  0
   40.4458   28.3479   43.2189 H   0  0  0  0  0  0  0  0  0  0  0  0
   39.7850   27.0362   41.2752 H   0  0  0  0  0  0  0  0  0  0  0  0
   38.9907   28.0741   39.8461 H   0  0  0  0  0  0  0  0  0  0  0  0
   37.2595   30.5293   38.5960 H   0  0  0  0  0  0  0  0  0  0  0  0
   37.9638   29.0018   37.9657 H   0  0  0  0  0  0  0  0  0  0  0  0
   36.1830   29.2368   37.9657 H   0  0  0  0  0  0  0  0  0  0  0  0
   34.9393   28.5199   42.3844 H   0  0  0  0  0  0  0  0  0  0  0  0
   39.9984   23.3861   38.6318 H   0  0  0  0  0  0  0  0  0  0  0  0
   37.7756   22.1423   38.6061 H   0  0  0  0  0  0  0  0  0  0  0  0
   36.1528   22.5400   40.5014 H   0  0  0  0  0  0  0  0  0  0  0  0
  1  2  1  0
  2  3  1  0
  4  3  1  0
  5  1  1  0
  5  4  1  0
  6  5  1  0
  6 13  1  0
  7  6  1  0
  8  7  2  0
  8 10  1  0
  9  8  1  0
 10 12  1  0
 11 10  2  0
 12 13  1  0
 13 14  2  0
 15 20  2  0
 16 15  1  0
 16 17  2  0
 17 18  1  0
 19 18  2  0
 19  1  1  0
 20 19  1  0
  1 21  1  1
  2 22  1  0
  2 23  1  0
  3 24  1  0
  3 25  1  0
  4 26  1  0
  4 27  1  0
  5 28  1  6
  7 29  1  0
  9 30  1  0
  9 31  1  0
  9 32  1  0
 12 33  1  0
 15 34  1  0
 16 35  1  0
 17 36  1  0
M  ISO  8  21  13  22  13  23  13  24  13  25  13  26  13  27  13  28  13
M  ISO  8  29  14  30   8  31   8  32   8  33   9  34  14  35  14  36  14
M  END
>  <minimizedAffinity>  (1) 
-5.10800695

>  <minimizedRMSD>  (1) 
5.71074629

$$$$
