
     RDKit          3D

 39 41  0  0  1  0  0  0  0  0999 V2000
   38.0790   31.5200   40.9910 C   0  0  1  0  0  0  0  0  0  0  0  0
   39.0980   32.6080   41.1010 C   0  0  0  0  0  0  0  0  0  0  0  0
   38.4340   33.7240   40.3050 C   0  0  0  0  0  0  0  0  0  0  0  0
   37.5660   33.0240   39.2730 C   0  0  0  0  0  0  0  0  0  0  0  0
   37.7300   31.5450   39.5340 C   0  0  2  0  0  0  0  0  0  0  0  0
   40.0720   28.4230   41.1650 C   0  0  0  0  0  0  0  0  0  0  0  0
   39.6330   27.8280   42.3950 C   0  0  0  0  0  0  0  0  0  0  0  0
   38.6490   28.5200   43.1250 C   0  0  0  0  0  0  0  0  0  0  0  0
   38.1510   29.7040   42.6580 N   0  0  0  0  0  0  0  0  0  0  0  0
   38.6190   30.2140   41.4720 C   0  0  0  0  0  0  0  0  0  0  0  0
   39.5630   29.5840   40.7360 N   0  0  0  0  0  0  0  0  0  0  0  0
   36.5190   30.7460   39.1640 C   0  0  0  0  0  0  0  0  0  0  0  0
   36.8000   29.4900   38.4260 C   0  0  0  0  0  0  0  0  0  0  0  0
   35.4770   29.0580   37.7810 C   0  0  0  0  0  0  0  0  0  0  0  0
   34.4180   28.9000   38.8570 C   0  0  0  0  0  0  0  0  0  0  0  0
   35.0280   29.0790   40.2290 C   0  0  0  0  0  0  0  0  0  0  0  0
   35.7420   30.3840   40.4040 C   0  0  0  0  0  0  0  0  0  0  0  0
   37.1902   31.6628   41.6232 H   0  0  0  0  0  0  0  0  0  0  0  0
   39.2604   32.9026   42.1483 H   0  0  0  0  0  0  0  0  0  0  0  0
   40.0965   32.3273   40.7347 H   0  0  0  0  0  0  0  0  0  0  0  0
   37.8169   34.3520   40.9643 H   0  0  0  0  0  0  0  0  0  0  0  0
   39.1751   34.3864   39.8338 H   0  0  0  0  0  0  0  0  0  0  0  0
   37.9031   33.2734   38.2561 H   0  0  0  0  0  0  0  0  0  0  0  0
   36.5137   33.3350   39.3503 H   0  0  0  0  0  0  0  0  0  0  0  0
   38.4994   31.0631   38.9129 H   0  0  0  0  0  0  0  0  0  0  0  0
   40.8409   27.9155   40.5639 H   0  0  0  0  0  0  0  0  0  0  0  0
   40.0474   26.8733   42.7513 H   0  0  0  0  0  0  0  0  0  0  0  0
   38.2793   28.1065   44.0749 H   0  0  0  0  0  0  0  0  0  0  0  0
   35.9485   31.3996   38.4877 H   0  0  0  0  0  0  0  0  0  0  0  0
   37.5606   29.6666   37.6512 H   0  0  0  0  0  0  0  0  0  0  0  0
   37.1869   28.7111   39.0995 H   0  0  0  0  0  0  0  0  0  0  0  0
   35.1545   29.8221   37.0584 H   0  0  0  0  0  0  0  0  0  0  0  0
   35.6181   28.0988   37.2614 H   0  0  0  0  0  0  0  0  0  0  0  0
   33.6340   29.6570   38.7076 H   0  0  0  0  0  0  0  0  0  0  0  0
   33.9874   27.8902   38.7875 H   0  0  0  0  0  0  0  0  0  0  0  0
   34.2238   29.0199   40.9772 H   0  0  0  0  0  0  0  0  0  0  0  0
   35.7768   28.2831   40.3546 H   0  0  0  0  0  0  0  0  0  0  0  0
   36.4369   30.3027   41.2528 H   0  0  0  0  0  0  0  0  0  0  0  0
   34.9950   31.1695   40.5909 H   0  0  0  0  0  0  0  0  0  0  0  0
  1  2  1  0
  1 10  1  0
  3  2  1  0
  4  5  1  0
  4  3  1  0
  5  1  1  0
  6  7  2  0
  7  8  1  0
  9  8  2  0
 10  9  1  0
 11  6  1  0
 11 10  2  0
 12  5  1  0
 12 17  1  0
 13 12  1  0
 14 13  1  0
 14 15  1  0
 15 16  1  0
 16 17  1  0
  1 18  1  1
  2 19  1  0
  2 20  1  0
  3 21  1  0
  3 22  1  0
  4 23  1  0
  4 24  1  0
  5 25  1  6
  6 26  1  0
  7 27  1  0
  8 28  1  0
 12 29  1  0
 13 30  1  0
 13 31  1  0
 14 32  1  0
 14 33  1  0
 15 34  1  0
 15 35  1  0
 16 36  1  0
 16 37  1  0
 17 38  1  0
 17 39  1  0
M  ISO  8  18  13  19  13  20  13  21  13  22  13  23  13  24  13  25  13
M  ISO  8  26  14  27  14  28  14  29  13  30  13  31  13  32  13  33  13
M  ISO  6  34  13  35  13  36  13  37  13  38  13  39  13
M  END
>  <minimizedAffinity>  (1) 
-4.87147379

>  <minimizedRMSD>  (1) 
1.58885026

$$$$
