
     RDKit          3D

 30 32  0  0  1  0  0  0  0  0999 V2000
   37.2890   28.1960   41.4880 C   0  0  1  0  0  0  0  0  0  0  0  0
   37.2900   29.4140   42.3510 C   0  0  0  0  0  0  0  0  0  0  0  0
   38.2600   28.9860   43.4410 C   0  0  0  0  0  0  0  0  0  0  0  0
   38.0380   27.4880   43.5750 C   0  0  0  0  0  0  0  0  0  0  0  0
   37.0230   27.1130   42.4990 C   0  0  2  0  0  0  0  0  0  0  0  0
   34.2900   29.1350   39.5930 C   0  0  0  0  0  0  0  0  0  0  0  0
   34.4980   28.4580   38.3420 C   0  0  0  0  0  0  0  0  0  0  0  0
   35.6630   27.6840   38.1810 C   0  0  0  0  0  0  0  0  0  0  0  0
   36.5280   27.6140   39.2090 N   0  0  0  0  0  0  0  0  0  0  0  0
   36.3110   28.2620   40.3800 C   0  0  0  0  0  0  0  0  0  0  0  0
   35.2170   29.0050   40.5660 N   0  0  0  0  0  0  0  0  0  0  0  0
   37.4540   25.8210   42.0000 N   0  0  0  0  0  0  0  0  0  0  0  0
   38.6720   25.6570   41.4980 N   0  0  0  0  0  0  0  0  0  0  0  0
   38.8230   24.3630   41.1050 C   0  0  0  0  0  0  0  0  0  0  0  0
   37.6380   23.6890   41.3760 C   0  0  0  0  0  0  0  0  0  0  0  0
   36.8290   24.6510   41.9310 C   0  0  0  0  0  0  0  0  0  0  0  0
   38.2233   28.0386   40.9291 H   0  0  0  0  0  0  0  0  0  0  0  0
   37.6563   30.2966   41.8061 H   0  0  0  0  0  0  0  0  0  0  0  0
   36.2972   29.7159   42.7160 H   0  0  0  0  0  0  0  0  0  0  0  0
   39.2975   29.2012   43.1457 H   0  0  0  0  0  0  0  0  0  0  0  0
   38.0921   29.5218   44.3869 H   0  0  0  0  0  0  0  0  0  0  0  0
   38.9819   26.9463   43.4149 H   0  0  0  0  0  0  0  0  0  0  0  0
   37.6754   27.2236   44.5793 H   0  0  0  0  0  0  0  0  0  0  0  0
   35.9638   27.0437   42.7878 H   0  0  0  0  0  0  0  0  0  0  0  0
   33.3912   29.7483   39.7547 H   0  0  0  0  0  0  0  0  0  0  0  0
   33.7628   28.5429   37.5282 H   0  0  0  0  0  0  0  0  0  0  0  0
   35.8607   27.1506   37.2395 H   0  0  0  0  0  0  0  0  0  0  0  0
   39.7254   23.9266   40.6519 H   0  0  0  0  0  0  0  0  0  0  0  0
   37.4025   22.6308   41.1894 H   0  0  0  0  0  0  0  0  0  0  0  0
   35.7985   24.4752   42.2734 H   0  0  0  0  0  0  0  0  0  0  0  0
  1  2  1  0
  1  5  1  0
  2  3  1  0
  3  4  1  0
  5  4  1  0
  6 11  2  0
  7  6  1  0
  8  7  2  0
  8  9  1  0
  9 10  2  0
 10 11  1  0
 10  1  1  0
 12  5  1  0
 13 12  1  0
 14 15  1  0
 14 13  2  0
 15 16  2  0
 16 12  1  0
  1 17  1  6
  2 18  1  0
  2 19  1  0
  3 20  1  0
  3 21  1  0
  4 22  1  0
  4 23  1  0
  5 24  1  1
  6 25  1  0
  7 26  1  0
  8 27  1  0
 14 28  1  0
 15 29  1  0
 16 30  1  0
M  ISO  8  17  13  18  13  19  13  20  13  21  13  22  13  23  13  24  13
M  ISO  6  25  14  26  14  27  14  28  14  29  14  30  14
M  END
>  <minimizedAffinity>  (1) 
-4.525208

>  <minimizedRMSD>  (1) 
5.50817633

$$$$
