
     RDKit          3D

 24 25  0  0  1  0  0  0  0  0999 V2000
   37.1510   31.3500   40.8000 C   0  0  1  0  0  0  0  0  0  0  0  0
   38.3870   32.1780   40.8690 C   0  0  0  0  0  0  0  0  0  0  0  0
   38.0600   33.2660   39.8500 C   0  0  0  0  0  0  0  0  0  0  0  0
   37.1550   32.5910   38.8260 C   0  0  0  0  0  0  0  0  0  0  0  0
   36.9310   31.1680   39.3240 C   0  0  1  0  0  0  0  0  0  0  0  0
   38.4170   28.8390   43.1850 C   0  0  0  0  0  0  0  0  0  0  0  0
   37.5050   27.7470   42.9960 C   0  0  0  0  0  0  0  0  0  0  0  0
   36.4820   27.9090   42.0420 C   0  0  0  0  0  0  0  0  0  0  0  0
   36.3930   29.0580   41.3510 N   0  0  0  0  0  0  0  0  0  0  0  0
   37.2830   30.0820   41.5580 C   0  0  0  0  0  0  0  0  0  0  0  0
   38.2770   29.9670   42.4610 N   0  0  0  0  0  0  0  0  0  0  0  0
   37.8580   30.2870   38.7790 O   0  0  0  0  0  0  0  0  0  0  0  0
   36.2807   31.8232   41.2781 H   0  0  0  0  0  0  0  0  0  0  0  0
   38.5376   32.5974   41.8747 H   0  0  0  0  0  0  0  0  0  0  0  0
   39.3165   31.6266   40.6639 H   0  0  0  0  0  0  0  0  0  0  0  0
   37.5376   34.1043   40.3341 H   0  0  0  0  0  0  0  0  0  0  0  0
   38.9664   33.6837   39.3875 H   0  0  0  0  0  0  0  0  0  0  0  0
   37.6408   32.5770   37.8392 H   0  0  0  0  0  0  0  0  0  0  0  0
   36.2027   33.1307   38.7173 H   0  0  0  0  0  0  0  0  0  0  0  0
   35.9538   30.7396   39.0563 H   0  0  0  0  0  0  0  0  0  0  0  0
   39.2303   28.7552   43.9209 H   0  0  0  0  0  0  0  0  0  0  0  0
   37.6017   26.8170   43.5755 H   0  0  0  0  0  0  0  0  0  0  0  0
   35.7594   27.0991   41.8633 H   0  0  0  0  0  0  0  0  0  0  0  0
   38.3433   29.8258   39.5083 H   0  0  0  0  0  0  0  0  0  0  0  0
  1  2  1  0
  1 10  1  0
  3  2  1  0
  4  5  1  0
  4  3  1  0
  5  1  1  0
  7  6  2  0
  8  7  1  0
  9 10  1  0
  9  8  2  0
 10 11  2  0
 11  6  1  0
 12  5  1  0
  1 13  1  1
  2 14  1  0
  2 15  1  0
  3 16  1  0
  3 17  1  0
  4 18  1  0
  4 19  1  0
  5 20  1  1
  6 21  1  0
  7 22  1  0
  8 23  1  0
 12 24  1  0
M  ISO  8  13  13  14  13  15  13  16  13  17  13  18  13  19  13  20  13
M  ISO  4  21  14  22  14  23  14  24   3
M  END
>  <minimizedAffinity>  (1) 
-3.85144019

>  <minimizedRMSD>  (1) 
0.232180476

$$$$
