
     RDKit          3D

 30 32  0  0  1  0  0  0  0  0999 V2000
   36.9120   31.0030   40.3710 C   0  0  1  0  0  0  0  0  0  0  0  0
   37.6480   32.2640   40.6600 C   0  0  0  0  0  0  0  0  0  0  0  0
   37.4260   33.0380   39.3630 C   0  0  0  0  0  0  0  0  0  0  0  0
   37.1840   31.9950   38.2940 C   0  0  0  0  0  0  0  0  0  0  0  0
   37.3830   30.6560   38.9790 C   0  0  2  0  0  0  0  0  0  0  0  0
   38.5280   29.1350   43.1060 C   0  0  0  0  0  0  0  0  0  0  0  0
   37.6350   28.0280   43.2870 C   0  0  0  0  0  0  0  0  0  0  0  0
   36.5050   27.9480   42.4560 C   0  0  0  0  0  0  0  0  0  0  0  0
   36.2950   28.9070   41.5220 N   0  0  0  0  0  0  0  0  0  0  0  0
   37.1740   29.9480   41.3840 C   0  0  0  0  0  0  0  0  0  0  0  0
   38.2710   30.0590   42.1610 N   0  0  0  0  0  0  0  0  0  0  0  0
   36.5970   29.5800   38.3670 C   0  0  0  0  0  0  0  0  0  0  0  0
   35.3010   29.3220   37.9340 C   0  0  0  0  0  0  0  0  0  0  0  0
   35.0420   28.0930   37.3990 C   0  0  0  0  0  0  0  0  0  0  0  0
   36.0650   27.1280   37.2960 C   0  0  0  0  0  0  0  0  0  0  0  0
   37.5700   28.0230   38.0260 S   0  0  0  0  0  0  0  0  0  0  0  0
   35.8180   31.1061   40.4222 H   0  0  0  0  0  0  0  0  0  0  0  0
   37.2189   32.7927   41.5239 H   0  0  0  0  0  0  0  0  0  0  0  0
   38.7057   32.1198   40.9253 H   0  0  0  0  0  0  0  0  0  0  0  0
   36.5522   33.6995   39.4570 H   0  0  0  0  0  0  0  0  0  0  0  0
   38.2900   33.6735   39.1190 H   0  0  0  0  0  0  0  0  0  0  0  0
   37.9028   32.1155   37.4701 H   0  0  0  0  0  0  0  0  0  0  0  0
   36.1779   32.0841   37.8583 H   0  0  0  0  0  0  0  0  0  0  0  0
   38.4077   30.2598   38.9235 H   0  0  0  0  0  0  0  0  0  0  0  0
   39.4227   29.2294   43.7389 H   0  0  0  0  0  0  0  0  0  0  0  0
   37.8289   27.2637   44.0540 H   0  0  0  0  0  0  0  0  0  0  0  0
   35.7964   27.1135   42.5627 H   0  0  0  0  0  0  0  0  0  0  0  0
   34.5110   30.0826   38.0197 H   0  0  0  0  0  0  0  0  0  0  0  0
   34.0281   27.8538   37.0458 H   0  0  0  0  0  0  0  0  0  0  0  0
   36.0051   26.1068   36.8916 H   0  0  0  0  0  0  0  0  0  0  0  0
  1  2  1  0
  1 10  1  0
  3  2  1  0
  4  5  1  0
  4  3  1  0
  5  1  1  0
  6  7  2  0
  8  7  1  0
  9  8  2  0
 10  9  1  0
 10 11  2  0
 11  6  1  0
 12  5  1  0
 13 12  2  0
 14 13  1  0
 15 14  2  0
 15 16  1  0
 16 12  1  0
  1 17  1  6
  2 18  1  0
  2 19  1  0
  3 20  1  0
  3 21  1  0
  4 22  1  0
  4 23  1  0
  5 24  1  1
  6 25  1  0
  7 26  1  0
  8 27  1  0
 13 28  1  0
 14 29  1  0
 15 30  1  0
M  ISO  8  17  13  18  13  19  13  20  13  21  13  22  13  23  13  24  13
M  ISO  6  25  14  26  14  27  14  28  14  29  14  30  14
M  END
>  <minimizedAffinity>  (1) 
-4.47961235

>  <minimizedRMSD>  (1) 
0.827352941

$$$$
