
     RDKit          3D

 44 48  0  0  1  0  0  0  0  0999 V2000
   36.7940   30.6060   40.3070 C   0  0  1  0  0  0  0  0  0  0  0  0
   37.3990   31.9450   40.3760 C   0  0  0  0  0  0  0  0  0  0  0  0
   37.1460   32.4800   38.9680 C   0  0  0  0  0  0  0  0  0  0  0  0
   36.9810   31.2600   38.0830 C   0  0  0  0  0  0  0  0  0  0  0  0
   37.2970   30.0760   38.9730 C   0  0  2  0  0  0  0  0  0  0  0  0
   38.6660   29.2860   43.2050 C   0  0  0  0  0  0  0  0  0  0  0  0
   37.8190   28.1980   43.6340 C   0  0  0  0  0  0  0  0  0  0  0  0
   36.6310   27.9450   42.9020 C   0  0  0  0  0  0  0  0  0  0  0  0
   36.3130   28.7210   41.8240 N   0  0  0  0  0  0  0  0  0  0  0  0
   37.1600   29.7390   41.4700 C   0  0  0  0  0  0  0  0  0  0  0  0
   38.3120   30.0260   42.1350 N   0  0  0  0  0  0  0  0  0  0  0  0
   36.6360   28.8530   38.5560 C   0  0  0  0  0  0  0  0  0  0  0  0
   35.4320   28.4130   38.0660 C   0  0  0  0  0  0  0  0  0  0  0  0
   35.2280   27.1070   37.8030 C   0  0  0  0  0  0  0  0  0  0  0  0
   36.2450   26.2060   38.0310 C   0  0  0  0  0  0  0  0  0  0  0  0
   37.6010   27.2910   38.6700 S   0  0  0  0  0  0  0  0  0  0  0  0
   36.4700   24.8330   37.9100 C   0  0  0  0  0  0  0  0  0  0  0  0
   36.2040   24.0990   36.7600 C   0  0  0  0  0  0  0  0  0  0  0  0
   36.5300   22.7900   36.9610 N   0  0  0  0  0  0  0  0  0  0  0  0
   37.0070   22.6150   38.2060 C   0  0  0  0  0  0  0  0  0  0  0  0
   37.4610   21.5090   38.8790 C   0  0  0  0  0  0  0  0  0  0  0  0
   37.8880   21.6780   40.1760 C   0  0  0  0  0  0  0  0  0  0  0  0
   37.8500   22.9280   40.7510 C   0  0  0  0  0  0  0  0  0  0  0  0
   37.3870   24.0120   40.0410 C   0  0  0  0  0  0  0  0  0  0  0  0
   36.9520   23.8830   38.7460 C   0  0  0  0  0  0  0  0  0  0  0  0
   35.6957   30.6257   40.3657 H   0  0  0  0  0  0  0  0  0  0  0  0
   36.9045   32.5685   41.1354 H   0  0  0  0  0  0  0  0  0  0  0  0
   38.4606   31.9380   40.6639 H   0  0  0  0  0  0  0  0  0  0  0  0
   36.2323   33.0922   38.9498 H   0  0  0  0  0  0  0  0  0  0  0  0
   37.9726   33.1192   38.6244 H   0  0  0  0  0  0  0  0  0  0  0  0
   35.9499   31.1942   37.7056 H   0  0  0  0  0  0  0  0  0  0  0  0
   37.6397   31.2993   37.2029 H   0  0  0  0  0  0  0  0  0  0  0  0
   38.3537   29.7705   38.9708 H   0  0  0  0  0  0  0  0  0  0  0  0
   39.5957   29.5100   43.7486 H   0  0  0  0  0  0  0  0  0  0  0  0
   38.0879   27.5822   44.5049 H   0  0  0  0  0  0  0  0  0  0  0  0
   35.9649   27.1229   43.2028 H   0  0  0  0  0  0  0  0  0  0  0  0
   34.6227   29.1358   37.8855 H   0  0  0  0  0  0  0  0  0  0  0  0
   34.2594   26.7640   37.4103 H   0  0  0  0  0  0  0  0  0  0  0  0
   35.7922   24.5121   35.8274 H   0  0  0  0  0  0  0  0  0  0  0  0
   36.4258   22.0428   36.2598 H   0  0  0  0  0  0  0  0  0  0  0  0
   37.4829   20.5201   38.3977 H   0  0  0  0  0  0  0  0  0  0  0  0
   38.2585   20.8169   40.7515 H   0  0  0  0  0  0  0  0  0  0  0  0
   38.1929   23.0617   41.7876 H   0  0  0  0  0  0  0  0  0  0  0  0
   37.3652   25.0015   40.5210 H   0  0  0  0  0  0  0  0  0  0  0  0
  1  2  1  0
  1 10  1  0
  3  2  1  0
  4  3  1  0
  4  5  1  0
  5  1  1  0
  6  7  2  0
  8  7  1  0
  9  8  2  0
 10  9  1  0
 10 11  2  0
 11  6  1  0
 12 16  1  0
 12  5  1  0
 13 12  2  0
 14 15  2  0
 14 13  1  0
 15 16  1  0
 17 15  1  0
 17 25  1  0
 18 19  1  0
 18 17  2  0
 19 20  1  0
 20 25  2  0
 20 21  1  0
 21 22  2  0
 22 23  1  0
 24 23  2  0
 25 24  1  0
  1 26  1  6
  2 27  1  0
  2 28  1  0
  3 29  1  0
  3 30  1  0
  4 31  1  0
  4 32  1  0
  5 33  1  1
  6 34  1  0
  7 35  1  0
  8 36  1  0
 13 37  1  0
 14 38  1  0
 18 39  1  0
 19 40  1  0
 21 41  1  0
 22 42  1  0
 23 43  1  0
 24 44  1  0
M  ISO  8  26  13  27  13  28  13  29  13  30  13  31  13  32  13  33  13
M  ISO  8  34  14  35  14  36  14  37  14  38  14  39  14  40   9  41  14
M  ISO  3  42  14  43  14  44  14
M  END
>  <minimizedAffinity>  (1) 
-5.46957207

>  <minimizedRMSD>  (1) 
1.55719423

$$$$
