
     RDKit          3D

 42 44  0  0  1  0  0  0  0  0999 V2000
   36.9030   30.7610   40.5570 C   0  0  1  0  0  0  0  0  0  0  0  0
   37.7200   31.9730   40.7360 C   0  0  0  0  0  0  0  0  0  0  0  0
   37.4400   32.7300   39.4400 C   0  0  0  0  0  0  0  0  0  0  0  0
   37.0100   31.6850   38.4320 C   0  0  0  0  0  0  0  0  0  0  0  0
   37.2190   30.3540   39.1240 C   0  0  2  0  0  0  0  0  0  0  0  0
   38.7080   28.8550   43.1540 C   0  0  0  0  0  0  0  0  0  0  0  0
   37.7720   27.7940   43.4490 C   0  0  0  0  0  0  0  0  0  0  0  0
   36.5490   27.7640   42.7330 C   0  0  0  0  0  0  0  0  0  0  0  0
   36.2790   28.7190   41.7940 N   0  0  0  0  0  0  0  0  0  0  0  0
   37.2110   29.6980   41.5640 C   0  0  0  0  0  0  0  0  0  0  0  0
   38.4000   29.7770   42.2200 N   0  0  0  0  0  0  0  0  0  0  0  0
   36.3570   29.3030   38.6170 C   0  0  0  0  0  0  0  0  0  0  0  0
   35.0490   29.1130   38.2370 C   0  0  0  0  0  0  0  0  0  0  0  0
   34.6070   27.9100   37.8130 C   0  0  0  0  0  0  0  0  0  0  0  0
   35.5180   26.8640   37.7710 C   0  0  0  0  0  0  0  0  0  0  0  0
   37.1040   27.6370   38.3720 S   0  0  0  0  0  0  0  0  0  0  0  0
   35.2620   25.4790   37.3450 C   0  0  0  0  0  0  0  0  0  0  0  0
   35.7190   24.6100   38.5020 C   0  0  0  0  0  0  0  0  0  0  0  0
   33.8030   25.2060   37.0740 C   0  0  0  0  0  0  0  0  0  0  0  0
   36.0550   25.2590   36.1060 C   0  0  0  0  0  0  0  0  0  0  0  0
   35.8287   30.9326   40.7195 H   0  0  0  0  0  0  0  0  0  0  0  0
   37.3952   32.5492   41.6150 H   0  0  0  0  0  0  0  0  0  0  0  0
   38.7866   31.7701   40.9128 H   0  0  0  0  0  0  0  0  0  0  0  0
   36.6375   33.4666   39.5931 H   0  0  0  0  0  0  0  0  0  0  0  0
   38.3271   33.2817   39.0955 H   0  0  0  0  0  0  0  0  0  0  0  0
   37.6274   31.7484   37.5238 H   0  0  0  0  0  0  0  0  0  0  0  0
   35.9654   31.8242   38.1166 H   0  0  0  0  0  0  0  0  0  0  0  0
   38.2142   29.9075   38.9814 H   0  0  0  0  0  0  0  0  0  0  0  0
   39.6674   28.9099   43.6892 H   0  0  0  0  0  0  0  0  0  0  0  0
   38.0021   27.0314   44.2076 H   0  0  0  0  0  0  0  0  0  0  0  0
   35.8152   26.9695   42.9340 H   0  0  0  0  0  0  0  0  0  0  0  0
   34.3479   29.9595   38.2795 H   0  0  0  0  0  0  0  0  0  0  0  0
   33.5595   27.7637   37.5108 H   0  0  0  0  0  0  0  0  0  0  0  0
   35.4614   25.0999   39.4526 H   0  0  0  0  0  0  0  0  0  0  0  0
   35.2185   23.6320   38.4461 H   0  0  0  0  0  0  0  0  0  0  0  0
   36.8084   24.4681   38.4461 H   0  0  0  0  0  0  0  0  0  0  0  0
   33.2654   25.1054   38.0284 H   0  0  0  0  0  0  0  0  0  0  0  0
   33.3748   26.0396   36.4980 H   0  0  0  0  0  0  0  0  0  0  0  0
   33.7052   24.2740   36.4980 H   0  0  0  0  0  0  0  0  0  0  0  0
   37.0829   24.9738   36.3744 H   0  0  0  0  0  0  0  0  0  0  0  0
   35.5942   24.4548   35.5137 H   0  0  0  0  0  0  0  0  0  0  0  0
   36.0744   26.1857   35.5137 H   0  0  0  0  0  0  0  0  0  0  0  0
  1  2  1  0
  1 10  1  0
  3  2  1  0
  4  5  1  0
  4  3  1  0
  5  1  1  0
  6  7  2  0
  8  7  1  0
  9  8  2  0
 10  9  1  0
 10 11  2  0
 11  6  1  0
 12  5  1  0
 13 12  2  0
 14 13  1  0
 15 14  2  0
 15 16  1  0
 16 12  1  0
 17 15  1  0
 17 18  1  0
 19 17  1  0
 20 17  1  0
  1 21  1  6
  2 22  1  0
  2 23  1  0
  3 24  1  0
  3 25  1  0
  4 26  1  0
  4 27  1  0
  5 28  1  1
  6 29  1  0
  7 30  1  0
  8 31  1  0
 13 32  1  0
 14 33  1  0
 18 34  1  0
 18 35  1  0
 18 36  1  0
 19 37  1  0
 19 38  1  0
 19 39  1  0
 20 40  1  0
 20 41  1  0
 20 42  1  0
M  ISO  8  21  13  22  13  23  13  24  13  25  13  26  13  27  13  28  13
M  ISO  8  29  14  30  14  31  14  32  14  33  14  34   8  35   8  36   8
M  ISO  6  37   8  38   8  39   8  40   8  41   8  42   8
M  END
>  <minimizedAffinity>  (1) 
-4.83057451

>  <minimizedRMSD>  (1) 
0.594277442

$$$$
