
     RDKit          3D

 42 45  0  0  1  0  0  0  0  0999 V2000
   36.9220   30.7560   40.5570 C   0  0  1  0  0  0  0  0  0  0  0  0
   37.7640   31.9600   40.7120 C   0  0  0  0  0  0  0  0  0  0  0  0
   37.4780   32.7080   39.4070 C   0  0  0  0  0  0  0  0  0  0  0  0
   37.0040   31.6610   38.4350 C   0  0  0  0  0  0  0  0  0  0  0  0
   37.2230   30.3340   39.1310 C   0  0  2  0  0  0  0  0  0  0  0  0
   38.7110   28.8530   43.1610 C   0  0  0  0  0  0  0  0  0  0  0  0
   37.7770   27.8120   43.4770 C   0  0  0  0  0  0  0  0  0  0  0  0
   36.5550   27.7920   42.7720 C   0  0  0  0  0  0  0  0  0  0  0  0
   36.2880   28.7390   41.8260 N   0  0  0  0  0  0  0  0  0  0  0  0
   37.2340   29.7080   41.5770 C   0  0  0  0  0  0  0  0  0  0  0  0
   38.4060   29.7630   42.2220 N   0  0  0  0  0  0  0  0  0  0  0  0
   36.3420   29.2800   38.6430 C   0  0  0  0  0  0  0  0  0  0  0  0
   35.0320   29.1220   38.2250 C   0  0  0  0  0  0  0  0  0  0  0  0
   34.5980   27.9050   37.8320 C   0  0  0  0  0  0  0  0  0  0  0  0
   35.4730   26.8280   37.8510 C   0  0  0  0  0  0  0  0  0  0  0  0
   37.0610   27.5850   38.4830 S   0  0  0  0  0  0  0  0  0  0  0  0
   35.3810   25.5160   37.5110 N   0  0  0  0  0  0  0  0  0  0  0  0
   36.4380   24.5450   37.3140 C   0  0  0  0  0  0  0  0  0  0  0  0
   35.7840   23.1850   37.5120 C   0  0  0  0  0  0  0  0  0  0  0  0
   34.3520   23.4970   37.9230 C   0  0  0  0  0  0  0  0  0  0  0  0
   34.1260   24.8310   37.2410 C   0  0  0  0  0  0  0  0  0  0  0  0
   35.8499   30.9360   40.7247 H   0  0  0  0  0  0  0  0  0  0  0  0
   37.4604   32.5516   41.5882 H   0  0  0  0  0  0  0  0  0  0  0  0
   38.8293   31.7419   40.8777 H   0  0  0  0  0  0  0  0  0  0  0  0
   36.6982   33.4679   39.5631 H   0  0  0  0  0  0  0  0  0  0  0  0
   38.3700   33.2337   39.0356 H   0  0  0  0  0  0  0  0  0  0  0  0
   37.5883   31.7079   37.5042 H   0  0  0  0  0  0  0  0  0  0  0  0
   35.9493   31.8079   38.1591 H   0  0  0  0  0  0  0  0  0  0  0  0
   38.2144   29.8825   38.9787 H   0  0  0  0  0  0  0  0  0  0  0  0
   39.6757   28.9060   43.6869 H   0  0  0  0  0  0  0  0  0  0  0  0
   38.0052   27.0555   44.2423 H   0  0  0  0  0  0  0  0  0  0  0  0
   35.8131   27.0086   42.9860 H   0  0  0  0  0  0  0  0  0  0  0  0
   34.3479   29.9833   38.2130 H   0  0  0  0  0  0  0  0  0  0  0  0
   33.5585   27.7684   37.4992 H   0  0  0  0  0  0  0  0  0  0  0  0
   36.8518   24.6282   36.2982 H   0  0  0  0  0  0  0  0  0  0  0  0
   37.2718   24.7023   38.0140 H   0  0  0  0  0  0  0  0  0  0  0  0
   35.8012   22.6071   36.5762 H   0  0  0  0  0  0  0  0  0  0  0  0
   36.3086   22.5781   38.2646 H   0  0  0  0  0  0  0  0  0  0  0  0
   33.6523   22.7330   37.5533 H   0  0  0  0  0  0  0  0  0  0  0  0
   34.1918   23.5167   39.0111 H   0  0  0  0  0  0  0  0  0  0  0  0
   33.2732   25.3676   37.6822 H   0  0  0  0  0  0  0  0  0  0  0  0
   33.8822   24.7503   36.1714 H   0  0  0  0  0  0  0  0  0  0  0  0
  1  2  1  0
  1 10  1  0
  3  2  1  0
  4  5  1  0
  4  3  1  0
  5  1  1  0
  6  7  2  0
  8  7  1  0
  9  8  2  0
 10  9  1  0
 10 11  2  0
 11  6  1  0
 12  5  1  0
 13 12  2  0
 14 15  2  0
 14 13  1  0
 15 16  1  0
 16 12  1  0
 17 15  1  0
 18 17  1  0
 18 19  1  0
 19 20  1  0
 21 17  1  0
 21 20  1  0
  1 22  1  6
  2 23  1  0
  2 24  1  0
  3 25  1  0
  3 26  1  0
  4 27  1  0
  4 28  1  0
  5 29  1  1
  6 30  1  0
  7 31  1  0
  8 32  1  0
 13 33  1  0
 14 34  1  0
 18 35  1  0
 18 36  1  0
 19 37  1  0
 19 38  1  0
 20 39  1  0
 20 40  1  0
 21 41  1  0
 21 42  1  0
M  ISO  8  22  13  23  13  24  13  25  13  26  13  27  13  28  13  29  13
M  ISO  8  30  14  31  14  32  14  33  14  34  14  35  13  36  13  37  13
M  ISO  5  38  13  39  13  40  13  41  13  42  13
M  END
>  <minimizedAffinity>  (1) 
-4.77860308

>  <minimizedRMSD>  (1) 
0.737282395

$$$$
