
     RDKit          3D

 37 40  0  0  1  0  0  0  0  0999 V2000
   36.8860   30.8680   40.4150 C   0  0  1  0  0  0  0  0  0  0  0  0
   37.6930   32.0890   40.5850 C   0  0  0  0  0  0  0  0  0  0  0  0
   37.4780   32.8000   39.2550 C   0  0  0  0  0  0  0  0  0  0  0  0
   37.0530   31.7270   38.2640 C   0  0  0  0  0  0  0  0  0  0  0  0
   37.2400   30.4200   39.0010 C   0  0  2  0  0  0  0  0  0  0  0  0
   38.5890   29.0830   43.1660 C   0  0  0  0  0  0  0  0  0  0  0  0
   37.6890   27.9760   43.4020 C   0  0  0  0  0  0  0  0  0  0  0  0
   36.5250   27.8760   42.5960 C   0  0  0  0  0  0  0  0  0  0  0  0
   36.2830   28.8080   41.6330 N   0  0  0  0  0  0  0  0  0  0  0  0
   37.1740   29.8340   41.4570 C   0  0  0  0  0  0  0  0  0  0  0  0
   38.3060   29.9800   42.1980 N   0  0  0  0  0  0  0  0  0  0  0  0
   36.3750   29.3560   38.5080 C   0  0  0  0  0  0  0  0  0  0  0  0
   35.0480   29.1500   38.1830 C   0  0  0  0  0  0  0  0  0  0  0  0
   34.6340   27.9450   37.7450 C   0  0  0  0  0  0  0  0  0  0  0  0
   35.5570   26.9140   37.6240 C   0  0  0  0  0  0  0  0  0  0  0  0
   37.1520   27.7220   38.1800 S   0  0  0  0  0  0  0  0  0  0  0  0
   35.5110   25.5500   37.2070 C   0  0  0  0  0  0  0  0  0  0  0  0
   35.4470   24.5250   38.3580 C   0  0  0  0  0  0  0  0  0  0  0  0
   34.3130   24.6770   37.3930 C   0  0  0  0  0  0  0  0  0  0  0  0
   35.8073   31.0414   40.5429 H   0  0  0  0  0  0  0  0  0  0  0  0
   37.3269   32.6959   41.4262 H   0  0  0  0  0  0  0  0  0  0  0  0
   38.7503   31.8926   40.8165 H   0  0  0  0  0  0  0  0  0  0  0  0
   36.6908   33.5620   39.3529 H   0  0  0  0  0  0  0  0  0  0  0  0
   38.3923   33.3133   38.9225 H   0  0  0  0  0  0  0  0  0  0  0  0
   37.6859   31.7582   37.3649 H   0  0  0  0  0  0  0  0  0  0  0  0
   36.0163   31.8654   37.9234 H   0  0  0  0  0  0  0  0  0  0  0  0
   38.2381   29.9701   38.8943 H   0  0  0  0  0  0  0  0  0  0  0  0
   39.5000   29.1935   43.7725 H   0  0  0  0  0  0  0  0  0  0  0  0
   37.9006   27.2322   44.1843 H   0  0  0  0  0  0  0  0  0  0  0  0
   35.8190   27.0464   42.7491 H   0  0  0  0  0  0  0  0  0  0  0  0
   34.3260   29.9739   38.2823 H   0  0  0  0  0  0  0  0  0  0  0  0
   33.5777   27.7796   37.4863 H   0  0  0  0  0  0  0  0  0  0  0  0
   36.1273   25.7726   36.3235 H   0  0  0  0  0  0  0  0  0  0  0  0
   36.0781   23.6244   38.3324 H   0  0  0  0  0  0  0  0  0  0  0  0
   35.5571   24.5657   39.4517 H   0  0  0  0  0  0  0  0  0  0  0  0
   33.3649   25.1193   37.7329 H   0  0  0  0  0  0  0  0  0  0  0  0
   33.7645   23.9812   36.7410 H   0  0  0  0  0  0  0  0  0  0  0  0
  1  2  1  0
  1 10  1  0
  3  2  1  0
  4  5  1  0
  4  3  1  0
  5  1  1  0
  6  7  2  0
  8  7  1  0
  9  8  2  0
 10  9  1  0
 10 11  2  0
 11  6  1  0
 12  5  1  0
 13 12  2  0
 14 13  1  0
 15 14  2  0
 15 16  1  0
 16 12  1  0
 17 19  1  0
 17 15  1  0
 17 18  1  0
 19 18  1  0
  1 20  1  6
  2 21  1  0
  2 22  1  0
  3 23  1  0
  3 24  1  0
  4 25  1  0
  4 26  1  0
  5 27  1  1
  6 28  1  0
  7 29  1  0
  8 30  1  0
 13 31  1  0
 14 32  1  0
 17 33  1  0
 18 34  1  0
 18 35  1  0
 19 36  1  0
 19 37  1  0
M  ISO  8  20  13  21  13  22  13  23  13  24  13  25  13  26  13  27  13
M  ISO  8  28  14  29  14  30  14  31  14  32  14  33  13  34  13  35  13
M  ISO  2  36  13  37  13
M  END
>  <minimizedAffinity>  (1) 
-4.74103165

>  <minimizedRMSD>  (1) 
0.454418898

$$$$
