
     RDKit          3D

 36 39  0  0  1  0  0  0  0  0999 V2000
   36.8800   30.7440   40.5430 C   0  0  1  0  0  0  0  0  0  0  0  0
   37.7030   31.9520   40.7150 C   0  0  0  0  0  0  0  0  0  0  0  0
   37.4290   32.7020   39.4160 C   0  0  0  0  0  0  0  0  0  0  0  0
   37.0100   31.6510   38.4050 C   0  0  0  0  0  0  0  0  0  0  0  0
   37.1850   30.3260   39.1090 C   0  0  2  0  0  0  0  0  0  0  0  0
   38.6550   28.8460   43.1670 C   0  0  0  0  0  0  0  0  0  0  0  0
   37.7230   27.7770   43.4390 C   0  0  0  0  0  0  0  0  0  0  0  0
   36.5120   27.7390   42.6990 C   0  0  0  0  0  0  0  0  0  0  0  0
   36.2570   28.6940   41.7630 N   0  0  0  0  0  0  0  0  0  0  0  0
   37.1800   29.6820   41.5510 C   0  0  0  0  0  0  0  0  0  0  0  0
   38.3560   29.7690   42.2290 N   0  0  0  0  0  0  0  0  0  0  0  0
   36.3080   29.2850   38.6110 C   0  0  0  0  0  0  0  0  0  0  0  0
   34.9910   29.1090   38.2480 C   0  0  0  0  0  0  0  0  0  0  0  0
   34.5520   27.9090   37.8170 C   0  0  0  0  0  0  0  0  0  0  0  0
   35.4490   26.8510   37.7440 C   0  0  0  0  0  0  0  0  0  0  0  0
   37.0380   27.6170   38.3330 S   0  0  0  0  0  0  0  0  0  0  0  0
   35.2660   25.4900   37.3290 C   0  0  0  0  0  0  0  0  0  0  0  0
   33.9900   24.9090   37.1830 C   0  0  0  0  0  0  0  0  0  0  0  0
   34.4080   23.1500   36.6300 S   0  0  0  0  0  0  0  0  0  0  0  0
   36.2230   23.5650   36.7130 C   0  0  0  0  0  0  0  0  0  0  0  0
   36.2640   24.6800   37.0550 N   0  0  0  0  0  0  0  0  0  0  0  0
   35.8082   30.9271   40.7097 H   0  0  0  0  0  0  0  0  0  0  0  0
   37.3806   32.5353   41.5902 H   0  0  0  0  0  0  0  0  0  0  0  0
   38.7683   31.7441   40.8938 H   0  0  0  0  0  0  0  0  0  0  0  0
   36.6221   33.4354   39.5613 H   0  0  0  0  0  0  0  0  0  0  0  0
   38.3166   33.2558   39.0763 H   0  0  0  0  0  0  0  0  0  0  0  0
   37.6497   31.6997   37.5115 H   0  0  0  0  0  0  0  0  0  0  0  0
   35.9747   31.8001   38.0646 H   0  0  0  0  0  0  0  0  0  0  0  0
   38.1723   29.8617   38.9686 H   0  0  0  0  0  0  0  0  0  0  0  0
   39.6032   28.9076   43.7212 H   0  0  0  0  0  0  0  0  0  0  0  0
   37.9453   27.0131   44.1987 H   0  0  0  0  0  0  0  0  0  0  0  0
   35.7802   26.9384   42.8819 H   0  0  0  0  0  0  0  0  0  0  0  0
   34.2909   29.9551   38.3103 H   0  0  0  0  0  0  0  0  0  0  0  0
   33.4998   27.7702   37.5277 H   0  0  0  0  0  0  0  0  0  0  0  0
   33.0021   25.3635   37.3487 H   0  0  0  0  0  0  0  0  0  0  0  0
   37.0718   22.9024   36.4883 H   0  0  0  0  0  0  0  0  0  0  0  0
  1  2  1  0
  1 10  1  0
  3  2  1  0
  4  5  1  0
  4  3  1  0
  5  1  1  0
  6  7  2  0
  8  7  1  0
  9  8  2  0
 10  9  1  0
 10 11  2  0
 11  6  1  0
 12  5  1  0
 13 12  2  0
 14 13  1  0
 15 14  2  0
 15 16  1  0
 16 12  1  0
 17 15  1  0
 18 17  2  0
 19 20  1  0
 19 18  1  0
 20 21  2  0
 21 17  1  0
  1 22  1  6
  2 23  1  0
  2 24  1  0
  3 25  1  0
  3 26  1  0
  4 27  1  0
  4 28  1  0
  5 29  1  1
  6 30  1  0
  7 31  1  0
  8 32  1  0
 13 33  1  0
 14 34  1  0
 18 35  1  0
 20 36  1  0
M  ISO  8  22  13  23  13  24  13  25  13  26  13  27  13  28  13  29  13
M  ISO  7  30  14  31  14  32  14  33  14  34  14  35  14  36  14
M  END
>  <minimizedAffinity>  (1) 
-4.6957469

>  <minimizedRMSD>  (1) 
0.680519223

$$$$
