
     RDKit          3D

 36 38  0  0  1  0  0  0  0  0999 V2000
   36.8740   30.8840   40.4050 C   0  0  1  0  0  0  0  0  0  0  0  0
   37.6870   32.1020   40.5620 C   0  0  0  0  0  0  0  0  0  0  0  0
   37.4160   32.8220   39.2480 C   0  0  0  0  0  0  0  0  0  0  0  0
   37.0570   31.7350   38.2470 C   0  0  0  0  0  0  0  0  0  0  0  0
   37.2180   30.4290   38.9940 C   0  0  2  0  0  0  0  0  0  0  0  0
   38.5810   29.1090   43.1590 C   0  0  0  0  0  0  0  0  0  0  0  0
   37.6770   28.0070   43.4020 C   0  0  0  0  0  0  0  0  0  0  0  0
   36.5110   27.9020   42.6020 C   0  0  0  0  0  0  0  0  0  0  0  0
   36.2710   28.8300   41.6350 N   0  0  0  0  0  0  0  0  0  0  0  0
   37.1600   29.8510   41.4490 C   0  0  0  0  0  0  0  0  0  0  0  0
   38.2930   29.9990   42.1880 N   0  0  0  0  0  0  0  0  0  0  0  0
   36.3490   29.3720   38.5070 C   0  0  0  0  0  0  0  0  0  0  0  0
   35.0390   29.1560   38.1580 C   0  0  0  0  0  0  0  0  0  0  0  0
   34.6140   27.9540   37.7340 C   0  0  0  0  0  0  0  0  0  0  0  0
   35.5410   26.9220   37.6550 C   0  0  0  0  0  0  0  0  0  0  0  0
   37.1160   27.7180   38.2220 S   0  0  0  0  0  0  0  0  0  0  0  0
   35.3660   25.5220   37.2320 C   0  0  0  0  0  0  0  0  0  0  0  0
   35.6730   24.6800   38.4200 C   0  0  0  0  0  0  0  0  0  0  0  0
   35.7975   31.0643   40.5414 H   0  0  0  0  0  0  0  0  0  0  0  0
   37.3532   32.6992   41.4233 H   0  0  0  0  0  0  0  0  0  0  0  0
   38.7524   31.9073   40.7543 H   0  0  0  0  0  0  0  0  0  0  0  0
   36.5803   33.5279   39.3632 H   0  0  0  0  0  0  0  0  0  0  0  0
   38.2887   33.4046   38.9178 H   0  0  0  0  0  0  0  0  0  0  0  0
   37.7357   31.7694   37.3821 H   0  0  0  0  0  0  0  0  0  0  0  0
   36.0357   31.8595   37.8578 H   0  0  0  0  0  0  0  0  0  0  0  0
   38.2103   29.9659   38.8894 H   0  0  0  0  0  0  0  0  0  0  0  0
   39.4951   29.2202   43.7607 H   0  0  0  0  0  0  0  0  0  0  0  0
   37.8887   27.2678   44.1886 H   0  0  0  0  0  0  0  0  0  0  0  0
   35.8038   27.0748   42.7618 H   0  0  0  0  0  0  0  0  0  0  0  0
   34.3207   29.9862   38.2271 H   0  0  0  0  0  0  0  0  0  0  0  0
   33.5619   27.7915   37.4572 H   0  0  0  0  0  0  0  0  0  0  0  0
   34.3305   25.3512   36.9025 H   0  0  0  0  0  0  0  0  0  0  0  0
   36.0275   25.2758   36.3883 H   0  0  0  0  0  0  0  0  0  0  0  0
   35.4650   25.2504   39.3373 H   0  0  0  0  0  0  0  0  0  0  0  0
   35.0466   23.7760   38.4004 H   0  0  0  0  0  0  0  0  0  0  0  0
   36.7343   24.3913   38.4004 H   0  0  0  0  0  0  0  0  0  0  0  0
  1  2  1  0
  1 10  1  0
  3  2  1  0
  4  5  1  0
  4  3  1  0
  5  1  1  0
  6  7  2  0
  8  7  1  0
  9  8  2  0
 10  9  1  0
 10 11  2  0
 11  6  1  0
 12  5  1  0
 13 12  2  0
 14 13  1  0
 15 14  2  0
 15 16  1  0
 16 12  1  0
 17 15  1  0
 17 18  1  0
  1 19  1  6
  2 20  1  0
  2 21  1  0
  3 22  1  0
  3 23  1  0
  4 24  1  0
  4 25  1  0
  5 26  1  1
  6 27  1  0
  7 28  1  0
  8 29  1  0
 13 30  1  0
 14 31  1  0
 17 32  1  0
 17 33  1  0
 18 34  1  0
 18 35  1  0
 18 36  1  0
M  ISO  8  19  13  20  13  21  13  22  13  23  13  24  13  25  13  26  13
M  ISO  8  27  14  28  14  29  14  30  14  31  14  32   8  33   8  34   8
M  ISO  2  35   8  36   8
M  END
>  <minimizedAffinity>  (1) 
-4.61431074

>  <minimizedRMSD>  (1) 
0.422459632

$$$$
