
     RDKit          3D

 33 35  0  0  1  0  0  0  0  0999 V2000
   36.9130   31.0160   40.3910 C   0  0  1  0  0  0  0  0  0  0  0  0
   37.6520   32.2600   40.6610 C   0  0  0  0  0  0  0  0  0  0  0  0
   37.4610   33.0240   39.3510 C   0  0  0  0  0  0  0  0  0  0  0  0
   37.1740   31.9800   38.2920 C   0  0  0  0  0  0  0  0  0  0  0  0
   37.3680   30.6490   38.9830 C   0  0  2  0  0  0  0  0  0  0  0  0
   38.5670   29.1290   43.1020 C   0  0  0  0  0  0  0  0  0  0  0  0
   37.6550   28.0230   43.2900 C   0  0  0  0  0  0  0  0  0  0  0  0
   36.5010   27.9580   42.4670 C   0  0  0  0  0  0  0  0  0  0  0  0
   36.2800   28.9220   41.5330 N   0  0  0  0  0  0  0  0  0  0  0  0
   37.1780   29.9450   41.4010 C   0  0  0  0  0  0  0  0  0  0  0  0
   38.2990   30.0580   42.1610 N   0  0  0  0  0  0  0  0  0  0  0  0
   36.5900   29.5740   38.3880 C   0  0  0  0  0  0  0  0  0  0  0  0
   35.3050   29.3340   37.9470 C   0  0  0  0  0  0  0  0  0  0  0  0
   34.9640   28.1340   37.4390 C   0  0  0  0  0  0  0  0  0  0  0  0
   35.9330   27.1390   37.3640 C   0  0  0  0  0  0  0  0  0  0  0  0
   37.4530   27.9780   38.0770 S   0  0  0  0  0  0  0  0  0  0  0  0
   35.8360   25.7760   36.8670 C   0  0  0  0  0  0  0  0  0  0  0  0
   35.8225   31.1405   40.4634 H   0  0  0  0  0  0  0  0  0  0  0  0
   37.2189   32.8073   41.5112 H   0  0  0  0  0  0  0  0  0  0  0  0
   38.7052   32.1030   40.9370 H   0  0  0  0  0  0  0  0  0  0  0  0
   36.6158   33.7228   39.4367 H   0  0  0  0  0  0  0  0  0  0  0  0
   38.3525   33.6169   39.0987 H   0  0  0  0  0  0  0  0  0  0  0  0
   37.8739   32.0827   37.4496 H   0  0  0  0  0  0  0  0  0  0  0  0
   36.1605   32.0835   37.8773 H   0  0  0  0  0  0  0  0  0  0  0  0
   38.3888   30.2438   38.9220 H   0  0  0  0  0  0  0  0  0  0  0  0
   39.4723   29.2124   43.7213 H   0  0  0  0  0  0  0  0  0  0  0  0
   37.8505   27.2527   44.0505 H   0  0  0  0  0  0  0  0  0  0  0  0
   35.7866   27.1298   42.5840 H   0  0  0  0  0  0  0  0  0  0  0  0
   34.5503   30.1317   38.0110 H   0  0  0  0  0  0  0  0  0  0  0  0
   33.9382   27.9444   37.0899 H   0  0  0  0  0  0  0  0  0  0  0  0
   35.7864   25.0787   37.7163 H   0  0  0  0  0  0  0  0  0  0  0  0
   34.9282   25.6728   36.2544 H   0  0  0  0  0  0  0  0  0  0  0  0
   36.7200   25.5453   36.2544 H   0  0  0  0  0  0  0  0  0  0  0  0
  1  2  1  0
  1 10  1  0
  3  2  1  0
  4  5  1  0
  4  3  1  0
  5  1  1  0
  6  7  2  0
  8  7  1  0
  9  8  2  0
 10  9  1  0
 10 11  2  0
 11  6  1  0
 12  5  1  0
 13 12  2  0
 14 13  1  0
 15 14  2  0
 15 16  1  0
 16 12  1  0
 17 15  1  0
  1 18  1  6
  2 19  1  0
  2 20  1  0
  3 21  1  0
  3 22  1  0
  4 23  1  0
  4 24  1  0
  5 25  1  1
  6 26  1  0
  7 27  1  0
  8 28  1  0
 13 29  1  0
 14 30  1  0
 17 31  1  0
 17 32  1  0
 17 33  1  0
M  ISO  8  18  13  19  13  20  13  21  13  22  13  23  13  24  13  25  13
M  ISO  8  26  14  27  14  28  14  29  14  30  14  31   8  32   8  33   8
M  END
>  <minimizedAffinity>  (1) 
-4.55963755

>  <minimizedRMSD>  (1) 
0.067111522

$$$$
