
     RDKit          3D

 31 33  0  0  1  0  0  0  0  0999 V2000
   36.9060   31.0170   40.3810 C   0  0  1  0  0  0  0  0  0  0  0  0
   37.6390   32.2650   40.6530 C   0  0  0  0  0  0  0  0  0  0  0  0
   37.4410   33.0320   39.3470 C   0  0  0  0  0  0  0  0  0  0  0  0
   37.1810   31.9820   38.2820 C   0  0  0  0  0  0  0  0  0  0  0  0
   37.3680   30.6510   38.9760 C   0  0  2  0  0  0  0  0  0  0  0  0
   38.5690   29.1370   43.0910 C   0  0  0  0  0  0  0  0  0  0  0  0
   37.6620   28.0290   43.2880 C   0  0  0  0  0  0  0  0  0  0  0  0
   36.5060   27.9620   42.4670 C   0  0  0  0  0  0  0  0  0  0  0  0
   36.2810   28.9240   41.5320 N   0  0  0  0  0  0  0  0  0  0  0  0
   37.1770   29.9490   41.3930 C   0  0  0  0  0  0  0  0  0  0  0  0
   38.3010   30.0660   42.1490 N   0  0  0  0  0  0  0  0  0  0  0  0
   36.5960   29.5770   38.3810 C   0  0  0  0  0  0  0  0  0  0  0  0
   35.3150   29.3270   37.9360 C   0  0  0  0  0  0  0  0  0  0  0  0
   34.9770   28.1250   37.4270 C   0  0  0  0  0  0  0  0  0  0  0  0
   35.9460   27.1330   37.3570 C   0  0  0  0  0  0  0  0  0  0  0  0
   37.4600   27.9810   38.0730 S   0  0  0  0  0  0  0  0  0  0  0  0
   35.7040   25.4740   36.7170 S   0  0  0  0  0  0  0  0  0  0  0  0
   35.8145   31.1355   40.4488 H   0  0  0  0  0  0  0  0  0  0  0  0
   37.2049   32.8071   41.5060 H   0  0  0  0  0  0  0  0  0  0  0  0
   38.6937   32.1128   40.9257 H   0  0  0  0  0  0  0  0  0  0  0  0
   36.5815   33.7134   39.4302 H   0  0  0  0  0  0  0  0  0  0  0  0
   38.3204   33.6458   39.1023 H   0  0  0  0  0  0  0  0  0  0  0  0
   37.8972   32.0882   37.4539 H   0  0  0  0  0  0  0  0  0  0  0  0
   36.1747   32.0795   37.8485 H   0  0  0  0  0  0  0  0  0  0  0  0
   38.3895   30.2467   38.9194 H   0  0  0  0  0  0  0  0  0  0  0  0
   39.4759   29.2231   43.7075 H   0  0  0  0  0  0  0  0  0  0  0  0
   37.8614   27.2616   44.0504 H   0  0  0  0  0  0  0  0  0  0  0  0
   35.7929   27.1331   42.5867 H   0  0  0  0  0  0  0  0  0  0  0  0
   34.5564   30.1212   37.9973 H   0  0  0  0  0  0  0  0  0  0  0  0
   33.9529   27.9339   37.0739 H   0  0  0  0  0  0  0  0  0  0  0  0
   35.5759   24.5960   37.7609 H   0  0  0  0  0  0  0  0  0  0  0  0
  1  2  1  0
  1 10  1  0
  3  2  1  0
  4  5  1  0
  4  3  1  0
  5  1  1  0
  6  7  2  0
  8  7  1  0
  9  8  2  0
 10  9  1  0
 10 11  2  0
 11  6  1  0
 12  5  1  0
 13 12  2  0
 14 13  1  0
 15 14  2  0
 15 16  1  0
 16 12  1  0
 17 15  1  0
  1 18  1  6
  2 19  1  0
  2 20  1  0
  3 21  1  0
  3 22  1  0
  4 23  1  0
  4 24  1  0
  5 25  1  1
  6 26  1  0
  7 27  1  0
  8 28  1  0
 13 29  1  0
 14 30  1  0
 17 31  1  0
M  ISO  8  18  13  19  13  20  13  21  13  22  13  23  13  24  13  25  13
M  ISO  6  26  14  27  14  28  14  29  14  30  14  31  11
M  END
>  <minimizedAffinity>  (1) 
-4.55423069

>  <minimizedRMSD>  (1) 
0.0584154464

$$$$
