
     RDKit          3D

 32 34  0  0  1  0  0  0  0  0999 V2000
   36.9060   31.0080   40.3770 C   0  0  1  0  0  0  0  0  0  0  0  0
   37.6190   32.2650   40.6570 C   0  0  0  0  0  0  0  0  0  0  0  0
   37.4450   33.0250   39.3430 C   0  0  0  0  0  0  0  0  0  0  0  0
   37.1760   31.9750   38.2840 C   0  0  0  0  0  0  0  0  0  0  0  0
   37.3810   30.6450   38.9740 C   0  0  2  0  0  0  0  0  0  0  0  0
   38.5580   29.1350   43.0980 C   0  0  0  0  0  0  0  0  0  0  0  0
   37.6500   28.0270   43.2910 C   0  0  0  0  0  0  0  0  0  0  0  0
   36.5000   27.9590   42.4630 C   0  0  0  0  0  0  0  0  0  0  0  0
   36.2820   28.9190   41.5260 N   0  0  0  0  0  0  0  0  0  0  0  0
   37.1750   29.9420   41.3920 C   0  0  0  0  0  0  0  0  0  0  0  0
   38.2950   30.0620   42.1530 N   0  0  0  0  0  0  0  0  0  0  0  0
   36.6070   29.5670   38.3770 C   0  0  0  0  0  0  0  0  0  0  0  0
   35.3130   29.3240   37.9350 C   0  0  0  0  0  0  0  0  0  0  0  0
   34.9920   28.1150   37.4260 C   0  0  0  0  0  0  0  0  0  0  0  0
   35.9660   27.1220   37.3500 C   0  0  0  0  0  0  0  0  0  0  0  0
   37.4740   27.9760   38.0630 S   0  0  0  0  0  0  0  0  0  0  0  0
   35.9160   25.8250   36.8850 N   0  0  0  0  0  0  0  0  0  0  0  0
   35.8128   31.1161   40.4346 H   0  0  0  0  0  0  0  0  0  0  0  0
   37.1596   32.8071   41.4967 H   0  0  0  0  0  0  0  0  0  0  0  0
   38.6689   32.1241   40.9535 H   0  0  0  0  0  0  0  0  0  0  0  0
   36.5968   33.7218   39.4142 H   0  0  0  0  0  0  0  0  0  0  0  0
   38.3377   33.6206   39.1014 H   0  0  0  0  0  0  0  0  0  0  0  0
   37.8791   32.0856   37.4453 H   0  0  0  0  0  0  0  0  0  0  0  0
   36.1626   32.0665   37.8661 H   0  0  0  0  0  0  0  0  0  0  0  0
   38.4063   30.2505   38.9180 H   0  0  0  0  0  0  0  0  0  0  0  0
   39.4612   29.2224   43.7198 H   0  0  0  0  0  0  0  0  0  0  0  0
   37.8445   27.2607   44.0558 H   0  0  0  0  0  0  0  0  0  0  0  0
   35.7858   27.1305   42.5792 H   0  0  0  0  0  0  0  0  0  0  0  0
   34.5511   30.1148   37.9994 H   0  0  0  0  0  0  0  0  0  0  0  0
   33.9690   27.9158   37.0740 H   0  0  0  0  0  0  0  0  0  0  0  0
   36.7598   25.2349   36.9131 H   0  0  0  0  0  0  0  0  0  0  0  0
   35.0349   25.4461   36.5095 H   0  0  0  0  0  0  0  0  0  0  0  0
  1  2  1  0
  1 10  1  0
  3  2  1  0
  4  5  1  0
  4  3  1  0
  5  1  1  0
  6  7  2  0
  8  7  1  0
  9  8  2  0
 10  9  1  0
 10 11  2  0
 11  6  1  0
 12  5  1  0
 13 12  2  0
 14 13  1  0
 15 14  2  0
 15 16  1  0
 16 12  1  0
 17 15  1  0
  1 18  1  6
  2 19  1  0
  2 20  1  0
  3 21  1  0
  3 22  1  0
  4 23  1  0
  4 24  1  0
  5 25  1  1
  6 26  1  0
  7 27  1  0
  8 28  1  0
 13 29  1  0
 14 30  1  0
 17 31  1  0
 17 32  1  0
M  ISO  8  18  13  19  13  20  13  21  13  22  13  23  13  24  13  25  13
M  ISO  5  26  14  27  14  28  14  29  14  30  14
M  END
>  <minimizedAffinity>  (1) 
-4.54691935

>  <minimizedRMSD>  (1) 
0.0481186695

$$$$
