
     RDKit          3D

 46 49  0  0  1  0  0  0  0  0999 V2000
   39.8980   33.1300   39.7680 C   0  0  1  0  0  0  0  0  0  0  0  0
   40.2750   34.5370   39.8020 C   0  0  0  0  0  0  0  0  0  0  0  0
   39.0000   35.2100   40.2920 C   0  0  0  0  0  0  0  0  0  0  0  0
   37.8840   34.2130   40.0500 C   0  0  0  0  0  0  0  0  0  0  0  0
   38.4870   33.1640   39.1460 C   0  0  2  0  0  0  0  0  0  0  0  0
   41.8990   31.8600   36.9260 C   0  0  0  0  0  0  0  0  0  0  0  0
   42.6440   30.7810   37.5600 C   0  0  0  0  0  0  0  0  0  0  0  0
   42.4200   30.5190   38.9470 C   0  0  0  0  0  0  0  0  0  0  0  0
   41.5250   31.2750   39.6420 N   0  0  0  0  0  0  0  0  0  0  0  0
   40.8580   32.2740   38.9900 C   0  0  0  0  0  0  0  0  0  0  0  0
   41.0270   32.5740   37.6650 N   0  0  0  0  0  0  0  0  0  0  0  0
   37.7990   31.8820   39.2340 C   0  0  0  0  0  0  0  0  0  0  0  0
   37.0760   31.0220   38.4120 C   0  0  0  0  0  0  0  0  0  0  0  0
   36.5650   29.8950   38.9220 C   0  0  0  0  0  0  0  0  0  0  0  0
   36.7560   29.5900   40.2470 C   0  0  0  0  0  0  0  0  0  0  0  0
   37.7570   31.0370   40.8480 S   0  0  0  0  0  0  0  0  0  0  0  0
   35.7980   28.9830   38.0370 C   0  0  0  0  0  0  0  0  0  0  0  0
   34.3210   29.0930   38.1100 C   0  0  0  0  0  0  0  0  0  0  0  0
   33.9310   28.0710   37.0540 C   0  0  0  0  0  0  0  0  0  0  0  0
   34.8220   28.5060   35.9070 C   0  0  0  0  0  0  0  0  0  0  0  0
   35.9640   29.3220   36.5420 C   0  0  0  0  0  0  0  0  0  0  0  0
   36.3620   28.4680   41.0440 C   0  0  0  0  0  0  0  0  0  0  0  0
   36.6550   27.2170   40.4960 F   0  0  0  0  0  0  0  0  0  0  0  0
   37.0070   28.5770   42.2290 F   0  0  0  0  0  0  0  0  0  0  0  0
   34.9990   28.5400   41.2690 F   0  0  0  0  0  0  0  0  0  0  0  0
   39.9174   32.6654   40.7649 H   0  0  0  0  0  0  0  0  0  0  0  0
   41.1079   34.7083   40.4998 H   0  0  0  0  0  0  0  0  0  0  0  0
   40.6271   34.9194   38.8326 H   0  0  0  0  0  0  0  0  0  0  0  0
   39.0785   35.4436   41.3640 H   0  0  0  0  0  0  0  0  0  0  0  0
   38.8158   36.1579   39.7652 H   0  0  0  0  0  0  0  0  0  0  0  0
   37.5548   33.7633   40.9984 H   0  0  0  0  0  0  0  0  0  0  0  0
   36.9977   34.6854   39.6013 H   0  0  0  0  0  0  0  0  0  0  0  0
   38.4427   33.3743   38.0672 H   0  0  0  0  0  0  0  0  0  0  0  0
   42.0458   32.0887   35.8601 H   0  0  0  0  0  0  0  0  0  0  0  0
   43.3635   30.1807   36.9838 H   0  0  0  0  0  0  0  0  0  0  0  0
   42.9683   29.7098   39.4515 H   0  0  0  0  0  0  0  0  0  0  0  0
   36.9257   31.2671   37.3502 H   0  0  0  0  0  0  0  0  0  0  0  0
   36.1935   28.0162   38.3819 H   0  0  0  0  0  0  0  0  0  0  0  0
   33.9394   28.8190   39.1046 H   0  0  0  0  0  0  0  0  0  0  0  0
   33.9219   30.1050   37.9469 H   0  0  0  0  0  0  0  0  0  0  0  0
   34.1584   27.0448   37.3784 H   0  0  0  0  0  0  0  0  0  0  0  0
   32.8574   28.0443   36.8161 H   0  0  0  0  0  0  0  0  0  0  0  0
   34.2560   29.1282   35.1981 H   0  0  0  0  0  0  0  0  0  0  0  0
   35.2078   27.6417   35.3465 H   0  0  0  0  0  0  0  0  0  0  0  0
   36.9454   28.9991   36.1644 H   0  0  0  0  0  0  0  0  0  0  0  0
   35.9194   30.3987   36.3210 H   0  0  0  0  0  0  0  0  0  0  0  0
  1  2  1  0
  2  3  1  0
  4  3  1  0
  5 12  1  0
  5  1  1  0
  5  4  1  0
  6  7  2  0
  6 11  1  0
  7  8  1  0
  8  9  2  0
 10  9  1  0
 10  1  1  0
 11 10  2  0
 12 16  1  0
 13 14  1  0
 13 12  2  0
 14 15  2  0
 15 16  1  0
 15 22  1  0
 17 18  1  0
 17 14  1  0
 19 18  1  0
 20 21  1  0
 20 19  1  0
 21 17  1  0
 22 25  1  0
 22 24  1  0
 23 22  1  0
  1 26  1  1
  2 27  1  0
  2 28  1  0
  3 29  1  0
  3 30  1  0
  4 31  1  0
  4 32  1  0
  5 33  1  6
  6 34  1  0
  7 35  1  0
  8 36  1  0
 13 37  1  0
 17 38  1  0
 18 39  1  0
 18 40  1  0
 19 41  1  0
 19 42  1  0
 20 43  1  0
 20 44  1  0
 21 45  1  0
 21 46  1  0
M  ISO  8  26  13  27  13  28  13  29  13  30  13  31  13  32  13  33  13
M  ISO  8  34  14  35  14  36  14  37  14  38  13  39  13  40  13  41  13
M  ISO  5  42  13  43  13  44  13  45  13  46  13
M  END
>  <minimizedAffinity>  (1) 
-5.55711842

>  <minimizedRMSD>  (1) 
4.72639084

$$$$
