
     RDKit          3D

 44 48  0  0  1  0  0  0  0  0999 V2000
   36.8750   30.8100   40.2850 C   0  0  1  0  0  0  0  0  0  0  0  0
   37.4320   32.1450   40.4780 C   0  0  0  0  0  0  0  0  0  0  0  0
   37.2340   32.7780   39.1040 C   0  0  0  0  0  0  0  0  0  0  0  0
   37.1280   31.6110   38.1310 C   0  0  0  0  0  0  0  0  0  0  0  0
   37.5080   30.3950   38.9380 C   0  0  2  0  0  0  0  0  0  0  0  0
   38.6990   29.3120   43.1360 C   0  0  0  0  0  0  0  0  0  0  0  0
   37.8370   28.1920   43.4730 C   0  0  0  0  0  0  0  0  0  0  0  0
   36.6560   27.9850   42.6950 C   0  0  0  0  0  0  0  0  0  0  0  0
   36.3550   28.8280   41.6600 N   0  0  0  0  0  0  0  0  0  0  0  0
   37.2050   29.8560   41.3990 C   0  0  0  0  0  0  0  0  0  0  0  0
   38.3530   30.1080   42.1070 N   0  0  0  0  0  0  0  0  0  0  0  0
   36.9470   29.1610   38.4030 C   0  0  0  0  0  0  0  0  0  0  0  0
   37.3410   27.8580   38.1670 C   0  0  0  0  0  0  0  0  0  0  0  0
   36.4990   26.9610   37.6290 C   0  0  0  0  0  0  0  0  0  0  0  0
   35.2230   27.3790   37.3170 C   0  0  0  0  0  0  0  0  0  0  0  0
   35.2170   29.1700   37.8220 S   0  0  0  0  0  0  0  0  0  0  0  0
   36.8810   25.6150   37.3770 N   0  0  0  0  0  0  0  0  0  0  0  0
   37.2940   24.9950   36.2470 C   0  0  0  0  0  0  0  0  0  0  0  0
   37.5430   23.6990   36.5150 N   0  0  0  0  0  0  0  0  0  0  0  0
   37.2940   23.4630   37.8230 C   0  0  0  0  0  0  0  0  0  0  0  0
   37.4010   22.3140   38.5450 C   0  0  0  0  0  0  0  0  0  0  0  0
   37.0710   22.4080   39.8540 N   0  0  0  0  0  0  0  0  0  0  0  0
   36.6630   23.5700   40.4090 C   0  0  0  0  0  0  0  0  0  0  0  0
   36.5650   24.6890   39.6770 N   0  0  0  0  0  0  0  0  0  0  0  0
   36.8760   24.6830   38.3580 C   0  0  0  0  0  0  0  0  0  0  0  0
   34.1120   26.6650   36.7440 C   0  0  0  0  0  0  0  0  0  0  0  0
   32.9180   27.3790   36.6790 F   0  0  0  0  0  0  0  0  0  0  0  0
   34.4720   26.3180   35.4790 F   0  0  0  0  0  0  0  0  0  0  0  0
   33.9110   25.5040   37.4860 F   0  0  0  0  0  0  0  0  0  0  0  0
   35.7751   30.7974   40.2834 H   0  0  0  0  0  0  0  0  0  0  0  0
   36.8832   32.6978   41.2547 H   0  0  0  0  0  0  0  0  0  0  0  0
   38.4786   32.1423   40.8165 H   0  0  0  0  0  0  0  0  0  0  0  0
   36.3125   33.3784   39.0863 H   0  0  0  0  0  0  0  0  0  0  0  0
   38.0614   33.4540   38.8426 H   0  0  0  0  0  0  0  0  0  0  0  0
   37.8204   31.7470   37.2871 H   0  0  0  0  0  0  0  0  0  0  0  0
   36.1199   31.5225   37.6998 H   0  0  0  0  0  0  0  0  0  0  0  0
   38.5823   30.1608   38.9693 H   0  0  0  0  0  0  0  0  0  0  0  0
   39.6167   29.5058   43.7107 H   0  0  0  0  0  0  0  0  0  0  0  0
   38.0873   27.5196   44.3068 H   0  0  0  0  0  0  0  0  0  0  0  0
   35.9862   27.1445   42.9292 H   0  0  0  0  0  0  0  0  0  0  0  0
   38.3648   27.5493   38.4249 H   0  0  0  0  0  0  0  0  0  0  0  0
   37.4084   25.4746   35.2637 H   0  0  0  0  0  0  0  0  0  0  0  0
   37.7348   21.3684   38.0928 H   0  0  0  0  0  0  0  0  0  0  0  0
   36.4071   23.5986   41.4784 H   0  0  0  0  0  0  0  0  0  0  0  0
  1  2  1  0
  1 10  1  0
  3  2  1  0
  4  5  1  0
  4  3  1  0
  5  1  1  0
  6  7  2  0
  8  7  1  0
  9  8  2  0
 10  9  1  0
 10 11  2  0
 11  6  1  0
 12  5  1  0
 13 12  2  0
 14 13  1  0
 15 14  2  0
 15 16  1  0
 16 12  1  0
 17 14  1  0
 17 25  1  0
 18 19  2  0
 18 17  1  0
 19 20  1  0
 20 25  2  0
 20 21  1  0
 21 22  2  0
 22 23  1  0
 24 23  2  0
 25 24  1  0
 26 15  1  0
 26 29  1  0
 27 26  1  0
 28 26  1  0
  1 30  1  6
  2 31  1  0
  2 32  1  0
  3 33  1  0
  3 34  1  0
  4 35  1  0
  4 36  1  0
  5 37  1  1
  6 38  1  0
  7 39  1  0
  8 40  1  0
 13 41  1  0
 18 42  1  0
 21 43  1  0
 23 44  1  0
M  ISO  8  30  13  31  13  32  13  33  13  34  13  35  13  36  13  37  13
M  ISO  7  38  14  39  14  40  14  41  14  42  14  43  14  44  14
M  END
>  <minimizedAffinity>  (1) 
-5.34117889

>  <minimizedRMSD>  (1) 
3.81561923

$$$$
