
     RDKit          3D

 42 45  0  0  1  0  0  0  0  0999 V2000
   37.0260   30.9770   40.5300 C   0  0  1  0  0  0  0  0  0  0  0  0
   37.8410   32.1550   40.8090 C   0  0  0  0  0  0  0  0  0  0  0  0
   37.6350   32.9890   39.5460 C   0  0  0  0  0  0  0  0  0  0  0  0
   37.2100   32.0070   38.4740 C   0  0  0  0  0  0  0  0  0  0  0  0
   37.4300   30.6360   39.0810 C   0  0  2  0  0  0  0  0  0  0  0  0
   38.7430   28.8770   43.0480 C   0  0  0  0  0  0  0  0  0  0  0  0
   37.7500   27.8380   43.2670 C   0  0  0  0  0  0  0  0  0  0  0  0
   36.5210   27.8830   42.5350 C   0  0  0  0  0  0  0  0  0  0  0  0
   36.3050   28.8950   41.6480 N   0  0  0  0  0  0  0  0  0  0  0  0
   37.2770   29.8410   41.4850 C   0  0  0  0  0  0  0  0  0  0  0  0
   38.4670   29.8490   42.1570 N   0  0  0  0  0  0  0  0  0  0  0  0
   36.5760   29.6180   38.4770 C   0  0  0  0  0  0  0  0  0  0  0  0
   35.3030   29.4870   37.9790 C   0  0  0  0  0  0  0  0  0  0  0  0
   34.8590   28.3130   37.5020 C   0  0  0  0  0  0  0  0  0  0  0  0
   35.7040   27.2370   37.5180 C   0  0  0  0  0  0  0  0  0  0  0  0
   37.2590   27.9420   38.2730 S   0  0  0  0  0  0  0  0  0  0  0  0
   33.4710   28.3790   37.0080 C   0  0  0  0  0  0  0  0  0  0  0  0
   32.5350   29.3280   37.3390 C   0  0  0  0  0  0  0  0  0  0  0  0
   31.2300   29.4360   36.9280 C   0  0  0  0  0  0  0  0  0  0  0  0
   30.7910   28.4640   36.0650 C   0  0  0  0  0  0  0  0  0  0  0  0
   31.6770   27.5040   35.7060 C   0  0  0  0  0  0  0  0  0  0  0  0
   32.9030   27.5410   36.1930 N   0  0  0  0  0  0  0  0  0  0  0  0
   35.5410   25.8920   37.0780 C   0  0  0  0  0  0  0  0  0  0  0  0
   35.3570   25.7150   35.7090 F   0  0  0  0  0  0  0  0  0  0  0  0
   36.6830   25.2140   37.4170 F   0  0  0  0  0  0  0  0  0  0  0  0
   34.4900   25.3120   37.7540 F   0  0  0  0  0  0  0  0  0  0  0  0
   35.9486   31.1610   40.6542 H   0  0  0  0  0  0  0  0  0  0  0  0
   37.4821   32.6870   41.7024 H   0  0  0  0  0  0  0  0  0  0  0  0
   38.8954   31.9249   41.0219 H   0  0  0  0  0  0  0  0  0  0  0  0
   36.8513   33.7437   39.7078 H   0  0  0  0  0  0  0  0  0  0  0  0
   38.5495   33.5306   39.2623 H   0  0  0  0  0  0  0  0  0  0  0  0
   37.8251   32.1321   37.5706 H   0  0  0  0  0  0  0  0  0  0  0  0
   36.1640   32.1585   38.1691 H   0  0  0  0  0  0  0  0  0  0  0  0
   38.4332   30.2029   38.9545 H   0  0  0  0  0  0  0  0  0  0  0  0
   39.6965   28.8697   43.5965 H   0  0  0  0  0  0  0  0  0  0  0  0
   37.9408   27.0277   43.9860 H   0  0  0  0  0  0  0  0  0  0  0  0
   35.7566   27.1068   42.6871 H   0  0  0  0  0  0  0  0  0  0  0  0
   34.6343   30.3604   37.9707 H   0  0  0  0  0  0  0  0  0  0  0  0
   32.8795   30.1112   38.0303 H   0  0  0  0  0  0  0  0  0  0  0  0
   30.5761   30.2519   37.2696 H   0  0  0  0  0  0  0  0  0  0  0  0
   29.7606   28.4641   35.6799 H   0  0  0  0  0  0  0  0  0  0  0  0
   31.3775   26.7018   35.0155 H   0  0  0  0  0  0  0  0  0  0  0  0
  1  2  1  0
  1 10  1  0
  3  2  1  0
  4  5  1  0
  4  3  1  0
  5  1  1  0
  6  7  2  0
  8  7  1  0
  9  8  2  0
 10  9  1  0
 10 11  2  0
 11  6  1  0
 12  5  1  0
 13 12  2  0
 14 15  2  0
 14 13  1  0
 15 16  1  0
 16 12  1  0
 17 18  2  0
 17 14  1  0
 19 18  1  0
 20 19  2  0
 21 20  1  0
 21 22  2  0
 22 17  1  0
 23 25  1  0
 23 15  1  0
 23 26  1  0
 24 23  1  0
  1 27  1  6
  2 28  1  0
  2 29  1  0
  3 30  1  0
  3 31  1  0
  4 32  1  0
  4 33  1  0
  5 34  1  1
  6 35  1  0
  7 36  1  0
  8 37  1  0
 13 38  1  0
 18 39  1  0
 19 40  1  0
 20 41  1  0
 21 42  1  0
M  ISO  8  27  13  28  13  29  13  30  13  31  13  32  13  33  13  34  13
M  ISO  8  35  14  36  14  37  14  38  14  39  14  40  14  41  14  42  14
M  END
>  <minimizedAffinity>  (1) 
-5.31948423

>  <minimizedRMSD>  (1) 
0.693301201

$$$$
