
     RDKit          3D

 43 46  0  0  1  0  0  0  0  0999 V2000
   38.3270   31.1870   40.9020 C   0  0  1  0  0  0  0  0  0  0  0  0
   39.2910   32.2240   41.2530 C   0  0  0  0  0  0  0  0  0  0  0  0
   39.2460   33.1330   40.0310 C   0  0  0  0  0  0  0  0  0  0  0  0
   38.7520   32.2580   38.8880 C   0  0  0  0  0  0  0  0  0  0  0  0
   38.7150   30.8590   39.4480 C   0  0  2  0  0  0  0  0  0  0  0  0
   39.7510   28.3510   42.8080 C   0  0  0  0  0  0  0  0  0  0  0  0
   38.5650   27.8320   43.4720 C   0  0  0  0  0  0  0  0  0  0  0  0
   37.3080   28.4730   43.2310 C   0  0  0  0  0  0  0  0  0  0  0  0
   37.2420   29.5470   42.3930 N   0  0  0  0  0  0  0  0  0  0  0  0
   38.3870   29.9840   41.8030 C   0  0  0  0  0  0  0  0  0  0  0  0
   39.6200   29.4150   41.9920 N   0  0  0  0  0  0  0  0  0  0  0  0
   37.7610   29.9940   38.7820 C   0  0  0  0  0  0  0  0  0  0  0  0
   36.5190   30.0900   38.1700 C   0  0  0  0  0  0  0  0  0  0  0  0
   35.9270   29.0010   37.6540 C   0  0  0  0  0  0  0  0  0  0  0  0
   36.5720   27.7850   37.7420 C   0  0  0  0  0  0  0  0  0  0  0  0
   38.1450   28.2170   38.6280 S   0  0  0  0  0  0  0  0  0  0  0  0
   34.6510   29.0620   37.0180 N   0  0  0  0  0  0  0  0  0  0  0  0
   34.4810   29.1380   35.6920 C   0  0  0  0  0  0  0  0  0  0  0  0
   33.1670   29.1910   35.2400 C   0  0  0  0  0  0  0  0  0  0  0  0
   32.1020   29.1650   36.1150 C   0  0  0  0  0  0  0  0  0  0  0  0
   30.9090   29.2140   35.6950 O   0  0  0  0  0  0  0  0  0  0  0  0
   32.3150   29.0880   37.4530 N   0  0  0  0  0  0  0  0  0  0  0  0
   33.6060   29.0370   37.8830 C   0  0  0  0  0  0  0  0  0  0  0  0
   33.7500   28.9650   39.1440 O   0  0  0  0  0  0  0  0  0  0  0  0
   36.1960   26.4740   37.2850 C   0  0  0  0  0  0  0  0  0  0  0  0
   36.0070   26.3600   35.9110 F   0  0  0  0  0  0  0  0  0  0  0  0
   37.1810   25.6260   37.6650 F   0  0  0  0  0  0  0  0  0  0  0  0
   35.0080   26.1190   37.9400 F   0  0  0  0  0  0  0  0  0  0  0  0
   37.2840   31.5174   41.0163 H   0  0  0  0  0  0  0  0  0  0  0  0
   38.9843   32.7623   42.1619 H   0  0  0  0  0  0  0  0  0  0  0  0
   40.2953   31.8353   41.4772 H   0  0  0  0  0  0  0  0  0  0  0  0
   38.5532   33.9704   40.2006 H   0  0  0  0  0  0  0  0  0  0  0  0
   40.2315   33.5701   39.8124 H   0  0  0  0  0  0  0  0  0  0  0  0
   39.4427   32.3133   38.0337 H   0  0  0  0  0  0  0  0  0  0  0  0
   37.7664   32.5797   38.5206 H   0  0  0  0  0  0  0  0  0  0  0  0
   39.6465   30.2862   39.3290 H   0  0  0  0  0  0  0  0  0  0  0  0
   40.7341   27.8844   42.9689 H   0  0  0  0  0  0  0  0  0  0  0  0
   38.6329   26.9648   44.1454 H   0  0  0  0  0  0  0  0  0  0  0  0
   36.3966   28.0999   43.7210 H   0  0  0  0  0  0  0  0  0  0  0  0
   36.0157   31.0661   38.1072 H   0  0  0  0  0  0  0  0  0  0  0  0
   35.3343   29.1574   34.9981 H   0  0  0  0  0  0  0  0  0  0  0  0
   32.9728   29.2552   34.1592 H   0  0  0  0  0  0  0  0  0  0  0  0
   31.5292   29.0688   38.1187 H   0  0  0  0  0  0  0  0  0  0  0  0
  1  2  1  0
  1 10  1  0
  3  2  1  0
  4  5  1  0
  4  3  1  0
  5  1  1  0
  6  7  2  0
  8  7  1  0
  9  8  2  0
 10 11  2  0
 10  9  1  0
 11  6  1  0
 12  5  1  0
 13 12  2  0
 14 15  2  0
 14 13  1  0
 15 16  1  0
 16 12  1  0
 17 14  1  0
 17 23  1  0
 18 17  1  0
 19 18  2  0
 19 20  1  0
 20 22  1  0
 21 20  2  0
 22 23  1  0
 23 24  2  0
 25 27  1  0
 25 15  1  0
 25 28  1  0
 26 25  1  0
  1 29  1  6
  2 30  1  0
  2 31  1  0
  3 32  1  0
  3 33  1  0
  4 34  1  0
  4 35  1  0
  5 36  1  1
  6 37  1  0
  7 38  1  0
  8 39  1  0
 13 40  1  0
 18 41  1  0
 19 42  1  0
 22 43  1  0
M  ISO  8  29  13  30  13  31  13  32  13  33  13  34  13  35  13  36  13
M  ISO  7  37  14  38  14  39  14  40  14  41  14  42  14  43   9
M  END
>  <minimizedAffinity>  (1) 
-5.31569147

>  <minimizedRMSD>  (1) 
1.6957655

$$$$
