
     RDKit          3D

 43 46  0  0  1  0  0  0  0  0999 V2000
   38.2520   31.1170   40.9230 C   0  0  1  0  0  0  0  0  0  0  0  0
   39.1800   32.1960   41.2450 C   0  0  0  0  0  0  0  0  0  0  0  0
   39.1010   33.0730   40.0040 C   0  0  0  0  0  0  0  0  0  0  0  0
   38.5960   32.1720   38.8900 C   0  0  0  0  0  0  0  0  0  0  0  0
   38.6350   30.7760   39.4670 C   0  0  2  0  0  0  0  0  0  0  0  0
   39.7860   28.3510   42.8440 C   0  0  0  0  0  0  0  0  0  0  0  0
   38.6310   27.8280   43.5420 C   0  0  0  0  0  0  0  0  0  0  0  0
   37.3550   28.4300   43.3290 C   0  0  0  0  0  0  0  0  0  0  0  0
   37.2430   29.4850   42.4720 N   0  0  0  0  0  0  0  0  0  0  0  0
   38.3620   29.9360   41.8410 C   0  0  0  0  0  0  0  0  0  0  0  0
   39.6100   29.3960   42.0100 N   0  0  0  0  0  0  0  0  0  0  0  0
   37.6880   29.8730   38.8340 C   0  0  0  0  0  0  0  0  0  0  0  0
   36.4250   29.9200   38.2510 C   0  0  0  0  0  0  0  0  0  0  0  0
   35.8680   28.7990   37.7560 C   0  0  0  0  0  0  0  0  0  0  0  0
   36.5670   27.6160   37.8380 C   0  0  0  0  0  0  0  0  0  0  0  0
   38.1390   28.1120   38.6790 S   0  0  0  0  0  0  0  0  0  0  0  0
   34.5400   28.9970   37.1340 C   0  0  0  0  0  0  0  0  0  0  0  0
   33.3420   29.0610   37.8130 C   0  0  0  0  0  0  0  0  0  0  0  0
   32.1630   29.2640   37.1260 C   0  0  0  0  0  0  0  0  0  0  0  0
   32.1400   29.4100   35.7550 C   0  0  0  0  0  0  0  0  0  0  0  0
   33.3030   29.3530   35.0360 C   0  0  0  0  0  0  0  0  0  0  0  0
   34.4430   29.1520   35.7460 C   0  0  0  0  0  0  0  0  0  0  0  0
   36.2180   26.3040   37.3960 C   0  0  0  0  0  0  0  0  0  0  0  0
   36.0020   26.1650   36.0270 F   0  0  0  0  0  0  0  0  0  0  0  0
   37.2710   25.4860   37.7150 F   0  0  0  0  0  0  0  0  0  0  0  0
   35.1060   25.8550   38.1020 F   0  0  0  0  0  0  0  0  0  0  0  0
   37.1994   31.4125   41.0445 H   0  0  0  0  0  0  0  0  0  0  0  0
   38.8569   32.7449   42.1419 H   0  0  0  0  0  0  0  0  0  0  0  0
   40.1979   31.8477   41.4741 H   0  0  0  0  0  0  0  0  0  0  0  0
   38.4025   33.9067   40.1683 H   0  0  0  0  0  0  0  0  0  0  0  0
   40.0786   33.5124   39.7567 H   0  0  0  0  0  0  0  0  0  0  0  0
   39.2497   32.2442   38.0083 H   0  0  0  0  0  0  0  0  0  0  0  0
   37.5859   32.4532   38.5575 H   0  0  0  0  0  0  0  0  0  0  0  0
   39.5858   30.2381   39.3377 H   0  0  0  0  0  0  0  0  0  0  0  0
   40.7819   27.9074   42.9901 H   0  0  0  0  0  0  0  0  0  0  0  0
   38.7357   26.9756   44.2293 H   0  0  0  0  0  0  0  0  0  0  0  0
   36.4673   28.0456   43.8527 H   0  0  0  0  0  0  0  0  0  0  0  0
   35.8813   30.8746   38.1947 H   0  0  0  0  0  0  0  0  0  0  0  0
   33.3261   28.9497   38.9072 H   0  0  0  0  0  0  0  0  0  0  0  0
   31.2174   29.3106   37.6860 H   0  0  0  0  0  0  0  0  0  0  0  0
   31.1832   29.5729   35.2373 H   0  0  0  0  0  0  0  0  0  0  0  0
   33.3138   29.4640   33.9417 H   0  0  0  0  0  0  0  0  0  0  0  0
   35.3819   29.1065   35.1747 H   0  0  0  0  0  0  0  0  0  0  0  0
  1  2  1  0
  1 10  1  0
  3  2  1  0
  4  5  1  0
  4  3  1  0
  5  1  1  0
  6  7  2  0
  8  7  1  0
  9  8  2  0
 10 11  2  0
 10  9  1  0
 11  6  1  0
 12  5  1  0
 13 12  2  0
 14 15  2  0
 14 13  1  0
 15 16  1  0
 16 12  1  0
 17 14  1  0
 17 18  2  0
 19 18  1  0
 20 19  2  0
 21 22  2  0
 21 20  1  0
 22 17  1  0
 23 25  1  0
 23 15  1  0
 23 26  1  0
 24 23  1  0
  1 27  1  6
  2 28  1  0
  2 29  1  0
  3 30  1  0
  3 31  1  0
  4 32  1  0
  4 33  1  0
  5 34  1  1
  6 35  1  0
  7 36  1  0
  8 37  1  0
 13 38  1  0
 18 39  1  0
 19 40  1  0
 20 41  1  0
 21 42  1  0
 22 43  1  0
M  ISO  8  27  13  28  13  29  13  30  13  31  13  32  13  33  13  34  13
M  ISO  8  35  14  36  14  37  14  38  14  39  14  40  14  41  14  42  14
M  ISO  1  43  14
M  END
>  <minimizedAffinity>  (1) 
-5.31205702

>  <minimizedRMSD>  (1) 
1.56708407

$$$$
