
     RDKit          3D

 43 46  0  0  1  0  0  0  0  0999 V2000
   38.1400   31.0610   40.9060 C   0  0  1  0  0  0  0  0  0  0  0  0
   39.0570   32.1380   41.2650 C   0  0  0  0  0  0  0  0  0  0  0  0
   38.9990   33.0400   40.0380 C   0  0  0  0  0  0  0  0  0  0  0  0
   38.5030   32.1630   38.9050 C   0  0  0  0  0  0  0  0  0  0  0  0
   38.5520   30.7530   39.4490 C   0  0  2  0  0  0  0  0  0  0  0  0
   39.6780   28.3410   42.8900 C   0  0  0  0  0  0  0  0  0  0  0  0
   38.5050   27.7170   43.4640 C   0  0  0  0  0  0  0  0  0  0  0  0
   37.2140   28.2410   43.1450 C   0  0  0  0  0  0  0  0  0  0  0  0
   37.1090   29.3130   42.3120 N   0  0  0  0  0  0  0  0  0  0  0  0
   38.2480   29.8580   41.8020 C   0  0  0  0  0  0  0  0  0  0  0  0
   39.5090   29.3980   42.0720 N   0  0  0  0  0  0  0  0  0  0  0  0
   37.6200   29.8600   38.7800 C   0  0  0  0  0  0  0  0  0  0  0  0
   36.3980   29.9230   38.1170 C   0  0  0  0  0  0  0  0  0  0  0  0
   35.8400   28.8030   37.6260 C   0  0  0  0  0  0  0  0  0  0  0  0
   36.4910   27.6000   37.7870 C   0  0  0  0  0  0  0  0  0  0  0  0
   38.0230   28.0820   38.7110 S   0  0  0  0  0  0  0  0  0  0  0  0
   34.5550   29.0110   36.9110 C   0  0  0  0  0  0  0  0  0  0  0  0
   33.3680   29.0860   37.6490 C   0  0  0  0  0  0  0  0  0  0  0  0
   32.1110   29.2900   37.1520 C   0  0  0  0  0  0  0  0  0  0  0  0
   32.0280   29.4340   35.7830 C   0  0  0  0  0  0  0  0  0  0  0  0
   33.1630   29.3690   35.0050 C   0  0  0  0  0  0  0  0  0  0  0  0
   34.4040   29.1610   35.5680 C   0  0  0  0  0  0  0  0  0  0  0  0
   36.1300   26.2830   37.3660 C   0  0  0  0  0  0  0  0  0  0  0  0
   36.0550   26.0950   35.9880 F   0  0  0  0  0  0  0  0  0  0  0  0
   37.0970   25.4380   37.8460 F   0  0  0  0  0  0  0  0  0  0  0  0
   34.9260   25.9240   37.9640 F   0  0  0  0  0  0  0  0  0  0  0  0
   37.0835   31.3465   41.0166 H   0  0  0  0  0  0  0  0  0  0  0  0
   38.7144   32.6687   42.1656 H   0  0  0  0  0  0  0  0  0  0  0  0
   40.0719   31.7889   41.5062 H   0  0  0  0  0  0  0  0  0  0  0  0
   38.3037   33.8751   40.2088 H   0  0  0  0  0  0  0  0  0  0  0  0
   39.9818   33.4786   39.8106 H   0  0  0  0  0  0  0  0  0  0  0  0
   39.1570   32.2609   38.0260 H   0  0  0  0  0  0  0  0  0  0  0  0
   37.4909   32.4442   38.5784 H   0  0  0  0  0  0  0  0  0  0  0  0
   39.5093   30.2259   39.3237 H   0  0  0  0  0  0  0  0  0  0  0  0
   40.6850   27.9607   43.1166 H   0  0  0  0  0  0  0  0  0  0  0  0
   38.6056   26.8520   44.1360 H   0  0  0  0  0  0  0  0  0  0  0  0
   36.3100   27.7806   43.5702 H   0  0  0  0  0  0  0  0  0  0  0  0
   35.8884   30.8901   37.9947 H   0  0  0  0  0  0  0  0  0  0  0  0
   33.4555   28.9689   38.7392 H   0  0  0  0  0  0  0  0  0  0  0  0
   31.2242   29.3362   37.8012 H   0  0  0  0  0  0  0  0  0  0  0  0
   31.0495   29.6018   35.3093 H   0  0  0  0  0  0  0  0  0  0  0  0
   33.0775   29.4852   33.9145 H   0  0  0  0  0  0  0  0  0  0  0  0
   35.2900   29.1154   34.9177 H   0  0  0  0  0  0  0  0  0  0  0  0
  1  2  1  0
  1 10  1  0
  3  2  1  0
  4  5  1  0
  4  3  1  0
  5  1  1  0
  6  7  2  0
  8  7  1  0
  9  8  2  0
 10 11  2  0
 10  9  1  0
 11  6  1  0
 12  5  1  0
 13 12  2  0
 14 15  2  0
 14 13  1  0
 15 16  1  0
 16 12  1  0
 17 14  1  0
 17 18  2  0
 19 18  1  0
 20 19  2  0
 21 22  2  0
 21 20  1  0
 22 17  1  0
 23 15  1  0
 23 25  1  0
 23 26  1  0
 24 23  1  0
  1 27  1  6
  2 28  1  0
  2 29  1  0
  3 30  1  0
  3 31  1  0
  4 32  1  0
  4 33  1  0
  5 34  1  1
  6 35  1  0
  7 36  1  0
  8 37  1  0
 13 38  1  0
 18 39  1  0
 19 40  1  0
 20 41  1  0
 21 42  1  0
 22 43  1  0
M  ISO  8  27  13  28  13  29  13  30  13  31  13  32  13  33  13  34  13
M  ISO  8  35  14  36  14  37  14  38  14  39  14  40  14  41  14  42  14
M  ISO  1  43  14
M  END
>  <minimizedAffinity>  (1) 
-5.3025651

>  <minimizedRMSD>  (1) 
1.54455352

$$$$
