
     RDKit          3D

 40 43  0  0  1  0  0  0  0  0999 V2000
   36.9790   31.0350   40.4600 C   0  0  1  0  0  0  0  0  0  0  0  0
   37.7590   32.2350   40.7360 C   0  0  0  0  0  0  0  0  0  0  0  0
   37.6120   33.0250   39.4400 C   0  0  0  0  0  0  0  0  0  0  0  0
   37.2200   32.0080   38.3860 C   0  0  0  0  0  0  0  0  0  0  0  0
   37.4450   30.6550   39.0400 C   0  0  2  0  0  0  0  0  0  0  0  0
   38.6010   29.0560   43.1320 C   0  0  0  0  0  0  0  0  0  0  0  0
   37.6400   27.9910   43.3180 C   0  0  0  0  0  0  0  0  0  0  0  0
   36.4620   27.9770   42.5100 C   0  0  0  0  0  0  0  0  0  0  0  0
   36.2630   28.9550   41.5860 N   0  0  0  0  0  0  0  0  0  0  0  0
   37.2030   29.9330   41.4550 C   0  0  0  0  0  0  0  0  0  0  0  0
   38.3460   29.9950   42.2020 N   0  0  0  0  0  0  0  0  0  0  0  0
   36.6290   29.6070   38.4480 C   0  0  0  0  0  0  0  0  0  0  0  0
   35.3600   29.4500   37.8960 C   0  0  0  0  0  0  0  0  0  0  0  0
   34.9660   28.2490   37.4260 C   0  0  0  0  0  0  0  0  0  0  0  0
   35.8380   27.1960   37.5060 C   0  0  0  0  0  0  0  0  0  0  0  0
   37.3390   27.9370   38.3050 S   0  0  0  0  0  0  0  0  0  0  0  0
   33.5610   28.3760   36.8970 C   0  0  0  0  0  0  0  0  0  0  0  0
   32.6630   29.2900   37.2610 C   0  0  0  0  0  0  0  0  0  0  0  0
   31.3770   29.2860   36.8130 C   0  0  0  0  0  0  0  0  0  0  0  0
   31.0430   28.2300   35.9210 C   0  0  0  0  0  0  0  0  0  0  0  0
   32.6860   27.3530   35.8440 S   0  0  0  0  0  0  0  0  0  0  0  0
   35.6900   25.8380   37.1000 C   0  0  0  0  0  0  0  0  0  0  0  0
   35.6090   25.6230   35.7240 F   0  0  0  0  0  0  0  0  0  0  0  0
   36.8230   25.1690   37.5190 F   0  0  0  0  0  0  0  0  0  0  0  0
   34.6160   25.2570   37.7400 F   0  0  0  0  0  0  0  0  0  0  0  0
   35.8953   31.2075   40.5356 H   0  0  0  0  0  0  0  0  0  0  0  0
   37.3454   32.7910   41.5903 H   0  0  0  0  0  0  0  0  0  0  0  0
   38.8043   32.0273   41.0085 H   0  0  0  0  0  0  0  0  0  0  0  0
   36.8299   33.7915   39.5439 H   0  0  0  0  0  0  0  0  0  0  0  0
   38.5420   33.5491   39.1746 H   0  0  0  0  0  0  0  0  0  0  0  0
   37.8520   32.1149   37.4920 H   0  0  0  0  0  0  0  0  0  0  0  0
   36.1793   32.1379   38.0542 H   0  0  0  0  0  0  0  0  0  0  0  0
   38.4593   30.2377   38.9564 H   0  0  0  0  0  0  0  0  0  0  0  0
   39.5190   29.0975   43.7366 H   0  0  0  0  0  0  0  0  0  0  0  0
   37.8132   27.2056   44.0685 H   0  0  0  0  0  0  0  0  0  0  0  0
   35.7175   27.1770   42.6349 H   0  0  0  0  0  0  0  0  0  0  0  0
   34.6759   30.3097   37.8432 H   0  0  0  0  0  0  0  0  0  0  0  0
   32.9744   30.0844   37.9552 H   0  0  0  0  0  0  0  0  0  0  0  0
   30.6459   30.0482   37.1204 H   0  0  0  0  0  0  0  0  0  0  0  0
   30.0909   27.9980   35.4213 H   0  0  0  0  0  0  0  0  0  0  0  0
  1  2  1  0
  1 10  1  0
  3  2  1  0
  4  5  1  0
  4  3  1  0
  5  1  1  0
  6  7  2  0
  8  7  1  0
  9  8  2  0
 10  9  1  0
 10 11  2  0
 11  6  1  0
 12  5  1  0
 13 12  2  0
 14 15  2  0
 14 13  1  0
 15 16  1  0
 16 12  1  0
 17 18  2  0
 17 14  1  0
 19 18  1  0
 20 19  2  0
 21 20  1  0
 21 17  1  0
 22 15  1  0
 22 24  1  0
 22 25  1  0
 23 22  1  0
  1 26  1  6
  2 27  1  0
  2 28  1  0
  3 29  1  0
  3 30  1  0
  4 31  1  0
  4 32  1  0
  5 33  1  1
  6 34  1  0
  7 35  1  0
  8 36  1  0
 13 37  1  0
 18 38  1  0
 19 39  1  0
 20 40  1  0
M  ISO  8  26  13  27  13  28  13  29  13  30  13  31  13  32  13  33  13
M  ISO  7  34  14  35  14  36  14  37  14  38  14  39  14  40  14
M  END
>  <minimizedAffinity>  (1) 
-5.21753883

>  <minimizedRMSD>  (1) 
0.791995049

$$$$
