
     RDKit          3D

 36 38  0  0  1  0  0  0  0  0999 V2000
   37.0200   30.9720   40.5680 C   0  0  1  0  0  0  0  0  0  0  0  0
   37.8490   32.1500   40.8150 C   0  0  0  0  0  0  0  0  0  0  0  0
   37.5960   32.9830   39.5600 C   0  0  0  0  0  0  0  0  0  0  0  0
   37.1570   31.9900   38.5040 C   0  0  0  0  0  0  0  0  0  0  0  0
   37.4000   30.6250   39.1150 C   0  0  2  0  0  0  0  0  0  0  0  0
   38.7810   28.9120   43.0870 C   0  0  0  0  0  0  0  0  0  0  0  0
   37.8090   27.8540   43.3150 C   0  0  0  0  0  0  0  0  0  0  0  0
   36.5800   27.8790   42.5840 C   0  0  0  0  0  0  0  0  0  0  0  0
   36.3370   28.8830   41.6920 N   0  0  0  0  0  0  0  0  0  0  0  0
   37.2890   29.8450   41.5250 C   0  0  0  0  0  0  0  0  0  0  0  0
   38.4860   29.8770   42.1940 N   0  0  0  0  0  0  0  0  0  0  0  0
   36.5570   29.5900   38.5300 C   0  0  0  0  0  0  0  0  0  0  0  0
   35.2780   29.4260   38.0970 C   0  0  0  0  0  0  0  0  0  0  0  0
   34.8430   28.2530   37.5860 C   0  0  0  0  0  0  0  0  0  0  0  0
   35.7370   27.2180   37.5140 C   0  0  0  0  0  0  0  0  0  0  0  0
   37.3010   27.9560   38.2180 S   0  0  0  0  0  0  0  0  0  0  0  0
   35.6070   25.8810   37.0350 C   0  0  0  0  0  0  0  0  0  0  0  0
   35.1810   25.7390   35.7190 F   0  0  0  0  0  0  0  0  0  0  0  0
   36.8430   25.2880   37.1260 F   0  0  0  0  0  0  0  0  0  0  0  0
   34.7530   25.1830   37.8710 F   0  0  0  0  0  0  0  0  0  0  0  0
   33.4500   28.3120   37.1610 C   0  0  0  0  0  0  0  0  0  0  0  0
   32.7140   29.2990   37.0090 O   0  0  0  0  0  0  0  0  0  0  0  0
   32.5700   27.3270   36.8170 O   0  0  0  0  0  0  0  0  0  0  0  0
   35.9455   31.1550   40.7161 H   0  0  0  0  0  0  0  0  0  0  0  0
   37.5259   32.6836   41.7211 H   0  0  0  0  0  0  0  0  0  0  0  0
   38.9103   31.9180   40.9876 H   0  0  0  0  0  0  0  0  0  0  0  0
   36.8054   33.7256   39.7432 H   0  0  0  0  0  0  0  0  0  0  0  0
   38.4916   33.5418   39.2508 H   0  0  0  0  0  0  0  0  0  0  0  0
   37.7524   32.1136   37.5873 H   0  0  0  0  0  0  0  0  0  0  0  0
   36.1037   32.1312   38.2202 H   0  0  0  0  0  0  0  0  0  0  0  0
   38.4051   30.2008   38.9743 H   0  0  0  0  0  0  0  0  0  0  0  0
   39.7364   28.9240   43.6320 H   0  0  0  0  0  0  0  0  0  0  0  0
   38.0155   27.0496   44.0363 H   0  0  0  0  0  0  0  0  0  0  0  0
   35.8307   27.0891   42.7407 H   0  0  0  0  0  0  0  0  0  0  0  0
   34.5781   30.2719   38.1647 H   0  0  0  0  0  0  0  0  0  0  0  0
   31.6458   27.5602   36.5494 H   0  0  0  0  0  0  0  0  0  0  0  0
  1  2  1  0
  1 10  1  0
  3  2  1  0
  4  5  1  0
  4  3  1  0
  5  1  1  0
  6  7  2  0
  8  7  1  0
  9  8  2  0
 10  9  1  0
 10 11  2  0
 11  6  1  0
 12  5  1  0
 13 12  2  0
 14 13  1  0
 15 14  2  0
 15 16  1  0
 16 12  1  0
 17 19  1  0
 17 15  1  0
 17 20  1  0
 18 17  1  0
 21 14  1  0
 22 21  2  0
 23 21  1  0
  1 24  1  6
  2 25  1  0
  2 26  1  0
  3 27  1  0
  3 28  1  0
  4 29  1  0
  4 30  1  0
  5 31  1  1
  6 32  1  0
  7 33  1  0
  8 34  1  0
 13 35  1  0
 23 36  1  0
M  ISO  8  24  13  25  13  26  13  27  13  28  13  29  13  30  13  31  13
M  ISO  5  32  14  33  14  34  14  35  14  36   3
M  END
>  <minimizedAffinity>  (1) 
-4.99720192

>  <minimizedRMSD>  (1) 
0.610012412

$$$$
