
     RDKit          3D

 40 43  0  0  1  0  0  0  0  0999 V2000
   38.5000   31.3330   40.8020 N   0  0  0  0  0  0  0  0  0  0  0  0
   39.4780   32.3880   40.8070 C   0  0  0  0  0  0  0  0  0  0  0  0
   38.6280   33.6710   40.8250 C   0  0  0  0  0  0  0  0  0  0  0  0
   38.0300   33.8010   39.5420 N   0  0  0  0  0  0  0  0  0  0  0  0
   37.4260   32.6330   39.0240 C   0  0  0  0  0  0  0  0  0  0  0  0
   37.4360   31.4200   39.8710 C   0  0  1  0  0  0  0  0  0  0  0  0
   37.3280   30.2780   38.9200 C   0  0  0  0  0  0  0  0  0  0  0  0
   35.9960   29.8350   38.8800 C   0  0  0  0  0  0  0  0  0  0  0  0
   35.6620   28.7340   38.0870 C   0  0  0  0  0  0  0  0  0  0  0  0
   36.6400   28.0760   37.3370 C   0  0  0  0  0  0  0  0  0  0  0  0
   37.9410   28.5350   37.3980 C   0  0  0  0  0  0  0  0  0  0  0  0
   39.0010   27.9820   36.7100 C   0  0  0  0  0  0  0  0  0  0  0  0
   40.2910   28.4730   36.7950 C   0  0  0  0  0  0  0  0  0  0  0  0
   40.5650   29.5710   37.5980 C   0  0  0  0  0  0  0  0  0  0  0  0
   39.5240   30.1430   38.2970 C   0  0  0  0  0  0  0  0  0  0  0  0
   38.2630   29.6140   38.1760 C   0  0  0  0  0  0  0  0  0  0  0  0
   38.5100   30.2210   41.6700 C   0  0  0  0  0  0  0  0  0  0  0  0
   39.6450   29.4870   41.9780 C   0  0  0  0  0  0  0  0  0  0  0  0
   39.5860   28.4140   42.8460 C   0  0  0  0  0  0  0  0  0  0  0  0
   38.3540   28.1300   43.3720 N   0  0  0  0  0  0  0  0  0  0  0  0
   37.2730   28.8430   43.0660 C   0  0  0  0  0  0  0  0  0  0  0  0
   37.3350   29.8790   42.2270 N   0  0  0  0  0  0  0  0  0  0  0  0
   40.1162   32.3274   41.7009 H   0  0  0  0  0  0  0  0  0  0  0  0
   40.1615   32.3407   39.9464 H   0  0  0  0  0  0  0  0  0  0  0  0
   37.8486   33.5951   41.5975 H   0  0  0  0  0  0  0  0  0  0  0  0
   39.2517   34.5477   41.0542 H   0  0  0  0  0  0  0  0  0  0  0  0
   37.3057   34.5308   39.6033 H   0  0  0  0  0  0  0  0  0  0  0  0
   36.3747   32.8747   38.8087 H   0  0  0  0  0  0  0  0  0  0  0  0
   38.0391   32.3670   38.1503 H   0  0  0  0  0  0  0  0  0  0  0  0
   36.5870   31.4301   40.5703 H   0  0  0  0  0  0  0  0  0  0  0  0
   35.2222   30.3503   39.4679 H   0  0  0  0  0  0  0  0  0  0  0  0
   34.6203   28.3824   38.0530 H   0  0  0  0  0  0  0  0  0  0  0  0
   36.3791   27.2101   36.7108 H   0  0  0  0  0  0  0  0  0  0  0  0
   38.8117   27.1114   36.0648 H   0  0  0  0  0  0  0  0  0  0  0  0
   41.1005   27.9928   36.2256 H   0  0  0  0  0  0  0  0  0  0  0  0
   41.5856   29.9740   37.6746 H   0  0  0  0  0  0  0  0  0  0  0  0
   39.7016   31.0140   38.9449 H   0  0  0  0  0  0  0  0  0  0  0  0
   40.6080   29.7635   41.5239 H   0  0  0  0  0  0  0  0  0  0  0  0
   40.4774   27.8217   43.1001 H   0  0  0  0  0  0  0  0  0  0  0  0
   36.3060   28.5723   43.5149 H   0  0  0  0  0  0  0  0  0  0  0  0
  1  2  1  0
  1 17  1  0
  2  3  1  0
  4  3  1  0
  5  4  1  0
  5  6  1  0
  6  1  1  0
  7  6  1  0
  8  7  2  0
  9  8  1  0
 10 11  1  0
 10  9  2  0
 11 16  2  0
 12 13  2  0
 12 11  1  0
 13 14  1  0
 14 15  2  0
 16 15  1  0
 16  7  1  0
 17 18  2  0
 17 22  1  0
 18 19  1  0
 19 20  2  0
 21 20  1  0
 22 21  2  0
  2 23  1  0
  2 24  1  0
  3 25  1  0
  3 26  1  0
  4 27  1  0
  5 28  1  0
  5 29  1  0
  6 30  1  1
  8 31  1  0
  9 32  1  0
 10 33  1  0
 12 34  1  0
 13 35  1  0
 14 36  1  0
 15 37  1  0
 18 38  1  0
 19 39  1  0
 21 40  1  0
M  ISO  8  23  13  24  13  25  13  26  13  27   5  28  13  29  13  30  13
M  ISO  8  31  14  32  14  33  14  34  14  35  14  36  14  37  14  38  14
M  ISO  2  39  14  40  14
M  END
>  <minimizedAffinity>  (1) 
-5.2359972

>  <minimizedRMSD>  (1) 
6.60504675

$$$$
