
     RDKit          3D

 43 46  0  0  1  0  0  0  0  0999 V2000
   36.7980   30.9920   40.2860 C   0  0  1  0  0  0  0  0  0  0  0  0
   37.5050   32.2300   40.5370 C   0  0  0  0  0  0  0  0  0  0  0  0
   37.2980   32.9850   39.2240 C   0  0  0  0  0  0  0  0  0  0  0  0
   37.0840   31.9130   38.1720 C   0  0  0  0  0  0  0  0  0  0  0  0
   37.3360   30.6040   38.8750 C   0  0  2  0  0  0  0  0  0  0  0  0
   38.5040   29.1750   43.0340 C   0  0  0  0  0  0  0  0  0  0  0  0
   37.6100   28.0500   43.2230 C   0  0  0  0  0  0  0  0  0  0  0  0
   36.4490   27.9440   42.3890 C   0  0  0  0  0  0  0  0  0  0  0  0
   36.1820   28.8930   41.4230 N   0  0  0  0  0  0  0  0  0  0  0  0
   37.0680   29.9170   41.3080 C   0  0  0  0  0  0  0  0  0  0  0  0
   38.2050   30.0810   42.0760 N   0  0  0  0  0  0  0  0  0  0  0  0
   36.6350   29.4800   38.2880 C   0  0  0  0  0  0  0  0  0  0  0  0
   35.3730   29.1780   37.8430 C   0  0  0  0  0  0  0  0  0  0  0  0
   35.0660   27.9710   37.3370 C   0  0  0  0  0  0  0  0  0  0  0  0
   36.0640   27.0400   37.2790 C   0  0  0  0  0  0  0  0  0  0  0  0
   37.5140   27.9320   37.9830 S   0  0  0  0  0  0  0  0  0  0  0  0
   36.0770   25.6670   36.8010 C   0  0  0  0  0  0  0  0  0  0  0  0
   35.7040   25.5040   35.4690 F   0  0  0  0  0  0  0  0  0  0  0  0
   37.3590   25.2200   36.9290 F   0  0  0  0  0  0  0  0  0  0  0  0
   35.2400   24.9190   37.6260 F   0  0  0  0  0  0  0  0  0  0  0  0
   33.4380   27.5260   36.7340 S   0  0  0  0  0  0  0  0  0  0  0  0
   32.5920   28.9750   36.1080 C   0  0  0  0  0  0  0  0  0  0  0  0
   31.7130   29.5650   36.9940 C   0  0  0  0  0  0  0  0  0  0  0  0
   30.9970   30.7010   36.6130 C   0  0  0  0  0  0  0  0  0  0  0  0
   31.1860   31.2240   35.3290 C   0  0  0  0  0  0  0  0  0  0  0  0
   32.0770   30.5760   34.5150 C   0  0  0  0  0  0  0  0  0  0  0  0
   32.7720   29.4750   34.8790 N   0  0  0  0  0  0  0  0  0  0  0  0
   35.7056   31.1071   40.3440 H   0  0  0  0  0  0  0  0  0  0  0  0
   37.0666   32.7758   41.3855 H   0  0  0  0  0  0  0  0  0  0  0  0
   38.5622   32.0905   40.8069 H   0  0  0  0  0  0  0  0  0  0  0  0
   36.4165   33.6395   39.2913 H   0  0  0  0  0  0  0  0  0  0  0  0
   38.1565   33.6291   38.9829 H   0  0  0  0  0  0  0  0  0  0  0  0
   37.7908   32.0447   37.3395 H   0  0  0  0  0  0  0  0  0  0  0  0
   36.0721   31.9580   37.7431 H   0  0  0  0  0  0  0  0  0  0  0  0
   38.3760   30.2473   38.8401 H   0  0  0  0  0  0  0  0  0  0  0  0
   39.4045   29.2890   43.6553 H   0  0  0  0  0  0  0  0  0  0  0  0
   37.8185   27.2917   43.9921 H   0  0  0  0  0  0  0  0  0  0  0  0
   35.7618   27.0952   42.5206 H   0  0  0  0  0  0  0  0  0  0  0  0
   34.5885   29.9468   37.9020 H   0  0  0  0  0  0  0  0  0  0  0  0
   31.5769   29.1402   37.9995 H   0  0  0  0  0  0  0  0  0  0  0  0
   30.2944   31.1782   37.3120 H   0  0  0  0  0  0  0  0  0  0  0  0
   30.6423   32.1173   34.9879 H   0  0  0  0  0  0  0  0  0  0  0  0
   32.2369   30.9761   33.5029 H   0  0  0  0  0  0  0  0  0  0  0  0
  1  2  1  0
  1 10  1  0
  3  2  1  0
  4  5  1  0
  4  3  1  0
  5  1  1  0
  6  7  2  0
  8  7  1  0
  9  8  2  0
 10  9  1  0
 10 11  2  0
 11  6  1  0
 12  5  1  0
 13 12  2  0
 14 13  1  0
 15 14  2  0
 15 16  1  0
 16 12  1  0
 17 19  1  0
 17 15  1  0
 17 20  1  0
 18 17  1  0
 21 14  1  0
 22 21  1  0
 22 23  2  0
 24 23  1  0
 25 24  2  0
 26 27  2  0
 26 25  1  0
 27 22  1  0
  1 28  1  6
  2 29  1  0
  2 30  1  0
  3 31  1  0
  3 32  1  0
  4 33  1  0
  4 34  1  0
  5 35  1  1
  6 36  1  0
  7 37  1  0
  8 38  1  0
 13 39  1  0
 23 40  1  0
 24 41  1  0
 25 42  1  0
 26 43  1  0
M  ISO  8  28  13  29  13  30  13  31  13  32  13  33  13  34  13  35  13
M  ISO  8  36  14  37  14  38  14  39  14  40  14  41  14  42  14  43  14
M  END
>  <minimizedAffinity>  (1) 
-5.48303699

>  <minimizedRMSD>  (1) 
0.674893558

$$$$
