
     RDKit          3D

 41 44  0  0  1  0  0  0  0  0999 V2000
   36.9280   31.2220   40.3250 C   0  0  1  0  0  0  0  0  0  0  0  0
   37.5840   32.4480   40.7250 C   0  0  0  0  0  0  0  0  0  0  0  0
   37.4690   33.3070   39.4770 C   0  0  0  0  0  0  0  0  0  0  0  0
   37.2600   32.3360   38.3250 C   0  0  0  0  0  0  0  0  0  0  0  0
   37.5380   30.9760   38.9120 C   0  0  2  0  0  0  0  0  0  0  0  0
   38.6330   29.1380   42.8760 C   0  0  0  0  0  0  0  0  0  0  0  0
   37.6970   28.0410   43.0180 C   0  0  0  0  0  0  0  0  0  0  0  0
   36.5070   28.0480   42.2190 C   0  0  0  0  0  0  0  0  0  0  0  0
   36.2540   29.0740   41.3340 N   0  0  0  0  0  0  0  0  0  0  0  0
   37.1800   30.0650   41.2600 C   0  0  0  0  0  0  0  0  0  0  0  0
   38.3480   30.1230   41.9970 N   0  0  0  0  0  0  0  0  0  0  0  0
   36.9000   29.8930   38.1960 C   0  0  0  0  0  0  0  0  0  0  0  0
   35.6120   29.4540   37.9350 C   0  0  0  0  0  0  0  0  0  0  0  0
   35.3850   28.3540   37.2030 C   0  0  0  0  0  0  0  0  0  0  0  0
   36.4630   27.6690   36.7170 C   0  0  0  0  0  0  0  0  0  0  0  0
   37.8940   28.6550   37.3430 S   0  0  0  0  0  0  0  0  0  0  0  0
   36.5580   26.4690   35.9110 C   0  0  0  0  0  0  0  0  0  0  0  0
   35.8840   26.5270   34.6910 F   0  0  0  0  0  0  0  0  0  0  0  0
   37.8770   26.2770   35.6520 F   0  0  0  0  0  0  0  0  0  0  0  0
   36.0760   25.4040   36.6710 F   0  0  0  0  0  0  0  0  0  0  0  0
   33.7380   27.7410   36.8300 S   0  0  0  0  0  0  0  0  0  0  0  0
   32.6790   29.0630   36.2710 C   0  0  0  0  0  0  0  0  0  0  0  0
   31.7300   29.6150   37.1340 C   0  0  0  0  0  0  0  0  0  0  0  0
   31.0570   30.6010   36.4610 C   0  0  0  0  0  0  0  0  0  0  0  0
   31.5850   30.6450   35.2260 N   0  0  0  0  0  0  0  0  0  0  0  0
   32.5390   29.7330   35.1300 N   0  0  0  0  0  0  0  0  0  0  0  0
   35.8313   31.3058   40.3363 H   0  0  0  0  0  0  0  0  0  0  0  0
   37.0683   32.9146   41.5773 H   0  0  0  0  0  0  0  0  0  0  0  0
   38.6210   32.3002   41.0607 H   0  0  0  0  0  0  0  0  0  0  0  0
   36.6126   33.9922   39.5609 H   0  0  0  0  0  0  0  0  0  0  0  0
   38.3655   33.9266   39.3273 H   0  0  0  0  0  0  0  0  0  0  0  0
   37.9584   32.5535   37.5034 H   0  0  0  0  0  0  0  0  0  0  0  0
   36.2472   32.4062   37.9016 H   0  0  0  0  0  0  0  0  0  0  0  0
   38.5895   30.6538   38.8891 H   0  0  0  0  0  0  0  0  0  0  0  0
   39.5570   29.1679   43.4721 H   0  0  0  0  0  0  0  0  0  0  0  0
   37.8954   27.2207   43.7236 H   0  0  0  0  0  0  0  0  0  0  0  0
   35.7856   27.2230   42.3134 H   0  0  0  0  0  0  0  0  0  0  0  0
   34.7583   30.0196   38.3366 H   0  0  0  0  0  0  0  0  0  0  0  0
   31.5529   29.3104   38.1760 H   0  0  0  0  0  0  0  0  0  0  0  0
   30.2456   31.2314   36.8538 H   0  0  0  0  0  0  0  0  0  0  0  0
   31.2937   31.2861   34.4743 H   0  0  0  0  0  0  0  0  0  0  0  0
  1  2  1  0
  1 10  1  0
  3  2  1  0
  4  5  1  0
  4  3  1  0
  5  1  1  0
  6  7  2  0
  8  7  1  0
  9  8  2  0
 10  9  1  0
 10 11  2  0
 11  6  1  0
 12  5  1  0
 13 12  2  0
 14 13  1  0
 15 14  2  0
 15 16  1  0
 16 12  1  0
 17 20  1  0
 17 15  1  0
 18 17  1  0
 19 17  1  0
 21 14  1  0
 22 21  1  0
 22 23  1  0
 24 23  2  0
 25 24  1  0
 26 25  1  0
 26 22  2  0
  1 27  1  6
  2 28  1  0
  2 29  1  0
  3 30  1  0
  3 31  1  0
  4 32  1  0
  4 33  1  0
  5 34  1  1
  6 35  1  0
  7 36  1  0
  8 37  1  0
 13 38  1  0
 23 39  1  0
 24 40  1  0
 25 41  1  0
M  ISO  8  27  13  28  13  29  13  30  13  31  13  32  13  33  13  34  13
M  ISO  7  35  14  36  14  37  14  38  14  39  14  40  14  41   9
M  END
>  <minimizedAffinity>  (1) 
-5.16943502

>  <minimizedRMSD>  (1) 
0.810370564

$$$$
