
     RDKit          3D

 38 41  0  0  1  0  0  0  0  0999 V2000
   39.0060   29.5040   41.2580 N   0  0  0  0  0  0  0  0  0  0  0  0
   40.2850   29.8830   41.8320 C   0  0  0  0  0  0  0  0  0  0  0  0
   39.9810   31.1080   42.6850 C   0  0  0  0  0  0  0  0  0  0  0  0
   39.7370   32.1700   41.7670 N   0  0  0  0  0  0  0  0  0  0  0  0
   38.7560   31.9060   40.7830 C   0  0  0  0  0  0  0  0  0  0  0  0
   38.2590   30.5250   40.6540 C   0  0  1  0  0  0  0  0  0  0  0  0
   37.8270   30.3010   39.2350 C   0  0  0  0  0  0  0  0  0  0  0  0
   38.4930   30.5080   38.0430 C   0  0  0  0  0  0  0  0  0  0  0  0
   37.7400   30.1750   36.9940 N   0  0  0  0  0  0  0  0  0  0  0  0
   36.5450   29.7330   37.4220 C   0  0  0  0  0  0  0  0  0  0  0  0
   35.4320   29.2780   36.7550 C   0  0  0  0  0  0  0  0  0  0  0  0
   34.3120   28.8770   37.4360 C   0  0  0  0  0  0  0  0  0  0  0  0
   34.3210   28.9370   38.8110 C   0  0  0  0  0  0  0  0  0  0  0  0
   35.4490   29.3970   39.4610 C   0  0  0  0  0  0  0  0  0  0  0  0
   36.5860   29.8070   38.7990 C   0  0  0  0  0  0  0  0  0  0  0  0
   38.4750   28.2010   41.2910 C   0  0  0  0  0  0  0  0  0  0  0  0
   38.8880   27.1840   40.4530 C   0  0  0  0  0  0  0  0  0  0  0  0
   38.3340   25.9210   40.5390 C   0  0  0  0  0  0  0  0  0  0  0  0
   37.3630   25.7490   41.4960 N   0  0  0  0  0  0  0  0  0  0  0  0
   36.9740   26.7380   42.2970 C   0  0  0  0  0  0  0  0  0  0  0  0
   37.5190   27.9500   42.1990 N   0  0  0  0  0  0  0  0  0  0  0  0
   40.6877   29.0689   42.4526 H   0  0  0  0  0  0  0  0  0  0  0  0
   41.0409   30.0914   41.0605 H   0  0  0  0  0  0  0  0  0  0  0  0
   39.0928   30.9294   43.3089 H   0  0  0  0  0  0  0  0  0  0  0  0
   40.8127   31.3441   43.3651 H   0  0  0  0  0  0  0  0  0  0  0  0
   39.4330   32.9931   42.3064 H   0  0  0  0  0  0  0  0  0  0  0  0
   37.8894   32.5460   41.0053 H   0  0  0  0  0  0  0  0  0  0  0  0
   39.2645   32.1050   39.8281 H   0  0  0  0  0  0  0  0  0  0  0  0
   37.3754   30.4344   41.3029 H   0  0  0  0  0  0  0  0  0  0  0  0
   39.5183   30.8994   37.9681 H   0  0  0  0  0  0  0  0  0  0  0  0
   38.0294   30.2456   36.0080 H   0  0  0  0  0  0  0  0  0  0  0  0
   35.4405   29.2351   35.6559 H   0  0  0  0  0  0  0  0  0  0  0  0
   33.4251   28.5150   36.8952 H   0  0  0  0  0  0  0  0  0  0  0  0
   33.4382   28.6216   39.3865 H   0  0  0  0  0  0  0  0  0  0  0  0
   35.4396   29.4382   40.5602 H   0  0  0  0  0  0  0  0  0  0  0  0
   39.6701   27.3824   39.7054 H   0  0  0  0  0  0  0  0  0  0  0  0
   38.6520   25.1003   39.8792 H   0  0  0  0  0  0  0  0  0  0  0  0
   36.1930   26.5527   43.0492 H   0  0  0  0  0  0  0  0  0  0  0  0
  1 16  1  0
  1  2  1  0
  2  3  1  0
  4  3  1  0
  5  4  1  0
  6  5  1  0
  6  1  1  0
  7  6  1  0
  8  7  2  0
  9 10  1  0
  9  8  1  0
 10 15  2  0
 11 10  1  0
 11 12  2  0
 12 13  1  0
 13 14  2  0
 15  7  1  0
 15 14  1  0
 16 21  2  0
 17 18  2  0
 17 16  1  0
 18 19  1  0
 19 20  2  0
 21 20  1  0
  2 22  1  0
  2 23  1  0
  3 24  1  0
  3 25  1  0
  4 26  1  0
  5 27  1  0
  5 28  1  0
  6 29  1  1
  8 30  1  0
  9 31  1  0
 11 32  1  0
 12 33  1  0
 13 34  1  0
 14 35  1  0
 17 36  1  0
 18 37  1  0
 20 38  1  0
M  ISO  8  22  13  23  13  24  13  25  13  26   5  27  13  28  13  29  13
M  ISO  8  30  14  31   9  32  14  33  14  34  14  35  14  36  14  37  14
M  ISO  1  38  14
M  END
>  <minimizedAffinity>  (1) 
-5.11812592

>  <minimizedRMSD>  (1) 
6.93284273

$$$$
