
     RDKit          3D

 24 25  0  0  0  0  0  0  0  0999 V2000
   38.9470   28.1770   42.4040 C   0  0  0  0  0  0  0  0  0  0  0  0
   39.9980   27.8730   43.2660 C   0  0  0  0  0  0  0  0  0  0  0  0
   40.1680   26.5770   43.7280 C   0  0  0  0  0  0  0  0  0  0  0  0
   39.2830   25.6330   43.3110 N   0  0  0  0  0  0  0  0  0  0  0  0
   38.2650   25.9450   42.4720 C   0  0  0  0  0  0  0  0  0  0  0  0
   38.1050   27.2080   42.0250 N   0  0  0  0  0  0  0  0  0  0  0  0
   38.5020   32.1460   40.9800 C   0  0  0  0  0  0  0  0  0  0  0  0
   39.6860   31.7470   41.5890 C   0  0  0  0  0  0  0  0  0  0  0  0
   39.7620   30.4310   42.0310 C   0  0  0  0  0  0  0  0  0  0  0  0
   38.7300   29.5260   41.8930 C   0  0  0  0  0  0  0  0  0  0  0  0
   37.5970   29.9730   41.2910 C   0  0  0  0  0  0  0  0  0  0  0  0
   37.4450   31.2640   40.8260 C   0  0  0  0  0  0  0  0  0  0  0  0
   38.3840   33.8000   40.4150 S   0  0  0  0  0  0  0  0  0  0  0  0
   39.6670   34.1180   39.6720 O   0  0  0  0  0  0  0  0  0  0  0  0
   37.2290   34.0160   39.5010 O   0  0  0  0  0  0  0  0  0  0  0  0
   37.1220   24.6670   41.9480 S   0  0  0  0  0  0  0  0  0  0  0  0
   40.6951   28.6634   43.5811 H   0  0  0  0  0  0  0  0  0  0  0  0
   40.9923   26.3208   44.4099 H   0  0  0  0  0  0  0  0  0  0  0  0
   40.5279   32.4435   41.7160 H   0  0  0  0  0  0  0  0  0  0  0  0
   40.6910   30.0948   42.5147 H   0  0  0  0  0  0  0  0  0  0  0  0
   36.7589   29.2712   41.1679 H   0  0  0  0  0  0  0  0  0  0  0  0
   36.5086   31.5840   40.3456 H   0  0  0  0  0  0  0  0  0  0  0  0
   38.1933   34.6169   41.4982 H   0  0  0  0  0  0  0  0  0  0  0  0
   36.5792   24.0601   43.0498 H   0  0  0  0  0  0  0  0  0  0  0  0
  1  2  2  0
  2  3  1  0
  4  3  2  0
  5  4  1  0
  6  1  1  0
  6  5  2  0
  7  8  2  0
  8  9  1  0
 10  9  2  0
 10  1  1  0
 11 10  1  0
 12  7  1  0
 12 11  2  0
 13  7  1  0
 14 13  2  0
 15 13  2  0
 16  5  1  0
  2 17  1  0
  3 18  1  0
  8 19  1  0
  9 20  1  0
 11 21  1  0
 12 22  1  0
 13 23  1  0
 16 24  1  0
M  ISO  8  17  14  18  14  19  14  20  14  21  14  22  14  23  11  24  11
M  END
>  <minimizedAffinity>  (1) 
-4.3298893

>  <minimizedRMSD>  (1) 
5.37005711

$$$$
