
     RDKit          3D

 35 38  0  0  1  0  0  0  0  0999 V2000
   37.8960   31.2900   39.7110 N   0  0  0  0  0  0  0  0  0  0  0  0
   37.3630   32.4490   40.4260 C   0  0  0  0  0  0  0  0  0  0  0  0
   38.4750   33.4800   40.3360 C   0  0  0  0  0  0  0  0  0  0  0  0
   39.5520   33.0400   41.1560 N   0  0  0  0  0  0  0  0  0  0  0  0
   39.9450   31.7020   40.9920 C   0  0  0  0  0  0  0  0  0  0  0  0
   39.2090   30.8550   40.0050 C   0  0  1  0  0  0  0  0  0  0  0  0
   39.3100   29.4900   40.4650 N   0  0  0  0  0  0  0  0  0  0  0  0
   40.0020   28.5190   39.8070 C   0  0  0  0  0  0  0  0  0  0  0  0
   39.8670   27.3800   40.5070 N   0  0  0  0  0  0  0  0  0  0  0  0
   39.1060   27.6550   41.5740 C   0  0  0  0  0  0  0  0  0  0  0  0
   38.6270   26.9120   42.6410 C   0  0  0  0  0  0  0  0  0  0  0  0
   37.8680   27.4250   43.6040 N   0  0  0  0  0  0  0  0  0  0  0  0
   37.5180   28.7200   43.5930 C   0  0  0  0  0  0  0  0  0  0  0  0
   37.9620   29.4860   42.5710 N   0  0  0  0  0  0  0  0  0  0  0  0
   38.7310   28.9760   41.5920 C   0  0  0  0  0  0  0  0  0  0  0  0
   37.1610   30.5950   38.7220 C   0  0  0  0  0  0  0  0  0  0  0  0
   36.0090   29.8650   38.9810 C   0  0  0  0  0  0  0  0  0  0  0  0
   35.3590   29.2040   37.9580 C   0  0  0  0  0  0  0  0  0  0  0  0
   35.9000   29.3080   36.7080 N   0  0  0  0  0  0  0  0  0  0  0  0
   37.0180   30.0200   36.4660 C   0  0  0  0  0  0  0  0  0  0  0  0
   37.6630   30.6690   37.4580 N   0  0  0  0  0  0  0  0  0  0  0  0
   36.4467   32.8190   39.9427 H   0  0  0  0  0  0  0  0  0  0  0  0
   37.0859   32.2149   41.4645 H   0  0  0  0  0  0  0  0  0  0  0  0
   38.8137   33.5733   39.2936 H   0  0  0  0  0  0  0  0  0  0  0  0
   38.1134   34.4618   40.6755 H   0  0  0  0  0  0  0  0  0  0  0  0
   40.3673   33.6351   40.9511 H   0  0  0  0  0  0  0  0  0  0  0  0
   41.0021   31.7097   40.6877 H   0  0  0  0  0  0  0  0  0  0  0  0
   39.7217   31.2365   41.9633 H   0  0  0  0  0  0  0  0  0  0  0  0
   39.6791   30.9461   39.0147 H   0  0  0  0  0  0  0  0  0  0  0  0
   40.5684   28.6443   38.8724 H   0  0  0  0  0  0  0  0  0  0  0  0
   38.8878   25.8447   42.6937 H   0  0  0  0  0  0  0  0  0  0  0  0
   36.8900   29.1451   44.3898 H   0  0  0  0  0  0  0  0  0  0  0  0
   35.6124   29.8130   40.0057 H   0  0  0  0  0  0  0  0  0  0  0  0
   34.4455   28.6192   38.1414 H   0  0  0  0  0  0  0  0  0  0  0  0
   37.4124   30.0733   35.4405 H   0  0  0  0  0  0  0  0  0  0  0  0
  1  6  1  0
  1  2  1  0
  3  2  1  0
  3  4  1  0
  5  4  1  0
  6  7  1  0
  6  5  1  0
  7 15  1  0
  8  7  1  0
  8  9  2  0
  9 10  1  0
 10 15  2  0
 10 11  1  0
 11 12  2  0
 13 12  1  0
 14 13  2  0
 15 14  1  0
 16 17  2  0
 16  1  1  0
 18 17  1  0
 19 18  2  0
 20 19  1  0
 20 21  2  0
 21 16  1  0
  2 22  1  0
  2 23  1  0
  3 24  1  0
  3 25  1  0
  4 26  1  0
  5 27  1  0
  5 28  1  0
  6 29  1  6
  8 30  1  0
 11 31  1  0
 13 32  1  0
 17 33  1  0
 18 34  1  0
 20 35  1  0
M  ISO  8  22  13  23  13  24  13  25  13  26   5  27  13  28  13  29  13
M  ISO  6  30  14  31  14  32  14  33  14  34  14  35  14
M  END
>  <minimizedAffinity>  (1) 
-4.96571541

>  <minimizedRMSD>  (1) 
4.91265202

$$$$
