
     RDKit          3D

 21 22  0  0  0  0  0  0  0  0999 V2000
   38.9030   27.9240   42.8390 C   0  0  0  0  0  0  0  0  0  0  0  0
   38.0460   26.8400   43.0210 C   0  0  0  0  0  0  0  0  0  0  0  0
   36.7100   26.9330   42.5910 C   0  0  0  0  0  0  0  0  0  0  0  0
   36.3210   28.0980   42.0090 N   0  0  0  0  0  0  0  0  0  0  0  0
   37.1710   29.1260   41.8470 C   0  0  0  0  0  0  0  0  0  0  0  0
   38.4540   29.0440   42.2580 N   0  0  0  0  0  0  0  0  0  0  0  0
   40.2980   27.9020   43.2590 C   0  0  0  0  0  0  0  0  0  0  0  0
   40.7210   26.8890   44.0830 C   0  0  0  0  0  0  0  0  0  0  0  0
   42.0320   26.7800   44.5380 C   0  0  0  0  0  0  0  0  0  0  0  0
   42.9580   27.7430   44.1400 C   0  0  0  0  0  0  0  0  0  0  0  0
   42.5600   28.7790   43.3080 C   0  0  0  0  0  0  0  0  0  0  0  0
   41.2480   28.8300   42.8920 C   0  0  0  0  0  0  0  0  0  0  0  0
   36.5870   30.6390   41.0690 S   0  0  0  0  0  0  0  0  0  0  0  0
   38.4118   25.9185   43.4974 H   0  0  0  0  0  0  0  0  0  0  0  0
   36.0079   26.0961   42.7206 H   0  0  0  0  0  0  0  0  0  0  0  0
   39.9909   26.1289   44.3981 H   0  0  0  0  0  0  0  0  0  0  0  0
   42.3309   25.9518   45.1974 H   0  0  0  0  0  0  0  0  0  0  0  0
   44.0008   27.6815   44.4846 H   0  0  0  0  0  0  0  0  0  0  0  0
   43.2795   29.5463   42.9861 H   0  0  0  0  0  0  0  0  0  0  0  0
   40.9425   29.6552   42.2319 H   0  0  0  0  0  0  0  0  0  0  0  0
   36.2376   31.5443   42.0361 H   0  0  0  0  0  0  0  0  0  0  0  0
  1  2  2  0
  1  7  1  0
  3  2  1  0
  4  3  2  0
  5  4  1  0
  5  6  2  0
  6  1  1  0
  7  8  2  0
  8  9  1  0
 10  9  2  0
 11 10  1  0
 12  7  1  0
 12 11  2  0
 13  5  1  0
  2 14  1  0
  3 15  1  0
  8 16  1  0
  9 17  1  0
 10 18  1  0
 11 19  1  0
 12 20  1  0
 13 21  1  0
M  ISO  8  14  14  15  14  16  14  17  14  18  14  19  14  20  14  21  11
M  END
>  <minimizedAffinity>  (1) 
-4.03033066

>  <minimizedRMSD>  (1) 
1.98033106

$$$$
