
     RDKit          3D

 17 18  0  0  0  0  0  0  0  0999 V2000
   39.1230   31.5070   39.3520 C   0  0  0  0  0  0  0  0  0  0  0  0
   40.4730   31.1710   39.2360 C   0  0  0  0  0  0  0  0  0  0  0  0
   41.4190   32.1640   39.4490 C   0  0  0  0  0  0  0  0  0  0  0  0
   40.9810   33.4200   39.7620 N   0  0  0  0  0  0  0  0  0  0  0  0
   39.6680   33.7140   39.8680 C   0  0  0  0  0  0  0  0  0  0  0  0
   38.7430   32.7640   39.6650 N   0  0  0  0  0  0  0  0  0  0  0  0
   38.0970   30.5380   39.1480 N   0  0  0  0  0  0  0  0  0  0  0  0
   37.8370   29.2460   39.4280 C   0  0  0  0  0  0  0  0  0  0  0  0
   36.6300   28.9210   38.9280 N   0  0  0  0  0  0  0  0  0  0  0  0
   36.1410   30.0270   38.3340 C   0  0  0  0  0  0  0  0  0  0  0  0
   37.0530   31.0250   38.4720 N   0  0  0  0  0  0  0  0  0  0  0  0
   39.1480   35.3760   40.2810 S   0  0  0  0  0  0  0  0  0  0  0  0
   40.7792   30.1454   38.9823 H   0  0  0  0  0  0  0  0  0  0  0  0
   42.4940   31.9455   39.3679 H   0  0  0  0  0  0  0  0  0  0  0  0
   38.5042   28.5655   39.9773 H   0  0  0  0  0  0  0  0  0  0  0  0
   35.1696   30.1083   37.8244 H   0  0  0  0  0  0  0  0  0  0  0  0
   39.1043   35.5156   41.6432 H   0  0  0  0  0  0  0  0  0  0  0  0
  1  6  1  0
  2  1  2  0
  2  3  1  0
  3  4  2  0
  4  5  1  0
  5 12  1  0
  6  5  2  0
  7  1  1  0
  7  8  1  0
  9  8  2  0
 10 11  2  0
 10  9  1  0
 11  7  1  0
  2 13  1  0
  3 14  1  0
  8 15  1  0
 10 16  1  0
 12 17  1  0
M  ISO  5  13  14  14  14  15  14  16  14  17  11
M  END
>  <minimizedAffinity>  (1) 
-2.8484869

>  <minimizedRMSD>  (1) 
6.3288517

$$$$
