
     RDKit          3D

 12 12  0  0  0  0  0  0  0  0999 V2000
   36.2340   30.2220   39.3810 C   0  0  0  0  0  0  0  0  0  0  0  0
   36.5590   29.9070   38.0610 C   0  0  0  0  0  0  0  0  0  0  0  0
   37.3320   30.7900   37.3200 C   0  0  0  0  0  0  0  0  0  0  0  0
   37.7430   31.9450   37.9360 N   0  0  0  0  0  0  0  0  0  0  0  0
   37.4120   32.2280   39.2230 C   0  0  0  0  0  0  0  0  0  0  0  0
   36.6700   31.3680   39.9150 N   0  0  0  0  0  0  0  0  0  0  0  0
   37.9890   33.7540   39.9500 S   0  0  0  0  0  0  0  0  0  0  0  0
   35.2310   29.0920   40.3600 S   0  0  0  0  0  0  0  0  0  0  0  0
   36.2057   28.9672   37.6117 H   0  0  0  0  0  0  0  0  0  0  0  0
   37.6051   30.5718   36.2770 H   0  0  0  0  0  0  0  0  0  0  0  0
   37.9506   33.6524   41.3157 H   0  0  0  0  0  0  0  0  0  0  0  0
   35.4428   29.3307   41.6923 H   0  0  0  0  0  0  0  0  0  0  0  0
  1  6  2  0
  1  8  1  0
  2  1  1  0
  3  4  1  0
  3  2  2  0
  4  5  2  0
  5  6  1  0
  5  7  1  0
  2  9  1  0
  3 10  1  0
  7 11  1  0
  8 12  1  0
M  ISO  4   9  14  10  14  11  11  12  11
M  END
>  <minimizedAffinity>  (1) 
-2.48699737

>  <minimizedRMSD>  (1) 
5.15716934

$$$$
