
     RDKit          3D

 29 30  0  0  0  0  0  0  0  0999 V2000
   38.1960   29.0640   43.4670 C   0  0  0  0  0  0  0  0  0  0  0  0
   37.3260   27.9730   43.7020 C   0  0  0  0  0  0  0  0  0  0  0  0
   36.4240   27.6350   42.6950 C   0  0  0  0  0  0  0  0  0  0  0  0
   36.4190   28.3630   41.5360 N   0  0  0  0  0  0  0  0  0  0  0  0
   37.2530   29.3890   41.3420 C   0  0  0  0  0  0  0  0  0  0  0  0
   38.1220   29.7190   42.3050 N   0  0  0  0  0  0  0  0  0  0  0  0
   37.2910   30.1740   40.1670 N   0  0  0  0  0  0  0  0  0  0  0  0
   38.1770   31.1540   40.1490 N   0  0  0  0  0  0  0  0  0  0  0  0
   38.0870   31.8080   38.9590 C   0  0  0  0  0  0  0  0  0  0  0  0
   37.0920   31.1590   38.2640 C   0  0  0  0  0  0  0  0  0  0  0  0
   36.5850   30.1220   39.0270 C   0  0  0  0  0  0  0  0  0  0  0  0
   35.5180   29.1320   38.7480 C   0  0  0  0  0  0  0  0  0  0  0  0
   36.2070   27.7790   38.8190 C   0  0  0  0  0  0  0  0  0  0  0  0
   34.9860   29.2400   37.3440 C   0  0  0  0  0  0  0  0  0  0  0  0
   34.4520   29.1100   39.8060 C   0  0  0  0  0  0  0  0  0  0  0  0
   38.9248   29.3692   44.2323 H   0  0  0  0  0  0  0  0  0  0  0  0
   37.3605   27.4111   44.6470 H   0  0  0  0  0  0  0  0  0  0  0  0
   35.7262   26.7954   42.8296 H   0  0  0  0  0  0  0  0  0  0  0  0
   38.6820   32.6705   38.6243 H   0  0  0  0  0  0  0  0  0  0  0  0
   36.7507   31.4250   37.2527 H   0  0  0  0  0  0  0  0  0  0  0  0
   36.3512   27.4958   39.8721 H   0  0  0  0  0  0  0  0  0  0  0  0
   35.5839   27.0235   38.3181 H   0  0  0  0  0  0  0  0  0  0  0  0
   37.1845   27.8386   38.3181 H   0  0  0  0  0  0  0  0  0  0  0  0
   33.9084   29.4588   37.3760 H   0  0  0  0  0  0  0  0  0  0  0  0
   35.5091   30.0503   36.8150 H   0  0  0  0  0  0  0  0  0  0  0  0
   35.1517   28.2899   36.8150 H   0  0  0  0  0  0  0  0  0  0  0  0
   34.9221   29.1197   40.8004 H   0  0  0  0  0  0  0  0  0  0  0  0
   33.8081   29.9950   39.6962 H   0  0  0  0  0  0  0  0  0  0  0  0
   33.8451   28.1991   39.6962 H   0  0  0  0  0  0  0  0  0  0  0  0
  1  2  2  0
  3  2  1  0
  4  3  2  0
  5  4  1  0
  5  6  2  0
  6  1  1  0
  7  5  1  0
  8  7  1  0
  9  8  2  0
 10  9  1  0
 10 11  2  0
 11  7  1  0
 12 13  1  0
 12 11  1  0
 12 15  1  0
 14 12  1  0
  1 16  1  0
  2 17  1  0
  3 18  1  0
  9 19  1  0
 10 20  1  0
 13 21  1  0
 13 22  1  0
 13 23  1  0
 14 24  1  0
 14 25  1  0
 14 26  1  0
 15 27  1  0
 15 28  1  0
 15 29  1  0
M  ISO  8  16  14  17  14  18  14  19  14  20  14  21   8  22   8  23   8
M  ISO  6  24   8  25   8  26   8  27   8  28   8  29   8
M  END
>  <minimizedAffinity>  (1) 
-4.52636671

>  <minimizedRMSD>  (1) 
1.69519508

$$$$
