
     RDKit          3D

 28 30  0  0  0  0  0  0  0  0999 V2000
   35.7110   29.3390   39.5560 O   0  0  0  0  0  0  0  0  0  0  0  0
   36.2330   28.1230   40.0330 C   0  0  0  0  0  0  0  0  0  0  0  0
   36.1220   27.0640   39.2080 N   0  0  0  0  0  0  0  0  0  0  0  0
   36.5770   25.8290   39.5270 C   0  0  0  0  0  0  0  0  0  0  0  0
   37.1600   25.6540   40.7050 N   0  0  0  0  0  0  0  0  0  0  0  0
   37.3050   26.6660   41.5770 C   0  0  0  0  0  0  0  0  0  0  0  0
   37.9050   26.5240   42.8130 C   0  0  0  0  0  0  0  0  0  0  0  0
   38.0220   27.6000   43.6610 C   0  0  0  0  0  0  0  0  0  0  0  0
   37.5520   28.8370   43.3100 C   0  0  0  0  0  0  0  0  0  0  0  0
   36.9380   29.0350   42.0780 C   0  0  0  0  0  0  0  0  0  0  0  0
   36.8410   27.9270   41.2560 C   0  0  0  0  0  0  0  0  0  0  0  0
   36.3050   30.0670   38.5650 C   0  0  0  0  0  0  0  0  0  0  0  0
   35.9680   29.8200   37.3780 O   0  0  0  0  0  0  0  0  0  0  0  0
   37.2930   31.0900   38.8730 C   0  0  0  0  0  0  0  0  0  0  0  0
   37.0350   31.9840   39.9040 C   0  0  0  0  0  0  0  0  0  0  0  0
   37.9850   32.9620   40.1940 C   0  0  0  0  0  0  0  0  0  0  0  0
   39.1360   32.9840   39.4330 N   0  0  0  0  0  0  0  0  0  0  0  0
   39.3460   32.1070   38.4510 C   0  0  0  0  0  0  0  0  0  0  0  0
   38.4360   31.1590   38.1620 N   0  0  0  0  0  0  0  0  0  0  0  0
   40.8550   32.2000   37.5150 S   0  0  0  0  0  0  0  0  0  0  0  0
   36.4654   24.9898   38.8246 H   0  0  0  0  0  0  0  0  0  0  0  0
   38.2925   25.5418   43.1215 H   0  0  0  0  0  0  0  0  0  0  0  0
   38.5028   27.4642   44.6410 H   0  0  0  0  0  0  0  0  0  0  0  0
   37.6608   29.6805   44.0076 H   0  0  0  0  0  0  0  0  0  0  0  0
   36.5508   30.0187   41.7740 H   0  0  0  0  0  0  0  0  0  0  0  0
   36.1000   31.9216   40.4801 H   0  0  0  0  0  0  0  0  0  0  0  0
   37.8228   33.6911   41.0016 H   0  0  0  0  0  0  0  0  0  0  0  0
   41.9212   32.2657   38.3728 H   0  0  0  0  0  0  0  0  0  0  0  0
  1  2  1  0
  2 11  2  0
  3  4  2  0
  3  2  1  0
  4  5  1  0
  5  6  2  0
  6  7  1  0
  7  8  2  0
  9  8  1  0
 10  9  2  0
 11  6  1  0
 11 10  1  0
 12 14  1  0
 12  1  1  0
 13 12  2  0
 14 15  2  0
 15 16  1  0
 17 16  2  0
 18 17  1  0
 19 18  2  0
 19 14  1  0
 20 18  1  0
  4 21  1  0
  7 22  1  0
  8 23  1  0
  9 24  1  0
 10 25  1  0
 15 26  1  0
 16 27  1  0
 20 28  1  0
M  ISO  8  21  14  22  14  23  14  24  14  25  14  26  14  27  14  28  11
M  END
>  <minimizedAffinity>  (1) 
-5.17342949

>  <minimizedRMSD>  (1) 
5.62352943

$$$$
