
     RDKit          3D

 28 30  0  0  0  0  0  0  0  0999 V2000
   37.6310   28.4230   42.2870 C   0  0  0  0  0  0  0  0  0  0  0  0
   37.4520   29.1010   43.3060 O   0  0  0  0  0  0  0  0  0  0  0  0
   38.1090   27.0380   42.3490 C   0  0  0  0  0  0  0  0  0  0  0  0
   37.1940   26.0030   42.1860 C   0  0  0  0  0  0  0  0  0  0  0  0
   37.6640   24.6940   42.2470 C   0  0  0  0  0  0  0  0  0  0  0  0
   38.9900   24.4910   42.4630 N   0  0  0  0  0  0  0  0  0  0  0  0
   39.8520   25.5150   42.6180 C   0  0  0  0  0  0  0  0  0  0  0  0
   39.4140   26.7820   42.5610 N   0  0  0  0  0  0  0  0  0  0  0  0
   41.5930   25.1990   42.9040 S   0  0  0  0  0  0  0  0  0  0  0  0
   37.3710   29.0010   41.0520 O   0  0  0  0  0  0  0  0  0  0  0  0
   37.4730   30.3720   40.8590 C   0  0  0  0  0  0  0  0  0  0  0  0
   36.3060   31.1240   40.7000 C   0  0  0  0  0  0  0  0  0  0  0  0
   36.7000   32.4010   40.5320 N   0  0  0  0  0  0  0  0  0  0  0  0
   38.0400   32.5100   40.5760 C   0  0  0  0  0  0  0  0  0  0  0  0
   38.9780   33.5170   40.4710 C   0  0  0  0  0  0  0  0  0  0  0  0
   40.3390   33.2860   40.5640 C   0  0  0  0  0  0  0  0  0  0  0  0
   40.7950   31.9840   40.7710 C   0  0  0  0  0  0  0  0  0  0  0  0
   39.8960   30.9250   40.8850 C   0  0  0  0  0  0  0  0  0  0  0  0
   38.5620   31.2270   40.7830 C   0  0  0  0  0  0  0  0  0  0  0  0
   36.1281   26.2131   42.0136 H   0  0  0  0  0  0  0  0  0  0  0  0
   36.9775   23.8435   42.1232 H   0  0  0  0  0  0  0  0  0  0  0  0
   41.8338   25.1553   44.2520 H   0  0  0  0  0  0  0  0  0  0  0  0
   35.2722   30.7482   40.7100 H   0  0  0  0  0  0  0  0  0  0  0  0
   36.0573   33.1929   40.3882 H   0  0  0  0  0  0  0  0  0  0  0  0
   38.6287   34.5470   40.3064 H   0  0  0  0  0  0  0  0  0  0  0  0
   41.0525   34.1186   40.4758 H   0  0  0  0  0  0  0  0  0  0  0  0
   41.8754   31.7911   40.8450 H   0  0  0  0  0  0  0  0  0  0  0  0
   40.2409   29.8935   41.0494 H   0  0  0  0  0  0  0  0  0  0  0  0
  1  3  1  0
  1  2  2  0
  3  8  2  0
  4  5  2  0
  4  3  1  0
  5  6  1  0
  6  7  2  0
  7  9  1  0
  8  7  1  0
 10  1  1  0
 11 10  1  0
 12 11  2  0
 13 14  1  0
 13 12  1  0
 14 19  2  0
 15 16  2  0
 15 14  1  0
 16 17  1  0
 17 18  2  0
 19 11  1  0
 19 18  1  0
  4 20  1  0
  5 21  1  0
  9 22  1  0
 12 23  1  0
 13 24  1  0
 15 25  1  0
 16 26  1  0
 17 27  1  0
 18 28  1  0
M  ISO  8  20  14  21  14  22  11  23  14  24   9  25  14  26  14  27  14
M  ISO  1  28  14
M  END
>  <minimizedAffinity>  (1) 
-5.11146164

>  <minimizedRMSD>  (1) 
7.09484911

$$$$
