
     RDKit          3D

 24 25  0  0  0  0  0  0  0  0999 V2000
   39.5250   30.8920   41.8400 C   0  0  0  0  0  0  0  0  0  0  0  0
   40.2250   31.2120   42.8280 O   0  0  0  0  0  0  0  0  0  0  0  0
   38.8260   31.8870   41.0500 C   0  0  0  0  0  0  0  0  0  0  0  0
   37.6830   31.4800   40.3510 C   0  0  0  0  0  0  0  0  0  0  0  0
   36.9990   32.4320   39.5840 C   0  0  0  0  0  0  0  0  0  0  0  0
   37.4900   33.7060   39.5620 N   0  0  0  0  0  0  0  0  0  0  0  0
   38.5870   34.0500   40.2470 C   0  0  0  0  0  0  0  0  0  0  0  0
   39.2590   33.1460   40.9920 N   0  0  0  0  0  0  0  0  0  0  0  0
   39.1920   35.7340   40.1870 S   0  0  0  0  0  0  0  0  0  0  0  0
   39.4380   29.5450   41.5220 O   0  0  0  0  0  0  0  0  0  0  0  0
   38.4530   28.7160   42.0430 C   0  0  0  0  0  0  0  0  0  0  0  0
   38.1270   28.9560   43.3800 C   0  0  0  0  0  0  0  0  0  0  0  0
   37.1780   28.2420   44.0720 C   0  0  0  0  0  0  0  0  0  0  0  0
   36.5040   27.2290   43.4170 C   0  0  0  0  0  0  0  0  0  0  0  0
   36.8170   26.9780   42.0840 C   0  0  0  0  0  0  0  0  0  0  0  0
   37.7690   27.7010   41.4050 C   0  0  0  0  0  0  0  0  0  0  0  0
   37.3311   30.4391   40.4028 H   0  0  0  0  0  0  0  0  0  0  0  0
   36.0955   32.1620   39.0177 H   0  0  0  0  0  0  0  0  0  0  0  0
   39.3609   36.2043   41.4626 H   0  0  0  0  0  0  0  0  0  0  0  0
   38.6592   29.7609   43.9082 H   0  0  0  0  0  0  0  0  0  0  0  0
   36.9596   28.4722   45.1252 H   0  0  0  0  0  0  0  0  0  0  0  0
   35.7380   26.6348   43.9368 H   0  0  0  0  0  0  0  0  0  0  0  0
   36.2843   26.1735   41.5558 H   0  0  0  0  0  0  0  0  0  0  0  0
   37.9859   27.4702   40.3516 H   0  0  0  0  0  0  0  0  0  0  0  0
  1  2  2  0
  3  1  1  0
  4  3  2  0
  5  4  1  0
  6  5  2  0
  6  7  1  0
  7  8  2  0
  8  3  1  0
  9  7  1  0
 10  1  1  0
 10 11  1  0
 11 12  2  0
 12 13  1  0
 14 13  2  0
 15 14  1  0
 16 11  1  0
 16 15  2  0
  4 17  1  0
  5 18  1  0
  9 19  1  0
 12 20  1  0
 13 21  1  0
 14 22  1  0
 15 23  1  0
 16 24  1  0
M  ISO  8  17  14  18  14  19  11  20  14  21  14  22  14  23  14  24  14
M  END
>  <minimizedAffinity>  (1) 
-4.94761372

>  <minimizedRMSD>  (1) 
4.0511446

$$$$
