
     RDKit          3D

 21 22  0  0  0  0  0  0  0  0999 V2000
   36.7260   28.7460   41.7270 C   0  0  0  0  0  0  0  0  0  0  0  0
   37.6100   29.2280   42.7100 C   0  0  0  0  0  0  0  0  0  0  0  0
   38.3440   28.2940   43.4340 C   0  0  0  0  0  0  0  0  0  0  0  0
   38.1750   26.9570   43.1600 N   0  0  0  0  0  0  0  0  0  0  0  0
   37.3220   26.5540   42.2150 C   0  0  0  0  0  0  0  0  0  0  0  0
   36.5930   27.4310   41.4930 N   0  0  0  0  0  0  0  0  0  0  0  0
   37.1380   24.8000   41.8960 S   0  0  0  0  0  0  0  0  0  0  0  0
   35.9530   29.7190   40.9650 C   0  0  0  0  0  0  0  0  0  0  0  0
   34.9590   29.3790   40.2910 O   0  0  0  0  0  0  0  0  0  0  0  0
   36.3180   31.0580   40.9780 O   0  0  0  0  0  0  0  0  0  0  0  0
   37.6050   32.7880   38.1450 N   0  0  0  0  0  0  0  0  0  0  0  0
   37.0590   32.8590   39.3560 N   0  0  0  0  0  0  0  0  0  0  0  0
   36.8390   31.6410   39.8280 C   0  0  0  0  0  0  0  0  0  0  0  0
   37.2750   30.7420   38.8490 C   0  0  0  0  0  0  0  0  0  0  0  0
   37.7550   31.4870   37.7930 C   0  0  0  0  0  0  0  0  0  0  0  0
   37.7170   30.3063   42.8994 H   0  0  0  0  0  0  0  0  0  0  0  0
   39.0485   28.6198   44.2134 H   0  0  0  0  0  0  0  0  0  0  0  0
   37.0671   24.1244   43.0857 H   0  0  0  0  0  0  0  0  0  0  0  0
   37.8724   33.5959   37.5647 H   0  0  0  0  0  0  0  0  0  0  0  0
   37.2411   29.6442   38.9104 H   0  0  0  0  0  0  0  0  0  0  0  0
   38.1759   31.1026   36.8522 H   0  0  0  0  0  0  0  0  0  0  0  0
  1  2  2  0
  2  3  1  0
  4  3  2  0
  5  4  1  0
  6  1  1  0
  6  5  2  0
  7  5  1  0
  8 10  1  0
  8  1  1  0
  9  8  2  0
 11 12  1  0
 12 13  2  0
 13 10  1  0
 14 13  1  0
 15 11  1  0
 15 14  2  0
  2 16  1  0
  3 17  1  0
  7 18  1  0
 11 19  1  0
 14 20  1  0
 15 21  1  0
M  ISO  6  16  14  17  14  18  11  19   9  20  14  21  14
M  END
>  <minimizedAffinity>  (1) 
-4.46624231

>  <minimizedRMSD>  (1) 
6.36206007

$$$$
