
     RDKit          3D

 27 28  0  0  0  0  0  0  0  0999 V2000
   36.9810   26.8820   41.6850 C   0  0  0  0  0  0  0  0  0  0  0  0
   36.9480   27.1490   42.9120 O   0  0  0  0  0  0  0  0  0  0  0  0
   37.6210   25.6600   41.2060 C   0  0  0  0  0  0  0  0  0  0  0  0
   36.9810   24.4360   41.4590 C   0  0  0  0  0  0  0  0  0  0  0  0
   37.5910   23.2660   41.0020 C   0  0  0  0  0  0  0  0  0  0  0  0
   38.7870   23.3770   40.3290 N   0  0  0  0  0  0  0  0  0  0  0  0
   39.3590   24.5660   40.1130 C   0  0  0  0  0  0  0  0  0  0  0  0
   38.7780   25.7020   40.5490 N   0  0  0  0  0  0  0  0  0  0  0  0
   40.9180   24.6580   39.2300 S   0  0  0  0  0  0  0  0  0  0  0  0
   36.4030   27.7550   40.7980 O   0  0  0  0  0  0  0  0  0  0  0  0
   37.8500   31.6140   40.4360 C   0  0  0  0  0  0  0  0  0  0  0  0
   36.5020   31.4680   40.7190 C   0  0  0  0  0  0  0  0  0  0  0  0
   35.9570   30.1990   40.8530 C   0  0  0  0  0  0  0  0  0  0  0  0
   36.7630   29.0910   40.7020 C   0  0  0  0  0  0  0  0  0  0  0  0
   38.1100   29.2610   40.4180 C   0  0  0  0  0  0  0  0  0  0  0  0
   38.6700   30.5160   40.2810 C   0  0  0  0  0  0  0  0  0  0  0  0
   38.4830   33.2500   40.2770 S   0  0  0  0  0  0  0  0  0  0  0  0
   37.4070   34.0840   39.6640 O   0  0  0  0  0  0  0  0  0  0  0  0
   39.6850   33.2160   39.3530 O   0  0  0  0  0  0  0  0  0  0  0  0
   36.0252   24.3998   42.0023 H   0  0  0  0  0  0  0  0  0  0  0  0
   37.1288   22.2829   41.1749 H   0  0  0  0  0  0  0  0  0  0  0  0
   41.9495   24.7189   40.1296 H   0  0  0  0  0  0  0  0  0  0  0  0
   35.8645   32.3566   40.8373 H   0  0  0  0  0  0  0  0  0  0  0  0
   34.8872   30.0778   41.0786 H   0  0  0  0  0  0  0  0  0  0  0  0
   38.7487   28.3734   40.2988 H   0  0  0  0  0  0  0  0  0  0  0  0
   39.7397   30.6364   40.0547 H   0  0  0  0  0  0  0  0  0  0  0  0
   38.8583   33.7627   41.4908 H   0  0  0  0  0  0  0  0  0  0  0  0
  1  2  2  0
  3  4  2  0
  3  1  1  0
  5  4  1  0
  6  5  2  0
  7  6  1  0
  7  8  2  0
  8  3  1  0
  9  7  1  0
 10  1  1  0
 11 12  2  0
 12 13  1  0
 14 10  1  0
 14 13  2  0
 15 14  1  0
 16 15  2  0
 16 11  1  0
 17 11  1  0
 18 17  2  0
 19 17  2  0
  4 20  1  0
  5 21  1  0
  9 22  1  0
 12 23  1  0
 13 24  1  0
 15 25  1  0
 16 26  1  0
 17 27  1  0
M  ISO  8  20  14  21  14  22  11  23  14  24  14  25  14  26  14  27  11
M  END
>  <minimizedAffinity>  (1) 
-4.31478214

>  <minimizedRMSD>  (1) 
7.49060297

$$$$
