
     RDKit          3D

 19 20  0  0  0  0  0  0  0  0999 V2000
   37.5520   31.6160   40.2820 C   0  0  0  0  0  0  0  0  0  0  0  0
   36.3630   31.1030   40.8110 C   0  0  0  0  0  0  0  0  0  0  0  0
   36.2280   29.7260   40.9780 C   0  0  0  0  0  0  0  0  0  0  0  0
   37.2720   28.9370   40.6140 N   0  0  0  0  0  0  0  0  0  0  0  0
   38.4140   29.4530   40.1040 C   0  0  0  0  0  0  0  0  0  0  0  0
   38.5440   30.7870   39.9420 N   0  0  0  0  0  0  0  0  0  0  0  0
   39.7630   28.3770   39.6390 S   0  0  0  0  0  0  0  0  0  0  0  0
   37.6820   33.0510   40.1120 C   0  0  0  0  0  0  0  0  0  0  0  0
   37.0120   33.6640   39.2470 O   0  0  0  0  0  0  0  0  0  0  0  0
   38.5450   33.7780   40.8950 O   0  0  0  0  0  0  0  0  0  0  0  0
   39.5230   34.5690   40.3020 C   0  0  0  0  0  0  0  0  0  0  0  0
   39.3900   35.9270   40.2430 N   0  0  0  0  0  0  0  0  0  0  0  0
   40.4390   36.4350   39.6370 O   0  0  0  0  0  0  0  0  0  0  0  0
   41.2640   35.4730   39.2910 C   0  0  0  0  0  0  0  0  0  0  0  0
   40.7080   34.3040   39.6970 N   0  0  0  0  0  0  0  0  0  0  0  0
   35.5427   31.7797   41.0924 H   0  0  0  0  0  0  0  0  0  0  0  0
   35.3056   29.2920   41.3913 H   0  0  0  0  0  0  0  0  0  0  0  0
   40.3704   27.8925   40.7673 H   0  0  0  0  0  0  0  0  0  0  0  0
   42.2253   35.5928   38.7699 H   0  0  0  0  0  0  0  0  0  0  0  0
  1  2  2  0
  2  3  1  0
  4  3  2  0
  5  4  1  0
  6  5  2  0
  6  1  1  0
  7  5  1  0
  8  1  1  0
  8 10  1  0
  9  8  2  0
 11 10  1  0
 12 11  2  0
 13 12  1  0
 14 13  1  0
 14 15  2  0
 15 11  1  0
  2 16  1  0
  3 17  1  0
  7 18  1  0
 14 19  1  0
M  ISO  4  16  14  17  14  18  11  19  14
M  END
>  <minimizedAffinity>  (1) 
-4.09482956

>  <minimizedRMSD>  (1) 
7.02289009

$$$$
