
     RDKit          3D

 39 41  0  0  1  0  0  0  0  0999 V2000
   37.3870   29.3470   43.2910 N   0  0  0  0  0  0  0  0  0  0  0  0
   37.0440   28.1310   43.9520 C   0  0  0  0  0  0  0  0  0  0  0  0
   37.7690   26.9260   43.3330 C   0  0  0  0  0  0  0  0  0  0  0  0
   37.3400   26.9710   41.8620 C   0  0  1  0  0  0  0  0  0  0  0  0
   38.0240   28.1890   41.2690 C   0  0  0  0  0  0  0  0  0  0  0  0
   37.2770   29.3730   41.8660 C   0  0  2  0  0  0  0  0  0  0  0  0
   37.6670   30.6530   41.3200 C   0  0  0  0  0  0  0  0  0  0  0  0
   38.8980   31.2230   41.5730 C   0  0  0  0  0  0  0  0  0  0  0  0
   39.1730   32.4500   41.0030 C   0  0  0  0  0  0  0  0  0  0  0  0
   38.2880   33.1510   40.1870 C   0  0  0  0  0  0  0  0  0  0  0  0
   37.0750   32.5590   39.9550 C   0  0  0  0  0  0  0  0  0  0  0  0
   36.7630   31.3180   40.5170 C   0  0  0  0  0  0  0  0  0  0  0  0
   37.6500   25.8190   41.2380 O   0  0  0  0  0  0  0  0  0  0  0  0
   36.8590   24.9630   40.5090 C   0  0  0  0  0  0  0  0  0  0  0  0
   36.3410   24.0030   41.0740 O   0  0  0  0  0  0  0  0  0  0  0  0
   36.6530   25.2240   39.0720 C   0  0  0  0  0  0  0  0  0  0  0  0
   35.5660   24.6260   38.4970 C   0  0  0  0  0  0  0  0  0  0  0  0
   35.2890   24.9350   37.1470 C   0  0  0  0  0  0  0  0  0  0  0  0
   36.1320   25.8160   36.5040 N   0  0  0  0  0  0  0  0  0  0  0  0
   37.1810   26.3640   37.1400 C   0  0  0  0  0  0  0  0  0  0  0  0
   37.4630   26.0740   38.4550 N   0  0  0  0  0  0  0  0  0  0  0  0
   38.2370   27.4880   36.2480 S   0  0  0  0  0  0  0  0  0  0  0  0
   36.7717   30.0850   43.6622 H   0  0  0  0  0  0  0  0  0  0  0  0
   37.3246   28.2100   45.0127 H   0  0  0  0  0  0  0  0  0  0  0  0
   35.9608   27.9739   43.8425 H   0  0  0  0  0  0  0  0  0  0  0  0
   38.8598   27.0313   43.4284 H   0  0  0  0  0  0  0  0  0  0  0  0
   37.5180   25.9746   43.8248 H   0  0  0  0  0  0  0  0  0  0  0  0
   36.2505   27.0645   41.7425 H   0  0  0  0  0  0  0  0  0  0  0  0
   39.0862   28.2157   41.5536 H   0  0  0  0  0  0  0  0  0  0  0  0
   37.9986   28.1894   40.1693 H   0  0  0  0  0  0  0  0  0  0  0  0
   36.2208   29.2601   41.5800 H   0  0  0  0  0  0  0  0  0  0  0  0
   39.6376   30.7152   42.2095 H   0  0  0  0  0  0  0  0  0  0  0  0
   40.1544   32.9034   41.2064 H   0  0  0  0  0  0  0  0  0  0  0  0
   38.5493   34.1272   39.7525 H   0  0  0  0  0  0  0  0  0  0  0  0
   36.3363   33.0671   39.3177 H   0  0  0  0  0  0  0  0  0  0  0  0
   35.7813   30.8642   40.3161 H   0  0  0  0  0  0  0  0  0  0  0  0
   34.9309   23.9301   39.0648 H   0  0  0  0  0  0  0  0  0  0  0  0
   34.4295   24.4877   36.6262 H   0  0  0  0  0  0  0  0  0  0  0  0
   38.9505   28.2474   37.1375 H   0  0  0  0  0  0  0  0  0  0  0  0
  1  2  1  0
  3  2  1  0
  4  3  1  0
  5  4  1  0
  5  6  1  0
  6  1  1  0
  7  8  2  0
  7  6  1  0
  9  8  1  0
 10  9  2  0
 11 10  1  0
 11 12  2  0
 12  7  1  0
 13  4  1  0
 14 15  2  0
 14 13  1  0
 16 14  1  0
 17 16  2  0
 18 17  1  0
 19 20  1  0
 19 18  2  0
 20 21  2  0
 21 16  1  0
 22 20  1  0
  1 23  1  0
  2 24  1  0
  2 25  1  0
  3 26  1  0
  3 27  1  0
  4 28  1  1
  5 29  1  0
  5 30  1  0
  6 31  1  1
  8 32  1  0
  9 33  1  0
 10 34  1  0
 11 35  1  0
 12 36  1  0
 17 37  1  0
 18 38  1  0
 22 39  1  0
M  ISO  8  23   5  24  13  25  13  26  13  27  13  28  13  29  13  30  13
M  ISO  8  31  13  32  14  33  14  34  14  35  14  36  14  37  14  38  14
M  ISO  1  39  11
M  END
>  <minimizedAffinity>  (1) 
-5.03874016

>  <minimizedRMSD>  (1) 
3.23543143

$$$$
