
     RDKit          3D

 32 33  0  0  1  0  0  0  0  0999 V2000
   36.8200   28.9860   43.2850 N   0  0  0  0  0  0  0  0  0  0  0  0
   37.3850   27.9300   44.0480 C   0  0  0  0  0  0  0  0  0  0  0  0
   38.8370   27.6220   43.6550 C   0  0  0  0  0  0  0  0  0  0  0  0
   38.7450   27.3350   42.1520 C   0  0  1  0  0  0  0  0  0  0  0  0
   38.4420   28.6630   41.4960 C   0  0  0  0  0  0  0  0  0  0  0  0
   36.9940   28.9680   41.8630 C   0  0  2  0  0  0  0  0  0  0  0  0
   36.7960   30.3820   41.4220 C   0  0  0  0  0  0  0  0  0  0  0  0
   37.8770   30.9620   41.0880 O   0  0  0  0  0  0  0  0  0  0  0  0
   35.5860   31.0540   41.3600 O   0  0  0  0  0  0  0  0  0  0  0  0
   39.8780   26.7610   41.7030 O   0  0  0  0  0  0  0  0  0  0  0  0
   40.0550   25.6780   40.8780 C   0  0  0  0  0  0  0  0  0  0  0  0
   41.2000   25.3370   40.5890 O   0  0  0  0  0  0  0  0  0  0  0  0
   38.8740   24.9590   40.3680 C   0  0  0  0  0  0  0  0  0  0  0  0
   38.4940   23.8530   41.0740 C   0  0  0  0  0  0  0  0  0  0  0  0
   37.3090   23.1940   40.6710 C   0  0  0  0  0  0  0  0  0  0  0  0
   36.6230   23.7130   39.5950 N   0  0  0  0  0  0  0  0  0  0  0  0
   37.0640   24.8100   38.9530 C   0  0  0  0  0  0  0  0  0  0  0  0
   38.2150   25.4640   39.3340 N   0  0  0  0  0  0  0  0  0  0  0  0
   36.1380   25.4300   37.5580 S   0  0  0  0  0  0  0  0  0  0  0  0
   35.8063   28.9852   43.4678 H   0  0  0  0  0  0  0  0  0  0  0  0
   37.3611   28.2126   45.1108 H   0  0  0  0  0  0  0  0  0  0  0  0
   36.7903   27.0255   43.8525 H   0  0  0  0  0  0  0  0  0  0  0  0
   39.4896   28.4854   43.8516 H   0  0  0  0  0  0  0  0  0  0  0  0
   39.2685   26.7867   44.2261 H   0  0  0  0  0  0  0  0  0  0  0  0
   37.9523   26.6115   41.9107 H   0  0  0  0  0  0  0  0  0  0  0  0
   38.5561   28.5891   40.4044 H   0  0  0  0  0  0  0  0  0  0  0  0
   39.1274   29.4545   41.8333 H   0  0  0  0  0  0  0  0  0  0  0  0
   36.3144   28.2269   41.4169 H   0  0  0  0  0  0  0  0  0  0  0  0
   35.5574   31.9947   41.0530 H   0  0  0  0  0  0  0  0  0  0  0  0
   39.0879   23.4881   41.9250 H   0  0  0  0  0  0  0  0  0  0  0  0
   36.9480   22.2986   41.1982 H   0  0  0  0  0  0  0  0  0  0  0  0
   35.0626   26.1500   38.0074 H   0  0  0  0  0  0  0  0  0  0  0  0
  1  2  1  0
  3  2  1  0
  4  3  1  0
  5  6  1  0
  5  4  1  0
  6  1  1  0
  7  6  1  0
  8  7  2  0
  9  7  1  0
 10  4  1  0
 11 10  1  0
 12 11  2  0
 13 11  1  0
 13 14  2  0
 15 14  1  0
 16 15  2  0
 17 18  2  0
 17 16  1  0
 18 13  1  0
 19 17  1  0
  1 20  1  0
  2 21  1  0
  2 22  1  0
  3 23  1  0
  3 24  1  0
  4 25  1  1
  5 26  1  0
  5 27  1  0
  6 28  1  6
  9 29  1  0
 14 30  1  0
 15 31  1  0
 19 32  1  0
M  ISO  8  20   5  21  13  22  13  23  13  24  13  25  13  26  13  27  13
M  ISO  5  28  13  29   3  30  14  31  14  32  11
M  END
>  <minimizedAffinity>  (1) 
-4.7834053

>  <minimizedRMSD>  (1) 
3.77173686

$$$$
