
     RDKit          3D

 41 42  0  0  1  0  0  0  0  0999 V2000
   37.6730   26.6080   40.0150 N   0  0  0  0  0  0  0  0  0  0  0  0
   37.9300   27.1380   38.7220 C   0  0  0  0  0  0  0  0  0  0  0  0
   39.2450   27.9300   38.6570 C   0  0  0  0  0  0  0  0  0  0  0  0
   39.0650   29.0010   39.7390 C   0  0  1  0  0  0  0  0  0  0  0  0
   39.1210   28.2620   41.0620 C   0  0  0  0  0  0  0  0  0  0  0  0
   37.7990   27.5060   41.1280 C   0  0  2  0  0  0  0  0  0  0  0  0
   37.6080   26.8210   42.4340 C   0  0  0  0  0  0  0  0  0  0  0  0
   37.1190   25.4030   42.2310 C   0  0  0  0  0  0  0  0  0  0  0  0
   36.5530   27.5300   43.2570 C   0  0  0  0  0  0  0  0  0  0  0  0
   38.8360   26.7610   43.2800 C   0  0  0  0  0  0  0  0  0  0  0  0
   40.0040   29.9600   39.6210 O   0  0  0  0  0  0  0  0  0  0  0  0
   40.0730   31.0320   38.7620 C   0  0  0  0  0  0  0  0  0  0  0  0
   40.6850   30.9090   37.7030 O   0  0  0  0  0  0  0  0  0  0  0  0
   39.4120   32.2940   39.1350 C   0  0  0  0  0  0  0  0  0  0  0  0
   38.0470   32.3090   39.0470 C   0  0  0  0  0  0  0  0  0  0  0  0
   37.3790   33.4730   39.4880 C   0  0  0  0  0  0  0  0  0  0  0  0
   38.1460   34.5110   39.9740 N   0  0  0  0  0  0  0  0  0  0  0  0
   39.4850   34.4170   40.0280 C   0  0  0  0  0  0  0  0  0  0  0  0
   40.1510   33.2910   39.6030 N   0  0  0  0  0  0  0  0  0  0  0  0
   40.4200   35.7960   40.6620 S   0  0  0  0  0  0  0  0  0  0  0  0
   38.3311   25.8305   40.1678 H   0  0  0  0  0  0  0  0  0  0  0  0
   37.9846   26.3057   38.0049 H   0  0  0  0  0  0  0  0  0  0  0  0
   37.1117   27.8316   38.4783 H   0  0  0  0  0  0  0  0  0  0  0  0
   40.1060   27.2834   38.8818 H   0  0  0  0  0  0  0  0  0  0  0  0
   39.4442   28.3530   37.6613 H   0  0  0  0  0  0  0  0  0  0  0  0
   38.1072   29.5345   39.6500 H   0  0  0  0  0  0  0  0  0  0  0  0
   39.9706   27.5636   41.0825 H   0  0  0  0  0  0  0  0  0  0  0  0
   39.2600   28.9405   41.9166 H   0  0  0  0  0  0  0  0  0  0  0  0
   36.9859   28.2431   41.0535 H   0  0  0  0  0  0  0  0  0  0  0  0
   36.9552   24.9280   43.2095 H   0  0  0  0  0  0  0  0  0  0  0  0
   36.1741   25.4180   41.6680 H   0  0  0  0  0  0  0  0  0  0  0  0
   37.8723   24.8324   41.6680 H   0  0  0  0  0  0  0  0  0  0  0  0
   36.7654   27.3873   44.3268 H   0  0  0  0  0  0  0  0  0  0  0  0
   36.5646   28.6043   43.0210 H   0  0  0  0  0  0  0  0  0  0  0  0
   35.5627   27.1134   43.0210 H   0  0  0  0  0  0  0  0  0  0  0  0
   38.5505   26.7749   44.3422 H   0  0  0  0  0  0  0  0  0  0  0  0
   39.3875   25.8348   43.0607 H   0  0  0  0  0  0  0  0  0  0  0  0
   39.4751   27.6290   43.0607 H   0  0  0  0  0  0  0  0  0  0  0  0
   37.4909   31.4478   38.6482 H   0  0  0  0  0  0  0  0  0  0  0  0
   36.2825   33.5490   39.4451 H   0  0  0  0  0  0  0  0  0  0  0  0
   40.4017   35.7690   42.0316 H   0  0  0  0  0  0  0  0  0  0  0  0
  1  6  1  0
  2  1  1  0
  3  2  1  0
  3  4  1  0
  4  5  1  0
  5  6  1  0
  6  7  1  0
  7  9  1  0
  7 10  1  0
  8  7  1  0
 11  4  1  0
 12 14  1  0
 12 11  1  0
 13 12  2  0
 14 19  1  0
 15 14  2  0
 15 16  1  0
 16 17  2  0
 17 18  1  0
 18 20  1  0
 19 18  2  0
  1 21  1  0
  2 22  1  0
  2 23  1  0
  3 24  1  0
  3 25  1  0
  4 26  1  6
  5 27  1  0
  5 28  1  0
  6 29  1  6
  8 30  1  0
  8 31  1  0
  8 32  1  0
  9 33  1  0
  9 34  1  0
  9 35  1  0
 10 36  1  0
 10 37  1  0
 10 38  1  0
 15 39  1  0
 16 40  1  0
 20 41  1  0
M  ISO  8  21   5  22  13  23  13  24  13  25  13  26  13  27  13  28  13
M  ISO  8  29  13  30   8  31   8  32   8  33   8  34   8  35   8  36   8
M  ISO  5  37   8  38   8  39  14  40  14  41  11
M  END
>  <minimizedAffinity>  (1) 
-4.72507715

>  <minimizedRMSD>  (1) 
4.83395386

$$$$
