
     RDKit          3D

 41 43  0  0  1  0  0  0  0  0999 V2000
   37.3270   28.7680   44.0420 N   0  0  0  0  0  0  0  0  0  0  0  0
   36.3200   27.7730   44.0180 C   0  0  0  0  0  0  0  0  0  0  0  0
   36.6750   26.5650   43.1360 C   0  0  0  0  0  0  0  0  0  0  0  0
   36.9620   27.2000   41.7690 C   0  0  1  0  0  0  0  0  0  0  0  0
   38.2570   27.9680   41.9410 C   0  0  0  0  0  0  0  0  0  0  0  0
   37.8690   29.1820   42.7810 C   0  0  2  0  0  0  0  0  0  0  0  0
   38.9110   30.1250   42.8570 N   0  0  0  0  0  0  0  0  0  0  0  0
   40.1730   29.3970   42.7550 C   0  0  0  0  0  0  0  0  0  0  0  0
   41.1590   30.4380   42.3320 C   0  0  0  0  0  0  0  0  0  0  0  0
   40.3150   31.5680   41.7620 C   0  0  0  0  0  0  0  0  0  0  0  0
   38.9640   30.8850   41.6140 C   0  0  0  0  0  0  0  0  0  0  0  0
   37.0110   26.2630   40.8040 O   0  0  0  0  0  0  0  0  0  0  0  0
   36.5500   26.2970   39.5100 C   0  0  0  0  0  0  0  0  0  0  0  0
   36.1770   25.2490   38.9840 O   0  0  0  0  0  0  0  0  0  0  0  0
   36.5120   27.5840   38.7910 C   0  0  0  0  0  0  0  0  0  0  0  0
   35.2770   28.0360   38.4230 C   0  0  0  0  0  0  0  0  0  0  0  0
   35.2030   29.3120   37.8180 C   0  0  0  0  0  0  0  0  0  0  0  0
   36.3810   30.0100   37.6440 N   0  0  0  0  0  0  0  0  0  0  0  0
   37.5590   29.4930   38.0370 C   0  0  0  0  0  0  0  0  0  0  0  0
   37.6470   28.2530   38.6260 N   0  0  0  0  0  0  0  0  0  0  0  0
   39.0430   30.4470   37.7750 S   0  0  0  0  0  0  0  0  0  0  0  0
   36.9281   29.6017   44.4966 H   0  0  0  0  0  0  0  0  0  0  0  0
   36.1565   27.4178   45.0461 H   0  0  0  0  0  0  0  0  0  0  0  0
   35.4184   28.2343   43.5886 H   0  0  0  0  0  0  0  0  0  0  0  0
   37.5625   26.0422   43.5220 H   0  0  0  0  0  0  0  0  0  0  0  0
   35.8777   25.8080   43.1007 H   0  0  0  0  0  0  0  0  0  0  0  0
   36.1642   27.8837   41.4432 H   0  0  0  0  0  0  0  0  0  0  0  0
   39.0062   27.3558   42.4644 H   0  0  0  0  0  0  0  0  0  0  0  0
   38.7081   28.2507   40.9784 H   0  0  0  0  0  0  0  0  0  0  0  0
   37.0576   29.7270   42.2765 H   0  0  0  0  0  0  0  0  0  0  0  0
   40.4541   28.9642   43.7264 H   0  0  0  0  0  0  0  0  0  0  0  0
   40.1193   28.5541   42.0503 H   0  0  0  0  0  0  0  0  0  0  0  0
   41.7447   30.7894   43.1943 H   0  0  0  0  0  0  0  0  0  0  0  0
   41.8815   30.0503   41.5987 H   0  0  0  0  0  0  0  0  0  0  0  0
   40.2617   32.4202   42.4555 H   0  0  0  0  0  0  0  0  0  0  0  0
   40.7077   31.9970   40.8283 H   0  0  0  0  0  0  0  0  0  0  0  0
   38.1445   31.6160   41.5501 H   0  0  0  0  0  0  0  0  0  0  0  0
   38.8547   30.2794   40.7022 H   0  0  0  0  0  0  0  0  0  0  0  0
   34.3741   27.4305   38.5908 H   0  0  0  0  0  0  0  0  0  0  0  0
   34.2393   29.7340   37.4969 H   0  0  0  0  0  0  0  0  0  0  0  0
   39.5826   30.7939   38.9856 H   0  0  0  0  0  0  0  0  0  0  0  0
  2  1  1  0
  3  2  1  0
  4  5  1  0
  4  3  1  0
  5  6  1  0
  6  7  1  0
  6  1  1  0
  7  8  1  0
  9  8  1  0
 10  9  1  0
 11 10  1  0
 11  7  1  0
 12  4  1  0
 13 12  1  0
 14 13  2  0
 15 13  1  0
 16 15  2  0
 17 16  1  0
 18 17  2  0
 18 19  1  0
 19 20  2  0
 20 15  1  0
 21 19  1  0
  1 22  1  0
  2 23  1  0
  2 24  1  0
  3 25  1  0
  3 26  1  0
  4 27  1  6
  5 28  1  0
  5 29  1  0
  6 30  1  6
  8 31  1  0
  8 32  1  0
  9 33  1  0
  9 34  1  0
 10 35  1  0
 10 36  1  0
 11 37  1  0
 11 38  1  0
 16 39  1  0
 17 40  1  0
 21 41  1  0
M  ISO  8  22   5  23  13  24  13  25  13  26  13  27  13  28  13  29  13
M  ISO  8  30  13  31  13  32  13  33  13  34  13  35  13  36  13  37  13
M  ISO  4  38  13  39  14  40  14  41  11
M  END
>  <minimizedAffinity>  (1) 
-4.51261282

>  <minimizedRMSD>  (1) 
1.27233028

$$$$
