
     RDKit          3D

 39 41  0  0  1  0  0  0  0  0999 V2000
   37.5020   28.9900   43.8130 N   0  0  0  0  0  0  0  0  0  0  0  0
   36.4630   28.0250   43.9420 C   0  0  0  0  0  0  0  0  0  0  0  0
   36.7850   26.7240   43.1960 C   0  0  0  0  0  0  0  0  0  0  0  0
   37.0320   27.1910   41.7570 C   0  0  1  0  0  0  0  0  0  0  0  0
   38.3470   27.9400   41.7980 C   0  0  0  0  0  0  0  0  0  0  0  0
   38.0310   29.2510   42.5090 C   0  0  2  0  0  0  0  0  0  0  0  0
   39.2340   30.0220   42.7160 N   0  0  0  0  0  0  0  0  0  0  0  0
   39.2450   31.3030   42.1370 C   0  0  0  0  0  0  0  0  0  0  0  0
   40.1110   31.5040   40.9430 C   0  0  0  0  0  0  0  0  0  0  0  0
   40.8180   30.3660   40.4700 N   0  0  0  0  0  0  0  0  0  0  0  0
   41.2810   29.4440   41.4470 C   0  0  0  0  0  0  0  0  0  0  0  0
   40.4320   29.2680   42.6530 C   0  0  0  0  0  0  0  0  0  0  0  0
   37.0400   26.1450   40.9110 O   0  0  0  0  0  0  0  0  0  0  0  0
   36.6400   26.0640   39.5970 C   0  0  0  0  0  0  0  0  0  0  0  0
   35.9640   25.1010   39.2410 O   0  0  0  0  0  0  0  0  0  0  0  0
   37.0300   27.1310   38.6600 C   0  0  0  0  0  0  0  0  0  0  0  0
   36.0290   27.9680   38.2540 C   0  0  0  0  0  0  0  0  0  0  0  0
   36.3880   29.0640   37.4320 C   0  0  0  0  0  0  0  0  0  0  0  0
   37.7180   29.2070   37.1020 N   0  0  0  0  0  0  0  0  0  0  0  0
   38.6450   28.3390   37.5440 C   0  0  0  0  0  0  0  0  0  0  0  0
   38.3110   27.2710   38.3440 N   0  0  0  0  0  0  0  0  0  0  0  0
   40.3480   28.5750   37.0730 S   0  0  0  0  0  0  0  0  0  0  0  0
   37.1365   29.8814   44.1773 H   0  0  0  0  0  0  0  0  0  0  0  0
   36.3224   27.7962   45.0087 H   0  0  0  0  0  0  0  0  0  0  0  0
   35.5499   28.4506   43.5002 H   0  0  0  0  0  0  0  0  0  0  0  0
   37.6820   26.2429   43.6131 H   0  0  0  0  0  0  0  0  0  0  0  0
   35.9827   25.9753   43.2727 H   0  0  0  0  0  0  0  0  0  0  0  0
   36.2342   27.8479   41.3802 H   0  0  0  0  0  0  0  0  0  0  0  0
   39.1008   27.3678   42.3587 H   0  0  0  0  0  0  0  0  0  0  0  0
   38.7610   28.1043   40.7922 H   0  0  0  0  0  0  0  0  0  0  0  0
   37.3123   29.7955   41.8790 H   0  0  0  0  0  0  0  0  0  0  0  0
   38.6387   32.1230   42.5493 H   0  0  0  0  0  0  0  0  0  0  0  0
   40.1991   32.4842   40.4517 H   0  0  0  0  0  0  0  0  0  0  0  0
   40.9871   30.2162   39.4651 H   0  0  0  0  0  0  0  0  0  0  0  0
   42.2213   28.8883   41.3167 H   0  0  0  0  0  0  0  0  0  0  0  0
   40.7209   28.5817   43.4626 H   0  0  0  0  0  0  0  0  0  0  0  0
   34.9846   27.7971   38.5541 H   0  0  0  0  0  0  0  0  0  0  0  0
   35.6317   29.7759   37.0698 H   0  0  0  0  0  0  0  0  0  0  0  0
   41.1223   28.6823   38.1981 H   0  0  0  0  0  0  0  0  0  0  0  0
  1  2  1  0
  3  2  1  0
  4  5  1  0
  4  3  1  0
  5  6  1  0
  6  7  1  0
  6  1  1  0
  8  7  1  0
  9  8  2  0
 10  9  1  0
 10 11  1  0
 11 12  2  0
 12  7  1  0
 13  4  1  0
 14 13  1  0
 15 14  2  0
 16 14  1  0
 17 16  2  0
 18 17  1  0
 19 18  2  0
 19 20  1  0
 20 21  2  0
 21 16  1  0
 22 20  1  0
  1 23  1  0
  2 24  1  0
  2 25  1  0
  3 26  1  0
  3 27  1  0
  4 28  1  6
  5 29  1  0
  5 30  1  0
  6 31  1  6
  8 32  1  0
  9 33  1  0
 10 34  1  0
 11 35  1  0
 12 36  1  0
 17 37  1  0
 18 38  1  0
 22 39  1  0
M  ISO  8  23   5  24  13  25  13  26  13  27  13  28  13  29  13  30  13
M  ISO  8  31  13  32  13  33  13  35  13  36  13  37  14  38  14  39  11
M  END
>  <minimizedAffinity>  (1) 
-4.07095003

>  <minimizedRMSD>  (1) 
1.95785391

$$$$
