
     RDKit          3D

 38 39  0  0  1  0  0  0  0  0999 V2000
   37.7060   29.5160   43.0910 N   0  0  0  0  0  0  0  0  0  0  0  0
   37.4400   28.4200   43.9600 C   0  0  0  0  0  0  0  0  0  0  0  0
   38.1080   27.1180   43.4860 C   0  0  0  0  0  0  0  0  0  0  0  0
   37.5450   26.9320   42.0710 C   0  0  1  0  0  0  0  0  0  0  0  0
   38.1780   28.0220   41.2300 C   0  0  0  0  0  0  0  0  0  0  0  0
   37.4990   29.3030   41.6870 C   0  0  2  0  0  0  0  0  0  0  0  0
   37.9030   30.4890   40.8930 C   0  0  0  0  0  0  0  0  0  0  0  0
   39.0600   31.2570   41.4970 C   0  0  0  0  0  0  0  0  0  0  0  0
   36.8000   31.4490   40.6130 C   0  0  0  0  0  0  0  0  0  0  0  0
   37.7950   25.6890   41.6180 O   0  0  0  0  0  0  0  0  0  0  0  0
   37.0650   24.8870   40.7730 C   0  0  0  0  0  0  0  0  0  0  0  0
   36.3550   24.0080   41.2540 O   0  0  0  0  0  0  0  0  0  0  0  0
   37.1560   25.1080   39.3200 C   0  0  0  0  0  0  0  0  0  0  0  0
   35.9690   25.2720   38.6610 C   0  0  0  0  0  0  0  0  0  0  0  0
   36.0240   25.5800   37.2820 C   0  0  0  0  0  0  0  0  0  0  0  0
   37.2690   25.6950   36.7010 N   0  0  0  0  0  0  0  0  0  0  0  0
   38.3930   25.5200   37.4200 C   0  0  0  0  0  0  0  0  0  0  0  0
   38.3540   25.2210   38.7610 N   0  0  0  0  0  0  0  0  0  0  0  0
   39.9720   25.6740   36.6060 S   0  0  0  0  0  0  0  0  0  0  0  0
   37.0975   30.2954   43.3795 H   0  0  0  0  0  0  0  0  0  0  0  0
   37.8178   28.6655   44.9635 H   0  0  0  0  0  0  0  0  0  0  0  0
   36.3525   28.2548   43.9670 H   0  0  0  0  0  0  0  0  0  0  0  0
   39.2029   27.2212   43.4647 H   0  0  0  0  0  0  0  0  0  0  0  0
   37.9053   26.2628   44.1475 H   0  0  0  0  0  0  0  0  0  0  0  0
   36.4495   27.0253   42.0362 H   0  0  0  0  0  0  0  0  0  0  0  0
   37.9922   27.8444   40.1605 H   0  0  0  0  0  0  0  0  0  0  0  0
   39.2703   28.0623   41.3533 H   0  0  0  0  0  0  0  0  0  0  0  0
   36.4214   29.1716   41.5092 H   0  0  0  0  0  0  0  0  0  0  0  0
   38.2210   30.0393   39.9408 H   0  0  0  0  0  0  0  0  0  0  0  0
   38.9955   31.2142   42.5943 H   0  0  0  0  0  0  0  0  0  0  0  0
   40.0092   30.8090   41.1677 H   0  0  0  0  0  0  0  0  0  0  0  0
   39.0157   32.3056   41.1677 H   0  0  0  0  0  0  0  0  0  0  0  0
   36.3812   31.8135   41.5626 H   0  0  0  0  0  0  0  0  0  0  0  0
   37.1916   32.2989   40.0347 H   0  0  0  0  0  0  0  0  0  0  0  0
   36.0123   30.9439   40.0347 H   0  0  0  0  0  0  0  0  0  0  0  0
   35.0070   25.1682   39.1843 H   0  0  0  0  0  0  0  0  0  0  0  0
   35.1057   25.7228   36.6935 H   0  0  0  0  0  0  0  0  0  0  0  0
   40.9632   25.7707   37.5467 H   0  0  0  0  0  0  0  0  0  0  0  0
  1  2  1  0
  3  2  1  0
  4  3  1  0
  5  6  1  0
  5  4  1  0
  6  1  1  0
  7  8  1  0
  7  6  1  0
  9  7  1  0
 10  4  1  0
 11 12  2  0
 11 10  1  0
 13 11  1  0
 14 13  2  0
 15 14  1  0
 16 15  2  0
 16 17  1  0
 17 18  2  0
 18 13  1  0
 19 17  1  0
  1 20  1  0
  2 21  1  0
  2 22  1  0
  3 23  1  0
  3 24  1  0
  4 25  1  1
  5 26  1  0
  5 27  1  0
  6 28  1  1
  7 29  1  0
  8 30  1  0
  8 31  1  0
  8 32  1  0
  9 33  1  0
  9 34  1  0
  9 35  1  0
 14 36  1  0
 15 37  1  0
 19 38  1  0
M  ISO  8  20   5  21  13  22  13  23  13  24  13  25  13  26  13  27  13
M  ISO  8  28  13  29   8  30   8  31   8  32   8  33   8  34   8  35   8
M  ISO  3  36  14  37  14  38  11
M  END
>  <minimizedAffinity>  (1) 
-3.9258337

>  <minimizedRMSD>  (1) 
3.10392404

$$$$
