
     RDKit          3D

 32 34  0  0  0  0  0  0  0  0999 V2000
   38.6930   31.1100   39.9950 C   0  0  0  0  0  0  0  0  0  0  0  0
   39.1530   30.2830   41.0390 C   0  0  0  0  0  0  0  0  0  0  0  0
   38.1830   29.8240   41.9750 C   0  0  0  0  0  0  0  0  0  0  0  0
   36.8800   30.2040   41.8120 N   0  0  0  0  0  0  0  0  0  0  0  0
   36.5040   31.0030   40.7830 C   0  0  0  0  0  0  0  0  0  0  0  0
   37.3950   31.4480   39.8920 N   0  0  0  0  0  0  0  0  0  0  0  0
   39.6090   31.6060   39.0240 N   0  0  0  0  0  0  0  0  0  0  0  0
   40.0520   31.0840   37.8670 C   0  0  0  0  0  0  0  0  0  0  0  0
   40.9280   31.9420   37.2870 N   0  0  0  0  0  0  0  0  0  0  0  0
   41.0360   33.0170   38.0900 C   0  0  0  0  0  0  0  0  0  0  0  0
   41.7990   34.1440   37.9260 C   0  0  0  0  0  0  0  0  0  0  0  0
   41.7300   35.0930   38.8890 N   0  0  0  0  0  0  0  0  0  0  0  0
   40.9250   34.9150   39.9740 C   0  0  0  0  0  0  0  0  0  0  0  0
   40.2040   33.7840   40.0700 N   0  0  0  0  0  0  0  0  0  0  0  0
   40.2180   32.7980   39.1590 C   0  0  0  0  0  0  0  0  0  0  0  0
   42.6620   34.4180   36.8370 N   0  0  0  0  0  0  0  0  0  0  0  0
   38.6130   28.9470   43.1090 C   0  0  0  0  0  0  0  0  0  0  0  0
   39.5800   27.8770   42.6580 C   0  0  0  0  0  0  0  0  0  0  0  0
   37.3320   28.3440   43.7060 C   0  0  0  0  0  0  0  0  0  0  0  0
   40.2135   30.0045   41.1270 H   0  0  0  0  0  0  0  0  0  0  0  0
   35.4471   31.2899   40.6799 H   0  0  0  0  0  0  0  0  0  0  0  0
   39.7503   30.1102   37.4539 H   0  0  0  0  0  0  0  0  0  0  0  0
   40.8660   35.6839   40.7584 H   0  0  0  0  0  0  0  0  0  0  0  0
   43.1934   35.2999   36.8103 H   0  0  0  0  0  0  0  0  0  0  0  0
   42.7582   33.7354   36.0717 H   0  0  0  0  0  0  0  0  0  0  0  0
   39.1582   29.5302   43.8657 H   0  0  0  0  0  0  0  0  0  0  0  0
   40.0222   27.3877   43.5384 H   0  0  0  0  0  0  0  0  0  0  0  0
   39.0445   27.1300   42.0537 H   0  0  0  0  0  0  0  0  0  0  0  0
   40.3772   28.3344   42.0537 H   0  0  0  0  0  0  0  0  0  0  0  0
   37.3909   28.3717   44.8041 H   0  0  0  0  0  0  0  0  0  0  0  0
   36.4615   28.9269   43.3707 H   0  0  0  0  0  0  0  0  0  0  0  0
   37.2265   27.3017   43.3707 H   0  0  0  0  0  0  0  0  0  0  0  0
  1  2  2  0
  2  3  1  0
  3 17  1  0
  4  3  2  0
  5  4  1  0
  6  1  1  0
  6  5  2  0
  7 15  1  0
  7  1  1  0
  8  7  1  0
  9  8  2  0
  9 10  1  0
 10 15  2  0
 11 10  1  0
 11 12  2  0
 12 13  1  0
 13 14  2  0
 15 14  1  0
 16 11  1  0
 17 19  1  0
 18 17  1  0
  2 20  1  0
  5 21  1  0
  8 22  1  0
 13 23  1  0
 16 24  1  0
 16 25  1  0
 17 26  1  0
 18 27  1  0
 18 28  1  0
 18 29  1  0
 19 30  1  0
 19 31  1  0
 19 32  1  0
M  ISO  8  20  14  21  14  22  14  23  14  26   8  27   8  28   8  29   8
M  ISO  3  30   8  31   8  32   8
M  END
>  <minimizedAffinity>  (1) 
-6.04013681

>  <minimizedRMSD>  (1) 
5.26435518

$$$$
