
     RDKit          3D

 33 35  0  0  0  0  0  0  0  0999 V2000
   37.6470   29.7030   40.2660 C   0  0  0  0  0  0  0  0  0  0  0  0
   38.0300   29.0050   41.4250 C   0  0  0  0  0  0  0  0  0  0  0  0
   37.0620   28.2360   42.1270 C   0  0  0  0  0  0  0  0  0  0  0  0
   35.8030   28.2380   41.6050 N   0  0  0  0  0  0  0  0  0  0  0  0
   35.4520   28.9070   40.5020 C   0  0  0  0  0  0  0  0  0  0  0  0
   36.3700   29.6380   39.8340 N   0  0  0  0  0  0  0  0  0  0  0  0
   38.5970   30.4800   39.5450 N   0  0  0  0  0  0  0  0  0  0  0  0
   39.2910   29.9760   38.4830 C   0  0  0  0  0  0  0  0  0  0  0  0
   40.1140   30.8920   37.9790 N   0  0  0  0  0  0  0  0  0  0  0  0
   39.9650   32.0010   38.7040 C   0  0  0  0  0  0  0  0  0  0  0  0
   40.5470   33.2570   38.6500 C   0  0  0  0  0  0  0  0  0  0  0  0
   41.4060   33.4830   37.7610 O   0  0  0  0  0  0  0  0  0  0  0  0
   40.1580   34.1690   39.5580 N   0  0  0  0  0  0  0  0  0  0  0  0
   39.2270   33.9040   40.5120 C   0  0  0  0  0  0  0  0  0  0  0  0
   38.9600   34.9960   41.3680 N   0  0  0  0  0  0  0  0  0  0  0  0
   38.6640   32.6650   40.5530 N   0  0  0  0  0  0  0  0  0  0  0  0
   39.0300   31.7450   39.6670 C   0  0  0  0  0  0  0  0  0  0  0  0
   37.4500   27.4910   43.3490 C   0  0  0  0  0  0  0  0  0  0  0  0
   36.8330   28.0710   44.5930 C   0  0  0  0  0  0  0  0  0  0  0  0
   38.9950   27.5270   43.4060 C   0  0  0  0  0  0  0  0  0  0  0  0
   39.0683   29.0535   41.7850 H   0  0  0  0  0  0  0  0  0  0  0  0
   34.4148   28.8619   40.1384 H   0  0  0  0  0  0  0  0  0  0  0  0
   39.1843   28.9517   38.0964 H   0  0  0  0  0  0  0  0  0  0  0  0
   40.5829   35.1068   39.5295 H   0  0  0  0  0  0  0  0  0  0  0  0
   38.2691   34.8994   42.1258 H   0  0  0  0  0  0  0  0  0  0  0  0
   39.4562   35.8886   41.2342 H   0  0  0  0  0  0  0  0  0  0  0  0
   37.0783   26.4567   43.3042 H   0  0  0  0  0  0  0  0  0  0  0  0
   37.3073   27.6251   45.4797 H   0  0  0  0  0  0  0  0  0  0  0  0
   36.9855   29.1603   44.6043 H   0  0  0  0  0  0  0  0  0  0  0  0
   35.7552   27.8515   44.6043 H   0  0  0  0  0  0  0  0  0  0  0  0
   39.3231   27.5346   44.4559 H   0  0  0  0  0  0  0  0  0  0  0  0
   39.4013   26.6381   42.9013 H   0  0  0  0  0  0  0  0  0  0  0  0
   39.3595   28.4339   42.9013 H   0  0  0  0  0  0  0  0  0  0  0  0
  1  2  2  0
  2  3  1  0
  3 18  1  0
  4  3  2  0
  5  4  1  0
  6  1  1  0
  6  5  2  0
  7 17  1  0
  7  1  1  0
  8  7  1  0
  9  8  2  0
  9 10  1  0
 10 17  2  0
 11 10  1  0
 11 13  1  0
 12 11  2  0
 13 14  1  0
 14 16  2  0
 14 15  1  0
 17 16  1  0
 18 20  1  0
 18 19  1  0
  2 21  1  0
  5 22  1  0
  8 23  1  0
 13 24  1  0
 15 25  1  0
 15 26  1  0
 18 27  1  0
 19 28  1  0
 19 29  1  0
 19 30  1  0
 20 31  1  0
 20 32  1  0
 20 33  1  0
M  ISO  8  21  14  22  14  23  14  24   9  27   8  28   8  29   8  30   8
M  ISO  3  31   8  32   8  33   8
M  END
>  <minimizedAffinity>  (1) 
-5.86095381

>  <minimizedRMSD>  (1) 
4.41498804

$$$$
