
     RDKit          3D

 30 32  0  0  0  0  0  0  0  0999 V2000
   38.5710   31.1770   41.2460 C   0  0  0  0  0  0  0  0  0  0  0  0
   38.7100   30.0210   42.0400 C   0  0  0  0  0  0  0  0  0  0  0  0
   37.5520   29.2330   42.2840 C   0  0  0  0  0  0  0  0  0  0  0  0
   36.3700   29.6550   41.7250 N   0  0  0  0  0  0  0  0  0  0  0  0
   36.2860   30.7700   40.9720 C   0  0  0  0  0  0  0  0  0  0  0  0
   37.3780   31.5280   40.7310 N   0  0  0  0  0  0  0  0  0  0  0  0
   39.7010   32.0000   40.9730 N   0  0  0  0  0  0  0  0  0  0  0  0
   41.0030   31.6560   40.9840 C   0  0  0  0  0  0  0  0  0  0  0  0
   41.7800   32.7100   40.6730 N   0  0  0  0  0  0  0  0  0  0  0  0
   40.9820   33.7840   40.4480 C   0  0  0  0  0  0  0  0  0  0  0  0
   41.1790   35.1050   40.1030 C   0  0  0  0  0  0  0  0  0  0  0  0
   40.1240   35.9460   39.9520 N   0  0  0  0  0  0  0  0  0  0  0  0
   38.8720   35.4610   40.1480 C   0  0  0  0  0  0  0  0  0  0  0  0
   38.6330   34.1640   40.4890 N   0  0  0  0  0  0  0  0  0  0  0  0
   39.6770   33.3230   40.6410 C   0  0  0  0  0  0  0  0  0  0  0  0
   37.6380   28.0050   43.1110 C   0  0  0  0  0  0  0  0  0  0  0  0
   36.9220   28.1390   44.4230 C   0  0  0  0  0  0  0  0  0  0  0  0
   39.1360   27.7310   43.3390 C   0  0  0  0  0  0  0  0  0  0  0  0
   39.6865   29.7365   42.4590 H   0  0  0  0  0  0  0  0  0  0  0  0
   35.3153   31.0666   40.5481 H   0  0  0  0  0  0  0  0  0  0  0  0
   41.3806   30.6492   41.2159 H   0  0  0  0  0  0  0  0  0  0  0  0
   42.2012   35.4808   39.9487 H   0  0  0  0  0  0  0  0  0  0  0  0
   38.0165   36.1418   40.0268 H   0  0  0  0  0  0  0  0  0  0  0  0
   37.1451   27.1724   42.5877 H   0  0  0  0  0  0  0  0  0  0  0  0
   37.6383   28.0049   45.2470 H   0  0  0  0  0  0  0  0  0  0  0  0
   36.4667   29.1380   44.4919 H   0  0  0  0  0  0  0  0  0  0  0  0
   36.1362   27.3723   44.4919 H   0  0  0  0  0  0  0  0  0  0  0  0
   39.3416   27.6934   44.4190 H   0  0  0  0  0  0  0  0  0  0  0  0
   39.4066   26.7685   42.8805 H   0  0  0  0  0  0  0  0  0  0  0  0
   39.7298   28.5354   42.8805 H   0  0  0  0  0  0  0  0  0  0  0  0
  1  2  2  0
  2  3  1  0
  3 16  1  0
  4  3  2  0
  5  4  1  0
  6  5  2  0
  6  1  1  0
  7  8  1  0
  7  1  1  0
  9  8  2  0
 10 15  2  0
 10  9  1  0
 11 10  1  0
 12 11  2  0
 12 13  1  0
 13 14  2  0
 14 15  1  0
 15  7  1  0
 16 18  1  0
 16 17  1  0
  2 19  1  0
  5 20  1  0
  8 21  1  0
 11 22  1  0
 13 23  1  0
 16 24  1  0
 17 25  1  0
 17 26  1  0
 17 27  1  0
 18 28  1  0
 18 29  1  0
 18 30  1  0
M  ISO  8  19  14  20  14  21  14  22  14  23  14  24   8  25   8  26   8
M  ISO  4  27   8  28   8  29   8  30   8
M  END
>  <minimizedAffinity>  (1) 
-5.65770912

>  <minimizedRMSD>  (1) 
2.50533485

$$$$
