
     RDKit          3D

 33 34  0  0  0  0  0  0  0  0999 V2000
   37.2280   30.7040   40.9930 C   0  0  0  0  0  0  0  0  0  0  0  0
   37.6490   29.8330   42.0060 C   0  0  0  0  0  0  0  0  0  0  0  0
   36.9070   28.6350   42.2160 C   0  0  0  0  0  0  0  0  0  0  0  0
   35.8330   28.4320   41.4040 N   0  0  0  0  0  0  0  0  0  0  0  0
   35.4580   29.2850   40.4470 C   0  0  0  0  0  0  0  0  0  0  0  0
   36.1580   30.4270   40.2380 N   0  0  0  0  0  0  0  0  0  0  0  0
   38.0130   31.8780   40.8370 N   0  0  0  0  0  0  0  0  0  0  0  0
   37.4210   33.0250   40.1760 C   0  0  0  0  0  0  0  0  0  0  0  0
   38.4410   34.1130   39.9290 C   0  0  0  0  0  0  0  0  0  0  0  0
   39.7180   33.6450   39.5030 N   0  0  0  0  0  0  0  0  0  0  0  0
   40.1920   32.4480   40.1170 C   0  0  0  0  0  0  0  0  0  0  0  0
   39.3810   32.0000   41.3040 C   0  0  0  0  0  0  0  0  0  0  0  0
   37.3220   27.6840   43.2810 C   0  0  0  0  0  0  0  0  0  0  0  0
   36.7480   28.0470   44.6260 C   0  0  0  0  0  0  0  0  0  0  0  0
   38.8680   27.6950   43.3020 C   0  0  0  0  0  0  0  0  0  0  0  0
   38.5290   30.0677   42.6229 H   0  0  0  0  0  0  0  0  0  0  0  0
   34.5781   29.0601   39.8263 H   0  0  0  0  0  0  0  0  0  0  0  0
   37.0012   32.7037   39.2114 H   0  0  0  0  0  0  0  0  0  0  0  0
   36.6359   33.4317   40.8304 H   0  0  0  0  0  0  0  0  0  0  0  0
   38.0452   34.7841   39.1525 H   0  0  0  0  0  0  0  0  0  0  0  0
   38.5999   34.6156   40.8945 H   0  0  0  0  0  0  0  0  0  0  0  0
   39.6678   33.4778   38.4879 H   0  0  0  0  0  0  0  0  0  0  0  0
   40.1759   31.6450   39.3653 H   0  0  0  0  0  0  0  0  0  0  0  0
   41.2045   32.6633   40.4891 H   0  0  0  0  0  0  0  0  0  0  0  0
   39.4433   32.7446   42.1113 H   0  0  0  0  0  0  0  0  0  0  0  0
   39.7534   31.0466   41.7070 H   0  0  0  0  0  0  0  0  0  0  0  0
   36.9363   26.6766   43.0654 H   0  0  0  0  0  0  0  0  0  0  0  0
   37.3908   27.6405   45.4208 H   0  0  0  0  0  0  0  0  0  0  0  0
   36.6972   29.1418   44.7196 H   0  0  0  0  0  0  0  0  0  0  0  0
   35.7370   27.6237   44.7196 H   0  0  0  0  0  0  0  0  0  0  0  0
   39.2205   27.6975   44.3440 H   0  0  0  0  0  0  0  0  0  0  0  0
   39.2481   26.7995   42.7885 H   0  0  0  0  0  0  0  0  0  0  0  0
   39.2353   28.5958   42.7885 H   0  0  0  0  0  0  0  0  0  0  0  0
  1  2  2  0
  2  3  1  0
  3 13  1  0
  4  3  2  0
  5  4  1  0
  6  5  2  0
  6  1  1  0
  7  1  1  0
  7 12  1  0
  8  7  1  0
  9  8  1  0
 10  9  1  0
 10 11  1  0
 11 12  1  0
 13 15  1  0
 13 14  1  0
  2 16  1  0
  5 17  1  0
  8 18  1  0
  8 19  1  0
  9 20  1  0
  9 21  1  0
 10 22  1  0
 11 23  1  0
 11 24  1  0
 12 25  1  0
 12 26  1  0
 13 27  1  0
 14 28  1  0
 14 29  1  0
 14 30  1  0
 15 31  1  0
 15 32  1  0
 15 33  1  0
M  ISO  8  16  14  17  14  18  13  19  13  20  13  21  13  22   5  23  13
M  ISO  8  24  13  25  13  26  13  27   8  28   8  29   8  30   8  31   8
M  ISO  2  32   8  33   8
M  END
>  <minimizedAffinity>  (1) 
-4.88711548

>  <minimizedRMSD>  (1) 
3.48121858

$$$$
