
     RDKit          3D

 26 27  0  0  0  0  0  0  0  0999 V2000
   37.2200   30.6880   41.0170 C   0  0  0  0  0  0  0  0  0  0  0  0
   37.6360   29.8150   42.0450 C   0  0  0  0  0  0  0  0  0  0  0  0
   36.8850   28.6230   42.2450 C   0  0  0  0  0  0  0  0  0  0  0  0
   35.8110   28.4030   41.4290 N   0  0  0  0  0  0  0  0  0  0  0  0
   35.4460   29.2530   40.4640 C   0  0  0  0  0  0  0  0  0  0  0  0
   36.1400   30.3910   40.2530 N   0  0  0  0  0  0  0  0  0  0  0  0
   37.9220   31.8980   40.7590 N   0  0  0  0  0  0  0  0  0  0  0  0
   39.1330   32.2930   41.1920 C   0  0  0  0  0  0  0  0  0  0  0  0
   39.3420   33.5600   40.6450 C   0  0  0  0  0  0  0  0  0  0  0  0
   38.2500   33.8730   39.9090 N   0  0  0  0  0  0  0  0  0  0  0  0
   37.3640   32.8410   39.9770 C   0  0  0  0  0  0  0  0  0  0  0  0
   37.2920   27.6710   43.3150 C   0  0  0  0  0  0  0  0  0  0  0  0
   36.7350   28.0360   44.6660 C   0  0  0  0  0  0  0  0  0  0  0  0
   38.8400   27.6680   43.3240 C   0  0  0  0  0  0  0  0  0  0  0  0
   38.5106   30.0480   42.6701 H   0  0  0  0  0  0  0  0  0  0  0  0
   34.5724   29.0229   39.8365 H   0  0  0  0  0  0  0  0  0  0  0  0
   39.8186   31.7319   41.8441 H   0  0  0  0  0  0  0  0  0  0  0  0
   40.2326   34.1899   40.7864 H   0  0  0  0  0  0  0  0  0  0  0  0
   36.3807   32.7881   39.4868 H   0  0  0  0  0  0  0  0  0  0  0  0
   36.8861   26.6703   43.1056 H   0  0  0  0  0  0  0  0  0  0  0  0
   37.3775   27.6150   45.4534 H   0  0  0  0  0  0  0  0  0  0  0  0
   36.7027   29.1310   44.7656 H   0  0  0  0  0  0  0  0  0  0  0  0
   35.7181   27.6286   44.7656 H   0  0  0  0  0  0  0  0  0  0  0  0
   39.2006   27.6673   44.3632 H   0  0  0  0  0  0  0  0  0  0  0  0
   39.2079   26.7691   42.8076 H   0  0  0  0  0  0  0  0  0  0  0  0
   39.2114   28.5654   42.8076 H   0  0  0  0  0  0  0  0  0  0  0  0
  1  2  2  0
  2  3  1  0
  3 12  1  0
  4  3  2  0
  5  4  1  0
  6  5  2  0
  6  1  1  0
  7  1  1  0
  7  8  1  0
  9  8  2  0
 10 11  2  0
 10  9  1  0
 11  7  1  0
 12 14  1  0
 12 13  1  0
  2 15  1  0
  5 16  1  0
  8 17  1  0
  9 18  1  0
 11 19  1  0
 12 20  1  0
 13 21  1  0
 13 22  1  0
 13 23  1  0
 14 24  1  0
 14 25  1  0
 14 26  1  0
M  ISO  8  15  14  16  14  17  14  18  14  19  14  20   8  21   8  22   8
M  ISO  4  23   8  24   8  25   8  26   8
M  END
>  <minimizedAffinity>  (1) 
-4.69404268

>  <minimizedRMSD>  (1) 
3.15681791

$$$$
