
     RDKit          3D

 27 28  0  0  0  0  0  0  0  0999 V2000
   37.7070   31.2660   40.9200 C   0  0  0  0  0  0  0  0  0  0  0  0
   38.0690   30.3920   41.9510 C   0  0  0  0  0  0  0  0  0  0  0  0
   37.2790   29.2360   42.2120 C   0  0  0  0  0  0  0  0  0  0  0  0
   36.1930   29.0600   41.4130 N   0  0  0  0  0  0  0  0  0  0  0  0
   35.8600   29.9150   40.4220 C   0  0  0  0  0  0  0  0  0  0  0  0
   36.6180   31.0120   40.1810 N   0  0  0  0  0  0  0  0  0  0  0  0
   38.5340   32.4420   40.6750 C   0  0  0  0  0  0  0  0  0  0  0  0
   39.9030   32.3340   40.8080 C   0  0  0  0  0  0  0  0  0  0  0  0
   40.6650   33.4690   40.5680 C   0  0  0  0  0  0  0  0  0  0  0  0
   40.0650   34.6280   40.2200 N   0  0  0  0  0  0  0  0  0  0  0  0
   38.7270   34.6810   40.1040 C   0  0  0  0  0  0  0  0  0  0  0  0
   37.9470   33.6010   40.3270 N   0  0  0  0  0  0  0  0  0  0  0  0
   37.6590   28.3110   43.3030 C   0  0  0  0  0  0  0  0  0  0  0  0
   38.9370   27.5690   43.0040 C   0  0  0  0  0  0  0  0  0  0  0  0
   36.4760   27.3460   43.5110 C   0  0  0  0  0  0  0  0  0  0  0  0
   38.9624   30.5974   42.5590 H   0  0  0  0  0  0  0  0  0  0  0  0
   34.9689   29.7198   39.8073 H   0  0  0  0  0  0  0  0  0  0  0  0
   40.3740   31.3820   41.0941 H   0  0  0  0  0  0  0  0  0  0  0  0
   41.7601   33.4245   40.6614 H   0  0  0  0  0  0  0  0  0  0  0  0
   38.2532   35.6319   39.8191 H   0  0  0  0  0  0  0  0  0  0  0  0
   37.8624   28.8782   44.2233 H   0  0  0  0  0  0  0  0  0  0  0  0
   39.4257   27.2853   43.9478 H   0  0  0  0  0  0  0  0  0  0  0  0
   38.7079   26.6635   42.4230 H   0  0  0  0  0  0  0  0  0  0  0  0
   39.6098   28.2169   42.4230 H   0  0  0  0  0  0  0  0  0  0  0  0
   36.3030   27.2049   44.5881 H   0  0  0  0  0  0  0  0  0  0  0  0
   35.5725   27.7681   43.0467 H   0  0  0  0  0  0  0  0  0  0  0  0
   36.7079   26.3761   43.0467 H   0  0  0  0  0  0  0  0  0  0  0  0
  1  2  2  0
  2  3  1  0
  3 13  1  0
  4  3  2  0
  5  4  1  0
  6  5  2  0
  6  1  1  0
  7  8  2  0
  7  1  1  0
  9  8  1  0
 10  9  2  0
 11 10  1  0
 11 12  2  0
 12  7  1  0
 13 15  1  0
 14 13  1  0
  2 16  1  0
  5 17  1  0
  8 18  1  0
  9 19  1  0
 11 20  1  0
 13 21  1  0
 14 22  1  0
 14 23  1  0
 14 24  1  0
 15 25  1  0
 15 26  1  0
 15 27  1  0
M  ISO  8  16  14  17  14  18  14  19  14  20  14  21   8  22   8  23   8
M  ISO  4  24   8  25   8  26   8  27   8
M  END
>  <minimizedAffinity>  (1) 
-4.67070246

>  <minimizedRMSD>  (1) 
3.38032889

$$$$
