
     RDKit          3D

 25 27  0  0  0  0  0  0  0  0999 V2000
   37.3380   28.4700   43.2340 C   0  0  0  0  0  0  0  0  0  0  0  0
   37.2460   27.1710   42.6570 C   0  0  0  0  0  0  0  0  0  0  0  0
   37.1630   27.0770   41.2580 C   0  0  0  0  0  0  0  0  0  0  0  0
   37.1770   28.2260   40.5400 N   0  0  0  0  0  0  0  0  0  0  0  0
   37.2640   29.4350   41.0970 C   0  0  0  0  0  0  0  0  0  0  0  0
   37.3440   29.5490   42.4440 N   0  0  0  0  0  0  0  0  0  0  0  0
   37.2860   30.6540   40.3780 N   0  0  0  0  0  0  0  0  0  0  0  0
   37.7860   31.7070   41.0380 N   0  0  0  0  0  0  0  0  0  0  0  0
   37.7280   32.7780   40.1850 C   0  0  0  0  0  0  0  0  0  0  0  0
   37.1810   32.3160   39.0140 C   0  0  0  0  0  0  0  0  0  0  0  0
   36.8940   30.9640   39.1240 C   0  0  0  0  0  0  0  0  0  0  0  0
   36.3100   30.0580   38.1540 C   0  0  0  0  0  0  0  0  0  0  0  0
   37.1190   29.7490   37.0800 C   0  0  0  0  0  0  0  0  0  0  0  0
   36.7470   28.9090   36.0550 C   0  0  0  0  0  0  0  0  0  0  0  0
   35.5120   28.3720   36.1330 N   0  0  0  0  0  0  0  0  0  0  0  0
   34.6890   28.6440   37.1610 C   0  0  0  0  0  0  0  0  0  0  0  0
   35.1310   29.4710   38.1140 N   0  0  0  0  0  0  0  0  0  0  0  0
   37.4039   28.5853   44.3260 H   0  0  0  0  0  0  0  0  0  0  0  0
   37.2401   26.2695   43.2873 H   0  0  0  0  0  0  0  0  0  0  0  0
   37.0888   26.0991   40.7598 H   0  0  0  0  0  0  0  0  0  0  0  0
   38.0556   33.8064   40.3972 H   0  0  0  0  0  0  0  0  0  0  0  0
   36.9972   32.9287   38.1191 H   0  0  0  0  0  0  0  0  0  0  0  0
   38.1211   30.2009   37.0405 H   0  0  0  0  0  0  0  0  0  0  0  0
   37.4221   28.6870   35.2154 H   0  0  0  0  0  0  0  0  0  0  0  0
   33.6840   28.2002   37.2161 H   0  0  0  0  0  0  0  0  0  0  0  0
  2  1  2  0
  3  2  1  0
  4  5  1  0
  4  3  2  0
  5  6  2  0
  6  1  1  0
  7  8  1  0
  7  5  1  0
  9  8  2  0
 10 11  2  0
 10  9  1  0
 11  7  1  0
 12 11  1  0
 13 12  2  0
 14 15  2  0
 14 13  1  0
 15 16  1  0
 16 17  2  0
 17 12  1  0
  1 18  1  0
  2 19  1  0
  3 20  1  0
  9 21  1  0
 10 22  1  0
 13 23  1  0
 14 24  1  0
 16 25  1  0
M  ISO  8  18  14  19  14  20  14  21  14  22  14  23  14  24  14  25  14
M  END
>  <minimizedAffinity>  (1) 
-4.50915051

>  <minimizedRMSD>  (1) 
2.26863718

$$$$
