
     RDKit          3D

 21 21  0  0  0  0  0  0  0  0999 V2000
   39.1140   30.7190   41.9380 C   0  0  0  0  0  0  0  0  0  0  0  0
   38.9270   29.5890   42.7570 C   0  0  0  0  0  0  0  0  0  0  0  0
   37.6510   28.9590   42.6960 C   0  0  0  0  0  0  0  0  0  0  0  0
   36.6930   29.4820   41.8540 N   0  0  0  0  0  0  0  0  0  0  0  0
   36.9470   30.5700   41.0970 C   0  0  0  0  0  0  0  0  0  0  0  0
   38.1420   31.1900   41.1320 N   0  0  0  0  0  0  0  0  0  0  0  0
   40.4300   31.3370   42.0280 C   0  0  0  0  0  0  0  0  0  0  0  0
   41.2320   31.1710   42.9800 O   0  0  0  0  0  0  0  0  0  0  0  0
   37.3710   27.7520   43.5280 C   0  0  0  0  0  0  0  0  0  0  0  0
   36.7280   28.1090   44.8370 C   0  0  0  0  0  0  0  0  0  0  0  0
   38.7250   27.0540   43.7590 C   0  0  0  0  0  0  0  0  0  0  0  0
   39.7266   29.2115   43.4114 H   0  0  0  0  0  0  0  0  0  0  0  0
   36.1592   30.9597   40.4356 H   0  0  0  0  0  0  0  0  0  0  0  0
   40.7433   31.9953   41.2043 H   0  0  0  0  0  0  0  0  0  0  0  0
   36.6601   27.0909   43.0108 H   0  0  0  0  0  0  0  0  0  0  0  0
   37.3615   27.7573   45.6647 H   0  0  0  0  0  0  0  0  0  0  0  0
   36.6117   29.2009   44.9027 H   0  0  0  0  0  0  0  0  0  0  0  0
   35.7398   27.6304   44.9027 H   0  0  0  0  0  0  0  0  0  0  0  0
   38.9090   26.9591   44.8393 H   0  0  0  0  0  0  0  0  0  0  0  0
   38.7048   26.0540   43.3013 H   0  0  0  0  0  0  0  0  0  0  0  0
   39.5279   27.6506   43.3013 H   0  0  0  0  0  0  0  0  0  0  0  0
  1  7  1  0
  1  2  2  0
  3  2  1  0
  3  9  1  0
  4  3  2  0
  5  6  2  0
  5  4  1  0
  6  1  1  0
  7  8  2  0
  9 11  1  0
  9 10  1  0
  2 12  1  0
  5 13  1  0
  7 14  1  0
  9 15  1  0
 10 16  1  0
 10 17  1  0
 10 18  1  0
 11 19  1  0
 11 20  1  0
 11 21  1  0
M  ISO  8  12  14  13  14  14   6  15   8  16   8  17   8  18   8  19   8
M  ISO  2  20   8  21   8
M  END
>  <minimizedAffinity>  (1) 
-3.71808672

>  <minimizedRMSD>  (1) 
0.84009099

$$$$
