
     RDKit          3D

 35 37  0  0  0  0  0  0  0  0999 V2000
   39.2350   30.6720   41.9510 C   0  0  0  0  0  0  0  0  0  0  0  0
   38.9040   29.5620   42.7160 C   0  0  0  0  0  0  0  0  0  0  0  0
   37.6490   28.9590   42.7180 C   0  0  0  0  0  0  0  0  0  0  0  0
   36.7540   29.5570   41.8930 N   0  0  0  0  0  0  0  0  0  0  0  0
   37.0260   30.6240   41.1430 C   0  0  0  0  0  0  0  0  0  0  0  0
   38.2430   31.1790   41.1660 N   0  0  0  0  0  0  0  0  0  0  0  0
   40.4620   31.4170   41.9210 C   0  0  0  0  0  0  0  0  0  0  0  0
   41.4700   31.0230   42.8170 C   0  0  0  0  0  0  0  0  0  0  0  0
   42.7040   31.6190   42.9420 C   0  0  0  0  0  0  0  0  0  0  0  0
   42.9940   32.6920   42.1340 C   0  0  0  0  0  0  0  0  0  0  0  0
   42.0560   33.1400   41.2320 C   0  0  0  0  0  0  0  0  0  0  0  0
   42.3290   34.2370   40.4470 C   0  0  0  0  0  0  0  0  0  0  0  0
   41.4030   34.7530   39.5500 C   0  0  0  0  0  0  0  0  0  0  0  0
   40.1800   34.0870   39.5010 C   0  0  0  0  0  0  0  0  0  0  0  0
   39.9490   32.9980   40.2990 C   0  0  0  0  0  0  0  0  0  0  0  0
   40.8640   32.4890   41.1790 C   0  0  0  0  0  0  0  0  0  0  0  0
   37.3580   27.7780   43.5470 C   0  0  0  0  0  0  0  0  0  0  0  0
   36.7130   28.1150   44.8600 C   0  0  0  0  0  0  0  0  0  0  0  0
   38.7040   27.0550   43.7790 C   0  0  0  0  0  0  0  0  0  0  0  0
   39.6831   29.1312   43.3620 H   0  0  0  0  0  0  0  0  0  0  0  0
   36.2434   31.0522   40.4995 H   0  0  0  0  0  0  0  0  0  0  0  0
   41.2548   30.1668   43.4732 H   0  0  0  0  0  0  0  0  0  0  0  0
   43.4394   31.2461   43.6701 H   0  0  0  0  0  0  0  0  0  0  0  0
   43.9717   33.1907   42.2078 H   0  0  0  0  0  0  0  0  0  0  0  0
   43.3131   34.7210   40.5330 H   0  0  0  0  0  0  0  0  0  0  0  0
   41.6203   35.6285   38.9205 H   0  0  0  0  0  0  0  0  0  0  0  0
   39.3941   34.4385   38.8163 H   0  0  0  0  0  0  0  0  0  0  0  0
   38.9691   32.5033   40.2279 H   0  0  0  0  0  0  0  0  0  0  0  0
   36.6306   27.1417   43.0216 H   0  0  0  0  0  0  0  0  0  0  0  0
   37.3594   27.7773   45.6835 H   0  0  0  0  0  0  0  0  0  0  0  0
   36.5694   29.2034   44.9293 H   0  0  0  0  0  0  0  0  0  0  0  0
   35.7376   27.6113   44.9293 H   0  0  0  0  0  0  0  0  0  0  0  0
   38.8862   26.9571   44.8594 H   0  0  0  0  0  0  0  0  0  0  0  0
   38.6669   26.0554   43.3214 H   0  0  0  0  0  0  0  0  0  0  0  0
   39.5169   27.6378   43.3214 H   0  0  0  0  0  0  0  0  0  0  0  0
  1  2  2  0
  2  3  1  0
  3 17  1  0
  4  3  2  0
  5  6  2  0
  5  4  1  0
  6  1  1  0
  7  1  1  0
  7  8  2  0
  8  9  1  0
 10  9  2  0
 11 10  1  0
 12 11  2  0
 13 12  1  0
 14 13  2  0
 14 15  1  0
 15 16  2  0
 16 11  1  0
 16  7  1  0
 17 19  1  0
 17 18  1  0
  2 20  1  0
  5 21  1  0
  8 22  1  0
  9 23  1  0
 10 24  1  0
 12 25  1  0
 13 26  1  0
 14 27  1  0
 15 28  1  0
 17 29  1  0
 18 30  1  0
 18 31  1  0
 18 32  1  0
 19 33  1  0
 19 34  1  0
 19 35  1  0
M  ISO  8  20  14  21  14  22  14  23  14  24  14  25  14  26  14  27  14
M  ISO  8  28  14  29   8  30   8  31   8  32   8  33   8  34   8  35   8
M  END
>  <minimizedAffinity>  (1) 
-5.67577553

>  <minimizedRMSD>  (1) 
1.4212513

$$$$
