
     RDKit          3D

 49 53  0  0  1  0  0  0  0  0999 V2000
   38.8940   30.7480   41.7710 C   0  0  0  0  0  0  0  0  0  0  0  0
   38.3810   29.6300   42.4010 C   0  0  0  0  0  0  0  0  0  0  0  0
   37.1160   29.1140   42.3130 C   0  0  0  0  0  0  0  0  0  0  0  0
   36.3310   29.8590   41.4810 N   0  0  0  0  0  0  0  0  0  0  0  0
   36.7520   30.9450   40.8430 C   0  0  0  0  0  0  0  0  0  0  0  0
   38.0000   31.3640   40.9930 N   0  0  0  0  0  0  0  0  0  0  0  0
   40.2010   31.3090   41.8640 C   0  0  0  0  0  0  0  0  0  0  0  0
   41.0690   30.8010   42.8260 C   0  0  0  0  0  0  0  0  0  0  0  0
   42.3470   31.2700   43.0580 C   0  0  0  0  0  0  0  0  0  0  0  0
   42.8130   32.3220   42.2880 C   0  0  0  0  0  0  0  0  0  0  0  0
   41.9930   32.8700   41.3110 C   0  0  0  0  0  0  0  0  0  0  0  0
   42.4510   33.9020   40.5430 C   0  0  0  0  0  0  0  0  0  0  0  0
   41.6860   34.4790   39.5530 C   0  0  0  0  0  0  0  0  0  0  0  0
   40.4160   33.9290   39.3960 C   0  0  0  0  0  0  0  0  0  0  0  0
   40.0050   32.8980   40.1890 C   0  0  0  0  0  0  0  0  0  0  0  0
   40.7640   32.3370   41.1640 C   0  0  0  0  0  0  0  0  0  0  0  0
   36.7440   27.9060   43.0620 C   0  0  2  0  0  0  0  0  0  0  0  0
   36.8660   28.1170   44.5580 C   0  0  0  0  0  0  0  0  0  0  0  0
   37.4110   26.7290   42.5230 C   0  0  0  0  0  0  0  0  0  0  0  0
   38.6970   26.3890   42.2370 N   0  0  0  0  0  0  0  0  0  0  0  0
   38.7680   25.8850   40.9680 C   0  0  0  0  0  0  0  0  0  0  0  0
   40.0220   25.4620   40.5950 N   0  0  0  0  0  0  0  0  0  0  0  0
   40.8320   25.6890   41.6540 C   0  0  0  0  0  0  0  0  0  0  0  0
   42.1500   25.5620   42.0680 C   0  0  0  0  0  0  0  0  0  0  0  0
   42.9150   25.0560   41.1990 O   0  0  0  0  0  0  0  0  0  0  0  0
   42.5240   25.9620   43.2980 N   0  0  0  0  0  0  0  0  0  0  0  0
   41.6740   26.5010   44.2020 C   0  0  0  0  0  0  0  0  0  0  0  0
   42.1670   26.8920   45.4750 N   0  0  0  0  0  0  0  0  0  0  0  0
   40.3800   26.6370   43.8290 N   0  0  0  0  0  0  0  0  0  0  0  0
   39.9970   26.2300   42.5760 C   0  0  0  0  0  0  0  0  0  0  0  0
   39.0773   29.0859   43.0561 H   0  0  0  0  0  0  0  0  0  0  0  0
   36.0627   31.4982   40.1882 H   0  0  0  0  0  0  0  0  0  0  0  0
   40.7113   29.9658   43.4462 H   0  0  0  0  0  0  0  0  0  0  0  0
   42.9798   30.8184   43.8362 H   0  0  0  0  0  0  0  0  0  0  0  0
   43.8255   32.7207   42.4492 H   0  0  0  0  0  0  0  0  0  0  0  0
   43.4663   34.2861   40.7210 H   0  0  0  0  0  0  0  0  0  0  0  0
   42.0508   35.3114   38.9332 H   0  0  0  0  0  0  0  0  0  0  0  0
   39.7393   34.3291   38.6266 H   0  0  0  0  0  0  0  0  0  0  0  0
   38.9939   32.4957   40.0279 H   0  0  0  0  0  0  0  0  0  0  0  0
   35.6734   27.6989   42.9172 H   0  0  0  0  0  0  0  0  0  0  0  0
   36.3832   27.2819   45.0867 H   0  0  0  0  0  0  0  0  0  0  0  0
   37.9292   28.1615   44.8365 H   0  0  0  0  0  0  0  0  0  0  0  0
   36.3742   29.0607   44.8365 H   0  0  0  0  0  0  0  0  0  0  0  0
   37.1020   25.9366   43.2206 H   0  0  0  0  0  0  0  0  0  0  0  0
   37.1397   26.9421   41.4785 H   0  0  0  0  0  0  0  0  0  0  0  0
   37.8952   25.8231   40.3014 H   0  0  0  0  0  0  0  0  0  0  0  0
   43.5125   25.8515   43.5656 H   0  0  0  0  0  0  0  0  0  0  0  0
   41.5283   27.3034   46.1705 H   0  0  0  0  0  0  0  0  0  0  0  0
   43.1633   26.7642   45.7029 H   0  0  0  0  0  0  0  0  0  0  0  0
  1  7  1  0
  1  2  2  0
  3  2  1  0
  3 17  1  0
  4  3  2  0
  5  6  2  0
  5  4  1  0
  6  1  1  0
  7  8  2  0
  8  9  1  0
 10  9  2  0
 11 10  1  0
 12 11  2  0
 13 12  1  0
 14 13  2  0
 14 15  1  0
 15 16  2  0
 16 11  1  0
 16  7  1  0
 17 18  1  0
 19 17  1  0
 20 19  1  0
 20 30  1  0
 21 20  1  0
 22 21  2  0
 22 23  1  0
 23 24  1  0
 23 30  2  0
 24 26  1  0
 25 24  2  0
 26 27  1  0
 27 28  1  0
 29 27  2  0
 30 29  1  0
  2 31  1  0
  5 32  1  0
  8 33  1  0
  9 34  1  0
 10 35  1  0
 12 36  1  0
 13 37  1  0
 14 38  1  0
 15 39  1  0
 17 40  1  1
 18 41  1  0
 18 42  1  0
 18 43  1  0
 19 44  1  0
 19 45  1  0
 21 46  1  0
 26 47  1  0
 28 48  1  0
 28 49  1  0
M  ISO  8  31  14  32  14  33  14  34  14  35  14  36  14  37  14  38  14
M  ISO  8  39  14  40   8  41   8  42   8  43   8  44   8  45   8  46  14
M  ISO  1  47   9
M  END
>  <minimizedAffinity>  (1) 
-6.99563503

>  <minimizedRMSD>  (1) 
2.22701716

$$$$
