
     RDKit          3D

 48 51  0  0  1  0  0  0  0  0999 V2000
   39.1320   30.7320   41.8690 C   0  0  0  0  0  0  0  0  0  0  0  0
   38.7500   29.5910   42.5590 C   0  0  0  0  0  0  0  0  0  0  0  0
   37.4890   29.0100   42.5410 C   0  0  0  0  0  0  0  0  0  0  0  0
   36.6180   29.6740   41.7580 N   0  0  0  0  0  0  0  0  0  0  0  0
   36.9250   30.7690   41.0770 C   0  0  0  0  0  0  0  0  0  0  0  0
   38.1540   31.2670   41.1450 N   0  0  0  0  0  0  0  0  0  0  0  0
   40.3970   31.3910   41.8740 C   0  0  0  0  0  0  0  0  0  0  0  0
   41.3540   30.9760   42.8050 C   0  0  0  0  0  0  0  0  0  0  0  0
   42.5980   31.5470   42.9610 C   0  0  0  0  0  0  0  0  0  0  0  0
   42.9410   32.6040   42.1490 C   0  0  0  0  0  0  0  0  0  0  0  0
   42.0350   33.0630   41.2020 C   0  0  0  0  0  0  0  0  0  0  0  0
   42.3670   34.1120   40.3820 C   0  0  0  0  0  0  0  0  0  0  0  0
   41.5070   34.6010   39.4220 C   0  0  0  0  0  0  0  0  0  0  0  0
   40.2840   33.9550   39.3420 C   0  0  0  0  0  0  0  0  0  0  0  0
   40.0020   32.9180   40.1800 C   0  0  0  0  0  0  0  0  0  0  0  0
   40.8450   32.4350   41.1290 C   0  0  0  0  0  0  0  0  0  0  0  0
   37.2060   27.8250   43.3720 C   0  0  2  0  0  0  0  0  0  0  0  0
   36.7480   28.1790   44.7720 C   0  0  0  0  0  0  0  0  0  0  0  0
   38.4040   26.9170   43.3910 C   0  0  0  0  0  0  0  0  0  0  0  0
   37.7480   23.5840   40.7330 C   0  0  0  0  0  0  0  0  0  0  0  0
   39.0250   23.9980   40.9340 C   0  0  0  0  0  0  0  0  0  0  0  0
   39.2850   25.0360   41.7690 C   0  0  0  0  0  0  0  0  0  0  0  0
   38.3790   25.7780   42.4880 C   0  0  0  0  0  0  0  0  0  0  0  0
   37.0800   25.2920   42.2320 C   0  0  0  0  0  0  0  0  0  0  0  0
   36.7430   24.2460   41.3990 C   0  0  0  0  0  0  0  0  0  0  0  0
   37.4290   22.2520   39.6590 S   0  0  0  0  0  0  0  0  0  0  0  0
   35.9740   22.1430   39.3110 O   0  0  0  0  0  0  0  0  0  0  0  0
   37.8760   20.9350   40.2690 O   0  0  0  0  0  0  0  0  0  0  0  0
   39.5166   29.1013   43.1774 H   0  0  0  0  0  0  0  0  0  0  0  0
   36.1632   31.2641   40.4568 H   0  0  0  0  0  0  0  0  0  0  0  0
   41.0947   30.1318   43.4609 H   0  0  0  0  0  0  0  0  0  0  0  0
   43.3009   31.1669   43.7170 H   0  0  0  0  0  0  0  0  0  0  0  0
   43.9265   33.0821   42.2495 H   0  0  0  0  0  0  0  0  0  0  0  0
   43.3560   34.5800   40.4949 H   0  0  0  0  0  0  0  0  0  0  0  0
   41.7727   35.4435   38.7666 H   0  0  0  0  0  0  0  0  0  0  0  0
   39.5391   34.2798   38.6006 H   0  0  0  0  0  0  0  0  0  0  0  0
   39.0182   32.4362   40.0804 H   0  0  0  0  0  0  0  0  0  0  0  0
   36.3608   27.2916   42.9124 H   0  0  0  0  0  0  0  0  0  0  0  0
   37.3954   27.6786   45.5071 H   0  0  0  0  0  0  0  0  0  0  0  0
   36.8073   29.2684   44.9127 H   0  0  0  0  0  0  0  0  0  0  0  0
   35.7087   27.8471   44.9127 H   0  0  0  0  0  0  0  0  0  0  0  0
   39.2854   27.5239   43.1364 H   0  0  0  0  0  0  0  0  0  0  0  0
   38.4190   26.4823   44.4014 H   0  0  0  0  0  0  0  0  0  0  0  0
   39.8529   23.4899   40.4178 H   0  0  0  0  0  0  0  0  0  0  0  0
   40.3428   25.3155   41.8833 H   0  0  0  0  0  0  0  0  0  0  0  0
   36.2518   25.7986   42.7492 H   0  0  0  0  0  0  0  0  0  0  0  0
   35.6923   23.9472   41.2698 H   0  0  0  0  0  0  0  0  0  0  0  0
   38.1433   22.5053   38.5177 H   0  0  0  0  0  0  0  0  0  0  0  0
  1  7  1  0
  1  2  2  0
  3  2  1  0
  3 17  1  0
  4  3  2  0
  5  6  2  0
  5  4  1  0
  6  1  1  0
  7  8  2  0
  8  9  1  0
 10  9  2  0
 11 10  1  0
 12 11  2  0
 13 12  1  0
 14 13  2  0
 14 15  1  0
 15 16  2  0
 16 11  1  0
 16  7  1  0
 17 19  1  0
 17 18  1  0
 20 21  2  0
 20 25  1  0
 21 22  1  0
 22 23  2  0
 23 19  1  0
 24 23  1  0
 25 24  2  0
 26 28  2  0
 26 20  1  0
 27 26  2  0
  2 29  1  0
  5 30  1  0
  8 31  1  0
  9 32  1  0
 10 33  1  0
 12 34  1  0
 13 35  1  0
 14 36  1  0
 15 37  1  0
 17 38  1  6
 18 39  1  0
 18 40  1  0
 18 41  1  0
 19 42  1  0
 19 43  1  0
 21 44  1  0
 22 45  1  0
 24 46  1  0
 25 47  1  0
 26 48  1  0
M  ISO  8  29  14  30  14  31  14  32  14  33  14  34  14  35  14  36  14
M  ISO  8  37  14  38   8  39   8  40   8  41   8  42   8  43   8  44  14
M  ISO  4  45  14  46  14  47  14  48  11
M  END
>  <minimizedAffinity>  (1) 
-6.83659792

>  <minimizedRMSD>  (1) 
1.74232781

$$$$
