
     RDKit          3D

 49 52  0  0  1  0  0  0  0  0999 V2000
   38.7290   31.3740   40.7300 C   0  0  0  0  0  0  0  0  0  0  0  0
   38.6740   30.2940   41.6020 C   0  0  0  0  0  0  0  0  0  0  0  0
   37.5320   29.6390   42.0140 C   0  0  0  0  0  0  0  0  0  0  0  0
   36.4010   30.1710   41.4570 N   0  0  0  0  0  0  0  0  0  0  0  0
   36.3870   31.1940   40.6210 C   0  0  0  0  0  0  0  0  0  0  0  0
   37.5310   31.7680   40.2790 N   0  0  0  0  0  0  0  0  0  0  0  0
   39.8690   32.1300   40.3260 C   0  0  0  0  0  0  0  0  0  0  0  0
   41.0700   31.4500   40.1060 C   0  0  0  0  0  0  0  0  0  0  0  0
   42.2660   32.0540   39.7760 C   0  0  0  0  0  0  0  0  0  0  0  0
   42.3040   33.4180   39.6490 C   0  0  0  0  0  0  0  0  0  0  0  0
   41.1460   34.1520   39.8530 C   0  0  0  0  0  0  0  0  0  0  0  0
   41.1590   35.5200   39.7350 C   0  0  0  0  0  0  0  0  0  0  0  0
   40.0260   36.2920   39.9300 C   0  0  0  0  0  0  0  0  0  0  0  0
   38.8760   35.5970   40.2510 C   0  0  0  0  0  0  0  0  0  0  0  0
   38.9180   34.2390   40.3580 C   0  0  0  0  0  0  0  0  0  0  0  0
   40.0240   33.4700   40.1710 C   0  0  0  0  0  0  0  0  0  0  0  0
   37.5970   28.5450   42.9790 C   0  0  2  0  0  0  0  0  0  0  0  0
   39.0700   28.1700   43.2580 C   0  0  0  0  0  0  0  0  0  0  0  0
   36.8500   27.3680   42.5060 C   0  0  0  0  0  0  0  0  0  0  0  0
   37.4000   26.2290   41.9810 N   0  0  0  0  0  0  0  0  0  0  0  0
   36.9780   24.9430   42.3920 C   0  0  0  0  0  0  0  0  0  0  0  0
   37.7390   23.9310   41.5520 C   0  0  0  0  0  0  0  0  0  0  0  0
   37.0710   23.8880   40.2690 N   0  0  0  0  0  0  0  0  0  0  0  0
   36.5610   25.2070   39.9470 C   0  0  0  0  0  0  0  0  0  0  0  0
   37.4120   26.3080   40.5380 C   0  0  0  0  0  0  0  0  0  0  0  0
   39.6308   29.9267   42.0014 H   0  0  0  0  0  0  0  0  0  0  0  0
   35.4353   31.5653   40.2131 H   0  0  0  0  0  0  0  0  0  0  0  0
   41.0613   30.3543   40.2029 H   0  0  0  0  0  0  0  0  0  0  0  0
   43.1726   31.4515   39.6177 H   0  0  0  0  0  0  0  0  0  0  0  0
   43.2443   33.9254   39.3877 H   0  0  0  0  0  0  0  0  0  0  0  0
   42.1036   36.0208   39.4762 H   0  0  0  0  0  0  0  0  0  0  0  0
   40.0407   37.3878   39.8354 H   0  0  0  0  0  0  0  0  0  0  0  0
   37.9322   36.1364   40.4192 H   0  0  0  0  0  0  0  0  0  0  0  0
   37.9815   33.7231   40.6166 H   0  0  0  0  0  0  0  0  0  0  0  0
   37.1290   28.8868   43.9140 H   0  0  0  0  0  0  0  0  0  0  0  0
   39.2380   28.1272   44.3442 H   0  0  0  0  0  0  0  0  0  0  0  0
   39.2886   27.1875   42.8142 H   0  0  0  0  0  0  0  0  0  0  0  0
   39.7318   28.9283   42.8142 H   0  0  0  0  0  0  0  0  0  0  0  0
   36.2603   27.0323   43.3717 H   0  0  0  0  0  0  0  0  0  0  0  0
   36.3851   27.7886   41.6022 H   0  0  0  0  0  0  0  0  0  0  0  0
   37.2049   24.7947   43.4581 H   0  0  0  0  0  0  0  0  0  0  0  0
   35.8927   24.8261   42.2562 H   0  0  0  0  0  0  0  0  0  0  0  0
   38.7848   24.2484   41.4271 H   0  0  0  0  0  0  0  0  0  0  0  0
   37.7516   22.9408   42.0309 H   0  0  0  0  0  0  0  0  0  0  0  0
   37.7392   23.5914   39.5434 H   0  0  0  0  0  0  0  0  0  0  0  0
   36.5421   25.3222   38.8532 H   0  0  0  0  0  0  0  0  0  0  0  0
   35.5518   25.2929   40.3760 H   0  0  0  0  0  0  0  0  0  0  0  0
   38.4456   26.2016   40.1770 H   0  0  0  0  0  0  0  0  0  0  0  0
   37.0041   27.2817   40.2288 H   0  0  0  0  0  0  0  0  0  0  0  0
  1  2  2  0
  2  3  1  0
  3 17  1  0
  4  3  2  0
  5  4  1  0
  6  5  2  0
  6  1  1  0
  7  1  1  0
  8  7  2  0
  9  8  1  0
 10  9  2  0
 10 11  1  0
 11 16  2  0
 12 11  1  0
 12 13  2  0
 13 14  1  0
 14 15  2  0
 16  7  1  0
 16 15  1  0
 17 18  1  0
 19 17  1  0
 20 21  1  0
 20 19  1  0
 22 21  1  0
 23 22  1  0
 24 23  1  0
 24 25  1  0
 25 20  1  0
  2 26  1  0
  5 27  1  0
  8 28  1  0
  9 29  1  0
 10 30  1  0
 12 31  1  0
 13 32  1  0
 14 33  1  0
 15 34  1  0
 17 35  1  1
 18 36  1  0
 18 37  1  0
 18 38  1  0
 19 39  1  0
 19 40  1  0
 21 41  1  0
 21 42  1  0
 22 43  1  0
 22 44  1  0
 23 45  1  0
 24 46  1  0
 24 47  1  0
 25 48  1  0
 25 49  1  0
M  ISO  8  26  14  27  14  28  14  29  14  30  14  31  14  32  14  33  14
M  ISO  8  34  14  35   8  36   8  37   8  38   8  39   8  40   8  41  13
M  ISO  8  42  13  43  13  44  13  45   5  46  13  47  13  48  13  49  13
M  END
>  <minimizedAffinity>  (1) 
-6.32068348

>  <minimizedRMSD>  (1) 
3.53586578

$$$$
