
     RDKit          3D

 41 44  0  0  1  0  0  0  0  0999 V2000
   39.1350   30.7730   41.8270 C   0  0  0  0  0  0  0  0  0  0  0  0
   38.7630   29.6130   42.5000 C   0  0  0  0  0  0  0  0  0  0  0  0
   37.4920   29.0460   42.4780 C   0  0  0  0  0  0  0  0  0  0  0  0
   36.6240   29.7430   41.7200 N   0  0  0  0  0  0  0  0  0  0  0  0
   36.9190   30.8500   41.0570 C   0  0  0  0  0  0  0  0  0  0  0  0
   38.1520   31.3370   41.1240 N   0  0  0  0  0  0  0  0  0  0  0  0
   40.3960   31.4370   41.8420 C   0  0  0  0  0  0  0  0  0  0  0  0
   41.3640   30.9880   42.7560 C   0  0  0  0  0  0  0  0  0  0  0  0
   42.6080   31.5590   42.9230 C   0  0  0  0  0  0  0  0  0  0  0  0
   42.9390   32.6430   42.1530 C   0  0  0  0  0  0  0  0  0  0  0  0
   42.0270   33.1350   41.2260 C   0  0  0  0  0  0  0  0  0  0  0  0
   42.3540   34.2180   40.4470 C   0  0  0  0  0  0  0  0  0  0  0  0
   41.4750   34.7360   39.5060 C   0  0  0  0  0  0  0  0  0  0  0  0
   40.2570   34.0880   39.4140 C   0  0  0  0  0  0  0  0  0  0  0  0
   39.9820   33.0170   40.2130 C   0  0  0  0  0  0  0  0  0  0  0  0
   40.8370   32.5070   41.1360 C   0  0  0  0  0  0  0  0  0  0  0  0
   37.1850   27.8330   43.2660 C   0  0  2  0  0  0  0  0  0  0  0  0
   36.7880   28.1770   44.7000 C   0  0  0  0  0  0  0  0  0  0  0  0
   38.3950   26.9420   43.2970 C   0  0  0  0  0  0  0  0  0  0  0  0
   38.2340   25.7560   42.4090 C   0  0  0  0  0  0  0  0  0  0  0  0
   39.4220   25.2770   41.7590 C   0  0  0  0  0  0  0  0  0  0  0  0
   38.7490   23.8740   40.8210 S   0  0  0  0  0  0  0  0  0  0  0  0
   36.9820   24.1690   41.4600 C   0  0  0  0  0  0  0  0  0  0  0  0
   37.0490   25.1660   42.2220 N   0  0  0  0  0  0  0  0  0  0  0  0
   39.5344   29.1040   43.0965 H   0  0  0  0  0  0  0  0  0  0  0  0
   36.1511   31.3606   40.4573 H   0  0  0  0  0  0  0  0  0  0  0  0
   41.1117   30.1198   43.3825 H   0  0  0  0  0  0  0  0  0  0  0  0
   43.3188   31.1533   43.6580 H   0  0  0  0  0  0  0  0  0  0  0  0
   43.9225   33.1221   42.2678 H   0  0  0  0  0  0  0  0  0  0  0  0
   43.3405   34.6881   40.5725 H   0  0  0  0  0  0  0  0  0  0  0  0
   41.7296   35.6018   38.8771 H   0  0  0  0  0  0  0  0  0  0  0  0
   39.5049   34.4384   38.6918 H   0  0  0  0  0  0  0  0  0  0  0  0
   39.0002   32.5335   40.1018 H   0  0  0  0  0  0  0  0  0  0  0  0
   36.3371   27.3230   42.7854 H   0  0  0  0  0  0  0  0  0  0  0  0
   37.4286   27.6219   45.4010 H   0  0  0  0  0  0  0  0  0  0  0  0
   36.9129   29.2572   44.8659 H   0  0  0  0  0  0  0  0  0  0  0  0
   35.7365   27.8997   44.8659 H   0  0  0  0  0  0  0  0  0  0  0  0
   39.2704   27.5192   42.9645 H   0  0  0  0  0  0  0  0  0  0  0  0
   38.5266   26.5811   44.3277 H   0  0  0  0  0  0  0  0  0  0  0  0
   40.4536   25.6549   41.8139 H   0  0  0  0  0  0  0  0  0  0  0  0
   36.0832   23.5850   41.2126 H   0  0  0  0  0  0  0  0  0  0  0  0
  1  7  1  0
  1  2  2  0
  3  2  1  0
  3 17  1  0
  4  3  2  0
  5  6  2  0
  5  4  1  0
  6  1  1  0
  7  8  2  0
  8  9  1  0
 10  9  2  0
 11 10  1  0
 12 11  2  0
 13 12  1  0
 14 13  2  0
 14 15  1  0
 15 16  2  0
 16 11  1  0
 16  7  1  0
 17 19  1  0
 17 18  1  0
 20 19  1  0
 21 20  2  0
 22 23  1  0
 22 21  1  0
 23 24  2  0
 24 20  1  0
  2 25  1  0
  5 26  1  0
  8 27  1  0
  9 28  1  0
 10 29  1  0
 12 30  1  0
 13 31  1  0
 14 32  1  0
 15 33  1  0
 17 34  1  6
 18 35  1  0
 18 36  1  0
 18 37  1  0
 19 38  1  0
 19 39  1  0
 21 40  1  0
 23 41  1  0
M  ISO  8  25  14  26  14  27  14  28  14  29  14  30  14  31  14  32  14
M  ISO  8  33  14  34   8  35   8  36   8  37   8  38   8  39   8  40  14
M  ISO  1  41  14
M  END
>  <minimizedAffinity>  (1) 
-6.12021255

>  <minimizedRMSD>  (1) 
1.27640665

$$$$
