
     RDKit          3D

 42 45  0  0  1  0  0  0  0  0999 V2000
   39.1090   30.7790   41.8160 C   0  0  0  0  0  0  0  0  0  0  0  0
   38.7360   29.6070   42.4610 C   0  0  0  0  0  0  0  0  0  0  0  0
   37.4670   29.0330   42.4220 C   0  0  0  0  0  0  0  0  0  0  0  0
   36.5980   29.7420   41.6690 N   0  0  0  0  0  0  0  0  0  0  0  0
   36.8940   30.8610   41.0330 C   0  0  0  0  0  0  0  0  0  0  0  0
   38.1230   31.3450   41.1200 N   0  0  0  0  0  0  0  0  0  0  0  0
   40.3710   31.4400   41.8370 C   0  0  0  0  0  0  0  0  0  0  0  0
   41.3370   30.9880   42.7410 C   0  0  0  0  0  0  0  0  0  0  0  0
   42.5870   31.5510   42.9060 C   0  0  0  0  0  0  0  0  0  0  0  0
   42.9240   32.6320   42.1390 C   0  0  0  0  0  0  0  0  0  0  0  0
   42.0090   33.1310   41.2180 C   0  0  0  0  0  0  0  0  0  0  0  0
   42.3420   34.2100   40.4390 C   0  0  0  0  0  0  0  0  0  0  0  0
   41.4750   34.7370   39.5040 C   0  0  0  0  0  0  0  0  0  0  0  0
   40.2510   34.0980   39.4130 C   0  0  0  0  0  0  0  0  0  0  0  0
   39.9690   33.0300   40.2110 C   0  0  0  0  0  0  0  0  0  0  0  0
   40.8170   32.5100   41.1320 C   0  0  0  0  0  0  0  0  0  0  0  0
   37.1500   27.8010   43.1790 C   0  0  2  0  0  0  0  0  0  0  0  0
   36.7580   28.1220   44.6210 C   0  0  0  0  0  0  0  0  0  0  0  0
   38.3810   26.9200   43.2000 C   0  0  0  0  0  0  0  0  0  0  0  0
   38.1740   25.6580   42.4720 C   0  0  0  0  0  0  0  0  0  0  0  0
   39.3060   25.0490   41.9510 C   0  0  0  0  0  0  0  0  0  0  0  0
   38.8980   23.9100   41.3250 N   0  0  0  0  0  0  0  0  0  0  0  0
   37.5610   23.8220   41.4560 C   0  0  0  0  0  0  0  0  0  0  0  0
   37.1420   24.8830   42.1500 N   0  0  0  0  0  0  0  0  0  0  0  0
   39.5061   29.0890   43.0515 H   0  0  0  0  0  0  0  0  0  0  0  0
   36.1297   31.3837   40.4391 H   0  0  0  0  0  0  0  0  0  0  0  0
   41.0825   30.1200   43.3669 H   0  0  0  0  0  0  0  0  0  0  0  0
   43.2965   31.1389   43.6386 H   0  0  0  0  0  0  0  0  0  0  0  0
   43.9117   33.1034   42.2497 H   0  0  0  0  0  0  0  0  0  0  0  0
   43.3332   34.6703   40.5640 H   0  0  0  0  0  0  0  0  0  0  0  0
   41.7375   35.6017   38.8769 H   0  0  0  0  0  0  0  0  0  0  0  0
   39.5008   34.4545   38.6918 H   0  0  0  0  0  0  0  0  0  0  0  0
   38.9827   32.5559   40.0999 H   0  0  0  0  0  0  0  0  0  0  0  0
   36.3042   27.2959   42.6896 H   0  0  0  0  0  0  0  0  0  0  0  0
   37.4210   27.5791   45.3107 H   0  0  0  0  0  0  0  0  0  0  0  0
   36.8545   29.2039   44.7950 H   0  0  0  0  0  0  0  0  0  0  0  0
   35.7164   27.8141   44.7950 H   0  0  0  0  0  0  0  0  0  0  0  0
   39.2148   27.4653   42.7337 H   0  0  0  0  0  0  0  0  0  0  0  0
   38.6012   26.6725   44.2489 H   0  0  0  0  0  0  0  0  0  0  0  0
   40.3397   25.4169   42.0287 H   0  0  0  0  0  0  0  0  0  0  0  0
   36.9248   23.0166   41.0604 H   0  0  0  0  0  0  0  0  0  0  0  0
   36.1612   25.0738   42.3999 H   0  0  0  0  0  0  0  0  0  0  0  0
  1  7  1  0
  1  2  2  0
  3  2  1  0
  3 17  1  0
  4  3  2  0
  5  6  2  0
  5  4  1  0
  6  1  1  0
  7  8  2  0
  8  9  1  0
 10  9  2  0
 11 10  1  0
 12 11  2  0
 13 12  1  0
 14 13  2  0
 14 15  1  0
 15 16  2  0
 16 11  1  0
 16  7  1  0
 17 19  1  0
 17 18  1  0
 20 19  1  0
 21 20  2  0
 22 23  2  0
 22 21  1  0
 23 24  1  0
 24 20  1  0
  2 25  1  0
  5 26  1  0
  8 27  1  0
  9 28  1  0
 10 29  1  0
 12 30  1  0
 13 31  1  0
 14 32  1  0
 15 33  1  0
 17 34  1  6
 18 35  1  0
 18 36  1  0
 18 37  1  0
 19 38  1  0
 19 39  1  0
 21 40  1  0
 23 41  1  0
 24 42  1  0
M  ISO  8  25  14  26  14  27  14  28  14  29  14  30  14  31  14  32  14
M  ISO  8  33  14  34   8  35   8  36   8  37   8  38   8  39   8  40  14
M  ISO  2  41  14  42   9
M  END
>  <minimizedAffinity>  (1) 
-6.11685658

>  <minimizedRMSD>  (1) 
1.24680722

$$$$
