
     RDKit          3D

 42 45  0  0  1  0  0  0  0  0999 V2000
   38.8730   30.8550   41.6000 C   0  0  0  0  0  0  0  0  0  0  0  0
   38.3940   29.6540   42.1100 C   0  0  0  0  0  0  0  0  0  0  0  0
   37.0960   29.1760   41.9760 C   0  0  0  0  0  0  0  0  0  0  0  0
   36.2980   30.0050   41.2810 N   0  0  0  0  0  0  0  0  0  0  0  0
   36.7020   31.1680   40.7720 C   0  0  0  0  0  0  0  0  0  0  0  0
   37.9570   31.5610   40.9400 N   0  0  0  0  0  0  0  0  0  0  0  0
   40.1820   31.4100   41.7200 C   0  0  0  0  0  0  0  0  0  0  0  0
   41.0070   30.9310   42.7440 C   0  0  0  0  0  0  0  0  0  0  0  0
   42.2810   31.3950   43.0040 C   0  0  0  0  0  0  0  0  0  0  0  0
   42.7860   32.3940   42.2150 C   0  0  0  0  0  0  0  0  0  0  0  0
   42.0180   32.9160   41.1770 C   0  0  0  0  0  0  0  0  0  0  0  0
   42.5320   33.9060   40.3880 C   0  0  0  0  0  0  0  0  0  0  0  0
   41.8140   34.4450   39.3400 C   0  0  0  0  0  0  0  0  0  0  0  0
   40.5400   33.9080   39.1530 C   0  0  0  0  0  0  0  0  0  0  0  0
   40.0810   32.9210   39.9730 C   0  0  0  0  0  0  0  0  0  0  0  0
   40.7870   32.3930   41.0050 C   0  0  0  0  0  0  0  0  0  0  0  0
   36.7010   27.8990   42.6080 C   0  0  2  0  0  0  0  0  0  0  0  0
   36.9760   27.8630   44.0870 C   0  0  0  0  0  0  0  0  0  0  0  0
   37.3590   26.7580   41.8700 C   0  0  0  0  0  0  0  0  0  0  0  0
   36.9060   25.4060   42.2640 C   0  0  0  0  0  0  0  0  0  0  0  0
   38.0010   24.2880   42.1490 C   0  0  0  0  0  0  0  0  0  0  0  0
   36.7370   24.2370   41.4190 C   0  0  0  0  0  0  0  0  0  0  0  0
   39.1045   29.0270   42.6686 H   0  0  0  0  0  0  0  0  0  0  0  0
   35.9961   31.8006   40.2138 H   0  0  0  0  0  0  0  0  0  0  0  0
   40.6131   30.1294   43.3861 H   0  0  0  0  0  0  0  0  0  0  0  0
   42.8769   30.9719   43.8262 H   0  0  0  0  0  0  0  0  0  0  0  0
   43.7976   32.7839   42.4010 H   0  0  0  0  0  0  0  0  0  0  0  0
   43.5446   34.2833   40.5935 H   0  0  0  0  0  0  0  0  0  0  0  0
   42.2175   35.2416   38.6976 H   0  0  0  0  0  0  0  0  0  0  0  0
   39.9024   34.2834   38.3391 H   0  0  0  0  0  0  0  0  0  0  0  0
   39.0715   32.5261   39.7861 H   0  0  0  0  0  0  0  0  0  0  0  0
   35.6090   27.7954   42.5259 H   0  0  0  0  0  0  0  0  0  0  0  0
   36.0323   27.9865   44.6385 H   0  0  0  0  0  0  0  0  0  0  0  0
   37.4318   26.8975   44.3518 H   0  0  0  0  0  0  0  0  0  0  0  0
   37.6649   28.6786   44.3518 H   0  0  0  0  0  0  0  0  0  0  0  0
   38.4429   26.8185   42.0475 H   0  0  0  0  0  0  0  0  0  0  0  0
   37.0784   26.8770   40.8131 H   0  0  0  0  0  0  0  0  0  0  0  0
   36.2158   25.8753   42.9805 H   0  0  0  0  0  0  0  0  0  0  0  0
   38.9442   24.4837   41.6180 H   0  0  0  0  0  0  0  0  0  0  0  0
   38.5423   23.6318   42.8464 H   0  0  0  0  0  0  0  0  0  0  0  0
   36.7449   24.3611   40.3261 H   0  0  0  0  0  0  0  0  0  0  0  0
   35.9464   23.4754   41.3486 H   0  0  0  0  0  0  0  0  0  0  0  0
  1  7  1  0
  1  2  2  0
  3  2  1  0
  3 17  1  0
  4  3  2  0
  5  6  2  0
  5  4  1  0
  6  1  1  0
  7  8  2  0
  8  9  1  0
 10  9  2  0
 11 10  1  0
 12 11  2  0
 13 12  1  0
 14 13  2  0
 14 15  1  0
 15 16  2  0
 16 11  1  0
 16  7  1  0
 17 18  1  0
 19 20  1  0
 19 17  1  0
 21 20  1  0
 22 21  1  0
 22 20  1  0
  2 23  1  0
  5 24  1  0
  8 25  1  0
  9 26  1  0
 10 27  1  0
 12 28  1  0
 13 29  1  0
 14 30  1  0
 15 31  1  0
 17 32  1  1
 18 33  1  0
 18 34  1  0
 18 35  1  0
 19 36  1  0
 19 37  1  0
 20 38  1  0
 21 39  1  0
 21 40  1  0
 22 41  1  0
 22 42  1  0
M  ISO  8  23  14  24  14  25  14  26  14  27  14  28  14  29  14  30  14
M  ISO  8  31  14  32   8  33   8  34   8  35   8  36   8  37   8  38  13
M  ISO  4  39  13  40  13  41  13  42  13
M  END
>  <minimizedAffinity>  (1) 
-6.02946138

>  <minimizedRMSD>  (1) 
1.25601399

$$$$
