
     RDKit          3D

 34 37  0  0  0  0  0  0  0  0999 V2000
   39.3160   32.2540   40.6160 C   0  0  0  0  0  0  0  0  0  0  0  0
   40.2510   33.2870   40.6320 C   0  0  0  0  0  0  0  0  0  0  0  0
   39.8690   34.5600   40.2930 C   0  0  0  0  0  0  0  0  0  0  0  0
   38.5370   34.7780   39.9380 C   0  0  0  0  0  0  0  0  0  0  0  0
   37.6030   33.7430   39.9230 C   0  0  0  0  0  0  0  0  0  0  0  0
   37.9870   32.4720   40.2630 C   0  0  0  0  0  0  0  0  0  0  0  0
   36.9800   31.4180   40.2420 C   0  0  0  0  0  0  0  0  0  0  0  0
   36.1840   30.9420   41.2930 C   0  0  0  0  0  0  0  0  0  0  0  0
   35.3850   29.9450   40.8260 N   0  0  0  0  0  0  0  0  0  0  0  0
   35.6090   29.7340   39.5170 C   0  0  0  0  0  0  0  0  0  0  0  0
   35.0720   28.8560   38.6010 C   0  0  0  0  0  0  0  0  0  0  0  0
   35.5080   28.8600   37.2810 C   0  0  0  0  0  0  0  0  0  0  0  0
   36.4780   29.7400   36.8820 C   0  0  0  0  0  0  0  0  0  0  0  0
   36.9960   30.6060   37.8180 C   0  0  0  0  0  0  0  0  0  0  0  0
   36.5860   30.6340   39.1500 C   0  0  0  0  0  0  0  0  0  0  0  0
   40.6130   28.8390   40.3120 C   0  0  0  0  0  0  0  0  0  0  0  0
   40.5760   28.3660   41.6390 C   0  0  0  0  0  0  0  0  0  0  0  0
   40.0990   29.2320   42.6430 C   0  0  0  0  0  0  0  0  0  0  0  0
   39.7010   30.4770   42.2710 N   0  0  0  0  0  0  0  0  0  0  0  0
   39.7520   30.8980   40.9770 C   0  0  0  0  0  0  0  0  0  0  0  0
   40.2060   30.0690   40.0380 N   0  0  0  0  0  0  0  0  0  0  0  0
   41.2937   33.0819   40.9160 H   0  0  0  0  0  0  0  0  0  0  0  0
   40.5936   35.3875   40.3007 H   0  0  0  0  0  0  0  0  0  0  0  0
   38.2155   35.7933   39.6627 H   0  0  0  0  0  0  0  0  0  0  0  0
   36.5599   33.9461   39.6388 H   0  0  0  0  0  0  0  0  0  0  0  0
   36.2024   31.3144   42.3279 H   0  0  0  0  0  0  0  0  0  0  0  0
   34.7032   29.4241   41.3959 H   0  0  0  0  0  0  0  0  0  0  0  0
   34.2926   28.1467   38.9165 H   0  0  0  0  0  0  0  0  0  0  0  0
   35.0733   28.1556   36.5565 H   0  0  0  0  0  0  0  0  0  0  0  0
   36.8338   29.7545   35.8412 H   0  0  0  0  0  0  0  0  0  0  0  0
   37.7750   31.3137   37.4979 H   0  0  0  0  0  0  0  0  0  0  0  0
   40.9794   28.1875   39.5050 H   0  0  0  0  0  0  0  0  0  0  0  0
   40.9107   27.3474   41.8846 H   0  0  0  0  0  0  0  0  0  0  0  0
   40.0504   28.9107   43.6939 H   0  0  0  0  0  0  0  0  0  0  0  0
  1  2  2  0
  1 20  1  0
  3  2  1  0
  4  3  2  0
  5  4  1  0
  5  6  2  0
  6  1  1  0
  7  6  1  0
  7  8  2  0
  9  8  1  0
 10  9  1  0
 11 10  2  0
 12 11  1  0
 13 12  2  0
 13 14  1  0
 14 15  2  0
 15 10  1  0
 15  7  1  0
 16 17  2  0
 17 18  1  0
 19 18  2  0
 20 19  1  0
 21 16  1  0
 21 20  2  0
  2 22  1  0
  3 23  1  0
  4 24  1  0
  5 25  1  0
  8 26  1  0
  9 27  1  0
 11 28  1  0
 12 29  1  0
 13 30  1  0
 14 31  1  0
 16 32  1  0
 17 33  1  0
 18 34  1  0
M  ISO  8  22  14  23  14  24  14  25  14  26  14  27   9  28  14  29  14
M  ISO  5  30  14  31  14  32  14  33  14  34  14
M  END
>  <minimizedAffinity>  (1) 
-5.82388449

>  <minimizedRMSD>  (1) 
5.6608057

$$$$
