
     RDKit          3D

 30 32  0  0  0  0  0  0  0  0999 V2000
   38.4840   31.6270   40.7110 C   0  0  0  0  0  0  0  0  0  0  0  0
   39.2540   32.6970   41.1700 C   0  0  0  0  0  0  0  0  0  0  0  0
   38.9550   33.9700   40.7050 C   0  0  0  0  0  0  0  0  0  0  0  0
   37.8950   34.1370   39.7990 C   0  0  0  0  0  0  0  0  0  0  0  0
   37.1360   33.0550   39.3530 C   0  0  0  0  0  0  0  0  0  0  0  0
   37.4430   31.8140   39.8170 C   0  0  0  0  0  0  0  0  0  0  0  0
   39.7720   28.2010   40.8400 C   0  0  0  0  0  0  0  0  0  0  0  0
   39.4090   27.7580   42.1180 C   0  0  0  0  0  0  0  0  0  0  0  0
   38.7040   28.6650   42.9530 C   0  0  0  0  0  0  0  0  0  0  0  0
   38.4280   29.8970   42.4580 N   0  0  0  0  0  0  0  0  0  0  0  0
   38.8010   30.2860   41.2060 C   0  0  0  0  0  0  0  0  0  0  0  0
   39.4620   29.4310   40.4280 N   0  0  0  0  0  0  0  0  0  0  0  0
   36.6150   30.7280   39.3070 C   0  0  0  0  0  0  0  0  0  0  0  0
   35.7260   30.2850   40.2940 C   0  0  0  0  0  0  0  0  0  0  0  0
   34.8310   29.2600   40.0340 C   0  0  0  0  0  0  0  0  0  0  0  0
   34.8030   28.6510   38.7780 C   0  0  0  0  0  0  0  0  0  0  0  0
   35.6900   29.1100   37.8320 C   0  0  0  0  0  0  0  0  0  0  0  0
   36.5880   30.1260   38.0650 C   0  0  0  0  0  0  0  0  0  0  0  0
   40.0767   32.5354   41.8820 H   0  0  0  0  0  0  0  0  0  0  0  0
   39.5412   34.8377   41.0420 H   0  0  0  0  0  0  0  0  0  0  0  0
   37.6573   35.1463   39.4319 H   0  0  0  0  0  0  0  0  0  0  0  0
   36.3089   33.2020   38.6429 H   0  0  0  0  0  0  0  0  0  0  0  0
   40.3202   27.5254   40.1669 H   0  0  0  0  0  0  0  0  0  0  0  0
   39.6608   26.7442   42.4626 H   0  0  0  0  0  0  0  0  0  0  0  0
   38.3921   28.3776   43.9679 H   0  0  0  0  0  0  0  0  0  0  0  0
   35.7384   30.7565   41.2877 H   0  0  0  0  0  0  0  0  0  0  0  0
   34.1393   28.9244   40.8207 H   0  0  0  0  0  0  0  0  0  0  0  0
   34.0992   27.8360   38.5536 H   0  0  0  0  0  0  0  0  0  0  0  0
   35.6808   28.6402   36.8374 H   0  0  0  0  0  0  0  0  0  0  0  0
   37.2757   30.4544   37.2717 H   0  0  0  0  0  0  0  0  0  0  0  0
  1  2  2  0
  1 11  1  0
  3  2  1  0
  4  3  2  0
  5  4  1  0
  5  6  2  0
  6  1  1  0
  7  8  2  0
  8  9  1  0
 10  9  2  0
 11 10  1  0
 12  7  1  0
 12 11  2  0
 13  6  1  0
 13 14  2  0
 15 14  1  0
 16 15  2  0
 17 18  2  0
 17 16  1  0
 18 13  1  0
  2 19  1  0
  3 20  1  0
  4 21  1  0
  5 22  1  0
  7 23  1  0
  8 24  1  0
  9 25  1  0
 14 26  1  0
 15 27  1  0
 16 28  1  0
 17 29  1  0
 18 30  1  0
M  ISO  8  19  14  20  14  21  14  22  14  23  14  24  14  25  14  26  14
M  ISO  4  27  14  28  14  29  14  30  14
M  END
>  <minimizedAffinity>  (1) 
-5.30997467

>  <minimizedRMSD>  (1) 
4.45917463

$$$$
