
     RDKit          3D

 30 32  0  0  0  0  0  0  0  0999 V2000
   39.2970   33.3940   40.3320 C   0  0  0  0  0  0  0  0  0  0  0  0
   38.9840   34.6390   40.8570 C   0  0  0  0  0  0  0  0  0  0  0  0
   39.7510   35.7240   40.4630 C   0  0  0  0  0  0  0  0  0  0  0  0
   40.7930   35.5390   39.5710 C   0  0  0  0  0  0  0  0  0  0  0  0
   41.1020   34.2960   39.0500 C   0  0  0  0  0  0  0  0  0  0  0  0
   40.3450   33.2300   39.4390 C   0  0  0  0  0  0  0  0  0  0  0  0
   38.3120   30.2760   41.9760 C   0  0  0  0  0  0  0  0  0  0  0  0
   36.9970   30.0780   41.5330 C   0  0  0  0  0  0  0  0  0  0  0  0
   36.4400   31.0340   40.6550 C   0  0  0  0  0  0  0  0  0  0  0  0
   37.2200   32.0770   40.3010 N   0  0  0  0  0  0  0  0  0  0  0  0
   38.4860   32.2390   40.7470 C   0  0  0  0  0  0  0  0  0  0  0  0
   39.0230   31.3300   41.5850 N   0  0  0  0  0  0  0  0  0  0  0  0
   40.6740   31.9570   38.8960 N   0  0  0  0  0  0  0  0  0  0  0  0
   41.6780   31.2580   39.4920 C   0  0  0  0  0  0  0  0  0  0  0  0
   42.0200   30.0130   38.9820 C   0  0  0  0  0  0  0  0  0  0  0  0
   41.3880   29.4590   37.9050 C   0  0  0  0  0  0  0  0  0  0  0  0
   41.7020   28.3340   37.4500 O   0  0  0  0  0  0  0  0  0  0  0  0
   40.4040   30.2000   37.3600 N   0  0  0  0  0  0  0  0  0  0  0  0
   40.0460   31.4220   37.8360 C   0  0  0  0  0  0  0  0  0  0  0  0
   39.1270   32.1150   37.3290 O   0  0  0  0  0  0  0  0  0  0  0  0
   38.1514   34.7617   41.5653 H   0  0  0  0  0  0  0  0  0  0  0  0
   39.5327   36.7274   40.8573 H   0  0  0  0  0  0  0  0  0  0  0  0
   41.3944   36.4084   39.2669 H   0  0  0  0  0  0  0  0  0  0  0  0
   41.9345   34.1704   38.3421 H   0  0  0  0  0  0  0  0  0  0  0  0
   38.7654   29.5446   42.6612 H   0  0  0  0  0  0  0  0  0  0  0  0
   36.4155   29.2033   41.8597 H   0  0  0  0  0  0  0  0  0  0  0  0
   35.4126   30.9326   40.2753 H   0  0  0  0  0  0  0  0  0  0  0  0
   42.2089   31.6719   40.3620 H   0  0  0  0  0  0  0  0  0  0  0  0
   42.8325   29.4499   39.4645 H   0  0  0  0  0  0  0  0  0  0  0  0
   39.8995   29.8233   36.5449 H   0  0  0  0  0  0  0  0  0  0  0  0
  1 11  1  0
  1  2  2  0
  3  2  1  0
  4  3  2  0
  5  6  2  0
  5  4  1  0
  6  1  1  0
  8  7  2  0
  9  8  1  0
 10  9  2  0
 10 11  1  0
 11 12  2  0
 12  7  1  0
 13  6  1  0
 13 14  1  0
 15 14  2  0
 16 15  1  0
 17 16  2  0
 18 19  1  0
 18 16  1  0
 19 13  1  0
 20 19  2  0
  2 21  1  0
  3 22  1  0
  4 23  1  0
  5 24  1  0
  7 25  1  0
  8 26  1  0
  9 27  1  0
 14 28  1  0
 15 29  1  0
 18 30  1  0
M  ISO  8  21  14  22  14  23  14  24  14  25  14  26  14  27  14  28  14
M  ISO  2  29  14  30   9
M  END
>  <minimizedAffinity>  (1) 
-5.04642153

>  <minimizedRMSD>  (1) 
4.06740284

$$$$
