
     RDKit          3D

 28 30  0  0  0  0  0  0  0  0999 V2000
   37.3570   31.8090   39.9900 C   0  0  0  0  0  0  0  0  0  0  0  0
   37.1840   33.0800   39.4580 C   0  0  0  0  0  0  0  0  0  0  0  0
   38.0330   34.0900   39.8570 C   0  0  0  0  0  0  0  0  0  0  0  0
   39.0340   33.8200   40.7740 C   0  0  0  0  0  0  0  0  0  0  0  0
   39.1920   32.5480   41.2930 C   0  0  0  0  0  0  0  0  0  0  0  0
   38.3620   31.5290   40.9140 C   0  0  0  0  0  0  0  0  0  0  0  0
   34.7790   29.2020   40.0500 C   0  0  0  0  0  0  0  0  0  0  0  0
   34.7870   28.7110   38.7450 C   0  0  0  0  0  0  0  0  0  0  0  0
   35.6880   29.2830   37.8350 C   0  0  0  0  0  0  0  0  0  0  0  0
   36.4810   30.2690   38.2950 N   0  0  0  0  0  0  0  0  0  0  0  0
   36.4590   30.7320   39.5640 C   0  0  0  0  0  0  0  0  0  0  0  0
   35.5990   30.1760   40.4100 N   0  0  0  0  0  0  0  0  0  0  0  0
   38.6260   30.2560   41.5370 C   0  0  0  0  0  0  0  0  0  0  0  0
   39.5480   29.4550   40.8540 C   0  0  0  0  0  0  0  0  0  0  0  0
   39.9150   28.1990   41.3440 C   0  0  0  0  0  0  0  0  0  0  0  0
   39.3680   27.7540   42.4980 N   0  0  0  0  0  0  0  0  0  0  0  0
   38.4740   28.5260   43.1630 C   0  0  0  0  0  0  0  0  0  0  0  0
   38.1490   29.7120   42.6680 N   0  0  0  0  0  0  0  0  0  0  0  0
   36.3830   33.2775   38.7304 H   0  0  0  0  0  0  0  0  0  0  0  0
   37.9157   35.1048   39.4490 H   0  0  0  0  0  0  0  0  0  0  0  0
   39.7111   34.6259   41.0934 H   0  0  0  0  0  0  0  0  0  0  0  0
   39.9948   32.3533   42.0194 H   0  0  0  0  0  0  0  0  0  0  0  0
   34.0838   28.7752   40.7879 H   0  0  0  0  0  0  0  0  0  0  0  0
   34.1085   27.9011   38.4390 H   0  0  0  0  0  0  0  0  0  0  0  0
   35.7443   28.9410   36.7910 H   0  0  0  0  0  0  0  0  0  0  0  0
   39.9912   29.8202   39.9158 H   0  0  0  0  0  0  0  0  0  0  0  0
   40.6407   27.5791   40.7972 H   0  0  0  0  0  0  0  0  0  0  0  0
   38.0236   28.1725   44.1022 H   0  0  0  0  0  0  0  0  0  0  0  0
  1  6  2  0
  2  3  2  0
  2  1  1  0
  3  4  1  0
  4  5  2  0
  6  5  1  0
  6 13  1  0
  7 12  2  0
  8  7  1  0
  9 10  1  0
  9  8  2  0
 10 11  2  0
 11  1  1  0
 11 12  1  0
 13 18  2  0
 14 15  2  0
 14 13  1  0
 15 16  1  0
 16 17  2  0
 18 17  1  0
  2 19  1  0
  3 20  1  0
  4 21  1  0
  5 22  1  0
  7 23  1  0
  8 24  1  0
  9 25  1  0
 14 26  1  0
 15 27  1  0
 17 28  1  0
M  ISO  8  19  14  20  14  21  14  22  14  23  14  24  14  25  14  26  14
M  ISO  2  27  14  28  14
M  END
>  <minimizedAffinity>  (1) 
-4.97343397

>  <minimizedRMSD>  (1) 
3.01874685

$$$$
