
     RDKit          3D

 35 37  0  0  0  0  0  0  0  0999 V2000
   36.7940   28.7340   39.9940 C   0  0  0  0  0  0  0  0  0  0  0  0
   35.8560   27.8990   39.4200 C   0  0  0  0  0  0  0  0  0  0  0  0
   35.2690   28.2970   38.2340 C   0  0  0  0  0  0  0  0  0  0  0  0
   35.6310   29.5040   37.6610 C   0  0  0  0  0  0  0  0  0  0  0  0
   36.5700   30.3350   38.2430 C   0  0  0  0  0  0  0  0  0  0  0  0
   37.1440   29.9340   39.4130 C   0  0  0  0  0  0  0  0  0  0  0  0
   39.1750   27.1850   42.3180 C   0  0  0  0  0  0  0  0  0  0  0  0
   38.6610   27.5370   43.5670 C   0  0  0  0  0  0  0  0  0  0  0  0
   37.4900   28.3130   43.6200 C   0  0  0  0  0  0  0  0  0  0  0  0
   36.9360   28.6670   42.4450 N   0  0  0  0  0  0  0  0  0  0  0  0
   37.4390   28.3230   41.2430 C   0  0  0  0  0  0  0  0  0  0  0  0
   38.5410   27.5940   41.2320 N   0  0  0  0  0  0  0  0  0  0  0  0
   38.0690   30.8980   39.8990 N   0  0  0  0  0  0  0  0  0  0  0  0
   38.1330   31.9400   40.8950 C   0  0  0  0  0  0  0  0  0  0  0  0
   38.2870   33.3000   40.2040 C   0  0  0  0  0  0  0  0  0  0  0  0
   39.6970   33.3380   39.6520 C   0  0  0  0  0  0  0  0  0  0  0  0
   39.7720   32.2040   38.6540 C   0  0  0  0  0  0  0  0  0  0  0  0
   39.3410   30.8890   39.2570 C   0  0  0  0  0  0  0  0  0  0  0  0
   35.5837   26.9441   39.8934 H   0  0  0  0  0  0  0  0  0  0  0  0
   34.5176   27.6577   37.7475 H   0  0  0  0  0  0  0  0  0  0  0  0
   35.1583   29.8104   36.7162 H   0  0  0  0  0  0  0  0  0  0  0  0
   36.8461   31.2918   37.7758 H   0  0  0  0  0  0  0  0  0  0  0  0
   40.0897   26.5791   42.2386 H   0  0  0  0  0  0  0  0  0  0  0  0
   39.1621   27.2137   44.4913 H   0  0  0  0  0  0  0  0  0  0  0  0
   37.0459   28.6176   44.5792 H   0  0  0  0  0  0  0  0  0  0  0  0
   37.2086   31.9344   41.4912 H   0  0  0  0  0  0  0  0  0  0  0  0
   38.9960   31.7642   41.5541 H   0  0  0  0  0  0  0  0  0  0  0  0
   37.5556   33.3979   39.3882 H   0  0  0  0  0  0  0  0  0  0  0  0
   38.1096   34.1280   40.9061 H   0  0  0  0  0  0  0  0  0  0  0  0
   39.8894   34.3004   39.1553 H   0  0  0  0  0  0  0  0  0  0  0  0
   40.4492   33.2314   40.4475 H   0  0  0  0  0  0  0  0  0  0  0  0
   40.8097   32.1096   38.3014 H   0  0  0  0  0  0  0  0  0  0  0  0
   39.0887   32.4368   37.8240 H   0  0  0  0  0  0  0  0  0  0  0  0
   39.3091   30.1406   38.4514 H   0  0  0  0  0  0  0  0  0  0  0  0
   40.0755   30.6614   40.0435 H   0  0  0  0  0  0  0  0  0  0  0  0
  1 11  1  0
  2  1  2  0
  3  2  1  0
  4  3  2  0
  4  5  1  0
  5  6  2  0
  6 13  1  0
  6  1  1  0
  7  8  2  0
  8  9  1  0
 10  9  2  0
 11 10  1  0
 12 11  2  0
 12  7  1  0
 13 14  1  0
 15 14  1  0
 16 15  1  0
 17 18  1  0
 17 16  1  0
 18 13  1  0
  2 19  1  0
  3 20  1  0
  4 21  1  0
  5 22  1  0
  7 23  1  0
  8 24  1  0
  9 25  1  0
 14 26  1  0
 14 27  1  0
 15 28  1  0
 15 29  1  0
 16 30  1  0
 16 31  1  0
 17 32  1  0
 17 33  1  0
 18 34  1  0
 18 35  1  0
M  ISO  8  19  14  20  14  21  14  22  14  23  14  24  14  25  14  26  13
M  ISO  8  27  13  28  13  29  13  30  13  31  13  32  13  33  13  34  13
M  ISO  1  35  13
M  END
>  <minimizedAffinity>  (1) 
-4.68731213

>  <minimizedRMSD>  (1) 
3.6770792

$$$$
