
     RDKit          3D

 31 34  0  0  0  0  0  0  0  0999 V2000
   37.8420   30.5440   40.7930 C   0  0  0  0  0  0  0  0  0  0  0  0
   36.7880   31.3960   40.5020 C   0  0  0  0  0  0  0  0  0  0  0  0
   37.0540   32.5190   39.7350 C   0  0  0  0  0  0  0  0  0  0  0  0
   38.3390   32.7670   39.2810 C   0  0  0  0  0  0  0  0  0  0  0  0
   39.3710   31.9020   39.5860 C   0  0  0  0  0  0  0  0  0  0  0  0
   39.1290   30.7890   40.3410 C   0  0  0  0  0  0  0  0  0  0  0  0
   40.2040   29.9060   40.6470 N   0  0  0  0  0  0  0  0  0  0  0  0
   40.5700   28.7240   40.0900 C   0  0  0  0  0  0  0  0  0  0  0  0
   41.6630   28.2810   40.7440 N   0  0  0  0  0  0  0  0  0  0  0  0
   41.9880   29.1600   41.6940 C   0  0  0  0  0  0  0  0  0  0  0  0
   43.0370   29.1000   42.5960 C   0  0  0  0  0  0  0  0  0  0  0  0
   43.1350   30.1460   43.4690 N   0  0  0  0  0  0  0  0  0  0  0  0
   42.2360   31.1610   43.4200 C   0  0  0  0  0  0  0  0  0  0  0  0
   41.2330   31.1700   42.5230 N   0  0  0  0  0  0  0  0  0  0  0  0
   41.0690   30.1860   41.6370 C   0  0  0  0  0  0  0  0  0  0  0  0
   37.4720   28.3830   43.7260 C   0  0  0  0  0  0  0  0  0  0  0  0
   37.0250   27.1650   43.1740 C   0  0  0  0  0  0  0  0  0  0  0  0
   36.8490   27.0890   41.7790 C   0  0  0  0  0  0  0  0  0  0  0  0
   37.1200   28.1960   41.0250 N   0  0  0  0  0  0  0  0  0  0  0  0
   37.5490   29.3450   41.6140 C   0  0  0  0  0  0  0  0  0  0  0  0
   37.7210   29.4340   42.9380 N   0  0  0  0  0  0  0  0  0  0  0  0
   35.7721   31.1871   40.8685 H   0  0  0  0  0  0  0  0  0  0  0  0
   36.2410   33.2167   39.4855 H   0  0  0  0  0  0  0  0  0  0  0  0
   38.5390   33.6610   38.6721 H   0  0  0  0  0  0  0  0  0  0  0  0
   40.3880   32.1088   39.2213 H   0  0  0  0  0  0  0  0  0  0  0  0
   40.0652   28.2175   39.2541 H   0  0  0  0  0  0  0  0  0  0  0  0
   43.7482   28.2609   42.6087 H   0  0  0  0  0  0  0  0  0  0  0  0
   42.3292   31.9960   44.1300 H   0  0  0  0  0  0  0  0  0  0  0  0
   37.6169   28.4692   44.8130 H   0  0  0  0  0  0  0  0  0  0  0  0
   36.8190   26.2964   43.8167 H   0  0  0  0  0  0  0  0  0  0  0  0
   36.5009   26.1587   41.3064 H   0  0  0  0  0  0  0  0  0  0  0  0
  1 20  1  0
  2  1  2  0
  3  2  1  0
  4  5  1  0
  4  3  2  0
  5  6  2  0
  6  7  1  0
  6  1  1  0
  7 15  1  0
  8  7  1  0
  8  9  2  0
  9 10  1  0
 10 11  2  0
 11 12  1  0
 13 12  2  0
 14 13  1  0
 15 10  1  0
 15 14  2  0
 17 16  2  0
 18 17  1  0
 19 20  1  0
 19 18  2  0
 20 21  2  0
 21 16  1  0
  2 22  1  0
  3 23  1  0
  4 24  1  0
  5 25  1  0
  8 26  1  0
 11 27  1  0
 13 28  1  0
 16 29  1  0
 17 30  1  0
 18 31  1  0
M  ISO  8  22  14  23  14  24  14  25  14  26  14  27  14  28  14  29  14
M  ISO  2  30  14  31  14
M  END
>  <minimizedAffinity>  (1) 
-4.6513195

>  <minimizedRMSD>  (1) 
1.96849632

$$$$
