
     RDKit          3D

 33 35  0  0  0  0  0  0  0  0999 V2000
   36.8810   28.7170   40.0560 C   0  0  0  0  0  0  0  0  0  0  0  0
   35.9250   27.8820   39.4610 C   0  0  0  0  0  0  0  0  0  0  0  0
   35.3390   28.3190   38.2860 C   0  0  0  0  0  0  0  0  0  0  0  0
   35.7020   29.5390   37.7400 C   0  0  0  0  0  0  0  0  0  0  0  0
   36.6480   30.3450   38.3460 C   0  0  0  0  0  0  0  0  0  0  0  0
   37.2440   29.9360   39.5100 C   0  0  0  0  0  0  0  0  0  0  0  0
   37.4910   28.2050   43.6370 C   0  0  0  0  0  0  0  0  0  0  0  0
   38.6580   27.4090   43.6530 C   0  0  0  0  0  0  0  0  0  0  0  0
   39.2290   27.0550   42.4150 C   0  0  0  0  0  0  0  0  0  0  0  0
   38.6310   27.4930   41.2830 N   0  0  0  0  0  0  0  0  0  0  0  0
   37.5030   28.2620   41.3050 C   0  0  0  0  0  0  0  0  0  0  0  0
   36.9400   28.6120   42.4830 N   0  0  0  0  0  0  0  0  0  0  0  0
   38.2080   30.8180   40.0540 N   0  0  0  0  0  0  0  0  0  0  0  0
   39.6550   30.8920   40.0810 C   0  0  0  0  0  0  0  0  0  0  0  0
   40.1020   31.9900   39.1090 C   0  0  0  0  0  0  0  0  0  0  0  0
   39.2380   33.0480   39.2490 O   0  0  0  0  0  0  0  0  0  0  0  0
   38.7320   33.1330   40.5200 C   0  0  0  0  0  0  0  0  0  0  0  0
   37.7510   32.0020   40.8020 C   0  0  0  0  0  0  0  0  0  0  0  0
   35.6511   26.9163   39.9109 H   0  0  0  0  0  0  0  0  0  0  0  0
   34.5835   27.6962   37.7847 H   0  0  0  0  0  0  0  0  0  0  0  0
   35.2281   29.8735   36.8054 H   0  0  0  0  0  0  0  0  0  0  0  0
   36.9210   31.3107   37.8955 H   0  0  0  0  0  0  0  0  0  0  0  0
   37.0246   28.4970   44.5895 H   0  0  0  0  0  0  0  0  0  0  0  0
   39.1060   27.0766   44.6011 H   0  0  0  0  0  0  0  0  0  0  0  0
   40.1384   26.4378   42.3696 H   0  0  0  0  0  0  0  0  0  0  0  0
   39.9956   31.1353   41.0983 H   0  0  0  0  0  0  0  0  0  0  0  0
   40.0883   29.9255   39.7843 H   0  0  0  0  0  0  0  0  0  0  0  0
   40.0682   31.6127   38.0763 H   0  0  0  0  0  0  0  0  0  0  0  0
   41.1334   32.3029   39.3289 H   0  0  0  0  0  0  0  0  0  0  0  0
   39.5613   33.0760   41.2404 H   0  0  0  0  0  0  0  0  0  0  0  0
   38.1969   34.0891   40.6175 H   0  0  0  0  0  0  0  0  0  0  0  0
   36.7424   32.2890   40.4699 H   0  0  0  0  0  0  0  0  0  0  0  0
   37.7107   31.7858   41.8798 H   0  0  0  0  0  0  0  0  0  0  0  0
  1 11  1  0
  2  1  2  0
  3  2  1  0
  4  3  2  0
  4  5  1  0
  5  6  2  0
  6 13  1  0
  6  1  1  0
  7  8  2  0
  9  8  1  0
 10 11  1  0
 10  9  2  0
 11 12  2  0
 12  7  1  0
 13 14  1  0
 13 18  1  0
 15 16  1  0
 15 14  1  0
 16 17  1  0
 17 18  1  0
  2 19  1  0
  3 20  1  0
  4 21  1  0
  5 22  1  0
  7 23  1  0
  8 24  1  0
  9 25  1  0
 14 26  1  0
 14 27  1  0
 15 28  1  0
 15 29  1  0
 17 30  1  0
 17 31  1  0
 18 32  1  0
 18 33  1  0
M  ISO  8  19  14  20  14  21  14  22  14  23  14  24  14  25  14  26  13
M  ISO  7  27  13  28  13  29  13  30  13  31  13  32  13  33  13
M  END
>  <minimizedAffinity>  (1) 
-4.60095167

>  <minimizedRMSD>  (1) 
3.59897232

$$$$
