
     RDKit          3D

 25 27  0  0  0  0  0  0  0  0999 V2000
   37.9380   30.6180   41.2410 C   0  0  0  0  0  0  0  0  0  0  0  0
   36.8900   31.3170   40.6090 C   0  0  0  0  0  0  0  0  0  0  0  0
   37.1380   32.5650   40.0910 C   0  0  0  0  0  0  0  0  0  0  0  0
   38.4050   33.0990   40.2010 C   0  0  0  0  0  0  0  0  0  0  0  0
   39.4350   32.3840   40.8340 C   0  0  0  0  0  0  0  0  0  0  0  0
   39.2180   31.1220   41.3670 C   0  0  0  0  0  0  0  0  0  0  0  0
   37.1810   28.0480   43.7500 C   0  0  0  0  0  0  0  0  0  0  0  0
   36.9660   26.8890   42.9570 C   0  0  0  0  0  0  0  0  0  0  0  0
   37.0900   26.9930   41.5350 C   0  0  0  0  0  0  0  0  0  0  0  0
   37.4110   28.2100   41.0210 N   0  0  0  0  0  0  0  0  0  0  0  0
   37.6090   29.3000   41.8250 C   0  0  0  0  0  0  0  0  0  0  0  0
   37.4880   29.1800   43.1460 N   0  0  0  0  0  0  0  0  0  0  0  0
   40.3690   30.4710   41.9580 C   0  0  0  0  0  0  0  0  0  0  0  0
   41.1290   31.1460   42.8280 N   0  0  0  0  0  0  0  0  0  0  0  0
   42.1320   30.4590   43.2610 O   0  0  0  0  0  0  0  0  0  0  0  0
   42.0910   29.2860   42.6990 C   0  0  0  0  0  0  0  0  0  0  0  0
   41.0220   29.3250   41.9240 N   0  0  0  0  0  0  0  0  0  0  0  0
   35.8880   30.8698   40.5316 H   0  0  0  0  0  0  0  0  0  0  0  0
   36.3362   33.1313   39.5947 H   0  0  0  0  0  0  0  0  0  0  0  0
   38.6114   34.0973   39.7878 H   0  0  0  0  0  0  0  0  0  0  0  0
   40.4356   32.8347   40.9087 H   0  0  0  0  0  0  0  0  0  0  0  0
   37.0933   28.0024   44.8455 H   0  0  0  0  0  0  0  0  0  0  0  0
   36.7088   25.9286   43.4276 H   0  0  0  0  0  0  0  0  0  0  0  0
   36.9316   26.1215   40.8828 H   0  0  0  0  0  0  0  0  0  0  0  0
   42.7906   28.4486   42.8383 H   0  0  0  0  0  0  0  0  0  0  0  0
  1  6  1  0
  1 11  1  0
  2  1  2  0
  3  4  2  0
  3  2  1  0
  4  5  1  0
  5  6  2  0
  6 13  1  0
  8  7  2  0
  9  8  1  0
 10  9  2  0
 10 11  1  0
 11 12  2  0
 12  7  1  0
 13 14  2  0
 14 15  1  0
 16 15  1  0
 17 13  1  0
 17 16  2  0
  2 18  1  0
  3 19  1  0
  4 20  1  0
  5 21  1  0
  7 22  1  0
  8 23  1  0
  9 24  1  0
 16 25  1  0
M  ISO  8  18  14  19  14  20  14  21  14  22  14  23  14  24  14  25  14
M  END
>  <minimizedAffinity>  (1) 
-4.44751978

>  <minimizedRMSD>  (1) 
1.06762171

$$$$
