
     RDKit          3D

 23 24  0  0  0  0  0  0  0  0999 V2000
   37.8810   30.8400   41.0380 C   0  0  0  0  0  0  0  0  0  0  0  0
   36.8350   31.3270   40.2520 C   0  0  0  0  0  0  0  0  0  0  0  0
   36.9700   32.5780   39.6820 C   0  0  0  0  0  0  0  0  0  0  0  0
   38.1290   33.3010   39.9100 C   0  0  0  0  0  0  0  0  0  0  0  0
   39.1510   32.8000   40.6910 C   0  0  0  0  0  0  0  0  0  0  0  0
   39.0320   31.5680   41.2590 C   0  0  0  0  0  0  0  0  0  0  0  0
   37.2510   28.1820   43.4750 C   0  0  0  0  0  0  0  0  0  0  0  0
   37.4450   27.0090   42.7480 C   0  0  0  0  0  0  0  0  0  0  0  0
   37.7970   27.1350   41.3970 C   0  0  0  0  0  0  0  0  0  0  0  0
   37.9220   28.3810   40.9090 N   0  0  0  0  0  0  0  0  0  0  0  0
   37.7330   29.5040   41.6180 C   0  0  0  0  0  0  0  0  0  0  0  0
   37.4010   29.3570   42.8860 N   0  0  0  0  0  0  0  0  0  0  0  0
   40.1820   31.1670   42.0960 C   0  0  0  0  0  0  0  0  0  0  0  0
   40.5730   29.8750   41.8310 F   0  0  0  0  0  0  0  0  0  0  0  0
   41.2570   32.0360   41.9460 F   0  0  0  0  0  0  0  0  0  0  0  0
   39.8820   31.2220   43.4460 F   0  0  0  0  0  0  0  0  0  0  0  0
   35.9258   30.7293   40.0906 H   0  0  0  0  0  0  0  0  0  0  0  0
   36.1676   32.9944   39.0553 H   0  0  0  0  0  0  0  0  0  0  0  0
   38.2377   34.2980   39.4581 H   0  0  0  0  0  0  0  0  0  0  0  0
   40.0612   33.3957   40.8545 H   0  0  0  0  0  0  0  0  0  0  0  0
   36.9733   28.1309   44.5381 H   0  0  0  0  0  0  0  0  0  0  0  0
   37.3263   26.0210   43.2169 H   0  0  0  0  0  0  0  0  0  0  0  0
   37.9638   26.2516   40.7632 H   0  0  0  0  0  0  0  0  0  0  0  0
  1  6  1  0
  1 11  1  0
  2  1  2  0
  3  4  2  0
  3  2  1  0
  4  5  1  0
  5  6  2  0
  6 13  1  0
  8  7  2  0
  9  8  1  0
 10  9  2  0
 10 11  1  0
 11 12  2  0
 12  7  1  0
 13 16  1  0
 14 13  1  0
 15 13  1  0
  2 17  1  0
  3 18  1  0
  4 19  1  0
  5 20  1  0
  7 21  1  0
  8 22  1  0
  9 23  1  0
M  ISO  7  17  14  18  14  19  14  20  14  21  14  22  14  23  14
M  END
>  <minimizedAffinity>  (1) 
-4.41919804

>  <minimizedRMSD>  (1) 
0.961376548

$$$$
