
     RDKit          3D

 31 33  0  0  0  0  0  0  0  0999 V2000
   37.8560   28.8370   43.3990 C   0  0  0  0  0  0  0  0  0  0  0  0
   37.2850   27.5750   43.1180 C   0  0  0  0  0  0  0  0  0  0  0  0
   36.6980   27.3710   41.8770 C   0  0  0  0  0  0  0  0  0  0  0  0
   36.7170   28.4050   41.0120 N   0  0  0  0  0  0  0  0  0  0  0  0
   37.2500   29.5930   41.2640 C   0  0  0  0  0  0  0  0  0  0  0  0
   37.8210   29.7970   42.4710 N   0  0  0  0  0  0  0  0  0  0  0  0
   37.2740   30.6890   40.3780 N   0  0  0  0  0  0  0  0  0  0  0  0
   37.7860   31.8240   40.8330 N   0  0  0  0  0  0  0  0  0  0  0  0
   37.7140   32.7570   39.8520 C   0  0  0  0  0  0  0  0  0  0  0  0
   37.1290   32.1290   38.7780 C   0  0  0  0  0  0  0  0  0  0  0  0
   36.8570   30.8250   39.1160 C   0  0  0  0  0  0  0  0  0  0  0  0
   36.2820   29.8840   38.2710 N   0  0  0  0  0  0  0  0  0  0  0  0
   34.9940   29.2790   38.0040 C   0  0  0  0  0  0  0  0  0  0  0  0
   34.9570   28.4360   36.7730 C   0  0  0  0  0  0  0  0  0  0  0  0
   35.6150   28.9640   35.6230 N   0  0  0  0  0  0  0  0  0  0  0  0
   36.7100   29.8500   35.9490 C   0  0  0  0  0  0  0  0  0  0  0  0
   37.2360   29.3190   37.2940 C   0  0  0  0  0  0  0  0  0  0  0  0
   38.3260   29.0272   44.3752 H   0  0  0  0  0  0  0  0  0  0  0  0
   37.3054   26.7705   43.8679 H   0  0  0  0  0  0  0  0  0  0  0  0
   36.2375   26.4081   41.6109 H   0  0  0  0  0  0  0  0  0  0  0  0
   38.0538   33.8019   39.9046 H   0  0  0  0  0  0  0  0  0  0  0  0
   36.9134   32.5950   37.8052 H   0  0  0  0  0  0  0  0  0  0  0  0
   34.7252   28.6468   38.8631 H   0  0  0  0  0  0  0  0  0  0  0  0
   34.2846   30.1042   37.8432 H   0  0  0  0  0  0  0  0  0  0  0  0
   35.4269   27.4710   37.0139 H   0  0  0  0  0  0  0  0  0  0  0  0
   33.8944   28.3688   36.4966 H   0  0  0  0  0  0  0  0  0  0  0  0
   34.9264   29.4870   35.0633 H   0  0  0  0  0  0  0  0  0  0  0  0
   37.4929   29.8031   35.1778 H   0  0  0  0  0  0  0  0  0  0  0  0
   36.3981   30.9034   36.0043 H   0  0  0  0  0  0  0  0  0  0  0  0
   37.2214   28.2194   37.3178 H   0  0  0  0  0  0  0  0  0  0  0  0
   38.2798   29.6030   37.4936 H   0  0  0  0  0  0  0  0  0  0  0  0
  2  1  2  0
  3  2  1  0
  4  5  1  0
  4  3  2  0
  5  6  2  0
  6  1  1  0
  7  8  1  0
  7  5  1  0
  9  8  2  0
 10 11  2  0
 10  9  1  0
 11  7  1  0
 12 11  1  0
 13 12  1  0
 14 13  1  0
 15 16  1  0
 15 14  1  0
 16 17  1  0
 17 12  1  0
  1 18  1  0
  2 19  1  0
  3 20  1  0
  9 21  1  0
 10 22  1  0
 13 23  1  0
 13 24  1  0
 14 25  1  0
 14 26  1  0
 15 27  1  0
 16 28  1  0
 16 29  1  0
 17 30  1  0
 17 31  1  0
M  ISO  8  18  14  19  14  20  14  21  14  22  14  23  13  24  13  25  13
M  ISO  6  26  13  27   5  28  13  29  13  30  13  31  13
M  END
>  <minimizedAffinity>  (1) 
-4.48163319

>  <minimizedRMSD>  (1) 
1.84873998

$$$$
