
     RDKit          3D

 41 43  0  0  1  0  0  0  0  0999 V2000
   41.1100   32.7050   38.5970 N   0  0  0  0  0  0  0  0  0  0  0  0
   41.3600   32.2470   37.2430 C   0  0  0  0  0  0  0  0  0  0  0  0
   42.6270   31.5260   37.0110 C   0  0  0  0  0  0  0  0  0  0  0  0
   43.1950   30.9600   38.2070 N   0  0  0  0  0  0  0  0  0  0  0  0
   42.1060   30.5860   39.0960 C   0  0  0  0  0  0  0  0  0  0  0  0
   41.5320   31.8420   39.6900 C   0  0  1  0  0  0  0  0  0  0  0  0
   39.2600   33.9700   39.7840 C   0  0  0  0  0  0  0  0  0  0  0  0
   38.8310   35.1400   40.3570 C   0  0  0  0  0  0  0  0  0  0  0  0
   39.6850   36.2300   40.3410 C   0  0  0  0  0  0  0  0  0  0  0  0
   40.9300   36.1040   39.7530 C   0  0  0  0  0  0  0  0  0  0  0  0
   41.3450   34.9110   39.1780 C   0  0  0  0  0  0  0  0  0  0  0  0
   40.5160   33.8370   39.1910 C   0  0  0  0  0  0  0  0  0  0  0  0
   37.2130   31.1370   40.9020 C   0  0  0  0  0  0  0  0  0  0  0  0
   36.6200   30.6640   39.7280 C   0  0  0  0  0  0  0  0  0  0  0  0
   36.9290   31.3320   38.5470 C   0  0  0  0  0  0  0  0  0  0  0  0
   37.7700   32.3700   38.6390 N   0  0  0  0  0  0  0  0  0  0  0  0
   38.3380   32.8210   39.7780 C   0  0  0  0  0  0  0  0  0  0  0  0
   38.0350   32.1790   40.8780 N   0  0  0  0  0  0  0  0  0  0  0  0
   42.3500   32.4330   40.6860 N   0  0  0  0  0  0  0  0  0  0  0  0
   41.8080   31.9790   41.9560 C   0  0  0  0  0  0  0  0  0  0  0  0
   40.6570   31.5370   42.4220 N   0  0  0  0  0  0  0  0  0  0  0  0
   42.3390   31.8250   43.2910 N   0  0  0  0  0  0  0  0  0  0  0  0
   39.8730   31.4670   41.7500 H   0  0  0  0  0  0  0  0  0  0  0  0
   40.5369   31.5738   36.9614 H   0  0  0  0  0  0  0  0  0  0  0  0
   41.4326   33.1620   36.6368 H   0  0  0  0  0  0  0  0  0  0  0  0
   42.4378   30.7113   36.2965 H   0  0  0  0  0  0  0  0  0  0  0  0
   43.3503   32.2600   36.6262 H   0  0  0  0  0  0  0  0  0  0  0  0
   43.7514   30.1269   37.9680 H   0  0  0  0  0  0  0  0  0  0  0  0
   41.3285   30.0533   38.5288 H   0  0  0  0  0  0  0  0  0  0  0  0
   42.4762   29.9238   39.8925 H   0  0  0  0  0  0  0  0  0  0  0  0
   40.6364   31.6085   40.2844 H   0  0  0  0  0  0  0  0  0  0  0  0
   37.8344   35.2107   40.8173 H   0  0  0  0  0  0  0  0  0  0  0  0
   39.3764   37.1851   40.7909 H   0  0  0  0  0  0  0  0  0  0  0  0
   41.6079   36.9702   39.7406 H   0  0  0  0  0  0  0  0  0  0  0  0
   42.3398   34.8366   38.7146 H   0  0  0  0  0  0  0  0  0  0  0  0
   36.9956   30.6392   41.8585 H   0  0  0  0  0  0  0  0  0  0  0  0
   35.9383   29.8007   39.7372 H   0  0  0  0  0  0  0  0  0  0  0  0
   36.5019   31.0216   37.5820 H   0  0  0  0  0  0  0  0  0  0  0  0
   43.1588   33.0539   40.5402 H   0  0  0  0  0  0  0  0  0  0  0  0
   41.7358   31.4722   44.0477 H   0  0  0  0  0  0  0  0  0  0  0  0
   43.3207   32.0680   43.4860 H   0  0  0  0  0  0  0  0  0  0  0  0
  1 12  1  0
  1  6  1  0
  2  1  1  0
  3  2  1  0
  3  4  1  0
  4  5  1  0
  5  6  1  0
  6 19  1  0
  7  8  2  0
  9  8  1  0
 10  9  2  0
 11 12  2  0
 11 10  1  0
 12  7  1  0
 14 13  2  0
 15 16  2  0
 15 14  1  0
 16 17  1  0
 17  7  1  0
 17 18  2  0
 18 13  1  0
 19 20  1  0
 20 21  2  0
 20 22  1  0
 23 21  1  0
  2 24  1  0
  2 25  1  0
  3 26  1  0
  3 27  1  0
  4 28  1  0
  5 29  1  0
  5 30  1  0
  6 31  1  1
  8 32  1  0
  9 33  1  0
 10 34  1  0
 11 35  1  0
 13 36  1  0
 14 37  1  0
 15 38  1  0
 19 39  1  0
 22 40  1  0
 22 41  1  0
M  ISO  8  24  13  25  13  26  13  27  13  28   5  29  13  30  13  31  13
M  ISO  7  32  14  33  14  34  14  35  14  36  14  37  14  38  14
M  END
>  <minimizedAffinity>  (1) 
-5.77157164

>  <minimizedRMSD>  (1) 
4.00339699

$$$$
