
     RDKit          3D

 42 45  0  0  1  0  0  0  0  0999 V2000
   37.4820   28.8510   41.6110 N   0  0  0  0  0  0  0  0  0  0  0  0
   37.2490   29.1840   43.0020 C   0  0  0  0  0  0  0  0  0  0  0  0
   37.4860   28.1010   43.9740 C   0  0  0  0  0  0  0  0  0  0  0  0
   38.3930   27.0700   43.4930 N   0  0  0  0  0  0  0  0  0  0  0  0
   39.3350   27.6950   42.5800 C   0  0  0  0  0  0  0  0  0  0  0  0
   38.5850   27.9660   41.2850 C   0  0  1  0  0  0  0  0  0  0  0  0
   37.2280   30.1830   39.4620 C   0  0  0  0  0  0  0  0  0  0  0  0
   36.5700   30.3570   38.2650 C   0  0  0  0  0  0  0  0  0  0  0  0
   35.5280   29.4950   37.9580 C   0  0  0  0  0  0  0  0  0  0  0  0
   35.1850   28.4960   38.8600 C   0  0  0  0  0  0  0  0  0  0  0  0
   35.8630   28.3460   40.0530 C   0  0  0  0  0  0  0  0  0  0  0  0
   36.8870   29.1790   40.3700 C   0  0  0  0  0  0  0  0  0  0  0  0
   40.5310   31.7570   39.6110 C   0  0  0  0  0  0  0  0  0  0  0  0
   40.3360   32.8700   40.4360 C   0  0  0  0  0  0  0  0  0  0  0  0
   39.0510   33.0770   40.9420 C   0  0  0  0  0  0  0  0  0  0  0  0
   38.1150   32.1860   40.5910 N   0  0  0  0  0  0  0  0  0  0  0  0
   38.3140   31.1130   39.7920 C   0  0  0  0  0  0  0  0  0  0  0  0
   39.5260   30.9340   39.3270 N   0  0  0  0  0  0  0  0  0  0  0  0
   38.1800   26.6180   40.7980 C   0  0  0  0  0  0  0  0  0  0  0  0
   37.2300   25.7850   41.4030 C   0  0  0  0  0  0  0  0  0  0  0  0
   36.9000   24.5770   40.8240 C   0  0  0  0  0  0  0  0  0  0  0  0
   37.5090   24.2180   39.6700 N   0  0  0  0  0  0  0  0  0  0  0  0
   38.4200   25.0640   39.1300 C   0  0  0  0  0  0  0  0  0  0  0  0
   38.8120   26.2760   39.6260 N   0  0  0  0  0  0  0  0  0  0  0  0
   37.9122   30.0218   43.2632 H   0  0  0  0  0  0  0  0  0  0  0  0
   36.1769   29.4190   43.0752 H   0  0  0  0  0  0  0  0  0  0  0  0
   37.9138   28.5413   44.8867 H   0  0  0  0  0  0  0  0  0  0  0  0
   36.5160   27.6155   44.1564 H   0  0  0  0  0  0  0  0  0  0  0  0
   38.8995   26.6515   44.2862 H   0  0  0  0  0  0  0  0  0  0  0  0
   39.7054   28.6388   43.0068 H   0  0  0  0  0  0  0  0  0  0  0  0
   40.2022   27.0419   42.4024 H   0  0  0  0  0  0  0  0  0  0  0  0
   39.1565   28.4681   40.4905 H   0  0  0  0  0  0  0  0  0  0  0  0
   36.8631   31.1584   37.5708 H   0  0  0  0  0  0  0  0  0  0  0  0
   34.9792   29.6012   37.0106 H   0  0  0  0  0  0  0  0  0  0  0  0
   34.3580   27.8119   38.6193 H   0  0  0  0  0  0  0  0  0  0  0  0
   35.5719   27.5470   40.7508 H   0  0  0  0  0  0  0  0  0  0  0  0
   41.5288   31.5602   39.1918 H   0  0  0  0  0  0  0  0  0  0  0  0
   41.1623   33.5550   40.6766 H   0  0  0  0  0  0  0  0  0  0  0  0
   38.8191   33.9300   41.5967 H   0  0  0  0  0  0  0  0  0  0  0  0
   36.7464   26.0946   42.3412 H   0  0  0  0  0  0  0  0  0  0  0  0
   36.1548   23.9171   41.2922 H   0  0  0  0  0  0  0  0  0  0  0  0
   38.8948   24.7406   38.1920 H   0  0  0  0  0  0  0  0  0  0  0  0
  1  2  1  0
  2  3  1  0
  4  3  1  0
  5  4  1  0
  6  1  1  0
  6  5  1  0
  7 17  1  0
  7 12  1  0
  8  7  2  0
  9  8  1  0
  9 10  2  0
 10 11  1  0
 11 12  2  0
 12  1  1  0
 13 14  2  0
 14 15  1  0
 16 15  2  0
 17 16  1  0
 18 13  1  0
 18 17  2  0
 19  6  1  0
 19 20  2  0
 21 20  1  0
 22 21  2  0
 23 24  2  0
 23 22  1  0
 24 19  1  0
  2 25  1  0
  2 26  1  0
  3 27  1  0
  3 28  1  0
  4 29  1  0
  5 30  1  0
  5 31  1  0
  6 32  1  6
  8 33  1  0
  9 34  1  0
 10 35  1  0
 11 36  1  0
 13 37  1  0
 14 38  1  0
 15 39  1  0
 20 40  1  0
 21 41  1  0
 23 42  1  0
M  ISO  8  25  13  26  13  27  13  28  13  29   5  30  13  31  13  32  13
M  ISO  8  33  14  34  14  35  14  36  14  37  14  38  14  39  14  40  14
M  ISO  2  41  14  42  14
M  END
>  <minimizedAffinity>  (1) 
-5.37622166

>  <minimizedRMSD>  (1) 
5.43531418

$$$$
