
     RDKit          3D

 43 46  0  0  1  0  0  0  0  0999 V2000
   39.0230   28.6980   39.1000 N   0  0  0  0  0  0  0  0  0  0  0  0
   40.1230   28.2000   38.2970 C   0  0  0  0  0  0  0  0  0  0  0  0
   40.7590   26.9560   38.7650 C   0  0  0  0  0  0  0  0  0  0  0  0
   39.9040   26.1490   39.6190 N   0  0  0  0  0  0  0  0  0  0  0  0
   38.5290   26.3610   39.2130 C   0  0  0  0  0  0  0  0  0  0  0  0
   38.1130   27.7400   39.6960 C   0  0  1  0  0  0  0  0  0  0  0  0
   37.3770   30.6350   39.0860 C   0  0  0  0  0  0  0  0  0  0  0  0
   37.0200   31.8680   39.5970 C   0  0  0  0  0  0  0  0  0  0  0  0
   37.8460   32.4570   40.5400 C   0  0  0  0  0  0  0  0  0  0  0  0
   39.0060   31.7920   40.9380 C   0  0  0  0  0  0  0  0  0  0  0  0
   39.3420   30.5620   40.4130 C   0  0  0  0  0  0  0  0  0  0  0  0
   38.5370   29.9750   39.4920 C   0  0  0  0  0  0  0  0  0  0  0  0
   34.5590   28.9350   37.5060 C   0  0  0  0  0  0  0  0  0  0  0  0
   34.9080   28.8950   36.1460 C   0  0  0  0  0  0  0  0  0  0  0  0
   36.1290   29.4620   35.7850 C   0  0  0  0  0  0  0  0  0  0  0  0
   36.8580   29.9950   36.7710 N   0  0  0  0  0  0  0  0  0  0  0  0
   36.5150   30.0310   38.0760 C   0  0  0  0  0  0  0  0  0  0  0  0
   35.3660   29.4950   38.4040 N   0  0  0  0  0  0  0  0  0  0  0  0
   38.0580   27.7400   41.1770 C   0  0  0  0  0  0  0  0  0  0  0  0
   39.0740   27.7970   42.1440 C   0  0  0  0  0  0  0  0  0  0  0  0
   38.7260   27.8470   43.4570 C   0  0  0  0  0  0  0  0  0  0  0  0
   37.4180   27.8450   43.8900 C   0  0  0  0  0  0  0  0  0  0  0  0
   36.4480   27.7880   42.9110 C   0  0  0  0  0  0  0  0  0  0  0  0
   36.7440   27.7360   41.5770 N   0  0  0  0  0  0  0  0  0  0  0  0
   40.8966   28.9814   38.2661 H   0  0  0  0  0  0  0  0  0  0  0  0
   39.6858   27.9566   37.3174 H   0  0  0  0  0  0  0  0  0  0  0  0
   41.0375   26.3562   37.8860 H   0  0  0  0  0  0  0  0  0  0  0  0
   41.6320   27.2478   39.3673 H   0  0  0  0  0  0  0  0  0  0  0  0
   40.1484   25.1537   39.5164 H   0  0  0  0  0  0  0  0  0  0  0  0
   38.4494   26.3079   38.1172 H   0  0  0  0  0  0  0  0  0  0  0  0
   37.8760   25.5881   39.6445 H   0  0  0  0  0  0  0  0  0  0  0  0
   37.1000   28.0292   39.3794 H   0  0  0  0  0  0  0  0  0  0  0  0
   36.1005   32.3706   39.2625 H   0  0  0  0  0  0  0  0  0  0  0  0
   37.5905   33.4368   40.9697 H   0  0  0  0  0  0  0  0  0  0  0  0
   39.6654   32.2579   41.6851 H   0  0  0  0  0  0  0  0  0  0  0  0
   40.2625   30.0568   40.7408 H   0  0  0  0  0  0  0  0  0  0  0  0
   33.6046   28.4970   37.8337 H   0  0  0  0  0  0  0  0  0  0  0  0
   34.2457   28.4356   35.3975 H   0  0  0  0  0  0  0  0  0  0  0  0
   36.4756   29.4706   34.7411 H   0  0  0  0  0  0  0  0  0  0  0  0
   40.1325   27.8011   41.8446 H   0  0  0  0  0  0  0  0  0  0  0  0
   39.5268   27.8912   44.2098 H   0  0  0  0  0  0  0  0  0  0  0  0
   37.1611   27.8866   44.9588 H   0  0  0  0  0  0  0  0  0  0  0  0
   35.3913   27.7842   43.2164 H   0  0  0  0  0  0  0  0  0  0  0  0
  1 12  1  0
  1  6  1  0
  2  3  1  0
  2  1  1  0
  3  4  1  0
  5  4  1  0
  5  6  1  0
  6 19  1  0
  7 12  1  0
  7  8  2  0
  8  9  1  0
  9 10  2  0
 11 10  1  0
 12 11  2  0
 13 18  2  0
 14 13  1  0
 15 14  2  0
 15 16  1  0
 16 17  2  0
 17 18  1  0
 17  7  1  0
 19 24  1  0
 19 20  2  0
 20 21  1  0
 21 22  2  0
 23 22  1  0
 24 23  2  0
  2 25  1  0
  2 26  1  0
  3 27  1  0
  3 28  1  0
  4 29  1  0
  5 30  1  0
  5 31  1  0
  6 32  1  6
  8 33  1  0
  9 34  1  0
 10 35  1  0
 11 36  1  0
 13 37  1  0
 14 38  1  0
 15 39  1  0
 20 40  1  0
 21 41  1  0
 22 42  1  0
 23 43  1  0
M  ISO  8  25  13  26  13  27  13  28  13  29   5  30  13  31  13  32  13
M  ISO  8  33  14  34  14  35  14  36  14  37  14  38  14  39  14  40  14
M  ISO  3  41  14  42  14  43  14
M  END
>  <minimizedAffinity>  (1) 
-5.19141817

>  <minimizedRMSD>  (1) 
3.20477104

$$$$
