
     RDKit          3D

 31 33  0  0  1  0  0  0  0  0999 V2000
   40.0460   28.6660   42.8820 N   0  0  0  0  0  0  0  0  0  0  0  0
   40.8020   29.8540   42.4920 C   0  0  0  0  0  0  0  0  0  0  0  0
   42.0420   29.2770   41.8160 C   0  0  0  0  0  0  0  0  0  0  0  0
   42.8450   28.7130   42.8600 N   0  0  0  0  0  0  0  0  0  0  0  0
   42.1870   27.8330   43.7370 C   0  0  0  0  0  0  0  0  0  0  0  0
   40.7230   27.6240   43.5710 C   0  0  2  0  0  0  0  0  0  0  0  0
   38.6580   28.4910   42.6090 C   0  0  0  0  0  0  0  0  0  0  0  0
   37.7330   28.1020   43.5760 C   0  0  0  0  0  0  0  0  0  0  0  0
   36.4020   27.9660   43.2020 C   0  0  0  0  0  0  0  0  0  0  0  0
   36.0750   28.2230   41.9000 N   0  0  0  0  0  0  0  0  0  0  0  0
   36.9950   28.6010   40.9780 C   0  0  0  0  0  0  0  0  0  0  0  0
   38.2680   28.7290   41.3460 N   0  0  0  0  0  0  0  0  0  0  0  0
   40.4690   26.3130   42.9990 N   0  0  0  0  0  0  0  0  0  0  0  0
   39.9530   25.2770   43.6330 N   0  0  0  0  0  0  0  0  0  0  0  0
   39.8450   24.2050   42.8260 C   0  0  0  0  0  0  0  0  0  0  0  0
   40.3250   24.5840   41.5890 C   0  0  0  0  0  0  0  0  0  0  0  0
   40.7050   25.8910   41.7230 C   0  0  0  0  0  0  0  0  0  0  0  0
   40.2249   30.4755   41.7915 H   0  0  0  0  0  0  0  0  0  0  0  0
   41.0418   30.5091   43.3425 H   0  0  0  0  0  0  0  0  0  0  0  0
   41.7545   28.4984   41.0941 H   0  0  0  0  0  0  0  0  0  0  0  0
   42.5927   30.0524   41.2633 H   0  0  0  0  0  0  0  0  0  0  0  0
   43.6192   28.1970   42.4181 H   0  0  0  0  0  0  0  0  0  0  0  0
   42.6689   26.8498   43.6317 H   0  0  0  0  0  0  0  0  0  0  0  0
   42.2790   28.3164   44.7208 H   0  0  0  0  0  0  0  0  0  0  0  0
   40.2858   27.6616   44.5797 H   0  0  0  0  0  0  0  0  0  0  0  0
   38.0494   27.9072   44.6113 H   0  0  0  0  0  0  0  0  0  0  0  0
   35.6360   27.6613   43.9302 H   0  0  0  0  0  0  0  0  0  0  0  0
   36.6931   28.7994   39.9390 H   0  0  0  0  0  0  0  0  0  0  0  0
   39.4496   23.2158   43.1002 H   0  0  0  0  0  0  0  0  0  0  0  0
   40.3888   23.9635   40.6829 H   0  0  0  0  0  0  0  0  0  0  0  0
   41.1363   26.5094   40.9220 H   0  0  0  0  0  0  0  0  0  0  0  0
  1  6  1  0
  2  1  1  0
  3  2  1  0
  3  4  1  0
  4  5  1  0
  6  5  1  0
  7  1  1  0
  7  8  2  0
  9  8  1  0
 10  9  2  0
 11 12  2  0
 11 10  1  0
 12  7  1  0
 13  6  1  0
 13 14  1  0
 15 14  2  0
 16 17  2  0
 16 15  1  0
 17 13  1  0
  2 18  1  0
  2 19  1  0
  3 20  1  0
  3 21  1  0
  4 22  1  0
  5 23  1  0
  5 24  1  0
  6 25  1  1
  8 26  1  0
  9 27  1  0
 11 28  1  0
 15 29  1  0
 16 30  1  0
 17 31  1  0
M  ISO  8  18  13  19  13  20  13  21  13  22   5  23  13  24  13  25  13
M  ISO  6  26  14  27  14  28  14  29  14  30  14  31  14
M  END
>  <minimizedAffinity>  (1) 
-3.46043849

>  <minimizedRMSD>  (1) 
1.81918395

$$$$
