
     RDKit          3D

 39 42  0  0  1  0  0  0  0  0999 V2000
   36.4230   28.4310   39.9060 N   0  0  0  0  0  0  0  0  0  0  0  0
   35.2390   28.7020   39.1330 C   0  0  0  0  0  0  0  0  0  0  0  0
   35.4320   29.3570   37.8190 C   0  0  0  0  0  0  0  0  0  0  0  0
   36.7400   29.1050   37.2450 N   0  0  0  0  0  0  0  0  0  0  0  0
   37.2300   27.8220   37.7210 C   0  0  0  0  0  0  0  0  0  0  0  0
   37.5910   28.0300   39.1560 C   0  0  2  0  0  0  0  0  0  0  0  0
   37.5300   29.4120   41.9520 C   0  0  0  0  0  0  0  0  0  0  0  0
   37.8240   29.2800   43.2880 C   0  0  0  0  0  0  0  0  0  0  0  0
   37.3900   28.1510   43.9620 C   0  0  0  0  0  0  0  0  0  0  0  0
   36.6800   27.1940   43.2800 C   0  0  0  0  0  0  0  0  0  0  0  0
   36.3830   27.3300   41.9210 C   0  0  0  0  0  0  0  0  0  0  0  0
   36.8160   28.4520   41.2630 C   0  0  0  0  0  0  0  0  0  0  0  0
   37.5100   32.6170   40.1760 C   0  0  0  0  0  0  0  0  0  0  0  0
   38.8640   32.8640   39.9190 C   0  0  0  0  0  0  0  0  0  0  0  0
   39.7770   31.9110   40.3680 C   0  0  0  0  0  0  0  0  0  0  0  0
   39.2820   30.8450   41.0040 N   0  0  0  0  0  0  0  0  0  0  0  0
   37.9930   30.6010   41.2530 C   0  0  0  0  0  0  0  0  0  0  0  0
   37.1740   31.5200   40.8140 N   0  0  0  0  0  0  0  0  0  0  0  0
   38.4610   27.0350   39.7270 C   0  0  0  0  0  0  0  0  0  0  0  0
   39.6360   27.2270   40.3450 N   0  0  0  0  0  0  0  0  0  0  0  0
   40.1290   26.0870   40.7240 O   0  0  0  0  0  0  0  0  0  0  0  0
   39.3010   25.1360   40.3680 C   0  0  0  0  0  0  0  0  0  0  0  0
   38.2650   25.6890   39.7520 N   0  0  0  0  0  0  0  0  0  0  0  0
   34.7318   27.7424   38.9546 H   0  0  0  0  0  0  0  0  0  0  0  0
   34.6648   29.4243   39.7318 H   0  0  0  0  0  0  0  0  0  0  0  0
   34.6664   28.9810   37.1244 H   0  0  0  0  0  0  0  0  0  0  0  0
   35.3465   30.4422   37.9774 H   0  0  0  0  0  0  0  0  0  0  0  0
   37.3912   29.8502   37.5305 H   0  0  0  0  0  0  0  0  0  0  0  0
   36.4463   27.0554   37.6306 H   0  0  0  0  0  0  0  0  0  0  0  0
   38.0926   27.4751   37.1331 H   0  0  0  0  0  0  0  0  0  0  0  0
   38.2801   28.8846   39.2250 H   0  0  0  0  0  0  0  0  0  0  0  0
   38.3953   30.0592   43.8138 H   0  0  0  0  0  0  0  0  0  0  0  0
   37.6116   28.0223   45.0317 H   0  0  0  0  0  0  0  0  0  0  0  0
   36.3362   26.2975   43.8167 H   0  0  0  0  0  0  0  0  0  0  0  0
   35.8135   26.5527   41.3904 H   0  0  0  0  0  0  0  0  0  0  0  0
   36.7399   33.3309   39.8485 H   0  0  0  0  0  0  0  0  0  0  0  0
   39.1924   33.7690   39.3869 H   0  0  0  0  0  0  0  0  0  0  0  0
   40.8583   32.0313   40.2058 H   0  0  0  0  0  0  0  0  0  0  0  0
   39.4415   24.0602   40.5495 H   0  0  0  0  0  0  0  0  0  0  0  0
  1 12  1  0
  2  1  1  0
  3  2  1  0
  4  5  1  0
  4  3  1  0
  5  6  1  0
  6 19  1  0
  6  1  1  0
  7  8  2  0
  8  9  1  0
 10  9  2  0
 11 10  1  0
 12 11  2  0
 12  7  1  0
 13 18  2  0
 14 13  1  0
 14 15  2  0
 15 16  1  0
 16 17  2  0
 17  7  1  0
 18 17  1  0
 19 23  1  0
 19 20  2  0
 20 21  1  0
 22 21  1  0
 23 22  2  0
  2 24  1  0
  2 25  1  0
  3 26  1  0
  3 27  1  0
  4 28  1  0
  5 29  1  0
  5 30  1  0
  6 31  1  6
  8 32  1  0
  9 33  1  0
 10 34  1  0
 11 35  1  0
 13 36  1  0
 14 37  1  0
 15 38  1  0
 22 39  1  0
M  ISO  8  24  13  25  13  26  13  27  13  28   5  29  13  30  13  31  13
M  ISO  8  32  14  33  14  34  14  35  14  36  14  37  14  38  14  39  14
M  END
>  <minimizedAffinity>  (1) 
-5.15933275

>  <minimizedRMSD>  (1) 
5.43411112

$$$$
