
     RDKit          3D

 37 39  0  0  1  0  0  0  0  0999 V2000
   37.3530   31.8320   40.0100 C   0  0  0  0  0  0  0  0  0  0  0  0
   37.1670   33.0990   39.5100 C   0  0  0  0  0  0  0  0  0  0  0  0
   38.0540   34.0970   39.8920 C   0  0  0  0  0  0  0  0  0  0  0  0
   39.0820   33.7940   40.7490 C   0  0  0  0  0  0  0  0  0  0  0  0
   39.2660   32.5140   41.2500 C   0  0  0  0  0  0  0  0  0  0  0  0
   38.4010   31.5410   40.8810 C   0  0  0  0  0  0  0  0  0  0  0  0
   38.6910   30.3150   41.5400 N   0  0  0  0  0  0  0  0  0  0  0  0
   38.0790   29.5620   42.6260 C   0  0  0  0  0  0  0  0  0  0  0  0
   38.0800   28.0870   42.4900 C   0  0  0  0  0  0  0  0  0  0  0  0
   39.1220   27.6040   41.6230 N   0  0  0  0  0  0  0  0  0  0  0  0
   40.2350   28.5050   41.6640 C   0  0  0  0  0  0  0  0  0  0  0  0
   39.8760   29.7840   40.9510 C   0  0  1  0  0  0  0  0  0  0  0  0
   40.0980   29.5880   39.5350 C   0  0  0  0  0  0  0  0  0  0  0  0
   38.9280   28.8830   39.0990 F   0  0  0  0  0  0  0  0  0  0  0  0
   41.0820   28.6700   39.2300 F   0  0  0  0  0  0  0  0  0  0  0  0
   40.0600   30.6760   38.6970 F   0  0  0  0  0  0  0  0  0  0  0  0
   34.8190   29.2060   40.0640 C   0  0  0  0  0  0  0  0  0  0  0  0
   34.7520   28.7670   38.7450 C   0  0  0  0  0  0  0  0  0  0  0  0
   35.5930   29.3870   37.8250 C   0  0  0  0  0  0  0  0  0  0  0  0
   36.3900   30.3500   38.2980 N   0  0  0  0  0  0  0  0  0  0  0  0
   36.4490   30.7720   39.5790 C   0  0  0  0  0  0  0  0  0  0  0  0
   35.6510   30.1750   40.4230 N   0  0  0  0  0  0  0  0  0  0  0  0
   36.3355   33.3171   38.8237 H   0  0  0  0  0  0  0  0  0  0  0  0
   37.9335   35.1218   39.5108 H   0  0  0  0  0  0  0  0  0  0  0  0
   39.7805   34.5897   41.0473 H   0  0  0  0  0  0  0  0  0  0  0  0
   40.0989   32.2940   41.9340 H   0  0  0  0  0  0  0  0  0  0  0  0
   38.6178   29.8127   43.5516 H   0  0  0  0  0  0  0  0  0  0  0  0
   37.0185   29.8541   42.6214 H   0  0  0  0  0  0  0  0  0  0  0  0
   38.2192   27.6430   43.4867 H   0  0  0  0  0  0  0  0  0  0  0  0
   37.1180   27.7967   42.0424 H   0  0  0  0  0  0  0  0  0  0  0  0
   38.7652   27.5431   40.6587 H   0  0  0  0  0  0  0  0  0  0  0  0
   40.4873   28.7279   42.7112 H   0  0  0  0  0  0  0  0  0  0  0  0
   41.1000   28.0404   41.1681 H   0  0  0  0  0  0  0  0  0  0  0  0
   40.5132   30.6705   41.0856 H   0  0  0  0  0  0  0  0  0  0  0  0
   34.1710   28.7416   40.8219 H   0  0  0  0  0  0  0  0  0  0  0  0
   34.0637   27.9641   38.4423 H   0  0  0  0  0  0  0  0  0  0  0  0
   35.6011   29.0991   36.7634 H   0  0  0  0  0  0  0  0  0  0  0  0
  1  6  2  0
  2  3  2  0
  2  1  1  0
  3  4  1  0
  4  5  2  0
  6  5  1  0
  6  7  1  0
  7  8  1  0
  9  8  1  0
 10 11  1  0
 10  9  1  0
 12  7  1  0
 12 11  1  0
 13 12  1  0
 14 13  1  0
 15 13  1  0
 16 13  1  0
 17 22  2  0
 18 17  1  0
 19 20  1  0
 19 18  2  0
 20 21  2  0
 21  1  1  0
 21 22  1  0
  2 23  1  0
  3 24  1  0
  4 25  1  0
  5 26  1  0
  8 27  1  0
  8 28  1  0
  9 29  1  0
  9 30  1  0
 10 31  1  0
 11 32  1  0
 11 33  1  0
 12 34  1  1
 17 35  1  0
 18 36  1  0
 19 37  1  0
M  ISO  8  23  14  24  14  25  14  26  14  27  13  28  13  29  13  30  13
M  ISO  7  31   5  32  13  33  13  34  13  35  14  36  14  37  14
M  END
>  <minimizedAffinity>  (1) 
-5.14923859

>  <minimizedRMSD>  (1) 
2.56439996

$$$$
