
     RDKit          3D

 44 47  0  0  1  0  0  0  0  0999 V2000
   38.5180   28.0570   42.4260 N   0  0  0  0  0  0  0  0  0  0  0  0
   38.5940   27.4930   43.7680 C   0  0  0  0  0  0  0  0  0  0  0  0
   39.6630   26.4940   44.0020 C   0  0  0  0  0  0  0  0  0  0  0  0
   40.7650   26.6140   43.0940 N   0  0  0  0  0  0  0  0  0  0  0  0
   40.8920   27.9920   42.6780 C   0  0  0  0  0  0  0  0  0  0  0  0
   39.7570   28.2890   41.7370 C   0  0  2  0  0  0  0  0  0  0  0  0
   36.8210   27.7060   40.5920 C   0  0  0  0  0  0  0  0  0  0  0  0
   35.7810   28.2330   39.8570 C   0  0  0  0  0  0  0  0  0  0  0  0
   35.3810   29.5370   40.0990 C   0  0  0  0  0  0  0  0  0  0  0  0
   36.0360   30.2710   41.0690 C   0  0  0  0  0  0  0  0  0  0  0  0
   37.0890   29.7460   41.8170 C   0  0  0  0  0  0  0  0  0  0  0  0
   37.4670   28.4440   41.5560 C   0  0  0  0  0  0  0  0  0  0  0  0
   37.2450   24.0840   40.8400 C   0  0  0  0  0  0  0  0  0  0  0  0
   38.1000   23.7700   39.7760 C   0  0  0  0  0  0  0  0  0  0  0  0
   38.5210   24.8290   38.9730 C   0  0  0  0  0  0  0  0  0  0  0  0
   38.0730   26.0480   39.2910 N   0  0  0  0  0  0  0  0  0  0  0  0
   37.2530   26.3460   40.3150 C   0  0  0  0  0  0  0  0  0  0  0  0
   36.8780   25.3350   41.0440 N   0  0  0  0  0  0  0  0  0  0  0  0
   39.9740   29.5170   41.0060 C   0  0  0  0  0  0  0  0  0  0  0  0
   40.3990   30.6200   41.7800 C   0  0  0  0  0  0  0  0  0  0  0  0
   40.6870   31.8800   41.3150 C   0  0  0  0  0  0  0  0  0  0  0  0
   40.5650   32.1460   39.9760 C   0  0  0  0  0  0  0  0  0  0  0  0
   40.1560   31.1270   39.1460 C   0  0  0  0  0  0  0  0  0  0  0  0
   39.8900   29.9000   39.7000 C   0  0  0  0  0  0  0  0  0  0  0  0
   38.7518   28.3235   44.4718 H   0  0  0  0  0  0  0  0  0  0  0  0
   37.6486   26.9490   43.9109 H   0  0  0  0  0  0  0  0  0  0  0  0
   40.0408   26.6218   45.0271 H   0  0  0  0  0  0  0  0  0  0  0  0
   39.2185   25.5005   43.8425 H   0  0  0  0  0  0  0  0  0  0  0  0
   41.6317   26.3148   43.5632 H   0  0  0  0  0  0  0  0  0  0  0  0
   40.8363   28.6550   43.5540 H   0  0  0  0  0  0  0  0  0  0  0  0
   41.8593   28.1582   42.1814 H   0  0  0  0  0  0  0  0  0  0  0  0
   39.6970   27.5935   40.8869 H   0  0  0  0  0  0  0  0  0  0  0  0
   35.2763   27.6274   39.0899 H   0  0  0  0  0  0  0  0  0  0  0  0
   34.5535   29.9818   39.5269 H   0  0  0  0  0  0  0  0  0  0  0  0
   35.7154   31.3062   41.2579 H   0  0  0  0  0  0  0  0  0  0  0  0
   37.5988   30.3459   42.5853 H   0  0  0  0  0  0  0  0  0  0  0  0
   36.8795   23.2880   41.5054 H   0  0  0  0  0  0  0  0  0  0  0  0
   38.4240   22.7367   39.5831 H   0  0  0  0  0  0  0  0  0  0  0  0
   39.1918   24.6689   38.1160 H   0  0  0  0  0  0  0  0  0  0  0  0
   40.5102   30.4533   42.8616 H   0  0  0  0  0  0  0  0  0  0  0  0
   41.0123   32.6678   42.0104 H   0  0  0  0  0  0  0  0  0  0  0  0
   40.7878   33.1461   39.5758 H   0  0  0  0  0  0  0  0  0  0  0  0
   40.0450   31.2923   38.0642 H   0  0  0  0  0  0  0  0  0  0  0  0
   39.5652   29.1202   38.9954 H   0  0  0  0  0  0  0  0  0  0  0  0
  1  2  1  0
  2  3  1  0
  4  3  1  0
  5  4  1  0
  6  1  1  0
  6  5  1  0
  7 12  2  0
  8  9  2  0
  8  7  1  0
  9 10  1  0
 10 11  2  0
 12 11  1  0
 12  1  1  0
 13 18  2  0
 14 13  1  0
 15 16  1  0
 15 14  2  0
 16 17  2  0
 17  7  1  0
 17 18  1  0
 19  6  1  0
 19 20  2  0
 21 20  1  0
 22 21  2  0
 23 24  2  0
 23 22  1  0
 24 19  1  0
  2 25  1  0
  2 26  1  0
  3 27  1  0
  3 28  1  0
  4 29  1  0
  5 30  1  0
  5 31  1  0
  6 32  1  6
  8 33  1  0
  9 34  1  0
 10 35  1  0
 11 36  1  0
 13 37  1  0
 14 38  1  0
 15 39  1  0
 20 40  1  0
 21 41  1  0
 22 42  1  0
 23 43  1  0
 24 44  1  0
M  ISO  8  25  13  26  13  27  13  28  13  29   5  30  13  31  13  32  13
M  ISO  8  33  14  34  14  35  14  36  14  37  14  38  14  39  14  40  14
M  ISO  4  41  14  42  14  43  14  44  14
M  END
>  <minimizedAffinity>  (1) 
-5.04509354

>  <minimizedRMSD>  (1) 
4.60467291

$$$$
