
     RDKit          3D

 35 37  0  0  1  0  0  0  0  0999 V2000
   37.6850   31.9090   39.6920 C   0  0  0  0  0  0  0  0  0  0  0  0
   37.2620   33.2140   39.7320 C   0  0  0  0  0  0  0  0  0  0  0  0
   38.1890   34.2140   39.9520 C   0  0  0  0  0  0  0  0  0  0  0  0
   39.5240   33.8600   40.1240 C   0  0  0  0  0  0  0  0  0  0  0  0
   39.9330   32.5390   40.0800 C   0  0  0  0  0  0  0  0  0  0  0  0
   39.0230   31.5530   39.8650 C   0  0  0  0  0  0  0  0  0  0  0  0
   39.6030   30.2730   39.8770 N   0  0  0  0  0  0  0  0  0  0  0  0
   40.3600   29.4440   38.9560 C   0  0  0  0  0  0  0  0  0  0  0  0
   41.4490   28.6340   39.5300 C   0  0  0  0  0  0  0  0  0  0  0  0
   41.2780   28.3690   40.9500 N   0  0  0  0  0  0  0  0  0  0  0  0
   39.8700   28.3210   41.2470 C   0  0  0  0  0  0  0  0  0  0  0  0
   39.3050   29.7080   41.1810 C   0  0  1  0  0  0  0  0  0  0  0  0
   39.6760   30.7160   42.5870 S   0  0  0  0  0  0  0  0  0  0  0  0
   35.0510   29.4180   40.2230 C   0  0  0  0  0  0  0  0  0  0  0  0
   34.8240   28.8910   38.9430 C   0  0  0  0  0  0  0  0  0  0  0  0
   35.5880   29.4050   37.9020 C   0  0  0  0  0  0  0  0  0  0  0  0
   36.4750   30.3610   38.2110 N   0  0  0  0  0  0  0  0  0  0  0  0
   36.6880   30.8630   39.4410 C   0  0  0  0  0  0  0  0  0  0  0  0
   35.9610   30.3660   40.4110 N   0  0  0  0  0  0  0  0  0  0  0  0
   36.1992   33.4602   39.5908 H   0  0  0  0  0  0  0  0  0  0  0  0
   37.8785   35.2686   39.9905 H   0  0  0  0  0  0  0  0  0  0  0  0
   40.2709   34.6484   40.2989 H   0  0  0  0  0  0  0  0  0  0  0  0
   40.9947   32.2869   40.2190 H   0  0  0  0  0  0  0  0  0  0  0  0
   40.8029   30.1075   38.1987 H   0  0  0  0  0  0  0  0  0  0  0  0
   39.6356   28.7147   38.5644 H   0  0  0  0  0  0  0  0  0  0  0  0
   41.4880   27.6725   38.9970 H   0  0  0  0  0  0  0  0  0  0  0  0
   42.3800   29.2084   39.4142 H   0  0  0  0  0  0  0  0  0  0  0  0
   41.7130   27.4664   41.1885 H   0  0  0  0  0  0  0  0  0  0  0  0
   39.3605   27.6808   40.5118 H   0  0  0  0  0  0  0  0  0  0  0  0
   39.7187   27.9078   42.2552 H   0  0  0  0  0  0  0  0  0  0  0  0
   38.2091   29.6615   41.2632 H   0  0  0  0  0  0  0  0  0  0  0  0
   39.4172   30.0129   43.7340 H   0  0  0  0  0  0  0  0  0  0  0  0
   34.4700   29.0425   41.0782 H   0  0  0  0  0  0  0  0  0  0  0  0
   34.0739   28.1051   38.7707 H   0  0  0  0  0  0  0  0  0  0  0  0
   35.4699   29.0431   36.8700 H   0  0  0  0  0  0  0  0  0  0  0  0
  1  2  2  0
  1  6  1  0
  2  3  1  0
  3  4  2  0
  5  4  1  0
  6  7  1  0
  6  5  2  0
  7 12  1  0
  8  9  1  0
  8  7  1  0
  9 10  1  0
 10 11  1  0
 12 11  1  0
 12 13  1  0
 14 19  2  0
 15 14  1  0
 16 17  1  0
 16 15  2  0
 17 18  2  0
 18  1  1  0
 18 19  1  0
  2 20  1  0
  3 21  1  0
  4 22  1  0
  5 23  1  0
  8 24  1  0
  8 25  1  0
  9 26  1  0
  9 27  1  0
 10 28  1  0
 11 29  1  0
 11 30  1  0
 12 31  1  6
 13 32  1  0
 14 33  1  0
 15 34  1  0
 16 35  1  0
M  ISO  8  20  14  21  14  22  14  23  14  24  13  25  13  26  13  27  13
M  ISO  8  28   5  29  13  30  13  31  13  32  11  33  14  34  14  35  14
M  END
>  <minimizedAffinity>  (1) 
-4.54303026

>  <minimizedRMSD>  (1) 
1.4265914

$$$$
