
     RDKit          3D

 15 16  0  0  0  0  0  0  0  0999 V2000
   39.8070   27.8000   43.1220 C   0  0  0  0  0  0  0  0  0  0  0  0
   38.6850   27.2230   43.7570 C   0  0  0  0  0  0  0  0  0  0  0  0
   37.4500   27.8650   43.6360 C   0  0  0  0  0  0  0  0  0  0  0  0
   37.4140   29.0270   42.8990 N   0  0  0  0  0  0  0  0  0  0  0  0
   38.5040   29.5450   42.3100 C   0  0  0  0  0  0  0  0  0  0  0  0
   39.6950   28.9360   42.4200 N   0  0  0  0  0  0  0  0  0  0  0  0
   38.2690   30.7800   41.5730 C   0  0  0  0  0  0  0  0  0  0  0  0
   37.0650   31.0440   40.9980 N   0  0  0  0  0  0  0  0  0  0  0  0
   37.0890   32.2000   40.3960 O   0  0  0  0  0  0  0  0  0  0  0  0
   38.2910   32.7350   40.5490 C   0  0  0  0  0  0  0  0  0  0  0  0
   39.0440   31.8650   41.2810 N   0  0  0  0  0  0  0  0  0  0  0  0
   40.7880   27.3093   43.2050 H   0  0  0  0  0  0  0  0  0  0  0  0
   38.7812   26.2907   44.3329 H   0  0  0  0  0  0  0  0  0  0  0  0
   36.5442   27.4588   44.1099 H   0  0  0  0  0  0  0  0  0  0  0  0
   38.6226   33.7074   40.1559 H   0  0  0  0  0  0  0  0  0  0  0  0
  1  2  2  0
  3  2  1  0
  4  3  2  0
  5  6  2  0
  5  4  1  0
  6  1  1  0
  7  5  1  0
  8  7  2  0
  9 10  1  0
  9  8  1  0
 10 11  2  0
 11  7  1  0
  1 12  1  0
  2 13  1  0
  3 14  1  0
 10 15  1  0
M  ISO  4  12  14  13  14  14  14  15  14
M  END
>  <minimizedAffinity>  (1) 
-3.38808608

>  <minimizedRMSD>  (1) 
2.42808557

$$$$
