
     RDKit          3D

 26 29  0  0  0  0  0  0  0  0999 V2000
   37.6660   30.5880   41.3720 C   0  0  0  0  0  0  0  0  0  0  0  0
   36.6350   31.2950   40.8190 N   0  0  0  0  0  0  0  0  0  0  0  0
   37.0690   32.4460   40.3750 O   0  0  0  0  0  0  0  0  0  0  0  0
   38.3600   32.5370   40.6110 C   0  0  0  0  0  0  0  0  0  0  0  0
   38.7600   31.3950   41.2300 N   0  0  0  0  0  0  0  0  0  0  0  0
   39.1680   33.6540   40.2630 N   0  0  0  0  0  0  0  0  0  0  0  0
   39.0680   34.9700   40.6050 C   0  0  0  0  0  0  0  0  0  0  0  0
   40.0800   35.6620   40.0230 N   0  0  0  0  0  0  0  0  0  0  0  0
   40.8350   34.8010   39.3060 C   0  0  0  0  0  0  0  0  0  0  0  0
   41.9610   35.0700   38.5550 C   0  0  0  0  0  0  0  0  0  0  0  0
   42.5100   33.9960   37.9410 N   0  0  0  0  0  0  0  0  0  0  0  0
   41.9680   32.7530   38.0730 C   0  0  0  0  0  0  0  0  0  0  0  0
   40.8640   32.5290   38.8170 N   0  0  0  0  0  0  0  0  0  0  0  0
   40.2630   33.5420   39.4550 C   0  0  0  0  0  0  0  0  0  0  0  0
   37.2420   27.7510   43.6870 C   0  0  0  0  0  0  0  0  0  0  0  0
   37.0060   26.6990   42.7720 C   0  0  0  0  0  0  0  0  0  0  0  0
   36.9980   26.9850   41.4080 C   0  0  0  0  0  0  0  0  0  0  0  0
   37.2240   28.2900   41.0540 N   0  0  0  0  0  0  0  0  0  0  0  0
   37.4470   29.2750   41.9380 C   0  0  0  0  0  0  0  0  0  0  0  0
   37.4530   28.9920   43.2400 N   0  0  0  0  0  0  0  0  0  0  0  0
   38.2897   35.4027   41.2508 H   0  0  0  0  0  0  0  0  0  0  0  0
   42.3813   36.0823   38.4622 H   0  0  0  0  0  0  0  0  0  0  0  0
   42.4445   31.9061   37.5576 H   0  0  0  0  0  0  0  0  0  0  0  0
   37.2518   27.5472   44.7679 H   0  0  0  0  0  0  0  0  0  0  0  0
   36.8319   25.6736   43.1303 H   0  0  0  0  0  0  0  0  0  0  0  0
   36.8195   26.2039   40.6543 H   0  0  0  0  0  0  0  0  0  0  0  0
  1 19  1  0
  2  1  2  0
  3  4  1  0
  3  2  1  0
  4  5  2  0
  5  1  1  0
  6  7  1  0
  6  4  1  0
  8  7  2  0
  9 14  2  0
  9  8  1  0
 10  9  1  0
 11 12  1  0
 11 10  2  0
 12 13  2  0
 13 14  1  0
 14  6  1  0
 16 15  2  0
 17 16  1  0
 18 17  2  0
 18 19  1  0
 19 20  2  0
 20 15  1  0
  7 21  1  0
 10 22  1  0
 12 23  1  0
 15 24  1  0
 16 25  1  0
 17 26  1  0
M  ISO  6  21  14  22  14  23  14  24  14  25  14  26  14
M  END
>  <minimizedAffinity>  (1) 
-5.93599606

>  <minimizedRMSD>  (1) 
1.42930233

$$$$
