
     RDKit          3D

 21 23  0  0  0  0  0  0  0  0999 V2000
   38.5430   30.8770   41.6330 C   0  0  0  0  0  0  0  0  0  0  0  0
   37.4250   31.2400   40.9400 N   0  0  0  0  0  0  0  0  0  0  0  0
   37.6160   32.4120   40.3940 O   0  0  0  0  0  0  0  0  0  0  0  0
   38.8210   32.8500   40.6930 C   0  0  0  0  0  0  0  0  0  0  0  0
   39.4300   31.9000   41.4770 N   0  0  0  0  0  0  0  0  0  0  0  0
   39.4350   34.0820   40.3020 N   0  0  0  0  0  0  0  0  0  0  0  0
   40.6170   34.3120   39.7200 C   0  0  0  0  0  0  0  0  0  0  0  0
   40.7700   35.6340   39.5410 N   0  0  0  0  0  0  0  0  0  0  0  0
   39.6540   36.2180   40.0250 C   0  0  0  0  0  0  0  0  0  0  0  0
   38.8410   35.2520   40.4900 N   0  0  0  0  0  0  0  0  0  0  0  0
   39.6370   27.7100   43.1730 C   0  0  0  0  0  0  0  0  0  0  0  0
   38.4370   27.2380   43.7260 C   0  0  0  0  0  0  0  0  0  0  0  0
   37.2910   28.0130   43.5570 C   0  0  0  0  0  0  0  0  0  0  0  0
   37.4210   29.1870   42.8600 N   0  0  0  0  0  0  0  0  0  0  0  0
   38.5970   29.6010   42.3460 C   0  0  0  0  0  0  0  0  0  0  0  0
   39.7170   28.8620   42.5000 N   0  0  0  0  0  0  0  0  0  0  0  0
   41.3475   33.5410   39.4336 H   0  0  0  0  0  0  0  0  0  0  0  0
   39.4449   37.2979   40.0373 H   0  0  0  0  0  0  0  0  0  0  0  0
   40.5488   27.1076   43.2984 H   0  0  0  0  0  0  0  0  0  0  0  0
   38.4018   26.2859   44.2758 H   0  0  0  0  0  0  0  0  0  0  0  0
   36.3206   27.6956   43.9665 H   0  0  0  0  0  0  0  0  0  0  0  0
  1 15  1  0
  2  1  2  0
  3  4  1  0
  3  2  1  0
  4  5  2  0
  5  1  1  0
  6 10  1  0
  6  4  1  0
  7  6  1  0
  8  7  2  0
  8  9  1  0
  9 10  2  0
 11 12  2  0
 13 12  1  0
 14 13  2  0
 15 16  2  0
 15 14  1  0
 16 11  1  0
  7 17  1  0
  9 18  1  0
 11 19  1  0
 12 20  1  0
 13 21  1  0
M  ISO  5  17  14  18  14  19  14  20  14  21  14
M  END
>  <minimizedAffinity>  (1) 
-5.20213556

>  <minimizedRMSD>  (1) 
0.565430403

$$$$
