
     RDKit          3D

 27 28  0  0  1  0  0  0  0  0999 V2000
   39.6600   29.5050   42.7190 N   0  0  0  0  0  0  0  0  0  0  0  0
   39.8440   30.9290   42.7370 C   0  0  0  0  0  0  0  0  0  0  0  0
   40.9470   31.1800   41.7150 C   0  0  0  0  0  0  0  0  0  0  0  0
   42.1600   30.6880   42.2790 N   0  0  0  0  0  0  0  0  0  0  0  0
   42.1160   29.3960   42.8640 C   0  0  0  0  0  0  0  0  0  0  0  0
   40.8290   28.6750   42.8030 C   0  0  2  0  0  0  0  0  0  0  0  0
   38.4020   28.8390   42.6230 C   0  0  0  0  0  0  0  0  0  0  0  0
   37.8180   28.1400   43.6830 C   0  0  0  0  0  0  0  0  0  0  0  0
   36.5930   27.5310   43.4770 C   0  0  0  0  0  0  0  0  0  0  0  0
   36.0250   27.6530   42.2330 N   0  0  0  0  0  0  0  0  0  0  0  0
   36.6120   28.3290   41.2420 C   0  0  0  0  0  0  0  0  0  0  0  0
   37.8040   28.9340   41.4090 N   0  0  0  0  0  0  0  0  0  0  0  0
   40.8420   27.7690   41.6050 C   0  0  0  0  0  0  0  0  0  0  0  0
   41.4350   27.9420   40.4940 O   0  0  0  0  0  0  0  0  0  0  0  0
   40.1820   26.5620   41.5270 O   0  0  0  0  0  0  0  0  0  0  0  0
   38.9176   31.4452   42.4450 H   0  0  0  0  0  0  0  0  0  0  0  0
   40.1043   31.3062   43.7370 H   0  0  0  0  0  0  0  0  0  0  0  0
   41.0351   32.2575   41.5117 H   0  0  0  0  0  0  0  0  0  0  0  0
   40.7231   30.6735   40.7646 H   0  0  0  0  0  0  0  0  0  0  0  0
   42.8660   30.6667   41.5293 H   0  0  0  0  0  0  0  0  0  0  0  0
   42.8682   28.7756   42.3548 H   0  0  0  0  0  0  0  0  0  0  0  0
   42.2995   29.5618   43.9358 H   0  0  0  0  0  0  0  0  0  0  0  0
   40.7513   28.1328   43.7569 H   0  0  0  0  0  0  0  0  0  0  0  0
   38.3210   28.0755   44.6591 H   0  0  0  0  0  0  0  0  0  0  0  0
   36.0927   26.9699   44.2800 H   0  0  0  0  0  0  0  0  0  0  0  0
   36.1098   28.3934   40.2654 H   0  0  0  0  0  0  0  0  0  0  0  0
   40.2384   26.0195   40.7008 H   0  0  0  0  0  0  0  0  0  0  0  0
  1  2  1  0
  1  6  1  0
  3  4  1  0
  3  2  1  0
  4  5  1  0
  6  5  1  0
  7  1  1  0
  7  8  2  0
  9  8  1  0
 10  9  2  0
 11 12  2  0
 11 10  1  0
 12  7  1  0
 13  6  1  0
 14 13  2  0
 15 13  1  0
  2 16  1  0
  2 17  1  0
  3 18  1  0
  3 19  1  0
  4 20  1  0
  5 21  1  0
  5 22  1  0
  6 23  1  1
  8 24  1  0
  9 25  1  0
 11 26  1  0
 15 27  1  0
M  ISO  8  16  13  17  13  18  13  19  13  20   5  21  13  22  13  23  13
M  ISO  4  24  14  25  14  26  14  27   3
M  END
>  <minimizedAffinity>  (1) 
-3.14281631

>  <minimizedRMSD>  (1) 
0.380286127

$$$$
