
     RDKit          3D

 21 23  0  0  0  0  0  0  0  0999 V2000
   37.6340   30.6240   41.3550 C   0  0  0  0  0  0  0  0  0  0  0  0
   36.6240   31.2740   40.7370 N   0  0  0  0  0  0  0  0  0  0  0  0
   37.0110   32.4250   40.2960 O   0  0  0  0  0  0  0  0  0  0  0  0
   38.3000   32.5880   40.6050 C   0  0  0  0  0  0  0  0  0  0  0  0
   38.7000   31.4760   41.2630 N   0  0  0  0  0  0  0  0  0  0  0  0
   37.3560   27.7770   43.6970 C   0  0  0  0  0  0  0  0  0  0  0  0
   37.0740   26.7320   42.8020 C   0  0  0  0  0  0  0  0  0  0  0  0
   36.9900   27.0310   41.4490 C   0  0  0  0  0  0  0  0  0  0  0  0
   37.1850   28.3350   41.0400 N   0  0  0  0  0  0  0  0  0  0  0  0
   37.4550   29.3080   41.9410 C   0  0  0  0  0  0  0  0  0  0  0  0
   37.5390   29.0280   43.2610 N   0  0  0  0  0  0  0  0  0  0  0  0
   39.1640   33.7550   40.3000 C   0  0  0  0  0  0  0  0  0  0  0  0
   40.5860   33.5910   39.9570 C   0  0  0  0  0  0  0  0  0  0  0  0
   41.0790   35.3410   39.7000 S   0  0  0  0  0  0  0  0  0  0  0  0
   39.3830   35.9760   40.0750 C   0  0  0  0  0  0  0  0  0  0  0  0
   38.6610   34.9690   40.3330 N   0  0  0  0  0  0  0  0  0  0  0  0
   37.4275   27.5631   44.7736 H   0  0  0  0  0  0  0  0  0  0  0  0
   36.9237   25.7040   43.1635 H   0  0  0  0  0  0  0  0  0  0  0  0
   36.7716   26.2417   40.7147 H   0  0  0  0  0  0  0  0  0  0  0  0
   41.1873   32.6734   39.8768 H   0  0  0  0  0  0  0  0  0  0  0  0
   39.0628   37.0284   40.0740 H   0  0  0  0  0  0  0  0  0  0  0  0
  1 10  1  0
  2  1  2  0
  3  4  1  0
  3  2  1  0
  4  5  2  0
  5  1  1  0
  7  6  2  0
  8  7  1  0
  9  8  2  0
  9 10  1  0
 10 11  2  0
 11  6  1  0
 12 16  1  0
 12  4  1  0
 13 12  2  0
 14 13  1  0
 14 15  1  0
 15 16  2  0
  6 17  1  0
  7 18  1  0
  8 19  1  0
 13 20  1  0
 15 21  1  0
M  ISO  5  17  14  18  14  19  14  20  14  21  14
M  END
>  <minimizedAffinity>  (1) 
-5.0434227

>  <minimizedRMSD>  (1) 
1.55123162

$$$$
