
     RDKit          3D

 28 30  0  0  0  0  0  0  0  0999 V2000
   38.6640   31.4880   41.4650 C   0  0  0  0  0  0  0  0  0  0  0  0
   37.4140   31.0670   41.1050 N   0  0  0  0  0  0  0  0  0  0  0  0
   37.1050   29.9760   41.7310 O   0  0  0  0  0  0  0  0  0  0  0  0
   38.1240   29.6380   42.5170 C   0  0  0  0  0  0  0  0  0  0  0  0
   39.1250   30.5690   42.3760 N   0  0  0  0  0  0  0  0  0  0  0  0
   39.2020   34.9050   40.1700 C   0  0  0  0  0  0  0  0  0  0  0  0
   40.5570   34.8460   39.8140 C   0  0  0  0  0  0  0  0  0  0  0  0
   41.2450   33.6440   40.0250 C   0  0  0  0  0  0  0  0  0  0  0  0
   40.5510   32.5860   40.5730 N   0  0  0  0  0  0  0  0  0  0  0  0
   39.2450   32.6990   40.8980 C   0  0  0  0  0  0  0  0  0  0  0  0
   38.5730   33.8500   40.6980 N   0  0  0  0  0  0  0  0  0  0  0  0
   38.1550   28.4440   43.3990 C   0  0  0  0  0  0  0  0  0  0  0  0
   36.8320   27.7300   43.1930 C   0  0  0  0  0  0  0  0  0  0  0  0
   37.2070   26.5710   42.2940 C   0  0  0  0  0  0  0  0  0  0  0  0
   38.5440   26.1630   42.8690 C   0  0  0  0  0  0  0  0  0  0  0  0
   39.2460   27.4980   43.0090 C   0  0  0  0  0  0  0  0  0  0  0  0
   38.6443   35.8398   40.0114 H   0  0  0  0  0  0  0  0  0  0  0  0
   41.0659   35.7197   39.3808 H   0  0  0  0  0  0  0  0  0  0  0  0
   42.3084   33.5470   39.7610 H   0  0  0  0  0  0  0  0  0  0  0  0
   38.3266   28.7578   44.4392 H   0  0  0  0  0  0  0  0  0  0  0  0
   36.4227   27.3723   44.1493 H   0  0  0  0  0  0  0  0  0  0  0  0
   36.0525   28.3768   42.7641 H   0  0  0  0  0  0  0  0  0  0  0  0
   37.3011   26.8900   41.2455 H   0  0  0  0  0  0  0  0  0  0  0  0
   36.4626   25.7615   42.2723 H   0  0  0  0  0  0  0  0  0  0  0  0
   38.4257   25.6692   43.8448 H   0  0  0  0  0  0  0  0  0  0  0  0
   39.0907   25.4368   42.2495 H   0  0  0  0  0  0  0  0  0  0  0  0
   40.0205   27.4522   43.7888 H   0  0  0  0  0  0  0  0  0  0  0  0
   39.7603   27.8037   42.0859 H   0  0  0  0  0  0  0  0  0  0  0  0
  1  5  1  0
  2  1  2  0
  2  3  1  0
  3  4  1  0
  4 12  1  0
  5  4  2  0
  6 11  2  0
  7  8  2  0
  7  6  1  0
  8  9  1  0
  9 10  2  0
 10  1  1  0
 11 10  1  0
 13 12  1  0
 14 15  1  0
 14 13  1  0
 15 16  1  0
 16 12  1  0
  6 17  1  0
  7 18  1  0
  8 19  1  0
 12 20  1  0
 13 21  1  0
 13 22  1  0
 14 23  1  0
 14 24  1  0
 15 25  1  0
 15 26  1  0
 16 27  1  0
 16 28  1  0
M  ISO  8  17  14  18  14  19  14  20  13  21  13  22  13  23  13  24  13
M  ISO  4  25  13  26  13  27  13  28  13
M  END
>  <minimizedAffinity>  (1) 
-5.03391504

>  <minimizedRMSD>  (1) 
6.38128281

$$$$
