
     RDKit          3D

 18 19  0  0  0  0  0  0  0  0999 V2000
   39.2600   28.7310   42.2430 C   0  0  0  0  0  0  0  0  0  0  0  0
   37.9960   28.0960   42.3770 C   0  0  0  0  0  0  0  0  0  0  0  0
   36.8480   28.8150   42.0060 C   0  0  0  0  0  0  0  0  0  0  0  0
   37.0550   30.0850   41.5400 N   0  0  0  0  0  0  0  0  0  0  0  0
   38.2520   30.6610   41.4230 C   0  0  0  0  0  0  0  0  0  0  0  0
   39.3430   29.9760   41.7770 N   0  0  0  0  0  0  0  0  0  0  0  0
   38.2430   32.0200   40.9060 C   0  0  0  0  0  0  0  0  0  0  0  0
   37.2230   32.4620   40.1170 N   0  0  0  0  0  0  0  0  0  0  0  0
   37.4460   33.7110   39.7820 O   0  0  0  0  0  0  0  0  0  0  0  0
   38.5770   34.1120   40.3210 C   0  0  0  0  0  0  0  0  0  0  0  0
   39.0930   33.0750   41.0260 N   0  0  0  0  0  0  0  0  0  0  0  0
   39.2080   35.4440   40.2050 C   0  0  0  0  0  0  0  0  0  0  0  0
   40.3060   35.3530   39.3550 F   0  0  0  0  0  0  0  0  0  0  0  0
   38.3540   36.3840   39.6490 F   0  0  0  0  0  0  0  0  0  0  0  0
   39.6640   35.8140   41.4450 F   0  0  0  0  0  0  0  0  0  0  0  0
   40.1757   28.1911   42.5259 H   0  0  0  0  0  0  0  0  0  0  0  0
   37.9186   27.0682   42.7612 H   0  0  0  0  0  0  0  0  0  0  0  0
   35.8399   28.3820   42.0855 H   0  0  0  0  0  0  0  0  0  0  0  0
  1  2  2  0
  3  2  1  0
  4  3  2  0
  5  4  1  0
  5  6  2  0
  6  1  1  0
  7 11  1  0
  7  5  1  0
  8  7  2  0
  9  8  1  0
  9 10  1  0
 10 11  2  0
 12 10  1  0
 12 15  1  0
 13 12  1  0
 14 12  1  0
  1 16  1  0
  2 17  1  0
  3 18  1  0
M  ISO  3  16  14  17  14  18  14
M  END
>  <minimizedAffinity>  (1) 
-4.65055227

>  <minimizedRMSD>  (1) 
1.57672095

$$$$
