
     RDKit          3D

 17 18  0  0  0  0  0  0  0  0999 V2000
   39.8200   27.7990   43.1100 C   0  0  0  0  0  0  0  0  0  0  0  0
   38.7050   27.2260   43.7390 C   0  0  0  0  0  0  0  0  0  0  0  0
   37.4810   27.8710   43.6290 C   0  0  0  0  0  0  0  0  0  0  0  0
   37.4290   29.0420   42.9070 N   0  0  0  0  0  0  0  0  0  0  0  0
   38.5160   29.5580   42.3190 C   0  0  0  0  0  0  0  0  0  0  0  0
   39.6930   28.9390   42.4250 N   0  0  0  0  0  0  0  0  0  0  0  0
   38.2910   30.8000   41.5930 C   0  0  0  0  0  0  0  0  0  0  0  0
   37.0950   31.0650   40.9970 N   0  0  0  0  0  0  0  0  0  0  0  0
   37.1360   32.2330   40.4110 O   0  0  0  0  0  0  0  0  0  0  0  0
   38.3260   32.7590   40.5970 C   0  0  0  0  0  0  0  0  0  0  0  0
   39.0620   31.8900   41.3290 N   0  0  0  0  0  0  0  0  0  0  0  0
   38.7460   34.0600   40.0880 C   0  0  0  0  0  0  0  0  0  0  0  0
   38.9100   34.9810   40.9470 O   0  0  0  0  0  0  0  0  0  0  0  0
   40.8019   27.3083   43.1809 H   0  0  0  0  0  0  0  0  0  0  0  0
   38.7984   26.2879   44.3059 H   0  0  0  0  0  0  0  0  0  0  0  0
   36.5790   27.4587   44.1047 H   0  0  0  0  0  0  0  0  0  0  0  0
   38.9122   34.2345   39.0147 H   0  0  0  0  0  0  0  0  0  0  0  0
  1  2  2  0
  3  2  1  0
  4  3  2  0
  5  6  2  0
  5  4  1  0
  6  1  1  0
  7  5  1  0
  8  7  2  0
  9 10  1  0
  9  8  1  0
 10 11  2  0
 11  7  1  0
 12 10  1  0
 12 13  2  0
  1 14  1  0
  2 15  1  0
  3 16  1  0
 12 17  1  0
M  ISO  4  14  14  15  14  16  14  17   6
M  END
>  <minimizedAffinity>  (1) 
-3.93490982

>  <minimizedRMSD>  (1) 
0.150477052

$$$$
