
     RDKit          3D

 38 41  0  0  0  0  0  0  0  0999 V2000
   39.8970   34.1570   40.2730 C   0  0  0  0  0  0  0  0  0  0  0  0
   40.5110   33.0080   40.6630 C   0  0  0  0  0  0  0  0  0  0  0  0
   39.7960   31.8440   40.8850 C   0  0  0  0  0  0  0  0  0  0  0  0
   38.4420   31.8180   40.7160 C   0  0  0  0  0  0  0  0  0  0  0  0
   37.8050   32.9600   40.3240 C   0  0  0  0  0  0  0  0  0  0  0  0
   38.5280   34.1350   40.1020 C   0  0  0  0  0  0  0  0  0  0  0  0
   37.1630   28.4780   41.1300 C   0  0  0  0  0  0  0  0  0  0  0  0
   36.1090   29.2980   41.4450 N   0  0  0  0  0  0  0  0  0  0  0  0
   36.4500   30.5460   41.3310 O   0  0  0  0  0  0  0  0  0  0  0  0
   37.7150   30.6050   40.9460 C   0  0  0  0  0  0  0  0  0  0  0  0
   38.1620   29.3220   40.8200 N   0  0  0  0  0  0  0  0  0  0  0  0
   37.0310   24.9570   42.2210 C   0  0  0  0  0  0  0  0  0  0  0  0
   36.7230   24.3150   40.9990 C   0  0  0  0  0  0  0  0  0  0  0  0
   36.5780   25.1090   39.8640 C   0  0  0  0  0  0  0  0  0  0  0  0
   36.7360   26.4520   39.9850 N   0  0  0  0  0  0  0  0  0  0  0  0
   37.0310   27.0240   41.1830 C   0  0  0  0  0  0  0  0  0  0  0  0
   37.1810   26.2900   42.3060 N   0  0  0  0  0  0  0  0  0  0  0  0
   40.8410   35.6070   39.9560 S   0  0  0  0  0  0  0  0  0  0  0  0
   41.5480   35.4090   38.6570 O   0  0  0  0  0  0  0  0  0  0  0  0
   39.8840   36.7770   39.8140 O   0  0  0  0  0  0  0  0  0  0  0  0
   41.9010   35.8450   41.3020 C   0  0  0  0  0  0  0  0  0  0  0  0
   42.9650   34.9400   41.3900 C   0  0  0  0  0  0  0  0  0  0  0  0
   43.8580   35.0650   42.4390 C   0  0  0  0  0  0  0  0  0  0  0  0
   43.7160   36.0650   43.3960 C   0  0  0  0  0  0  0  0  0  0  0  0
   42.6420   36.9380   43.2630 C   0  0  0  0  0  0  0  0  0  0  0  0
   41.7180   36.8490   42.2220 C   0  0  0  0  0  0  0  0  0  0  0  0
   41.6017   33.0036   40.8054 H   0  0  0  0  0  0  0  0  0  0  0  0
   40.3237   30.9318   41.2004 H   0  0  0  0  0  0  0  0  0  0  0  0
   36.7142   32.9552   40.1818 H   0  0  0  0  0  0  0  0  0  0  0  0
   38.0020   35.0489   39.7887 H   0  0  0  0  0  0  0  0  0  0  0  0
   37.1513   24.3474   43.1287 H   0  0  0  0  0  0  0  0  0  0  0  0
   36.6018   23.2230   40.9467 H   0  0  0  0  0  0  0  0  0  0  0  0
   36.3404   24.6573   38.8896 H   0  0  0  0  0  0  0  0  0  0  0  0
   43.0887   34.1450   40.6398 H   0  0  0  0  0  0  0  0  0  0  0  0
   44.6979   34.3591   42.5183 H   0  0  0  0  0  0  0  0  0  0  0  0
   44.4284   36.1615   44.2286 H   0  0  0  0  0  0  0  0  0  0  0  0
   42.5155   37.7339   44.0117 H   0  0  0  0  0  0  0  0  0  0  0  0
   40.8773   37.5537   42.1409 H   0  0  0  0  0  0  0  0  0  0  0  0
  1  2  2  0
  2  3  1  0
  4  3  2  0
  4 10  1  0
  5  4  1  0
  6  1  1  0
  6  5  2  0
  7 16  1  0
  7  8  2  0
  9  8  1  0
 10  9  1  0
 11 10  2  0
 11  7  1  0
 12 17  2  0
 13 12  1  0
 14 15  1  0
 14 13  2  0
 15 16  2  0
 16 17  1  0
 18  1  1  0
 18 21  1  0
 19 18  2  0
 20 18  2  0
 21 22  2  0
 21 26  1  0
 22 23  1  0
 23 24  2  0
 25 24  1  0
 26 25  2  0
  2 27  1  0
  3 28  1  0
  5 29  1  0
  6 30  1  0
 12 31  1  0
 13 32  1  0
 14 33  1  0
 22 34  1  0
 23 35  1  0
 24 36  1  0
 25 37  1  0
 26 38  1  0
M  ISO  8  27  14  28  14  29  14  30  14  31  14  32  14  33  14  34  14
M  ISO  4  35  14  36  14  37  14  38  14
M  END
>  <minimizedAffinity>  (1) 
-7.04172659

>  <minimizedRMSD>  (1) 
1.20855117

$$$$
