
     RDKit          3D

 38 41  0  0  0  0  0  0  0  0999 V2000
   39.9840   34.1170   40.2490 C   0  0  0  0  0  0  0  0  0  0  0  0
   40.5970   32.9440   40.5510 C   0  0  0  0  0  0  0  0  0  0  0  0
   39.8520   31.7930   40.7710 C   0  0  0  0  0  0  0  0  0  0  0  0
   38.4880   31.8040   40.6890 C   0  0  0  0  0  0  0  0  0  0  0  0
   37.8540   32.9750   40.3860 C   0  0  0  0  0  0  0  0  0  0  0  0
   38.6070   34.1320   40.1660 C   0  0  0  0  0  0  0  0  0  0  0  0
   37.1790   28.4810   41.1280 C   0  0  0  0  0  0  0  0  0  0  0  0
   36.1540   29.3070   41.4600 N   0  0  0  0  0  0  0  0  0  0  0  0
   36.5080   30.5480   41.3400 O   0  0  0  0  0  0  0  0  0  0  0  0
   37.7720   30.5840   40.9270 C   0  0  0  0  0  0  0  0  0  0  0  0
   38.1880   29.3080   40.7960 N   0  0  0  0  0  0  0  0  0  0  0  0
   37.0360   24.9430   42.2080 C   0  0  0  0  0  0  0  0  0  0  0  0
   36.7290   24.3150   40.9870 C   0  0  0  0  0  0  0  0  0  0  0  0
   36.5830   25.1100   39.8540 C   0  0  0  0  0  0  0  0  0  0  0  0
   36.7430   26.4590   39.9740 N   0  0  0  0  0  0  0  0  0  0  0  0
   37.0420   27.0230   41.1780 C   0  0  0  0  0  0  0  0  0  0  0  0
   37.1890   26.2760   42.2940 N   0  0  0  0  0  0  0  0  0  0  0  0
   40.9280   35.5680   39.9410 S   0  0  0  0  0  0  0  0  0  0  0  0
   41.5830   35.3980   38.6120 O   0  0  0  0  0  0  0  0  0  0  0  0
   39.9880   36.7560   39.8710 O   0  0  0  0  0  0  0  0  0  0  0  0
   42.0210   35.7450   41.2830 C   0  0  0  0  0  0  0  0  0  0  0  0
   41.7600   36.7940   42.1570 C   0  0  0  0  0  0  0  0  0  0  0  0
   42.5640   37.0270   43.2550 C   0  0  0  0  0  0  0  0  0  0  0  0
   43.6640   36.1990   43.5040 C   0  0  0  0  0  0  0  0  0  0  0  0
   43.8940   35.1610   42.6100 C   0  0  0  0  0  0  0  0  0  0  0  0
   43.1000   34.9110   41.5020 C   0  0  0  0  0  0  0  0  0  0  0  0
   41.6940   32.9049   40.6221 H   0  0  0  0  0  0  0  0  0  0  0  0
   40.3699   30.8540   41.0161 H   0  0  0  0  0  0  0  0  0  0  0  0
   36.7567   33.0076   40.3154 H   0  0  0  0  0  0  0  0  0  0  0  0
   38.0916   35.0726   39.9220 H   0  0  0  0  0  0  0  0  0  0  0  0
   37.1536   24.3292   43.1132 H   0  0  0  0  0  0  0  0  0  0  0  0
   36.6074   23.2233   40.9293 H   0  0  0  0  0  0  0  0  0  0  0  0
   36.3430   24.6587   38.8800 H   0  0  0  0  0  0  0  0  0  0  0  0
   40.8972   37.4504   41.9704 H   0  0  0  0  0  0  0  0  0  0  0  0
   42.3398   37.8632   43.9337 H   0  0  0  0  0  0  0  0  0  0  0  0
   44.3196   36.3632   44.3719 H   0  0  0  0  0  0  0  0  0  0  0  0
   44.7546   34.5004   42.7917 H   0  0  0  0  0  0  0  0  0  0  0  0
   43.3216   34.0767   40.8201 H   0  0  0  0  0  0  0  0  0  0  0  0
  1  2  2  0
  2  3  1  0
  4  3  2  0
  4 10  1  0
  5  4  1  0
  6  1  1  0
  6  5  2  0
  7 16  1  0
  7  8  2  0
  9  8  1  0
 10  9  1  0
 11 10  2  0
 11  7  1  0
 12 17  2  0
 13 12  1  0
 14 15  1  0
 14 13  2  0
 15 16  2  0
 16 17  1  0
 18  1  1  0
 18 21  1  0
 19 18  2  0
 20 18  2  0
 21 26  1  0
 21 22  2  0
 22 23  1  0
 23 24  2  0
 25 24  1  0
 26 25  2  0
  2 27  1  0
  3 28  1  0
  5 29  1  0
  6 30  1  0
 12 31  1  0
 13 32  1  0
 14 33  1  0
 22 34  1  0
 23 35  1  0
 24 36  1  0
 25 37  1  0
 26 38  1  0
M  ISO  8  27  14  28  14  29  14  30  14  31  14  32  14  33  14  34  14
M  ISO  4  35  14  36  14  37  14  38  14
M  END
>  <minimizedAffinity>  (1) 
-7.02830887

>  <minimizedRMSD>  (1) 
1.36816394

$$$$
