
     RDKit          3D

 33 36  0  0  0  0  0  0  0  0999 V2000
   39.8220   34.1990   40.3150 C   0  0  0  0  0  0  0  0  0  0  0  0
   40.4430   33.0460   40.6960 C   0  0  0  0  0  0  0  0  0  0  0  0
   39.7270   31.8720   40.8820 C   0  0  0  0  0  0  0  0  0  0  0  0
   38.3780   31.8430   40.6870 C   0  0  0  0  0  0  0  0  0  0  0  0
   37.7460   32.9870   40.3060 C   0  0  0  0  0  0  0  0  0  0  0  0
   38.4540   34.1750   40.1160 C   0  0  0  0  0  0  0  0  0  0  0  0
   37.1090   28.4990   41.0680 C   0  0  0  0  0  0  0  0  0  0  0  0
   36.0290   29.3090   41.3110 N   0  0  0  0  0  0  0  0  0  0  0  0
   36.3670   30.5530   41.2020 O   0  0  0  0  0  0  0  0  0  0  0  0
   37.6640   30.6150   40.8880 C   0  0  0  0  0  0  0  0  0  0  0  0
   38.1170   29.3470   40.8060 N   0  0  0  0  0  0  0  0  0  0  0  0
   37.0270   24.9750   42.1890 C   0  0  0  0  0  0  0  0  0  0  0  0
   36.7220   24.3300   40.9680 C   0  0  0  0  0  0  0  0  0  0  0  0
   36.5560   25.1090   39.8150 C   0  0  0  0  0  0  0  0  0  0  0  0
   36.6990   26.4630   39.9320 N   0  0  0  0  0  0  0  0  0  0  0  0
   36.9940   27.0420   41.1300 C   0  0  0  0  0  0  0  0  0  0  0  0
   37.1580   26.3100   42.2540 N   0  0  0  0  0  0  0  0  0  0  0  0
   40.7720   35.6600   40.0400 S   0  0  0  0  0  0  0  0  0  0  0  0
   41.5140   35.4680   38.7540 O   0  0  0  0  0  0  0  0  0  0  0  0
   39.8020   36.8190   39.8620 O   0  0  0  0  0  0  0  0  0  0  0  0
   41.7990   35.9700   41.4180 C   0  0  0  0  0  0  0  0  0  0  0  0
   42.8820   35.2590   41.7780 N   0  0  0  0  0  0  0  0  0  0  0  0
   43.4230   35.7530   42.8520 O   0  0  0  0  0  0  0  0  0  0  0  0
   42.7190   36.7890   43.2210 C   0  0  0  0  0  0  0  0  0  0  0  0
   41.6940   36.9470   42.3380 N   0  0  0  0  0  0  0  0  0  0  0  0
   41.5309   33.0468   40.8587 H   0  0  0  0  0  0  0  0  0  0  0  0
   40.2528   30.9561   41.1897 H   0  0  0  0  0  0  0  0  0  0  0  0
   36.6579   32.9750   40.1450 H   0  0  0  0  0  0  0  0  0  0  0  0
   37.9251   35.0893   39.8089 H   0  0  0  0  0  0  0  0  0  0  0  0
   37.1591   24.3734   43.1004 H   0  0  0  0  0  0  0  0  0  0  0  0
   36.6169   23.2359   40.9241 H   0  0  0  0  0  0  0  0  0  0  0  0
   36.3181   24.6452   38.8463 H   0  0  0  0  0  0  0  0  0  0  0  0
   42.9195   37.4254   44.0955 H   0  0  0  0  0  0  0  0  0  0  0  0
  1  2  2  0
  2  3  1  0
  4  3  2  0
  4 10  1  0
  5  4  1  0
  6  5  2  0
  6  1  1  0
  7 16  1  0
  7  8  2  0
  9  8  1  0
 10  9  1  0
 11 10  2  0
 11  7  1  0
 12 17  2  0
 13 12  1  0
 14 15  1  0
 14 13  2  0
 15 16  2  0
 16 17  1  0
 18  1  1  0
 18 21  1  0
 19 18  2  0
 20 18  2  0
 21 22  2  0
 21 25  1  0
 22 23  1  0
 23 24  1  0
 25 24  2  0
  2 26  1  0
  3 27  1  0
  5 28  1  0
  6 29  1  0
 12 30  1  0
 13 31  1  0
 14 32  1  0
 24 33  1  0
M  ISO  8  26  14  27  14  28  14  29  14  30  14  31  14  32  14  33  14
M  END
>  <minimizedAffinity>  (1) 
-6.70888853

>  <minimizedRMSD>  (1) 
1.07845926

$$$$
