
     RDKit          3D

 24 26  0  0  0  0  0  0  0  0999 V2000
   38.6770   29.4560   40.2350 C   0  0  0  0  0  0  0  0  0  0  0  0
   39.3420   30.7300   40.4090 N   0  0  0  0  0  0  0  0  0  0  0  0
   40.6210   30.8500   40.8040 C   0  0  0  0  0  0  0  0  0  0  0  0
   41.0030   32.1370   40.8900 N   0  0  0  0  0  0  0  0  0  0  0  0
   39.9350   32.8860   40.5380 C   0  0  0  0  0  0  0  0  0  0  0  0
   39.6300   34.2310   40.4090 C   0  0  0  0  0  0  0  0  0  0  0  0
   38.3960   34.6300   40.0150 N   0  0  0  0  0  0  0  0  0  0  0  0
   37.4150   33.7270   39.7330 C   0  0  0  0  0  0  0  0  0  0  0  0
   37.6990   32.4100   39.8550 N   0  0  0  0  0  0  0  0  0  0  0  0
   38.9180   31.9910   40.2450 C   0  0  0  0  0  0  0  0  0  0  0  0
   37.6540   29.3740   42.5650 C   0  0  0  0  0  0  0  0  0  0  0  0
   38.3820   28.7910   41.5270 C   0  0  0  0  0  0  0  0  0  0  0  0
   38.8770   27.4800   41.7120 C   0  0  0  0  0  0  0  0  0  0  0  0
   38.6120   26.8590   42.8960 N   0  0  0  0  0  0  0  0  0  0  0  0
   37.9100   27.4570   43.8630 C   0  0  0  0  0  0  0  0  0  0  0  0
   37.4340   28.6990   43.7060 N   0  0  0  0  0  0  0  0  0  0  0  0
   37.7309   29.6217   39.6989 H   0  0  0  0  0  0  0  0  0  0  0  0
   39.3528   28.7999   39.6668 H   0  0  0  0  0  0  0  0  0  0  0  0
   41.2776   29.9970   41.0302 H   0  0  0  0  0  0  0  0  0  0  0  0
   40.3996   34.9854   40.6293 H   0  0  0  0  0  0  0  0  0  0  0  0
   36.4166   34.0609   39.4140 H   0  0  0  0  0  0  0  0  0  0  0  0
   37.2574   30.3934   42.4484 H   0  0  0  0  0  0  0  0  0  0  0  0
   39.4579   26.9767   40.9251 H   0  0  0  0  0  0  0  0  0  0  0  0
   37.7198   26.9201   44.8040 H   0  0  0  0  0  0  0  0  0  0  0  0
  1  2  1  0
  1 12  1  0
  2  3  1  0
  3  4  2  0
  5  4  1  0
  6  5  2  0
  7  6  1  0
  8  9  1  0
  8  7  2  0
  9 10  2  0
 10  2  1  0
 10  5  1  0
 11 16  2  0
 12 13  2  0
 12 11  1  0
 13 14  1  0
 14 15  2  0
 16 15  1  0
  1 17  1  0
  1 18  1  0
  3 19  1  0
  6 20  1  0
  8 21  1  0
 11 22  1  0
 13 23  1  0
 15 24  1  0
M  ISO  8  17   8  18   8  19  14  20  14  21  14  22  14  23  14  24  14
M  END
>  <minimizedAffinity>  (1) 
-4.01813793

>  <minimizedRMSD>  (1) 
6.60559559

$$$$
