
     RDKit          3D

 22 23  0  0  0  0  0  0  0  0999 V2000
   37.7910   27.5630   43.8540 C   0  0  0  0  0  0  0  0  0  0  0  0
   38.1190   29.6860   42.4630 C   0  0  0  0  0  0  0  0  0  0  0  0
   37.4330   28.5090   42.7670 C   0  0  0  0  0  0  0  0  0  0  0  0
   36.2980   28.1590   41.9920 C   0  0  0  0  0  0  0  0  0  0  0  0
   35.9480   29.0060   40.9920 N   0  0  0  0  0  0  0  0  0  0  0  0
   36.6200   30.1260   40.7210 C   0  0  0  0  0  0  0  0  0  0  0  0
   37.6940   30.4580   41.4520 N   0  0  0  0  0  0  0  0  0  0  0  0
   38.9260   26.6900   43.5190 C   0  0  0  0  0  0  0  0  0  0  0  0
   40.2120   26.8550   43.9960 C   0  0  0  0  0  0  0  0  0  0  0  0
   41.2760   26.0310   43.6770 C   0  0  0  0  0  0  0  0  0  0  0  0
   41.0010   24.9750   42.8180 C   0  0  0  0  0  0  0  0  0  0  0  0
   39.7200   24.8120   42.3440 C   0  0  0  0  0  0  0  0  0  0  0  0
   38.7310   25.6440   42.6890 N   0  0  0  0  0  0  0  0  0  0  0  0
   38.0514   28.1447   44.7506 H   0  0  0  0  0  0  0  0  0  0  0  0
   36.9191   26.9128   44.0185 H   0  0  0  0  0  0  0  0  0  0  0  0
   39.0027   29.9786   43.0490 H   0  0  0  0  0  0  0  0  0  0  0  0
   35.7265   27.2409   42.1930 H   0  0  0  0  0  0  0  0  0  0  0  0
   36.2929   30.7776   39.8974 H   0  0  0  0  0  0  0  0  0  0  0  0
   40.4026   27.6988   44.6755 H   0  0  0  0  0  0  0  0  0  0  0  0
   42.2845   26.2026   44.0814 H   0  0  0  0  0  0  0  0  0  0  0  0
   41.7978   24.2775   42.5203 H   0  0  0  0  0  0  0  0  0  0  0  0
   39.5032   23.9755   41.6634 H   0  0  0  0  0  0  0  0  0  0  0  0
  2  3  2  0
  3  1  1  0
  4  3  1  0
  5  4  2  0
  6  5  1  0
  6  7  2  0
  7  2  1  0
  8  1  1  0
  8  9  2  0
 10  9  1  0
 11 10  2  0
 12 13  2  0
 12 11  1  0
 13  8  1  0
  1 14  1  0
  1 15  1  0
  2 16  1  0
  4 17  1  0
  6 18  1  0
  9 19  1  0
 10 20  1  0
 11 21  1  0
 12 22  1  0
M  ISO  8  14   8  15   8  16  14  17  14  18  14  19  14  20  14  21  14
M  ISO  1  22  14
M  END
>  <minimizedAffinity>  (1) 
-3.9322257

>  <minimizedRMSD>  (1) 
0.928623378

$$$$
