
     RDKit          3D

 18 19  0  0  0  0  0  0  0  0999 V2000
   36.9560   29.8840   41.7670 C   0  0  0  0  0  0  0  0  0  0  0  0
   37.8880   29.4420   42.7050 C   0  0  0  0  0  0  0  0  0  0  0  0
   39.1600   30.0630   42.7230 C   0  0  0  0  0  0  0  0  0  0  0  0
   39.3850   31.0550   41.8170 N   0  0  0  0  0  0  0  0  0  0  0  0
   38.4640   31.4540   40.9290 C   0  0  0  0  0  0  0  0  0  0  0  0
   37.2410   30.8670   40.9020 N   0  0  0  0  0  0  0  0  0  0  0  0
   37.6350   28.3630   43.6860 C   0  0  0  0  0  0  0  0  0  0  0  0
   38.4040   27.1200   43.4010 C   0  0  0  0  0  0  0  0  0  0  0  0
   38.1600   26.1850   42.4560 N   0  0  0  0  0  0  0  0  0  0  0  0
   39.0490   25.2660   42.5280 O   0  0  0  0  0  0  0  0  0  0  0  0
   39.9110   25.5330   43.5020 C   0  0  0  0  0  0  0  0  0  0  0  0
   39.5060   26.6940   44.0460 N   0  0  0  0  0  0  0  0  0  0  0  0
   35.9619   29.4141   41.7362 H   0  0  0  0  0  0  0  0  0  0  0  0
   39.9359   29.7567   43.4401 H   0  0  0  0  0  0  0  0  0  0  0  0
   38.7004   32.2605   40.2193 H   0  0  0  0  0  0  0  0  0  0  0  0
   37.9155   28.7263   44.6857 H   0  0  0  0  0  0  0  0  0  0  0  0
   36.5667   28.1083   43.6241 H   0  0  0  0  0  0  0  0  0  0  0  0
   40.7791   24.9280   43.8025 H   0  0  0  0  0  0  0  0  0  0  0  0
  1  2  2  0
  2  3  1  0
  2  7  1  0
  4  3  2  0
  5  4  1  0
  6  5  2  0
  6  1  1  0
  8  7  1  0
  8 12  1  0
  9 10  1  0
  9  8  2  0
 10 11  1  0
 11 12  2  0
  1 13  1  0
  3 14  1  0
  5 15  1  0
  7 16  1  0
  7 17  1  0
 11 18  1  0
M  ISO  6  13  14  14  14  15  14  16   8  17   8  18  14
M  END
>  <minimizedAffinity>  (1) 
-3.64225698

>  <minimizedRMSD>  (1) 
3.14981866

$$$$
