
     RDKit          3D

 20 21  0  0  0  0  0  0  0  0999 V2000
   38.4240   29.8350   42.4190 C   0  0  0  0  0  0  0  0  0  0  0  0
   37.4870   28.8290   42.6520 C   0  0  0  0  0  0  0  0  0  0  0  0
   36.3900   28.7140   41.7710 C   0  0  0  0  0  0  0  0  0  0  0  0
   36.3210   29.5970   40.7490 N   0  0  0  0  0  0  0  0  0  0  0  0
   37.2410   30.5520   40.5560 C   0  0  0  0  0  0  0  0  0  0  0  0
   38.2990   30.6740   41.3940 N   0  0  0  0  0  0  0  0  0  0  0  0
   37.5570   27.8510   43.7770 C   0  0  0  0  0  0  0  0  0  0  0  0
   38.5710   26.8460   43.4890 C   0  0  0  0  0  0  0  0  0  0  0  0
   39.8180   26.6680   43.9790 C   0  0  0  0  0  0  0  0  0  0  0  0
   40.5780   25.6150   43.5250 C   0  0  0  0  0  0  0  0  0  0  0  0
   40.0110   24.7820   42.5730 C   0  0  0  0  0  0  0  0  0  0  0  0
   38.3320   25.5150   42.3070 S   0  0  0  0  0  0  0  0  0  0  0  0
   39.2844   29.9371   43.0967 H   0  0  0  0  0  0  0  0  0  0  0  0
   35.6228   27.9380   41.9101 H   0  0  0  0  0  0  0  0  0  0  0  0
   37.1363   31.2446   39.7079 H   0  0  0  0  0  0  0  0  0  0  0  0
   37.8188   28.3794   44.7056 H   0  0  0  0  0  0  0  0  0  0  0  0
   36.5797   27.3601   43.8953 H   0  0  0  0  0  0  0  0  0  0  0  0
   40.2215   27.3588   44.7339 H   0  0  0  0  0  0  0  0  0  0  0  0
   41.5963   25.4407   43.9028 H   0  0  0  0  0  0  0  0  0  0  0  0
   40.4529   23.8974   42.0911 H   0  0  0  0  0  0  0  0  0  0  0  0
  1  2  2  0
  2  7  1  0
  3  2  1  0
  4  3  2  0
  5  4  1  0
  5  6  2  0
  6  1  1  0
  8  7  1  0
  8  9  2  0
 10  9  1  0
 11 10  2  0
 12 11  1  0
 12  8  1  0
  1 13  1  0
  3 14  1  0
  5 15  1  0
  7 16  1  0
  7 17  1  0
  9 18  1  0
 10 19  1  0
 11 20  1  0
M  ISO  8  13  14  14  14  15  14  16   8  17   8  18  14  19  14  20  14
M  END
>  <minimizedAffinity>  (1) 
-3.63847852

>  <minimizedRMSD>  (1) 
1.20573401

$$$$
