
     RDKit          3D

 20 21  0  0  0  0  0  0  0  0999 V2000
   37.3720   27.8790   43.6980 C   0  0  0  0  0  0  0  0  0  0  0  0
   38.3950   29.8380   42.4220 C   0  0  0  0  0  0  0  0  0  0  0  0
   37.4010   28.8600   42.5810 C   0  0  0  0  0  0  0  0  0  0  0  0
   36.3660   28.7950   41.6330 C   0  0  0  0  0  0  0  0  0  0  0  0
   36.3930   29.6920   40.6140 N   0  0  0  0  0  0  0  0  0  0  0  0
   37.3540   30.6110   40.4890 C   0  0  0  0  0  0  0  0  0  0  0  0
   38.3580   30.6830   41.3980 N   0  0  0  0  0  0  0  0  0  0  0  0
   38.3800   26.8950   43.4680 N   0  0  0  0  0  0  0  0  0  0  0  0
   38.1820   25.9140   42.5760 N   0  0  0  0  0  0  0  0  0  0  0  0
   39.2700   25.1230   42.5460 C   0  0  0  0  0  0  0  0  0  0  0  0
   40.2300   25.5920   43.4490 C   0  0  0  0  0  0  0  0  0  0  0  0
   39.5890   26.7050   43.9820 C   0  0  0  0  0  0  0  0  0  0  0  0
   37.5685   28.3951   44.6493 H   0  0  0  0  0  0  0  0  0  0  0  0
   36.3838   27.3987   43.7499 H   0  0  0  0  0  0  0  0  0  0  0  0
   39.2137   29.9054   43.1535 H   0  0  0  0  0  0  0  0  0  0  0  0
   35.5644   28.0460   41.7133 H   0  0  0  0  0  0  0  0  0  0  0  0
   37.3311   31.3141   39.6433 H   0  0  0  0  0  0  0  0  0  0  0  0
   39.3875   24.2368   41.9050 H   0  0  0  0  0  0  0  0  0  0  0  0
   41.2273   25.1877   43.6769 H   0  0  0  0  0  0  0  0  0  0  0  0
   40.0355   27.3574   44.7468 H   0  0  0  0  0  0  0  0  0  0  0  0
  2  3  2  0
  3  1  1  0
  4  3  1  0
  5  4  2  0
  6  5  1  0
  6  7  2  0
  7  2  1  0
  8  1  1  0
  8 12  1  0
  9  8  1  0
 10  9  2  0
 10 11  1  0
 11 12  2  0
  1 13  1  0
  1 14  1  0
  2 15  1  0
  4 16  1  0
  6 17  1  0
 10 18  1  0
 11 19  1  0
 12 20  1  0
M  ISO  8  13   8  14   8  15  14  16  14  17  14  18  14  19  14  20  14
M  END
>  <minimizedAffinity>  (1) 
-3.34205174

>  <minimizedRMSD>  (1) 
1.29016042

$$$$
