
     RDKit          3D

 43 47  0  0  0  0  0  0  0  0999 V2000
   38.5800   29.5340   41.3520 C   0  0  0  0  0  0  0  0  0  0  0  0
   37.2270   29.2820   41.5850 C   0  0  0  0  0  0  0  0  0  0  0  0
   36.3640   30.3620   41.4040 C   0  0  0  0  0  0  0  0  0  0  0  0
   36.8740   31.5450   41.0270 N   0  0  0  0  0  0  0  0  0  0  0  0
   38.1700   31.7450   40.8150 C   0  0  0  0  0  0  0  0  0  0  0  0
   39.0450   30.7200   40.9800 N   0  0  0  0  0  0  0  0  0  0  0  0
   38.5210   33.0690   40.4200 N   0  0  0  0  0  0  0  0  0  0  0  0
   37.7020   33.9910   39.9400 C   0  0  0  0  0  0  0  0  0  0  0  0
   38.3640   35.1490   39.6630 N   0  0  0  0  0  0  0  0  0  0  0  0
   39.6600   34.9270   39.9900 C   0  0  0  0  0  0  0  0  0  0  0  0
   40.7590   35.7810   39.9030 C   0  0  0  0  0  0  0  0  0  0  0  0
   40.6960   36.9440   39.4850 O   0  0  0  0  0  0  0  0  0  0  0  0
   41.9730   35.3220   40.2970 N   0  0  0  0  0  0  0  0  0  0  0  0
   42.0200   34.0460   40.7520 C   0  0  0  0  0  0  0  0  0  0  0  0
   43.2700   33.5200   41.1750 N   0  0  0  0  0  0  0  0  0  0  0  0
   40.9680   33.1810   40.8510 N   0  0  0  0  0  0  0  0  0  0  0  0
   39.7450   33.6310   40.4580 C   0  0  0  0  0  0  0  0  0  0  0  0
   36.7080   27.9570   42.0060 C   0  0  0  0  0  0  0  0  0  0  0  0
   37.7210   27.0230   42.4960 C   0  0  0  0  0  0  0  0  0  0  0  0
   38.6120   27.3520   43.5250 C   0  0  0  0  0  0  0  0  0  0  0  0
   39.5500   26.4470   43.9610 C   0  0  0  0  0  0  0  0  0  0  0  0
   39.6090   25.1950   43.3720 C   0  0  0  0  0  0  0  0  0  0  0  0
   38.7440   24.8600   42.3670 C   0  0  0  0  0  0  0  0  0  0  0  0
   38.7890   23.6050   41.7650 C   0  0  0  0  0  0  0  0  0  0  0  0
   37.9200   23.2740   40.7600 C   0  0  0  0  0  0  0  0  0  0  0  0
   36.9680   24.1590   40.3010 C   0  0  0  0  0  0  0  0  0  0  0  0
   36.9380   25.4110   40.9150 C   0  0  0  0  0  0  0  0  0  0  0  0
   37.7950   25.7810   41.9280 C   0  0  0  0  0  0  0  0  0  0  0  0
   39.2959   28.7092   41.4831 H   0  0  0  0  0  0  0  0  0  0  0  0
   35.2824   30.2464   41.5676 H   0  0  0  0  0  0  0  0  0  0  0  0
   36.6234   33.8413   39.7844 H   0  0  0  0  0  0  0  0  0  0  0  0
   42.8157   35.9126   40.2527 H   0  0  0  0  0  0  0  0  0  0  0  0
   43.3301   32.5530   41.5245 H   0  0  0  0  0  0  0  0  0  0  0  0
   44.1162   34.1056   41.1322 H   0  0  0  0  0  0  0  0  0  0  0  0
   35.9748   28.1177   42.8101 H   0  0  0  0  0  0  0  0  0  0  0  0
   36.2754   27.4964   41.1056 H   0  0  0  0  0  0  0  0  0  0  0  0
   38.5605   28.3474   43.9903 H   0  0  0  0  0  0  0  0  0  0  0  0
   40.2466   26.7143   44.7693 H   0  0  0  0  0  0  0  0  0  0  0  0
   40.3569   24.4648   43.7149 H   0  0  0  0  0  0  0  0  0  0  0  0
   39.5337   22.8688   42.1019 H   0  0  0  0  0  0  0  0  0  0  0  0
   37.9833   22.2740   40.3062 H   0  0  0  0  0  0  0  0  0  0  0  0
   36.2697   23.8922   39.4940 H   0  0  0  0  0  0  0  0  0  0  0  0
   36.1905   26.1415   40.5722 H   0  0  0  0  0  0  0  0  0  0  0  0
  1  2  2  0
  2 18  1  0
  3  2  1  0
  4  3  2  0
  5  6  2  0
  5  4  1  0
  6  1  1  0
  7 17  1  0
  7  5  1  0
  8  7  1  0
  9  8  2  0
  9 10  1  0
 10 17  2  0
 11 10  1  0
 11 13  1  0
 12 11  2  0
 13 14  1  0
 14 16  2  0
 14 15  1  0
 17 16  1  0
 18 19  1  0
 19 20  2  0
 20 21  1  0
 22 21  2  0
 23 22  1  0
 24 23  2  0
 25 24  1  0
 26 25  2  0
 26 27  1  0
 27 28  2  0
 28 23  1  0
 28 19  1  0
  1 29  1  0
  3 30  1  0
  8 31  1  0
 13 32  1  0
 15 33  1  0
 15 34  1  0
 18 35  1  0
 18 36  1  0
 20 37  1  0
 21 38  1  0
 22 39  1  0
 24 40  1  0
 25 41  1  0
 26 42  1  0
 27 43  1  0
M  ISO  8  29  14  30  14  31  14  32   9  35   8  36   8  37  14  38  14
M  ISO  5  39  14  40  14  41  14  42  14  43  14
M  END
>  <minimizedAffinity>  (1) 
-8.14739418

>  <minimizedRMSD>  (1) 
1.50005984

$$$$
