
     RDKit          3D

 36 39  0  0  0  0  0  0  0  0999 V2000
   37.4600   28.0740   43.2280 C   0  0  0  0  0  0  0  0  0  0  0  0
   38.3950   26.9500   43.1740 C   0  0  0  0  0  0  0  0  0  0  0  0
   39.5550   26.8990   43.9540 C   0  0  0  0  0  0  0  0  0  0  0  0
   40.4080   25.8240   43.8780 C   0  0  0  0  0  0  0  0  0  0  0  0
   40.1090   24.7900   43.0210 C   0  0  0  0  0  0  0  0  0  0  0  0
   38.9780   24.8220   42.2480 C   0  0  0  0  0  0  0  0  0  0  0  0
   38.6580   23.7830   41.3770 C   0  0  0  0  0  0  0  0  0  0  0  0
   37.5370   23.8170   40.6170 C   0  0  0  0  0  0  0  0  0  0  0  0
   36.6510   24.8870   40.6670 C   0  0  0  0  0  0  0  0  0  0  0  0
   36.9900   25.9150   41.5440 C   0  0  0  0  0  0  0  0  0  0  0  0
   38.1120   25.9170   42.3270 C   0  0  0  0  0  0  0  0  0  0  0  0
   39.1390   29.9380   42.9110 C   0  0  0  0  0  0  0  0  0  0  0  0
   37.9360   29.3170   42.5880 C   0  0  0  0  0  0  0  0  0  0  0  0
   37.1810   29.9540   41.6000 C   0  0  0  0  0  0  0  0  0  0  0  0
   37.6430   31.0850   41.0450 N   0  0  0  0  0  0  0  0  0  0  0  0
   38.8000   31.6420   41.3870 C   0  0  0  0  0  0  0  0  0  0  0  0
   39.5690   31.0600   42.3400 N   0  0  0  0  0  0  0  0  0  0  0  0
   39.2630   32.8730   40.7540 C   0  0  0  0  0  0  0  0  0  0  0  0
   40.4050   33.0210   39.9870 C   0  0  0  0  0  0  0  0  0  0  0  0
   40.4430   34.3570   39.5960 C   0  0  0  0  0  0  0  0  0  0  0  0
   39.3260   34.9540   40.1430 C   0  0  0  0  0  0  0  0  0  0  0  0
   38.6650   34.0290   40.8160 O   0  0  0  0  0  0  0  0  0  0  0  0
   36.5298   27.7676   42.7272 H   0  0  0  0  0  0  0  0  0  0  0  0
   37.3267   28.3103   44.2940 H   0  0  0  0  0  0  0  0  0  0  0  0
   39.7874   27.7296   44.6367 H   0  0  0  0  0  0  0  0  0  0  0  0
   41.3183   25.7907   44.4946 H   0  0  0  0  0  0  0  0  0  0  0  0
   40.7869   23.9262   42.9555 H   0  0  0  0  0  0  0  0  0  0  0  0
   39.3305   22.9156   41.3047 H   0  0  0  0  0  0  0  0  0  0  0  0
   37.3221   22.9753   39.9422 H   0  0  0  0  0  0  0  0  0  0  0  0
   35.7392   24.9199   40.0525 H   0  0  0  0  0  0  0  0  0  0  0  0
   36.3131   26.7794   41.6112 H   0  0  0  0  0  0  0  0  0  0  0  0
   39.7707   29.4743   43.6830 H   0  0  0  0  0  0  0  0  0  0  0  0
   36.2167   29.5323   41.2800 H   0  0  0  0  0  0  0  0  0  0  0  0
   41.1370   32.2392   39.7361 H   0  0  0  0  0  0  0  0  0  0  0  0
   41.2111   34.8403   38.9744 H   0  0  0  0  0  0  0  0  0  0  0  0
   39.0376   36.0103   40.0377 H   0  0  0  0  0  0  0  0  0  0  0  0
  2  1  1  0
  2  3  2  0
  4  3  1  0
  5  4  2  0
  6 11  2  0
  6  5  1  0
  7  6  1  0
  8  9  1  0
  8  7  2  0
  9 10  2  0
 10 11  1  0
 11  2  1  0
 13 12  2  0
 13  1  1  0
 14 13  1  0
 15 16  1  0
 15 14  2  0
 16 17  2  0
 17 12  1  0
 18 22  1  0
 18 16  1  0
 19 18  2  0
 20 19  1  0
 20 21  2  0
 21 22  1  0
  1 23  1  0
  1 24  1  0
  3 25  1  0
  4 26  1  0
  5 27  1  0
  7 28  1  0
  8 29  1  0
  9 30  1  0
 10 31  1  0
 12 32  1  0
 14 33  1  0
 19 34  1  0
 20 35  1  0
 21 36  1  0
M  ISO  8  23   8  24   8  25  14  26  14  27  14  28  14  29  14  30  14
M  ISO  6  31  14  32  14  33  14  34  14  35  14  36  14
M  END
>  <minimizedAffinity>  (1) 
-6.57531643

>  <minimizedRMSD>  (1) 
0.926126897

$$$$
