
     RDKit          3D

 34 37  0  0  0  0  0  0  0  0999 V2000
   37.4710   28.1000   43.2510 C   0  0  0  0  0  0  0  0  0  0  0  0
   38.3990   26.9710   43.1900 C   0  0  0  0  0  0  0  0  0  0  0  0
   39.5570   26.9060   43.9750 C   0  0  0  0  0  0  0  0  0  0  0  0
   40.4040   25.8270   43.8870 C   0  0  0  0  0  0  0  0  0  0  0  0
   40.1040   24.8030   43.0150 C   0  0  0  0  0  0  0  0  0  0  0  0
   38.9710   24.8530   42.2380 C   0  0  0  0  0  0  0  0  0  0  0  0
   38.6500   23.8270   41.3550 C   0  0  0  0  0  0  0  0  0  0  0  0
   37.5340   23.8720   40.5920 C   0  0  0  0  0  0  0  0  0  0  0  0
   36.6560   24.9440   40.6520 C   0  0  0  0  0  0  0  0  0  0  0  0
   36.9960   25.9600   41.5420 C   0  0  0  0  0  0  0  0  0  0  0  0
   38.1140   25.9500   42.3310 C   0  0  0  0  0  0  0  0  0  0  0  0
   39.1520   29.9600   42.8970 C   0  0  0  0  0  0  0  0  0  0  0  0
   37.9410   29.3390   42.5860 C   0  0  0  0  0  0  0  0  0  0  0  0
   37.1690   29.9540   41.5950 C   0  0  0  0  0  0  0  0  0  0  0  0
   37.6320   31.0760   41.0210 N   0  0  0  0  0  0  0  0  0  0  0  0
   38.7920   31.6380   41.3450 C   0  0  0  0  0  0  0  0  0  0  0  0
   39.5630   31.0740   42.2950 N   0  0  0  0  0  0  0  0  0  0  0  0
   39.2530   32.8580   40.6940 C   0  0  0  0  0  0  0  0  0  0  0  0
   40.2010   32.9610   39.7480 N   0  0  0  0  0  0  0  0  0  0  0  0
   40.3430   34.2020   39.4060 O   0  0  0  0  0  0  0  0  0  0  0  0
   39.5210   34.9540   40.0870 C   0  0  0  0  0  0  0  0  0  0  0  0
   38.8240   34.1150   40.9080 N   0  0  0  0  0  0  0  0  0  0  0  0
   36.5293   27.7929   42.7725 H   0  0  0  0  0  0  0  0  0  0  0  0
   37.3611   28.3481   44.3170 H   0  0  0  0  0  0  0  0  0  0  0  0
   39.7911   27.7267   44.6690 H   0  0  0  0  0  0  0  0  0  0  0  0
   41.3120   25.7814   44.5063 H   0  0  0  0  0  0  0  0  0  0  0  0
   40.7779   23.9368   42.9399 H   0  0  0  0  0  0  0  0  0  0  0  0
   39.3199   22.9582   41.2754 H   0  0  0  0  0  0  0  0  0  0  0  0
   37.3176   23.0385   39.9076 H   0  0  0  0  0  0  0  0  0  0  0  0
   35.7468   24.9890   40.0345 H   0  0  0  0  0  0  0  0  0  0  0  0
   36.3223   26.8264   41.6154 H   0  0  0  0  0  0  0  0  0  0  0  0
   39.7923   29.5108   43.6705 H   0  0  0  0  0  0  0  0  0  0  0  0
   36.2017   29.5269   41.2919 H   0  0  0  0  0  0  0  0  0  0  0  0
   39.4118   36.0461   40.0138 H   0  0  0  0  0  0  0  0  0  0  0  0
  2  1  1  0
  2  3  2  0
  4  3  1  0
  5  4  2  0
  6 11  2  0
  6  5  1  0
  7  6  1  0
  8  9  1  0
  8  7  2  0
  9 10  2  0
 10 11  1  0
 11  2  1  0
 13 12  2  0
 13  1  1  0
 14 13  1  0
 15 16  1  0
 15 14  2  0
 16 17  2  0
 17 12  1  0
 18 22  1  0
 18 16  1  0
 19 18  2  0
 20 19  1  0
 20 21  1  0
 21 22  2  0
  1 23  1  0
  1 24  1  0
  3 25  1  0
  4 26  1  0
  5 27  1  0
  7 28  1  0
  8 29  1  0
  9 30  1  0
 10 31  1  0
 12 32  1  0
 14 33  1  0
 21 34  1  0
M  ISO  8  23   8  24   8  25  14  26  14  27  14  28  14  29  14  30  14
M  ISO  4  31  14  32  14  33  14  34  14
M  END
>  <minimizedAffinity>  (1) 
-6.51571608

>  <minimizedRMSD>  (1) 
0.901009083

$$$$
