
     RDKit          3D

 36 39  0  0  0  0  0  0  0  0999 V2000
   38.8260   27.1320   43.4340 C   0  0  0  0  0  0  0  0  0  0  0  0
   40.1250   27.1350   43.9570 C   0  0  0  0  0  0  0  0  0  0  0  0
   40.9600   26.0570   43.7720 C   0  0  0  0  0  0  0  0  0  0  0  0
   40.5040   24.9680   43.0630 C   0  0  0  0  0  0  0  0  0  0  0  0
   39.2380   24.9460   42.5460 C   0  0  0  0  0  0  0  0  0  0  0  0
   38.7650   23.8500   41.8290 C   0  0  0  0  0  0  0  0  0  0  0  0
   37.5030   23.8380   41.3200 C   0  0  0  0  0  0  0  0  0  0  0  0
   36.6300   24.9060   41.4850 C   0  0  0  0  0  0  0  0  0  0  0  0
   37.1290   25.9900   42.2050 C   0  0  0  0  0  0  0  0  0  0  0  0
   38.3920   26.0420   42.7350 C   0  0  0  0  0  0  0  0  0  0  0  0
   37.9070   28.2560   43.6120 C   0  0  0  0  0  0  0  0  0  0  0  0
   39.2400   30.1690   42.6290 C   0  0  0  0  0  0  0  0  0  0  0  0
   38.0960   29.3780   42.6590 C   0  0  0  0  0  0  0  0  0  0  0  0
   37.1060   29.6990   41.7320 C   0  0  0  0  0  0  0  0  0  0  0  0
   37.3110   30.7220   40.8890 N   0  0  0  0  0  0  0  0  0  0  0  0
   38.4190   31.4550   40.8910 C   0  0  0  0  0  0  0  0  0  0  0  0
   39.4080   31.1760   41.7770 N   0  0  0  0  0  0  0  0  0  0  0  0
   38.5050   32.5560   39.9000 C   0  0  0  0  0  0  0  0  0  0  0  0
   38.6030   33.9170   40.5280 C   0  0  0  0  0  0  0  0  0  0  0  0
   37.4070   33.5040   39.6890 C   0  0  0  0  0  0  0  0  0  0  0  0
   40.4819   28.0088   44.5220 H   0  0  0  0  0  0  0  0  0  0  0  0
   41.9793   26.0650   44.1854 H   0  0  0  0  0  0  0  0  0  0  0  0
   41.1672   24.1038   42.9104 H   0  0  0  0  0  0  0  0  0  0  0  0
   39.4211   22.9812   41.6717 H   0  0  0  0  0  0  0  0  0  0  0  0
   37.1632   22.9543   40.7600 H   0  0  0  0  0  0  0  0  0  0  0  0
   35.6099   24.8967   41.0736 H   0  0  0  0  0  0  0  0  0  0  0  0
   36.4690   26.8567   42.3572 H   0  0  0  0  0  0  0  0  0  0  0  0
   36.8802   27.8789   43.4958 H   0  0  0  0  0  0  0  0  0  0  0  0
   38.1116   28.6648   44.6125 H   0  0  0  0  0  0  0  0  0  0  0  0
   40.0455   29.9506   43.3456 H   0  0  0  0  0  0  0  0  0  0  0  0
   36.1704   29.1219   41.6923 H   0  0  0  0  0  0  0  0  0  0  0  0
   39.0687   31.9398   39.1841 H   0  0  0  0  0  0  0  0  0  0  0  0
   38.5033   34.0345   41.6172 H   0  0  0  0  0  0  0  0  0  0  0  0
   39.3300   34.7423   40.5130 H   0  0  0  0  0  0  0  0  0  0  0  0
   37.2519   33.9521   38.6964 H   0  0  0  0  0  0  0  0  0  0  0  0
   36.3191   33.4785   39.8494 H   0  0  0  0  0  0  0  0  0  0  0  0
  1 11  1  0
  1  2  2  0
  3  2  1  0
  4  3  2  0
  5 10  2  0
  5  4  1  0
  6  5  1  0
  7  8  1  0
  7  6  2  0
  8  9  2  0
  9 10  1  0
 10  1  1  0
 12 13  2  0
 13 11  1  0
 14 13  1  0
 15 16  1  0
 15 14  2  0
 16 17  2  0
 17 12  1  0
 18 19  1  0
 18 16  1  0
 20 18  1  0
 20 19  1  0
  2 21  1  0
  3 22  1  0
  4 23  1  0
  6 24  1  0
  7 25  1  0
  8 26  1  0
  9 27  1  0
 11 28  1  0
 11 29  1  0
 12 30  1  0
 14 31  1  0
 18 32  1  0
 19 33  1  0
 19 34  1  0
 20 35  1  0
 20 36  1  0
M  ISO  8  21  14  22  14  23  14  24  14  25  14  26  14  27  14  28   8
M  ISO  8  29   8  30  14  31  14  32  13  33  13  34  13  35  13  36  13
M  END
>  <minimizedAffinity>  (1) 
-6.23324633

>  <minimizedRMSD>  (1) 
0.305330515

$$$$
