
     RDKit          3D

 31 33  0  0  0  0  0  0  0  0999 V2000
   38.8130   27.0350   43.4240 C   0  0  0  0  0  0  0  0  0  0  0  0
   40.1120   27.0710   43.9390 C   0  0  0  0  0  0  0  0  0  0  0  0
   40.9810   26.0200   43.7250 C   0  0  0  0  0  0  0  0  0  0  0  0
   40.5540   24.9310   42.9940 C   0  0  0  0  0  0  0  0  0  0  0  0
   39.2850   24.8840   42.4820 C   0  0  0  0  0  0  0  0  0  0  0  0
   38.8360   23.7930   41.7440 C   0  0  0  0  0  0  0  0  0  0  0  0
   37.5800   23.7480   41.2420 C   0  0  0  0  0  0  0  0  0  0  0  0
   36.6750   24.7830   41.4350 C   0  0  0  0  0  0  0  0  0  0  0  0
   37.1430   25.8680   42.1770 C   0  0  0  0  0  0  0  0  0  0  0  0
   38.4050   25.9490   42.7020 C   0  0  0  0  0  0  0  0  0  0  0  0
   37.8620   28.1250   43.6300 C   0  0  0  0  0  0  0  0  0  0  0  0
   39.1590   30.0940   42.7090 C   0  0  0  0  0  0  0  0  0  0  0  0
   38.0260   29.2870   42.7220 C   0  0  0  0  0  0  0  0  0  0  0  0
   37.0240   29.6310   41.8210 C   0  0  0  0  0  0  0  0  0  0  0  0
   37.2020   30.6900   41.0160 N   0  0  0  0  0  0  0  0  0  0  0  0
   38.3000   31.4390   41.0330 C   0  0  0  0  0  0  0  0  0  0  0  0
   39.2930   31.1390   41.8900 N   0  0  0  0  0  0  0  0  0  0  0  0
   38.3940   32.5690   40.1160 C   0  0  0  0  0  0  0  0  0  0  0  0
   37.3530   33.2510   39.9190 O   0  0  0  0  0  0  0  0  0  0  0  0
   40.4445   27.9441   44.5196 H   0  0  0  0  0  0  0  0  0  0  0  0
   42.0022   26.0506   44.1327 H   0  0  0  0  0  0  0  0  0  0  0  0
   41.2414   24.0900   42.8202 H   0  0  0  0  0  0  0  0  0  0  0  0
   39.5173   22.9482   41.5646 H   0  0  0  0  0  0  0  0  0  0  0  0
   37.2671   22.8658   40.6643 H   0  0  0  0  0  0  0  0  0  0  0  0
   35.6534   24.7498   41.0286 H   0  0  0  0  0  0  0  0  0  0  0  0
   36.4563   26.7096   42.3508 H   0  0  0  0  0  0  0  0  0  0  0  0
   36.8479   27.7231   43.4884 H   0  0  0  0  0  0  0  0  0  0  0  0
   38.0470   28.5034   44.6462 H   0  0  0  0  0  0  0  0  0  0  0  0
   39.9795   29.8608   43.4035 H   0  0  0  0  0  0  0  0  0  0  0  0
   36.0964   29.0420   41.7688 H   0  0  0  0  0  0  0  0  0  0  0  0
   39.3407   32.8173   39.6138 H   0  0  0  0  0  0  0  0  0  0  0  0
  1 11  1  0
  1  2  2  0
  3  2  1  0
  4  3  2  0
  5 10  2  0
  5  4  1  0
  6  5  1  0
  7  8  1  0
  7  6  2  0
  8  9  2  0
  9 10  1  0
 10  1  1  0
 12 13  2  0
 13 11  1  0
 14 13  1  0
 15 16  1  0
 15 14  2  0
 16 17  2  0
 17 12  1  0
 18 16  1  0
 19 18  2  0
  2 20  1  0
  3 21  1  0
  4 22  1  0
  6 23  1  0
  7 24  1  0
  8 25  1  0
  9 26  1  0
 11 27  1  0
 11 28  1  0
 12 29  1  0
 14 30  1  0
 18 31  1  0
M  ISO  8  20  14  21  14  22  14  23  14  24  14  25  14  26  14  27   8
M  ISO  4  28   8  29  14  30  14  31   6
M  END
>  <minimizedAffinity>  (1) 
-5.79528618

>  <minimizedRMSD>  (1) 
0.0638016537

$$$$
