
     RDKit          3D

 39 42  0  0  0  0  0  0  0  0999 V2000
   36.4330   30.3910   41.3220 C   0  0  0  0  0  0  0  0  0  0  0  0
   36.8110   29.0750   41.7900 C   0  0  0  0  0  0  0  0  0  0  0  0
   37.2740   28.9050   43.1020 C   0  0  0  0  0  0  0  0  0  0  0  0
   37.6370   27.6760   43.5850 C   0  0  0  0  0  0  0  0  0  0  0  0
   37.5320   26.5760   42.7340 C   0  0  0  0  0  0  0  0  0  0  0  0
   37.0810   26.7220   41.4550 C   0  0  0  0  0  0  0  0  0  0  0  0
   36.9550   25.6300   40.6030 C   0  0  0  0  0  0  0  0  0  0  0  0
   36.4890   25.7820   39.3360 C   0  0  0  0  0  0  0  0  0  0  0  0
   36.1200   27.0230   38.8300 C   0  0  0  0  0  0  0  0  0  0  0  0
   36.2540   28.1170   39.7030 C   0  0  0  0  0  0  0  0  0  0  0  0
   36.7160   27.9840   40.9710 C   0  0  0  0  0  0  0  0  0  0  0  0
   38.8340   30.9460   41.0250 C   0  0  0  0  0  0  0  0  0  0  0  0
   37.5130   31.2400   40.7790 C   0  0  0  0  0  0  0  0  0  0  0  0
   37.2940   32.3830   40.0020 C   0  0  0  0  0  0  0  0  0  0  0  0
   38.3420   33.0860   39.5690 N   0  0  0  0  0  0  0  0  0  0  0  0
   39.5960   32.7690   39.8270 C   0  0  0  0  0  0  0  0  0  0  0  0
   39.8640   31.6660   40.5790 N   0  0  0  0  0  0  0  0  0  0  0  0
   40.5770   33.6460   39.2810 N   0  0  0  0  0  0  0  0  0  0  0  0
   41.6400   33.4920   38.5390 N   0  0  0  0  0  0  0  0  0  0  0  0
   42.2210   34.6900   38.3040 C   0  0  0  0  0  0  0  0  0  0  0  0
   41.4520   35.6510   38.9530 C   0  0  0  0  0  0  0  0  0  0  0  0
   40.4110   34.9620   39.5670 C   0  0  0  0  0  0  0  0  0  0  0  0
   39.3760   35.7070   40.3670 C   0  0  0  0  0  0  0  0  0  0  0  0
   39.8310   37.0040   40.6380 F   0  0  0  0  0  0  0  0  0  0  0  0
   38.2280   35.8430   39.6530 F   0  0  0  0  0  0  0  0  0  0  0  0
   39.0730   35.0190   41.5390 F   0  0  0  0  0  0  0  0  0  0  0  0
   35.6824   30.2593   40.5287 H   0  0  0  0  0  0  0  0  0  0  0  0
   36.0712   30.9214   42.2152 H   0  0  0  0  0  0  0  0  0  0  0  0
   37.3478   29.7823   43.7614 H   0  0  0  0  0  0  0  0  0  0  0  0
   38.0015   27.5595   44.6163 H   0  0  0  0  0  0  0  0  0  0  0  0
   37.8165   25.5780   43.0989 H   0  0  0  0  0  0  0  0  0  0  0  0
   37.2368   24.6285   40.9603 H   0  0  0  0  0  0  0  0  0  0  0  0
   36.4010   24.8956   38.6906 H   0  0  0  0  0  0  0  0  0  0  0  0
   35.7439   27.1426   37.8032 H   0  0  0  0  0  0  0  0  0  0  0  0
   35.9736   29.1182   39.3440 H   0  0  0  0  0  0  0  0  0  0  0  0
   39.0561   30.0556   41.6315 H   0  0  0  0  0  0  0  0  0  0  0  0
   36.2703   32.6980   39.7513 H   0  0  0  0  0  0  0  0  0  0  0  0
   43.1300   34.8708   37.7116 H   0  0  0  0  0  0  0  0  0  0  0  0
   41.6310   36.7361   38.9759 H   0  0  0  0  0  0  0  0  0  0  0  0
  1  2  1  0
  2  3  2  0
  3  4  1  0
  5  4  2  0
  6  5  1  0
  7  6  2  0
  8  7  1  0
  9  8  2  0
  9 10  1  0
 10 11  2  0
 11  6  1  0
 11  2  1  0
 13 12  2  0
 13  1  1  0
 14 13  1  0
 15 16  1  0
 15 14  2  0
 16 17  2  0
 17 12  1  0
 18 22  1  0
 18 16  1  0
 19 18  1  0
 20 19  2  0
 20 21  1  0
 21 22  2  0
 22 23  1  0
 23 24  1  0
 23 26  1  0
 25 23  1  0
  1 27  1  0
  1 28  1  0
  3 29  1  0
  4 30  1  0
  5 31  1  0
  7 32  1  0
  8 33  1  0
  9 34  1  0
 10 35  1  0
 12 36  1  0
 14 37  1  0
 20 38  1  0
 21 39  1  0
M  ISO  8  27   8  28   8  29  14  30  14  31  14  32  14  33  14  34  14
M  ISO  5  35  14  36  14  37  14  38  14  39  14
M  END
>  <minimizedAffinity>  (1) 
-7.43645096

>  <minimizedRMSD>  (1) 
2.61606097

$$$$
