
     RDKit          3D

 39 42  0  0  0  0  0  0  0  0999 V2000
   37.5550   28.0000   42.8370 C   0  0  0  0  0  0  0  0  0  0  0  0
   38.3410   26.7870   42.8660 C   0  0  0  0  0  0  0  0  0  0  0  0
   39.4270   26.6830   43.7420 C   0  0  0  0  0  0  0  0  0  0  0  0
   40.1970   25.5450   43.8030 C   0  0  0  0  0  0  0  0  0  0  0  0
   39.8680   24.4810   42.9630 C   0  0  0  0  0  0  0  0  0  0  0  0
   38.8140   24.5690   42.1090 C   0  0  0  0  0  0  0  0  0  0  0  0
   38.4620   23.5040   41.2770 C   0  0  0  0  0  0  0  0  0  0  0  0
   37.4010   23.5910   40.4410 C   0  0  0  0  0  0  0  0  0  0  0  0
   36.6120   24.7350   40.3650 C   0  0  0  0  0  0  0  0  0  0  0  0
   36.9780   25.7970   41.2070 C   0  0  0  0  0  0  0  0  0  0  0  0
   38.0430   25.7290   42.0550 C   0  0  0  0  0  0  0  0  0  0  0  0
   39.0260   29.9860   43.1140 C   0  0  0  0  0  0  0  0  0  0  0  0
   38.2190   29.2130   42.3090 C   0  0  0  0  0  0  0  0  0  0  0  0
   38.0710   29.6610   40.9950 C   0  0  0  0  0  0  0  0  0  0  0  0
   38.7040   30.7780   40.6140 N   0  0  0  0  0  0  0  0  0  0  0  0
   39.4700   31.4890   41.4170 C   0  0  0  0  0  0  0  0  0  0  0  0
   39.6460   31.0940   42.7090 N   0  0  0  0  0  0  0  0  0  0  0  0
   40.0550   32.6480   40.8380 N   0  0  0  0  0  0  0  0  0  0  0  0
   41.2610   33.1320   40.7350 N   0  0  0  0  0  0  0  0  0  0  0  0
   41.2490   34.3050   40.0640 C   0  0  0  0  0  0  0  0  0  0  0  0
   39.9410   34.5580   39.7310 C   0  0  0  0  0  0  0  0  0  0  0  0
   39.1870   33.4990   40.2270 C   0  0  0  0  0  0  0  0  0  0  0  0
   37.7480   33.5620   39.9870 C   0  0  0  0  0  0  0  0  0  0  0  0
   37.1070   34.2850   39.1850 O   0  0  0  0  0  0  0  0  0  0  0  0
   36.7780   32.8080   40.6250 O   0  0  0  0  0  0  0  0  0  0  0  0
   36.6691   27.8077   42.2140 H   0  0  0  0  0  0  0  0  0  0  0  0
   37.3369   28.2269   43.8910 H   0  0  0  0  0  0  0  0  0  0  0  0
   39.6709   27.5319   44.3977 H   0  0  0  0  0  0  0  0  0  0  0  0
   41.0490   25.4758   44.4953 H   0  0  0  0  0  0  0  0  0  0  0  0
   40.4686   23.5599   42.9920 H   0  0  0  0  0  0  0  0  0  0  0  0
   39.0569   22.5791   41.3015 H   0  0  0  0  0  0  0  0  0  0  0  0
   37.1546   22.7305   39.8016 H   0  0  0  0  0  0  0  0  0  0  0  0
   35.7508   24.8031   39.6841 H   0  0  0  0  0  0  0  0  0  0  0  0
   36.3815   26.7209   41.1814 H   0  0  0  0  0  0  0  0  0  0  0  0
   39.1678   29.6687   44.1576 H   0  0  0  0  0  0  0  0  0  0  0  0
   37.4436   29.1046   40.2831 H   0  0  0  0  0  0  0  0  0  0  0  0
   42.1193   34.9356   39.8297 H   0  0  0  0  0  0  0  0  0  0  0  0
   39.5621   35.4303   39.1783 H   0  0  0  0  0  0  0  0  0  0  0  0
   35.8240   32.9266   40.3887 H   0  0  0  0  0  0  0  0  0  0  0  0
  1  2  1  0
  2  3  2  0
  3  4  1  0
  5  4  2  0
  6  5  1  0
  7  6  2  0
  8  7  1  0
  9  8  2  0
  9 10  1  0
 10 11  2  0
 11  6  1  0
 11  2  1  0
 13  1  1  0
 13 12  2  0
 14 13  1  0
 15 14  2  0
 15 16  1  0
 16 17  2  0
 17 12  1  0
 18 16  1  0
 19 18  1  0
 20 19  2  0
 21 20  1  0
 21 22  2  0
 22 18  1  0
 23 22  1  0
 23 25  1  0
 24 23  2  0
  1 26  1  0
  1 27  1  0
  3 28  1  0
  4 29  1  0
  5 30  1  0
  7 31  1  0
  8 32  1  0
  9 33  1  0
 10 34  1  0
 12 35  1  0
 14 36  1  0
 20 37  1  0
 21 38  1  0
 25 39  1  0
M  ISO  8  26   8  27   8  28  14  29  14  30  14  31  14  32  14  33  14
M  ISO  6  34  14  35  14  36  14  37  14  38  14  39   3
M  END
>  <minimizedAffinity>  (1) 
-7.23680019

>  <minimizedRMSD>  (1) 
0.787969708

$$$$
