
     RDKit          3D

 42 45  0  0  0  0  0  0  0  0999 V2000
   37.4780   28.0930   43.2340 C   0  0  0  0  0  0  0  0  0  0  0  0
   38.3680   26.9600   43.1390 C   0  0  0  0  0  0  0  0  0  0  0  0
   39.5110   26.9030   43.9460 C   0  0  0  0  0  0  0  0  0  0  0  0
   40.3790   25.8400   43.8870 C   0  0  0  0  0  0  0  0  0  0  0  0
   40.0970   24.8040   42.9970 C   0  0  0  0  0  0  0  0  0  0  0  0
   38.9910   24.8480   42.2100 C   0  0  0  0  0  0  0  0  0  0  0  0
   38.6890   23.8080   41.3300 C   0  0  0  0  0  0  0  0  0  0  0  0
   37.5750   23.8470   40.5580 C   0  0  0  0  0  0  0  0  0  0  0  0
   36.6790   24.9180   40.6000 C   0  0  0  0  0  0  0  0  0  0  0  0
   37.0010   25.9520   41.4910 C   0  0  0  0  0  0  0  0  0  0  0  0
   38.1250   25.9310   42.2840 C   0  0  0  0  0  0  0  0  0  0  0  0
   37.1150   30.0020   41.6900 C   0  0  0  0  0  0  0  0  0  0  0  0
   37.9220   29.3500   42.5940 C   0  0  0  0  0  0  0  0  0  0  0  0
   39.1580   29.9600   42.8380 C   0  0  0  0  0  0  0  0  0  0  0  0
   39.4620   31.0900   42.2020 N   0  0  0  0  0  0  0  0  0  0  0  0
   38.6620   31.6870   41.3390 C   0  0  0  0  0  0  0  0  0  0  0  0
   37.4460   31.1350   41.0670 N   0  0  0  0  0  0  0  0  0  0  0  0
   39.1610   32.8840   40.7540 N   0  0  0  0  0  0  0  0  0  0  0  0
   38.7240   34.1070   40.6240 N   0  0  0  0  0  0  0  0  0  0  0  0
   39.6340   34.8560   39.9560 C   0  0  0  0  0  0  0  0  0  0  0  0
   40.7000   34.0380   39.6580 C   0  0  0  0  0  0  0  0  0  0  0  0
   40.3870   32.7790   40.1730 C   0  0  0  0  0  0  0  0  0  0  0  0
   41.3480   31.6290   40.0200 C   0  0  0  0  0  0  0  0  0  0  0  0
   41.1150   30.8680   38.7330 C   0  0  0  0  0  0  0  0  0  0  0  0
   36.5226   27.8044   42.7715 H   0  0  0  0  0  0  0  0  0  0  0  0
   37.4218   28.3233   44.3082 H   0  0  0  0  0  0  0  0  0  0  0  0
   39.7185   27.7283   44.6430 H   0  0  0  0  0  0  0  0  0  0  0  0
   41.2740   25.8067   44.5257 H   0  0  0  0  0  0  0  0  0  0  0  0
   40.7775   23.9422   42.9317 H   0  0  0  0  0  0  0  0  0  0  0  0
   39.3652   22.9431   41.2615 H   0  0  0  0  0  0  0  0  0  0  0  0
   37.3701   23.0082   39.8766 H   0  0  0  0  0  0  0  0  0  0  0  0
   35.7760   24.9484   39.9725 H   0  0  0  0  0  0  0  0  0  0  0  0
   36.3255   26.8175   41.5588 H   0  0  0  0  0  0  0  0  0  0  0  0
   36.1327   29.5605   41.4661 H   0  0  0  0  0  0  0  0  0  0  0  0
   39.8698   29.5114   43.5466 H   0  0  0  0  0  0  0  0  0  0  0  0
   39.5385   35.9213   39.6992 H   0  0  0  0  0  0  0  0  0  0  0  0
   41.6171   34.3205   39.1204 H   0  0  0  0  0  0  0  0  0  0  0  0
   42.3756   32.0215   40.0203 H   0  0  0  0  0  0  0  0  0  0  0  0
   41.1884   30.9366   40.8597 H   0  0  0  0  0  0  0  0  0  0  0  0
   40.8003   29.8402   38.9666 H   0  0  0  0  0  0  0  0  0  0  0  0
   40.3289   31.3682   38.1484 H   0  0  0  0  0  0  0  0  0  0  0  0
   42.0465   30.8424   38.1484 H   0  0  0  0  0  0  0  0  0  0  0  0
  2  1  1  0
  2  3  2  0
  4  3  1  0
  5  4  2  0
  6 11  2  0
  6  5  1  0
  7  6  1  0
  8  9  1  0
  8  7  2  0
  9 10  2  0
 10 11  1  0
 11  2  1  0
 12 13  2  0
 13 14  1  0
 13  1  1  0
 15 14  2  0
 16 15  1  0
 17 16  2  0
 17 12  1  0
 18 16  1  0
 19 18  1  0
 20 19  2  0
 21 20  1  0
 21 22  2  0
 22 18  1  0
 23 22  1  0
 24 23  1  0
  1 25  1  0
  1 26  1  0
  3 27  1  0
  4 28  1  0
  5 29  1  0
  7 30  1  0
  8 31  1  0
  9 32  1  0
 10 33  1  0
 12 34  1  0
 14 35  1  0
 20 36  1  0
 21 37  1  0
 23 38  1  0
 23 39  1  0
 24 40  1  0
 24 41  1  0
 24 42  1  0
M  ISO  8  25   8  26   8  27  14  28  14  29  14  30  14  31  14  32  14
M  ISO  8  33  14  34  14  35  14  36  14  37  14  38   8  39   8  40   8
M  ISO  2  41   8  42   8
M  END
>  <minimizedAffinity>  (1) 
-6.76267719

>  <minimizedRMSD>  (1) 
2.11549544

$$$$
