
     RDKit          3D

 40 43  0  0  0  0  0  0  0  0999 V2000
   36.9660   28.4260   42.4410 C   0  0  0  0  0  0  0  0  0  0  0  0
   37.8820   27.3540   42.7050 C   0  0  0  0  0  0  0  0  0  0  0  0
   38.8630   27.5350   43.6940 C   0  0  0  0  0  0  0  0  0  0  0  0
   39.7710   26.5590   44.0050 C   0  0  0  0  0  0  0  0  0  0  0  0
   39.7000   25.3490   43.3050 C   0  0  0  0  0  0  0  0  0  0  0  0
   38.7550   25.1670   42.3500 C   0  0  0  0  0  0  0  0  0  0  0  0
   38.6790   23.9520   41.6500 C   0  0  0  0  0  0  0  0  0  0  0  0
   37.7350   23.7620   40.6980 C   0  0  0  0  0  0  0  0  0  0  0  0
   36.8030   24.7530   40.3710 C   0  0  0  0  0  0  0  0  0  0  0  0
   36.9010   25.9580   41.0850 C   0  0  0  0  0  0  0  0  0  0  0  0
   37.8330   26.1660   42.0350 C   0  0  0  0  0  0  0  0  0  0  0  0
   36.7510   30.5520   41.2220 C   0  0  0  0  0  0  0  0  0  0  0  0
   37.5270   29.7070   41.9660 C   0  0  0  0  0  0  0  0  0  0  0  0
   38.8310   30.1610   42.2070 C   0  0  0  0  0  0  0  0  0  0  0  0
   39.2130   31.3430   41.7120 N   0  0  0  0  0  0  0  0  0  0  0  0
   38.4380   32.1220   41.0030 C   0  0  0  0  0  0  0  0  0  0  0  0
   37.1480   31.7300   40.7350 N   0  0  0  0  0  0  0  0  0  0  0  0
   39.0280   33.3350   40.5540 N   0  0  0  0  0  0  0  0  0  0  0  0
   38.7080   34.6090   40.6350 N   0  0  0  0  0  0  0  0  0  0  0  0
   39.6380   35.3620   40.0190 C   0  0  0  0  0  0  0  0  0  0  0  0
   40.5910   34.4970   39.5290 C   0  0  0  0  0  0  0  0  0  0  0  0
   40.1730   33.2330   39.8840 C   0  0  0  0  0  0  0  0  0  0  0  0
   40.9570   32.1280   39.5140 O   0  0  0  0  0  0  0  0  0  0  0  0
   40.8710   31.5680   38.2260 C   0  0  0  0  0  0  0  0  0  0  0  0
   36.2590   28.0731   41.6757 H   0  0  0  0  0  0  0  0  0  0  0  0
   36.5244   28.6620   43.4205 H   0  0  0  0  0  0  0  0  0  0  0  0
   38.9028   28.4915   44.2358 H   0  0  0  0  0  0  0  0  0  0  0  0
   40.5333   26.7207   44.7814 H   0  0  0  0  0  0  0  0  0  0  0  0
   40.4135   24.5428   43.5305 H   0  0  0  0  0  0  0  0  0  0  0  0
   39.3932   23.1469   41.8772 H   0  0  0  0  0  0  0  0  0  0  0  0
   37.6998   22.7999   40.1659 H   0  0  0  0  0  0  0  0  0  0  0  0
   36.0364   24.5968   39.5978 H   0  0  0  0  0  0  0  0  0  0  0  0
   36.1880   26.7647   40.8595 H   0  0  0  0  0  0  0  0  0  0  0  0
   35.7191   30.2366   41.0080 H   0  0  0  0  0  0  0  0  0  0  0  0
   39.5321   29.5520   42.7966 H   0  0  0  0  0  0  0  0  0  0  0  0
   39.6371   36.4580   39.9250 H   0  0  0  0  0  0  0  0  0  0  0  0
   41.5000   34.7612   38.9688 H   0  0  0  0  0  0  0  0  0  0  0  0
   40.7045   30.4838   38.3080 H   0  0  0  0  0  0  0  0  0  0  0  0
   40.0329   32.0276   37.6816 H   0  0  0  0  0  0  0  0  0  0  0  0
   41.8084   31.7549   37.6816 H   0  0  0  0  0  0  0  0  0  0  0  0
  1  2  1  0
  2  3  2  0
  3  4  1  0
  5  4  2  0
  6  5  1  0
  7  6  2  0
  8  7  1  0
  9  8  2  0
  9 10  1  0
 10 11  2  0
 11  6  1  0
 11  2  1  0
 12 13  2  0
 13 14  1  0
 13  1  1  0
 15 14  2  0
 16 15  1  0
 17 16  2  0
 17 12  1  0
 18 19  1  0
 18 16  1  0
 20 19  2  0
 21 22  2  0
 21 20  1  0
 22 18  1  0
 23 22  1  0
 24 23  1  0
  1 25  1  0
  1 26  1  0
  3 27  1  0
  4 28  1  0
  5 29  1  0
  7 30  1  0
  8 31  1  0
  9 32  1  0
 10 33  1  0
 12 34  1  0
 14 35  1  0
 20 36  1  0
 21 37  1  0
 24 38  1  0
 24 39  1  0
 24 40  1  0
M  ISO  8  25   8  26   8  27  14  28  14  29  14  30  14  31  14  32  14
M  ISO  8  33  14  34  14  35  14  36  14  37  14  38   8  39   8  40   8
M  END
>  <minimizedAffinity>  (1) 
-6.88162279

>  <minimizedRMSD>  (1) 
1.94654477

$$$$
