
     RDKit          3D

 40 43  0  0  0  0  0  0  0  0999 V2000
   38.4760   29.2950   42.9340 C   0  0  0  0  0  0  0  0  0  0  0  0
   38.7800   27.8960   42.8800 C   0  0  0  0  0  0  0  0  0  0  0  0
   39.7540   27.3850   43.7620 C   0  0  0  0  0  0  0  0  0  0  0  0
   40.0980   26.0590   43.7750 C   0  0  0  0  0  0  0  0  0  0  0  0
   39.4500   25.2010   42.8790 C   0  0  0  0  0  0  0  0  0  0  0  0
   38.5110   25.6850   42.0280 C   0  0  0  0  0  0  0  0  0  0  0  0
   37.8540   24.8290   41.1350 C   0  0  0  0  0  0  0  0  0  0  0  0
   36.9110   25.3060   40.2890 C   0  0  0  0  0  0  0  0  0  0  0  0
   36.5510   26.6540   40.2630 C   0  0  0  0  0  0  0  0  0  0  0  0
   37.2260   27.4950   41.1690 C   0  0  0  0  0  0  0  0  0  0  0  0
   38.1640   27.0290   42.0150 C   0  0  0  0  0  0  0  0  0  0  0  0
   40.4400   30.7620   42.7090 C   0  0  0  0  0  0  0  0  0  0  0  0
   39.3230   30.2120   42.1430 C   0  0  0  0  0  0  0  0  0  0  0  0
   39.0910   30.5920   40.8240 C   0  0  0  0  0  0  0  0  0  0  0  0
   39.9350   31.4350   40.2140 N   0  0  0  0  0  0  0  0  0  0  0  0
   40.9950   31.9390   40.7900 C   0  0  0  0  0  0  0  0  0  0  0  0
   41.2770   31.6010   42.0920 N   0  0  0  0  0  0  0  0  0  0  0  0
   41.7850   32.8190   40.0070 N   0  0  0  0  0  0  0  0  0  0  0  0
   43.0320   32.9070   39.6640 N   0  0  0  0  0  0  0  0  0  0  0  0
   43.2250   33.9920   38.8780 C   0  0  0  0  0  0  0  0  0  0  0  0
   42.0090   34.6140   38.7290 C   0  0  0  0  0  0  0  0  0  0  0  0
   41.1210   33.8550   39.4490 C   0  0  0  0  0  0  0  0  0  0  0  0
   39.7600   34.2550   39.4830 O   0  0  0  0  0  0  0  0  0  0  0  0
   39.3180   35.2050   40.4350 C   0  0  0  0  0  0  0  0  0  0  0  0
   38.5760   36.2200   39.8570 F   0  0  0  0  0  0  0  0  0  0  0  0
   38.5490   34.5180   41.3540 F   0  0  0  0  0  0  0  0  0  0  0  0
   40.3500   35.8000   41.1310 F   0  0  0  0  0  0  0  0  0  0  0  0
   37.4405   29.4201   42.5845 H   0  0  0  0  0  0  0  0  0  0  0  0
   38.6593   29.5796   43.9806 H   0  0  0  0  0  0  0  0  0  0  0  0
   40.2530   28.0721   44.4612 H   0  0  0  0  0  0  0  0  0  0  0  0
   40.8617   25.6795   44.4698 H   0  0  0  0  0  0  0  0  0  0  0  0
   39.7030   24.1306   42.8648 H   0  0  0  0  0  0  0  0  0  0  0  0
   38.1068   23.7585   41.1210 H   0  0  0  0  0  0  0  0  0  0  0  0
   36.4124   24.6085   39.5998 H   0  0  0  0  0  0  0  0  0  0  0  0
   35.7839   27.0378   39.5743 H   0  0  0  0  0  0  0  0  0  0  0  0
   36.9789   28.5668   41.1859 H   0  0  0  0  0  0  0  0  0  0  0  0
   40.6665   30.4932   43.7513 H   0  0  0  0  0  0  0  0  0  0  0  0
   38.2164   30.2009   40.2836 H   0  0  0  0  0  0  0  0  0  0  0  0
   44.1801   34.3162   38.4391 H   0  0  0  0  0  0  0  0  0  0  0  0
   41.7931   35.5268   38.1544 H   0  0  0  0  0  0  0  0  0  0  0  0
  2  1  1  0
  2  3  2  0
  3  4  1  0
  5  4  2  0
  6  5  1  0
  7  6  2  0
  8  7  1  0
  9  8  2  0
  9 10  1  0
 10 11  2  0
 11  6  1  0
 11  2  1  0
 13 12  2  0
 13  1  1  0
 14 13  1  0
 15 16  1  0
 15 14  2  0
 16 17  2  0
 17 12  1  0
 18 16  1  0
 19 18  1  0
 20 19  2  0
 21 20  1  0
 21 22  2  0
 22 23  1  0
 22 18  1  0
 23 24  1  0
 24 27  1  0
 24 26  1  0
 25 24  1  0
  1 28  1  0
  1 29  1  0
  3 30  1  0
  4 31  1  0
  5 32  1  0
  7 33  1  0
  8 34  1  0
  9 35  1  0
 10 36  1  0
 12 37  1  0
 14 38  1  0
 20 39  1  0
 21 40  1  0
M  ISO  8  28   8  29   8  30  14  31  14  32  14  33  14  34  14  35  14
M  ISO  5  36  14  37  14  38  14  39  14  40  14
M  END
>  <minimizedAffinity>  (1) 
-6.66172028

>  <minimizedRMSD>  (1) 
1.86296666

$$$$
