
     RDKit          3D

 40 43  0  0  1  0  0  0  0  0999 V2000
   40.0700   28.3230   43.0200 N   0  0  0  0  0  0  0  0  0  0  0  0
   40.7910   29.5050   42.6750 C   0  0  0  0  0  0  0  0  0  0  0  0
   42.0040   28.9860   41.9310 C   0  0  0  0  0  0  0  0  0  0  0  0
   42.8500   28.3130   42.8380 N   0  0  0  0  0  0  0  0  0  0  0  0
   42.2390   27.4250   43.7240 C   0  0  0  0  0  0  0  0  0  0  0  0
   40.7530   27.1870   43.6280 C   0  0  2  0  0  0  0  0  0  0  0  0
   38.6650   28.1540   42.8080 C   0  0  0  0  0  0  0  0  0  0  0  0
   37.7850   27.7340   43.8380 C   0  0  0  0  0  0  0  0  0  0  0  0
   36.4420   27.5910   43.5410 C   0  0  0  0  0  0  0  0  0  0  0  0
   36.0470   27.8650   42.2700 N   0  0  0  0  0  0  0  0  0  0  0  0
   36.9020   28.2620   41.3090 C   0  0  0  0  0  0  0  0  0  0  0  0
   38.2060   28.4060   41.5760 N   0  0  0  0  0  0  0  0  0  0  0  0
   40.4010   25.9210   42.9830 C   0  0  0  0  0  0  0  0  0  0  0  0
   40.2660   24.9640   43.8210 O   0  0  0  0  0  0  0  0  0  0  0  0
   40.1450   25.3160   41.6920 C   0  0  0  0  0  0  0  0  0  0  0  0
   40.9820   25.1160   40.6340 C   0  0  0  0  0  0  0  0  0  0  0  0
   40.4210   24.5170   39.5770 N   0  0  0  0  0  0  0  0  0  0  0  0
   39.1550   24.3160   39.9640 C   0  0  0  0  0  0  0  0  0  0  0  0
   38.0950   23.7370   39.3030 C   0  0  0  0  0  0  0  0  0  0  0  0
   36.8530   23.6130   39.8600 C   0  0  0  0  0  0  0  0  0  0  0  0
   36.5840   24.0640   41.1330 C   0  0  0  0  0  0  0  0  0  0  0  0
   37.6700   24.6320   41.7540 C   0  0  0  0  0  0  0  0  0  0  0  0
   38.9490   24.7950   41.2620 C   0  0  0  0  0  0  0  0  0  0  0  0
   40.1858   30.1585   42.0296 H   0  0  0  0  0  0  0  0  0  0  0  0
   41.0585   30.1109   43.5532 H   0  0  0  0  0  0  0  0  0  0  0  0
   41.6822   28.2903   41.1421 H   0  0  0  0  0  0  0  0  0  0  0  0
   42.5458   29.8271   41.4738 H   0  0  0  0  0  0  0  0  0  0  0  0
   43.5377   27.7801   42.2867 H   0  0  0  0  0  0  0  0  0  0  0  0
   42.7290   26.4495   43.5885 H   0  0  0  0  0  0  0  0  0  0  0  0
   42.3606   27.9113   44.7031 H   0  0  0  0  0  0  0  0  0  0  0  0
   40.3924   27.0932   44.6630 H   0  0  0  0  0  0  0  0  0  0  0  0
   38.1623   27.5267   44.8503 H   0  0  0  0  0  0  0  0  0  0  0  0
   35.7202   27.2674   44.3053 H   0  0  0  0  0  0  0  0  0  0  0  0
   36.5263   28.4698   40.2963 H   0  0  0  0  0  0  0  0  0  0  0  0
   42.0380   25.4237   40.6484 H   0  0  0  0  0  0  0  0  0  0  0  0
   40.8593   24.2692   38.6784 H   0  0  0  0  0  0  0  0  0  0  0  0
   38.2546   23.3579   38.2828 H   0  0  0  0  0  0  0  0  0  0  0  0
   36.0484   23.1412   39.2769 H   0  0  0  0  0  0  0  0  0  0  0  0
   35.5951   23.9778   41.6069 H   0  0  0  0  0  0  0  0  0  0  0  0
   37.4979   25.0047   42.7745 H   0  0  0  0  0  0  0  0  0  0  0  0
  1  6  1  0
  2  1  1  0
  3  2  1  0
  3  4  1  0
  4  5  1  0
  6  5  1  0
  7  1  1  0
  7  8  2  0
  9  8  1  0
 10  9  2  0
 11 12  2  0
 11 10  1  0
 12  7  1  0
 13  6  1  0
 13 14  2  0
 15 13  1  0
 16 15  2  0
 17 18  1  0
 17 16  1  0
 18 23  2  0
 19 20  2  0
 19 18  1  0
 20 21  1  0
 21 22  2  0
 23 15  1  0
 23 22  1  0
  2 24  1  0
  2 25  1  0
  3 26  1  0
  3 27  1  0
  4 28  1  0
  5 29  1  0
  5 30  1  0
  6 31  1  1
  8 32  1  0
  9 33  1  0
 11 34  1  0
 16 35  1  0
 17 36  1  0
 19 37  1  0
 20 38  1  0
 21 39  1  0
 22 40  1  0
M  ISO  8  24  13  25  13  26  13  27  13  28   5  29  13  30  13  31  13
M  ISO  8  32  14  33  14  34  14  35  14  36   9  37  14  38  14  39  14
M  ISO  1  40  14
M  END
>  <minimizedAffinity>  (1) 
-4.85682154

>  <minimizedRMSD>  (1) 
2.44181252

$$$$
