
     RDKit          3D

 39 41  0  0  1  0  0  0  0  0999 V2000
   40.1210   27.5150   43.0880 N   0  0  0  0  0  0  0  0  0  0  0  0
   41.1620   28.4600   42.8520 C   0  0  0  0  0  0  0  0  0  0  0  0
   42.2440   27.6620   42.1730 C   0  0  0  0  0  0  0  0  0  0  0  0
   42.7980   26.7140   43.0620 N   0  0  0  0  0  0  0  0  0  0  0  0
   41.9050   26.0640   43.9210 C   0  0  0  0  0  0  0  0  0  0  0  0
   40.4220   26.2250   43.6990 C   0  0  2  0  0  0  0  0  0  0  0  0
   38.7420   27.7350   42.7690 C   0  0  0  0  0  0  0  0  0  0  0  0
   37.7120   27.5660   43.7300 C   0  0  0  0  0  0  0  0  0  0  0  0
   36.4040   27.8000   43.3270 C   0  0  0  0  0  0  0  0  0  0  0  0
   36.1950   28.1750   42.0380 N   0  0  0  0  0  0  0  0  0  0  0  0
   37.1970   28.3260   41.1490 C   0  0  0  0  0  0  0  0  0  0  0  0
   38.4590   28.1050   41.5230 N   0  0  0  0  0  0  0  0  0  0  0  0
   39.7980   25.1180   42.9810 C   0  0  0  0  0  0  0  0  0  0  0  0
   39.7110   24.0540   43.6830 O   0  0  0  0  0  0  0  0  0  0  0  0
   38.0690   23.8350   39.3480 C   0  0  0  0  0  0  0  0  0  0  0  0
   39.3540   24.3130   39.3350 C   0  0  0  0  0  0  0  0  0  0  0  0
   39.9130   24.7370   40.5570 C   0  0  0  0  0  0  0  0  0  0  0  0
   39.2100   24.6840   41.7430 C   0  0  0  0  0  0  0  0  0  0  0  0
   37.9370   24.1830   41.6050 C   0  0  0  0  0  0  0  0  0  0  0  0
   37.2960   23.7470   40.4840 C   0  0  0  0  0  0  0  0  0  0  0  0
   37.4040   23.3160   37.8130 S   0  0  0  0  0  0  0  0  0  0  0  0
   38.3970   22.4990   37.0340 O   0  0  0  0  0  0  0  0  0  0  0  0
   36.1820   22.4620   38.0080 O   0  0  0  0  0  0  0  0  0  0  0  0
   40.8098   29.2726   42.1996 H   0  0  0  0  0  0  0  0  0  0  0  0
   41.5122   28.9388   43.7784 H   0  0  0  0  0  0  0  0  0  0  0  0
   41.8157   27.1371   41.3064 H   0  0  0  0  0  0  0  0  0  0  0  0
   43.0392   28.3491   41.8483 H   0  0  0  0  0  0  0  0  0  0  0  0
   43.2685   25.9930   42.4966 H   0  0  0  0  0  0  0  0  0  0  0  0
   42.1244   24.9879   43.8585 H   0  0  0  0  0  0  0  0  0  0  0  0
   42.0782   26.5479   44.8936 H   0  0  0  0  0  0  0  0  0  0  0  0
   39.9643   26.2000   44.6990 H   0  0  0  0  0  0  0  0  0  0  0  0
   37.9422   27.2595   44.7610 H   0  0  0  0  0  0  0  0  0  0  0  0
   35.5645   27.6855   44.0285 H   0  0  0  0  0  0  0  0  0  0  0  0
   36.9747   28.6312   40.1158 H   0  0  0  0  0  0  0  0  0  0  0  0
   39.9307   24.3639   38.3997 H   0  0  0  0  0  0  0  0  0  0  0  0
   40.9431   25.1227   40.5657 H   0  0  0  0  0  0  0  0  0  0  0  0
   37.3509   24.1258   42.5341 H   0  0  0  0  0  0  0  0  0  0  0  0
   36.2650   23.3635   40.4866 H   0  0  0  0  0  0  0  0  0  0  0  0
   37.0851   24.4592   37.1287 H   0  0  0  0  0  0  0  0  0  0  0  0
  1  6  1  0
  2  1  1  0
  3  2  1  0
  3  4  1  0
  4  5  1  0
  6  5  1  0
  7  1  1  0
  7  8  2  0
  9  8  1  0
 10  9  2  0
 11 12  2  0
 11 10  1  0
 12  7  1  0
 13 14  2  0
 13  6  1  0
 15 20  2  0
 16 15  1  0
 16 17  2  0
 17 18  1  0
 18 13  1  0
 19 18  2  0
 20 19  1  0
 21 23  2  0
 21 15  1  0
 22 21  2  0
  2 24  1  0
  2 25  1  0
  3 26  1  0
  3 27  1  0
  4 28  1  0
  5 29  1  0
  5 30  1  0
  6 31  1  1
  8 32  1  0
  9 33  1  0
 11 34  1  0
 16 35  1  0
 17 36  1  0
 19 37  1  0
 20 38  1  0
 21 39  1  0
M  ISO  8  24  13  25  13  26  13  27  13  28   5  29  13  30  13  31  13
M  ISO  8  32  14  33  14  34  14  35  14  36  14  37  14  38  14  39  11
M  END
>  <minimizedAffinity>  (1) 
-4.39631414

>  <minimizedRMSD>  (1) 
3.35417962

$$$$
