
     RDKit          3D

 32 34  0  0  1  0  0  0  0  0999 V2000
   37.9880   27.4640   41.3870 N   0  0  0  0  0  0  0  0  0  0  0  0
   38.0260   26.2810   42.2230 C   0  0  0  0  0  0  0  0  0  0  0  0
   38.9710   26.6530   43.3530 C   0  0  0  0  0  0  0  0  0  0  0  0
   39.4890   28.0290   43.0270 C   0  0  0  0  0  0  0  0  0  0  0  0
   39.2800   28.0500   41.5260 C   0  0  2  0  0  0  0  0  0  0  0  0
   35.8970   28.7760   41.1230 C   0  0  0  0  0  0  0  0  0  0  0  0
   36.9110   27.9150   40.6190 C   0  0  0  0  0  0  0  0  0  0  0  0
   36.7890   27.5230   39.2850 C   0  0  0  0  0  0  0  0  0  0  0  0
   35.7340   27.9750   38.5630 N   0  0  0  0  0  0  0  0  0  0  0  0
   34.7970   28.7860   39.0730 C   0  0  0  0  0  0  0  0  0  0  0  0
   34.8770   29.1940   40.3720 N   0  0  0  0  0  0  0  0  0  0  0  0
   39.4760   29.3210   40.9130 N   0  0  0  0  0  0  0  0  0  0  0  0
   39.9080   29.6170   39.6720 C   0  0  0  0  0  0  0  0  0  0  0  0
   40.0340   30.9290   39.2570 C   0  0  0  0  0  0  0  0  0  0  0  0
   39.7180   31.9870   40.1120 C   0  0  0  0  0  0  0  0  0  0  0  0
   39.8310   33.1750   39.7380 O   0  0  0  0  0  0  0  0  0  0  0  0
   39.2910   31.6430   41.3410 N   0  0  0  0  0  0  0  0  0  0  0  0
   39.1660   30.3530   41.7510 C   0  0  0  0  0  0  0  0  0  0  0  0
   38.7470   30.2140   42.9500 O   0  0  0  0  0  0  0  0  0  0  0  0
   37.0246   26.0467   42.6132 H   0  0  0  0  0  0  0  0  0  0  0  0
   38.3574   25.3875   41.6737 H   0  0  0  0  0  0  0  0  0  0  0  0
   38.4331   26.6648   44.3125 H   0  0  0  0  0  0  0  0  0  0  0  0
   39.7913   25.9262   43.4471 H   0  0  0  0  0  0  0  0  0  0  0  0
   38.9045   28.8134   43.5301 H   0  0  0  0  0  0  0  0  0  0  0  0
   40.5231   28.2196   43.3501 H   0  0  0  0  0  0  0  0  0  0  0  0
   40.0416   27.4860   40.9676 H   0  0  0  0  0  0  0  0  0  0  0  0
   35.9562   29.1090   42.1697 H   0  0  0  0  0  0  0  0  0  0  0  0
   37.5363   26.8584   38.8270 H   0  0  0  0  0  0  0  0  0  0  0  0
   33.9613   29.1235   38.4424 H   0  0  0  0  0  0  0  0  0  0  0  0
   40.1643   28.8023   38.9787 H   0  0  0  0  0  0  0  0  0  0  0  0
   40.3885   31.1433   38.2380 H   0  0  0  0  0  0  0  0  0  0  0  0
   39.0471   32.3935   42.0030 H   0  0  0  0  0  0  0  0  0  0  0  0
  1  5  1  0
  1  2  1  0
  2  3  1  0
  4  3  1  0
  5  4  1  0
  7  6  2  0
  7  1  1  0
  8  7  1  0
  9 10  1  0
  9  8  2  0
 10 11  2  0
 11  6  1  0
 12  5  1  0
 12 18  1  0
 13 12  1  0
 14 13  2  0
 14 15  1  0
 15 17  1  0
 16 15  2  0
 17 18  1  0
 18 19  2  0
  2 20  1  0
  2 21  1  0
  3 22  1  0
  3 23  1  0
  4 24  1  0
  4 25  1  0
  5 26  1  6
  6 27  1  0
  8 28  1  0
 10 29  1  0
 13 30  1  0
 14 31  1  0
 17 32  1  0
M  ISO  8  20  13  21  13  22  13  23  13  24  13  25  13  26  13  27  14
M  ISO  5  28  14  29  14  30  14  31  14  32   9
M  END
>  <minimizedAffinity>  (1) 
-4.35036421

>  <minimizedRMSD>  (1) 
1.54528403

$$$$
