
     RDKit          3D

 36 38  0  0  1  0  0  0  0  0999 V2000
   40.2630   27.4940   43.1780 N   0  0  0  0  0  0  0  0  0  0  0  0
   41.2720   28.4930   43.0450 C   0  0  0  0  0  0  0  0  0  0  0  0
   42.3910   27.7850   42.3080 C   0  0  0  0  0  0  0  0  0  0  0  0
   42.9720   26.8190   43.1560 N   0  0  0  0  0  0  0  0  0  0  0  0
   42.0890   26.0080   43.8760 C   0  0  0  0  0  0  0  0  0  0  0  0
   40.6040   26.1750   43.6860 C   0  0  2  0  0  0  0  0  0  0  0  0
   38.8880   27.6950   42.8470 C   0  0  0  0  0  0  0  0  0  0  0  0
   37.8480   27.5300   43.7970 C   0  0  0  0  0  0  0  0  0  0  0  0
   36.5420   27.7470   43.3820 C   0  0  0  0  0  0  0  0  0  0  0  0
   36.3390   28.1060   42.0900 N   0  0  0  0  0  0  0  0  0  0  0  0
   37.3440   28.2580   41.2050 C   0  0  0  0  0  0  0  0  0  0  0  0
   38.6010   28.0490   41.5990 N   0  0  0  0  0  0  0  0  0  0  0  0
   40.0180   25.0940   42.8970 C   0  0  0  0  0  0  0  0  0  0  0  0
   39.5430   24.1490   43.6210 O   0  0  0  0  0  0  0  0  0  0  0  0
   39.7610   24.6510   41.5390 C   0  0  0  0  0  0  0  0  0  0  0  0
   38.7660   23.7770   41.1740 C   0  0  0  0  0  0  0  0  0  0  0  0
   38.4750   23.2400   39.9520 C   0  0  0  0  0  0  0  0  0  0  0  0
   39.3270   23.6630   38.9610 C   0  0  0  0  0  0  0  0  0  0  0  0
   40.3670   24.5340   39.1620 C   0  0  0  0  0  0  0  0  0  0  0  0
   40.5410   24.9930   40.4450 C   0  0  0  0  0  0  0  0  0  0  0  0
   40.9005   29.3494   42.4631 H   0  0  0  0  0  0  0  0  0  0  0  0
   41.5944   28.9019   44.0139 H   0  0  0  0  0  0  0  0  0  0  0  0
   41.9859   27.2912   41.4124 H   0  0  0  0  0  0  0  0  0  0  0  0
   43.1546   28.5175   42.0076 H   0  0  0  0  0  0  0  0  0  0  0  0
   43.5580   26.2036   42.5739 H   0  0  0  0  0  0  0  0  0  0  0  0
   42.3292   24.9660   43.6178 H   0  0  0  0  0  0  0  0  0  0  0  0
   42.2513   26.3138   44.9201 H   0  0  0  0  0  0  0  0  0  0  0  0
   40.1464   26.1013   44.6836 H   0  0  0  0  0  0  0  0  0  0  0  0
   38.0706   27.2381   44.8339 H   0  0  0  0  0  0  0  0  0  0  0  0
   35.6984   27.6316   44.0784 H   0  0  0  0  0  0  0  0  0  0  0  0
   37.1295   28.5518   40.1669 H   0  0  0  0  0  0  0  0  0  0  0  0
   38.1013   23.4609   41.9915 H   0  0  0  0  0  0  0  0  0  0  0  0
   37.6437   22.5406   39.7793 H   0  0  0  0  0  0  0  0  0  0  0  0
   39.1650   23.2792   37.9429 H   0  0  0  0  0  0  0  0  0  0  0  0
   41.0266   24.8483   38.3398 H   0  0  0  0  0  0  0  0  0  0  0  0
   41.3715   25.6928   40.6196 H   0  0  0  0  0  0  0  0  0  0  0  0
  1  6  1  0
  2  1  1  0
  3  2  1  0
  3  4  1  0
  4  5  1  0
  6  5  1  0
  7  1  1  0
  7  8  2  0
  9  8  1  0
 10  9  2  0
 11 12  2  0
 11 10  1  0
 12  7  1  0
 13 14  2  0
 13  6  1  0
 15 13  1  0
 16 15  2  0
 17 16  1  0
 18 19  1  0
 18 17  2  0
 19 20  2  0
 20 15  1  0
  2 21  1  0
  2 22  1  0
  3 23  1  0
  3 24  1  0
  4 25  1  0
  5 26  1  0
  5 27  1  0
  6 28  1  1
  8 29  1  0
  9 30  1  0
 11 31  1  0
 16 32  1  0
 17 33  1  0
 18 34  1  0
 19 35  1  0
 20 36  1  0
M  ISO  8  21  13  22  13  23  13  24  13  25   5  26  13  27  13  28  13
M  ISO  8  29  14  30  14  31  14  32  14  33  14  34  14  35  14  36  14
M  END
>  <minimizedAffinity>  (1) 
-4.39546776

>  <minimizedRMSD>  (1) 
3.04076004

$$$$
