
     RDKit          3D

 36 39  0  0  1  0  0  0  0  0999 V2000
   38.7290   27.4200   42.1770 N   0  0  0  0  0  0  0  0  0  0  0  0
   38.5760   26.1660   42.8970 C   0  0  0  0  0  0  0  0  0  0  0  0
   39.7550   26.1220   43.8470 C   0  0  0  0  0  0  0  0  0  0  0  0
   40.5740   27.3650   43.5380 C   0  0  0  0  0  0  0  0  0  0  0  0
   40.1300   27.5670   42.1220 C   0  0  2  0  0  0  0  0  0  0  0  0
   40.7670   28.5340   41.2960 C   0  0  0  0  0  0  0  0  0  0  0  0
   40.9200   28.5020   39.8960 C   0  0  0  0  0  0  0  0  0  0  0  0
   41.5330   29.5670   39.4200 N   0  0  0  0  0  0  0  0  0  0  0  0
   41.8390   30.3890   40.4210 C   0  0  0  0  0  0  0  0  0  0  0  0
   42.4760   31.6070   40.4950 C   0  0  0  0  0  0  0  0  0  0  0  0
   42.6820   32.2530   41.6820 C   0  0  0  0  0  0  0  0  0  0  0  0
   42.2340   31.6560   42.8300 C   0  0  0  0  0  0  0  0  0  0  0  0
   41.5980   30.4380   42.7400 C   0  0  0  0  0  0  0  0  0  0  0  0
   41.3750   29.7620   41.5590 C   0  0  0  0  0  0  0  0  0  0  0  0
   37.5360   29.5710   42.0330 C   0  0  0  0  0  0  0  0  0  0  0  0
   37.7190   28.2330   41.6750 C   0  0  0  0  0  0  0  0  0  0  0  0
   36.8080   27.7050   40.7380 C   0  0  0  0  0  0  0  0  0  0  0  0
   35.8300   28.5030   40.2460 N   0  0  0  0  0  0  0  0  0  0  0  0
   35.6980   29.7840   40.6230 C   0  0  0  0  0  0  0  0  0  0  0  0
   36.5620   30.3250   41.5280 N   0  0  0  0  0  0  0  0  0  0  0  0
   37.6278   26.1519   43.4545 H   0  0  0  0  0  0  0  0  0  0  0  0
   38.5532   25.2982   42.2214 H   0  0  0  0  0  0  0  0  0  0  0  0
   39.4082   26.1400   44.8908 H   0  0  0  0  0  0  0  0  0  0  0  0
   40.3459   25.2028   43.7208 H   0  0  0  0  0  0  0  0  0  0  0  0
   40.3025   28.2130   44.1839 H   0  0  0  0  0  0  0  0  0  0  0  0
   41.6593   27.2765   43.6935 H   0  0  0  0  0  0  0  0  0  0  0  0
   40.5537   26.8185   41.4363 H   0  0  0  0  0  0  0  0  0  0  0  0
   40.5646   27.6737   39.2654 H   0  0  0  0  0  0  0  0  0  0  0  0
   41.7430   29.7371   38.4261 H   0  0  0  0  0  0  0  0  0  0  0  0
   42.8318   32.0771   39.5663 H   0  0  0  0  0  0  0  0  0  0  0  0
   43.1938   33.2261   41.7141 H   0  0  0  0  0  0  0  0  0  0  0  0
   42.3796   32.1407   43.8066 H   0  0  0  0  0  0  0  0  0  0  0  0
   41.2443   29.9734   43.6722 H   0  0  0  0  0  0  0  0  0  0  0  0
   38.2256   30.0203   42.7627 H   0  0  0  0  0  0  0  0  0  0  0  0
   36.8901   26.6581   40.4103 H   0  0  0  0  0  0  0  0  0  0  0  0
   34.8901   30.3995   40.2005 H   0  0  0  0  0  0  0  0  0  0  0  0
  1  2  1  0
  2  3  1  0
  4  3  1  0
  5  1  1  0
  5  4  1  0
  6 14  1  0
  6  5  1  0
  7  6  2  0
  8  7  1  0
  8  9  1  0
  9 10  2  0
  9 14  1  0
 10 11  1  0
 11 12  2  0
 13 12  1  0
 14 13  2  0
 16 15  2  0
 16  1  1  0
 17 16  1  0
 18 19  1  0
 18 17  2  0
 19 20  2  0
 20 15  1  0
  2 21  1  0
  2 22  1  0
  3 23  1  0
  3 24  1  0
  4 25  1  0
  4 26  1  0
  5 27  1  6
  7 28  1  0
  8 29  1  0
 10 30  1  0
 11 31  1  0
 12 32  1  0
 13 33  1  0
 15 34  1  0
 17 35  1  0
 19 36  1  0
M  ISO  8  21  13  22  13  23  13  24  13  25  13  26  13  27  13  28  14
M  ISO  8  29   9  30  14  31  14  32  14  33  14  34  14  35  14  36  14
M  END
>  <minimizedAffinity>  (1) 
-4.23276424

>  <minimizedRMSD>  (1) 
0.738444448

$$$$
