
     RDKit          3D

 29 31  0  0  1  0  0  0  0  0999 V2000
   38.6490   28.0190   42.2450 N   0  0  0  0  0  0  0  0  0  0  0  0
   38.2420   26.9870   43.1380 C   0  0  0  0  0  0  0  0  0  0  0  0
   39.4970   26.6830   43.9500 C   0  0  0  0  0  0  0  0  0  0  0  0
   40.5870   27.4740   43.3210 C   0  0  0  0  0  0  0  0  0  0  0  0
   40.0220   27.7650   41.9520 C   0  0  1  0  0  0  0  0  0  0  0  0
   38.3900   30.4010   41.5250 C   0  0  0  0  0  0  0  0  0  0  0  0
   37.8820   29.0880   41.7310 C   0  0  0  0  0  0  0  0  0  0  0  0
   36.5350   28.8550   41.3970 C   0  0  0  0  0  0  0  0  0  0  0  0
   35.8170   29.9000   40.9010 N   0  0  0  0  0  0  0  0  0  0  0  0
   36.3290   31.1260   40.7190 C   0  0  0  0  0  0  0  0  0  0  0  0
   37.6100   31.3710   41.0320 N   0  0  0  0  0  0  0  0  0  0  0  0
   40.2320   26.6540   41.0040 C   0  0  0  0  0  0  0  0  0  0  0  0
   41.1840   25.6850   40.9220 C   0  0  0  0  0  0  0  0  0  0  0  0
   40.9230   24.8660   39.8200 C   0  0  0  0  0  0  0  0  0  0  0  0
   39.7870   25.4210   39.2950 C   0  0  0  0  0  0  0  0  0  0  0  0
   39.4060   26.4580   40.0010 O   0  0  0  0  0  0  0  0  0  0  0  0
   37.4283   27.3344   43.7917 H   0  0  0  0  0  0  0  0  0  0  0  0
   37.8539   26.1020   42.6124 H   0  0  0  0  0  0  0  0  0  0  0  0
   39.3584   26.9873   44.9979 H   0  0  0  0  0  0  0  0  0  0  0  0
   39.7269   25.6073   43.9530 H   0  0  0  0  0  0  0  0  0  0  0  0
   40.7787   28.4025   43.8788 H   0  0  0  0  0  0  0  0  0  0  0  0
   41.5543   26.9509   43.2969 H   0  0  0  0  0  0  0  0  0  0  0  0
   40.5101   28.6058   41.4374 H   0  0  0  0  0  0  0  0  0  0  0  0
   39.4383   30.6222   41.7743 H   0  0  0  0  0  0  0  0  0  0  0  0
   36.0783   27.8634   41.5319 H   0  0  0  0  0  0  0  0  0  0  0  0
   35.6984   31.9307   40.3130 H   0  0  0  0  0  0  0  0  0  0  0  0
   42.0288   25.5649   41.6162 H   0  0  0  0  0  0  0  0  0  0  0  0
   41.4893   23.9930   39.4634 H   0  0  0  0  0  0  0  0  0  0  0  0
   39.2647   25.0475   38.4019 H   0  0  0  0  0  0  0  0  0  0  0  0
  1  2  1  0
  2  3  1  0
  4  3  1  0
  5  1  1  0
  5  4  1  0
  6  7  2  0
  7  1  1  0
  8  7  1  0
  9  8  2  0
 10  9  1  0
 10 11  2  0
 11  6  1  0
 12  5  1  0
 13 12  2  0
 14 13  1  0
 15 14  2  0
 15 16  1  0
 16 12  1  0
  2 17  1  0
  2 18  1  0
  3 19  1  0
  3 20  1  0
  4 21  1  0
  4 22  1  0
  5 23  1  6
  6 24  1  0
  8 25  1  0
 10 26  1  0
 13 27  1  0
 14 28  1  0
 15 29  1  0
M  ISO  8  17  13  18  13  19  13  20  13  21  13  22  13  23  13  24  14
M  ISO  5  25  14  26  14  27  14  28  14  29  14
M  END
>  <minimizedAffinity>  (1) 
-3.78448367

>  <minimizedRMSD>  (1) 
1.12539196

$$$$
