
     RDKit          3D

 34 36  0  0  1  0  0  0  0  0999 V2000
   38.7360   27.7510   42.0350 N   0  0  0  0  0  0  0  0  0  0  0  0
   38.4290   26.5590   42.7940 C   0  0  0  0  0  0  0  0  0  0  0  0
   39.5430   26.4800   43.8270 C   0  0  0  0  0  0  0  0  0  0  0  0
   40.4790   27.5980   43.5010 C   0  0  0  0  0  0  0  0  0  0  0  0
   40.1610   27.8380   42.0290 C   0  0  2  0  0  0  0  0  0  0  0  0
   37.1750   29.6840   42.0980 C   0  0  0  0  0  0  0  0  0  0  0  0
   37.8310   28.6390   41.4310 C   0  0  0  0  0  0  0  0  0  0  0  0
   37.5490   28.4780   40.0510 C   0  0  0  0  0  0  0  0  0  0  0  0
   36.6760   29.3330   39.4640 N   0  0  0  0  0  0  0  0  0  0  0  0
   36.0690   30.3210   40.1390 C   0  0  0  0  0  0  0  0  0  0  0  0
   36.3210   30.4920   41.4510 N   0  0  0  0  0  0  0  0  0  0  0  0
   40.6480   29.1400   41.6180 N   0  0  0  0  0  0  0  0  0  0  0  0
   40.0610   29.5020   40.3180 C   0  0  0  0  0  0  0  0  0  0  0  0
   40.3450   31.0050   40.2960 C   0  0  0  0  0  0  0  0  0  0  0  0
   40.1880   31.4130   41.7510 C   0  0  0  0  0  0  0  0  0  0  0  0
   39.9410   30.1220   42.4570 C   0  0  0  0  0  0  0  0  0  0  0  0
   37.4481   26.6496   43.2836 H   0  0  0  0  0  0  0  0  0  0  0  0
   38.3734   25.6595   42.1633 H   0  0  0  0  0  0  0  0  0  0  0  0
   39.1351   26.6050   44.8409 H   0  0  0  0  0  0  0  0  0  0  0  0
   40.0516   25.5050   43.8009 H   0  0  0  0  0  0  0  0  0  0  0  0
   40.2673   28.4900   44.1089 H   0  0  0  0  0  0  0  0  0  0  0  0
   41.5367   27.3715   43.7012 H   0  0  0  0  0  0  0  0  0  0  0  0
   40.6287   27.1371   41.3219 H   0  0  0  0  0  0  0  0  0  0  0  0
   37.3638   29.8440   43.1698 H   0  0  0  0  0  0  0  0  0  0  0  0
   38.0281   27.6768   39.4692 H   0  0  0  0  0  0  0  0  0  0  0  0
   35.3663   30.9906   39.6214 H   0  0  0  0  0  0  0  0  0  0  0  0
   40.5604   28.9817   39.4874 H   0  0  0  0  0  0  0  0  0  0  0  0
   39.0008   29.2330   40.2017 H   0  0  0  0  0  0  0  0  0  0  0  0
   41.3651   31.2078   39.9380 H   0  0  0  0  0  0  0  0  0  0  0  0
   39.6773   31.5589   39.6197 H   0  0  0  0  0  0  0  0  0  0  0  0
   41.1038   31.8949   42.1240 H   0  0  0  0  0  0  0  0  0  0  0  0
   39.3796   32.1432   41.9036 H   0  0  0  0  0  0  0  0  0  0  0  0
   38.8651   29.8981   42.5050 H   0  0  0  0  0  0  0  0  0  0  0  0
   40.2882   30.1275   43.5008 H   0  0  0  0  0  0  0  0  0  0  0  0
  1  2  1  0
  2  3  1  0
  4  3  1  0
  5  1  1  0
  5  4  1  0
  7  1  1  0
  7  6  2  0
  8  7  1  0
  9  8  2  0
  9 10  1  0
 10 11  2  0
 11  6  1  0
 12 13  1  0
 12  5  1  0
 12 16  1  0
 14 13  1  0
 14 15  1  0
 15 16  1  0
  2 17  1  0
  2 18  1  0
  3 19  1  0
  3 20  1  0
  4 21  1  0
  4 22  1  0
  5 23  1  6
  6 24  1  0
  8 25  1  0
 10 26  1  0
 13 27  1  0
 13 28  1  0
 14 29  1  0
 14 30  1  0
 15 31  1  0
 15 32  1  0
 16 33  1  0
 16 34  1  0
M  ISO  8  17  13  18  13  19  13  20  13  21  13  22  13  23  13  24  14
M  ISO  8  25  14  26  14  27  13  28  13  29  13  30  13  31  13  32  13
M  ISO  2  33  13  34  13
M  END
>  <minimizedAffinity>  (1) 
-3.74255276

>  <minimizedRMSD>  (1) 
0.649423242

$$$$
