
     RDKit          3D

 23 24  0  0  1  0  0  0  0  0999 V2000
   38.6130   27.6530   42.1790 N   0  0  0  0  0  0  0  0  0  0  0  0
   38.5250   26.5120   43.0300 C   0  0  0  0  0  0  0  0  0  0  0  0
   39.7500   26.6030   43.9300 C   0  0  0  0  0  0  0  0  0  0  0  0
   40.5890   27.7130   43.3530 C   0  0  0  0  0  0  0  0  0  0  0  0
   40.0300   27.8390   41.9550 C   0  0  1  0  0  0  0  0  0  0  0  0
   37.4690   29.8410   41.8440 C   0  0  0  0  0  0  0  0  0  0  0  0
   37.5930   28.4470   41.6520 C   0  0  0  0  0  0  0  0  0  0  0  0
   36.5990   27.8210   40.8620 C   0  0  0  0  0  0  0  0  0  0  0  0
   35.5980   28.5810   40.3410 N   0  0  0  0  0  0  0  0  0  0  0  0
   35.5230   29.9110   40.5530 C   0  0  0  0  0  0  0  0  0  0  0  0
   36.4530   30.5280   41.2990 N   0  0  0  0  0  0  0  0  0  0  0  0
   40.6220   26.4430   40.9460 S   0  0  0  0  0  0  0  0  0  0  0  0
   37.6019   26.5444   43.6274 H   0  0  0  0  0  0  0  0  0  0  0  0
   38.4964   25.5709   42.4613 H   0  0  0  0  0  0  0  0  0  0  0  0
   39.4526   26.8419   44.9617 H   0  0  0  0  0  0  0  0  0  0  0  0
   40.3008   25.6516   43.9684 H   0  0  0  0  0  0  0  0  0  0  0  0
   40.4603   28.6468   43.9200 H   0  0  0  0  0  0  0  0  0  0  0  0
   41.6699   27.5107   43.3807 H   0  0  0  0  0  0  0  0  0  0  0  0
   40.3029   28.7775   41.4503 H   0  0  0  0  0  0  0  0  0  0  0  0
   38.2175   30.3722   42.4502 H   0  0  0  0  0  0  0  0  0  0  0  0
   36.6353   26.7381   40.6725 H   0  0  0  0  0  0  0  0  0  0  0  0
   34.6981   30.4912   40.1137 H   0  0  0  0  0  0  0  0  0  0  0  0
   41.0498   25.4342   41.7684 H   0  0  0  0  0  0  0  0  0  0  0  0
  1  2  1  0
  2  3  1  0
  4  3  1  0
  5  1  1  0
  5  4  1  0
  7  6  2  0
  7  1  1  0
  8  7  1  0
  9 10  1  0
  9  8  2  0
 10 11  2  0
 11  6  1  0
 12  5  1  0
  2 13  1  0
  2 14  1  0
  3 15  1  0
  3 16  1  0
  4 17  1  0
  4 18  1  0
  5 19  1  6
  6 20  1  0
  8 21  1  0
 10 22  1  0
 12 23  1  0
M  ISO  8  13  13  14  13  15  13  16  13  17  13  18  13  19  13  20  14
M  ISO  3  21  14  22  14  23  11
M  END
>  <minimizedAffinity>  (1) 
-3.41047764

>  <minimizedRMSD>  (1) 
0.0168154426

$$$$
