
     RDKit          3D

 23 24  0  0  1  0  0  0  0  0999 V2000
   38.4670   27.5840   42.1830 N   0  0  0  0  0  0  0  0  0  0  0  0
   38.3670   26.8270   43.4120 C   0  0  0  0  0  0  0  0  0  0  0  0
   39.7810   26.8420   43.9750 C   0  0  0  0  0  0  0  0  0  0  0  0
   40.6270   27.5070   42.9270 C   0  0  0  0  0  0  0  0  0  0  0  0
   39.7740   27.3080   41.6790 C   0  0  2  0  0  0  0  0  0  0  0  0
   37.3590   29.7960   41.9080 C   0  0  0  0  0  0  0  0  0  0  0  0
   37.4870   28.4100   41.6120 C   0  0  0  0  0  0  0  0  0  0  0  0
   36.5740   27.8600   40.6980 C   0  0  0  0  0  0  0  0  0  0  0  0
   35.6270   28.6590   40.1490 N   0  0  0  0  0  0  0  0  0  0  0  0
   35.5290   29.9630   40.4460 C   0  0  0  0  0  0  0  0  0  0  0  0
   36.3900   30.5140   41.3160 N   0  0  0  0  0  0  0  0  0  0  0  0
   40.2260   28.2380   40.7570 O   0  0  0  0  0  0  0  0  0  0  0  0
   37.6642   27.3062   44.1094 H   0  0  0  0  0  0  0  0  0  0  0  0
   37.9888   25.8070   43.2493 H   0  0  0  0  0  0  0  0  0  0  0  0
   39.8141   27.4134   44.9144 H   0  0  0  0  0  0  0  0  0  0  0  0
   40.1388   25.8271   44.2027 H   0  0  0  0  0  0  0  0  0  0  0  0
   40.7745   28.5746   43.1472 H   0  0  0  0  0  0  0  0  0  0  0  0
   41.6448   27.0979   42.8453 H   0  0  0  0  0  0  0  0  0  0  0  0
   39.8033   26.3278   41.1806 H   0  0  0  0  0  0  0  0  0  0  0  0
   38.0491   30.2765   42.6171 H   0  0  0  0  0  0  0  0  0  0  0  0
   36.6267   26.7942   40.4310 H   0  0  0  0  0  0  0  0  0  0  0  0
   34.7463   30.5786   39.9786 H   0  0  0  0  0  0  0  0  0  0  0  0
   40.6052   29.0182   41.2340 H   0  0  0  0  0  0  0  0  0  0  0  0
  1  2  1  0
  2  3  1  0
  4  3  1  0
  5  1  1  0
  5  4  1  0
  7  6  2  0
  7  1  1  0
  8  7  1  0
  9 10  1  0
  9  8  2  0
 10 11  2  0
 11  6  1  0
 12  5  1  0
  2 13  1  0
  2 14  1  0
  3 15  1  0
  3 16  1  0
  4 17  1  0
  4 18  1  0
  5 19  1  6
  6 20  1  0
  8 21  1  0
 10 22  1  0
 12 23  1  0
M  ISO  8  13  13  14  13  15  13  16  13  17  13  18  13  19  13  20  14
M  ISO  3  21  14  22  14  23   3
M  END
>  <minimizedAffinity>  (1) 
-3.26408577

>  <minimizedRMSD>  (1) 
0.459633619

$$$$
