
     RDKit          3D

 25 26  0  0  1  0  0  0  0  0999 V2000
   38.6220   27.6660   42.1110 N   0  0  0  0  0  0  0  0  0  0  0  0
   38.4210   26.6240   43.0910 C   0  0  0  0  0  0  0  0  0  0  0  0
   39.6840   26.6440   43.9320 C   0  0  0  0  0  0  0  0  0  0  0  0
   40.6100   27.6190   43.2670 C   0  0  0  0  0  0  0  0  0  0  0  0
   40.0290   27.6600   41.8620 C   0  0  2  0  0  0  0  0  0  0  0  0
   37.3090   29.7670   42.0130 C   0  0  0  0  0  0  0  0  0  0  0  0
   37.6770   28.5060   41.5220 C   0  0  0  0  0  0  0  0  0  0  0  0
   37.0340   28.0660   40.3370 C   0  0  0  0  0  0  0  0  0  0  0  0
   36.1150   28.8810   39.7620 N   0  0  0  0  0  0  0  0  0  0  0  0
   35.7920   30.0900   40.2720 C   0  0  0  0  0  0  0  0  0  0  0  0
   36.4000   30.5260   41.4090 N   0  0  0  0  0  0  0  0  0  0  0  0
   40.5050   28.9010   41.1430 C   0  0  0  0  0  0  0  0  0  0  0  0
   37.5379   26.8383   43.7108 H   0  0  0  0  0  0  0  0  0  0  0  0
   38.2430   25.6426   42.6272 H   0  0  0  0  0  0  0  0  0  0  0  0
   39.4554   26.9723   44.9567 H   0  0  0  0  0  0  0  0  0  0  0  0
   40.1362   25.6437   44.0026 H   0  0  0  0  0  0  0  0  0  0  0  0
   40.5705   28.6068   43.7493 H   0  0  0  0  0  0  0  0  0  0  0  0
   41.6723   27.3368   43.3101 H   0  0  0  0  0  0  0  0  0  0  0  0
   40.3297   26.8254   41.2116 H   0  0  0  0  0  0  0  0  0  0  0  0
   37.7890   30.1409   42.9294 H   0  0  0  0  0  0  0  0  0  0  0  0
   37.2747   27.0878   39.8951 H   0  0  0  0  0  0  0  0  0  0  0  0
   35.0414   30.7187   39.7707 H   0  0  0  0  0  0  0  0  0  0  0  0
   40.7972   29.6628   41.8807 H   0  0  0  0  0  0  0  0  0  0  0  0
   41.3707   28.6501   40.5125 H   0  0  0  0  0  0  0  0  0  0  0  0
   39.6936   29.2934   40.5125 H   0  0  0  0  0  0  0  0  0  0  0  0
  1  2  1  0
  2  3  1  0
  4  3  1  0
  5  1  1  0
  5  4  1  0
  7  6  2  0
  7  1  1  0
  8  7  1  0
  9 10  1  0
  9  8  2  0
 10 11  2  0
 11  6  1  0
 12  5  1  0
  2 13  1  0
  2 14  1  0
  3 15  1  0
  3 16  1  0
  4 17  1  0
  4 18  1  0
  5 19  1  6
  6 20  1  0
  8 21  1  0
 10 22  1  0
 12 23  1  0
 12 24  1  0
 12 25  1  0
M  ISO  8  13  13  14  13  15  13  16  13  17  13  18  13  19  13  20  14
M  ISO  5  21  14  22  14  23   8  24   8  25   8
M  END
>  <minimizedAffinity>  (1) 
-3.23600435

>  <minimizedRMSD>  (1) 
0.371227056

$$$$
