
     RDKit          3D

 46 50  0  0  1  0  0  0  0  0999 V2000
   36.9640   28.0050   41.5870 N   0  0  0  0  0  0  0  0  0  0  0  0
   36.8250   27.0750   42.6830 C   0  0  0  0  0  0  0  0  0  0  0  0
   37.4640   27.7810   43.8730 C   0  0  0  0  0  0  0  0  0  0  0  0
   38.0620   29.0590   43.3230 C   0  0  0  0  0  0  0  0  0  0  0  0
   38.2080   28.6760   41.8590 C   0  0  2  0  0  0  0  0  0  0  0  0
   35.0340   29.1380   40.5110 C   0  0  0  0  0  0  0  0  0  0  0  0
   36.1120   28.2260   40.5030 C   0  0  0  0  0  0  0  0  0  0  0  0
   36.3400   27.4900   39.3180 C   0  0  0  0  0  0  0  0  0  0  0  0
   35.5010   27.7130   38.2600 N   0  0  0  0  0  0  0  0  0  0  0  0
   34.4880   28.5910   38.3150 C   0  0  0  0  0  0  0  0  0  0  0  0
   34.2660   29.2890   39.4290 N   0  0  0  0  0  0  0  0  0  0  0  0
   33.6830   28.7370   37.1520 N   0  0  0  0  0  0  0  0  0  0  0  0
   34.1220   28.3730   35.9150 C   0  0  0  0  0  0  0  0  0  0  0  0
   33.1750   28.6080   34.9690 N   0  0  0  0  0  0  0  0  0  0  0  0
   32.1000   29.1380   35.6170 C   0  0  0  0  0  0  0  0  0  0  0  0
   30.8250   29.6000   35.3050 C   0  0  0  0  0  0  0  0  0  0  0  0
   30.0140   30.0720   36.2680 N   0  0  0  0  0  0  0  0  0  0  0  0
   30.3830   30.1230   37.5740 C   0  0  0  0  0  0  0  0  0  0  0  0
   31.6050   29.6800   37.8770 N   0  0  0  0  0  0  0  0  0  0  0  0
   32.4580   29.1960   36.9460 C   0  0  0  0  0  0  0  0  0  0  0  0
   38.5430   29.7460   40.9980 N   0  0  0  0  0  0  0  0  0  0  0  0
   38.0970   31.0020   40.9990 C   0  0  0  0  0  0  0  0  0  0  0  0
   38.5350   31.9260   40.0770 C   0  0  0  0  0  0  0  0  0  0  0  0
   39.4500   31.6020   39.1120 C   0  0  0  0  0  0  0  0  0  0  0  0
   39.8390   32.4460   38.2810 O   0  0  0  0  0  0  0  0  0  0  0  0
   39.8870   30.3200   39.1310 N   0  0  0  0  0  0  0  0  0  0  0  0
   39.4520   29.4210   40.0400 C   0  0  0  0  0  0  0  0  0  0  0  0
   39.9670   28.2460   39.9190 O   0  0  0  0  0  0  0  0  0  0  0  0
   37.9960   33.3160   40.1340 C   0  0  0  0  0  0  0  0  0  0  0  0
   35.7636   26.8646   42.8810 H   0  0  0  0  0  0  0  0  0  0  0  0
   37.3003   26.1062   42.4696 H   0  0  0  0  0  0  0  0  0  0  0  0
   36.7046   28.0105   44.6350 H   0  0  0  0  0  0  0  0  0  0  0  0
   38.2270   27.1519   44.3547 H   0  0  0  0  0  0  0  0  0  0  0  0
   37.3850   29.9159   43.4549 H   0  0  0  0  0  0  0  0  0  0  0  0
   38.9931   29.3817   43.8117 H   0  0  0  0  0  0  0  0  0  0  0  0
   39.0736   28.0266   41.6616 H   0  0  0  0  0  0  0  0  0  0  0  0
   34.8253   29.7285   41.4153 H   0  0  0  0  0  0  0  0  0  0  0  0
   37.1630   26.7634   39.2486 H   0  0  0  0  0  0  0  0  0  0  0  0
   35.1139   27.9446   35.7086 H   0  0  0  0  0  0  0  0  0  0  0  0
   30.4776   29.5789   34.2615 H   0  0  0  0  0  0  0  0  0  0  0  0
   29.7048   30.5121   38.3477 H   0  0  0  0  0  0  0  0  0  0  0  0
   37.3600   31.3083   41.7560 H   0  0  0  0  0  0  0  0  0  0  0  0
   40.5760   30.0200   38.4266 H   0  0  0  0  0  0  0  0  0  0  0  0
   37.8779   33.6207   41.1843 H   0  0  0  0  0  0  0  0  0  0  0  0
   38.6938   34.0008   39.6298 H   0  0  0  0  0  0  0  0  0  0  0  0
   37.0190   33.3514   39.6298 H   0  0  0  0  0  0  0  0  0  0  0  0
  1  5  1  0
  1  2  1  0
  2  3  1  0
  4  3  1  0
  5  4  1  0
  7  6  2  0
  7  1  1  0
  8  7  1  0
  9 10  1  0
  9  8  2  0
 10 11  2  0
 11  6  1  0
 12 10  1  0
 13 12  1  0
 14 15  1  0
 14 13  2  0
 15 20  2  0
 16 15  1  0
 16 17  2  0
 17 18  1  0
 18 19  2  0
 20 12  1  0
 20 19  1  0
 21 22  1  0
 21  5  1  0
 23 29  1  0
 23 22  2  0
 24 26  1  0
 24 23  1  0
 25 24  2  0
 26 27  1  0
 27 21  1  0
 28 27  2  0
  2 30  1  0
  2 31  1  0
  3 32  1  0
  3 33  1  0
  4 34  1  0
  4 35  1  0
  5 36  1  1
  6 37  1  0
  8 38  1  0
 13 39  1  0
 16 40  1  0
 18 41  1  0
 22 42  1  0
 26 43  1  0
 29 44  1  0
 29 45  1  0
 29 46  1  0
M  ISO  8  30  13  31  13  32  13  33  13  34  13  35  13  36  13  37  14
M  ISO  8  38  14  39  14  40  14  41  14  42  14  43   9  44   8  45   8
M  ISO  1  46   8
M  END
>  <minimizedAffinity>  (1) 
-6.31225872

>  <minimizedRMSD>  (1) 
0.325107902

$$$$
