
     RDKit          3D

 49 53  0  0  1  0  0  0  0  0999 V2000
   36.8390   28.0340   41.7330 N   0  0  0  0  0  0  0  0  0  0  0  0
   36.5940   27.1510   42.8340 C   0  0  0  0  0  0  0  0  0  0  0  0
   37.1670   27.8880   44.0460 C   0  0  0  0  0  0  0  0  0  0  0  0
   37.8660   29.1070   43.4930 C   0  0  0  0  0  0  0  0  0  0  0  0
   38.0870   28.6700   42.0570 C   0  0  2  0  0  0  0  0  0  0  0  0
   38.5190   29.6980   41.1950 N   0  0  0  0  0  0  0  0  0  0  0  0
   38.2160   31.0020   41.1940 C   0  0  0  0  0  0  0  0  0  0  0  0
   38.7450   31.8690   40.2530 C   0  0  0  0  0  0  0  0  0  0  0  0
   39.6090   31.4230   39.2720 C   0  0  0  0  0  0  0  0  0  0  0  0
   40.0780   32.2150   38.4310 O   0  0  0  0  0  0  0  0  0  0  0  0
   39.8970   30.0990   39.2990 N   0  0  0  0  0  0  0  0  0  0  0  0
   39.3760   29.2620   40.2220 C   0  0  0  0  0  0  0  0  0  0  0  0
   39.7670   28.0400   40.0900 O   0  0  0  0  0  0  0  0  0  0  0  0
   38.3610   33.3000   40.3130 C   0  0  0  0  0  0  0  0  0  0  0  0
   35.1610   29.2950   40.4280 C   0  0  0  0  0  0  0  0  0  0  0  0
   36.0680   28.2540   40.5930 C   0  0  0  0  0  0  0  0  0  0  0  0
   36.2040   27.3760   39.5050 C   0  0  0  0  0  0  0  0  0  0  0  0
   35.4670   27.5890   38.3970 N   0  0  0  0  0  0  0  0  0  0  0  0
   34.6050   28.5920   38.2600 C   0  0  0  0  0  0  0  0  0  0  0  0
   34.4680   29.4300   39.2850 N   0  0  0  0  0  0  0  0  0  0  0  0
   33.7260   28.9840   37.1510 C   0  0  0  0  0  0  0  0  0  0  0  0
   34.0810   28.9470   35.8430 N   0  0  0  0  0  0  0  0  0  0  0  0
   33.2950   29.3010   34.8270 C   0  0  0  0  0  0  0  0  0  0  0  0
   32.0410   29.7370   35.0410 N   0  0  0  0  0  0  0  0  0  0  0  0
   31.5810   29.8140   36.3230 C   0  0  0  0  0  0  0  0  0  0  0  0
   30.2940   30.2650   36.5050 C   0  0  0  0  0  0  0  0  0  0  0  0
   29.7900   30.3590   37.7700 C   0  0  0  0  0  0  0  0  0  0  0  0
   30.6140   29.9890   38.8290 C   0  0  0  0  0  0  0  0  0  0  0  0
   31.8910   29.5470   38.5610 C   0  0  0  0  0  0  0  0  0  0  0  0
   32.4450   29.4330   37.3260 C   0  0  0  0  0  0  0  0  0  0  0  0
   35.5155   26.9749   42.9594 H   0  0  0  0  0  0  0  0  0  0  0  0
   37.0526   26.1618   42.6888 H   0  0  0  0  0  0  0  0  0  0  0  0
   36.3589   28.1870   44.7298 H   0  0  0  0  0  0  0  0  0  0  0  0
   37.8567   27.2506   44.6188 H   0  0  0  0  0  0  0  0  0  0  0  0
   37.2293   30.0021   43.5519 H   0  0  0  0  0  0  0  0  0  0  0  0
   38.7813   29.3946   44.0311 H   0  0  0  0  0  0  0  0  0  0  0  0
   38.9344   27.9810   41.9258 H   0  0  0  0  0  0  0  0  0  0  0  0
   37.5301   31.3942   41.9594 H   0  0  0  0  0  0  0  0  0  0  0  0
   40.5375   29.7166   38.5887 H   0  0  0  0  0  0  0  0  0  0  0  0
   38.2769   33.6133   41.3641 H   0  0  0  0  0  0  0  0  0  0  0  0
   39.1281   33.9069   39.8097 H   0  0  0  0  0  0  0  0  0  0  0  0
   37.3932   33.4413   39.8097 H   0  0  0  0  0  0  0  0  0  0  0  0
   35.0090   30.0172   41.2437 H   0  0  0  0  0  0  0  0  0  0  0  0
   36.9017   26.5272   39.5566 H   0  0  0  0  0  0  0  0  0  0  0  0
   33.6776   29.2356   33.7978 H   0  0  0  0  0  0  0  0  0  0  0  0
   29.6770   30.5472   35.6392 H   0  0  0  0  0  0  0  0  0  0  0  0
   28.7647   30.7160   37.9470 H   0  0  0  0  0  0  0  0  0  0  0  0
   30.2506   30.0487   39.8655 H   0  0  0  0  0  0  0  0  0  0  0  0
   32.5154   29.2620   39.4206 H   0  0  0  0  0  0  0  0  0  0  0  0
  1  5  1  0
  1  2  1  0
  2  3  1  0
  4  3  1  0
  5  4  1  0
  6  5  1  0
  7  6  1  0
  8 14  1  0
  8  7  2  0
  9 11  1  0
  9  8  1  0
 10  9  2  0
 11 12  1  0
 12  6  1  0
 13 12  2  0
 15 16  2  0
 16  1  1  0
 17 16  1  0
 18 17  2  0
 19 18  1  0
 19 20  2  0
 20 15  1  0
 21 30  1  0
 21 19  1  0
 22 21  2  0
 23 24  2  0
 23 22  1  0
 24 25  1  0
 25 26  1  0
 25 30  2  0
 26 27  2  0
 27 28  1  0
 29 28  2  0
 30 29  1  0
  2 31  1  0
  2 32  1  0
  3 33  1  0
  3 34  1  0
  4 35  1  0
  4 36  1  0
  5 37  1  1
  7 38  1  0
 11 39  1  0
 14 40  1  0
 14 41  1  0
 14 42  1  0
 15 43  1  0
 17 44  1  0
 23 45  1  0
 26 46  1  0
 27 47  1  0
 28 48  1  0
 29 49  1  0
M  ISO  8  31  13  32  13  33  13  34  13  35  13  36  13  37  13  38  14
M  ISO  8  39   9  40   8  41   8  42   8  43  14  44  14  45  14  46  14
M  ISO  3  47  14  48  14  49  14
M  END
>  <minimizedAffinity>  (1) 
-6.2410574

>  <minimizedRMSD>  (1) 
0.847046971

$$$$
