
     RDKit          3D

 45 48  0  0  1  0  0  0  0  0999 V2000
   36.9950   28.0530   41.6470 N   0  0  0  0  0  0  0  0  0  0  0  0
   36.9070   27.1810   42.7970 C   0  0  0  0  0  0  0  0  0  0  0  0
   37.5280   27.9850   43.9300 C   0  0  0  0  0  0  0  0  0  0  0  0
   38.0810   29.2420   43.3010 C   0  0  0  0  0  0  0  0  0  0  0  0
   38.2140   28.7840   41.8670 C   0  0  2  0  0  0  0  0  0  0  0  0
   35.0470   29.0760   40.5080 C   0  0  0  0  0  0  0  0  0  0  0  0
   36.1160   28.1760   40.5630 C   0  0  0  0  0  0  0  0  0  0  0  0
   36.3180   27.3400   39.4490 C   0  0  0  0  0  0  0  0  0  0  0  0
   35.4660   27.4590   38.3970 N   0  0  0  0  0  0  0  0  0  0  0  0
   34.4460   28.3420   38.3860 C   0  0  0  0  0  0  0  0  0  0  0  0
   34.2470   29.1410   39.4440 N   0  0  0  0  0  0  0  0  0  0  0  0
   33.7060   28.2670   37.1740 N   0  0  0  0  0  0  0  0  0  0  0  0
   33.1540   29.3490   36.5940 C   0  0  0  0  0  0  0  0  0  0  0  0
   32.4470   29.2060   35.4160 C   0  0  0  0  0  0  0  0  0  0  0  0
   32.2680   27.9780   34.7750 C   0  0  0  0  0  0  0  0  0  0  0  0
   31.6210   27.8640   33.7020 O   0  0  0  0  0  0  0  0  0  0  0  0
   32.8490   26.9380   35.4150 N   0  0  0  0  0  0  0  0  0  0  0  0
   33.5380   27.0780   36.5630 C   0  0  0  0  0  0  0  0  0  0  0  0
   34.0150   26.0110   37.0270 O   0  0  0  0  0  0  0  0  0  0  0  0
   38.4980   29.8110   40.9360 N   0  0  0  0  0  0  0  0  0  0  0  0
   38.0260   31.0560   40.8800 C   0  0  0  0  0  0  0  0  0  0  0  0
   38.4060   31.9490   39.8950 C   0  0  0  0  0  0  0  0  0  0  0  0
   39.3020   31.5810   38.9190 C   0  0  0  0  0  0  0  0  0  0  0  0
   39.6470   32.3850   38.0270 O   0  0  0  0  0  0  0  0  0  0  0  0
   39.7700   30.3140   38.9930 N   0  0  0  0  0  0  0  0  0  0  0  0
   39.3850   29.4560   39.9640 C   0  0  0  0  0  0  0  0  0  0  0  0
   39.9260   28.2880   39.8920 O   0  0  0  0  0  0  0  0  0  0  0  0
   37.8360   33.3130   39.9020 C   0  0  0  0  0  0  0  0  0  0  0  0
   35.8580   26.9378   43.0217 H   0  0  0  0  0  0  0  0  0  0  0  0
   37.4183   26.2206   42.6351 H   0  0  0  0  0  0  0  0  0  0  0  0
   36.7649   28.2382   44.6807 H   0  0  0  0  0  0  0  0  0  0  0  0
   38.3157   27.4132   44.4423 H   0  0  0  0  0  0  0  0  0  0  0  0
   37.3830   30.0868   43.3963 H   0  0  0  0  0  0  0  0  0  0  0  0
   39.0105   29.6160   43.7551 H   0  0  0  0  0  0  0  0  0  0  0  0
   39.1012   28.1554   41.7004 H   0  0  0  0  0  0  0  0  0  0  0  0
   34.8624   29.7449   41.3615 H   0  0  0  0  0  0  0  0  0  0  0  0
   37.1418   26.6113   39.4304 H   0  0  0  0  0  0  0  0  0  0  0  0
   33.2653   30.3413   37.0554 H   0  0  0  0  0  0  0  0  0  0  0  0
   32.0031   30.1034   34.9603 H   0  0  0  0  0  0  0  0  0  0  0  0
   32.7604   25.9969   35.0059 H   0  0  0  0  0  0  0  0  0  0  0  0
   37.3078   31.3853   41.6454 H   0  0  0  0  0  0  0  0  0  0  0  0
   40.4439   29.9914   38.2840 H   0  0  0  0  0  0  0  0  0  0  0  0
   37.6965   33.6468   40.9408 H   0  0  0  0  0  0  0  0  0  0  0  0
   38.5224   33.9999   39.3852 H   0  0  0  0  0  0  0  0  0  0  0  0
   36.8650   33.3073   39.3852 H   0  0  0  0  0  0  0  0  0  0  0  0
  1  5  1  0
  1  2  1  0
  2  3  1  0
  4  3  1  0
  5  4  1  0
  6  7  2  0
  7  1  1  0
  8  7  1  0
  9  8  2  0
 10  9  1  0
 10 11  2  0
 11  6  1  0
 12 10  1  0
 13 12  1  0
 14 13  2  0
 15 17  1  0
 15 14  1  0
 16 15  2  0
 17 18  1  0
 18 19  2  0
 18 12  1  0
 20  5  1  0
 21 20  1  0
 22 28  1  0
 22 21  2  0
 23 25  1  0
 23 22  1  0
 24 23  2  0
 25 26  1  0
 26 20  1  0
 27 26  2  0
  2 29  1  0
  2 30  1  0
  3 31  1  0
  3 32  1  0
  4 33  1  0
  4 34  1  0
  5 35  1  1
  6 36  1  0
  8 37  1  0
 13 38  1  0
 14 39  1  0
 17 40  1  0
 21 41  1  0
 25 42  1  0
 28 43  1  0
 28 44  1  0
 28 45  1  0
M  ISO  8  29  13  30  13  31  13  32  13  33  13  34  13  35  13  36  14
M  ISO  8  37  14  38  14  39  14  40   9  41  14  42   9  43   8  44   8
M  ISO  1  45   8
M  END
>  <minimizedAffinity>  (1) 
-5.91171837

>  <minimizedRMSD>  (1) 
0.314085692

$$$$
