
     RDKit          3D

 48 51  0  0  1  0  0  0  0  0999 V2000
   36.9170   28.0440   41.6640 N   0  0  0  0  0  0  0  0  0  0  0  0
   36.7780   27.1570   42.7940 C   0  0  0  0  0  0  0  0  0  0  0  0
   37.3810   27.9250   43.9550 C   0  0  0  0  0  0  0  0  0  0  0  0
   37.9560   29.1980   43.3690 C   0  0  0  0  0  0  0  0  0  0  0  0
   38.1360   28.7600   41.9290 C   0  0  2  0  0  0  0  0  0  0  0  0
   34.9960   29.0810   40.4960 C   0  0  0  0  0  0  0  0  0  0  0  0
   36.0750   28.1950   40.5540 C   0  0  0  0  0  0  0  0  0  0  0  0
   36.3310   27.3990   39.4120 C   0  0  0  0  0  0  0  0  0  0  0  0
   35.5070   27.5530   38.3370 N   0  0  0  0  0  0  0  0  0  0  0  0
   34.4860   28.4160   38.3290 C   0  0  0  0  0  0  0  0  0  0  0  0
   34.2360   29.1700   39.3990 N   0  0  0  0  0  0  0  0  0  0  0  0
   33.6580   28.5340   37.1780 N   0  0  0  0  0  0  0  0  0  0  0  0
   32.3860   29.1720   37.1410 C   0  0  0  0  0  0  0  0  0  0  0  0
   32.1250   29.9660   35.8950 C   0  0  0  0  0  0  0  0  0  0  0  0
   32.8130   29.5750   34.7860 O   0  0  0  0  0  0  0  0  0  0  0  0
   34.1230   29.2060   34.9780 C   0  0  0  0  0  0  0  0  0  0  0  0
   34.0830   27.9820   35.9040 C   0  0  0  0  0  0  0  0  0  0  0  0
   38.4640   29.7930   41.0270 N   0  0  0  0  0  0  0  0  0  0  0  0
   37.9880   31.0370   40.9600 C   0  0  0  0  0  0  0  0  0  0  0  0
   38.4210   31.9370   39.9990 C   0  0  0  0  0  0  0  0  0  0  0  0
   39.3600   31.5850   39.0760 C   0  0  0  0  0  0  0  0  0  0  0  0
   39.7530   32.3980   38.2070 O   0  0  0  0  0  0  0  0  0  0  0  0
   39.8330   30.3190   39.1570 N   0  0  0  0  0  0  0  0  0  0  0  0
   39.4010   29.4520   40.1010 C   0  0  0  0  0  0  0  0  0  0  0  0
   39.9490   28.2870   40.0430 O   0  0  0  0  0  0  0  0  0  0  0  0
   37.8430   33.3060   39.9900 C   0  0  0  0  0  0  0  0  0  0  0  0
   35.7181   26.9329   42.9845 H   0  0  0  0  0  0  0  0  0  0  0  0
   37.2739   26.1889   42.6298 H   0  0  0  0  0  0  0  0  0  0  0  0
   36.6055   28.1638   44.6976 H   0  0  0  0  0  0  0  0  0  0  0  0
   38.1556   27.3344   44.4661 H   0  0  0  0  0  0  0  0  0  0  0  0
   37.2551   30.0414   43.4556 H   0  0  0  0  0  0  0  0  0  0  0  0
   38.8682   29.5664   43.8610 H   0  0  0  0  0  0  0  0  0  0  0  0
   39.0226   28.1270   41.7767 H   0  0  0  0  0  0  0  0  0  0  0  0
   34.7682   29.7148   41.3657 H   0  0  0  0  0  0  0  0  0  0  0  0
   37.1649   26.6819   39.3926 H   0  0  0  0  0  0  0  0  0  0  0  0
   31.6101   28.3967   37.2233 H   0  0  0  0  0  0  0  0  0  0  0  0
   32.3697   29.8868   37.9770 H   0  0  0  0  0  0  0  0  0  0  0  0
   31.0510   29.8942   35.6682 H   0  0  0  0  0  0  0  0  0  0  0  0
   32.4696   30.9873   36.1148 H   0  0  0  0  0  0  0  0  0  0  0  0
   34.5917   28.9444   34.0178 H   0  0  0  0  0  0  0  0  0  0  0  0
   34.7136   30.0245   35.4152 H   0  0  0  0  0  0  0  0  0  0  0  0
   33.3619   27.2360   35.5386 H   0  0  0  0  0  0  0  0  0  0  0  0
   35.0489   27.4591   35.9647 H   0  0  0  0  0  0  0  0  0  0  0  0
   37.2294   31.3582   41.6889 H   0  0  0  0  0  0  0  0  0  0  0  0
   40.5431   30.0067   38.4794 H   0  0  0  0  0  0  0  0  0  0  0  0
   37.6979   33.6496   41.0249 H   0  0  0  0  0  0  0  0  0  0  0  0
   38.5290   33.9902   39.4692 H   0  0  0  0  0  0  0  0  0  0  0  0
   36.8742   33.2916   39.4692 H   0  0  0  0  0  0  0  0  0  0  0  0
  1  5  1  0
  1  2  1  0
  2  3  1  0
  4  3  1  0
  5  4  1  0
  6  7  2  0
  7  1  1  0
  8  7  1  0
  9  8  2  0
 10  9  1  0
 10 11  2  0
 11  6  1  0
 12 10  1  0
 13 12  1  0
 14 13  1  0
 15 16  1  0
 15 14  1  0
 16 17  1  0
 17 12  1  0
 18  5  1  0
 19 18  1  0
 20 19  2  0
 21 23  1  0
 21 20  1  0
 22 21  2  0
 23 24  1  0
 24 18  1  0
 25 24  2  0
 26 20  1  0
  2 27  1  0
  2 28  1  0
  3 29  1  0
  3 30  1  0
  4 31  1  0
  4 32  1  0
  5 33  1  1
  6 34  1  0
  8 35  1  0
 13 36  1  0
 13 37  1  0
 14 38  1  0
 14 39  1  0
 16 40  1  0
 16 41  1  0
 17 42  1  0
 17 43  1  0
 19 44  1  0
 23 45  1  0
 26 46  1  0
 26 47  1  0
 26 48  1  0
M  ISO  8  27  13  28  13  29  13  30  13  31  13  32  13  33  13  34  14
M  ISO  8  35  14  36  13  37  13  38  13  39  13  40  13  41  13  42  13
M  ISO  6  43  13  44  14  45   9  46   8  47   8  48   8
M  END
>  <minimizedAffinity>  (1) 
-5.87394238

>  <minimizedRMSD>  (1) 
0.156786948

$$$$
