
     RDKit          3D

 41 43  0  0  1  0  0  0  0  0999 V2000
   39.7050   29.4880   42.7230 N   0  0  0  0  0  0  0  0  0  0  0  0
   39.9270   30.8960   42.6590 C   0  0  0  0  0  0  0  0  0  0  0  0
   41.0690   31.0610   41.6730 C   0  0  0  0  0  0  0  0  0  0  0  0
   42.2530   30.5770   42.3120 N   0  0  0  0  0  0  0  0  0  0  0  0
   42.1690   29.3040   42.8900 C   0  0  0  0  0  0  0  0  0  0  0  0
   40.8480   28.6160   42.8970 C   0  0  2  0  0  0  0  0  0  0  0  0
   38.4360   28.8650   42.6310 C   0  0  0  0  0  0  0  0  0  0  0  0
   37.9500   27.9800   43.6250 C   0  0  0  0  0  0  0  0  0  0  0  0
   36.6880   27.4250   43.4340 C   0  0  0  0  0  0  0  0  0  0  0  0
   35.9970   27.7650   42.3030 N   0  0  0  0  0  0  0  0  0  0  0  0
   36.5000   28.6140   41.3820 C   0  0  0  0  0  0  0  0  0  0  0  0
   37.7040   29.1610   41.5380 N   0  0  0  0  0  0  0  0  0  0  0  0
   40.7810   27.4640   41.9550 C   0  0  0  0  0  0  0  0  0  0  0  0
   40.7460   26.3180   42.4600 O   0  0  0  0  0  0  0  0  0  0  0  0
   40.7360   27.0770   40.5940 N   0  0  0  0  0  0  0  0  0  0  0  0
   39.4630   26.6110   40.0840 C   0  0  0  0  0  0  0  0  0  0  0  0
   39.7440   25.4150   39.1950 C   0  0  0  0  0  0  0  0  0  0  0  0
   40.2400   25.9570   37.8700 C   0  0  0  0  0  0  0  0  0  0  0  0
   41.0810   27.1550   38.1820 C   0  0  0  0  0  0  0  0  0  0  0  0
   41.7630   27.0580   39.5540 C   0  0  0  0  0  0  0  0  0  0  0  0
   39.0261   31.4149   42.2997 H   0  0  0  0  0  0  0  0  0  0  0  0
   40.1619   31.3257   43.6440 H   0  0  0  0  0  0  0  0  0  0  0  0
   41.1896   32.1223   41.4103 H   0  0  0  0  0  0  0  0  0  0  0  0
   40.8689   30.5021   40.7469 H   0  0  0  0  0  0  0  0  0  0  0  0
   43.0030   30.5526   41.6064 H   0  0  0  0  0  0  0  0  0  0  0  0
   42.8717   28.6537   42.3484 H   0  0  0  0  0  0  0  0  0  0  0  0
   42.3913   29.4744   43.9538 H   0  0  0  0  0  0  0  0  0  0  0  0
   40.7768   28.2226   43.9218 H   0  0  0  0  0  0  0  0  0  0  0  0
   38.5488   27.7401   44.5160 H   0  0  0  0  0  0  0  0  0  0  0  0
   36.2579   26.7320   44.1721 H   0  0  0  0  0  0  0  0  0  0  0  0
   35.9061   28.8578   40.4888 H   0  0  0  0  0  0  0  0  0  0  0  0
   38.8091   26.3151   40.9176 H   0  0  0  0  0  0  0  0  0  0  0  0
   38.9555   27.4062   39.5182 H   0  0  0  0  0  0  0  0  0  0  0  0
   40.5126   24.7755   39.6534 H   0  0  0  0  0  0  0  0  0  0  0  0
   38.8382   24.8064   39.0567 H   0  0  0  0  0  0  0  0  0  0  0  0
   39.3886   26.2463   37.2364 H   0  0  0  0  0  0  0  0  0  0  0  0
   40.8201   25.1980   37.3247 H   0  0  0  0  0  0  0  0  0  0  0  0
   41.8575   27.2511   37.4088 H   0  0  0  0  0  0  0  0  0  0  0  0
   40.4168   28.0316   38.2019 H   0  0  0  0  0  0  0  0  0  0  0  0
   42.3352   26.1206   39.6168 H   0  0  0  0  0  0  0  0  0  0  0  0
   42.4487   27.9071   39.6909 H   0  0  0  0  0  0  0  0  0  0  0  0
  1  6  1  0
  2  1  1  0
  3  4  1  0
  3  2  1  0
  4  5  1  0
  5  6  1  0
  7  1  1  0
  7  8  2  0
  9  8  1  0
 10  9  2  0
 11 12  2  0
 11 10  1  0
 12  7  1  0
 13 14  2  0
 13  6  1  0
 15 13  1  0
 16 15  1  0
 17 16  1  0
 18 19  1  0
 18 17  1  0
 19 20  1  0
 20 15  1  0
  2 21  1  0
  2 22  1  0
  3 23  1  0
  3 24  1  0
  4 25  1  0
  5 26  1  0
  5 27  1  0
  6 28  1  1
  8 29  1  0
  9 30  1  0
 11 31  1  0
 16 32  1  0
 16 33  1  0
 17 34  1  0
 17 35  1  0
 18 36  1  0
 18 37  1  0
 19 38  1  0
 19 39  1  0
 20 40  1  0
 20 41  1  0
M  ISO  8  21  13  22  13  23  13  24  13  25   5  26  13  27  13  28  13
M  ISO  8  29  14  30  14  31  14  32  13  33  13  34  13  35  13  36  13
M  ISO  5  37  13  38  13  39  13  40  13  41  13
M  END
>  <minimizedAffinity>  (1) 
-3.63497925

>  <minimizedRMSD>  (1) 
0.290828526

$$$$
