
     RDKit          3D

 42 44  0  0  1  0  0  0  0  0999 V2000
   39.9520   29.0650   42.7790 N   0  0  0  0  0  0  0  0  0  0  0  0
   40.3620   30.4310   42.5890 C   0  0  0  0  0  0  0  0  0  0  0  0
   41.5550   30.3270   41.6390 C   0  0  0  0  0  0  0  0  0  0  0  0
   42.6250   29.7630   42.3780 N   0  0  0  0  0  0  0  0  0  0  0  0
   42.3370   28.6260   43.1440 C   0  0  0  0  0  0  0  0  0  0  0  0
   40.9440   28.0710   43.1340 C   0  0  2  0  0  0  0  0  0  0  0  0
   38.6150   28.6000   42.6440 C   0  0  0  0  0  0  0  0  0  0  0  0
   37.9420   27.9230   43.6740 C   0  0  0  0  0  0  0  0  0  0  0  0
   36.6390   27.5040   43.4450 C   0  0  0  0  0  0  0  0  0  0  0  0
   36.0830   27.7760   42.2240 N   0  0  0  0  0  0  0  0  0  0  0  0
   36.7550   28.4270   41.2590 C   0  0  0  0  0  0  0  0  0  0  0  0
   38.0060   28.8350   41.4640 N   0  0  0  0  0  0  0  0  0  0  0  0
   40.8240   26.8720   42.2690 C   0  0  0  0  0  0  0  0  0  0  0  0
   40.6910   25.7550   42.8180 O   0  0  0  0  0  0  0  0  0  0  0  0
   40.8230   26.5950   40.8380 C   0  0  0  0  0  0  0  0  0  0  0  0
   40.5150   25.1050   40.6250 C   0  0  0  0  0  0  0  0  0  0  0  0
   41.0430   24.6320   39.2940 C   0  0  0  0  0  0  0  0  0  0  0  0
   42.5530   24.5880   39.2710 C   0  0  0  0  0  0  0  0  0  0  0  0
   43.0250   25.6240   40.2680 C   0  0  0  0  0  0  0  0  0  0  0  0
   42.0980   26.8340   40.1030 C   0  0  0  0  0  0  0  0  0  0  0  0
   39.5526   31.0236   42.1376 H   0  0  0  0  0  0  0  0  0  0  0  0
   40.6145   30.9339   43.5342 H   0  0  0  0  0  0  0  0  0  0  0  0
   41.8342   31.3258   41.2724 H   0  0  0  0  0  0  0  0  0  0  0  0
   41.3090   29.7039   40.7665 H   0  0  0  0  0  0  0  0  0  0  0  0
   43.3649   29.5077   41.7085 H   0  0  0  0  0  0  0  0  0  0  0  0
   43.0047   27.8250   42.7939 H   0  0  0  0  0  0  0  0  0  0  0  0
   42.4754   28.9669   44.1806 H   0  0  0  0  0  0  0  0  0  0  0  0
   40.7385   27.7587   44.1685 H   0  0  0  0  0  0  0  0  0  0  0  0
   38.4353   27.7297   44.6380 H   0  0  0  0  0  0  0  0  0  0  0  0
   36.0705   26.9699   44.2206 H   0  0  0  0  0  0  0  0  0  0  0  0
   36.2680   28.6243   40.2926 H   0  0  0  0  0  0  0  0  0  0  0  0
   40.0778   27.2994   40.4398 H   0  0  0  0  0  0  0  0  0  0  0  0
   40.9878   24.5209   41.4283 H   0  0  0  0  0  0  0  0  0  0  0  0
   39.4240   24.9657   40.6402 H   0  0  0  0  0  0  0  0  0  0  0  0
   40.6546   23.6221   39.0958 H   0  0  0  0  0  0  0  0  0  0  0  0
   40.7106   25.3428   38.5231 H   0  0  0  0  0  0  0  0  0  0  0  0
   42.9091   23.5890   39.5628 H   0  0  0  0  0  0  0  0  0  0  0  0
   42.9431   24.7965   38.2638 H   0  0  0  0  0  0  0  0  0  0  0  0
   42.9548   25.2273   41.2916 H   0  0  0  0  0  0  0  0  0  0  0  0
   44.0756   25.8984   40.0922 H   0  0  0  0  0  0  0  0  0  0  0  0
   42.5910   27.7301   40.5080 H   0  0  0  0  0  0  0  0  0  0  0  0
   41.8802   26.9827   39.0351 H   0  0  0  0  0  0  0  0  0  0  0  0
  1  6  1  0
  2  1  1  0
  3  4  1  0
  3  2  1  0
  4  5  1  0
  6  5  1  0
  7  1  1  0
  7  8  2  0
  9  8  1  0
 10  9  2  0
 11 12  2  0
 11 10  1  0
 12  7  1  0
 13 14  2  0
 13  6  1  0
 15 13  1  0
 16 15  1  0
 17 16  1  0
 18 17  1  0
 18 19  1  0
 20 19  1  0
 20 15  1  0
  2 21  1  0
  2 22  1  0
  3 23  1  0
  3 24  1  0
  4 25  1  0
  5 26  1  0
  5 27  1  0
  6 28  1  1
  8 29  1  0
  9 30  1  0
 11 31  1  0
 15 32  1  0
 16 33  1  0
 16 34  1  0
 17 35  1  0
 17 36  1  0
 18 37  1  0
 18 38  1  0
 19 39  1  0
 19 40  1  0
 20 41  1  0
 20 42  1  0
M  ISO  8  21  13  22  13  23  13  24  13  25   5  26  13  27  13  28  13
M  ISO  8  29  14  30  14  31  14  32  13  33  13  34  13  35  13  36  13
M  ISO  6  37  13  38  13  39  13  40  13  41  13  42  13
M  END
>  <minimizedAffinity>  (1) 
-3.60761285

>  <minimizedRMSD>  (1) 
2.13495231

$$$$
