
     RDKit          3D

 48 51  0  0  1  0  0  0  0  0999 V2000
   37.0020   27.8740   41.7110 N   0  0  0  0  0  0  0  0  0  0  0  0
   36.8230   27.0400   42.8750 C   0  0  0  0  0  0  0  0  0  0  0  0
   37.2060   27.9390   44.0470 C   0  0  0  0  0  0  0  0  0  0  0  0
   37.7340   29.2170   43.4410 C   0  0  0  0  0  0  0  0  0  0  0  0
   38.1150   28.7170   42.0630 C   0  0  2  0  0  0  0  0  0  0  0  0
   38.4410   29.7340   41.1330 N   0  0  0  0  0  0  0  0  0  0  0  0
   37.9400   30.9650   41.0150 C   0  0  0  0  0  0  0  0  0  0  0  0
   38.3750   31.8400   40.0410 C   0  0  0  0  0  0  0  0  0  0  0  0
   39.3540   31.4790   39.1400 C   0  0  0  0  0  0  0  0  0  0  0  0
   39.7470   32.2750   38.2590 O   0  0  0  0  0  0  0  0  0  0  0  0
   39.8440   30.2300   39.2830 N   0  0  0  0  0  0  0  0  0  0  0  0
   39.4080   29.3850   40.2400 C   0  0  0  0  0  0  0  0  0  0  0  0
   39.9820   28.2310   40.2350 O   0  0  0  0  0  0  0  0  0  0  0  0
   37.7700   33.1970   39.9680 C   0  0  0  0  0  0  0  0  0  0  0  0
   35.3080   28.8390   40.1800 C   0  0  0  0  0  0  0  0  0  0  0  0
   36.2820   27.8830   40.5120 C   0  0  0  0  0  0  0  0  0  0  0  0
   36.5460   26.8720   39.5720 C   0  0  0  0  0  0  0  0  0  0  0  0
   35.8410   26.8860   38.4050 N   0  0  0  0  0  0  0  0  0  0  0  0
   34.9120   27.8250   38.1280 C   0  0  0  0  0  0  0  0  0  0  0  0
   34.6590   28.7830   39.0120 N   0  0  0  0  0  0  0  0  0  0  0  0
   34.2630   27.6460   36.7880 C   0  0  0  0  0  0  0  0  0  0  0  0
   35.2360   26.9600   35.8760 C   0  0  0  0  0  0  0  0  0  0  0  0
   36.2250   28.0680   35.5700 C   0  0  0  0  0  0  0  0  0  0  0  0
   35.4790   29.3570   35.7190 C   0  0  0  0  0  0  0  0  0  0  0  0
   34.0810   28.9950   36.1630 C   0  0  0  0  0  0  0  0  0  0  0  0
   35.7767   26.7117   42.9617 H   0  0  0  0  0  0  0  0  0  0  0  0
   37.4306   26.1240   42.8325 H   0  0  0  0  0  0  0  0  0  0  0  0
   36.3247   28.1483   44.6712 H   0  0  0  0  0  0  0  0  0  0  0  0
   37.9578   27.4599   44.6914 H   0  0  0  0  0  0  0  0  0  0  0  0
   36.9593   29.9964   43.3927 H   0  0  0  0  0  0  0  0  0  0  0  0
   38.5507   29.6934   44.0031 H   0  0  0  0  0  0  0  0  0  0  0  0
   39.0654   28.1633   42.0527 H   0  0  0  0  0  0  0  0  0  0  0  0
   37.1570   31.2919   41.7150 H   0  0  0  0  0  0  0  0  0  0  0  0
   40.5791   29.9094   38.6367 H   0  0  0  0  0  0  0  0  0  0  0  0
   37.6002   33.5780   40.9858 H   0  0  0  0  0  0  0  0  0  0  0  0
   38.4515   33.8740   39.4321 H   0  0  0  0  0  0  0  0  0  0  0  0
   36.8109   33.1425   39.4321 H   0  0  0  0  0  0  0  0  0  0  0  0
   35.0756   29.6455   40.8910 H   0  0  0  0  0  0  0  0  0  0  0  0
   37.2976   26.0940   39.7715 H   0  0  0  0  0  0  0  0  0  0  0  0
   33.3205   27.0937   36.9174 H   0  0  0  0  0  0  0  0  0  0  0  0
   35.7274   26.1149   36.3803 H   0  0  0  0  0  0  0  0  0  0  0  0
   34.7695   26.5249   34.9799 H   0  0  0  0  0  0  0  0  0  0  0  0
   36.6048   27.9653   34.5428 H   0  0  0  0  0  0  0  0  0  0  0  0
   37.0895   28.0281   36.2490 H   0  0  0  0  0  0  0  0  0  0  0  0
   35.9650   29.9922   36.4742 H   0  0  0  0  0  0  0  0  0  0  0  0
   35.4630   29.9188   34.7734 H   0  0  0  0  0  0  0  0  0  0  0  0
   33.6985   29.7213   36.8952 H   0  0  0  0  0  0  0  0  0  0  0  0
   33.3515   28.9958   35.3397 H   0  0  0  0  0  0  0  0  0  0  0  0
  1  5  1  0
  1  2  1  0
  2  3  1  0
  4  3  1  0
  5  4  1  0
  6  5  1  0
  7  6  1  0
  8  7  2  0
  9 11  1  0
  9  8  1  0
 10  9  2  0
 11 12  1  0
 12  6  1  0
 13 12  2  0
 14  8  1  0
 15 16  2  0
 16  1  1  0
 17 16  1  0
 18 17  2  0
 19 18  1  0
 19 20  2  0
 20 15  1  0
 21 19  1  0
 22 21  1  0
 23 24  1  0
 23 22  1  0
 24 25  1  0
 25 21  1  0
  2 26  1  0
  2 27  1  0
  3 28  1  0
  3 29  1  0
  4 30  1  0
  4 31  1  0
  5 32  1  1
  7 33  1  0
 11 34  1  0
 14 35  1  0
 14 36  1  0
 14 37  1  0
 15 38  1  0
 17 39  1  0
 21 40  1  0
 22 41  1  0
 22 42  1  0
 23 43  1  0
 23 44  1  0
 24 45  1  0
 24 46  1  0
 25 47  1  0
 25 48  1  0
M  ISO  8  26  13  27  13  28  13  29  13  30  13  31  13  32  13  33  14
M  ISO  8  34   9  35   8  36   8  37   8  38  14  39  14  40  13  41  13
M  ISO  7  42  13  43  13  44  13  45  13  46  13  47  13  48  13
M  END
>  <minimizedAffinity>  (1) 
-5.42135334

>  <minimizedRMSD>  (1) 
1.25352919

$$$$
