
     RDKit          3D

 38 40  0  0  1  0  0  0  0  0999 V2000
   36.9330   28.0340   41.6650 N   0  0  0  0  0  0  0  0  0  0  0  0
   36.7690   27.1370   42.7810 C   0  0  0  0  0  0  0  0  0  0  0  0
   37.3390   27.9030   43.9690 C   0  0  0  0  0  0  0  0  0  0  0  0
   37.9300   29.1760   43.4050 C   0  0  0  0  0  0  0  0  0  0  0  0
   38.1440   28.7420   41.9650 C   0  0  2  0  0  0  0  0  0  0  0  0
   38.4950   29.7880   41.0800 N   0  0  0  0  0  0  0  0  0  0  0  0
   38.0190   31.0320   41.0100 C   0  0  0  0  0  0  0  0  0  0  0  0
   38.4770   31.9430   40.0720 C   0  0  0  0  0  0  0  0  0  0  0  0
   39.4490   31.5970   39.1680 C   0  0  0  0  0  0  0  0  0  0  0  0
   39.8630   32.4170   38.3220 O   0  0  0  0  0  0  0  0  0  0  0  0
   39.9140   30.3330   39.2580 N   0  0  0  0  0  0  0  0  0  0  0  0
   39.4590   29.4540   40.1770 C   0  0  0  0  0  0  0  0  0  0  0  0
   40.0090   28.2890   40.1280 O   0  0  0  0  0  0  0  0  0  0  0  0
   37.9060   33.3070   40.0510 C   0  0  0  0  0  0  0  0  0  0  0  0
   35.0370   29.0780   40.4670 C   0  0  0  0  0  0  0  0  0  0  0  0
   36.1180   28.1980   40.5380 C   0  0  0  0  0  0  0  0  0  0  0  0
   36.4050   27.4200   39.3910 C   0  0  0  0  0  0  0  0  0  0  0  0
   35.6160   27.5770   38.2940 N   0  0  0  0  0  0  0  0  0  0  0  0
   34.5800   28.4440   38.2780 C   0  0  0  0  0  0  0  0  0  0  0  0
   34.2980   29.1830   39.3510 N   0  0  0  0  0  0  0  0  0  0  0  0
   33.7620   28.5560   37.0350 C   0  0  0  0  0  0  0  0  0  0  0  0
   35.7057   26.9051   42.9412 H   0  0  0  0  0  0  0  0  0  0  0  0
   37.2740   26.1728   42.6221 H   0  0  0  0  0  0  0  0  0  0  0  0
   36.5415   28.1390   44.6889 H   0  0  0  0  0  0  0  0  0  0  0  0
   38.0972   27.3105   44.5020 H   0  0  0  0  0  0  0  0  0  0  0  0
   37.2291   30.0206   43.4784 H   0  0  0  0  0  0  0  0  0  0  0  0
   38.8304   29.5409   43.9210 H   0  0  0  0  0  0  0  0  0  0  0  0
   39.0292   28.1033   41.8292 H   0  0  0  0  0  0  0  0  0  0  0  0
   37.2384   31.3444   41.7192 H   0  0  0  0  0  0  0  0  0  0  0  0
   40.6447   30.0267   38.5998 H   0  0  0  0  0  0  0  0  0  0  0  0
   37.7587   33.6588   41.0828 H   0  0  0  0  0  0  0  0  0  0  0  0
   38.5957   33.9852   39.5273 H   0  0  0  0  0  0  0  0  0  0  0  0
   36.9388   33.2916   39.5273 H   0  0  0  0  0  0  0  0  0  0  0  0
   34.7860   29.6967   41.3412 H   0  0  0  0  0  0  0  0  0  0  0  0
   37.2433   26.7078   39.3867 H   0  0  0  0  0  0  0  0  0  0  0  0
   32.7051   28.7007   37.3034 H   0  0  0  0  0  0  0  0  0  0  0  0
   34.1108   29.4148   36.4427 H   0  0  0  0  0  0  0  0  0  0  0  0
   33.8671   27.6351   36.4427 H   0  0  0  0  0  0  0  0  0  0  0  0
  1  5  1  0
  1  2  1  0
  2  3  1  0
  4  3  1  0
  5  4  1  0
  6  5  1  0
  7  6  1  0
  8  7  2  0
  9 11  1  0
  9  8  1  0
 10  9  2  0
 11 12  1  0
 12  6  1  0
 13 12  2  0
 14  8  1  0
 15 16  2  0
 16  1  1  0
 17 16  1  0
 18 17  2  0
 19 18  1  0
 19 20  2  0
 20 15  1  0
 21 19  1  0
  2 22  1  0
  2 23  1  0
  3 24  1  0
  3 25  1  0
  4 26  1  0
  4 27  1  0
  5 28  1  1
  7 29  1  0
 11 30  1  0
 14 31  1  0
 14 32  1  0
 14 33  1  0
 15 34  1  0
 17 35  1  0
 21 36  1  0
 21 37  1  0
 21 38  1  0
M  ISO  8  22  13  23  13  24  13  25  13  26  13  27  13  28  13  29  14
M  ISO  8  30   9  31   8  32   8  33   8  34  14  35  14  36   8  37   8
M  ISO  1  38   8
M  END
>  <minimizedAffinity>  (1) 
-5.25195789

>  <minimizedRMSD>  (1) 
0.0580449961

$$$$
