
     RDKit          3D

 41 43  0  0  1  0  0  0  0  0999 V2000
   36.9050   28.0370   41.6410 N   0  0  0  0  0  0  0  0  0  0  0  0
   36.7230   27.1550   42.7730 C   0  0  0  0  0  0  0  0  0  0  0  0
   37.2710   27.9410   43.9590 C   0  0  0  0  0  0  0  0  0  0  0  0
   37.8590   29.2090   43.3860 C   0  0  0  0  0  0  0  0  0  0  0  0
   38.1060   28.7600   41.9630 C   0  0  2  0  0  0  0  0  0  0  0  0
   38.4660   29.7990   41.0680 N   0  0  0  0  0  0  0  0  0  0  0  0
   37.9840   31.0400   40.9760 C   0  0  0  0  0  0  0  0  0  0  0  0
   38.4490   31.9400   40.0340 C   0  0  0  0  0  0  0  0  0  0  0  0
   39.4270   31.5890   39.1540 C   0  0  0  0  0  0  0  0  0  0  0  0
   39.8550   32.4020   38.2940 O   0  0  0  0  0  0  0  0  0  0  0  0
   39.9050   30.3280   39.2590 N   0  0  0  0  0  0  0  0  0  0  0  0
   39.4420   29.4600   40.1820 C   0  0  0  0  0  0  0  0  0  0  0  0
   39.9990   28.2970   40.1540 O   0  0  0  0  0  0  0  0  0  0  0  0
   37.8670   33.3020   39.9920 C   0  0  0  0  0  0  0  0  0  0  0  0
   35.0270   29.0550   40.4010 C   0  0  0  0  0  0  0  0  0  0  0  0
   36.1150   28.1730   40.4960 C   0  0  0  0  0  0  0  0  0  0  0  0
   36.4240   27.3840   39.3750 C   0  0  0  0  0  0  0  0  0  0  0  0
   35.6530   27.5220   38.2640 N   0  0  0  0  0  0  0  0  0  0  0  0
   34.6100   28.3830   38.2060 C   0  0  0  0  0  0  0  0  0  0  0  0
   34.3070   29.1400   39.2710 N   0  0  0  0  0  0  0  0  0  0  0  0
   33.8430   28.4450   36.9460 C   0  0  0  0  0  0  0  0  0  0  0  0
   32.5610   29.2230   37.2200 C   0  0  0  0  0  0  0  0  0  0  0  0
   35.6575   26.9234   42.9185 H   0  0  0  0  0  0  0  0  0  0  0  0
   37.2331   26.1897   42.6384 H   0  0  0  0  0  0  0  0  0  0  0  0
   36.4620   28.1804   44.6648 H   0  0  0  0  0  0  0  0  0  0  0  0
   38.0260   27.3616   44.5106 H   0  0  0  0  0  0  0  0  0  0  0  0
   37.1479   30.0469   43.4327 H   0  0  0  0  0  0  0  0  0  0  0  0
   38.7459   29.5897   43.9137 H   0  0  0  0  0  0  0  0  0  0  0  0
   38.9998   28.1272   41.8601 H   0  0  0  0  0  0  0  0  0  0  0  0
   37.1924   31.3571   41.6708 H   0  0  0  0  0  0  0  0  0  0  0  0
   40.6464   30.0206   38.6134 H   0  0  0  0  0  0  0  0  0  0  0  0
   37.7114   33.6661   41.0183 H   0  0  0  0  0  0  0  0  0  0  0  0
   38.5547   33.9784   39.4633 H   0  0  0  0  0  0  0  0  0  0  0  0
   36.9029   33.2726   39.4633 H   0  0  0  0  0  0  0  0  0  0  0  0
   34.7611   29.6843   41.2631 H   0  0  0  0  0  0  0  0  0  0  0  0
   37.2651   26.6755   39.3959 H   0  0  0  0  0  0  0  0  0  0  0  0
   33.5983   27.4278   36.6062 H   0  0  0  0  0  0  0  0  0  0  0  0
   34.4329   28.9399   36.1605 H   0  0  0  0  0  0  0  0  0  0  0  0
   32.4120   29.3134   38.3061 H   0  0  0  0  0  0  0  0  0  0  0  0
   32.6389   30.2263   36.7758 H   0  0  0  0  0  0  0  0  0  0  0  0
   31.7070   28.6907   36.7758 H   0  0  0  0  0  0  0  0  0  0  0  0
  1  5  1  0
  1  2  1  0
  2  3  1  0
  4  3  1  0
  5  4  1  0
  6  5  1  0
  7  6  1  0
  8  7  2  0
  9 11  1  0
  9  8  1  0
 10  9  2  0
 11 12  1  0
 12  6  1  0
 13 12  2  0
 14  8  1  0
 15 16  2  0
 16  1  1  0
 17 16  1  0
 18 17  2  0
 19 18  1  0
 19 20  2  0
 20 15  1  0
 21 22  1  0
 21 19  1  0
  2 23  1  0
  2 24  1  0
  3 25  1  0
  3 26  1  0
  4 27  1  0
  4 28  1  0
  5 29  1  1
  7 30  1  0
 11 31  1  0
 14 32  1  0
 14 33  1  0
 14 34  1  0
 15 35  1  0
 17 36  1  0
 21 37  1  0
 21 38  1  0
 22 39  1  0
 22 40  1  0
 22 41  1  0
M  ISO  8  23  13  24  13  25  13  26  13  27  13  28  13  29  13  30  14
M  ISO  8  31   9  32   8  33   8  34   8  35  14  36  14  37   8  38   8
M  ISO  3  39   8  40   8  41   8
M  END
>  <minimizedAffinity>  (1) 
-5.24918747

>  <minimizedRMSD>  (1) 
0.222843871

$$$$
