
     RDKit          3D

 32 35  0  0  0  0  0  0  0  0999 V2000
   37.6200   29.9860   41.9550 C   0  0  0  0  0  0  0  0  0  0  0  0
   38.7680   30.5520   41.3590 C   0  0  0  0  0  0  0  0  0  0  0  0
   38.5710   31.2610   40.1990 C   0  0  0  0  0  0  0  0  0  0  0  0
   37.3460   31.4120   39.6540 N   0  0  0  0  0  0  0  0  0  0  0  0
   36.2570   30.8430   40.2720 C   0  0  0  0  0  0  0  0  0  0  0  0
   36.4060   30.1360   41.4150 N   0  0  0  0  0  0  0  0  0  0  0  0
   39.5780   31.9360   39.4110 C   0  0  0  0  0  0  0  0  0  0  0  0
   40.1100   31.1170   38.4070 C   0  0  0  0  0  0  0  0  0  0  0  0
   41.0900   31.6370   37.5650 C   0  0  0  0  0  0  0  0  0  0  0  0
   41.5500   32.9280   37.6920 C   0  0  0  0  0  0  0  0  0  0  0  0
   41.0250   33.7460   38.6870 C   0  0  0  0  0  0  0  0  0  0  0  0
   41.4130   35.0490   38.8860 C   0  0  0  0  0  0  0  0  0  0  0  0
   40.8660   35.8460   39.8810 C   0  0  0  0  0  0  0  0  0  0  0  0
   39.8870   35.2730   40.6930 C   0  0  0  0  0  0  0  0  0  0  0  0
   39.4830   33.9690   40.5110 C   0  0  0  0  0  0  0  0  0  0  0  0
   40.0580   33.2190   39.5090 C   0  0  0  0  0  0  0  0  0  0  0  0
   40.0510   30.3580   41.9760 C   0  0  0  0  0  0  0  0  0  0  0  0
   40.6590   29.0800   41.9850 C   0  0  0  0  0  0  0  0  0  0  0  0
   42.2660   29.3220   42.8750 S   0  0  0  0  0  0  0  0  0  0  0  0
   41.8370   31.1480   43.0900 C   0  0  0  0  0  0  0  0  0  0  0  0
   40.8330   31.2040   42.5840 N   0  0  0  0  0  0  0  0  0  0  0  0
   37.7268   29.4083   42.8850 H   0  0  0  0  0  0  0  0  0  0  0  0
   35.2559   30.9641   39.8326 H   0  0  0  0  0  0  0  0  0  0  0  0
   39.7599   30.0813   38.2856 H   0  0  0  0  0  0  0  0  0  0  0  0
   41.5090   30.9967   36.7748 H   0  0  0  0  0  0  0  0  0  0  0  0
   42.3262   33.3096   37.0124 H   0  0  0  0  0  0  0  0  0  0  0  0
   42.1868   35.4764   38.2314 H   0  0  0  0  0  0  0  0  0  0  0  0
   41.1909   36.8872   40.0239 H   0  0  0  0  0  0  0  0  0  0  0  0
   39.4295   35.8735   41.4930 H   0  0  0  0  0  0  0  0  0  0  0  0
   38.7094   33.5311   41.1589 H   0  0  0  0  0  0  0  0  0  0  0  0
   40.2638   28.1469   41.5571 H   0  0  0  0  0  0  0  0  0  0  0  0
   42.4149   31.9456   43.5798 H   0  0  0  0  0  0  0  0  0  0  0  0
  2  1  2  0
  2 17  1  0
  3  2  1  0
  4  3  2  0
  4  5  1  0
  5  6  2  0
  6  1  1  0
  7 16  1  0
  7  3  1  0
  8  7  2  0
  9 10  2  0
  9  8  1  0
 10 11  1  0
 11 12  1  0
 11 16  2  0
 12 13  2  0
 13 14  1  0
 15 14  2  0
 16 15  1  0
 17 18  2  0
 17 21  1  0
 18 19  1  0
 19 20  1  0
 21 20  2  0
  1 22  1  0
  5 23  1  0
  8 24  1  0
  9 25  1  0
 10 26  1  0
 12 27  1  0
 13 28  1  0
 14 29  1  0
 15 30  1  0
 18 31  1  0
 20 32  1  0
M  ISO  8  22  14  23  14  24  14  25  14  26  14  27  14  28  14  29  14
M  ISO  3  30  14  31  14  32  14
M  END
>  <minimizedAffinity>  (1) 
-5.02476406

>  <minimizedRMSD>  (1) 
5.47366285

$$$$
