
     RDKit          3D

 38 40  0  0  1  0  0  0  0  0999 V2000
   39.6970   29.5170   42.7370 N   0  0  0  0  0  0  0  0  0  0  0  0
   39.9160   30.9270   42.7340 C   0  0  0  0  0  0  0  0  0  0  0  0
   41.0330   31.1460   41.7140 C   0  0  0  0  0  0  0  0  0  0  0  0
   42.2290   30.6430   42.3180 N   0  0  0  0  0  0  0  0  0  0  0  0
   42.1650   29.3310   42.8110 C   0  0  0  0  0  0  0  0  0  0  0  0
   40.8470   28.6470   42.8380 C   0  0  2  0  0  0  0  0  0  0  0  0
   38.4280   28.8890   42.6480 C   0  0  0  0  0  0  0  0  0  0  0  0
   37.9620   27.9670   43.6010 C   0  0  0  0  0  0  0  0  0  0  0  0
   36.6990   27.4180   43.4070 C   0  0  0  0  0  0  0  0  0  0  0  0
   35.9810   27.8080   42.2980 N   0  0  0  0  0  0  0  0  0  0  0  0
   36.4630   28.7000   41.4000 C   0  0  0  0  0  0  0  0  0  0  0  0
   37.6740   29.2280   41.5850 N   0  0  0  0  0  0  0  0  0  0  0  0
   40.7700   27.5500   41.8350 C   0  0  0  0  0  0  0  0  0  0  0  0
   40.8950   26.3680   42.1560 O   0  0  0  0  0  0  0  0  0  0  0  0
   40.5760   27.3590   40.4520 N   0  0  0  0  0  0  0  0  0  0  0  0
   39.4360   26.5570   40.0600 C   0  0  0  0  0  0  0  0  0  0  0  0
   38.9590   27.2700   38.7840 C   0  0  0  0  0  0  0  0  0  0  0  0
   40.2940   27.5020   38.1080 C   0  0  0  0  0  0  0  0  0  0  0  0
   41.2560   27.7780   39.2290 C   0  0  0  0  0  0  0  0  0  0  0  0
   39.0033   31.4603   42.4298 H   0  0  0  0  0  0  0  0  0  0  0  0
   40.1831   31.3080   43.7307 H   0  0  0  0  0  0  0  0  0  0  0  0
   41.1404   32.2176   41.4902 H   0  0  0  0  0  0  0  0  0  0  0  0
   40.8163   30.6327   40.7656 H   0  0  0  0  0  0  0  0  0  0  0  0
   42.9775   30.6778   41.6113 H   0  0  0  0  0  0  0  0  0  0  0  0
   42.8361   28.7182   42.1912 H   0  0  0  0  0  0  0  0  0  0  0  0
   42.4392   29.4286   43.8718 H   0  0  0  0  0  0  0  0  0  0  0  0
   40.7937   28.2155   43.8484 H   0  0  0  0  0  0  0  0  0  0  0  0
   38.5754   27.6891   44.4708 H   0  0  0  0  0  0  0  0  0  0  0  0
   36.2841   26.6911   44.1208 H   0  0  0  0  0  0  0  0  0  0  0  0
   35.8608   28.9867   40.5253 H   0  0  0  0  0  0  0  0  0  0  0  0
   39.7325   25.5189   39.8494 H   0  0  0  0  0  0  0  0  0  0  0  0
   38.6621   26.4805   40.8380 H   0  0  0  0  0  0  0  0  0  0  0  0
   38.2994   26.6301   38.1794 H   0  0  0  0  0  0  0  0  0  0  0  0
   38.3579   28.1756   38.9526 H   0  0  0  0  0  0  0  0  0  0  0  0
   40.6025   26.6087   37.5451 H   0  0  0  0  0  0  0  0  0  0  0  0
   40.2526   28.3310   37.3861 H   0  0  0  0  0  0  0  0  0  0  0  0
   42.1821   27.2011   39.0893 H   0  0  0  0  0  0  0  0  0  0  0  0
   41.5377   28.8406   39.2672 H   0  0  0  0  0  0  0  0  0  0  0  0
  1  6  1  0
  2  1  1  0
  3  4  1  0
  3  2  1  0
  4  5  1  0
  5  6  1  0
  7  1  1  0
  7  8  2  0
  9  8  1  0
 10  9  2  0
 11 12  2  0
 11 10  1  0
 12  7  1  0
 13 14  2  0
 13  6  1  0
 15 13  1  0
 16 15  1  0
 17 16  1  0
 18 17  1  0
 18 19  1  0
 19 15  1  0
  2 20  1  0
  2 21  1  0
  3 22  1  0
  3 23  1  0
  4 24  1  0
  5 25  1  0
  5 26  1  0
  6 27  1  1
  8 28  1  0
  9 29  1  0
 11 30  1  0
 16 31  1  0
 16 32  1  0
 17 33  1  0
 17 34  1  0
 18 35  1  0
 18 36  1  0
 19 37  1  0
 19 38  1  0
M  ISO  8  20  13  21  13  22  13  23  13  24   5  25  13  26  13  27  13
M  ISO  8  28  14  29  14  30  14  31  13  32  13  33  13  34  13  35  13
M  ISO  3  36  13  37  13  38  13
M  END
>  <minimizedAffinity>  (1) 
-3.53811407

>  <minimizedRMSD>  (1) 
0.19047527

$$$$
