
     RDKit          3D

 31 33  0  0  0  0  0  0  0  0999 V2000
   36.9210   29.8430   41.8300 C   0  0  0  0  0  0  0  0  0  0  0  0
   38.1620   29.3590   41.3650 C   0  0  0  0  0  0  0  0  0  0  0  0
   38.6750   29.9230   40.2190 C   0  0  0  0  0  0  0  0  0  0  0  0
   37.9640   30.9060   39.6060 N   0  0  0  0  0  0  0  0  0  0  0  0
   36.7770   31.3450   40.0820 C   0  0  0  0  0  0  0  0  0  0  0  0
   36.2500   30.8070   41.2060 N   0  0  0  0  0  0  0  0  0  0  0  0
   39.9120   29.5510   39.6360 N   0  0  0  0  0  0  0  0  0  0  0  0
   41.0170   30.3420   39.1290 C   0  0  0  0  0  0  0  0  0  0  0  0
   41.0790   30.3360   37.6250 C   0  0  0  0  0  0  0  0  0  0  0  0
   40.7710   28.9610   37.1350 C   0  0  0  0  0  0  0  0  0  0  0  0
   41.0970   27.9410   38.2160 C   0  0  0  0  0  0  0  0  0  0  0  0
   40.2440   28.1520   39.4450 C   0  0  0  0  0  0  0  0  0  0  0  0
   38.8200   28.3130   42.1080 C   0  0  0  0  0  0  0  0  0  0  0  0
   38.2710   27.0000   42.1170 C   0  0  0  0  0  0  0  0  0  0  0  0
   39.4400   26.0210   43.1840 S   0  0  0  0  0  0  0  0  0  0  0  0
   40.4800   27.5800   43.4360 C   0  0  0  0  0  0  0  0  0  0  0  0
   39.9260   28.3600   42.8380 N   0  0  0  0  0  0  0  0  0  0  0  0
   36.4919   29.4062   42.7438 H   0  0  0  0  0  0  0  0  0  0  0  0
   36.2369   32.1438   39.5526 H   0  0  0  0  0  0  0  0  0  0  0  0
   40.8974   31.3795   39.4743 H   0  0  0  0  0  0  0  0  0  0  0  0
   41.9502   29.8988   39.5067 H   0  0  0  0  0  0  0  0  0  0  0  0
   40.3414   31.0456   37.2220 H   0  0  0  0  0  0  0  0  0  0  0  0
   42.0840   30.6344   37.2919 H   0  0  0  0  0  0  0  0  0  0  0  0
   39.7027   28.8949   36.8814 H   0  0  0  0  0  0  0  0  0  0  0  0
   41.3787   28.7499   36.2427 H   0  0  0  0  0  0  0  0  0  0  0  0
   40.9140   26.9304   37.8220 H   0  0  0  0  0  0  0  0  0  0  0  0
   42.1525   28.0624   38.5009 H   0  0  0  0  0  0  0  0  0  0  0  0
   39.3128   27.5768   39.3353 H   0  0  0  0  0  0  0  0  0  0  0  0
   40.8166   27.8136   40.3211 H   0  0  0  0  0  0  0  0  0  0  0  0
   37.3624   26.6447   41.6089 H   0  0  0  0  0  0  0  0  0  0  0  0
   41.4023   27.6979   44.0237 H   0  0  0  0  0  0  0  0  0  0  0  0
  2  1  2  0
  2 13  1  0
  3  2  1  0
  4  5  1  0
  4  3  2  0
  5  6  2  0
  6  1  1  0
  7  3  1  0
  8  7  1  0
  9  8  1  0
 10  9  1  0
 10 11  1  0
 11 12  1  0
 12  7  1  0
 13 14  2  0
 13 17  1  0
 14 15  1  0
 15 16  1  0
 17 16  2  0
  1 18  1  0
  5 19  1  0
  8 20  1  0
  8 21  1  0
  9 22  1  0
  9 23  1  0
 10 24  1  0
 10 25  1  0
 11 26  1  0
 11 27  1  0
 12 28  1  0
 12 29  1  0
 14 30  1  0
 16 31  1  0
M  ISO  8  18  14  19  14  20  13  21  13  22  13  23  13  24  13  25  13
M  ISO  6  26  13  27  13  28  13  29  13  30  14  31  14
M  END
>  <minimizedAffinity>  (1) 
-3.73275971

>  <minimizedRMSD>  (1) 
1.92837763

$$$$
