
     RDKit          3D

 29 31  0  0  0  0  0  0  0  0999 V2000
   36.7140   29.9990   41.5120 C   0  0  0  0  0  0  0  0  0  0  0  0
   37.4510   29.0190   40.8160 C   0  0  0  0  0  0  0  0  0  0  0  0
   37.8510   29.3620   39.5470 C   0  0  0  0  0  0  0  0  0  0  0  0
   37.5520   30.5690   39.0090 N   0  0  0  0  0  0  0  0  0  0  0  0
   36.8300   31.4790   39.7450 C   0  0  0  0  0  0  0  0  0  0  0  0
   36.4160   31.1830   40.9960 N   0  0  0  0  0  0  0  0  0  0  0  0
   38.5630   28.5680   38.6290 N   0  0  0  0  0  0  0  0  0  0  0  0
   38.1110   28.9480   37.2750 C   0  0  0  0  0  0  0  0  0  0  0  0
   38.6950   27.9680   36.2970 C   0  0  0  0  0  0  0  0  0  0  0  0
   39.9790   27.5610   36.7160 O   0  0  0  0  0  0  0  0  0  0  0  0
   39.7790   26.6940   37.7880 C   0  0  0  0  0  0  0  0  0  0  0  0
   39.5480   27.5730   39.0200 C   0  0  0  0  0  0  0  0  0  0  0  0
   37.7800   27.7660   41.4410 C   0  0  0  0  0  0  0  0  0  0  0  0
   37.0230   26.6120   41.1470 C   0  0  0  0  0  0  0  0  0  0  0  0
   37.8070   25.2730   42.1350 S   0  0  0  0  0  0  0  0  0  0  0  0
   39.0750   26.5370   42.8100 C   0  0  0  0  0  0  0  0  0  0  0  0
   38.7610   27.5040   42.2990 N   0  0  0  0  0  0  0  0  0  0  0  0
   36.3700   29.7701   42.5315 H   0  0  0  0  0  0  0  0  0  0  0  0
   36.5868   32.4595   39.3097 H   0  0  0  0  0  0  0  0  0  0  0  0
   37.0126   28.9150   37.2254 H   0  0  0  0  0  0  0  0  0  0  0  0
   38.4414   29.9694   37.0351 H   0  0  0  0  0  0  0  0  0  0  0  0
   38.7704   28.4440   35.3082 H   0  0  0  0  0  0  0  0  0  0  0  0
   38.0409   27.0853   36.2427 H   0  0  0  0  0  0  0  0  0  0  0  0
   38.9001   26.0587   37.6042 H   0  0  0  0  0  0  0  0  0  0  0  0
   40.6444   26.0298   37.9295 H   0  0  0  0  0  0  0  0  0  0  0  0
   40.4861   28.0626   39.3205 H   0  0  0  0  0  0  0  0  0  0  0  0
   39.1989   26.9784   39.8770 H   0  0  0  0  0  0  0  0  0  0  0  0
   36.1556   26.5310   40.4753 H   0  0  0  0  0  0  0  0  0  0  0  0
   39.9017   26.3703   43.5162 H   0  0  0  0  0  0  0  0  0  0  0  0
  2 13  1  0
  2  1  2  0
  3  2  1  0
  4  3  2  0
  4  5  1  0
  5  6  2  0
  6  1  1  0
  7 12  1  0
  7  3  1  0
  8  7  1  0
  9 10  1  0
  9  8  1  0
 10 11  1  0
 11 12  1  0
 13 17  1  0
 14 13  2  0
 14 15  1  0
 15 16  1  0
 17 16  2  0
  1 18  1  0
  5 19  1  0
  8 20  1  0
  8 21  1  0
  9 22  1  0
  9 23  1  0
 11 24  1  0
 11 25  1  0
 12 26  1  0
 12 27  1  0
 14 28  1  0
 16 29  1  0
M  ISO  8  18  14  19  14  20  13  21  13  22  13  23  13  24  13  25  13
M  ISO  4  26  13  27  13  28  14  29  14
M  END
>  <minimizedAffinity>  (1) 
-3.66692305

>  <minimizedRMSD>  (1) 
0.944042504

$$$$
