
     RDKit          3D

 29 31  0  0  0  0  0  0  0  0999 V2000
   36.7000   30.1060   41.5470 C   0  0  0  0  0  0  0  0  0  0  0  0
   37.8800   29.4300   41.1570 C   0  0  0  0  0  0  0  0  0  0  0  0
   38.5380   29.8950   40.0420 C   0  0  0  0  0  0  0  0  0  0  0  0
   38.0720   30.9560   39.3470 N   0  0  0  0  0  0  0  0  0  0  0  0
   36.9210   31.5860   39.7570 C   0  0  0  0  0  0  0  0  0  0  0  0
   36.2620   31.1500   40.8430 N   0  0  0  0  0  0  0  0  0  0  0  0
   38.3360   28.3040   41.9310 C   0  0  0  0  0  0  0  0  0  0  0  0
   39.2430   28.4960   43.0010 C   0  0  0  0  0  0  0  0  0  0  0  0
   39.5320   26.7750   43.6370 S   0  0  0  0  0  0  0  0  0  0  0  0
   38.3590   26.0890   42.3290 C   0  0  0  0  0  0  0  0  0  0  0  0
   38.0340   27.0210   41.7800 N   0  0  0  0  0  0  0  0  0  0  0  0
   39.7610   29.3640   39.4410 C   0  0  0  0  0  0  0  0  0  0  0  0
   39.7320   29.5990   37.9570 C   0  0  0  0  0  0  0  0  0  0  0  0
   41.0480   30.2530   37.5670 C   0  0  0  0  0  0  0  0  0  0  0  0
   41.9380   29.8820   38.7440 C   0  0  0  0  0  0  0  0  0  0  0  0
   40.9890   30.1710   39.8860 C   0  0  0  0  0  0  0  0  0  0  0  0
   36.1424   29.7693   42.4334 H   0  0  0  0  0  0  0  0  0  0  0  0
   36.5385   32.4500   39.1938 H   0  0  0  0  0  0  0  0  0  0  0  0
   39.6737   29.4393   43.3681 H   0  0  0  0  0  0  0  0  0  0  0  0
   38.0655   25.0447   42.1468 H   0  0  0  0  0  0  0  0  0  0  0  0
   39.8175   28.3046   39.7317 H   0  0  0  0  0  0  0  0  0  0  0  0
   39.6184   28.6412   37.4281 H   0  0  0  0  0  0  0  0  0  0  0  0
   38.8848   30.2461   37.6858 H   0  0  0  0  0  0  0  0  0  0  0  0
   41.4370   29.8403   36.6245 H   0  0  0  0  0  0  0  0  0  0  0  0
   40.9727   31.3358   37.3882 H   0  0  0  0  0  0  0  0  0  0  0  0
   42.2332   28.8227   38.7156 H   0  0  0  0  0  0  0  0  0  0  0  0
   42.8972   30.4186   38.7891 H   0  0  0  0  0  0  0  0  0  0  0  0
   40.7628   31.2446   39.9641 H   0  0  0  0  0  0  0  0  0  0  0  0
   41.3755   29.9059   40.8812 H   0  0  0  0  0  0  0  0  0  0  0  0
  2  1  2  0
  2  7  1  0
  3  2  1  0
  4  5  1  0
  4  3  2  0
  5  6  2  0
  6  1  1  0
  7  8  2  0
  8  9  1  0
 10  9  1  0
 11  7  1  0
 11 10  2  0
 12 16  1  0
 12  3  1  0
 13 12  1  0
 14 13  1  0
 14 15  1  0
 15 16  1  0
  1 17  1  0
  5 18  1  0
  8 19  1  0
 10 20  1  0
 12 21  1  0
 13 22  1  0
 13 23  1  0
 14 24  1  0
 14 25  1  0
 15 26  1  0
 15 27  1  0
 16 28  1  0
 16 29  1  0
M  ISO  8  17  14  18  14  19  14  20  14  21  13  22  13  23  13  24  13
M  ISO  5  25  13  26  13  27  13  28  13  29  13
M  END
>  <minimizedAffinity>  (1) 
-3.52156711

>  <minimizedRMSD>  (1) 
1.91631901

$$$$
