
     RDKit          3D

 19 20  0  0  0  0  0  0  0  0999 V2000
   36.5200   29.6300   41.1930 C   0  0  0  0  0  0  0  0  0  0  0  0
   37.8940   29.5090   41.5390 C   0  0  0  0  0  0  0  0  0  0  0  0
   38.6990   30.6050   41.3350 C   0  0  0  0  0  0  0  0  0  0  0  0
   38.1340   31.7380   40.8150 N   0  0  0  0  0  0  0  0  0  0  0  0
   36.8220   31.8150   40.4970 C   0  0  0  0  0  0  0  0  0  0  0  0
   36.0070   30.7530   40.6880 N   0  0  0  0  0  0  0  0  0  0  0  0
   38.3420   28.2630   42.1080 C   0  0  0  0  0  0  0  0  0  0  0  0
   38.4460   27.1270   41.2700 C   0  0  0  0  0  0  0  0  0  0  0  0
   39.0480   25.7650   42.3850 S   0  0  0  0  0  0  0  0  0  0  0  0
   39.0540   27.0090   43.8380 C   0  0  0  0  0  0  0  0  0  0  0  0
   38.6980   27.9720   43.3580 N   0  0  0  0  0  0  0  0  0  0  0  0
   40.1580   30.6610   41.5880 C   0  0  0  0  0  0  0  0  0  0  0  0
   40.8300   29.5010   41.3310 F   0  0  0  0  0  0  0  0  0  0  0  0
   40.3050   30.7480   43.0280 F   0  0  0  0  0  0  0  0  0  0  0  0
   40.7340   31.8230   41.1800 F   0  0  0  0  0  0  0  0  0  0  0  0
   35.8563   28.7665   41.3474 H   0  0  0  0  0  0  0  0  0  0  0  0
   36.4149   32.7480   40.0801 H   0  0  0  0  0  0  0  0  0  0  0  0
   38.2204   27.0635   40.1953 H   0  0  0  0  0  0  0  0  0  0  0  0
   39.3352   26.8323   44.8867 H   0  0  0  0  0  0  0  0  0  0  0  0
  1  2  2  0
  2  7  1  0
  3  2  1  0
  3 12  1  0
  4  3  2  0
  5  6  2  0
  5  4  1  0
  6  1  1  0
  7 11  1  0
  8  7  2  0
  8  9  1  0
  9 10  1  0
 11 10  2  0
 12 14  1  0
 13 12  1  0
 15 12  1  0
  1 16  1  0
  5 17  1  0
  8 18  1  0
 10 19  1  0
M  ISO  4  16  14  17  14  18  14  19  14
M  END
>  <minimizedAffinity>  (1) 
-3.51186037

>  <minimizedRMSD>  (1) 
2.63782716

$$$$
