
     RDKit          3D

 23 25  0  0  0  0  0  0  0  0999 V2000
   36.5840   30.0700   41.4040 C   0  0  0  0  0  0  0  0  0  0  0  0
   37.3880   29.1450   40.7000 C   0  0  0  0  0  0  0  0  0  0  0  0
   37.9470   29.5500   39.5080 C   0  0  0  0  0  0  0  0  0  0  0  0
   37.7270   30.7980   39.0330 N   0  0  0  0  0  0  0  0  0  0  0  0
   36.9380   31.6690   39.7440 C   0  0  0  0  0  0  0  0  0  0  0  0
   36.3770   31.3030   40.9160 N   0  0  0  0  0  0  0  0  0  0  0  0
   38.7920   28.7500   38.6990 N   0  0  0  0  0  0  0  0  0  0  0  0
   39.8050   27.9820   39.2000 C   0  0  0  0  0  0  0  0  0  0  0  0
   40.3360   27.4140   38.0410 C   0  0  0  0  0  0  0  0  0  0  0  0
   39.6760   27.8220   36.9430 N   0  0  0  0  0  0  0  0  0  0  0  0
   38.7040   28.6610   37.3380 C   0  0  0  0  0  0  0  0  0  0  0  0
   37.5710   27.8200   41.2620 C   0  0  0  0  0  0  0  0  0  0  0  0
   36.8240   26.7290   40.7350 C   0  0  0  0  0  0  0  0  0  0  0  0
   37.3770   25.2720   41.7590 S   0  0  0  0  0  0  0  0  0  0  0  0
   38.5410   26.4250   42.7340 C   0  0  0  0  0  0  0  0  0  0  0  0
   38.3630   27.4350   42.2530 N   0  0  0  0  0  0  0  0  0  0  0  0
   36.1243   29.7770   42.3594 H   0  0  0  0  0  0  0  0  0  0  0  0
   36.7604   32.6813   39.3520 H   0  0  0  0  0  0  0  0  0  0  0  0
   40.1201   27.8466   40.2452 H   0  0  0  0  0  0  0  0  0  0  0  0
   41.1885   26.7190   38.0275 H   0  0  0  0  0  0  0  0  0  0  0  0
   37.9783   29.1763   36.6916 H   0  0  0  0  0  0  0  0  0  0  0  0
   36.0912   26.7423   39.9147 H   0  0  0  0  0  0  0  0  0  0  0  0
   39.2198   26.1714   43.5616 H   0  0  0  0  0  0  0  0  0  0  0  0
  2 12  1  0
  2  1  2  0
  3  2  1  0
  4  3  2  0
  4  5  1  0
  5  6  2  0
  6  1  1  0
  7  8  1  0
  7  3  1  0
  9  8  2  0
 10 11  2  0
 10  9  1  0
 11  7  1  0
 12 16  1  0
 13 12  2  0
 13 14  1  0
 14 15  1  0
 16 15  2  0
  1 17  1  0
  5 18  1  0
  8 19  1  0
  9 20  1  0
 11 21  1  0
 13 22  1  0
 15 23  1  0
M  ISO  7  17  14  18  14  19  14  20  14  21  14  22  14  23  14
M  END
>  <minimizedAffinity>  (1) 
-3.46805167

>  <minimizedRMSD>  (1) 
1.17735207

$$$$
