
     RDKit          3D

 30 32  0  0  0  0  0  0  0  0999 V2000
   37.4650   28.5350   43.3720 C   0  0  0  0  0  0  0  0  0  0  0  0
   37.1840   27.2100   42.8870 C   0  0  0  0  0  0  0  0  0  0  0  0
   36.8970   27.0760   41.5320 C   0  0  0  0  0  0  0  0  0  0  0  0
   36.8970   28.1830   40.7500 N   0  0  0  0  0  0  0  0  0  0  0  0
   37.1600   29.4000   41.2210 C   0  0  0  0  0  0  0  0  0  0  0  0
   37.4420   29.5740   42.5280 N   0  0  0  0  0  0  0  0  0  0  0  0
   37.1830   30.5710   40.4300 N   0  0  0  0  0  0  0  0  0  0  0  0
   37.6640   31.6800   41.0160 N   0  0  0  0  0  0  0  0  0  0  0  0
   37.6080   32.6880   40.1210 C   0  0  0  0  0  0  0  0  0  0  0  0
   37.0800   32.1700   38.9650 C   0  0  0  0  0  0  0  0  0  0  0  0
   36.8170   30.8350   39.1690 C   0  0  0  0  0  0  0  0  0  0  0  0
   36.2870   29.9260   38.2370 N   0  0  0  0  0  0  0  0  0  0  0  0
   35.0500   29.2180   38.0750 C   0  0  0  0  0  0  0  0  0  0  0  0
   35.2690   27.7450   37.7630 C   0  0  0  0  0  0  0  0  0  0  0  0
   36.2380   27.5230   36.8070 O   0  0  0  0  0  0  0  0  0  0  0  0
   37.4420   28.1020   37.2400 C   0  0  0  0  0  0  0  0  0  0  0  0
   37.2100   29.6100   37.1420 C   0  0  0  0  0  0  0  0  0  0  0  0
   37.6985   28.6942   44.4351 H   0  0  0  0  0  0  0  0  0  0  0  0
   37.1955   26.3393   43.5591 H   0  0  0  0  0  0  0  0  0  0  0  0
   36.6739   26.0881   41.1027 H   0  0  0  0  0  0  0  0  0  0  0  0
   37.9254   33.7281   40.2865 H   0  0  0  0  0  0  0  0  0  0  0  0
   36.8981   32.7271   38.0341 H   0  0  0  0  0  0  0  0  0  0  0  0
   34.4697   29.3007   39.0058 H   0  0  0  0  0  0  0  0  0  0  0  0
   34.5118   29.6670   37.2272 H   0  0  0  0  0  0  0  0  0  0  0  0
   35.5704   27.2340   38.6893 H   0  0  0  0  0  0  0  0  0  0  0  0
   34.3223   27.3554   37.3605 H   0  0  0  0  0  0  0  0  0  0  0  0
   37.6605   27.8106   38.2779 H   0  0  0  0  0  0  0  0  0  0  0  0
   38.3004   27.7746   36.6350 H   0  0  0  0  0  0  0  0  0  0  0  0
   38.1572   30.1554   37.2657 H   0  0  0  0  0  0  0  0  0  0  0  0
   36.8031   29.9018   36.1626 H   0  0  0  0  0  0  0  0  0  0  0  0
  2  1  2  0
  3  2  1  0
  4  5  1  0
  4  3  2  0
  5  6  2  0
  6  1  1  0
  7  8  1  0
  7  5  1  0
  9  8  2  0
 10 11  2  0
 10  9  1  0
 11  7  1  0
 12 11  1  0
 13 12  1  0
 14 13  1  0
 15 16  1  0
 15 14  1  0
 17 16  1  0
 17 12  1  0
  1 18  1  0
  2 19  1  0
  3 20  1  0
  9 21  1  0
 10 22  1  0
 13 23  1  0
 13 24  1  0
 14 25  1  0
 14 26  1  0
 16 27  1  0
 16 28  1  0
 17 29  1  0
 17 30  1  0
M  ISO  8  18  14  19  14  20  14  21  14  22  14  23  13  24  13  25  13
M  ISO  5  26  13  27  13  28  13  29  13  30  13
M  END
>  <minimizedAffinity>  (1) 
-4.41948986

>  <minimizedRMSD>  (1) 
1.94760883

$$$$
