
     RDKit          3D

 34 38  0  0  0  0  0  0  0  0999 V2000
   40.5620   30.6240   40.5560 C   0  0  0  0  0  0  0  0  0  0  0  0
   41.5480   29.7570   40.4830 N   0  0  0  0  0  0  0  0  0  0  0  0
   42.6860   30.3230   40.3140 O   0  0  0  0  0  0  0  0  0  0  0  0
   42.5620   31.6040   40.2610 C   0  0  0  0  0  0  0  0  0  0  0  0
   41.2630   31.7690   40.4100 N   0  0  0  0  0  0  0  0  0  0  0  0
   43.4990   32.6820   40.0890 N   0  0  0  0  0  0  0  0  0  0  0  0
   43.6900   33.6950   40.9430 C   0  0  0  0  0  0  0  0  0  0  0  0
   44.6460   34.4980   40.4350 N   0  0  0  0  0  0  0  0  0  0  0  0
   45.0620   34.0100   39.2740 C   0  0  0  0  0  0  0  0  0  0  0  0
   46.0180   34.4630   38.3730 C   0  0  0  0  0  0  0  0  0  0  0  0
   46.2250   33.7270   37.2420 N   0  0  0  0  0  0  0  0  0  0  0  0
   45.5100   32.5970   37.0280 C   0  0  0  0  0  0  0  0  0  0  0  0
   44.5840   32.1750   37.9210 N   0  0  0  0  0  0  0  0  0  0  0  0
   44.3330   32.8490   39.0460 C   0  0  0  0  0  0  0  0  0  0  0  0
   36.9230   30.0420   41.4970 C   0  0  0  0  0  0  0  0  0  0  0  0
   38.3320   29.8020   41.3640 C   0  0  0  0  0  0  0  0  0  0  0  0
   39.1300   30.7120   40.7310 C   0  0  0  0  0  0  0  0  0  0  0  0
   38.5080   31.8430   40.2390 N   0  0  0  0  0  0  0  0  0  0  0  0
   37.1690   32.0540   40.3720 C   0  0  0  0  0  0  0  0  0  0  0  0
   36.3740   31.1620   40.9980 N   0  0  0  0  0  0  0  0  0  0  0  0
   38.8060   28.5440   41.9100 C   0  0  0  0  0  0  0  0  0  0  0  0
   38.6930   27.3600   41.1010 C   0  0  0  0  0  0  0  0  0  0  0  0
   39.3930   26.0150   42.1600 S   0  0  0  0  0  0  0  0  0  0  0  0
   39.7180   27.3370   43.5380 C   0  0  0  0  0  0  0  0  0  0  0  0
   39.3470   28.2890   43.0860 N   0  0  0  0  0  0  0  0  0  0  0  0
   46.7380   35.6590   38.6520 N   0  0  0  0  0  0  0  0  0  0  0  0
   43.1589   33.8459   41.8944 H   0  0  0  0  0  0  0  0  0  0  0  0
   45.6846   32.0120   36.1130 H   0  0  0  0  0  0  0  0  0  0  0  0
   36.2889   29.3043   42.0106 H   0  0  0  0  0  0  0  0  0  0  0  0
   36.7259   32.9725   39.9596 H   0  0  0  0  0  0  0  0  0  0  0  0
   38.2834   27.2741   40.0837 H   0  0  0  0  0  0  0  0  0  0  0  0
   40.1634   27.1859   44.5324 H   0  0  0  0  0  0  0  0  0  0  0  0
   47.4478   35.9996   37.9879 H   0  0  0  0  0  0  0  0  0  0  0  0
   46.5491   36.1837   39.5180 H   0  0  0  0  0  0  0  0  0  0  0  0
  1 17  1  0
  2  1  2  0
  3  2  1  0
  4  3  1  0
  4  5  2  0
  5  1  1  0
  6  4  1  0
  6  7  1  0
  8  7  2  0
  9  8  1  0
 10 26  1  0
 10  9  2  0
 11 10  1  0
 12 11  2  0
 12 13  1  0
 13 14  2  0
 14  9  1  0
 14  6  1  0
 16 15  2  0
 16 21  1  0
 17 16  1  0
 18 19  1  0
 18 17  2  0
 19 20  2  0
 20 15  1  0
 21 25  1  0
 22 21  2  0
 22 23  1  0
 23 24  1  0
 25 24  2  0
  7 27  1  0
 12 28  1  0
 15 29  1  0
 19 30  1  0
 22 31  1  0
 24 32  1  0
 26 33  1  0
 26 34  1  0
M  ISO  6  27  14  28  14  29  14  30  14  31  14  32  14
M  END
>  <minimizedAffinity>  (1) 
-5.84010649

>  <minimizedRMSD>  (1) 
1.90350413

$$$$
