
     RDKit          3D

 31 34  0  0  0  0  0  0  0  0999 V2000
   37.3220   30.3700   41.1210 C   0  0  0  0  0  0  0  0  0  0  0  0
   38.7520   30.4400   41.0270 C   0  0  0  0  0  0  0  0  0  0  0  0
   39.3410   31.5470   40.4860 C   0  0  0  0  0  0  0  0  0  0  0  0
   38.5040   32.5520   40.0480 N   0  0  0  0  0  0  0  0  0  0  0  0
   37.1460   32.4680   40.1440 C   0  0  0  0  0  0  0  0  0  0  0  0
   36.5560   31.3810   40.6790 N   0  0  0  0  0  0  0  0  0  0  0  0
   39.4710   29.2770   41.4920 C   0  0  0  0  0  0  0  0  0  0  0  0
   39.7230   28.2090   40.5630 C   0  0  0  0  0  0  0  0  0  0  0  0
   40.6420   26.9510   41.5450 S   0  0  0  0  0  0  0  0  0  0  0  0
   40.5170   28.1280   43.0820 C   0  0  0  0  0  0  0  0  0  0  0  0
   39.9600   29.0100   42.6850 N   0  0  0  0  0  0  0  0  0  0  0  0
   40.7690   31.7880   40.3710 C   0  0  0  0  0  0  0  0  0  0  0  0
   41.8580   31.3180   39.8130 N   0  0  0  0  0  0  0  0  0  0  0  0
   42.8960   32.0120   40.1120 O   0  0  0  0  0  0  0  0  0  0  0  0
   42.5950   32.9930   40.8870 C   0  0  0  0  0  0  0  0  0  0  0  0
   41.2930   32.8410   41.0350 N   0  0  0  0  0  0  0  0  0  0  0  0
   43.4310   34.0320   41.4790 C   0  0  0  0  0  0  0  0  0  0  0  0
   44.8030   33.8750   41.4490 C   0  0  0  0  0  0  0  0  0  0  0  0
   45.6500   34.8210   41.9900 C   0  0  0  0  0  0  0  0  0  0  0  0
   45.0260   35.9200   42.5560 C   0  0  0  0  0  0  0  0  0  0  0  0
   43.6530   36.1240   42.6110 C   0  0  0  0  0  0  0  0  0  0  0  0
   42.8400   35.1400   42.0500 C   0  0  0  0  0  0  0  0  0  0  0  0
   36.8482   29.4794   41.5595 H   0  0  0  0  0  0  0  0  0  0  0  0
   36.5240   33.2989   39.7797 H   0  0  0  0  0  0  0  0  0  0  0  0
   39.4322   28.1554   39.5035 H   0  0  0  0  0  0  0  0  0  0  0  0
   40.9022   27.9654   44.0994 H   0  0  0  0  0  0  0  0  0  0  0  0
   45.2306   32.9750   40.9830 H   0  0  0  0  0  0  0  0  0  0  0  0
   46.7442   34.7097   41.9728 H   0  0  0  0  0  0  0  0  0  0  0  0
   45.6700   36.6945   42.9981 H   0  0  0  0  0  0  0  0  0  0  0  0
   43.2253   37.0238   43.0774 H   0  0  0  0  0  0  0  0  0  0  0  0
   41.7451   35.2455   42.0625 H   0  0  0  0  0  0  0  0  0  0  0  0
  2  1  2  0
  2  7  1  0
  3  2  1  0
  4  5  1  0
  4  3  2  0
  5  6  2  0
  6  1  1  0
  7 11  1  0
  8  7  2  0
  8  9  1  0
  9 10  1  0
 11 10  2  0
 12  3  1  0
 12 16  1  0
 13 14  1  0
 13 12  2  0
 14 15  1  0
 15 16  2  0
 15 17  1  0
 17 22  1  0
 18 17  2  0
 18 19  1  0
 19 20  2  0
 20 21  1  0
 22 21  2  0
  1 23  1  0
  5 24  1  0
  8 25  1  0
 10 26  1  0
 18 27  1  0
 19 28  1  0
 20 29  1  0
 21 30  1  0
 22 31  1  0
M  ISO  8  23  14  24  14  25  14  26  14  27  14  28  14  29  14  30  14
M  ISO  1  31  14
M  END
>  <minimizedAffinity>  (1) 
-4.63605881

>  <minimizedRMSD>  (1) 
3.080755

$$$$
