
     RDKit          3D

 34 37  0  0  0  0  0  0  0  0999 V2000
   37.1680   29.7010   41.3630 C   0  0  0  0  0  0  0  0  0  0  0  0
   38.5590   30.0060   41.3010 C   0  0  0  0  0  0  0  0  0  0  0  0
   38.9760   31.2270   40.8520 C   0  0  0  0  0  0  0  0  0  0  0  0
   37.9970   32.1200   40.4710 N   0  0  0  0  0  0  0  0  0  0  0  0
   36.6690   31.8070   40.5360 C   0  0  0  0  0  0  0  0  0  0  0  0
   36.2480   30.6010   40.9810 N   0  0  0  0  0  0  0  0  0  0  0  0
   39.4590   28.9400   41.7050 C   0  0  0  0  0  0  0  0  0  0  0  0
   39.8470   27.9550   40.7290 C   0  0  0  0  0  0  0  0  0  0  0  0
   40.9700   26.8130   41.6540 S   0  0  0  0  0  0  0  0  0  0  0  0
   40.7040   27.8980   43.2250 C   0  0  0  0  0  0  0  0  0  0  0  0
   40.0120   28.7020   42.8770 N   0  0  0  0  0  0  0  0  0  0  0  0
   40.3510   31.6930   40.7670 C   0  0  0  0  0  0  0  0  0  0  0  0
   41.5880   31.2660   40.6480 N   0  0  0  0  0  0  0  0  0  0  0  0
   42.4320   32.2290   40.6340 O   0  0  0  0  0  0  0  0  0  0  0  0
   41.8450   33.3680   40.7410 C   0  0  0  0  0  0  0  0  0  0  0  0
   40.5760   33.0230   40.8200 N   0  0  0  0  0  0  0  0  0  0  0  0
   42.4370   34.7230   40.7680 C   0  0  0  0  0  0  0  0  0  0  0  0
   41.3680   35.7730   40.6900 C   0  0  0  0  0  0  0  0  0  0  0  0
   41.3850   36.4980   42.0390 C   0  0  0  0  0  0  0  0  0  0  0  0
   42.8460   36.3620   42.4100 C   0  0  0  0  0  0  0  0  0  0  0  0
   43.0890   34.9090   42.1320 C   0  0  0  0  0  0  0  0  0  0  0  0
   36.8441   28.7154   41.7286 H   0  0  0  0  0  0  0  0  0  0  0  0
   35.9249   32.5527   40.2192 H   0  0  0  0  0  0  0  0  0  0  0  0
   39.5443   27.8953   39.6732 H   0  0  0  0  0  0  0  0  0  0  0  0
   41.1330   27.7579   44.2282 H   0  0  0  0  0  0  0  0  0  0  0  0
   43.1367   34.8194   39.9247 H   0  0  0  0  0  0  0  0  0  0  0  0
   41.5850   36.4787   39.8746 H   0  0  0  0  0  0  0  0  0  0  0  0
   40.3828   35.3288   40.4851 H   0  0  0  0  0  0  0  0  0  0  0  0
   41.0890   37.5524   41.9366 H   0  0  0  0  0  0  0  0  0  0  0  0
   40.6843   36.0936   42.7844 H   0  0  0  0  0  0  0  0  0  0  0  0
   43.4818   37.0034   41.7820 H   0  0  0  0  0  0  0  0  0  0  0  0
   43.0779   36.6670   43.4411 H   0  0  0  0  0  0  0  0  0  0  0  0
   42.6108   34.2732   42.8916 H   0  0  0  0  0  0  0  0  0  0  0  0
   44.1528   34.6297   42.1522 H   0  0  0  0  0  0  0  0  0  0  0  0
  2  1  2  0
  2  7  1  0
  3  2  1  0
  4  5  1  0
  4  3  2  0
  5  6  2  0
  6  1  1  0
  7 11  1  0
  8  9  1  0
  8  7  2  0
  9 10  1  0
 11 10  2  0
 12 16  1  0
 12  3  1  0
 13 12  2  0
 14 13  1  0
 14 15  1  0
 15 17  1  0
 15 16  2  0
 17 21  1  0
 18 17  1  0
 18 19  1  0
 19 20  1  0
 21 20  1  0
  1 22  1  0
  5 23  1  0
  8 24  1  0
 10 25  1  0
 17 26  1  0
 18 27  1  0
 18 28  1  0
 19 29  1  0
 19 30  1  0
 20 31  1  0
 20 32  1  0
 21 33  1  0
 21 34  1  0
M  ISO  8  22  14  23  14  24  14  25  14  26  13  27  13  28  13  29  13
M  ISO  5  30  13  31  13  32  13  33  13  34  13
M  END
>  <minimizedAffinity>  (1) 
-4.58288145

>  <minimizedRMSD>  (1) 
3.59811568

$$$$
