
     RDKit          3D

 28 31  0  0  0  0  0  0  0  0999 V2000
   37.0000   29.2640   41.6320 C   0  0  0  0  0  0  0  0  0  0  0  0
   38.3940   29.5390   41.4180 C   0  0  0  0  0  0  0  0  0  0  0  0
   38.7860   30.6950   40.8080 C   0  0  0  0  0  0  0  0  0  0  0  0
   37.7790   31.5560   40.4150 N   0  0  0  0  0  0  0  0  0  0  0  0
   36.4620   31.2880   40.6180 C   0  0  0  0  0  0  0  0  0  0  0  0
   36.0650   30.1440   41.2270 N   0  0  0  0  0  0  0  0  0  0  0  0
   40.1460   31.1210   40.5690 C   0  0  0  0  0  0  0  0  0  0  0  0
   41.1960   30.8640   39.8260 N   0  0  0  0  0  0  0  0  0  0  0  0
   42.1840   31.6360   40.1000 O   0  0  0  0  0  0  0  0  0  0  0  0
   41.8870   32.4620   41.0360 C   0  0  0  0  0  0  0  0  0  0  0  0
   40.6380   32.1370   41.3130 N   0  0  0  0  0  0  0  0  0  0  0  0
   42.7070   33.4550   41.6030 N   0  0  0  0  0  0  0  0  0  0  0  0
   43.5960   33.1940   42.5470 N   0  0  0  0  0  0  0  0  0  0  0  0
   44.2610   34.2820   42.9370 C   0  0  0  0  0  0  0  0  0  0  0  0
   43.7780   35.3560   42.1960 C   0  0  0  0  0  0  0  0  0  0  0  0
   42.8060   34.7810   41.3750 C   0  0  0  0  0  0  0  0  0  0  0  0
   39.3040   28.5030   41.8600 C   0  0  0  0  0  0  0  0  0  0  0  0
   39.5310   27.3650   41.0140 C   0  0  0  0  0  0  0  0  0  0  0  0
   40.7290   26.3230   41.9680 S   0  0  0  0  0  0  0  0  0  0  0  0
   40.7050   27.6410   43.3630 C   0  0  0  0  0  0  0  0  0  0  0  0
   40.0010   28.4110   42.9750 N   0  0  0  0  0  0  0  0  0  0  0  0
   36.6956   28.3309   42.1286 H   0  0  0  0  0  0  0  0  0  0  0  0
   35.7051   32.0122   40.2822 H   0  0  0  0  0  0  0  0  0  0  0  0
   45.0479   34.3230   43.7045 H   0  0  0  0  0  0  0  0  0  0  0  0
   44.0888   36.4100   42.2454 H   0  0  0  0  0  0  0  0  0  0  0  0
   42.2021   35.3347   40.6410 H   0  0  0  0  0  0  0  0  0  0  0  0
   39.0937   27.1593   40.0259 H   0  0  0  0  0  0  0  0  0  0  0  0
   41.2544   27.6365   44.3160 H   0  0  0  0  0  0  0  0  0  0  0  0
  2  1  2  0
  2 17  1  0
  3  2  1  0
  4  5  1  0
  4  3  2  0
  5  6  2  0
  6  1  1  0
  7  3  1  0
  7 11  1  0
  8  9  1  0
  8  7  2  0
  9 10  1  0
 10 11  2  0
 10 12  1  0
 12 13  1  0
 13 14  2  0
 15 14  1  0
 16 12  1  0
 16 15  2  0
 17 21  1  0
 18 17  2  0
 18 19  1  0
 19 20  1  0
 21 20  2  0
  1 22  1  0
  5 23  1  0
 14 24  1  0
 15 25  1  0
 16 26  1  0
 18 27  1  0
 20 28  1  0
M  ISO  7  22  14  23  14  24  14  25  14  26  14  27  14  28  14
M  END
>  <minimizedAffinity>  (1) 
-4.554739

>  <minimizedRMSD>  (1) 
2.64546204

$$$$
