
     RDKit          3D

 33 36  0  0  0  0  0  0  0  0999 V2000
   37.0790   29.7910   41.4030 C   0  0  0  0  0  0  0  0  0  0  0  0
   38.4800   30.0230   41.2450 C   0  0  0  0  0  0  0  0  0  0  0  0
   38.9330   31.1870   40.6930 C   0  0  0  0  0  0  0  0  0  0  0  0
   37.9700   32.1010   40.3040 N   0  0  0  0  0  0  0  0  0  0  0  0
   36.6360   31.8660   40.4590 C   0  0  0  0  0  0  0  0  0  0  0  0
   36.1870   30.7180   41.0060 N   0  0  0  0  0  0  0  0  0  0  0  0
   40.3150   31.5760   40.5060 C   0  0  0  0  0  0  0  0  0  0  0  0
   41.4490   31.1630   39.9870 N   0  0  0  0  0  0  0  0  0  0  0  0
   42.3970   31.9990   40.1520 O   0  0  0  0  0  0  0  0  0  0  0  0
   41.9900   33.0470   40.7960 C   0  0  0  0  0  0  0  0  0  0  0  0
   40.7200   32.7660   41.0000 N   0  0  0  0  0  0  0  0  0  0  0  0
   42.6770   34.2220   41.2050 N   0  0  0  0  0  0  0  0  0  0  0  0
   42.1190   35.4860   41.6600 C   0  0  0  0  0  0  0  0  0  0  0  0
   43.1800   36.1620   42.4640 C   0  0  0  0  0  0  0  0  0  0  0  0
   44.2430   35.0870   42.6200 C   0  0  0  0  0  0  0  0  0  0  0  0
   44.1160   34.3980   41.2520 C   0  0  0  0  0  0  0  0  0  0  0  0
   39.3460   28.9400   41.6760 C   0  0  0  0  0  0  0  0  0  0  0  0
   39.5380   27.8160   40.8020 C   0  0  0  0  0  0  0  0  0  0  0  0
   40.6830   26.7030   41.7280 S   0  0  0  0  0  0  0  0  0  0  0  0
   40.6970   27.9950   43.1730 C   0  0  0  0  0  0  0  0  0  0  0  0
   40.0240   28.8030   42.7980 N   0  0  0  0  0  0  0  0  0  0  0  0
   36.7274   28.8501   41.8514 H   0  0  0  0  0  0  0  0  0  0  0  0
   35.9123   32.6271   40.1317 H   0  0  0  0  0  0  0  0  0  0  0  0
   41.8423   36.1100   40.7974 H   0  0  0  0  0  0  0  0  0  0  0  0
   41.2121   35.3233   42.2610 H   0  0  0  0  0  0  0  0  0  0  0  0
   43.5804   37.0369   41.9308 H   0  0  0  0  0  0  0  0  0  0  0  0
   42.8109   36.5437   43.4274 H   0  0  0  0  0  0  0  0  0  0  0  0
   45.2435   35.5189   42.7698 H   0  0  0  0  0  0  0  0  0  0  0  0
   44.1136   34.4256   43.4893 H   0  0  0  0  0  0  0  0  0  0  0  0
   44.6481   33.4356   41.2263 H   0  0  0  0  0  0  0  0  0  0  0  0
   44.5475   34.9534   40.4063 H   0  0  0  0  0  0  0  0  0  0  0  0
   39.1011   27.6549   39.8054 H   0  0  0  0  0  0  0  0  0  0  0  0
   41.2369   27.9444   44.1300 H   0  0  0  0  0  0  0  0  0  0  0  0
  2  1  2  0
  2 17  1  0
  3  2  1  0
  4  5  1  0
  4  3  2  0
  5  6  2  0
  6  1  1  0
  7  3  1  0
  7 11  1  0
  8  9  1  0
  8  7  2  0
  9 10  1  0
 10 11  2  0
 10 12  1  0
 12 16  1  0
 12 13  1  0
 13 14  1  0
 14 15  1  0
 16 15  1  0
 17 21  1  0
 18 17  2  0
 18 19  1  0
 19 20  1  0
 21 20  2  0
  1 22  1  0
  5 23  1  0
 13 24  1  0
 13 25  1  0
 14 26  1  0
 14 27  1  0
 15 28  1  0
 15 29  1  0
 16 30  1  0
 16 31  1  0
 18 32  1  0
 20 33  1  0
M  ISO  8  22  14  23  14  24  13  25  13  26  13  27  13  28  13  29  13
M  ISO  4  30  13  31  13  32  14  33  14
M  END
>  <minimizedAffinity>  (1) 
-4.54263163

>  <minimizedRMSD>  (1) 
3.00129437

$$$$
