
     RDKit          3D

 24 26  0  0  0  0  0  0  0  0999 V2000
   36.8970   29.4430   41.5160 C   0  0  0  0  0  0  0  0  0  0  0  0
   38.3080   29.6540   41.4340 C   0  0  0  0  0  0  0  0  0  0  0  0
   38.8060   30.8220   40.9340 C   0  0  0  0  0  0  0  0  0  0  0  0
   37.8820   31.7630   40.5180 N   0  0  0  0  0  0  0  0  0  0  0  0
   36.5350   31.5440   40.6030 C   0  0  0  0  0  0  0  0  0  0  0  0
   36.0440   30.3860   41.1020 N   0  0  0  0  0  0  0  0  0  0  0  0
   39.1360   28.5320   41.8710 C   0  0  0  0  0  0  0  0  0  0  0  0
   39.4460   27.5000   40.9320 C   0  0  0  0  0  0  0  0  0  0  0  0
   40.4850   26.3170   41.8990 S   0  0  0  0  0  0  0  0  0  0  0  0
   40.3000   27.4780   43.4400 C   0  0  0  0  0  0  0  0  0  0  0  0
   39.6670   28.3150   43.0590 N   0  0  0  0  0  0  0  0  0  0  0  0
   40.2040   31.1890   40.8340 C   0  0  0  0  0  0  0  0  0  0  0  0
   41.3950   30.6910   40.5980 N   0  0  0  0  0  0  0  0  0  0  0  0
   42.3200   31.5750   40.6570 O   0  0  0  0  0  0  0  0  0  0  0  0
   41.8270   32.7380   40.9350 C   0  0  0  0  0  0  0  0  0  0  0  0
   40.5400   32.4810   41.0390 N   0  0  0  0  0  0  0  0  0  0  0  0
   42.4540   34.0830   41.1170 C   0  0  0  0  0  0  0  0  0  0  0  0
   43.0960   34.1850   42.3350 F   0  0  0  0  0  0  0  0  0  0  0  0
   43.4140   34.2570   40.1380 F   0  0  0  0  0  0  0  0  0  0  0  0
   41.4620   35.0370   40.9880 F   0  0  0  0  0  0  0  0  0  0  0  0
   36.5095   28.4974   41.9229 H   0  0  0  0  0  0  0  0  0  0  0  0
   35.8382   32.3229   40.2597 H   0  0  0  0  0  0  0  0  0  0  0  0
   39.1377   27.4270   39.8786 H   0  0  0  0  0  0  0  0  0  0  0  0
   40.7185   27.3442   44.4485 H   0  0  0  0  0  0  0  0  0  0  0  0
  2  1  2  0
  2  7  1  0
  3  2  1  0
  4  5  1  0
  4  3  2  0
  5  6  2  0
  6  1  1  0
  7 11  1  0
  8  7  2  0
  8  9  1  0
  9 10  1  0
 11 10  2  0
 12  3  1  0
 12 16  1  0
 13 14  1  0
 13 12  2  0
 14 15  1  0
 15 16  2  0
 15 17  1  0
 17 18  1  0
 19 17  1  0
 20 17  1  0
  1 21  1  0
  5 22  1  0
  8 23  1  0
 10 24  1  0
M  ISO  4  21  14  22  14  23  14  24  14
M  END
>  <minimizedAffinity>  (1) 
-4.12642908

>  <minimizedRMSD>  (1) 
2.52330995

$$$$
