
     RDKit          3D

 27 30  0  0  0  0  0  0  0  0999 V2000
   36.9670   29.9810   41.5440 C   0  0  0  0  0  0  0  0  0  0  0  0
   38.3780   29.8730   41.2920 C   0  0  0  0  0  0  0  0  0  0  0  0
   39.0180   30.8410   40.5750 C   0  0  0  0  0  0  0  0  0  0  0  0
   38.2540   31.8930   40.1170 N   0  0  0  0  0  0  0  0  0  0  0  0
   36.9160   31.9790   40.3640 C   0  0  0  0  0  0  0  0  0  0  0  0
   36.2740   31.0300   41.0740 N   0  0  0  0  0  0  0  0  0  0  0  0
   39.0190   28.6860   41.8200 C   0  0  0  0  0  0  0  0  0  0  0  0
   38.9340   27.4640   41.0670 C   0  0  0  0  0  0  0  0  0  0  0  0
   39.8670   26.2360   42.0930 S   0  0  0  0  0  0  0  0  0  0  0  0
   40.2070   27.6390   43.3830 C   0  0  0  0  0  0  0  0  0  0  0  0
   39.7010   28.5290   42.9380 N   0  0  0  0  0  0  0  0  0  0  0  0
   40.4380   30.8860   40.2760 C   0  0  0  0  0  0  0  0  0  0  0  0
   41.4060   30.1940   39.7200 N   0  0  0  0  0  0  0  0  0  0  0  0
   42.5310   30.8090   39.7720 O   0  0  0  0  0  0  0  0  0  0  0  0
   42.4180   31.9430   40.3560 C   0  0  0  0  0  0  0  0  0  0  0  0
   41.1390   31.9750   40.6560 N   0  0  0  0  0  0  0  0  0  0  0  0
   43.3780   32.9900   40.6580 C   0  0  0  0  0  0  0  0  0  0  0  0
   43.1530   33.8050   41.9190 C   0  0  0  0  0  0  0  0  0  0  0  0
   44.5790   34.9750   41.8820 S   0  0  0  0  0  0  0  0  0  0  0  0
   45.2080   34.2140   40.2620 C   0  0  0  0  0  0  0  0  0  0  0  0
   44.4590   33.3790   40.0040 N   0  0  0  0  0  0  0  0  0  0  0  0
   36.4530   29.2007   42.1245 H   0  0  0  0  0  0  0  0  0  0  0  0
   36.3498   32.8389   39.9767 H   0  0  0  0  0  0  0  0  0  0  0  0
   38.4307   27.2968   40.1033 H   0  0  0  0  0  0  0  0  0  0  0  0
   40.7654   27.5746   44.3285 H   0  0  0  0  0  0  0  0  0  0  0  0
   42.3473   33.7198   42.6630 H   0  0  0  0  0  0  0  0  0  0  0  0
   46.1002   34.5086   39.6900 H   0  0  0  0  0  0  0  0  0  0  0  0
  2  1  2  0
  2  7  1  0
  3  2  1  0
  4  5  1  0
  4  3  2  0
  5  6  2  0
  6  1  1  0
  7 11  1  0
  8  7  2  0
  8  9  1  0
  9 10  1  0
 11 10  2  0
 12  3  1  0
 12 16  1  0
 13 14  1  0
 13 12  2  0
 14 15  1  0
 15 16  2  0
 15 17  1  0
 17 18  2  0
 19 18  1  0
 20 19  1  0
 21 20  2  0
 21 17  1  0
  1 22  1  0
  5 23  1  0
  8 24  1  0
 10 25  1  0
 18 26  1  0
 20 27  1  0
M  ISO  6  22  14  23  14  24  14  25  14  26  14  27  14
M  END
>  <minimizedAffinity>  (1) 
-4.12257767

>  <minimizedRMSD>  (1) 
1.96027696

$$$$
