
     RDKit          3D

 30 32  0  0  0  0  0  0  0  0999 V2000
   36.8760   29.8900   41.8080 C   0  0  0  0  0  0  0  0  0  0  0  0
   38.0800   29.3590   41.2350 C   0  0  0  0  0  0  0  0  0  0  0  0
   38.5570   29.8590   40.0570 C   0  0  0  0  0  0  0  0  0  0  0  0
   37.8240   30.8750   39.4710 N   0  0  0  0  0  0  0  0  0  0  0  0
   36.6810   31.3670   40.0290 C   0  0  0  0  0  0  0  0  0  0  0  0
   36.2070   30.8790   41.1930 N   0  0  0  0  0  0  0  0  0  0  0  0
   38.6940   28.2700   41.9660 C   0  0  0  0  0  0  0  0  0  0  0  0
   38.2070   26.9330   41.7420 C   0  0  0  0  0  0  0  0  0  0  0  0
   39.2410   25.8800   42.8530 S   0  0  0  0  0  0  0  0  0  0  0  0
   40.1660   27.4810   43.4320 C   0  0  0  0  0  0  0  0  0  0  0  0
   39.6710   28.2950   42.8490 N   0  0  0  0  0  0  0  0  0  0  0  0
   39.7730   29.4560   39.3830 C   0  0  0  0  0  0  0  0  0  0  0  0
   40.4000   28.4020   38.9140 N   0  0  0  0  0  0  0  0  0  0  0  0
   41.5320   28.6980   38.3920 O   0  0  0  0  0  0  0  0  0  0  0  0
   41.7600   29.9630   38.4640 C   0  0  0  0  0  0  0  0  0  0  0  0
   40.6770   30.4110   39.0710 N   0  0  0  0  0  0  0  0  0  0  0  0
   42.9070   30.7960   38.0140 C   0  0  0  0  0  0  0  0  0  0  0  0
   42.9440   30.9360   36.5120 C   0  0  0  0  0  0  0  0  0  0  0  0
   42.8740   32.1670   38.6410 C   0  0  0  0  0  0  0  0  0  0  0  0
   36.4983   29.4839   42.7580 H   0  0  0  0  0  0  0  0  0  0  0  0
   36.1363   32.1761   39.5205 H   0  0  0  0  0  0  0  0  0  0  0  0
   37.4026   26.6121   41.0638 H   0  0  0  0  0  0  0  0  0  0  0  0
   40.9845   27.5677   44.1618 H   0  0  0  0  0  0  0  0  0  0  0  0
   43.8172   30.2727   38.3421 H   0  0  0  0  0  0  0  0  0  0  0  0
   43.2168   31.9681   36.2466 H   0  0  0  0  0  0  0  0  0  0  0  0
   43.6894   30.2415   36.0973 H   0  0  0  0  0  0  0  0  0  0  0  0
   41.9528   30.7005   36.0973 H   0  0  0  0  0  0  0  0  0  0  0  0
   42.8764   32.0693   39.7366 H   0  0  0  0  0  0  0  0  0  0  0  0
   43.7587   32.7375   38.3219 H   0  0  0  0  0  0  0  0  0  0  0  0
   41.9629   32.6943   38.3219 H   0  0  0  0  0  0  0  0  0  0  0  0
  2  1  2  0
  2  7  1  0
  3  2  1  0
  4  5  1  0
  4  3  2  0
  5  6  2  0
  6  1  1  0
  7 11  1  0
  8  7  2  0
  8  9  1  0
  9 10  1  0
 11 10  2  0
 12  3  1  0
 13 12  2  0
 14 15  1  0
 14 13  1  0
 15 16  2  0
 16 12  1  0
 17 15  1  0
 17 19  1  0
 18 17  1  0
  1 20  1  0
  5 21  1  0
  8 22  1  0
 10 23  1  0
 17 24  1  0
 18 25  1  0
 18 26  1  0
 18 27  1  0
 19 28  1  0
 19 29  1  0
 19 30  1  0
M  ISO  8  20  14  21  14  22  14  23  14  24   8  25   8  26   8  27   8
M  ISO  3  28   8  29   8  30   8
M  END
>  <minimizedAffinity>  (1) 
-3.65240359

>  <minimizedRMSD>  (1) 
1.2026732

$$$$
