
     RDKit          3D

 23 25  0  0  0  0  0  0  0  0999 V2000
   36.7810   29.7860   41.6950 C   0  0  0  0  0  0  0  0  0  0  0  0
   38.1290   29.4390   41.3530 C   0  0  0  0  0  0  0  0  0  0  0  0
   38.8390   30.2040   40.4770 C   0  0  0  0  0  0  0  0  0  0  0  0
   38.1880   31.3040   39.9500 N   0  0  0  0  0  0  0  0  0  0  0  0
   36.9060   31.6210   40.2820 C   0  0  0  0  0  0  0  0  0  0  0  0
   36.2020   30.8700   41.1510 N   0  0  0  0  0  0  0  0  0  0  0  0
   38.6370   28.2260   41.9680 C   0  0  0  0  0  0  0  0  0  0  0  0
   38.3860   26.9650   41.3190 C   0  0  0  0  0  0  0  0  0  0  0  0
   39.1860   25.7200   42.4290 S   0  0  0  0  0  0  0  0  0  0  0  0
   39.7220   27.1540   43.5840 C   0  0  0  0  0  0  0  0  0  0  0  0
   39.3200   28.0660   43.0810 N   0  0  0  0  0  0  0  0  0  0  0  0
   40.2160   30.0050   40.0800 C   0  0  0  0  0  0  0  0  0  0  0  0
   41.0520   29.0950   39.6400 N   0  0  0  0  0  0  0  0  0  0  0  0
   42.2340   29.5610   39.4670 O   0  0  0  0  0  0  0  0  0  0  0  0
   42.2960   30.8080   39.7710 C   0  0  0  0  0  0  0  0  0  0  0  0
   41.0550   31.0630   40.1440 N   0  0  0  0  0  0  0  0  0  0  0  0
   43.3870   31.7860   39.7510 C   0  0  0  0  0  0  0  0  0  0  0  0
   44.0450   32.0070   38.6770 O   0  0  0  0  0  0  0  0  0  0  0  0
   36.2182   29.1627   42.4055 H   0  0  0  0  0  0  0  0  0  0  0  0
   36.4360   32.5078   39.8317 H   0  0  0  0  0  0  0  0  0  0  0  0
   37.8434   26.7839   40.3794 H   0  0  0  0  0  0  0  0  0  0  0  0
   40.2922   27.0924   44.5226 H   0  0  0  0  0  0  0  0  0  0  0  0
   43.6425   32.3355   40.6690 H   0  0  0  0  0  0  0  0  0  0  0  0
  2  1  2  0
  2  7  1  0
  3  2  1  0
  4  5  1  0
  4  3  2  0
  5  6  2  0
  6  1  1  0
  7 11  1  0
  8  7  2  0
  8  9  1  0
  9 10  1  0
 11 10  2  0
 12 16  1  0
 12  3  1  0
 13 12  2  0
 14 13  1  0
 14 15  1  0
 15 16  2  0
 17 15  1  0
 18 17  2  0
  1 19  1  0
  5 20  1  0
  8 21  1  0
 10 22  1  0
 17 23  1  0
M  ISO  5  19  14  20  14  21  14  22  14  23   6
M  END
>  <minimizedAffinity>  (1) 
-3.45163369

>  <minimizedRMSD>  (1) 
0.774543524

$$$$
