
     RDKit          3D

 24 26  0  0  0  0  0  0  0  0999 V2000
   36.7280   29.9080   41.6850 C   0  0  0  0  0  0  0  0  0  0  0  0
   37.9820   29.3890   41.2380 C   0  0  0  0  0  0  0  0  0  0  0  0
   38.6490   29.9870   40.2080 C   0  0  0  0  0  0  0  0  0  0  0  0
   38.0530   31.0910   39.6350 N   0  0  0  0  0  0  0  0  0  0  0  0
   36.8480   31.5710   40.0780 C   0  0  0  0  0  0  0  0  0  0  0  0
   36.1880   30.9840   41.0980 N   0  0  0  0  0  0  0  0  0  0  0  0
   38.4410   28.1820   41.9120 C   0  0  0  0  0  0  0  0  0  0  0  0
   38.0160   26.9070   41.3980 C   0  0  0  0  0  0  0  0  0  0  0  0
   38.8030   25.6740   42.5190 S   0  0  0  0  0  0  0  0  0  0  0  0
   39.5830   27.1500   43.5070 C   0  0  0  0  0  0  0  0  0  0  0  0
   39.2170   28.0610   42.9680 N   0  0  0  0  0  0  0  0  0  0  0  0
   39.9420   29.6020   39.6800 C   0  0  0  0  0  0  0  0  0  0  0  0
   40.5330   28.6920   38.9420 N   0  0  0  0  0  0  0  0  0  0  0  0
   41.7870   28.8980   38.8260 O   0  0  0  0  0  0  0  0  0  0  0  0
   42.1510   29.9560   39.4690 C   0  0  0  0  0  0  0  0  0  0  0  0
   41.0110   30.3710   39.9820 N   0  0  0  0  0  0  0  0  0  0  0  0
   43.5000   30.5350   39.5870 C   0  0  0  0  0  0  0  0  0  0  0  0
   36.2016   29.4197   42.5183 H   0  0  0  0  0  0  0  0  0  0  0  0
   36.4092   32.4544   39.5911 H   0  0  0  0  0  0  0  0  0  0  0  0
   37.3674   26.7121   40.5312 H   0  0  0  0  0  0  0  0  0  0  0  0
   40.2343   27.1031   44.3922 H   0  0  0  0  0  0  0  0  0  0  0  0
   43.7595   30.6464   40.6501 H   0  0  0  0  0  0  0  0  0  0  0  0
   44.2283   29.8702   39.0995 H   0  0  0  0  0  0  0  0  0  0  0  0
   43.5198   31.5209   39.0995 H   0  0  0  0  0  0  0  0  0  0  0  0
  2  1  2  0
  2  7  1  0
  3  2  1  0
  4  5  1  0
  4  3  2  0
  5  6  2  0
  6  1  1  0
  7 11  1  0
  8  7  2  0
  8  9  1  0
  9 10  1  0
 11 10  2  0
 12 16  1  0
 12  3  1  0
 13 12  2  0
 14 13  1  0
 14 15  1  0
 15 17  1  0
 15 16  2  0
  1 18  1  0
  5 19  1  0
  8 20  1  0
 10 21  1  0
 17 22  1  0
 17 23  1  0
 17 24  1  0
M  ISO  7  18  14  19  14  20  14  21  14  22   8  23   8  24   8
M  END
>  <minimizedAffinity>  (1) 
-3.42469311

>  <minimizedRMSD>  (1) 
0.159175873

$$$$
