
     RDKit          3D

 33 35  0  0  1  0  0  0  0  0999 V2000
   39.6880   29.5570   42.7140 N   0  0  0  0  0  0  0  0  0  0  0  0
   39.8440   30.9770   42.7660 C   0  0  0  0  0  0  0  0  0  0  0  0
   40.9300   31.2570   41.7450 C   0  0  0  0  0  0  0  0  0  0  0  0
   42.1560   30.7630   42.2520 N   0  0  0  0  0  0  0  0  0  0  0  0
   42.1410   29.4620   42.7510 C   0  0  0  0  0  0  0  0  0  0  0  0
   40.8510   28.6840   42.7790 C   0  0  2  0  0  0  0  0  0  0  0  0
   38.4220   28.8960   42.6000 C   0  0  0  0  0  0  0  0  0  0  0  0
   37.9110   28.0610   43.6210 C   0  0  0  0  0  0  0  0  0  0  0  0
   36.6790   27.4620   43.4230 C   0  0  0  0  0  0  0  0  0  0  0  0
   36.0320   27.7140   42.2560 N   0  0  0  0  0  0  0  0  0  0  0  0
   36.5410   28.5140   41.2970 C   0  0  0  0  0  0  0  0  0  0  0  0
   37.7270   29.0930   41.4830 N   0  0  0  0  0  0  0  0  0  0  0  0
   40.8110   27.6320   41.7620 C   0  0  0  0  0  0  0  0  0  0  0  0
   40.8740   26.4550   42.2550 O   0  0  0  0  0  0  0  0  0  0  0  0
   40.7310   27.3780   40.3480 C   0  0  0  0  0  0  0  0  0  0  0  0
   39.9010   26.4880   39.7200 C   0  0  0  0  0  0  0  0  0  0  0  0
   40.1220   26.5450   38.4020 N   0  0  0  0  0  0  0  0  0  0  0  0
   41.0950   27.4690   38.1740 C   0  0  0  0  0  0  0  0  0  0  0  0
   41.4550   27.9690   39.3920 N   0  0  0  0  0  0  0  0  0  0  0  0
   38.9075   31.4848   42.4918 H   0  0  0  0  0  0  0  0  0  0  0  0
   40.1004   31.3411   43.7718 H   0  0  0  0  0  0  0  0  0  0  0  0
   41.0084   32.3407   41.5733 H   0  0  0  0  0  0  0  0  0  0  0  0
   40.6889   30.7649   40.7912 H   0  0  0  0  0  0  0  0  0  0  0  0
   42.8474   30.7981   41.4893 H   0  0  0  0  0  0  0  0  0  0  0  0
   42.8503   28.8802   42.1441 H   0  0  0  0  0  0  0  0  0  0  0  0
   42.3807   29.5954   43.8162 H   0  0  0  0  0  0  0  0  0  0  0  0
   40.8126   28.1736   43.7526 H   0  0  0  0  0  0  0  0  0  0  0  0
   38.4780   27.8921   44.5483 H   0  0  0  0  0  0  0  0  0  0  0  0
   36.2384   26.8034   44.1860 H   0  0  0  0  0  0  0  0  0  0  0  0
   35.9805   28.6877   40.3666 H   0  0  0  0  0  0  0  0  0  0  0  0
   39.1713   25.8329   40.2183 H   0  0  0  0  0  0  0  0  0  0  0  0
   41.5108   27.7571   37.1972 H   0  0  0  0  0  0  0  0  0  0  0  0
   42.1733   28.6901   39.5501 H   0  0  0  0  0  0  0  0  0  0  0  0
  1  2  1  0
  1  6  1  0
  3  4  1  0
  3  2  1  0
  4  5  1  0
  5  6  1  0
  7  1  1  0
  7  8  2  0
  9  8  1  0
 10  9  2  0
 11 12  2  0
 11 10  1  0
 12  7  1  0
 13 14  2  0
 13  6  1  0
 15 13  1  0
 16 15  2  0
 17 16  1  0
 18 17  2  0
 18 19  1  0
 19 15  1  0
  2 20  1  0
  2 21  1  0
  3 22  1  0
  3 23  1  0
  4 24  1  0
  5 25  1  0
  5 26  1  0
  6 27  1  1
  8 28  1  0
  9 29  1  0
 11 30  1  0
 16 31  1  0
 18 32  1  0
 19 33  1  0
M  ISO  8  20  13  21  13  22  13  23  13  24   5  25  13  26  13  27  13
M  ISO  6  28  14  29  14  30  14  31  14  32  14  33   9
M  END
>  <minimizedAffinity>  (1) 
-3.31376767

>  <minimizedRMSD>  (1) 
0.036972709

$$$$
