
     RDKit          3D

 33 35  0  0  1  0  0  0  0  0999 V2000
   39.7190   29.4820   42.7270 N   0  0  0  0  0  0  0  0  0  0  0  0
   39.9120   30.8970   42.6800 C   0  0  0  0  0  0  0  0  0  0  0  0
   41.0320   31.0860   41.6740 C   0  0  0  0  0  0  0  0  0  0  0  0
   42.2300   30.5980   42.2520 N   0  0  0  0  0  0  0  0  0  0  0  0
   42.1660   29.3360   42.8440 C   0  0  0  0  0  0  0  0  0  0  0  0
   40.8590   28.6030   42.9020 C   0  0  2  0  0  0  0  0  0  0  0  0
   38.4410   28.8450   42.6120 C   0  0  0  0  0  0  0  0  0  0  0  0
   37.9110   28.0260   43.6390 C   0  0  0  0  0  0  0  0  0  0  0  0
   36.6650   27.4540   43.4360 C   0  0  0  0  0  0  0  0  0  0  0  0
   36.0260   27.7140   42.2670 N   0  0  0  0  0  0  0  0  0  0  0  0
   36.5540   28.4980   41.3040 C   0  0  0  0  0  0  0  0  0  0  0  0
   37.7520   29.0550   41.4860 N   0  0  0  0  0  0  0  0  0  0  0  0
   40.8230   27.4790   41.9350 C   0  0  0  0  0  0  0  0  0  0  0  0
   40.8370   26.3250   42.4400 O   0  0  0  0  0  0  0  0  0  0  0  0
   40.7840   27.4250   40.4880 C   0  0  0  0  0  0  0  0  0  0  0  0
   39.9780   26.5590   39.8140 C   0  0  0  0  0  0  0  0  0  0  0  0
   40.1660   26.7500   38.4490 C   0  0  0  0  0  0  0  0  0  0  0  0
   41.0740   27.7170   38.3090 N   0  0  0  0  0  0  0  0  0  0  0  0
   41.4100   28.0870   39.5100 N   0  0  0  0  0  0  0  0  0  0  0  0
   38.9959   31.4049   42.3441 H   0  0  0  0  0  0  0  0  0  0  0  0
   40.1539   31.3225   43.6651 H   0  0  0  0  0  0  0  0  0  0  0  0
   41.1417   32.1540   41.4345 H   0  0  0  0  0  0  0  0  0  0  0  0
   40.8067   30.5401   40.7460 H   0  0  0  0  0  0  0  0  0  0  0  0
   42.9428   30.5597   41.5095 H   0  0  0  0  0  0  0  0  0  0  0  0
   42.8682   28.6912   42.2951 H   0  0  0  0  0  0  0  0  0  0  0  0
   42.3900   29.5399   43.9015 H   0  0  0  0  0  0  0  0  0  0  0  0
   40.7826   28.1820   43.9154 H   0  0  0  0  0  0  0  0  0  0  0  0
   38.4711   27.8494   44.5691 H   0  0  0  0  0  0  0  0  0  0  0  0
   36.2073   26.8082   44.1999 H   0  0  0  0  0  0  0  0  0  0  0  0
   35.9981   28.6771   40.3719 H   0  0  0  0  0  0  0  0  0  0  0  0
   39.2930   25.8304   40.2721 H   0  0  0  0  0  0  0  0  0  0  0  0
   39.6608   26.2058   37.6375 H   0  0  0  0  0  0  0  0  0  0  0  0
   41.4379   28.0965   37.4233 H   0  0  0  0  0  0  0  0  0  0  0  0
  1  6  1  0
  2  1  1  0
  3  4  1  0
  3  2  1  0
  4  5  1  0
  5  6  1  0
  7  1  1  0
  7  8  2  0
  9  8  1  0
 10  9  2  0
 11 12  2  0
 11 10  1  0
 12  7  1  0
 13 14  2  0
 13  6  1  0
 15 13  1  0
 16 15  1  0
 17 16  2  0
 18 17  1  0
 18 19  1  0
 19 15  2  0
  2 20  1  0
  2 21  1  0
  3 22  1  0
  3 23  1  0
  4 24  1  0
  5 25  1  0
  5 26  1  0
  6 27  1  1
  8 28  1  0
  9 29  1  0
 11 30  1  0
 16 31  1  0
 17 32  1  0
 18 33  1  0
M  ISO  8  20  13  21  13  22  13  23  13  24   5  25  13  26  13  27  13
M  ISO  6  28  14  29  14  30  14  31  14  32  14  33   9
M  END
>  <minimizedAffinity>  (1) 
-3.30856872

>  <minimizedRMSD>  (1) 
0.244555935

$$$$
