
     RDKit          3D

 40 44  0  0  0  0  0  0  0  0999 V2000
   38.3680   31.7700   40.5850 C   0  0  0  0  0  0  0  0  0  0  0  0
   39.7940   31.9150   40.6050 C   0  0  0  0  0  0  0  0  0  0  0  0
   40.3590   33.1250   40.3260 C   0  0  0  0  0  0  0  0  0  0  0  0
   39.4970   34.1530   40.0350 N   0  0  0  0  0  0  0  0  0  0  0  0
   38.1470   33.9980   40.0200 C   0  0  0  0  0  0  0  0  0  0  0  0
   37.5810   32.8090   40.2940 N   0  0  0  0  0  0  0  0  0  0  0  0
   41.7860   33.4070   40.3150 C   0  0  0  0  0  0  0  0  0  0  0  0
   42.9070   33.1300   39.7160 N   0  0  0  0  0  0  0  0  0  0  0  0
   43.9020   33.7580   40.2220 O   0  0  0  0  0  0  0  0  0  0  0  0
   43.5310   34.5110   41.2060 C   0  0  0  0  0  0  0  0  0  0  0  0
   42.2330   34.2870   41.2530 N   0  0  0  0  0  0  0  0  0  0  0  0
   44.2480   35.3880   42.0750 N   0  0  0  0  0  0  0  0  0  0  0  0
   45.5640   35.6340   42.0060 C   0  0  0  0  0  0  0  0  0  0  0  0
   45.8850   36.5110   42.9860 N   0  0  0  0  0  0  0  0  0  0  0  0
   44.7520   36.8040   43.6610 C   0  0  0  0  0  0  0  0  0  0  0  0
   43.7440   36.0950   43.0780 N   0  0  0  0  0  0  0  0  0  0  0  0
   40.5430   30.7070   40.9310 C   0  0  0  0  0  0  0  0  0  0  0  0
   40.7450   29.7460   39.8690 C   0  0  0  0  0  0  0  0  0  0  0  0
   41.7160   28.3980   40.6870 S   0  0  0  0  0  0  0  0  0  0  0  0
   41.6590   29.4050   42.3270 C   0  0  0  0  0  0  0  0  0  0  0  0
   41.0860   30.3180   42.0560 N   0  0  0  0  0  0  0  0  0  0  0  0
   43.5740   27.7480   45.7830 C   0  0  0  0  0  0  0  0  0  0  0  0
   42.5850   27.0990   45.1050 C   0  0  0  0  0  0  0  0  0  0  0  0
   41.9450   27.5900   43.9970 C   0  0  0  0  0  0  0  0  0  0  0  0
   42.3320   28.8260   43.5390 C   0  0  0  0  0  0  0  0  0  0  0  0
   43.3250   29.5230   44.1850 C   0  0  0  0  0  0  0  0  0  0  0  0
   43.9540   29.0050   45.3010 C   0  0  0  0  0  0  0  0  0  0  0  0
   44.3420   27.0660   47.1810 S   0  0  0  0  0  0  0  0  0  0  0  0
   45.5620   26.2970   46.7050 O   0  0  0  0  0  0  0  0  0  0  0  0
   44.7990   28.1270   48.1480 O   0  0  0  0  0  0  0  0  0  0  0  0
   37.9172   30.7926   40.8117 H   0  0  0  0  0  0  0  0  0  0  0  0
   37.5064   34.8593   39.7798 H   0  0  0  0  0  0  0  0  0  0  0  0
   46.2634   35.1978   41.2776 H   0  0  0  0  0  0  0  0  0  0  0  0
   44.6601   37.4860   44.5192 H   0  0  0  0  0  0  0  0  0  0  0  0
   40.4034   29.8024   38.8249 H   0  0  0  0  0  0  0  0  0  0  0  0
   42.2784   26.1092   45.4742 H   0  0  0  0  0  0  0  0  0  0  0  0
   41.1523   27.0167   43.4940 H   0  0  0  0  0  0  0  0  0  0  0  0
   43.6245   30.5115   43.8066 H   0  0  0  0  0  0  0  0  0  0  0  0
   44.7468   29.5763   45.8061 H   0  0  0  0  0  0  0  0  0  0  0  0
   43.4405   26.2635   47.8292 H   0  0  0  0  0  0  0  0  0  0  0  0
  1  2  2  0
  2 17  1  0
  3  2  1  0
  4  3  2  0
  5  4  1  0
  5  6  2  0
  6  1  1  0
  7  3  1  0
  7 11  1  0
  8  9  1  0
  8  7  2  0
  9 10  1  0
 10 11  2  0
 10 12  1  0
 12 16  1  0
 13 12  1  0
 13 14  2  0
 14 15  1  0
 16 15  2  0
 17 21  1  0
 18 19  1  0
 18 17  2  0
 19 20  1  0
 20 25  1  0
 21 20  2  0
 22 28  1  0
 23 22  2  0
 24 23  1  0
 25 24  2  0
 25 26  1  0
 26 27  2  0
 27 22  1  0
 28 30  2  0
 29 28  2  0
  1 31  1  0
  5 32  1  0
 13 33  1  0
 15 34  1  0
 18 35  1  0
 23 36  1  0
 24 37  1  0
 26 38  1  0
 27 39  1  0
 28 40  1  0
M  ISO  8  31  14  32  14  33  14  34  14  35  14  36  14  37  14  38  14
M  ISO  2  39  14  40  11
M  END
>  <minimizedAffinity>  (1) 
-6.44078445

>  <minimizedRMSD>  (1) 
2.29201603

$$$$
