
     RDKit          3D

 33 35  0  0  1  0  0  0  0  0999 V2000
   40.0210   28.8150   42.8380 N   0  0  0  0  0  0  0  0  0  0  0  0
   40.5300   30.1450   42.6290 C   0  0  0  0  0  0  0  0  0  0  0  0
   41.7400   29.9570   41.7360 C   0  0  0  0  0  0  0  0  0  0  0  0
   42.7550   29.3060   42.4870 N   0  0  0  0  0  0  0  0  0  0  0  0
   42.3680   28.1810   43.2200 C   0  0  0  0  0  0  0  0  0  0  0  0
   40.9270   27.7740   43.2350 C   0  0  2  0  0  0  0  0  0  0  0  0
   38.6550   28.4550   42.6780 C   0  0  0  0  0  0  0  0  0  0  0  0
   37.9160   27.8380   43.7040 C   0  0  0  0  0  0  0  0  0  0  0  0
   36.5880   27.5230   43.4520 C   0  0  0  0  0  0  0  0  0  0  0  0
   36.0780   27.8250   42.2320 N   0  0  0  0  0  0  0  0  0  0  0  0
   36.8110   28.4210   41.2560 C   0  0  0  0  0  0  0  0  0  0  0  0
   38.0870   28.7280   41.4890 N   0  0  0  0  0  0  0  0  0  0  0  0
   40.7200   26.5460   42.3910 C   0  0  0  0  0  0  0  0  0  0  0  0
   40.4480   25.4690   42.9600 O   0  0  0  0  0  0  0  0  0  0  0  0
   40.7970   26.4040   40.9380 C   0  0  0  0  0  0  0  0  0  0  0  0
   42.1430   26.1140   40.3000 C   0  0  0  0  0  0  0  0  0  0  0  0
   41.0910   25.0470   40.3520 C   0  0  0  0  0  0  0  0  0  0  0  0
   39.7767   30.7755   42.1341 H   0  0  0  0  0  0  0  0  0  0  0  0
   40.7839   30.6471   43.5742 H   0  0  0  0  0  0  0  0  0  0  0  0
   42.1032   30.9365   41.3915 H   0  0  0  0  0  0  0  0  0  0  0  0
   41.4714   29.3505   40.8585 H   0  0  0  0  0  0  0  0  0  0  0  0
   43.4906   29.0120   41.8287 H   0  0  0  0  0  0  0  0  0  0  0  0
   42.9379   27.3281   42.8228 H   0  0  0  0  0  0  0  0  0  0  0  0
   42.5672   28.4693   44.2627 H   0  0  0  0  0  0  0  0  0  0  0  0
   40.6869   27.5505   44.2849 H   0  0  0  0  0  0  0  0  0  0  0  0
   38.3770   27.6120   44.6768 H   0  0  0  0  0  0  0  0  0  0  0  0
   35.9659   27.0415   44.2209 H   0  0  0  0  0  0  0  0  0  0  0  0
   36.3552   28.6485   40.2811 H   0  0  0  0  0  0  0  0  0  0  0  0
   40.0124   27.1620   40.7973 H   0  0  0  0  0  0  0  0  0  0  0  0
   43.0427   26.0306   40.9274 H   0  0  0  0  0  0  0  0  0  0  0  0
   42.7423   26.5777   39.5026 H   0  0  0  0  0  0  0  0  0  0  0  0
   40.5873   24.7282   39.4275 H   0  0  0  0  0  0  0  0  0  0  0  0
   41.0530   24.0152   40.7314 H   0  0  0  0  0  0  0  0  0  0  0  0
  1  6  1  0
  2  1  1  0
  3  4  1  0
  3  2  1  0
  4  5  1  0
  5  6  1  0
  7  1  1  0
  7  8  2  0
  9  8  1  0
 10  9  2  0
 11 12  2  0
 11 10  1  0
 12  7  1  0
 13 14  2  0
 13  6  1  0
 15 13  1  0
 16 17  1  0
 16 15  1  0
 17 15  1  0
  2 18  1  0
  2 19  1  0
  3 20  1  0
  3 21  1  0
  4 22  1  0
  5 23  1  0
  5 24  1  0
  6 25  1  1
  8 26  1  0
  9 27  1  0
 11 28  1  0
 15 29  1  0
 16 30  1  0
 16 31  1  0
 17 32  1  0
 17 33  1  0
M  ISO  8  18  13  19  13  20  13  21  13  22   5  23  13  24  13  25  13
M  ISO  8  26  14  27  14  28  14  29  13  30  13  31  13  32  13  33  13
M  END
>  <minimizedAffinity>  (1) 
-3.21878314

>  <minimizedRMSD>  (1) 
1.20706367

$$$$
