
     RDKit          3D

 35 39  0  0  0  0  0  0  0  0999 V2000
   38.3410   31.9200   40.4510 C   0  0  0  0  0  0  0  0  0  0  0  0
   39.7750   32.0530   40.4740 C   0  0  0  0  0  0  0  0  0  0  0  0
   40.3510   33.2640   40.2680 C   0  0  0  0  0  0  0  0  0  0  0  0
   39.5010   34.3160   40.0410 N   0  0  0  0  0  0  0  0  0  0  0  0
   38.1450   34.1750   40.0200 C   0  0  0  0  0  0  0  0  0  0  0  0
   37.5700   32.9850   40.2240 N   0  0  0  0  0  0  0  0  0  0  0  0
   41.7760   33.5320   40.2780 C   0  0  0  0  0  0  0  0  0  0  0  0
   42.9020   33.2520   39.6860 N   0  0  0  0  0  0  0  0  0  0  0  0
   43.9010   33.8540   40.2090 O   0  0  0  0  0  0  0  0  0  0  0  0
   43.5290   34.5950   41.2050 C   0  0  0  0  0  0  0  0  0  0  0  0
   42.2310   34.3880   41.2350 N   0  0  0  0  0  0  0  0  0  0  0  0
   44.2520   35.4400   42.0890 N   0  0  0  0  0  0  0  0  0  0  0  0
   45.5760   35.6770   42.0550 C   0  0  0  0  0  0  0  0  0  0  0  0
   45.8960   36.5260   43.0460 N   0  0  0  0  0  0  0  0  0  0  0  0
   44.7640   36.8230   43.7040 C   0  0  0  0  0  0  0  0  0  0  0  0
   43.7350   36.1490   43.1110 N   0  0  0  0  0  0  0  0  0  0  0  0
   40.5090   30.8100   40.7170 C   0  0  0  0  0  0  0  0  0  0  0  0
   40.8570   30.0100   39.5730 C   0  0  0  0  0  0  0  0  0  0  0  0
   41.7400   28.5690   40.2900 S   0  0  0  0  0  0  0  0  0  0  0  0
   41.4730   29.3290   42.0460 C   0  0  0  0  0  0  0  0  0  0  0  0
   40.9170   30.2780   41.8410 N   0  0  0  0  0  0  0  0  0  0  0  0
   41.9980   28.6000   43.2250 C   0  0  0  0  0  0  0  0  0  0  0  0
   41.4390   27.4150   43.5910 C   0  0  0  0  0  0  0  0  0  0  0  0
   41.9460   26.7620   44.6890 C   0  0  0  0  0  0  0  0  0  0  0  0
   42.9780   27.2670   45.4040 N   0  0  0  0  0  0  0  0  0  0  0  0
   43.4910   28.4340   45.0010 C   0  0  0  0  0  0  0  0  0  0  0  0
   43.0260   29.1050   43.9350 N   0  0  0  0  0  0  0  0  0  0  0  0
   37.8795   30.9361   40.6213 H   0  0  0  0  0  0  0  0  0  0  0  0
   37.5130   35.0555   39.8320 H   0  0  0  0  0  0  0  0  0  0  0  0
   46.2832   35.2449   41.3317 H   0  0  0  0  0  0  0  0  0  0  0  0
   44.6799   37.4939   44.5716 H   0  0  0  0  0  0  0  0  0  0  0  0
   40.6434   30.2145   38.5135 H   0  0  0  0  0  0  0  0  0  0  0  0
   40.6001   26.9890   43.0210 H   0  0  0  0  0  0  0  0  0  0  0  0
   41.5011   25.8035   44.9947 H   0  0  0  0  0  0  0  0  0  0  0  0
   44.3306   28.8632   45.5674 H   0  0  0  0  0  0  0  0  0  0  0  0
  1  2  2  0
  2 17  1  0
  3  7  1  0
  3  2  1  0
  4  3  2  0
  5  4  1  0
  5  6  2  0
  6  1  1  0
  7 11  1  0
  8  9  1  0
  8  7  2  0
  9 10  1  0
 10 11  2  0
 10 12  1  0
 12 16  1  0
 13 12  1  0
 13 14  2  0
 14 15  1  0
 16 15  2  0
 17 21  1  0
 18 19  1  0
 18 17  2  0
 19 20  1  0
 20 22  1  0
 21 20  2  0
 22 23  2  0
 22 27  1  0
 23 24  1  0
 24 25  2  0
 26 25  1  0
 27 26  2  0
  1 28  1  0
  5 29  1  0
 13 30  1  0
 15 31  1  0
 18 32  1  0
 23 33  1  0
 24 34  1  0
 26 35  1  0
M  ISO  8  28  14  29  14  30  14  31  14  32  14  33  14  34  14  35  14
M  END
>  <minimizedAffinity>  (1) 
-5.87942028

>  <minimizedRMSD>  (1) 
2.42281508

$$$$
