
     RDKit          3D

 30 33  0  0  0  0  0  0  0  0999 V2000
   36.4610   28.7470   38.7680 C   0  0  0  0  0  0  0  0  0  0  0  0
   37.5030   29.4310   39.4770 C   0  0  0  0  0  0  0  0  0  0  0  0
   38.2080   30.4240   38.8610 C   0  0  0  0  0  0  0  0  0  0  0  0
   37.8570   30.7070   37.5640 N   0  0  0  0  0  0  0  0  0  0  0  0
   36.8720   30.0520   36.9080 C   0  0  0  0  0  0  0  0  0  0  0  0
   36.1750   29.0780   37.5010 N   0  0  0  0  0  0  0  0  0  0  0  0
   39.2800   31.1970   39.4630 C   0  0  0  0  0  0  0  0  0  0  0  0
   40.4460   31.1040   40.0330 N   0  0  0  0  0  0  0  0  0  0  0  0
   40.9170   32.2550   40.3730 O   0  0  0  0  0  0  0  0  0  0  0  0
   40.1200   33.2020   40.0660 C   0  0  0  0  0  0  0  0  0  0  0  0
   39.1150   32.5510   39.5070 N   0  0  0  0  0  0  0  0  0  0  0  0
   40.1760   34.6110   40.2250 N   0  0  0  0  0  0  0  0  0  0  0  0
   41.2040   35.2920   40.7660 C   0  0  0  0  0  0  0  0  0  0  0  0
   40.9160   36.6060   40.7570 N   0  0  0  0  0  0  0  0  0  0  0  0
   39.7010   36.7440   40.2060 C   0  0  0  0  0  0  0  0  0  0  0  0
   39.2340   35.5050   39.8730 N   0  0  0  0  0  0  0  0  0  0  0  0
   37.7280   28.9870   40.8420 C   0  0  0  0  0  0  0  0  0  0  0  0
   37.1380   29.7600   41.9060 C   0  0  0  0  0  0  0  0  0  0  0  0
   37.6480   28.8850   43.4490 S   0  0  0  0  0  0  0  0  0  0  0  0
   38.5930   27.5950   42.3430 C   0  0  0  0  0  0  0  0  0  0  0  0
   38.3990   27.9650   41.3100 N   0  0  0  0  0  0  0  0  0  0  0  0
   39.3570   26.4270   42.9230 C   0  0  0  0  0  0  0  0  0  0  0  0
   38.6470   25.2600   42.8480 F   0  0  0  0  0  0  0  0  0  0  0  0
   40.5870   26.3000   42.3100 F   0  0  0  0  0  0  0  0  0  0  0  0
   39.6130   26.8410   44.2230 F   0  0  0  0  0  0  0  0  0  0  0  0
   35.8938   27.9470   39.2662 H   0  0  0  0  0  0  0  0  0  0  0  0
   36.6406   30.3258   35.8681 H   0  0  0  0  0  0  0  0  0  0  0  0
   42.1314   34.8451   41.1535 H   0  0  0  0  0  0  0  0  0  0  0  0
   39.1704   37.6947   40.0489 H   0  0  0  0  0  0  0  0  0  0  0  0
   36.5223   30.6673   41.8181 H   0  0  0  0  0  0  0  0  0  0  0  0
  1  2  2  0
  2 17  1  0
  3  7  1  0
  3  2  1  0
  4  3  2  0
  5  6  2  0
  5  4  1  0
  6  1  1  0
  7 11  1  0
  7  8  2  0
  8  9  1  0
 10 12  1  0
 10  9  1  0
 11 10  2  0
 12 13  1  0
 14 13  2  0
 15 14  1  0
 16 15  2  0
 16 12  1  0
 17 21  1  0
 17 18  2  0
 18 19  1  0
 20 22  1  0
 20 19  1  0
 21 20  2  0
 22 25  1  0
 23 22  1  0
 24 22  1  0
  1 26  1  0
  5 27  1  0
 13 28  1  0
 15 29  1  0
 18 30  1  0
M  ISO  5  26  14  27  14  28  14  29  14  30  14
M  END
>  <minimizedAffinity>  (1) 
-5.84214878

>  <minimizedRMSD>  (1) 
3.12443161

$$$$
