
     RDKit          3D

 39 43  0  0  0  0  0  0  0  0999 V2000
   38.3090   31.8310   40.5870 C   0  0  0  0  0  0  0  0  0  0  0  0
   39.7450   31.9400   40.6170 C   0  0  0  0  0  0  0  0  0  0  0  0
   40.3400   33.1380   40.3420 C   0  0  0  0  0  0  0  0  0  0  0  0
   39.4970   34.1920   40.0440 N   0  0  0  0  0  0  0  0  0  0  0  0
   38.1470   34.0730   40.0210 C   0  0  0  0  0  0  0  0  0  0  0  0
   37.5570   32.8990   40.2920 N   0  0  0  0  0  0  0  0  0  0  0  0
   41.7650   33.3980   40.3470 C   0  0  0  0  0  0  0  0  0  0  0  0
   42.8920   33.0790   39.7660 N   0  0  0  0  0  0  0  0  0  0  0  0
   43.8970   33.6990   40.2610 O   0  0  0  0  0  0  0  0  0  0  0  0
   43.5380   34.4820   41.2090 C   0  0  0  0  0  0  0  0  0  0  0  0
   42.2260   34.3000   41.2630 N   0  0  0  0  0  0  0  0  0  0  0  0
   44.2680   35.3710   42.0620 N   0  0  0  0  0  0  0  0  0  0  0  0
   45.5780   35.5930   42.0190 C   0  0  0  0  0  0  0  0  0  0  0  0
   45.9050   36.4830   42.9680 N   0  0  0  0  0  0  0  0  0  0  0  0
   44.7760   36.8210   43.6170 C   0  0  0  0  0  0  0  0  0  0  0  0
   43.7510   36.1240   43.0490 N   0  0  0  0  0  0  0  0  0  0  0  0
   40.4640   30.7190   40.9370 C   0  0  0  0  0  0  0  0  0  0  0  0
   40.7500   29.8240   39.8460 C   0  0  0  0  0  0  0  0  0  0  0  0
   41.6520   28.4230   40.6460 S   0  0  0  0  0  0  0  0  0  0  0  0
   41.4690   29.3330   42.3400 C   0  0  0  0  0  0  0  0  0  0  0  0
   40.9140   30.2700   42.0780 N   0  0  0  0  0  0  0  0  0  0  0  0
   42.0740   28.6230   43.4550 N   0  0  0  0  0  0  0  0  0  0  0  0
   41.4230   27.3840   43.8320 C   0  0  0  0  0  0  0  0  0  0  0  0
   42.5420   26.5620   44.4580 C   0  0  0  0  0  0  0  0  0  0  0  0
   43.7840   27.4320   44.4260 C   0  0  0  0  0  0  0  0  0  0  0  0
   43.2000   28.8180   44.3470 C   0  0  0  0  0  0  0  0  0  0  0  0
   37.8282   30.8665   40.8073 H   0  0  0  0  0  0  0  0  0  0  0  0
   37.5281   34.9491   39.7773 H   0  0  0  0  0  0  0  0  0  0  0  0
   46.2818   35.1219   41.3170 H   0  0  0  0  0  0  0  0  0  0  0  0
   44.6947   37.5305   44.4536 H   0  0  0  0  0  0  0  0  0  0  0  0
   40.4918   29.9457   38.7837 H   0  0  0  0  0  0  0  0  0  0  0  0
   40.6188   27.5693   44.5593 H   0  0  0  0  0  0  0  0  0  0  0  0
   40.9478   26.8765   42.9796 H   0  0  0  0  0  0  0  0  0  0  0  0
   42.2872   26.3011   45.4958 H   0  0  0  0  0  0  0  0  0  0  0  0
   42.7002   25.6218   43.9093 H   0  0  0  0  0  0  0  0  0  0  0  0
   44.3844   27.3037   45.3387 H   0  0  0  0  0  0  0  0  0  0  0  0
   44.4687   27.1937   43.5987 H   0  0  0  0  0  0  0  0  0  0  0  0
   43.9231   29.5326   43.9268 H   0  0  0  0  0  0  0  0  0  0  0  0
   42.9221   29.2375   45.3252 H   0  0  0  0  0  0  0  0  0  0  0  0
  1  2  2  0
  2 17  1  0
  3  7  1  0
  3  2  1  0
  4  3  2  0
  5  4  1  0
  5  6  2  0
  6  1  1  0
  7 11  1  0
  8  9  1  0
  8  7  2  0
  9 10  1  0
 10 11  2  0
 10 12  1  0
 12 16  1  0
 13 12  1  0
 13 14  2  0
 14 15  1  0
 16 15  2  0
 17 21  1  0
 18 19  1  0
 18 17  2  0
 19 20  1  0
 20 22  1  0
 21 20  2  0
 22 23  1  0
 22 26  1  0
 23 24  1  0
 25 24  1  0
 26 25  1  0
  1 27  1  0
  5 28  1  0
 13 29  1  0
 15 30  1  0
 18 31  1  0
 23 32  1  0
 23 33  1  0
 24 34  1  0
 24 35  1  0
 25 36  1  0
 25 37  1  0
 26 38  1  0
 26 39  1  0
M  ISO  8  27  14  28  14  29  14  30  14  31  14  32  13  33  13  34  13
M  ISO  5  35  13  36  13  37  13  38  13  39  13
M  END
>  <minimizedAffinity>  (1) 
-5.83788013

>  <minimizedRMSD>  (1) 
2.27125525

$$$$
