
     RDKit          3D

 38 43  0  0  0  0  0  0  0  0999 V2000
   37.3670   29.8670   41.3820 C   0  0  0  0  0  0  0  0  0  0  0  0
   38.7470   30.0300   41.0490 C   0  0  0  0  0  0  0  0  0  0  0  0
   39.1640   31.1630   40.4200 C   0  0  0  0  0  0  0  0  0  0  0  0
   38.2050   32.1010   40.1350 N   0  0  0  0  0  0  0  0  0  0  0  0
   36.8930   31.9280   40.4600 C   0  0  0  0  0  0  0  0  0  0  0  0
   36.4770   30.8200   41.0790 N   0  0  0  0  0  0  0  0  0  0  0  0
   39.6160   28.9270   41.4180 C   0  0  0  0  0  0  0  0  0  0  0  0
   39.6200   27.7590   40.5670 C   0  0  0  0  0  0  0  0  0  0  0  0
   40.8230   26.6150   41.3560 S   0  0  0  0  0  0  0  0  0  0  0  0
   41.1160   27.9590   42.7380 C   0  0  0  0  0  0  0  0  0  0  0  0
   40.4390   28.7830   42.4260 N   0  0  0  0  0  0  0  0  0  0  0  0
   42.0290   27.8410   43.8840 N   0  0  0  0  0  0  0  0  0  0  0  0
   42.0180   26.9270   44.8800 C   0  0  0  0  0  0  0  0  0  0  0  0
   43.0240   27.1900   45.7110 N   0  0  0  0  0  0  0  0  0  0  0  0
   43.6410   28.2890   45.1870 C   0  0  0  0  0  0  0  0  0  0  0  0
   44.7570   28.9850   45.6660 C   0  0  0  0  0  0  0  0  0  0  0  0
   45.2360   30.0700   45.0030 N   0  0  0  0  0  0  0  0  0  0  0  0
   44.6110   30.4590   43.8760 C   0  0  0  0  0  0  0  0  0  0  0  0
   43.5340   29.7930   43.4100 N   0  0  0  0  0  0  0  0  0  0  0  0
   43.0200   28.7120   44.0290 C   0  0  0  0  0  0  0  0  0  0  0  0
   40.5380   31.4620   40.0310 C   0  0  0  0  0  0  0  0  0  0  0  0
   41.4920   31.1260   39.2100 N   0  0  0  0  0  0  0  0  0  0  0  0
   42.5550   31.8190   39.3870 O   0  0  0  0  0  0  0  0  0  0  0  0
   42.4140   32.6720   40.3320 C   0  0  0  0  0  0  0  0  0  0  0  0
   41.1710   32.4510   40.7260 N   0  0  0  0  0  0  0  0  0  0  0  0
   43.2790   33.6530   40.9020 N   0  0  0  0  0  0  0  0  0  0  0  0
   44.5240   33.9030   40.5010 C   0  0  0  0  0  0  0  0  0  0  0  0
   45.0480   34.8910   41.2650 N   0  0  0  0  0  0  0  0  0  0  0  0
   44.0960   35.2430   42.1450 C   0  0  0  0  0  0  0  0  0  0  0  0
   42.9930   34.4790   41.9270 N   0  0  0  0  0  0  0  0  0  0  0  0
   37.0333   28.9510   41.8915 H   0  0  0  0  0  0  0  0  0  0  0  0
   36.1650   32.7133   40.2086 H   0  0  0  0  0  0  0  0  0  0  0  0
   39.0338   27.5919   39.6513 H   0  0  0  0  0  0  0  0  0  0  0  0
   41.2973   26.1028   44.9861 H   0  0  0  0  0  0  0  0  0  0  0  0
   45.2518   28.6498   46.5895 H   0  0  0  0  0  0  0  0  0  0  0  0
   44.9847   31.3349   43.3255 H   0  0  0  0  0  0  0  0  0  0  0  0
   45.0443   33.3887   39.6796 H   0  0  0  0  0  0  0  0  0  0  0  0
   44.1931   36.0218   42.9157 H   0  0  0  0  0  0  0  0  0  0  0  0
  2  1  2  0
  2  7  1  0
  3  2  1  0
  4  3  2  0
  4  5  1  0
  5  6  2  0
  6  1  1  0
  7 11  1  0
  8  9  1  0
  8  7  2  0
  9 10  1  0
 10 12  1  0
 11 10  2  0
 12 20  1  0
 12 13  1  0
 13 14  2  0
 15 16  2  0
 15 14  1  0
 17 16  1  0
 18 17  2  0
 19 18  1  0
 19 20  2  0
 20 15  1  0
 21  3  1  0
 21 25  1  0
 22 23  1  0
 22 21  2  0
 23 24  1  0
 24 25  2  0
 24 26  1  0
 26 30  1  0
 27 26  1  0
 27 28  2  0
 28 29  1  0
 30 29  2  0
  1 31  1  0
  5 32  1  0
  8 33  1  0
 13 34  1  0
 16 35  1  0
 18 36  1  0
 27 37  1  0
 29 38  1  0
M  ISO  8  31  14  32  14  33  14  34  14  35  14  36  14  37  14  38  14
M  END
>  <minimizedAffinity>  (1) 
-5.64905167

>  <minimizedRMSD>  (1) 
0.838938057

$$$$
