
     RDKit          3D

 34 38  0  0  0  0  0  0  0  0999 V2000
   38.3590   31.8990   40.5000 C   0  0  0  0  0  0  0  0  0  0  0  0
   39.7990   32.0110   40.5430 C   0  0  0  0  0  0  0  0  0  0  0  0
   40.3690   33.2290   40.3170 C   0  0  0  0  0  0  0  0  0  0  0  0
   39.5270   34.2820   40.0610 N   0  0  0  0  0  0  0  0  0  0  0  0
   38.1790   34.1520   40.0260 C   0  0  0  0  0  0  0  0  0  0  0  0
   37.5960   32.9720   40.2440 N   0  0  0  0  0  0  0  0  0  0  0  0
   41.8030   33.4980   40.3410 C   0  0  0  0  0  0  0  0  0  0  0  0
   42.9340   33.1940   39.7760 N   0  0  0  0  0  0  0  0  0  0  0  0
   43.9260   33.8120   40.2950 O   0  0  0  0  0  0  0  0  0  0  0  0
   43.5390   34.5860   41.2580 C   0  0  0  0  0  0  0  0  0  0  0  0
   42.2440   34.3860   41.2760 N   0  0  0  0  0  0  0  0  0  0  0  0
   44.2550   35.4630   42.1290 N   0  0  0  0  0  0  0  0  0  0  0  0
   45.5820   35.6860   42.1000 C   0  0  0  0  0  0  0  0  0  0  0  0
   45.8890   36.5510   43.0700 N   0  0  0  0  0  0  0  0  0  0  0  0
   44.7490   36.8730   43.7080 C   0  0  0  0  0  0  0  0  0  0  0  0
   43.7240   36.1980   43.1270 N   0  0  0  0  0  0  0  0  0  0  0  0
   40.5180   30.7890   40.8190 C   0  0  0  0  0  0  0  0  0  0  0  0
   40.8870   29.9740   39.6820 C   0  0  0  0  0  0  0  0  0  0  0  0
   41.7650   28.5380   40.4600 S   0  0  0  0  0  0  0  0  0  0  0  0
   41.4580   29.3310   42.1880 C   0  0  0  0  0  0  0  0  0  0  0  0
   40.9080   30.2650   41.9470 N   0  0  0  0  0  0  0  0  0  0  0  0
   42.0000   28.5430   43.3380 C   0  0  0  0  0  0  0  0  0  0  0  0
   41.3220   27.4160   43.6980 C   0  0  0  0  0  0  0  0  0  0  0  0
   42.0090   26.9010   44.7450 N   0  0  0  0  0  0  0  0  0  0  0  0
   43.0490   27.7220   44.9660 C   0  0  0  0  0  0  0  0  0  0  0  0
   43.0650   28.7510   44.1050 N   0  0  0  0  0  0  0  0  0  0  0  0
   37.8835   30.9234   40.6791 H   0  0  0  0  0  0  0  0  0  0  0  0
   37.5554   35.0331   39.8145 H   0  0  0  0  0  0  0  0  0  0  0  0
   46.2943   35.2319   41.3954 H   0  0  0  0  0  0  0  0  0  0  0  0
   44.6620   37.5665   44.5574 H   0  0  0  0  0  0  0  0  0  0  0  0
   40.6937   30.1608   38.6154 H   0  0  0  0  0  0  0  0  0  0  0  0
   40.4098   27.0109   43.2356 H   0  0  0  0  0  0  0  0  0  0  0  0
   43.7974   27.5691   45.7575 H   0  0  0  0  0  0  0  0  0  0  0  0
   43.7449   29.5229   44.0511 H   0  0  0  0  0  0  0  0  0  0  0  0
  1  2  2  0
  2 17  1  0
  3  7  1  0
  3  2  1  0
  4  3  2  0
  5  4  1  0
  5  6  2  0
  6  1  1  0
  7 11  1  0
  8  9  1  0
  8  7  2  0
  9 10  1  0
 10 11  2  0
 10 12  1  0
 12 16  1  0
 13 12  1  0
 13 14  2  0
 14 15  1  0
 16 15  2  0
 17 21  1  0
 18 19  1  0
 18 17  2  0
 19 20  1  0
 20 22  1  0
 21 20  2  0
 22 23  2  0
 22 26  1  0
 23 24  1  0
 24 25  2  0
 26 25  1  0
  1 27  1  0
  5 28  1  0
 13 29  1  0
 15 30  1  0
 18 31  1  0
 23 32  1  0
 25 33  1  0
 26 34  1  0
M  ISO  8  27  14  28  14  29  14  30  14  31  14  32  14  33  14  34   9
M  END
>  <minimizedAffinity>  (1) 
-5.58913994

>  <minimizedRMSD>  (1) 
2.37960243

$$$$
