
     RDKit          3D

 30 33  0  0  0  0  0  0  0  0999 V2000
   37.1080   29.7740   41.4820 C   0  0  0  0  0  0  0  0  0  0  0  0
   38.5030   29.8620   41.1790 C   0  0  0  0  0  0  0  0  0  0  0  0
   38.9870   30.9730   40.5610 C   0  0  0  0  0  0  0  0  0  0  0  0
   38.0860   31.9610   40.2600 N   0  0  0  0  0  0  0  0  0  0  0  0
   36.7610   31.8550   40.5570 C   0  0  0  0  0  0  0  0  0  0  0  0
   36.2750   30.7690   41.1650 N   0  0  0  0  0  0  0  0  0  0  0  0
   40.3840   31.2050   40.2080 C   0  0  0  0  0  0  0  0  0  0  0  0
   41.3740   30.7560   39.4840 N   0  0  0  0  0  0  0  0  0  0  0  0
   42.4430   31.4580   39.6260 O   0  0  0  0  0  0  0  0  0  0  0  0
   42.2510   32.4310   40.4560 C   0  0  0  0  0  0  0  0  0  0  0  0
   40.9980   32.2690   40.8030 N   0  0  0  0  0  0  0  0  0  0  0  0
   43.1220   33.4620   40.9320 N   0  0  0  0  0  0  0  0  0  0  0  0
   44.3980   33.6450   40.5630 C   0  0  0  0  0  0  0  0  0  0  0  0
   44.8880   34.6910   41.2260 N   0  0  0  0  0  0  0  0  0  0  0  0
   43.9100   35.1710   42.0200 C   0  0  0  0  0  0  0  0  0  0  0  0
   42.8030   34.4040   41.8380 N   0  0  0  0  0  0  0  0  0  0  0  0
   39.3040   28.7100   41.5550 C   0  0  0  0  0  0  0  0  0  0  0  0
   39.3390   27.5930   40.6350 C   0  0  0  0  0  0  0  0  0  0  0  0
   40.4370   26.3640   41.4570 S   0  0  0  0  0  0  0  0  0  0  0  0
   40.6540   27.6150   42.9290 C   0  0  0  0  0  0  0  0  0  0  0  0
   40.0300   28.4880   42.6150 N   0  0  0  0  0  0  0  0  0  0  0  0
   41.5100   27.3130   44.1470 C   0  0  0  0  0  0  0  0  0  0  0  0
   36.7163   28.8760   41.9822 H   0  0  0  0  0  0  0  0  0  0  0  0
   36.0798   32.6770   40.2920 H   0  0  0  0  0  0  0  0  0  0  0  0
   44.9487   33.0328   39.8337 H   0  0  0  0  0  0  0  0  0  0  0  0
   43.9935   36.0336   42.6975 H   0  0  0  0  0  0  0  0  0  0  0  0
   38.8267   27.4996   39.6661 H   0  0  0  0  0  0  0  0  0  0  0  0
   40.9324   27.5168   45.0607 H   0  0  0  0  0  0  0  0  0  0  0  0
   41.8099   26.2548   44.1311 H   0  0  0  0  0  0  0  0  0  0  0  0
   42.4075   27.9487   44.1311 H   0  0  0  0  0  0  0  0  0  0  0  0
  2  1  2  0
  2 17  1  0
  3  2  1  0
  4  5  1  0
  4  3  2  0
  5  6  2  0
  6  1  1  0
  7  3  1  0
  7 11  1  0
  8  9  1  0
  8  7  2  0
  9 10  1  0
 10 11  2  0
 10 12  1  0
 12 16  1  0
 13 12  1  0
 13 14  2  0
 14 15  1  0
 16 15  2  0
 17 21  1  0
 18 19  1  0
 18 17  2  0
 19 20  1  0
 20 22  1  0
 21 20  2  0
  1 23  1  0
  5 24  1  0
 13 25  1  0
 15 26  1  0
 18 27  1  0
 22 28  1  0
 22 29  1  0
 22 30  1  0
M  ISO  8  23  14  24  14  25  14  26  14  27  14  28   8  29   8  30   8
M  END
>  <minimizedAffinity>  (1) 
-4.47926283

>  <minimizedRMSD>  (1) 
0.291267991

$$$$
