
     RDKit          3D

 28 31  0  0  0  0  0  0  0  0999 V2000
   37.0300   29.6860   41.3820 C   0  0  0  0  0  0  0  0  0  0  0  0
   38.4310   29.7490   41.1020 C   0  0  0  0  0  0  0  0  0  0  0  0
   38.9680   30.8840   40.5570 C   0  0  0  0  0  0  0  0  0  0  0  0
   38.1000   31.9070   40.3100 N   0  0  0  0  0  0  0  0  0  0  0  0
   36.7720   31.8330   40.5810 C   0  0  0  0  0  0  0  0  0  0  0  0
   36.2380   30.7300   41.1140 N   0  0  0  0  0  0  0  0  0  0  0  0
   40.3740   31.0800   40.2350 C   0  0  0  0  0  0  0  0  0  0  0  0
   41.3750   30.5820   39.5690 N   0  0  0  0  0  0  0  0  0  0  0  0
   42.4490   31.2760   39.7040 O   0  0  0  0  0  0  0  0  0  0  0  0
   42.2570   32.2930   40.4690 C   0  0  0  0  0  0  0  0  0  0  0  0
   40.9830   32.1660   40.7920 N   0  0  0  0  0  0  0  0  0  0  0  0
   43.1040   33.3400   40.9220 N   0  0  0  0  0  0  0  0  0  0  0  0
   44.3990   33.4930   40.5840 C   0  0  0  0  0  0  0  0  0  0  0  0
   44.8860   34.5900   41.1990 N   0  0  0  0  0  0  0  0  0  0  0  0
   43.8820   35.1140   41.9210 C   0  0  0  0  0  0  0  0  0  0  0  0
   42.7720   34.3450   41.7540 N   0  0  0  0  0  0  0  0  0  0  0  0
   39.1890   28.5480   41.4270 C   0  0  0  0  0  0  0  0  0  0  0  0
   39.1900   27.4740   40.4690 C   0  0  0  0  0  0  0  0  0  0  0  0
   40.2370   26.1810   41.2430 S   0  0  0  0  0  0  0  0  0  0  0  0
   40.4940   27.3450   42.7600 C   0  0  0  0  0  0  0  0  0  0  0  0
   39.9040   28.2550   42.4860 N   0  0  0  0  0  0  0  0  0  0  0  0
   41.4770   26.9440   44.2160 S   0  0  0  0  0  0  0  0  0  0  0  0
   36.6009   28.7730   41.8206 H   0  0  0  0  0  0  0  0  0  0  0  0
   36.1252   32.6945   40.3584 H   0  0  0  0  0  0  0  0  0  0  0  0
   44.9673   32.8304   39.9147 H   0  0  0  0  0  0  0  0  0  0  0  0
   43.9465   36.0173   42.5454 H   0  0  0  0  0  0  0  0  0  0  0  0
   38.6797   27.4367   39.4952 H   0  0  0  0  0  0  0  0  0  0  0  0
   40.7598   27.2366   45.3460 H   0  0  0  0  0  0  0  0  0  0  0  0
  2  1  2  0
  2 17  1  0
  3  2  1  0
  4  3  2  0
  4  5  1  0
  5  6  2  0
  6  1  1  0
  7  3  1  0
  7 11  1  0
  8  9  1  0
  8  7  2  0
  9 10  1  0
 10 11  2  0
 10 12  1  0
 12 16  1  0
 13 12  1  0
 13 14  2  0
 14 15  1  0
 16 15  2  0
 17 21  1  0
 18 19  1  0
 18 17  2  0
 19 20  1  0
 20 22  1  0
 21 20  2  0
  1 23  1  0
  5 24  1  0
 13 25  1  0
 15 26  1  0
 18 27  1  0
 22 28  1  0
M  ISO  6  23  14  24  14  25  14  26  14  27  14  28  11
M  END
>  <minimizedAffinity>  (1) 
-4.38488817

>  <minimizedRMSD>  (1) 
0.432833076

$$$$
