
     RDKit          3D

 35 39  0  0  0  0  0  0  0  0999 V2000
   37.0050   28.3560   41.6500 C   0  0  0  0  0  0  0  0  0  0  0  0
   38.1650   29.1020   41.3060 C   0  0  0  0  0  0  0  0  0  0  0  0
   38.0520   30.2580   40.5720 C   0  0  0  0  0  0  0  0  0  0  0  0
   36.7800   30.6110   40.2190 N   0  0  0  0  0  0  0  0  0  0  0  0
   35.6830   29.8940   40.5520 C   0  0  0  0  0  0  0  0  0  0  0  0
   35.7930   28.7700   41.2660 N   0  0  0  0  0  0  0  0  0  0  0  0
   39.1540   31.1070   40.1580 C   0  0  0  0  0  0  0  0  0  0  0  0
   40.3680   31.1060   39.6900 N   0  0  0  0  0  0  0  0  0  0  0  0
   40.8420   32.2840   39.5220 O   0  0  0  0  0  0  0  0  0  0  0  0
   39.9860   33.1830   39.8630 C   0  0  0  0  0  0  0  0  0  0  0  0
   38.9500   32.4610   40.2540 N   0  0  0  0  0  0  0  0  0  0  0  0
   40.0130   34.5990   39.8700 N   0  0  0  0  0  0  0  0  0  0  0  0
   41.0450   35.3540   39.4510 C   0  0  0  0  0  0  0  0  0  0  0  0
   40.7370   36.6530   39.5960 N   0  0  0  0  0  0  0  0  0  0  0  0
   39.4970   36.7000   40.1130 C   0  0  0  0  0  0  0  0  0  0  0  0
   39.0420   35.4320   40.2850 N   0  0  0  0  0  0  0  0  0  0  0  0
   39.4340   28.5540   41.7810 C   0  0  0  0  0  0  0  0  0  0  0  0
   39.6900   27.1630   41.5630 C   0  0  0  0  0  0  0  0  0  0  0  0
   41.3470   26.8830   42.2920 S   0  0  0  0  0  0  0  0  0  0  0  0
   41.4100   28.7610   42.7820 C   0  0  0  0  0  0  0  0  0  0  0  0
   40.4290   29.1230   42.3980 N   0  0  0  0  0  0  0  0  0  0  0  0
   42.7830   29.5380   43.6330 S   0  0  0  0  0  0  0  0  0  0  0  0
   43.9090   26.7030   45.9550 N   0  0  0  0  0  0  0  0  0  0  0  0
   43.1530   27.6980   45.4750 N   0  0  0  0  0  0  0  0  0  0  0  0
   43.7260   28.1940   44.3550 C   0  0  0  0  0  0  0  0  0  0  0  0
   44.8900   27.4940   44.1050 C   0  0  0  0  0  0  0  0  0  0  0  0
   44.9780   26.5660   45.1250 C   0  0  0  0  0  0  0  0  0  0  0  0
   37.1052   27.4309   42.2367 H   0  0  0  0  0  0  0  0  0  0  0  0
   34.6892   30.2399   40.2316 H   0  0  0  0  0  0  0  0  0  0  0  0
   41.9940   34.9670   39.0515 H   0  0  0  0  0  0  0  0  0  0  0  0
   38.9409   37.6171   40.3572 H   0  0  0  0  0  0  0  0  0  0  0  0
   39.0383   26.4274   41.0688 H   0  0  0  0  0  0  0  0  0  0  0  0
   43.7165   26.1437   46.7982 H   0  0  0  0  0  0  0  0  0  0  0  0
   45.5947   27.6430   43.2736 H   0  0  0  0  0  0  0  0  0  0  0  0
   45.7869   25.8306   45.2469 H   0  0  0  0  0  0  0  0  0  0  0  0
  2  1  2  0
  2 17  1  0
  3  2  1  0
  4  5  1  0
  4  3  2  0
  5  6  2  0
  6  1  1  0
  7 11  1  0
  7  3  1  0
  8  7  2  0
  9  8  1  0
  9 10  1  0
 10 12  1  0
 10 11  2  0
 12 16  1  0
 13 14  2  0
 13 12  1  0
 14 15  1  0
 15 16  2  0
 17 21  1  0
 18 17  2  0
 18 19  1  0
 19 20  1  0
 20 22  1  0
 21 20  2  0
 22 25  1  0
 24 23  1  0
 25 24  2  0
 26 25  1  0
 26 27  2  0
 27 23  1  0
  1 28  1  0
  5 29  1  0
 13 30  1  0
 15 31  1  0
 18 32  1  0
 23 33  1  0
 26 34  1  0
 27 35  1  0
M  ISO  8  28  14  29  14  30  14  31  14  32  14  33   9  34  14  35  14
M  END
>  <minimizedAffinity>  (1) 
-5.56550217

>  <minimizedRMSD>  (1) 
2.89734793

$$$$
