
     RDKit          3D

 24 26  0  0  0  0  0  0  0  0999 V2000
   38.5750   28.1040   42.5150 C   0  0  0  0  0  0  0  0  0  0  0  0
   38.4680   26.8860   43.1450 C   0  0  0  0  0  0  0  0  0  0  0  0
   39.6150   26.5590   43.7640 N   0  0  0  0  0  0  0  0  0  0  0  0
   40.4680   27.6040   43.5140 C   0  0  0  0  0  0  0  0  0  0  0  0
   39.8160   28.5160   42.7610 N   0  0  0  0  0  0  0  0  0  0  0  0
   40.9150   31.8500   41.9900 N   0  0  0  0  0  0  0  0  0  0  0  0
   40.3450   31.0060   42.8390 N   0  0  0  0  0  0  0  0  0  0  0  0
   40.3210   29.7680   42.2630 C   0  0  0  0  0  0  0  0  0  0  0  0
   40.9070   29.9030   41.0200 C   0  0  0  0  0  0  0  0  0  0  0  0
   41.2850   31.2280   40.8460 C   0  0  0  0  0  0  0  0  0  0  0  0
   35.7200   28.5240   40.2170 C   0  0  0  0  0  0  0  0  0  0  0  0
   36.7560   27.8950   40.9370 C   0  0  0  0  0  0  0  0  0  0  0  0
   37.5100   28.7220   41.7670 C   0  0  0  0  0  0  0  0  0  0  0  0
   37.2100   30.0620   41.8340 N   0  0  0  0  0  0  0  0  0  0  0  0
   36.2040   30.6120   41.1190 C   0  0  0  0  0  0  0  0  0  0  0  0
   35.4590   29.8400   40.3110 N   0  0  0  0  0  0  0  0  0  0  0  0
   37.5624   26.2616   43.1425 H   0  0  0  0  0  0  0  0  0  0  0  0
   41.5067   27.6853   43.8670 H   0  0  0  0  0  0  0  0  0  0  0  0
   41.0582   32.8526   42.1773 H   0  0  0  0  0  0  0  0  0  0  0  0
   41.0507   29.0944   40.2882 H   0  0  0  0  0  0  0  0  0  0  0  0
   41.7776   31.6746   39.9697 H   0  0  0  0  0  0  0  0  0  0  0  0
   35.0974   27.9112   39.5486 H   0  0  0  0  0  0  0  0  0  0  0  0
   36.9569   26.8171   40.8489 H   0  0  0  0  0  0  0  0  0  0  0  0
   35.9957   31.6892   41.1985 H   0  0  0  0  0  0  0  0  0  0  0  0
  1  5  1  0
  1  2  2  0
  2  3  1  0
  4  3  2  0
  5  4  1  0
  6  7  1  0
  8  5  1  0
  8  7  2  0
  9  8  1  0
 10  9  2  0
 10  6  1  0
 11 16  2  0
 11 12  1  0
 12 13  2  0
 13 14  1  0
 13  1  1  0
 15 14  2  0
 16 15  1  0
  2 17  1  0
  4 18  1  0
  6 19  1  0
  9 20  1  0
 10 21  1  0
 11 22  1  0
 12 23  1  0
 15 24  1  0
M  ISO  8  17  14  18  14  19   9  20  14  21  14  22  14  23  14  24  14
M  END
>  <minimizedAffinity>  (1) 
-4.26798248

>  <minimizedRMSD>  (1) 
0.639218152

$$$$
