
     RDKit          3D

 32 34  0  0  0  0  0  0  0  0999 V2000
   37.1040   26.6320   39.7930 C   0  0  0  0  0  0  0  0  0  0  0  0
   36.4520   25.4480   39.5690 C   0  0  0  0  0  0  0  0  0  0  0  0
   36.5920   24.6160   40.6310 N   0  0  0  0  0  0  0  0  0  0  0  0
   37.3490   25.3110   41.5290 C   0  0  0  0  0  0  0  0  0  0  0  0
   37.6470   26.5130   41.0150 N   0  0  0  0  0  0  0  0  0  0  0  0
   36.0580   29.5540   37.7980 C   0  0  0  0  0  0  0  0  0  0  0  0
   35.9780   28.4930   38.7200 C   0  0  0  0  0  0  0  0  0  0  0  0
   37.1470   27.7270   38.8580 C   0  0  0  0  0  0  0  0  0  0  0  0
   38.2510   28.0440   38.1180 N   0  0  0  0  0  0  0  0  0  0  0  0
   38.2700   29.0820   37.2420 C   0  0  0  0  0  0  0  0  0  0  0  0
   37.1640   29.8370   37.0870 N   0  0  0  0  0  0  0  0  0  0  0  0
   37.2880   29.2520   43.7180 N   0  0  0  0  0  0  0  0  0  0  0  0
   37.1110   29.5800   42.3370 C   0  0  0  0  0  0  0  0  0  0  0  0
   38.0270   28.9300   41.3760 C   0  0  0  0  0  0  0  0  0  0  0  0
   38.4420   27.5360   41.6840 C   0  0  0  0  0  0  0  0  0  0  0  0
   38.5320   27.2150   43.1480 C   0  0  0  0  0  0  0  0  0  0  0  0
   37.4490   27.8420   43.9720 C   0  0  0  0  0  0  0  0  0  0  0  0
   35.8920   25.2055   38.6538 H   0  0  0  0  0  0  0  0  0  0  0  0
   37.6643   24.9437   42.5168 H   0  0  0  0  0  0  0  0  0  0  0  0
   35.1689   30.1849   37.6514 H   0  0  0  0  0  0  0  0  0  0  0  0
   35.0634   28.2789   39.2925 H   0  0  0  0  0  0  0  0  0  0  0  0
   39.1794   29.3044   36.6645 H   0  0  0  0  0  0  0  0  0  0  0  0
   36.4620   29.5820   44.2373 H   0  0  0  0  0  0  0  0  0  0  0  0
   36.0838   29.3025   42.0578 H   0  0  0  0  0  0  0  0  0  0  0  0
   37.3331   30.6549   42.2652 H   0  0  0  0  0  0  0  0  0  0  0  0
   38.9382   29.5434   41.3177 H   0  0  0  0  0  0  0  0  0  0  0  0
   37.4576   28.8603   40.4374 H   0  0  0  0  0  0  0  0  0  0  0  0
   39.4614   27.5063   41.2718 H   0  0  0  0  0  0  0  0  0  0  0  0
   38.4712   26.1233   43.2681 H   0  0  0  0  0  0  0  0  0  0  0  0
   39.4869   27.6255   43.5080 H   0  0  0  0  0  0  0  0  0  0  0  0
   37.6941   27.7038   45.0354 H   0  0  0  0  0  0  0  0  0  0  0  0
   36.5037   27.3501   43.6992 H   0  0  0  0  0  0  0  0  0  0  0  0
  1  5  1  0
  2  1  2  0
  2  3  1  0
  3  4  2  0
  5  4  1  0
  5 15  1  0
  6  7  2  0
  7  8  1  0
  8  1  1  0
  9  8  2  0
 10  9  1  0
 11 10  2  0
 11  6  1  0
 12 17  1  0
 13 12  1  0
 14 15  1  0
 14 13  1  0
 15 16  1  0
 16 17  1  0
  2 18  1  0
  4 19  1  0
  6 20  1  0
  7 21  1  0
 10 22  1  0
 12 23  1  0
 13 24  1  0
 13 25  1  0
 14 26  1  0
 14 27  1  0
 15 28  1  0
 16 29  1  0
 16 30  1  0
 17 31  1  0
 17 32  1  0
M  ISO  8  18  14  19  14  20  14  21  14  22  14  23   5  24  13  25  13
M  ISO  7  26  13  27  13  28  13  29  13  30  13  31  13  32  13
M  END
>  <minimizedAffinity>  (1) 
-4.25382853

>  <minimizedRMSD>  (1) 
3.8676064

$$$$
