
     RDKit          3D

 24 26  0  0  0  0  0  0  0  0999 V2000
   38.5800   28.1610   42.6140 C   0  0  0  0  0  0  0  0  0  0  0  0
   38.3850   27.0530   43.4090 C   0  0  0  0  0  0  0  0  0  0  0  0
   39.5560   26.6670   43.9740 N   0  0  0  0  0  0  0  0  0  0  0  0
   40.4830   27.5530   43.5180 C   0  0  0  0  0  0  0  0  0  0  0  0
   39.8790   28.4470   42.7000 N   0  0  0  0  0  0  0  0  0  0  0  0
   35.6110   28.6140   40.4550 C   0  0  0  0  0  0  0  0  0  0  0  0
   36.6360   27.9900   41.1680 C   0  0  0  0  0  0  0  0  0  0  0  0
   37.5300   28.8000   41.8840 C   0  0  0  0  0  0  0  0  0  0  0  0
   37.3400   30.1540   41.8410 N   0  0  0  0  0  0  0  0  0  0  0  0
   36.3260   30.7280   41.1340 C   0  0  0  0  0  0  0  0  0  0  0  0
   35.4610   29.9480   40.4400 N   0  0  0  0  0  0  0  0  0  0  0  0
   40.5220   29.5100   42.0420 C   0  0  0  0  0  0  0  0  0  0  0  0
   40.8950   30.7470   42.6570 C   0  0  0  0  0  0  0  0  0  0  0  0
   41.5160   31.6710   41.8560 C   0  0  0  0  0  0  0  0  0  0  0  0
   41.7420   31.3440   40.5000 C   0  0  0  0  0  0  0  0  0  0  0  0
   41.0360   29.6260   40.3360 S   0  0  0  0  0  0  0  0  0  0  0  0
   37.4176   26.5527   43.5635 H   0  0  0  0  0  0  0  0  0  0  0  0
   41.5529   27.5442   43.7734 H   0  0  0  0  0  0  0  0  0  0  0  0
   34.9031   27.9925   39.8869 H   0  0  0  0  0  0  0  0  0  0  0  0
   36.7397   26.8949   41.1684 H   0  0  0  0  0  0  0  0  0  0  0  0
   36.2096   31.8218   41.1265 H   0  0  0  0  0  0  0  0  0  0  0  0
   40.6936   30.9470   43.7198 H   0  0  0  0  0  0  0  0  0  0  0  0
   41.8310   32.6445   42.2599 H   0  0  0  0  0  0  0  0  0  0  0  0
   42.2216   31.9584   39.7238 H   0  0  0  0  0  0  0  0  0  0  0  0
  1  5  1  0
  1  2  2  0
  2  3  1  0
  4  3  2  0
  5  4  1  0
  6  7  2  0
  7  8  1  0
  8  1  1  0
  9  8  2  0
 10  9  1  0
 11  6  1  0
 11 10  2  0
 12 13  2  0
 12  5  1  0
 14 13  1  0
 15 14  2  0
 16 15  1  0
 16 12  1  0
  2 17  1  0
  4 18  1  0
  6 19  1  0
  7 20  1  0
 10 21  1  0
 13 22  1  0
 14 23  1  0
 15 24  1  0
M  ISO  8  17  14  18  14  19  14  20  14  21  14  22  14  23  14  24  14
M  END
>  <minimizedAffinity>  (1) 
-3.99292517

>  <minimizedRMSD>  (1) 
0.565075934

$$$$
