
     RDKit          3D

 24 26  0  0  0  0  0  0  0  0999 V2000
   38.5660   28.2500   42.5930 C   0  0  0  0  0  0  0  0  0  0  0  0
   38.3810   27.1200   43.3540 C   0  0  0  0  0  0  0  0  0  0  0  0
   39.5400   26.7240   43.9100 N   0  0  0  0  0  0  0  0  0  0  0  0
   40.4720   27.6340   43.4800 C   0  0  0  0  0  0  0  0  0  0  0  0
   39.8650   28.5360   42.6940 N   0  0  0  0  0  0  0  0  0  0  0  0
   35.4500   28.8010   40.6820 C   0  0  0  0  0  0  0  0  0  0  0  0
   36.4650   28.1180   41.3700 C   0  0  0  0  0  0  0  0  0  0  0  0
   37.4990   28.9040   41.8760 C   0  0  0  0  0  0  0  0  0  0  0  0
   37.4770   30.2670   41.6820 N   0  0  0  0  0  0  0  0  0  0  0  0
   36.4600   30.8730   41.0030 C   0  0  0  0  0  0  0  0  0  0  0  0
   35.4520   30.1360   40.5060 N   0  0  0  0  0  0  0  0  0  0  0  0
   40.4980   29.6400   42.0550 C   0  0  0  0  0  0  0  0  0  0  0  0
   41.1320   30.6970   42.6920 C   0  0  0  0  0  0  0  0  0  0  0  0
   41.6200   31.5630   41.7950 N   0  0  0  0  0  0  0  0  0  0  0  0
   41.3030   31.0710   40.5820 C   0  0  0  0  0  0  0  0  0  0  0  0
   40.6280   29.9140   40.7260 N   0  0  0  0  0  0  0  0  0  0  0  0
   37.4163   26.6092   43.4897 H   0  0  0  0  0  0  0  0  0  0  0  0
   41.5414   27.6256   43.7374 H   0  0  0  0  0  0  0  0  0  0  0  0
   34.6140   28.2186   40.2673 H   0  0  0  0  0  0  0  0  0  0  0  0
   36.4456   27.0261   41.5022 H   0  0  0  0  0  0  0  0  0  0  0  0
   36.4653   31.9640   40.8626 H   0  0  0  0  0  0  0  0  0  0  0  0
   41.2213   30.8081   43.7827 H   0  0  0  0  0  0  0  0  0  0  0  0
   41.5565   31.5418   39.6207 H   0  0  0  0  0  0  0  0  0  0  0  0
   40.2685   29.3310   39.9567 H   0  0  0  0  0  0  0  0  0  0  0  0
  1  5  1  0
  1  2  2  0
  2  3  1  0
  4  3  2  0
  5  4  1  0
  6  7  2  0
  7  8  1  0
  8  1  1  0
  9  8  2  0
 10  9  1  0
 11  6  1  0
 11 10  2  0
 12 13  2  0
 12  5  1  0
 14 13  1  0
 15 16  1  0
 15 14  2  0
 16 12  1  0
  2 17  1  0
  4 18  1  0
  6 19  1  0
  7 20  1  0
 10 21  1  0
 13 22  1  0
 15 23  1  0
 16 24  1  0
M  ISO  8  17  14  18  14  19  14  20  14  21  14  22  14  23  14  24   9
M  END
>  <minimizedAffinity>  (1) 
-3.89601183

>  <minimizedRMSD>  (1) 
0.505476892

$$$$
