
     RDKit          3D

 20 21  0  0  0  0  0  0  0  0999 V2000
   38.4530   28.0470   42.5290 C   0  0  0  0  0  0  0  0  0  0  0  0
   38.2910   26.8330   43.1330 C   0  0  0  0  0  0  0  0  0  0  0  0
   39.3950   26.4430   43.7950 N   0  0  0  0  0  0  0  0  0  0  0  0
   40.2850   27.4640   43.5910 C   0  0  0  0  0  0  0  0  0  0  0  0
   39.7040   28.4190   42.8290 N   0  0  0  0  0  0  0  0  0  0  0  0
   35.7380   28.5950   40.0920 C   0  0  0  0  0  0  0  0  0  0  0  0
   36.7240   27.9320   40.8470 C   0  0  0  0  0  0  0  0  0  0  0  0
   37.4500   28.7100   41.7570 C   0  0  0  0  0  0  0  0  0  0  0  0
   37.1460   30.0310   41.8380 N   0  0  0  0  0  0  0  0  0  0  0  0
   36.1930   30.6440   41.1010 C   0  0  0  0  0  0  0  0  0  0  0  0
   35.4860   29.9180   40.2230 N   0  0  0  0  0  0  0  0  0  0  0  0
   40.3440   29.6550   42.4070 C   0  0  0  0  0  0  0  0  0  0  0  0
   39.7920   30.7570   43.0730 F   0  0  0  0  0  0  0  0  0  0  0  0
   40.3320   29.8430   41.0530 F   0  0  0  0  0  0  0  0  0  0  0  0
   41.6650   29.6200   42.8140 F   0  0  0  0  0  0  0  0  0  0  0  0
   37.3644   26.2422   43.0838 H   0  0  0  0  0  0  0  0  0  0  0  0
   41.3113   27.5016   43.9850 H   0  0  0  0  0  0  0  0  0  0  0  0
   35.1490   28.0145   39.3667 H   0  0  0  0  0  0  0  0  0  0  0  0
   36.9148   26.8552   40.7278 H   0  0  0  0  0  0  0  0  0  0  0  0
   36.0007   31.7205   41.2196 H   0  0  0  0  0  0  0  0  0  0  0  0
  1  5  1  0
  1  2  2  0
  2  3  1  0
  4  3  2  0
  5  4  1  0
  6 11  2  0
  6  7  1  0
  7  8  2  0
  8  9  1  0
  8  1  1  0
 10  9  2  0
 11 10  1  0
 12 15  1  0
 12  5  1  0
 12 13  1  0
 14 12  1  0
  2 16  1  0
  4 17  1  0
  6 18  1  0
  7 19  1  0
 10 20  1  0
M  ISO  5  16  14  17  14  18  14  19  14  20  14
M  END
>  <minimizedAffinity>  (1) 
-3.84664893

>  <minimizedRMSD>  (1) 
0.638293028

$$$$
