
     RDKit          3D

 29 30  0  0  0  0  0  0  0  0999 V2000
   38.5340   28.0560   42.6490 C   0  0  0  0  0  0  0  0  0  0  0  0
   38.3300   27.0570   43.5590 C   0  0  0  0  0  0  0  0  0  0  0  0
   39.5060   26.6750   44.1050 N   0  0  0  0  0  0  0  0  0  0  0  0
   40.4540   27.4470   43.5280 C   0  0  0  0  0  0  0  0  0  0  0  0
   39.8540   28.2730   42.6530 N   0  0  0  0  0  0  0  0  0  0  0  0
   35.8140   28.5560   40.2250 C   0  0  0  0  0  0  0  0  0  0  0  0
   36.8050   27.8840   40.9690 C   0  0  0  0  0  0  0  0  0  0  0  0
   37.5100   28.7000   41.8770 C   0  0  0  0  0  0  0  0  0  0  0  0
   37.1880   30.0160   41.9550 N   0  0  0  0  0  0  0  0  0  0  0  0
   36.2310   30.6170   41.2210 C   0  0  0  0  0  0  0  0  0  0  0  0
   35.5430   29.8690   40.3500 N   0  0  0  0  0  0  0  0  0  0  0  0
   40.5670   29.2640   41.8310 C   0  0  0  0  0  0  0  0  0  0  0  0
   42.0670   28.9730   41.8820 C   0  0  0  0  0  0  0  0  0  0  0  0
   40.1820   29.2140   40.3910 C   0  0  0  0  0  0  0  0  0  0  0  0
   40.3470   30.6340   42.4300 C   0  0  0  0  0  0  0  0  0  0  0  0
   37.3499   26.6259   43.8109 H   0  0  0  0  0  0  0  0  0  0  0  0
   41.5329   27.4063   43.7386 H   0  0  0  0  0  0  0  0  0  0  0  0
   35.2274   27.9733   39.4995 H   0  0  0  0  0  0  0  0  0  0  0  0
   37.0114   26.8100   40.8507 H   0  0  0  0  0  0  0  0  0  0  0  0
   36.0214   31.6909   41.3343 H   0  0  0  0  0  0  0  0  0  0  0  0
   42.3928   28.9098   42.9307 H   0  0  0  0  0  0  0  0  0  0  0  0
   42.2727   28.0182   41.3760 H   0  0  0  0  0  0  0  0  0  0  0  0
   42.6148   29.7816   41.3760 H   0  0  0  0  0  0  0  0  0  0  0  0
   39.0944   29.0727   40.3069 H   0  0  0  0  0  0  0  0  0  0  0  0
   40.4682   30.1569   39.9020 H   0  0  0  0  0  0  0  0  0  0  0  0
   40.6995   28.3755   39.9020 H   0  0  0  0  0  0  0  0  0  0  0  0
   40.3588   30.5605   43.5275 H   0  0  0  0  0  0  0  0  0  0  0  0
   41.1478   31.3117   42.0992 H   0  0  0  0  0  0  0  0  0  0  0  0
   39.3743   31.0269   42.0992 H   0  0  0  0  0  0  0  0  0  0  0  0
  1  5  1  0
  1  2  2  0
  2  3  1  0
  4  3  2  0
  5  4  1  0
  6 11  2  0
  6  7  1  0
  7  8  2  0
  8  9  1  0
  8  1  1  0
 10  9  2  0
 11 10  1  0
 12 13  1  0
 12 15  1  0
 12  5  1  0
 14 12  1  0
  2 16  1  0
  4 17  1  0
  6 18  1  0
  7 19  1  0
 10 20  1  0
 13 21  1  0
 13 22  1  0
 13 23  1  0
 14 24  1  0
 14 25  1  0
 14 26  1  0
 15 27  1  0
 15 28  1  0
 15 29  1  0
M  ISO  8  16  14  17  14  18  14  19  14  20  14  21   8  22   8  23   8
M  ISO  6  24   8  25   8  26   8  27   8  28   8  29   8
M  END
>  <minimizedAffinity>  (1) 
-3.75834823

>  <minimizedRMSD>  (1) 
0.449037552

$$$$
