
     RDKit          3D

 30 31  0  0  0  0  0  0  0  0999 V2000
   39.5730   30.8020   42.3400 C   0  0  0  0  0  0  0  0  0  0  0  0
   39.2560   31.2420   41.0220 C   0  0  0  0  0  0  0  0  0  0  0  0
   38.7340   30.2660   40.2010 C   0  0  0  0  0  0  0  0  0  0  0  0
   38.5580   29.0050   40.6620 N   0  0  0  0  0  0  0  0  0  0  0  0
   38.8680   28.6270   41.9040 C   0  0  0  0  0  0  0  0  0  0  0  0
   39.3800   29.5550   42.7360 N   0  0  0  0  0  0  0  0  0  0  0  0
   39.4880   32.6000   40.6570 N   0  0  0  0  0  0  0  0  0  0  0  0
   38.5090   33.6290   40.7520 C   0  0  0  0  0  0  0  0  0  0  0  0
   37.2860   33.2800   40.4160 N   0  0  0  0  0  0  0  0  0  0  0  0
   38.9890   34.9190   41.2030 N   0  0  0  0  0  0  0  0  0  0  0  0
   36.5130   33.9600   40.4360 H   0  0  0  0  0  0  0  0  0  0  0  0
   38.6860   27.2510   42.4410 C   0  0  0  0  0  0  0  0  0  0  0  0
   37.3400   26.6910   42.0450 C   0  0  0  0  0  0  0  0  0  0  0  0
   36.3980   27.5020   42.9340 C   0  0  0  0  0  0  0  0  0  0  0  0
   37.1930   27.8440   44.1620 C   0  0  0  0  0  0  0  0  0  0  0  0
   38.5820   27.3040   43.9470 C   0  0  0  0  0  0  0  0  0  0  0  0
   39.9934   31.5258   43.0537 H   0  0  0  0  0  0  0  0  0  0  0  0
   38.4587   30.5128   39.1650 H   0  0  0  0  0  0  0  0  0  0  0  0
   40.4216   32.8524   40.3026 H   0  0  0  0  0  0  0  0  0  0  0  0
   38.3343   35.7088   41.2947 H   0  0  0  0  0  0  0  0  0  0  0  0
   39.9851   35.0465   41.4320 H   0  0  0  0  0  0  0  0  0  0  0  0
   39.5312   26.6567   42.0636 H   0  0  0  0  0  0  0  0  0  0  0  0
   37.1320   26.8617   40.9784 H   0  0  0  0  0  0  0  0  0  0  0  0
   37.2519   25.6022   42.1746 H   0  0  0  0  0  0  0  0  0  0  0  0
   36.0769   28.4185   42.4173 H   0  0  0  0  0  0  0  0  0  0  0  0
   35.4879   26.9369   43.1836 H   0  0  0  0  0  0  0  0  0  0  0  0
   37.2280   28.9349   44.2985 H   0  0  0  0  0  0  0  0  0  0  0  0
   36.7354   27.4075   45.0620 H   0  0  0  0  0  0  0  0  0  0  0  0
   38.6911   26.3022   44.3880 H   0  0  0  0  0  0  0  0  0  0  0  0
   39.3663   27.9145   44.4183 H   0  0  0  0  0  0  0  0  0  0  0  0
  1  6  2  0
  2  1  1  0
  3  4  1  0
  3  2  2  0
  4  5  2  0
  5 12  1  0
  5  6  1  0
  7  8  1  0
  7  2  1  0
  8 10  1  0
  9 11  1  0
  9  8  2  0
 12 16  1  0
 13 12  1  0
 13 14  1  0
 14 15  1  0
 16 15  1  0
  1 17  1  0
  3 18  1  0
  7 19  1  0
 10 20  1  0
 10 21  1  0
 12 22  1  0
 13 23  1  0
 13 24  1  0
 14 25  1  0
 14 26  1  0
 15 27  1  0
 15 28  1  0
 16 29  1  0
 16 30  1  0
M  ISO  8  17  14  18  14  22  13  23  13  24  13  25  13  26  13  27  13
M  ISO  3  28  13  29  13  30  13
M  END
>  <minimizedAffinity>  (1) 
-5.28115368

>  <minimizedRMSD>  (1) 
2.47196889

$$$$
