
     RDKit          3D

 25 27  0  0  0  0  0  0  0  0999 V2000
   38.5640   28.1480   42.6320 C   0  0  0  0  0  0  0  0  0  0  0  0
   38.3810   27.0430   43.4440 C   0  0  0  0  0  0  0  0  0  0  0  0
   39.5450   26.6530   44.0010 N   0  0  0  0  0  0  0  0  0  0  0  0
   40.4630   27.5250   43.5300 C   0  0  0  0  0  0  0  0  0  0  0  0
   39.8750   28.4300   42.7030 N   0  0  0  0  0  0  0  0  0  0  0  0
   35.6180   28.6190   40.4590 C   0  0  0  0  0  0  0  0  0  0  0  0
   36.6370   27.9750   41.1780 C   0  0  0  0  0  0  0  0  0  0  0  0
   37.5220   28.8040   41.8980 C   0  0  0  0  0  0  0  0  0  0  0  0
   37.3350   30.1480   41.8500 N   0  0  0  0  0  0  0  0  0  0  0  0
   36.3300   30.7290   41.1390 C   0  0  0  0  0  0  0  0  0  0  0  0
   35.4780   29.9550   40.4460 N   0  0  0  0  0  0  0  0  0  0  0  0
   40.5400   29.4920   42.0290 C   0  0  0  0  0  0  0  0  0  0  0  0
   40.8360   30.7300   42.5670 C   0  0  0  0  0  0  0  0  0  0  0  0
   41.4860   31.6860   41.8130 C   0  0  0  0  0  0  0  0  0  0  0  0
   41.8210   31.3840   40.5550 N   0  0  0  0  0  0  0  0  0  0  0  0
   41.5460   30.1810   39.9980 C   0  0  0  0  0  0  0  0  0  0  0  0
   40.9140   29.2640   40.7410 N   0  0  0  0  0  0  0  0  0  0  0  0
   37.4133   26.5479   43.6129 H   0  0  0  0  0  0  0  0  0  0  0  0
   41.5340   27.5056   43.7800 H   0  0  0  0  0  0  0  0  0  0  0  0
   34.9073   28.0067   39.8845 H   0  0  0  0  0  0  0  0  0  0  0  0
   36.7400   26.8798   41.1798 H   0  0  0  0  0  0  0  0  0  0  0  0
   36.2164   31.8231   41.1319 H   0  0  0  0  0  0  0  0  0  0  0  0
   40.5511   30.9555   43.6053 H   0  0  0  0  0  0  0  0  0  0  0  0
   41.7226   32.6729   42.2374 H   0  0  0  0  0  0  0  0  0  0  0  0
   41.8350   29.9622   38.9595 H   0  0  0  0  0  0  0  0  0  0  0  0
  1  5  1  0
  1  2  2  0
  2  3  1  0
  4  3  2  0
  5  4  1  0
  6  7  2  0
  7  8  1  0
  8  1  1  0
  9  8  2  0
 10  9  1  0
 11  6  1  0
 11 10  2  0
 12 13  2  0
 12  5  1  0
 14 13  1  0
 15 14  2  0
 16 15  1  0
 16 17  2  0
 17 12  1  0
  2 18  1  0
  4 19  1  0
  6 20  1  0
  7 21  1  0
 10 22  1  0
 13 23  1  0
 14 24  1  0
 16 25  1  0
M  ISO  8  18  14  19  14  20  14  21  14  22  14  23  14  24  14  25  14
M  END
>  <minimizedAffinity>  (1) 
-4.07978678

>  <minimizedRMSD>  (1) 
0.702716649

$$$$
