
     RDKit          3D

 39 43  0  0  0  0  0  0  0  0999 V2000
   40.5270   29.5720   42.0900 C   0  0  0  0  0  0  0  0  0  0  0  0
   40.6300   30.8310   42.6430 C   0  0  0  0  0  0  0  0  0  0  0  0
   41.2630   31.8460   41.9660 C   0  0  0  0  0  0  0  0  0  0  0  0
   41.7730   31.5860   40.7680 N   0  0  0  0  0  0  0  0  0  0  0  0
   41.6940   30.3660   40.1910 C   0  0  0  0  0  0  0  0  0  0  0  0
   41.0750   29.3700   40.8510 N   0  0  0  0  0  0  0  0  0  0  0  0
   42.2350   30.0700   38.9080 N   0  0  0  0  0  0  0  0  0  0  0  0
   42.0510   28.8980   38.2400 C   0  0  0  0  0  0  0  0  0  0  0  0
   42.7060   28.9480   37.0420 N   0  0  0  0  0  0  0  0  0  0  0  0
   43.3040   30.1620   36.9600 C   0  0  0  0  0  0  0  0  0  0  0  0
   44.0880   30.8420   36.0610 C   0  0  0  0  0  0  0  0  0  0  0  0
   44.3930   30.2680   34.9860 O   0  0  0  0  0  0  0  0  0  0  0  0
   44.5240   32.0890   36.3130 N   0  0  0  0  0  0  0  0  0  0  0  0
   44.2210   32.7400   37.4530 C   0  0  0  0  0  0  0  0  0  0  0  0
   44.6530   34.0540   37.7720 N   0  0  0  0  0  0  0  0  0  0  0  0
   43.4570   32.0990   38.3490 N   0  0  0  0  0  0  0  0  0  0  0  0
   43.0070   30.8510   38.1200 C   0  0  0  0  0  0  0  0  0  0  0  0
   38.6190   28.0920   42.5470 C   0  0  0  0  0  0  0  0  0  0  0  0
   38.4590   26.9360   43.3010 C   0  0  0  0  0  0  0  0  0  0  0  0
   39.6300   26.5930   43.8880 N   0  0  0  0  0  0  0  0  0  0  0  0
   40.5090   27.5300   43.4990 C   0  0  0  0  0  0  0  0  0  0  0  0
   39.8990   28.4400   42.6870 N   0  0  0  0  0  0  0  0  0  0  0  0
   35.7700   28.5140   40.2300 C   0  0  0  0  0  0  0  0  0  0  0  0
   36.8030   27.8850   40.9560 C   0  0  0  0  0  0  0  0  0  0  0  0
   37.5600   28.7160   41.8000 C   0  0  0  0  0  0  0  0  0  0  0  0
   37.2520   30.0450   41.8590 N   0  0  0  0  0  0  0  0  0  0  0  0
   36.2490   30.5940   41.1390 C   0  0  0  0  0  0  0  0  0  0  0  0
   35.5130   29.8320   40.3300 N   0  0  0  0  0  0  0  0  0  0  0  0
   40.2008   31.0252   43.6370 H   0  0  0  0  0  0  0  0  0  0  0  0
   41.3452   32.8506   42.4066 H   0  0  0  0  0  0  0  0  0  0  0  0
   41.4653   28.0427   38.6081 H   0  0  0  0  0  0  0  0  0  0  0  0
   45.1096   32.5626   35.6104 H   0  0  0  0  0  0  0  0  0  0  0  0
   44.3780   34.4835   38.6668 H   0  0  0  0  0  0  0  0  0  0  0  0
   45.2415   34.5779   37.1086 H   0  0  0  0  0  0  0  0  0  0  0  0
   37.5161   26.3792   43.4060 H   0  0  0  0  0  0  0  0  0  0  0  0
   41.5686   27.5595   43.7929 H   0  0  0  0  0  0  0  0  0  0  0  0
   35.1504   27.9042   39.5561 H   0  0  0  0  0  0  0  0  0  0  0  0
   37.0044   26.8073   40.8669 H   0  0  0  0  0  0  0  0  0  0  0  0
   36.0396   31.6708   41.2206 H   0  0  0  0  0  0  0  0  0  0  0  0
  1  2  2  0
  1 22  1  0
  3  2  1  0
  4  3  2  0
  5  4  1  0
  5  6  2  0
  6  1  1  0
  7  5  1  0
  8  7  1  0
  9  8  2  0
 10  9  1  0
 10 17  2  0
 11 13  1  0
 11 10  1  0
 12 11  2  0
 13 14  1  0
 14 15  1  0
 14 16  2  0
 17 16  1  0
 17  7  1  0
 18 22  1  0
 18 19  2  0
 19 20  1  0
 21 20  2  0
 22 21  1  0
 23 28  2  0
 23 24  1  0
 24 25  2  0
 25 26  1  0
 25 18  1  0
 27 26  2  0
 28 27  1  0
  2 29  1  0
  3 30  1  0
  8 31  1  0
 13 32  1  0
 15 33  1  0
 15 34  1  0
 19 35  1  0
 21 36  1  0
 23 37  1  0
 24 38  1  0
 27 39  1  0
M  ISO  8  29  14  30  14  31  14  32   9  35  14  36  14  37  14  38  14
M  ISO  1  39  14
M  END
>  <minimizedAffinity>  (1) 
-6.15293646

>  <minimizedRMSD>  (1) 
0.488021076

$$$$
