
     RDKit          3D

 39 42  0  0  0  0  0  0  0  0999 V2000
   38.5070   28.2320   42.5600 C   0  0  0  0  0  0  0  0  0  0  0  0
   38.3480   27.1160   43.3560 C   0  0  0  0  0  0  0  0  0  0  0  0
   39.5230   26.7370   43.8960 N   0  0  0  0  0  0  0  0  0  0  0  0
   40.4230   27.6260   43.4320 C   0  0  0  0  0  0  0  0  0  0  0  0
   39.8180   28.5290   42.6250 N   0  0  0  0  0  0  0  0  0  0  0  0
   40.4610   29.6110   41.9610 C   0  0  0  0  0  0  0  0  0  0  0  0
   41.0660   30.6980   42.5800 C   0  0  0  0  0  0  0  0  0  0  0  0
   41.6590   31.6890   41.8260 C   0  0  0  0  0  0  0  0  0  0  0  0
   41.6370   31.5780   40.4870 N   0  0  0  0  0  0  0  0  0  0  0  0
   41.0540   30.5320   39.8690 C   0  0  0  0  0  0  0  0  0  0  0  0
   40.4820   29.5750   40.5940 N   0  0  0  0  0  0  0  0  0  0  0  0
   41.0810   30.5000   38.4470 N   0  0  0  0  0  0  0  0  0  0  0  0
   41.4190   31.7060   37.7130 C   0  0  0  0  0  0  0  0  0  0  0  0
   42.6070   31.3380   36.8350 C   0  0  0  0  0  0  0  0  0  0  0  0
   42.3630   30.1650   36.0490 N   0  0  0  0  0  0  0  0  0  0  0  0
   42.0070   29.0110   36.8430 C   0  0  0  0  0  0  0  0  0  0  0  0
   40.7790   29.2970   37.7020 C   0  0  0  0  0  0  0  0  0  0  0  0
   35.5230   28.6980   40.4490 C   0  0  0  0  0  0  0  0  0  0  0  0
   36.5560   28.0530   41.1510 C   0  0  0  0  0  0  0  0  0  0  0  0
   37.4540   28.8820   41.8450 C   0  0  0  0  0  0  0  0  0  0  0  0
   37.2670   30.2320   41.7910 N   0  0  0  0  0  0  0  0  0  0  0  0
   36.2490   30.8090   41.0960 C   0  0  0  0  0  0  0  0  0  0  0  0
   35.3880   30.0350   40.4330 N   0  0  0  0  0  0  0  0  0  0  0  0
   37.3896   26.6039   43.5270 H   0  0  0  0  0  0  0  0  0  0  0  0
   41.4960   27.6190   43.6743 H   0  0  0  0  0  0  0  0  0  0  0  0
   41.0720   30.7685   43.6777 H   0  0  0  0  0  0  0  0  0  0  0  0
   42.1397   32.5518   42.3104 H   0  0  0  0  0  0  0  0  0  0  0  0
   40.5694   32.0277   37.0928 H   0  0  0  0  0  0  0  0  0  0  0  0
   41.6590   32.5385   38.3907 H   0  0  0  0  0  0  0  0  0  0  0  0
   42.8199   32.1787   36.1583 H   0  0  0  0  0  0  0  0  0  0  0  0
   43.4601   31.1269   37.4965 H   0  0  0  0  0  0  0  0  0  0  0  0
   41.5918   30.3634   35.3957 H   0  0  0  0  0  0  0  0  0  0  0  0
   41.7886   28.1666   36.1728 H   0  0  0  0  0  0  0  0  0  0  0  0
   42.8502   28.7680   37.5063 H   0  0  0  0  0  0  0  0  0  0  0  0
   39.8960   29.4541   37.0652 H   0  0  0  0  0  0  0  0  0  0  0  0
   40.5534   28.4551   38.3730 H   0  0  0  0  0  0  0  0  0  0  0  0
   34.7984   28.0858   39.8922 H   0  0  0  0  0  0  0  0  0  0  0  0
   36.6562   26.9576   41.1569 H   0  0  0  0  0  0  0  0  0  0  0  0
   36.1372   31.9032   41.0811 H   0  0  0  0  0  0  0  0  0  0  0  0
  1  5  1  0
  1  2  2  0
  2  3  1  0
  4  3  2  0
  5  4  1  0
  6  7  2  0
  6  5  1  0
  8  7  1  0
  9  8  2  0
 10  9  1  0
 10 11  2  0
 11  6  1  0
 12 10  1  0
 13 12  1  0
 14 13  1  0
 15 14  1  0
 15 16  1  0
 16 17  1  0
 17 12  1  0
 18 19  2  0
 19 20  1  0
 20  1  1  0
 21 20  2  0
 22 21  1  0
 23 18  1  0
 23 22  2  0
  2 24  1  0
  4 25  1  0
  7 26  1  0
  8 27  1  0
 13 28  1  0
 13 29  1  0
 14 30  1  0
 14 31  1  0
 15 32  1  0
 16 33  1  0
 16 34  1  0
 17 35  1  0
 17 36  1  0
 18 37  1  0
 19 38  1  0
 22 39  1  0
M  ISO  8  24  14  25  14  26  14  27  14  28  13  29  13  30  13  31  13
M  ISO  8  32   5  33  13  34  13  35  13  36  13  37  14  38  14  39  14
M  END
>  <minimizedAffinity>  (1) 
-5.30962515

>  <minimizedRMSD>  (1) 
0.75423193

$$$$
