
     RDKit          3D

 39 43  0  0  0  0  0  0  0  0999 V2000
   40.5340   29.5990   42.0610 C   0  0  0  0  0  0  0  0  0  0  0  0
   40.7810   30.8050   42.6570 C   0  0  0  0  0  0  0  0  0  0  0  0
   41.3890   31.8080   41.9540 C   0  0  0  0  0  0  0  0  0  0  0  0
   41.7310   31.5940   40.6930 N   0  0  0  0  0  0  0  0  0  0  0  0
   41.5140   30.4340   40.0540 C   0  0  0  0  0  0  0  0  0  0  0  0
   40.9250   29.4990   40.7820 N   0  0  0  0  0  0  0  0  0  0  0  0
   41.8140   29.9970   38.6750 C   0  0  0  0  0  0  0  0  0  0  0  0
   41.0620   29.0730   38.0340 N   0  0  0  0  0  0  0  0  0  0  0  0
   41.2860   28.6430   36.7900 C   0  0  0  0  0  0  0  0  0  0  0  0
   42.3380   29.1480   36.0800 N   0  0  0  0  0  0  0  0  0  0  0  0
   43.1470   30.0750   36.6310 C   0  0  0  0  0  0  0  0  0  0  0  0
   44.2040   30.5750   35.9020 C   0  0  0  0  0  0  0  0  0  0  0  0
   45.0430   31.5250   36.4480 C   0  0  0  0  0  0  0  0  0  0  0  0
   44.7560   31.9290   37.7430 C   0  0  0  0  0  0  0  0  0  0  0  0
   43.6900   31.4020   38.4300 C   0  0  0  0  0  0  0  0  0  0  0  0
   42.8500   30.4660   37.9170 C   0  0  0  0  0  0  0  0  0  0  0  0
   38.6310   28.1060   42.5520 C   0  0  0  0  0  0  0  0  0  0  0  0
   38.4950   26.9550   43.3010 C   0  0  0  0  0  0  0  0  0  0  0  0
   39.6680   26.6070   43.8690 N   0  0  0  0  0  0  0  0  0  0  0  0
   40.5370   27.5540   43.4660 C   0  0  0  0  0  0  0  0  0  0  0  0
   39.9130   28.4640   42.6680 N   0  0  0  0  0  0  0  0  0  0  0  0
   35.7370   28.5130   40.3040 C   0  0  0  0  0  0  0  0  0  0  0  0
   36.7750   27.8910   41.0180 C   0  0  0  0  0  0  0  0  0  0  0  0
   37.5670   28.7370   41.8200 C   0  0  0  0  0  0  0  0  0  0  0  0
   37.2830   30.0750   41.8550 N   0  0  0  0  0  0  0  0  0  0  0  0
   36.2650   30.6300   41.1450 C   0  0  0  0  0  0  0  0  0  0  0  0
   35.4950   29.8310   40.3690 N   0  0  0  0  0  0  0  0  0  0  0  0
   40.4897   30.9686   43.7050 H   0  0  0  0  0  0  0  0  0  0  0  0
   41.5911   32.7791   42.4295 H   0  0  0  0  0  0  0  0  0  0  0  0
   40.6270   27.8862   36.3394 H   0  0  0  0  0  0  0  0  0  0  0  0
   44.3803   30.2145   34.8778 H   0  0  0  0  0  0  0  0  0  0  0  0
   45.8933   31.9392   35.8863 H   0  0  0  0  0  0  0  0  0  0  0  0
   45.3925   32.6838   38.2279 H   0  0  0  0  0  0  0  0  0  0  0  0
   43.5059   31.7583   39.4543 H   0  0  0  0  0  0  0  0  0  0  0  0
   37.5552   26.3957   43.4191 H   0  0  0  0  0  0  0  0  0  0  0  0
   41.6011   27.5875   43.7426 H   0  0  0  0  0  0  0  0  0  0  0  0
   35.0941   27.8916   39.6632 H   0  0  0  0  0  0  0  0  0  0  0  0
   36.9585   26.8083   40.9548 H   0  0  0  0  0  0  0  0  0  0  0  0
   36.0699   31.7112   41.2001 H   0  0  0  0  0  0  0  0  0  0  0  0
  1  2  2  0
  1 21  1  0
  3  2  1  0
  4  3  2  0
  5  4  1  0
  5  6  2  0
  6  1  1  0
  7  5  1  0
  8  7  2  0
  9  8  1  0
 10 11  1  0
 10  9  2  0
 11 16  2  0
 12 13  2  0
 12 11  1  0
 13 14  1  0
 14 15  2  0
 16 15  1  0
 16  7  1  0
 17 21  1  0
 17 18  2  0
 18 19  1  0
 20 19  2  0
 21 20  1  0
 22 27  2  0
 22 23  1  0
 23 24  2  0
 24 25  1  0
 24 17  1  0
 26 25  2  0
 27 26  1  0
  2 28  1  0
  3 29  1  0
  9 30  1  0
 12 31  1  0
 13 32  1  0
 14 33  1  0
 15 34  1  0
 18 35  1  0
 20 36  1  0
 22 37  1  0
 23 38  1  0
 26 39  1  0
M  ISO  8  28  14  29  14  30  14  31  14  32  14  33  14  34  14  35  14
M  ISO  4  36  14  37  14  38  14  39  14
M  END
>  <minimizedAffinity>  (1) 
-5.30736589

>  <minimizedRMSD>  (1) 
0.57445997

$$$$
