
     RDKit          3D

 40 43  0  0  0  0  0  0  0  0999 V2000
   38.5520   28.1970   42.6320 C   0  0  0  0  0  0  0  0  0  0  0  0
   38.3540   27.0810   43.4240 C   0  0  0  0  0  0  0  0  0  0  0  0
   39.5150   26.6700   43.9720 N   0  0  0  0  0  0  0  0  0  0  0  0
   40.4440   27.5380   43.5150 C   0  0  0  0  0  0  0  0  0  0  0  0
   39.8640   28.4650   42.7020 N   0  0  0  0  0  0  0  0  0  0  0  0
   40.5430   29.5250   42.0500 C   0  0  0  0  0  0  0  0  0  0  0  0
   40.9550   30.7060   42.6300 C   0  0  0  0  0  0  0  0  0  0  0  0
   41.6060   31.6690   41.9050 C   0  0  0  0  0  0  0  0  0  0  0  0
   41.8330   31.4280   40.6050 N   0  0  0  0  0  0  0  0  0  0  0  0
   41.4480   30.2850   39.9890 C   0  0  0  0  0  0  0  0  0  0  0  0
   40.8130   29.3660   40.7320 N   0  0  0  0  0  0  0  0  0  0  0  0
   41.7090   30.0660   38.5980 N   0  0  0  0  0  0  0  0  0  0  0  0
   41.7490   31.2470   37.7920 C   0  0  0  0  0  0  0  0  0  0  0  0
   42.5270   31.1100   36.5100 C   0  0  0  0  0  0  0  0  0  0  0  0
   42.8290   29.7120   36.1030 C   0  0  0  0  0  0  0  0  0  0  0  0
   41.8430   28.7030   36.6180 C   0  0  0  0  0  0  0  0  0  0  0  0
   41.9040   28.7270   38.1310 C   0  0  0  0  0  0  0  0  0  0  0  0
   35.5500   28.7390   40.5540 C   0  0  0  0  0  0  0  0  0  0  0  0
   36.5580   28.0850   41.2620 C   0  0  0  0  0  0  0  0  0  0  0  0
   37.5180   28.8840   41.9050 C   0  0  0  0  0  0  0  0  0  0  0  0
   37.4040   30.2270   41.7980 N   0  0  0  0  0  0  0  0  0  0  0  0
   36.4100   30.8330   41.1000 C   0  0  0  0  0  0  0  0  0  0  0  0
   35.4830   30.0820   40.4790 N   0  0  0  0  0  0  0  0  0  0  0  0
   37.3807   26.5944   43.5851 H   0  0  0  0  0  0  0  0  0  0  0  0
   41.5149   27.5016   43.7636 H   0  0  0  0  0  0  0  0  0  0  0  0
   40.7567   30.8788   43.6981 H   0  0  0  0  0  0  0  0  0  0  0  0
   41.9320   32.6093   42.3736 H   0  0  0  0  0  0  0  0  0  0  0  0
   40.7150   31.5226   37.5371 H   0  0  0  0  0  0  0  0  0  0  0  0
   42.2673   32.0120   38.3888 H   0  0  0  0  0  0  0  0  0  0  0  0
   41.9436   31.5810   35.7051 H   0  0  0  0  0  0  0  0  0  0  0  0
   43.4985   31.5946   36.6873 H   0  0  0  0  0  0  0  0  0  0  0  0
   42.8320   29.6640   35.0041 H   0  0  0  0  0  0  0  0  0  0  0  0
   43.8059   29.4559   36.5390 H   0  0  0  0  0  0  0  0  0  0  0  0
   40.8293   28.9641   36.2801 H   0  0  0  0  0  0  0  0  0  0  0  0
   42.0868   27.6994   36.2394 H   0  0  0  0  0  0  0  0  0  0  0  0
   41.1152   28.0782   38.5396 H   0  0  0  0  0  0  0  0  0  0  0  0
   42.8879   28.3639   38.4629 H   0  0  0  0  0  0  0  0  0  0  0  0
   34.7849   28.1385   40.0402 H   0  0  0  0  0  0  0  0  0  0  0  0
   36.5997   26.9871   41.3148 H   0  0  0  0  0  0  0  0  0  0  0  0
   36.3630   31.9305   41.0426 H   0  0  0  0  0  0  0  0  0  0  0  0
  1  5  1  0
  1  2  2  0
  2  3  1  0
  4  3  2  0
  5  4  1  0
  6  7  2  0
  6  5  1  0
  8  7  1  0
  9  8  2  0
 10  9  1  0
 10 11  2  0
 11  6  1  0
 12 10  1  0
 13 12  1  0
 14 13  1  0
 15 14  1  0
 15 16  1  0
 16 17  1  0
 17 12  1  0
 18 19  2  0
 19 20  1  0
 20  1  1  0
 21 20  2  0
 22 21  1  0
 23 18  1  0
 23 22  2  0
  2 24  1  0
  4 25  1  0
  7 26  1  0
  8 27  1  0
 13 28  1  0
 13 29  1  0
 14 30  1  0
 14 31  1  0
 15 32  1  0
 15 33  1  0
 16 34  1  0
 16 35  1  0
 17 36  1  0
 17 37  1  0
 18 38  1  0
 19 39  1  0
 22 40  1  0
M  ISO  8  24  14  25  14  26  14  27  14  28  13  29  13  30  13  31  13
M  ISO  8  32  13  33  13  34  13  35  13  36  13  37  13  38  14  39  14
M  ISO  1  40  14
M  END
>  <minimizedAffinity>  (1) 
-5.15266323

>  <minimizedRMSD>  (1) 
0.228103459

$$$$
