
     RDKit          3D

 38 41  0  0  0  0  0  0  0  0999 V2000
   38.5180   28.2200   42.5610 C   0  0  0  0  0  0  0  0  0  0  0  0
   38.3550   27.0870   43.3370 C   0  0  0  0  0  0  0  0  0  0  0  0
   39.5230   26.6940   43.8890 N   0  0  0  0  0  0  0  0  0  0  0  0
   40.4240   27.5970   43.4500 C   0  0  0  0  0  0  0  0  0  0  0  0
   39.8310   28.5170   42.6510 N   0  0  0  0  0  0  0  0  0  0  0  0
   40.4830   29.6120   42.0160 C   0  0  0  0  0  0  0  0  0  0  0  0
   40.9240   30.7590   42.6250 C   0  0  0  0  0  0  0  0  0  0  0  0
   41.5420   31.7580   41.9140 C   0  0  0  0  0  0  0  0  0  0  0  0
   41.7060   31.5870   40.6020 N   0  0  0  0  0  0  0  0  0  0  0  0
   41.2850   30.4720   39.9650 C   0  0  0  0  0  0  0  0  0  0  0  0
   40.6840   29.5070   40.6730 N   0  0  0  0  0  0  0  0  0  0  0  0
   41.4610   30.2900   38.5640 N   0  0  0  0  0  0  0  0  0  0  0  0
   41.9410   29.0390   38.0050 C   0  0  0  0  0  0  0  0  0  0  0  0
   42.0390   29.2190   36.4960 C   0  0  0  0  0  0  0  0  0  0  0  0
   42.8210   30.3100   36.1870 O   0  0  0  0  0  0  0  0  0  0  0  0
   42.3770   31.4930   36.7210 C   0  0  0  0  0  0  0  0  0  0  0  0
   41.1670   31.3530   37.6210 C   0  0  0  0  0  0  0  0  0  0  0  0
   35.5350   28.7130   40.4560 C   0  0  0  0  0  0  0  0  0  0  0  0
   36.5590   28.0760   41.1570 C   0  0  0  0  0  0  0  0  0  0  0  0
   37.4760   28.8790   41.8470 C   0  0  0  0  0  0  0  0  0  0  0  0
   37.3120   30.2310   41.7920 N   0  0  0  0  0  0  0  0  0  0  0  0
   36.2920   30.8140   41.0900 C   0  0  0  0  0  0  0  0  0  0  0  0
   35.4150   30.0440   40.4310 N   0  0  0  0  0  0  0  0  0  0  0  0
   37.3950   26.5710   43.4858 H   0  0  0  0  0  0  0  0  0  0  0  0
   41.4938   27.5878   43.7057 H   0  0  0  0  0  0  0  0  0  0  0  0
   40.7792   30.8815   43.7085 H   0  0  0  0  0  0  0  0  0  0  0  0
   41.8920   32.6737   42.4129 H   0  0  0  0  0  0  0  0  0  0  0  0
   42.9310   28.7979   38.4195 H   0  0  0  0  0  0  0  0  0  0  0  0
   41.2550   28.2156   38.2530 H   0  0  0  0  0  0  0  0  0  0  0  0
   42.4859   28.3169   36.0527 H   0  0  0  0  0  0  0  0  0  0  0  0
   41.0288   29.3814   36.0922 H   0  0  0  0  0  0  0  0  0  0  0  0
   43.1950   31.9345   37.3091 H   0  0  0  0  0  0  0  0  0  0  0  0
   42.0701   32.1259   35.8753 H   0  0  0  0  0  0  0  0  0  0  0  0
   40.9848   32.2953   38.1585 H   0  0  0  0  0  0  0  0  0  0  0  0
   40.2661   31.1197   37.0345 H   0  0  0  0  0  0  0  0  0  0  0  0
   34.8039   28.1013   39.9070 H   0  0  0  0  0  0  0  0  0  0  0  0
   36.6435   26.9793   41.1676 H   0  0  0  0  0  0  0  0  0  0  0  0
   36.1925   31.9092   41.0668 H   0  0  0  0  0  0  0  0  0  0  0  0
  1  5  1  0
  1  2  2  0
  2  3  1  0
  4  3  2  0
  5  4  1  0
  6  7  2  0
  6  5  1  0
  8  7  1  0
  9  8  2  0
 10  9  1  0
 10 11  2  0
 11  6  1  0
 12 10  1  0
 13 12  1  0
 14 13  1  0
 15 14  1  0
 15 16  1  0
 16 17  1  0
 17 12  1  0
 18 19  2  0
 19 20  1  0
 20  1  1  0
 21 20  2  0
 22 21  1  0
 23 18  1  0
 23 22  2  0
  2 24  1  0
  4 25  1  0
  7 26  1  0
  8 27  1  0
 13 28  1  0
 13 29  1  0
 14 30  1  0
 14 31  1  0
 16 32  1  0
 16 33  1  0
 17 34  1  0
 17 35  1  0
 18 36  1  0
 19 37  1  0
 22 38  1  0
M  ISO  8  24  14  25  14  26  14  27  14  28  13  29  13  30  13  31  13
M  ISO  7  32  13  33  13  34  13  35  13  36  14  37  14  38  14
M  END
>  <minimizedAffinity>  (1) 
-5.14405298

>  <minimizedRMSD>  (1) 
0.448043466

$$$$
