
     RDKit          3D

 32 34  0  0  0  0  0  0  0  0999 V2000
   38.5550   28.1650   42.6100 C   0  0  0  0  0  0  0  0  0  0  0  0
   38.3700   27.1050   43.4680 C   0  0  0  0  0  0  0  0  0  0  0  0
   39.5430   26.7120   44.0080 N   0  0  0  0  0  0  0  0  0  0  0  0
   40.4590   27.5440   43.4720 C   0  0  0  0  0  0  0  0  0  0  0  0
   39.8800   28.4280   42.6250 N   0  0  0  0  0  0  0  0  0  0  0  0
   40.5440   29.4450   41.8890 C   0  0  0  0  0  0  0  0  0  0  0  0
   40.8090   30.7200   42.3360 C   0  0  0  0  0  0  0  0  0  0  0  0
   41.4670   31.6270   41.5190 C   0  0  0  0  0  0  0  0  0  0  0  0
   41.8310   31.2220   40.2940 N   0  0  0  0  0  0  0  0  0  0  0  0
   41.5840   29.9840   39.8380 C   0  0  0  0  0  0  0  0  0  0  0  0
   40.9480   29.1190   40.6350 N   0  0  0  0  0  0  0  0  0  0  0  0
   41.9870   29.5990   38.5300 N   0  0  0  0  0  0  0  0  0  0  0  0
   41.4930   30.2930   37.3980 C   0  0  0  0  0  0  0  0  0  0  0  0
   40.3330   30.8360   37.4320 N   0  0  0  0  0  0  0  0  0  0  0  0
   42.2750   30.3940   36.2160 N   0  0  0  0  0  0  0  0  0  0  0  0
   39.8940   31.3590   36.6610 H   0  0  0  0  0  0  0  0  0  0  0  0
   35.6070   28.6230   40.4290 C   0  0  0  0  0  0  0  0  0  0  0  0
   36.6310   27.9780   41.1470 C   0  0  0  0  0  0  0  0  0  0  0  0
   37.5030   28.8190   41.8720 C   0  0  0  0  0  0  0  0  0  0  0  0
   37.3010   30.1650   41.8320 N   0  0  0  0  0  0  0  0  0  0  0  0
   36.2880   30.7300   41.1180 C   0  0  0  0  0  0  0  0  0  0  0  0
   35.4510   29.9510   40.4220 N   0  0  0  0  0  0  0  0  0  0  0  0
   37.3968   26.6404   43.6847 H   0  0  0  0  0  0  0  0  0  0  0  0
   41.5358   27.5092   43.6938 H   0  0  0  0  0  0  0  0  0  0  0  0
   40.4970   31.0209   43.3470 H   0  0  0  0  0  0  0  0  0  0  0  0
   41.6838   32.6482   41.8657 H   0  0  0  0  0  0  0  0  0  0  0  0
   42.6405   28.8127   38.4050 H   0  0  0  0  0  0  0  0  0  0  0  0
   43.2089   29.9612   36.1778 H   0  0  0  0  0  0  0  0  0  0  0  0
   41.9080   30.9000   35.3974 H   0  0  0  0  0  0  0  0  0  0  0  0
   34.9041   28.0078   39.8481 H   0  0  0  0  0  0  0  0  0  0  0  0
   36.7452   26.8840   41.1436 H   0  0  0  0  0  0  0  0  0  0  0  0
   36.1582   31.8223   41.1133 H   0  0  0  0  0  0  0  0  0  0  0  0
  1  5  1  0
  1  2  2  0
  2  3  1  0
  4  3  2  0
  5  4  1  0
  6  7  2  0
  6  5  1  0
  8  7  1  0
  9  8  2  0
 10  9  1  0
 10 11  2  0
 11  6  1  0
 12 10  1  0
 13 14  2  0
 13 12  1  0
 15 13  1  0
 16 14  1  0
 17 18  2  0
 18 19  1  0
 19  1  1  0
 20 19  2  0
 21 20  1  0
 22 17  1  0
 22 21  2  0
  2 23  1  0
  4 24  1  0
  7 25  1  0
  8 26  1  0
 12 27  1  0
 15 28  1  0
 15 29  1  0
 17 30  1  0
 18 31  1  0
 21 32  1  0
M  ISO  7  23  14  24  14  25  14  26  14  30  14  31  14  32  14
M  END
>  <minimizedAffinity>  (1) 
-4.99806643

>  <minimizedRMSD>  (1) 
0.23935388

$$$$
