
     RDKit          3D

 34 37  0  0  0  0  0  0  0  0999 V2000
   38.5480   28.2210   42.5580 C   0  0  0  0  0  0  0  0  0  0  0  0
   38.3600   27.0910   43.3520 C   0  0  0  0  0  0  0  0  0  0  0  0
   39.5250   26.6970   43.9020 N   0  0  0  0  0  0  0  0  0  0  0  0
   40.4480   27.5780   43.4550 C   0  0  0  0  0  0  0  0  0  0  0  0
   39.8670   28.4950   42.6470 N   0  0  0  0  0  0  0  0  0  0  0  0
   35.5900   28.7300   40.4220 C   0  0  0  0  0  0  0  0  0  0  0  0
   36.6060   28.0670   41.1290 C   0  0  0  0  0  0  0  0  0  0  0  0
   37.5070   28.8880   41.8330 C   0  0  0  0  0  0  0  0  0  0  0  0
   37.3460   30.2280   41.7870 N   0  0  0  0  0  0  0  0  0  0  0  0
   36.3440   30.8350   41.0880 C   0  0  0  0  0  0  0  0  0  0  0  0
   35.4700   30.0670   40.4060 N   0  0  0  0  0  0  0  0  0  0  0  0
   40.5320   29.5730   41.9970 C   0  0  0  0  0  0  0  0  0  0  0  0
   40.8430   30.7880   42.5640 C   0  0  0  0  0  0  0  0  0  0  0  0
   41.4890   31.7660   41.8480 C   0  0  0  0  0  0  0  0  0  0  0  0
   41.8090   31.5010   40.5790 N   0  0  0  0  0  0  0  0  0  0  0  0
   41.5220   30.3260   39.9880 C   0  0  0  0  0  0  0  0  0  0  0  0
   40.8910   29.3760   40.6930 N   0  0  0  0  0  0  0  0  0  0  0  0
   41.9130   30.1210   38.5790 C   0  0  0  0  0  0  0  0  0  0  0  0
   41.6230   28.9030   37.9920 C   0  0  0  0  0  0  0  0  0  0  0  0
   42.0030   28.7420   36.6660 C   0  0  0  0  0  0  0  0  0  0  0  0
   42.6330   29.8180   36.0750 C   0  0  0  0  0  0  0  0  0  0  0  0
   42.9250   31.0400   36.6610 C   0  0  0  0  0  0  0  0  0  0  0  0
   42.5300   31.1470   37.9650 N   0  0  0  0  0  0  0  0  0  0  0  0
   37.3933   26.5898   43.5081 H   0  0  0  0  0  0  0  0  0  0  0  0
   41.5174   27.5530   43.7113 H   0  0  0  0  0  0  0  0  0  0  0  0
   34.8620   28.1287   39.8577 H   0  0  0  0  0  0  0  0  0  0  0  0
   36.6927   26.9704   41.1325 H   0  0  0  0  0  0  0  0  0  0  0  0
   36.2506   31.9310   41.0808 H   0  0  0  0  0  0  0  0  0  0  0  0
   40.5686   30.9796   43.6118 H   0  0  0  0  0  0  0  0  0  0  0  0
   41.7347   32.7359   42.3050 H   0  0  0  0  0  0  0  0  0  0  0  0
   41.1160   28.1008   38.5482 H   0  0  0  0  0  0  0  0  0  0  0  0
   41.8123   27.8081   36.1170 H   0  0  0  0  0  0  0  0  0  0  0  0
   42.9364   29.6926   35.0251 H   0  0  0  0  0  0  0  0  0  0  0  0
   43.4316   31.8543   36.1222 H   0  0  0  0  0  0  0  0  0  0  0  0
  1  5  1  0
  1  2  2  0
  2  3  1  0
  4  3  2  0
  5  4  1  0
  6  7  2  0
  7  8  1  0
  8  1  1  0
  9  8  2  0
 10  9  1  0
 11  6  1  0
 11 10  2  0
 12 13  2  0
 12  5  1  0
 14 13  1  0
 15 14  2  0
 16 15  1  0
 16 17  2  0
 17 12  1  0
 18 16  1  0
 19 18  2  0
 20 19  1  0
 21 22  1  0
 21 20  2  0
 22 23  2  0
 23 18  1  0
  2 24  1  0
  4 25  1  0
  6 26  1  0
  7 27  1  0
 10 28  1  0
 13 29  1  0
 14 30  1  0
 19 31  1  0
 20 32  1  0
 21 33  1  0
 22 34  1  0
M  ISO  8  24  14  25  14  26  14  27  14  28  14  29  14  30  14  31  14
M  ISO  3  32  14  33  14  34  14
M  END
>  <minimizedAffinity>  (1) 
-4.8746419

>  <minimizedRMSD>  (1) 
0.198069602

$$$$
