
     RDKit          3D

 30 33  0  0  0  0  0  0  0  0999 V2000
   38.5400   28.2200   42.5810 C   0  0  0  0  0  0  0  0  0  0  0  0
   38.3520   27.1110   43.3720 C   0  0  0  0  0  0  0  0  0  0  0  0
   39.5170   26.7070   43.9170 N   0  0  0  0  0  0  0  0  0  0  0  0
   40.4310   27.5790   43.4560 C   0  0  0  0  0  0  0  0  0  0  0  0
   39.8560   28.4960   42.6490 N   0  0  0  0  0  0  0  0  0  0  0  0
   35.5660   28.7250   40.4400 C   0  0  0  0  0  0  0  0  0  0  0  0
   36.5870   28.0810   41.1520 C   0  0  0  0  0  0  0  0  0  0  0  0
   37.5010   28.8970   41.8570 C   0  0  0  0  0  0  0  0  0  0  0  0
   37.3370   30.2350   41.8020 N   0  0  0  0  0  0  0  0  0  0  0  0
   36.3280   30.8220   41.0970 C   0  0  0  0  0  0  0  0  0  0  0  0
   35.4560   30.0640   40.4240 N   0  0  0  0  0  0  0  0  0  0  0  0
   40.5190   29.5680   41.9870 C   0  0  0  0  0  0  0  0  0  0  0  0
   40.9010   30.7600   42.5780 C   0  0  0  0  0  0  0  0  0  0  0  0
   41.5420   31.7290   41.8280 C   0  0  0  0  0  0  0  0  0  0  0  0
   41.7810   31.4860   40.5320 N   0  0  0  0  0  0  0  0  0  0  0  0
   41.4160   30.3320   39.9440 C   0  0  0  0  0  0  0  0  0  0  0  0
   40.7980   29.4010   40.6690 N   0  0  0  0  0  0  0  0  0  0  0  0
   41.6980   30.1160   38.5300 C   0  0  0  0  0  0  0  0  0  0  0  0
   41.2400   29.1180   37.7610 N   0  0  0  0  0  0  0  0  0  0  0  0
   41.7250   29.2920   36.5700 O   0  0  0  0  0  0  0  0  0  0  0  0
   42.4860   30.3570   36.5030 C   0  0  0  0  0  0  0  0  0  0  0  0
   42.4800   30.8980   37.7500 N   0  0  0  0  0  0  0  0  0  0  0  0
   37.3818   26.6197   43.5377 H   0  0  0  0  0  0  0  0  0  0  0  0
   41.5025   27.5492   43.7031 H   0  0  0  0  0  0  0  0  0  0  0  0
   34.8373   28.1198   39.8809 H   0  0  0  0  0  0  0  0  0  0  0  0
   36.6737   26.9845   41.1618 H   0  0  0  0  0  0  0  0  0  0  0  0
   36.2316   31.9177   41.0820 H   0  0  0  0  0  0  0  0  0  0  0  0
   40.6947   30.9364   43.6440 H   0  0  0  0  0  0  0  0  0  0  0  0
   41.8496   32.6805   42.2862 H   0  0  0  0  0  0  0  0  0  0  0  0
   43.0200   30.7354   35.6189 H   0  0  0  0  0  0  0  0  0  0  0  0
  1  5  1  0
  1  2  2  0
  2  3  1  0
  4  3  2  0
  5  4  1  0
  6  7  2  0
  7  8  1  0
  8  1  1  0
  9  8  2  0
 10  9  1  0
 11  6  1  0
 11 10  2  0
 12 13  2  0
 12  5  1  0
 14 13  1  0
 15 14  2  0
 16 15  1  0
 16 17  2  0
 17 12  1  0
 18 16  1  0
 19 18  2  0
 20 19  1  0
 21 20  1  0
 21 22  2  0
 22 18  1  0
  2 23  1  0
  4 24  1  0
  6 25  1  0
  7 26  1  0
 10 27  1  0
 13 28  1  0
 14 29  1  0
 21 30  1  0
M  ISO  8  23  14  24  14  25  14  26  14  27  14  28  14  29  14  30  14
M  END
>  <minimizedAffinity>  (1) 
-4.60020494

>  <minimizedRMSD>  (1) 
0.247563899

$$$$
