
     RDKit          3D

 28 30  0  0  0  0  0  0  0  0999 V2000
   38.6130   28.3080   42.4990 C   0  0  0  0  0  0  0  0  0  0  0  0
   38.5060   27.2510   43.3810 C   0  0  0  0  0  0  0  0  0  0  0  0
   39.7140   26.9110   43.8730 N   0  0  0  0  0  0  0  0  0  0  0  0
   40.5800   27.7610   43.2920 C   0  0  0  0  0  0  0  0  0  0  0  0
   39.9250   28.6090   42.4610 N   0  0  0  0  0  0  0  0  0  0  0  0
   35.5540   28.6280   40.4690 C   0  0  0  0  0  0  0  0  0  0  0  0
   36.6240   28.0370   41.1440 C   0  0  0  0  0  0  0  0  0  0  0  0
   37.5100   28.9100   41.8030 C   0  0  0  0  0  0  0  0  0  0  0  0
   37.2740   30.2490   41.7440 N   0  0  0  0  0  0  0  0  0  0  0  0
   36.2140   30.7870   41.0720 C   0  0  0  0  0  0  0  0  0  0  0  0
   35.3570   29.9590   40.4360 N   0  0  0  0  0  0  0  0  0  0  0  0
   40.5210   29.6370   41.6830 C   0  0  0  0  0  0  0  0  0  0  0  0
   40.9830   30.8440   42.1480 C   0  0  0  0  0  0  0  0  0  0  0  0
   41.5450   31.7670   41.3000 C   0  0  0  0  0  0  0  0  0  0  0  0
   41.6380   31.4780   40.0090 N   0  0  0  0  0  0  0  0  0  0  0  0
   41.1950   30.2940   39.5020 C   0  0  0  0  0  0  0  0  0  0  0  0
   40.6490   29.4080   40.3500 N   0  0  0  0  0  0  0  0  0  0  0  0
   41.2850   29.9540   38.1020 C   0  0  0  0  0  0  0  0  0  0  0  0
   41.8120   28.9440   37.6090 O   0  0  0  0  0  0  0  0  0  0  0  0
   40.7280   30.8440   37.1930 O   0  0  0  0  0  0  0  0  0  0  0  0
   37.5617   26.7532   43.6465 H   0  0  0  0  0  0  0  0  0  0  0  0
   41.6661   27.7672   43.4665 H   0  0  0  0  0  0  0  0  0  0  0  0
   34.8411   27.9774   39.9413 H   0  0  0  0  0  0  0  0  0  0  0  0
   36.7670   26.9465   41.1599 H   0  0  0  0  0  0  0  0  0  0  0  0
   36.0606   31.8760   41.0490 H   0  0  0  0  0  0  0  0  0  0  0  0
   40.9014   31.0760   43.2202 H   0  0  0  0  0  0  0  0  0  0  0  0
   41.9118   32.7298   41.6853 H   0  0  0  0  0  0  0  0  0  0  0  0
   40.7672   30.6502   36.2230 H   0  0  0  0  0  0  0  0  0  0  0  0
  1  2  2  0
  2  3  1  0
  4  3  2  0
  5  1  1  0
  5  4  1  0
  6  7  2  0
  7  8  1  0
  8  1  1  0
  9  8  2  0
 10  9  1  0
 11  6  1  0
 11 10  2  0
 12 13  2  0
 12  5  1  0
 14 13  1  0
 15 14  2  0
 16 15  1  0
 16 17  2  0
 17 12  1  0
 18 16  1  0
 19 18  2  0
 20 18  1  0
  2 21  1  0
  4 22  1  0
  6 23  1  0
  7 24  1  0
 10 25  1  0
 13 26  1  0
 14 27  1  0
 20 28  1  0
M  ISO  8  21  14  22  14  23  14  24  14  25  14  26  14  27  14  28   3
M  END
>  <minimizedAffinity>  (1) 
-4.2777977

>  <minimizedRMSD>  (1) 
0.500616252

$$$$
