
     RDKit          3D

 28 30  0  0  0  0  0  0  0  0999 V2000
   37.1060   29.9060   40.1450 C   0  0  0  0  0  0  0  0  0  0  0  0
   37.4020   31.2550   40.0660 C   0  0  0  0  0  0  0  0  0  0  0  0
   37.3090   31.8530   38.8320 C   0  0  0  0  0  0  0  0  0  0  0  0
   36.9420   31.1700   37.7200 N   0  0  0  0  0  0  0  0  0  0  0  0
   36.6550   29.8460   37.8300 C   0  0  0  0  0  0  0  0  0  0  0  0
   36.7390   29.2210   39.0400 N   0  0  0  0  0  0  0  0  0  0  0  0
   36.2730   29.1570   36.6430 N   0  0  0  0  0  0  0  0  0  0  0  0
   34.9880   29.1830   36.1830 C   0  0  0  0  0  0  0  0  0  0  0  0
   34.6740   28.4910   35.0160 C   0  0  0  0  0  0  0  0  0  0  0  0
   35.6480   27.7890   34.3360 C   0  0  0  0  0  0  0  0  0  0  0  0
   35.3450   27.1660   33.2800 O   0  0  0  0  0  0  0  0  0  0  0  0
   36.9090   27.8030   34.8490 N   0  0  0  0  0  0  0  0  0  0  0  0
   37.2260   28.4690   35.9760 C   0  0  0  0  0  0  0  0  0  0  0  0
   38.4300   28.3970   36.3360 O   0  0  0  0  0  0  0  0  0  0  0  0
   38.1620   28.9930   43.5350 C   0  0  0  0  0  0  0  0  0  0  0  0
   37.3190   27.8710   43.8140 C   0  0  0  0  0  0  0  0  0  0  0  0
   36.4230   27.4710   42.8350 C   0  0  0  0  0  0  0  0  0  0  0  0
   36.3800   28.1580   41.6510 N   0  0  0  0  0  0  0  0  0  0  0  0
   37.1820   29.2060   41.4140 C   0  0  0  0  0  0  0  0  0  0  0  0
   38.0630   29.6180   42.3450 N   0  0  0  0  0  0  0  0  0  0  0  0
   37.7004   31.8272   40.9568 H   0  0  0  0  0  0  0  0  0  0  0  0
   37.5408   32.9247   38.7435 H   0  0  0  0  0  0  0  0  0  0  0  0
   34.2120   29.7423   36.7261 H   0  0  0  0  0  0  0  0  0  0  0  0
   33.6426   28.5041   34.6338 H   0  0  0  0  0  0  0  0  0  0  0  0
   37.6496   27.2840   34.3560 H   0  0  0  0  0  0  0  0  0  0  0  0
   38.8855   29.3428   44.2861 H   0  0  0  0  0  0  0  0  0  0  0  0
   37.3802   27.3418   44.7764 H   0  0  0  0  0  0  0  0  0  0  0  0
   35.7557   26.6136   43.0067 H   0  0  0  0  0  0  0  0  0  0  0  0
  1 19  1  0
  2  1  2  0
  3  2  1  0
  4  5  1  0
  4  3  2  0
  5  6  2  0
  6  1  1  0
  7  5  1  0
  8  7  1  0
  9  8  2  0
 10 12  1  0
 10  9  1  0
 11 10  2  0
 12 13  1  0
 13 14  2  0
 13  7  1  0
 15 16  2  0
 17 16  1  0
 18 17  2  0
 19 18  1  0
 19 20  2  0
 20 15  1  0
  2 21  1  0
  3 22  1  0
  8 23  1  0
  9 24  1  0
 12 25  1  0
 15 26  1  0
 16 27  1  0
 17 28  1  0
M  ISO  8  21  14  22  14  23  14  24  14  25   9  26  14  27  14  28  14
M  END
>  <minimizedAffinity>  (1) 
-4.96439981

>  <minimizedRMSD>  (1) 
1.73005021

$$$$
