
     RDKit          3D

 33 35  0  0  0  0  0  0  0  0999 V2000
   37.5490   29.9980   40.7250 C   0  0  0  0  0  0  0  0  0  0  0  0
   37.7860   31.3510   40.8720 C   0  0  0  0  0  0  0  0  0  0  0  0
   37.4540   32.1650   39.8070 C   0  0  0  0  0  0  0  0  0  0  0  0
   36.9160   31.6640   38.6590 N   0  0  0  0  0  0  0  0  0  0  0  0
   36.7010   30.3330   38.5550 C   0  0  0  0  0  0  0  0  0  0  0  0
   37.0220   29.5180   39.5920 N   0  0  0  0  0  0  0  0  0  0  0  0
   36.1460   29.8240   37.3650 N   0  0  0  0  0  0  0  0  0  0  0  0
   34.9060   29.1180   37.3680 C   0  0  0  0  0  0  0  0  0  0  0  0
   34.2530   29.0140   36.0240 C   0  0  0  0  0  0  0  0  0  0  0  0
   35.1980   28.6490   34.9170 C   0  0  0  0  0  0  0  0  0  0  0  0
   36.6460   28.7200   35.3340 C   0  0  0  0  0  0  0  0  0  0  0  0
   36.8440   30.0160   36.0940 C   0  0  0  0  0  0  0  0  0  0  0  0
   39.4910   27.9880   43.1070 C   0  0  0  0  0  0  0  0  0  0  0  0
   38.4860   27.3160   43.8390 C   0  0  0  0  0  0  0  0  0  0  0  0
   37.1680   27.5720   43.4940 C   0  0  0  0  0  0  0  0  0  0  0  0
   36.8900   28.4470   42.4780 N   0  0  0  0  0  0  0  0  0  0  0  0
   37.8730   29.0720   41.8000 C   0  0  0  0  0  0  0  0  0  0  0  0
   39.1660   28.8380   42.1200 N   0  0  0  0  0  0  0  0  0  0  0  0
   38.2197   31.7615   41.7958 H   0  0  0  0  0  0  0  0  0  0  0  0
   37.6286   33.2481   39.8873 H   0  0  0  0  0  0  0  0  0  0  0  0
   35.0901   28.0998   37.7413 H   0  0  0  0  0  0  0  0  0  0  0  0
   34.2190   29.6904   38.0087 H   0  0  0  0  0  0  0  0  0  0  0  0
   33.4689   28.2444   36.0782 H   0  0  0  0  0  0  0  0  0  0  0  0
   33.8507   30.0097   35.7859 H   0  0  0  0  0  0  0  0  0  0  0  0
   35.0400   29.3423   34.0778 H   0  0  0  0  0  0  0  0  0  0  0  0
   34.9870   27.6075   34.6328 H   0  0  0  0  0  0  0  0  0  0  0  0
   36.8918   27.8650   35.9810 H   0  0  0  0  0  0  0  0  0  0  0  0
   37.3028   28.6865   34.4522 H   0  0  0  0  0  0  0  0  0  0  0  0
   37.9143   30.2031   36.2658 H   0  0  0  0  0  0  0  0  0  0  0  0
   36.4565   30.8826   35.5382 H   0  0  0  0  0  0  0  0  0  0  0  0
   40.5498   27.8129   43.3483 H   0  0  0  0  0  0  0  0  0  0  0  0
   38.7395   26.6176   44.6502 H   0  0  0  0  0  0  0  0  0  0  0  0
   36.3490   27.0744   44.0341 H   0  0  0  0  0  0  0  0  0  0  0  0
  1  2  2  0
  1 17  1  0
  3  2  1  0
  4  3  2  0
  5  4  1  0
  5  6  2  0
  6  1  1  0
  7  8  1  0
  7  5  1  0
  9  8  1  0
 10 11  1  0
 10  9  1  0
 11 12  1  0
 12  7  1  0
 13 14  2  0
 15 14  1  0
 16 15  2  0
 17 18  2  0
 17 16  1  0
 18 13  1  0
  2 19  1  0
  3 20  1  0
  8 21  1  0
  8 22  1  0
  9 23  1  0
  9 24  1  0
 10 25  1  0
 10 26  1  0
 11 27  1  0
 11 28  1  0
 12 29  1  0
 12 30  1  0
 13 31  1  0
 14 32  1  0
 15 33  1  0
M  ISO  8  19  14  20  14  21  13  22  13  23  13  24  13  25  13  26  13
M  ISO  7  27  13  28  13  29  13  30  13  31  14  32  14  33  14
M  END
>  <minimizedAffinity>  (1) 
-4.62228727

>  <minimizedRMSD>  (1) 
1.75298691

$$$$
