
     RDKit          3D

 25 27  0  0  0  0  0  0  0  0999 V2000
   37.1680   30.2330   40.2000 C   0  0  0  0  0  0  0  0  0  0  0  0
   37.3270   31.6040   40.2860 C   0  0  0  0  0  0  0  0  0  0  0  0
   37.2810   32.3070   39.0930 C   0  0  0  0  0  0  0  0  0  0  0  0
   37.0900   31.6950   37.8960 N   0  0  0  0  0  0  0  0  0  0  0  0
   36.9400   30.3500   37.8630 C   0  0  0  0  0  0  0  0  0  0  0  0
   36.9770   29.6220   39.0040 N   0  0  0  0  0  0  0  0  0  0  0  0
   38.1100   28.9930   43.5250 C   0  0  0  0  0  0  0  0  0  0  0  0
   37.2400   27.8680   43.6800 C   0  0  0  0  0  0  0  0  0  0  0  0
   36.3660   27.5780   42.6450 C   0  0  0  0  0  0  0  0  0  0  0  0
   36.3700   28.3660   41.5320 N   0  0  0  0  0  0  0  0  0  0  0  0
   37.2040   29.4240   41.4110 C   0  0  0  0  0  0  0  0  0  0  0  0
   38.0500   29.7160   42.3990 N   0  0  0  0  0  0  0  0  0  0  0  0
   36.7340   29.6720   36.5950 C   0  0  0  0  0  0  0  0  0  0  0  0
   36.3800   28.3660   36.4050 C   0  0  0  0  0  0  0  0  0  0  0  0
   36.2940   28.1400   35.0640 N   0  0  0  0  0  0  0  0  0  0  0  0
   36.5960   29.3060   34.4300 C   0  0  0  0  0  0  0  0  0  0  0  0
   36.8570   30.2120   35.3690 N   0  0  0  0  0  0  0  0  0  0  0  0
   37.4818   32.1097   41.2505 H   0  0  0  0  0  0  0  0  0  0  0  0
   37.4036   33.3999   39.1163 H   0  0  0  0  0  0  0  0  0  0  0  0
   38.8200   29.2612   44.3212 H   0  0  0  0  0  0  0  0  0  0  0  0
   37.2642   27.2530   44.5917 H   0  0  0  0  0  0  0  0  0  0  0  0
   35.6777   26.7232   42.7200 H   0  0  0  0  0  0  0  0  0  0  0  0
   36.1963   27.6254   37.1973 H   0  0  0  0  0  0  0  0  0  0  0  0
   36.6199   29.4692   33.3424 H   0  0  0  0  0  0  0  0  0  0  0  0
   37.1172   31.1911   35.1829 H   0  0  0  0  0  0  0  0  0  0  0  0
  1  2  2  0
  1 11  1  0
  3  2  1  0
  4  3  2  0
  5  4  1  0
  5  6  2  0
  6  1  1  0
  7  8  2  0
  9  8  1  0
 10  9  2  0
 11 10  1  0
 11 12  2  0
 12  7  1  0
 13  5  1  0
 14 13  2  0
 15 14  1  0
 16 15  2  0
 16 17  1  0
 17 13  1  0
  2 18  1  0
  3 19  1  0
  7 20  1  0
  8 21  1  0
  9 22  1  0
 14 23  1  0
 16 24  1  0
 17 25  1  0
M  ISO  8  18  14  19  14  20  14  21  14  22  14  23  14  24  14  25   9
M  END
>  <minimizedAffinity>  (1) 
-4.43749142

>  <minimizedRMSD>  (1) 
0.887646794

$$$$
