
     RDKit          3D

 24 25  0  0  0  0  0  0  0  0999 V2000
   38.7740   29.7650   42.4310 C   0  0  0  0  0  0  0  0  0  0  0  0
   38.1240   29.4740   41.1880 C   0  0  0  0  0  0  0  0  0  0  0  0
   37.9450   28.1220   40.9300 C   0  0  0  0  0  0  0  0  0  0  0  0
   38.3790   27.1880   41.8310 N   0  0  0  0  0  0  0  0  0  0  0  0
   38.9820   27.5190   42.9800 C   0  0  0  0  0  0  0  0  0  0  0  0
   39.1690   28.8020   43.2600 N   0  0  0  0  0  0  0  0  0  0  0  0
   37.7200   30.5370   40.3380 N   0  0  0  0  0  0  0  0  0  0  0  0
   36.6970   31.4650   40.6620 C   0  0  0  0  0  0  0  0  0  0  0  0
   35.6410   30.9670   41.2700 N   0  0  0  0  0  0  0  0  0  0  0  0
   36.9480   32.8320   40.2820 N   0  0  0  0  0  0  0  0  0  0  0  0
   34.8570   31.5710   41.5530 H   0  0  0  0  0  0  0  0  0  0  0  0
   39.4500   26.5000   43.9540 C   0  0  0  0  0  0  0  0  0  0  0  0
   40.9760   26.3680   43.9220 C   0  0  0  0  0  0  0  0  0  0  0  0
   40.0460   25.2280   43.5250 C   0  0  0  0  0  0  0  0  0  0  0  0
   38.9517   30.8146   42.7081 H   0  0  0  0  0  0  0  0  0  0  0  0
   37.4535   27.8008   39.9998 H   0  0  0  0  0  0  0  0  0  0  0  0
   38.1983   30.6407   39.4317 H   0  0  0  0  0  0  0  0  0  0  0  0
   36.2485   33.5600   40.4860 H   0  0  0  0  0  0  0  0  0  0  0  0
   37.8270   33.0812   39.8064 H   0  0  0  0  0  0  0  0  0  0  0  0
   38.6423   26.6978   44.6740 H   0  0  0  0  0  0  0  0  0  0  0  0
   41.5649   26.8978   43.1588 H   0  0  0  0  0  0  0  0  0  0  0  0
   41.7986   26.5065   44.6390 H   0  0  0  0  0  0  0  0  0  0  0  0
   39.9777   24.9215   42.4708 H   0  0  0  0  0  0  0  0  0  0  0  0
   39.9344   24.1809   43.8431 H   0  0  0  0  0  0  0  0  0  0  0  0
  1  6  2  0
  2  1  1  0
  3  2  2  0
  3  4  1  0
  4  5  2  0
  5  6  1  0
  5 12  1  0
  7  8  1  0
  7  2  1  0
  8  9  2  0
  9 11  1  0
 10  8  1  0
 13 12  1  0
 14 13  1  0
 14 12  1  0
  1 15  1  0
  3 16  1  0
  7 17  1  0
 10 18  1  0
 10 19  1  0
 12 20  1  0
 13 21  1  0
 13 22  1  0
 14 23  1  0
 14 24  1  0
M  ISO  7  15  14  16  14  20  13  21  13  22  13  23  13  24  13
M  END
>  <minimizedAffinity>  (1) 
-4.84853458

>  <minimizedRMSD>  (1) 
0.621141195

$$$$
