
     RDKit          3D

 21 22  0  0  0  0  0  0  0  0999 V2000
   37.2280   30.5000   40.4200 C   0  0  0  0  0  0  0  0  0  0  0  0
   37.3550   31.8440   40.6420 C   0  0  0  0  0  0  0  0  0  0  0  0
   37.3410   32.6660   39.5300 C   0  0  0  0  0  0  0  0  0  0  0  0
   37.2090   32.1810   38.2700 N   0  0  0  0  0  0  0  0  0  0  0  0
   37.0840   30.8290   38.0830 C   0  0  0  0  0  0  0  0  0  0  0  0
   37.0970   30.0240   39.1680 N   0  0  0  0  0  0  0  0  0  0  0  0
   38.1020   28.8740   43.5940 C   0  0  0  0  0  0  0  0  0  0  0  0
   37.1940   27.7670   43.6200 C   0  0  0  0  0  0  0  0  0  0  0  0
   36.3170   27.6150   42.5550 C   0  0  0  0  0  0  0  0  0  0  0  0
   36.3720   28.5280   41.5490 N   0  0  0  0  0  0  0  0  0  0  0  0
   37.2330   29.5630   41.5400 C   0  0  0  0  0  0  0  0  0  0  0  0
   38.0890   29.7340   42.5530 N   0  0  0  0  0  0  0  0  0  0  0  0
   36.9340   30.1920   36.7450 C   0  0  0  0  0  0  0  0  0  0  0  0
   35.6860   29.5800   36.6520 F   0  0  0  0  0  0  0  0  0  0  0  0
   37.0930   31.1850   35.7830 F   0  0  0  0  0  0  0  0  0  0  0  0
   37.8730   29.2260   36.4960 F   0  0  0  0  0  0  0  0  0  0  0  0
   37.4632   32.2518   41.6579 H   0  0  0  0  0  0  0  0  0  0  0  0
   37.4405   33.7522   39.6723 H   0  0  0  0  0  0  0  0  0  0  0  0
   38.8102   29.0238   44.4222 H   0  0  0  0  0  0  0  0  0  0  0  0
   37.1916   27.0571   44.4603 H   0  0  0  0  0  0  0  0  0  0  0  0
   35.5996   26.7816   42.5258 H   0  0  0  0  0  0  0  0  0  0  0  0
  1  2  2  0
  1 11  1  0
  3  2  1  0
  4  3  2  0
  5  4  1  0
  5  6  2  0
  6  1  1  0
  7  8  2  0
  9  8  1  0
 10  9  2  0
 11 10  1  0
 11 12  2  0
 12  7  1  0
 13  5  1  0
 14 13  1  0
 15 13  1  0
 16 13  1  0
  2 17  1  0
  3 18  1  0
  7 19  1  0
  8 20  1  0
  9 21  1  0
M  ISO  5  17  14  18  14  19  14  20  14  21  14
M  END
>  <minimizedAffinity>  (1) 
-4.3185463

>  <minimizedRMSD>  (1) 
0.544004798

$$$$
