
     RDKit          3D

 20 21  0  0  0  0  0  0  0  0999 V2000
   37.2940   30.5210   40.2310 C   0  0  0  0  0  0  0  0  0  0  0  0
   37.1540   31.8670   40.4370 C   0  0  0  0  0  0  0  0  0  0  0  0
   37.2020   32.6730   39.3170 C   0  0  0  0  0  0  0  0  0  0  0  0
   37.3770   32.1740   38.0750 N   0  0  0  0  0  0  0  0  0  0  0  0
   37.5130   30.8350   37.9100 C   0  0  0  0  0  0  0  0  0  0  0  0
   37.4720   30.0000   38.9910 N   0  0  0  0  0  0  0  0  0  0  0  0
   37.7010   30.2400   36.6300 N   0  0  0  0  0  0  0  0  0  0  0  0
   38.1080   28.9500   43.4570 C   0  0  0  0  0  0  0  0  0  0  0  0
   37.2140   27.8310   43.4750 C   0  0  0  0  0  0  0  0  0  0  0  0
   36.3700   27.6530   42.3930 C   0  0  0  0  0  0  0  0  0  0  0  0
   36.4180   28.5420   41.3550 N   0  0  0  0  0  0  0  0  0  0  0  0
   37.2590   29.5780   41.3590 C   0  0  0  0  0  0  0  0  0  0  0  0
   38.0940   29.7750   42.4050 N   0  0  0  0  0  0  0  0  0  0  0  0
   37.0105   32.2854   41.4441 H   0  0  0  0  0  0  0  0  0  0  0  0
   37.0938   33.7606   39.4412 H   0  0  0  0  0  0  0  0  0  0  0  0
   37.8003   29.2182   36.5466 H   0  0  0  0  0  0  0  0  0  0  0  0
   37.7377   30.8314   35.7875 H   0  0  0  0  0  0  0  0  0  0  0  0
   38.7961   29.1280   44.2965 H   0  0  0  0  0  0  0  0  0  0  0  0
   37.1988   27.1329   44.3249 H   0  0  0  0  0  0  0  0  0  0  0  0
   35.6685   26.8061   42.3681 H   0  0  0  0  0  0  0  0  0  0  0  0
  1  2  2  0
  1 12  1  0
  3  2  1  0
  4  3  2  0
  5  4  1  0
  5  6  2  0
  6  1  1  0
  7  5  1  0
  8  9  2  0
 10  9  1  0
 11 12  1  0
 11 10  2  0
 12 13  2  0
 13  8  1  0
  2 14  1  0
  3 15  1  0
  7 16  1  0
  7 17  1  0
  8 18  1  0
  9 19  1  0
 10 20  1  0
M  ISO  5  14  14  15  14  18  14  19  14  20  14
M  END
>  <minimizedAffinity>  (1) 
-4.08225536

>  <minimizedRMSD>  (1) 
0.0557668135

$$$$
