
     RDKit          3D

 25 26  0  0  0  0  0  0  0  0999 V2000
   38.3110   30.2950   41.6990 C   0  0  0  0  0  0  0  0  0  0  0  0
   38.6620   30.8730   40.4430 C   0  0  0  0  0  0  0  0  0  0  0  0
   38.5410   30.0220   39.3670 C   0  0  0  0  0  0  0  0  0  0  0  0
   38.1190   28.7450   39.5290 N   0  0  0  0  0  0  0  0  0  0  0  0
   37.8000   28.2440   40.7300 C   0  0  0  0  0  0  0  0  0  0  0  0
   37.8990   29.0210   41.8000 N   0  0  0  0  0  0  0  0  0  0  0  0
   39.0880   32.2280   40.4220 N   0  0  0  0  0  0  0  0  0  0  0  0
   38.2310   33.3420   40.5970 C   0  0  0  0  0  0  0  0  0  0  0  0
   37.0420   33.2430   40.0480 N   0  0  0  0  0  0  0  0  0  0  0  0
   38.7640   34.4450   41.3540 N   0  0  0  0  0  0  0  0  0  0  0  0
   36.3470   34.0000   40.1310 H   0  0  0  0  0  0  0  0  0  0  0  0
   37.3520   26.8600   40.8420 C   0  0  0  0  0  0  0  0  0  0  0  0
   37.3940   26.2040   42.0560 C   0  0  0  0  0  0  0  0  0  0  0  0
   36.9760   24.8930   42.1970 C   0  0  0  0  0  0  0  0  0  0  0  0
   36.5200   24.2680   41.0820 N   0  0  0  0  0  0  0  0  0  0  0  0
   36.4740   24.8920   39.8910 C   0  0  0  0  0  0  0  0  0  0  0  0
   36.8900   26.1760   39.7940 N   0  0  0  0  0  0  0  0  0  0  0  0
   38.3797   30.9092   42.6089 H   0  0  0  0  0  0  0  0  0  0  0  0
   38.7912   30.3853   38.3593 H   0  0  0  0  0  0  0  0  0  0  0  0
   40.0896   32.4132   40.2689 H   0  0  0  0  0  0  0  0  0  0  0  0
   38.1891   35.2842   41.5157 H   0  0  0  0  0  0  0  0  0  0  0  0
   39.7201   34.3947   41.7337 H   0  0  0  0  0  0  0  0  0  0  0  0
   37.7717   26.7407   42.9388 H   0  0  0  0  0  0  0  0  0  0  0  0
   37.0116   24.3800   43.1694 H   0  0  0  0  0  0  0  0  0  0  0  0
   36.1008   24.3621   39.0022 H   0  0  0  0  0  0  0  0  0  0  0  0
  1  6  2  0
  2  1  1  0
  3  4  1  0
  3  2  2  0
  4  5  2  0
  5 12  1  0
  5  6  1  0
  7  2  1  0
  7  8  1  0
  8 10  1  0
  9 11  1  0
  9  8  2  0
 12 13  2  0
 13 14  1  0
 15 14  2  0
 16 15  1  0
 17 16  2  0
 17 12  1  0
  1 18  1  0
  3 19  1  0
  7 20  1  0
 10 21  1  0
 10 22  1  0
 13 23  1  0
 14 24  1  0
 16 25  1  0
M  ISO  5  18  14  19  14  23  14  24  14  25  14
M  END
>  <minimizedAffinity>  (1) 
-4.77024126

>  <minimizedRMSD>  (1) 
3.41619682

$$$$
