
     RDKit          3D

 27 28  0  0  0  0  0  0  0  0999 V2000
   37.1670   30.1480   40.3550 C   0  0  0  0  0  0  0  0  0  0  0  0
   36.9930   31.3200   41.0320 C   0  0  0  0  0  0  0  0  0  0  0  0
   37.0240   32.5000   40.3370 C   0  0  0  0  0  0  0  0  0  0  0  0
   37.2240   32.5170   38.9860 N   0  0  0  0  0  0  0  0  0  0  0  0
   37.3910   31.3470   38.3520 C   0  0  0  0  0  0  0  0  0  0  0  0
   37.3630   30.1820   39.0230 N   0  0  0  0  0  0  0  0  0  0  0  0
   37.6230   31.2170   36.9040 C   0  0  0  0  0  0  0  0  0  0  0  0
   37.0080   30.4380   36.1500 O   0  0  0  0  0  0  0  0  0  0  0  0
   38.6490   32.1050   36.4840 N   0  0  0  0  0  0  0  0  0  0  0  0
   39.7430   32.0730   37.3620 C   0  0  0  0  0  0  0  0  0  0  0  0
   40.1110   31.5020   38.4190 N   0  0  0  0  0  0  0  0  0  0  0  0
   40.9290   32.8770   37.1750 N   0  0  0  0  0  0  0  0  0  0  0  0
   39.5890   30.8180   38.9480 H   0  0  0  0  0  0  0  0  0  0  0  0
   37.0510   27.6640   43.0510 C   0  0  0  0  0  0  0  0  0  0  0  0
   37.0950   26.4460   42.3210 C   0  0  0  0  0  0  0  0  0  0  0  0
   37.1610   26.4990   40.9500 C   0  0  0  0  0  0  0  0  0  0  0  0
   37.1830   27.7230   40.3380 N   0  0  0  0  0  0  0  0  0  0  0  0
   37.1410   28.8770   41.0500 C   0  0  0  0  0  0  0  0  0  0  0  0
   37.0750   28.8350   42.3980 N   0  0  0  0  0  0  0  0  0  0  0  0
   36.8302   31.3172   42.1199 H   0  0  0  0  0  0  0  0  0  0  0  0
   36.8856   33.4491   40.8756 H   0  0  0  0  0  0  0  0  0  0  0  0
   38.5966   32.6967   35.6426 H   0  0  0  0  0  0  0  0  0  0  0  0
   41.7045   32.8156   37.8500 H   0  0  0  0  0  0  0  0  0  0  0  0
   40.9989   33.5115   36.3667 H   0  0  0  0  0  0  0  0  0  0  0  0
   36.9974   27.6465   44.1496 H   0  0  0  0  0  0  0  0  0  0  0  0
   37.0766   25.4785   42.8440 H   0  0  0  0  0  0  0  0  0  0  0  0
   37.1955   25.5746   40.3548 H   0  0  0  0  0  0  0  0  0  0  0  0
  1  2  2  0
  1 18  1  0
  3  2  1  0
  4  3  2  0
  5  4  1  0
  5  6  2  0
  6  1  1  0
  7  5  1  0
  8  7  2  0
  9  7  1  0
  9 10  1  0
 10 11  2  0
 11 13  1  0
 12 10  1  0
 15 14  2  0
 16 15  1  0
 17 16  2  0
 17 18  1  0
 18 19  2  0
 19 14  1  0
  2 20  1  0
  3 21  1  0
  9 22  1  0
 12 23  1  0
 12 24  1  0
 14 25  1  0
 15 26  1  0
 16 27  1  0
M  ISO  5  20  14  21  14  25  14  26  14  27  14
M  END
>  <minimizedAffinity>  (1) 
-5.14715195

>  <minimizedRMSD>  (1) 
1.41824496

$$$$
