
     RDKit          3D

 34 36  0  0  0  0  0  0  0  0999 V2000
   37.1690   30.2660   40.4430 C   0  0  0  0  0  0  0  0  0  0  0  0
   37.1210   31.6230   40.6110 C   0  0  0  0  0  0  0  0  0  0  0  0
   37.1510   32.4040   39.4790 C   0  0  0  0  0  0  0  0  0  0  0  0
   37.2270   31.8790   38.2370 N   0  0  0  0  0  0  0  0  0  0  0  0
   37.2730   30.5270   38.1080 C   0  0  0  0  0  0  0  0  0  0  0  0
   37.2430   29.7480   39.2120 N   0  0  0  0  0  0  0  0  0  0  0  0
   37.9370   28.8120   43.7290 C   0  0  0  0  0  0  0  0  0  0  0  0
   37.0670   27.6870   43.7630 C   0  0  0  0  0  0  0  0  0  0  0  0
   36.2520   27.4600   42.6740 C   0  0  0  0  0  0  0  0  0  0  0  0
   36.3080   28.3160   41.6090 N   0  0  0  0  0  0  0  0  0  0  0  0
   37.1410   29.3800   41.5930 C   0  0  0  0  0  0  0  0  0  0  0  0
   37.9410   29.6140   42.6490 N   0  0  0  0  0  0  0  0  0  0  0  0
   37.3550   29.8030   36.8330 C   0  0  0  0  0  0  0  0  0  0  0  0
   36.5490   29.9880   35.8720 O   0  0  0  0  0  0  0  0  0  0  0  0
   38.4310   28.8730   36.7900 N   0  0  0  0  0  0  0  0  0  0  0  0
   38.3760   27.4970   36.2940 C   0  0  0  0  0  0  0  0  0  0  0  0
   38.9900   26.6720   37.4300 C   0  0  0  0  0  0  0  0  0  0  0  0
   40.3990   26.9490   37.4770 N   0  0  0  0  0  0  0  0  0  0  0  0
   40.7660   28.3080   37.3840 C   0  0  0  0  0  0  0  0  0  0  0  0
   39.6940   29.3210   37.2770 C   0  0  0  0  0  0  0  0  0  0  0  0
   37.0607   32.0724   41.6132 H   0  0  0  0  0  0  0  0  0  0  0  0
   37.1116   33.4977   39.5896 H   0  0  0  0  0  0  0  0  0  0  0  0
   38.6015   29.0245   44.5795 H   0  0  0  0  0  0  0  0  0  0  0  0
   37.0450   27.0162   44.6345 H   0  0  0  0  0  0  0  0  0  0  0  0
   35.5652   26.6008   42.6621 H   0  0  0  0  0  0  0  0  0  0  0  0
   37.3367   27.1902   36.1048 H   0  0  0  0  0  0  0  0  0  0  0  0
   38.9081   27.3680   35.3399 H   0  0  0  0  0  0  0  0  0  0  0  0
   38.5238   26.9509   38.3865 H   0  0  0  0  0  0  0  0  0  0  0  0
   38.8199   25.5995   37.2548 H   0  0  0  0  0  0  0  0  0  0  0  0
   40.7620   26.5850   38.3695 H   0  0  0  0  0  0  0  0  0  0  0  0
   41.3521   28.5487   38.2832 H   0  0  0  0  0  0  0  0  0  0  0  0
   41.3006   28.3783   36.4252 H   0  0  0  0  0  0  0  0  0  0  0  0
   40.0500   30.1117   36.6001 H   0  0  0  0  0  0  0  0  0  0  0  0
   39.5040   29.6484   38.3098 H   0  0  0  0  0  0  0  0  0  0  0  0
  1  2  2  0
  1 11  1  0
  3  2  1  0
  4  3  2  0
  5  4  1  0
  5  6  2  0
  6  1  1  0
  7  8  2  0
  9  8  1  0
 10  9  2  0
 11 10  1  0
 11 12  2  0
 12  7  1  0
 13  5  1  0
 14 13  2  0
 15 13  1  0
 15 20  1  0
 16 15  1  0
 16 17  1  0
 17 18  1  0
 19 18  1  0
 20 19  1  0
  2 21  1  0
  3 22  1  0
  7 23  1  0
  8 24  1  0
  9 25  1  0
 16 26  1  0
 16 27  1  0
 17 28  1  0
 17 29  1  0
 18 30  1  0
 19 31  1  0
 19 32  1  0
 20 33  1  0
 20 34  1  0
M  ISO  8  21  14  22  14  23  14  24  14  25  14  26  13  27  13  28  13
M  ISO  6  29  13  30   5  31  13  32  13  33  13  34  13
M  END
>  <minimizedAffinity>  (1) 
-4.43818712

>  <minimizedRMSD>  (1) 
1.87960029

$$$$
