
     RDKit          3D

 44 47  0  0  1  0  0  0  0  0999 V2000
   37.5510   28.1460   43.0120 C   0  0  0  0  0  0  0  0  0  0  0  0
   36.9270   27.8970   44.0770 O   0  0  0  0  0  0  0  0  0  0  0  0
   38.8200   27.6040   42.6880 N   0  0  0  0  0  0  0  0  0  0  0  0
   39.9700   27.4800   43.5680 C   0  0  0  0  0  0  0  0  0  0  0  0
   41.1280   28.1050   42.7690 C   0  0  0  0  0  0  0  0  0  0  0  0
   41.4540   27.2060   41.6960 N   0  0  0  0  0  0  0  0  0  0  0  0
   40.3590   26.6650   40.9810 C   0  0  0  0  0  0  0  0  0  0  0  0
   39.0060   27.1200   41.3480 C   0  0  1  0  0  0  0  0  0  0  0  0
   38.0090   26.1220   40.9120 C   0  0  0  0  0  0  0  0  0  0  0  0
   37.6150   25.0840   41.7340 C   0  0  0  0  0  0  0  0  0  0  0  0
   36.6860   24.1380   41.3530 C   0  0  0  0  0  0  0  0  0  0  0  0
   36.1060   24.2090   40.0860 C   0  0  0  0  0  0  0  0  0  0  0  0
   36.4780   25.2320   39.2400 C   0  0  0  0  0  0  0  0  0  0  0  0
   37.4090   26.1640   39.6480 C   0  0  0  0  0  0  0  0  0  0  0  0
   37.4240   31.0610   40.8130 C   0  0  0  0  0  0  0  0  0  0  0  0
   36.2930   30.8720   40.0700 C   0  0  0  0  0  0  0  0  0  0  0  0
   35.5490   29.7360   40.3120 C   0  0  0  0  0  0  0  0  0  0  0  0
   35.9010   28.8310   41.2370 N   0  0  0  0  0  0  0  0  0  0  0  0
   37.0320   29.0410   41.9640 C   0  0  0  0  0  0  0  0  0  0  0  0
   37.7710   30.1500   41.7380 N   0  0  0  0  0  0  0  0  0  0  0  0
   38.4410   34.5120   40.0790 C   0  0  0  0  0  0  0  0  0  0  0  0
   39.8500   34.4510   40.2470 C   0  0  0  0  0  0  0  0  0  0  0  0
   40.4050   33.2390   40.6040 C   0  0  0  0  0  0  0  0  0  0  0  0
   39.6010   32.1510   40.7820 N   0  0  0  0  0  0  0  0  0  0  0  0
   38.2580   32.2310   40.6170 C   0  0  0  0  0  0  0  0  0  0  0  0
   37.6990   33.4070   40.2690 N   0  0  0  0  0  0  0  0  0  0  0  0
   39.8034   28.0285   44.5068 H   0  0  0  0  0  0  0  0  0  0  0  0
   40.1707   26.4369   43.8536 H   0  0  0  0  0  0  0  0  0  0  0  0
   40.8190   29.0787   42.3611 H   0  0  0  0  0  0  0  0  0  0  0  0
   42.0021   28.2636   43.4177 H   0  0  0  0  0  0  0  0  0  0  0  0
   42.0453   27.7178   41.0257 H   0  0  0  0  0  0  0  0  0  0  0  0
   40.3860   25.5737   41.1161 H   0  0  0  0  0  0  0  0  0  0  0  0
   40.4999   27.0193   39.9492 H   0  0  0  0  0  0  0  0  0  0  0  0
   38.8428   28.0530   40.7887 H   0  0  0  0  0  0  0  0  0  0  0  0
   38.0617   25.0085   42.7364 H   0  0  0  0  0  0  0  0  0  0  0  0
   36.4037   23.3311   42.0452 H   0  0  0  0  0  0  0  0  0  0  0  0
   35.3645   23.4615   39.7675 H   0  0  0  0  0  0  0  0  0  0  0  0
   36.0313   25.3050   38.2374 H   0  0  0  0  0  0  0  0  0  0  0  0
   37.6905   26.9702   38.9546 H   0  0  0  0  0  0  0  0  0  0  0  0
   35.9864   31.6007   39.3052 H   0  0  0  0  0  0  0  0  0  0  0  0
   34.6342   29.5663   39.7253 H   0  0  0  0  0  0  0  0  0  0  0  0
   37.9590   35.4590   39.7947 H   0  0  0  0  0  0  0  0  0  0  0  0
   40.4786   35.3412   40.0974 H   0  0  0  0  0  0  0  0  0  0  0  0
   41.4924   33.1503   40.7447 H   0  0  0  0  0  0  0  0  0  0  0  0
  1  2  2  0
  3  1  1  0
  3  4  1  0
  5  4  1  0
  6  5  1  0
  7  8  1  0
  7  6  1  0
  8  3  1  0
  9  8  1  0
  9 10  2  0
 11 10  1  0
 12 11  2  0
 13 14  2  0
 13 12  1  0
 14  9  1  0
 15 20  2  0
 16 17  2  0
 16 15  1  0
 17 18  1  0
 18 19  2  0
 19  1  1  0
 20 19  1  0
 21 22  2  0
 21 26  1  0
 22 23  1  0
 23 24  2  0
 25 24  1  0
 25 15  1  0
 26 25  2  0
  4 27  1  0
  4 28  1  0
  5 29  1  0
  5 30  1  0
  6 31  1  0
  7 32  1  0
  7 33  1  0
  8 34  1  6
 10 35  1  0
 11 36  1  0
 12 37  1  0
 13 38  1  0
 14 39  1  0
 16 40  1  0
 17 41  1  0
 21 42  1  0
 22 43  1  0
 23 44  1  0
M  ISO  8  27  13  28  13  29  13  30  13  31   5  32  13  33  13  34  13
M  ISO  8  35  14  36  14  37  14  38  14  39  14  40  14  41  14  42  14
M  ISO  2  43  14  44  14
M  END
>  <minimizedAffinity>  (1) 
-6.54260015

>  <minimizedRMSD>  (1) 
6.41471863

$$$$
