
     RDKit          3D

 43 46  0  0  1  0  0  0  0  0999 V2000
   37.9260   28.1980   43.0840 C   0  0  0  0  0  0  0  0  0  0  0  0
   37.3570   27.8990   44.1740 O   0  0  0  0  0  0  0  0  0  0  0  0
   39.2060   27.6950   42.6920 N   0  0  0  0  0  0  0  0  0  0  0  0
   40.3940   27.6010   43.5290 C   0  0  0  0  0  0  0  0  0  0  0  0
   41.4830   28.2720   42.6880 C   0  0  0  0  0  0  0  0  0  0  0  0
   41.7950   27.4130   41.5730 N   0  0  0  0  0  0  0  0  0  0  0  0
   40.6800   26.8630   40.9010 C   0  0  0  0  0  0  0  0  0  0  0  0
   39.3190   27.2460   41.3500 C   0  0  1  0  0  0  0  0  0  0  0  0
   37.6330   31.1300   40.9330 C   0  0  0  0  0  0  0  0  0  0  0  0
   36.4500   30.9480   40.2670 C   0  0  0  0  0  0  0  0  0  0  0  0
   35.7350   29.8080   40.5520 C   0  0  0  0  0  0  0  0  0  0  0  0
   36.1560   28.8880   41.4460 N   0  0  0  0  0  0  0  0  0  0  0  0
   37.3350   29.1020   42.0890 C   0  0  0  0  0  0  0  0  0  0  0  0
   38.0460   30.2120   41.8210 N   0  0  0  0  0  0  0  0  0  0  0  0
   38.5890   34.5790   40.1390 C   0  0  0  0  0  0  0  0  0  0  0  0
   39.9960   34.5240   40.2330 C   0  0  0  0  0  0  0  0  0  0  0  0
   40.5860   33.3160   40.5640 C   0  0  0  0  0  0  0  0  0  0  0  0
   39.7960   32.2250   40.7870 N   0  0  0  0  0  0  0  0  0  0  0  0
   38.4430   32.3000   40.6910 C   0  0  0  0  0  0  0  0  0  0  0  0
   37.8640   33.4810   40.3680 N   0  0  0  0  0  0  0  0  0  0  0  0
   38.3190   26.1410   41.1490 C   0  0  0  0  0  0  0  0  0  0  0  0
   38.1960   25.0980   42.0600 C   0  0  0  0  0  0  0  0  0  0  0  0
   37.2710   24.0950   41.8570 C   0  0  0  0  0  0  0  0  0  0  0  0
   36.4580   24.1340   40.7270 C   0  0  0  0  0  0  0  0  0  0  0  0
   36.5890   25.1720   39.8300 C   0  0  0  0  0  0  0  0  0  0  0  0
   37.5060   26.1400   40.0600 N   0  0  0  0  0  0  0  0  0  0  0  0
   40.2476   28.1348   44.4796 H   0  0  0  0  0  0  0  0  0  0  0  0
   40.6431   26.5648   43.8016 H   0  0  0  0  0  0  0  0  0  0  0  0
   41.1209   29.2427   42.3185 H   0  0  0  0  0  0  0  0  0  0  0  0
   42.3825   28.4375   43.2992 H   0  0  0  0  0  0  0  0  0  0  0  0
   42.3380   27.9619   40.8912 H   0  0  0  0  0  0  0  0  0  0  0  0
   40.7549   25.7692   40.9905 H   0  0  0  0  0  0  0  0  0  0  0  0
   40.7515   27.2739   39.8831 H   0  0  0  0  0  0  0  0  0  0  0  0
   39.0990   28.1073   40.7022 H   0  0  0  0  0  0  0  0  0  0  0  0
   36.0866   31.6835   39.5342 H   0  0  0  0  0  0  0  0  0  0  0  0
   34.7814   29.6390   40.0303 H   0  0  0  0  0  0  0  0  0  0  0  0
   38.0905   35.5241   39.8777 H   0  0  0  0  0  0  0  0  0  0  0  0
   40.6087   35.4186   40.0479 H   0  0  0  0  0  0  0  0  0  0  0  0
   41.6800   33.2361   40.6465 H   0  0  0  0  0  0  0  0  0  0  0  0
   38.8417   25.0724   42.9502 H   0  0  0  0  0  0  0  0  0  0  0  0
   37.1764   23.2721   42.5809 H   0  0  0  0  0  0  0  0  0  0  0  0
   35.7159   23.3412   40.5515 H   0  0  0  0  0  0  0  0  0  0  0  0
   35.9527   25.2133   38.9336 H   0  0  0  0  0  0  0  0  0  0  0  0
  1  2  2  0
  3  1  1  0
  3  4  1  0
  5  4  1  0
  6  5  1  0
  7  8  1  0
  7  6  1  0
  8  3  1  0
  9 14  2  0
 10 11  2  0
 10  9  1  0
 11 12  1  0
 12 13  2  0
 13  1  1  0
 14 13  1  0
 15 16  2  0
 15 20  1  0
 16 17  1  0
 17 18  2  0
 19 18  1  0
 19  9  1  0
 20 19  2  0
 21  8  1  0
 21 22  2  0
 23 22  1  0
 24 23  2  0
 25 26  2  0
 25 24  1  0
 26 21  1  0
  4 27  1  0
  4 28  1  0
  5 29  1  0
  5 30  1  0
  6 31  1  0
  7 32  1  0
  7 33  1  0
  8 34  1  6
 10 35  1  0
 11 36  1  0
 15 37  1  0
 16 38  1  0
 17 39  1  0
 22 40  1  0
 23 41  1  0
 24 42  1  0
 25 43  1  0
M  ISO  8  27  13  28  13  29  13  30  13  31   5  32  13  33  13  34  13
M  ISO  8  35  14  36  14  37  14  38  14  39  14  40  14  41  14  42  14
M  ISO  1  43  14
M  END
>  <minimizedAffinity>  (1) 
-6.40809155

>  <minimizedRMSD>  (1) 
6.48520279

$$$$
