
     RDKit          3D

 42 45  0  0  1  0  0  0  0  0999 V2000
   37.8380   28.3280   43.0650 C   0  0  0  0  0  0  0  0  0  0  0  0
   37.2640   28.0910   44.1600 O   0  0  0  0  0  0  0  0  0  0  0  0
   39.0900   27.7480   42.6820 N   0  0  0  0  0  0  0  0  0  0  0  0
   40.2710   27.6200   43.5190 C   0  0  0  0  0  0  0  0  0  0  0  0
   41.3980   28.2140   42.6690 C   0  0  0  0  0  0  0  0  0  0  0  0
   41.6600   27.3070   41.5970 N   0  0  0  0  0  0  0  0  0  0  0  0
   40.5350   26.7910   40.9290 C   0  0  0  0  0  0  0  0  0  0  0  0
   39.1800   27.2480   41.3510 C   0  0  1  0  0  0  0  0  0  0  0  0
   37.6590   31.2480   40.8810 C   0  0  0  0  0  0  0  0  0  0  0  0
   36.5040   31.0630   40.1730 C   0  0  0  0  0  0  0  0  0  0  0  0
   35.7650   29.9400   40.4270 C   0  0  0  0  0  0  0  0  0  0  0  0
   36.1390   29.0190   41.3460 N   0  0  0  0  0  0  0  0  0  0  0  0
   37.2980   29.2280   42.0400 C   0  0  0  0  0  0  0  0  0  0  0  0
   38.0310   30.3340   41.7930 N   0  0  0  0  0  0  0  0  0  0  0  0
   38.6730   34.7000   40.1310 C   0  0  0  0  0  0  0  0  0  0  0  0
   40.0770   34.6160   40.2460 C   0  0  0  0  0  0  0  0  0  0  0  0
   40.6440   33.4120   40.5700 C   0  0  0  0  0  0  0  0  0  0  0  0
   39.8340   32.3350   40.7700 N   0  0  0  0  0  0  0  0  0  0  0  0
   38.4840   32.4090   40.6620 C   0  0  0  0  0  0  0  0  0  0  0  0
   37.9160   33.5960   40.3410 N   0  0  0  0  0  0  0  0  0  0  0  0
   38.1920   26.1470   41.0710 C   0  0  0  0  0  0  0  0  0  0  0  0
   38.0630   25.0430   41.9150 C   0  0  0  0  0  0  0  0  0  0  0  0
   37.1350   24.0590   41.6060 C   0  0  0  0  0  0  0  0  0  0  0  0
   36.3550   24.1430   40.5060 N   0  0  0  0  0  0  0  0  0  0  0  0
   36.4910   25.2270   39.6880 C   0  0  0  0  0  0  0  0  0  0  0  0
   37.3890   26.1740   39.9930 N   0  0  0  0  0  0  0  0  0  0  0  0
   40.1491   28.1845   44.4552 H   0  0  0  0  0  0  0  0  0  0  0  0
   40.4686   26.5788   43.8136 H   0  0  0  0  0  0  0  0  0  0  0  0
   41.0887   29.1899   42.2665 H   0  0  0  0  0  0  0  0  0  0  0  0
   42.3022   28.3611   43.2779 H   0  0  0  0  0  0  0  0  0  0  0  0
   42.2385   27.8007   40.9024 H   0  0  0  0  0  0  0  0  0  0  0  0
   40.5601   25.6979   41.0493 H   0  0  0  0  0  0  0  0  0  0  0  0
   40.6370   27.1705   39.9016 H   0  0  0  0  0  0  0  0  0  0  0  0
   38.9351   28.1359   40.7496 H   0  0  0  0  0  0  0  0  0  0  0  0
   36.1782   31.7963   39.4205 H   0  0  0  0  0  0  0  0  0  0  0  0
   34.8335   29.7797   39.8643 H   0  0  0  0  0  0  0  0  0  0  0  0
   38.1957   35.6567   39.8722 H   0  0  0  0  0  0  0  0  0  0  0  0
   40.7057   35.5029   40.0782 H   0  0  0  0  0  0  0  0  0  0  0  0
   41.7355   33.3162   40.6671 H   0  0  0  0  0  0  0  0  0  0  0  0
   38.6897   24.9541   42.8146 H   0  0  0  0  0  0  0  0  0  0  0  0
   37.0318   23.1899   42.2723 H   0  0  0  0  0  0  0  0  0  0  0  0
   35.8688   25.3226   38.7859 H   0  0  0  0  0  0  0  0  0  0  0  0
  1  2  2  0
  3  1  1  0
  3  4  1  0
  5  4  1  0
  6  5  1  0
  7  8  1  0
  7  6  1  0
  8  3  1  0
  9 14  2  0
 10 11  2  0
 10  9  1  0
 11 12  1  0
 12 13  2  0
 13  1  1  0
 14 13  1  0
 15 16  2  0
 15 20  1  0
 16 17  1  0
 17 18  2  0
 19 18  1  0
 19  9  1  0
 20 19  2  0
 21  8  1  0
 21 22  2  0
 23 22  1  0
 24 23  2  0
 25 26  2  0
 25 24  1  0
 26 21  1  0
  4 27  1  0
  4 28  1  0
  5 29  1  0
  5 30  1  0
  6 31  1  0
  7 32  1  0
  7 33  1  0
  8 34  1  6
 10 35  1  0
 11 36  1  0
 15 37  1  0
 16 38  1  0
 17 39  1  0
 22 40  1  0
 23 41  1  0
 25 42  1  0
M  ISO  8  27  13  28  13  29  13  30  13  31   5  32  13  33  13  34  13
M  ISO  8  35  14  36  14  37  14  38  14  39  14  40  14  41  14  42  14
M  END
>  <minimizedAffinity>  (1) 
-6.21538305

>  <minimizedRMSD>  (1) 
6.49857664

$$$$
