
     RDKit          3D

 44 47  0  0  1  0  0  0  0  0999 V2000
   37.2170   29.7720   39.7930 C   0  0  0  0  0  0  0  0  0  0  0  0
   35.9620   29.6590   39.7290 O   0  0  0  0  0  0  0  0  0  0  0  0
   37.8880   30.7980   40.5070 N   0  0  0  0  0  0  0  0  0  0  0  0
   37.5590   32.2250   40.5180 C   0  0  0  0  0  0  0  0  0  0  0  0
   38.8790   32.9190   40.2010 C   0  0  0  0  0  0  0  0  0  0  0  0
   39.7350   32.7830   41.3550 N   0  0  0  0  0  0  0  0  0  0  0  0
   39.7870   31.5090   41.9400 C   0  0  0  0  0  0  0  0  0  0  0  0
   39.0130   30.4190   41.3130 C   0  0  1  0  0  0  0  0  0  0  0  0
   40.1310   28.7140   37.8630 C   0  0  0  0  0  0  0  0  0  0  0  0
   40.0290   27.3560   37.8220 C   0  0  0  0  0  0  0  0  0  0  0  0
   38.9560   26.7670   38.4550 C   0  0  0  0  0  0  0  0  0  0  0  0
   38.0190   27.4950   39.1060 N   0  0  0  0  0  0  0  0  0  0  0  0
   38.1540   28.8430   39.1270 C   0  0  0  0  0  0  0  0  0  0  0  0
   39.2050   29.4270   38.5070 N   0  0  0  0  0  0  0  0  0  0  0  0
   42.4740   31.3640   36.8750 C   0  0  0  0  0  0  0  0  0  0  0  0
   43.3340   30.6780   35.9860 C   0  0  0  0  0  0  0  0  0  0  0  0
   43.0950   29.3490   35.7510 C   0  0  0  0  0  0  0  0  0  0  0  0
   42.0450   28.7220   36.3720 N   0  0  0  0  0  0  0  0  0  0  0  0
   41.2360   29.3960   37.2170 C   0  0  0  0  0  0  0  0  0  0  0  0
   41.4650   30.6940   37.4500 N   0  0  0  0  0  0  0  0  0  0  0  0
   38.7050   29.3190   42.2640 C   0  0  0  0  0  0  0  0  0  0  0  0
   37.5180   29.2750   43.0050 C   0  0  0  0  0  0  0  0  0  0  0  0
   37.2700   28.2350   43.8800 C   0  0  0  0  0  0  0  0  0  0  0  0
   38.2120   27.2340   44.0130 C   0  0  0  0  0  0  0  0  0  0  0  0
   39.3870   27.2760   43.2810 C   0  0  0  0  0  0  0  0  0  0  0  0
   39.6420   28.3120   42.4060 C   0  0  0  0  0  0  0  0  0  0  0  0
   36.8035   32.4565   39.7527 H   0  0  0  0  0  0  0  0  0  0  0  0
   37.1334   32.5505   41.4787 H   0  0  0  0  0  0  0  0  0  0  0  0
   39.3505   32.4458   39.3271 H   0  0  0  0  0  0  0  0  0  0  0  0
   38.7099   33.9811   39.9700 H   0  0  0  0  0  0  0  0  0  0  0  0
   40.6913   33.0368   41.0687 H   0  0  0  0  0  0  0  0  0  0  0  0
   40.8418   31.1969   41.9476 H   0  0  0  0  0  0  0  0  0  0  0  0
   39.3175   31.6434   42.9256 H   0  0  0  0  0  0  0  0  0  0  0  0
   39.7124   30.0263   40.5602 H   0  0  0  0  0  0  0  0  0  0  0  0
   40.7813   26.7474   37.2988 H   0  0  0  0  0  0  0  0  0  0  0  0
   38.8580   25.6716   38.4304 H   0  0  0  0  0  0  0  0  0  0  0  0
   42.6306   32.4311   37.0914 H   0  0  0  0  0  0  0  0  0  0  0  0
   44.1715   31.1968   35.4967 H   0  0  0  0  0  0  0  0  0  0  0  0
   43.7447   28.7857   35.0650 H   0  0  0  0  0  0  0  0  0  0  0  0
   36.7745   30.0774   42.8893 H   0  0  0  0  0  0  0  0  0  0  0  0
   36.3368   28.2048   44.4616 H   0  0  0  0  0  0  0  0  0  0  0  0
   38.0281   26.3984   44.7044 H   0  0  0  0  0  0  0  0  0  0  0  0
   40.1279   26.4715   43.3989 H   0  0  0  0  0  0  0  0  0  0  0  0
   40.5782   28.3365   41.8291 H   0  0  0  0  0  0  0  0  0  0  0  0
  1  3  1  0
  2  1  2  0
  3  4  1  0
  3  8  1  0
  5  4  1  0
  5  6  1  0
  6  7  1  0
  8  7  1  0
  8 21  1  0
  9 14  1  0
 10  9  2  0
 10 11  1  0
 11 12  2  0
 12 13  1  0
 13  1  1  0
 14 13  2  0
 15 20  2  0
 16 15  1  0
 17 16  2  0
 17 18  1  0
 18 19  2  0
 19 20  1  0
 19  9  1  0
 21 26  1  0
 21 22  2  0
 22 23  1  0
 23 24  2  0
 25 24  1  0
 26 25  2  0
  4 27  1  0
  4 28  1  0
  5 29  1  0
  5 30  1  0
  6 31  1  0
  7 32  1  0
  7 33  1  0
  8 34  1  6
 10 35  1  0
 11 36  1  0
 15 37  1  0
 16 38  1  0
 17 39  1  0
 22 40  1  0
 23 41  1  0
 24 42  1  0
 25 43  1  0
 26 44  1  0
M  ISO  8  27  13  28  13  29  13  30  13  31   5  32  13  33  13  34  13
M  ISO  8  35  14  36  14  37  14  38  14  39  14  40  14  41  14  42  14
M  ISO  2  43  14  44  14
M  END
>  <minimizedAffinity>  (1) 
-5.78579092

>  <minimizedRMSD>  (1) 
6.75817347

$$$$
