
     RDKit          3D

 48 52  0  0  1  0  0  0  0  0999 V2000
   37.5180   29.3520   38.1970 C   0  0  0  0  0  0  0  0  0  0  0  0
   36.5600   29.8130   37.5090 O   0  0  0  0  0  0  0  0  0  0  0  0
   38.7050   28.8070   37.6240 N   0  0  0  0  0  0  0  0  0  0  0  0
   38.7870   27.8840   36.4940 C   0  0  0  0  0  0  0  0  0  0  0  0
   39.6680   26.7470   37.0160 C   0  0  0  0  0  0  0  0  0  0  0  0
   41.0100   27.2170   37.1260 N   0  0  0  0  0  0  0  0  0  0  0  0
   41.1540   28.5050   37.7110 C   0  0  0  0  0  0  0  0  0  0  0  0
   39.9520   29.1990   38.2140 C   0  0  1  0  0  0  0  0  0  0  0  0
   40.2050   30.6620   38.1270 C   0  0  0  0  0  0  0  0  0  0  0  0
   40.2080   31.2420   36.8930 C   0  0  0  0  0  0  0  0  0  0  0  0
   40.4560   32.5740   37.0530 N   0  0  0  0  0  0  0  0  0  0  0  0
   40.6090   32.8290   38.3850 C   0  0  0  0  0  0  0  0  0  0  0  0
   40.8700   33.9630   39.1400 C   0  0  0  0  0  0  0  0  0  0  0  0
   40.9580   33.8330   40.5110 C   0  0  0  0  0  0  0  0  0  0  0  0
   40.7990   32.6260   41.2000 C   0  0  0  0  0  0  0  0  0  0  0  0
   40.5360   31.4830   40.4380 C   0  0  0  0  0  0  0  0  0  0  0  0
   40.4530   31.6400   39.0690 C   0  0  0  0  0  0  0  0  0  0  0  0
   38.0850   28.0130   41.5360 C   0  0  0  0  0  0  0  0  0  0  0  0
   37.6520   29.0020   42.3840 C   0  0  0  0  0  0  0  0  0  0  0  0
   37.1570   30.1500   41.8030 C   0  0  0  0  0  0  0  0  0  0  0  0
   37.0870   30.3240   40.4740 N   0  0  0  0  0  0  0  0  0  0  0  0
   37.5250   29.3240   39.6670 C   0  0  0  0  0  0  0  0  0  0  0  0
   38.0130   28.1920   40.2100 N   0  0  0  0  0  0  0  0  0  0  0  0
   39.9330   25.6530   43.6490 C   0  0  0  0  0  0  0  0  0  0  0  0
   39.6090   24.4120   43.0580 C   0  0  0  0  0  0  0  0  0  0  0  0
   38.7790   24.4100   41.9650 C   0  0  0  0  0  0  0  0  0  0  0  0
   38.2940   25.5990   41.4870 N   0  0  0  0  0  0  0  0  0  0  0  0
   38.6170   26.7810   42.0700 C   0  0  0  0  0  0  0  0  0  0  0  0
   39.4340   26.8010   43.1450 N   0  0  0  0  0  0  0  0  0  0  0  0
   39.2502   28.3707   35.6231 H   0  0  0  0  0  0  0  0  0  0  0  0
   37.7997   27.5366   36.1554 H   0  0  0  0  0  0  0  0  0  0  0  0
   39.3075   26.4240   38.0038 H   0  0  0  0  0  0  0  0  0  0  0  0
   39.6269   25.8944   36.3221 H   0  0  0  0  0  0  0  0  0  0  0  0
   41.5369   26.5448   37.7016 H   0  0  0  0  0  0  0  0  0  0  0  0
   41.8443   28.3982   38.5608 H   0  0  0  0  0  0  0  0  0  0  0  0
   41.4957   29.1373   36.8782 H   0  0  0  0  0  0  0  0  0  0  0  0
   39.8040   28.8893   39.2591 H   0  0  0  0  0  0  0  0  0  0  0  0
   40.0399   30.7263   35.9360 H   0  0  0  0  0  0  0  0  0  0  0  0
   40.5174   33.2699   36.2961 H   0  0  0  0  0  0  0  0  0  0  0  0
   41.0036   34.9424   38.6574 H   0  0  0  0  0  0  0  0  0  0  0  0
   41.1669   34.7378   41.1007 H   0  0  0  0  0  0  0  0  0  0  0  0
   40.8776   32.5778   42.2961 H   0  0  0  0  0  0  0  0  0  0  0  0
   40.4008   30.4989   40.9104 H   0  0  0  0  0  0  0  0  0  0  0  0
   37.6979   28.8839   43.4767 H   0  0  0  0  0  0  0  0  0  0  0  0
   36.8035   30.9599   42.4581 H   0  0  0  0  0  0  0  0  0  0  0  0
   40.5964   25.6840   44.5259 H   0  0  0  0  0  0  0  0  0  0  0  0
   40.0113   23.4717   43.4630 H   0  0  0  0  0  0  0  0  0  0  0  0
   38.5057   23.4627   41.4773 H   0  0  0  0  0  0  0  0  0  0  0  0
  1 22  1  0
  2  1  2  0
  3  1  1  0
  3  8  1  0
  4  5  1  0
  4  3  1  0
  5  6  1  0
  6  7  1  0
  7  8  1  0
  9  8  1  0
  9 17  1  0
 10 11  1  0
 10  9  2  0
 11 12  1  0
 12 17  2  0
 12 13  1  0
 13 14  2  0
 14 15  1  0
 16 15  2  0
 17 16  1  0
 18 28  1  0
 18 19  2  0
 20 19  1  0
 21 20  2  0
 22 23  2  0
 22 21  1  0
 23 18  1  0
 25 24  2  0
 26 25  1  0
 27 26  2  0
 27 28  1  0
 28 29  2  0
 29 24  1  0
  4 30  1  0
  4 31  1  0
  5 32  1  0
  5 33  1  0
  6 34  1  0
  7 35  1  0
  7 36  1  0
  8 37  1  1
 10 38  1  0
 11 39  1  0
 13 40  1  0
 14 41  1  0
 15 42  1  0
 16 43  1  0
 19 44  1  0
 20 45  1  0
 24 46  1  0
 25 47  1  0
 26 48  1  0
M  ISO  8  30  13  31  13  32  13  33  13  34   5  35  13  36  13  37  13
M  ISO  8  38  14  39   9  40  14  41  14  42  14  43  14  44  14  45  14
M  ISO  3  46  14  47  14  48  14
M  END
>  <minimizedAffinity>  (1) 
-5.56257153

>  <minimizedRMSD>  (1) 
3.10951352

$$$$
