
     RDKit          3D

 40 43  0  0  1  0  0  0  0  0999 V2000
   37.3610   30.5540   40.0130 C   0  0  0  0  0  0  0  0  0  0  0  0
   36.4300   31.4100   40.1210 O   0  0  0  0  0  0  0  0  0  0  0  0
   38.0820   30.3060   38.8020 N   0  0  0  0  0  0  0  0  0  0  0  0
   37.5050   30.1730   37.4720 C   0  0  0  0  0  0  0  0  0  0  0  0
   38.1210   28.8590   36.9520 C   0  0  0  0  0  0  0  0  0  0  0  0
   39.5070   29.0750   36.6910 N   0  0  0  0  0  0  0  0  0  0  0  0
   40.2160   29.7980   37.6800 C   0  0  0  0  0  0  0  0  0  0  0  0
   39.4890   30.1820   38.9240 C   0  0  1  0  0  0  0  0  0  0  0  0
   38.1410   27.4890   41.8240 C   0  0  0  0  0  0  0  0  0  0  0  0
   38.5910   27.9150   43.0330 C   0  0  0  0  0  0  0  0  0  0  0  0
   38.6380   29.2730   43.2550 C   0  0  0  0  0  0  0  0  0  0  0  0
   38.2580   30.1720   42.3270 N   0  0  0  0  0  0  0  0  0  0  0  0
   37.8120   29.7100   41.1290 C   0  0  0  0  0  0  0  0  0  0  0  0
   37.7660   28.3790   40.9100 N   0  0  0  0  0  0  0  0  0  0  0  0
   39.1180   24.0840   40.8280 C   0  0  0  0  0  0  0  0  0  0  0  0
   37.9000   23.3740   40.9640 C   0  0  0  0  0  0  0  0  0  0  0  0
   36.7800   24.0730   41.3910 C   0  0  0  0  0  0  0  0  0  0  0  0
   36.8860   25.4090   41.6640 N   0  0  0  0  0  0  0  0  0  0  0  0
   38.0660   26.0630   41.5240 C   0  0  0  0  0  0  0  0  0  0  0  0
   39.1520   25.4040   41.1140 N   0  0  0  0  0  0  0  0  0  0  0  0
   40.1620   31.4180   39.4680 C   0  0  0  0  0  0  0  0  0  0  0  0
   41.1270   31.3030   40.6360 C   0  0  0  0  0  0  0  0  0  0  0  0
   41.5810   33.0490   40.8020 S   0  0  0  0  0  0  0  0  0  0  0  0
   40.4700   33.6380   39.3590 C   0  0  0  0  0  0  0  0  0  0  0  0
   39.7670   32.4660   38.7760 N   0  0  0  0  0  0  0  0  0  0  0  0
   36.4085   30.1019   37.5228 H   0  0  0  0  0  0  0  0  0  0  0  0
   37.7148   31.0353   36.8220 H   0  0  0  0  0  0  0  0  0  0  0  0
   38.0057   28.0706   37.7104 H   0  0  0  0  0  0  0  0  0  0  0  0
   37.6105   28.5452   36.0295 H   0  0  0  0  0  0  0  0  0  0  0  0
   39.9566   28.1538   36.5901 H   0  0  0  0  0  0  0  0  0  0  0  0
   41.0764   29.1823   37.9811 H   0  0  0  0  0  0  0  0  0  0  0  0
   40.4591   30.7562   37.1976 H   0  0  0  0  0  0  0  0  0  0  0  0
   39.5644   29.3509   39.6407 H   0  0  0  0  0  0  0  0  0  0  0  0
   38.9067   27.2002   43.8072 H   0  0  0  0  0  0  0  0  0  0  0  0
   38.9998   29.6377   44.2277 H   0  0  0  0  0  0  0  0  0  0  0  0
   40.0282   23.5653   40.4925 H   0  0  0  0  0  0  0  0  0  0  0  0
   37.8436   22.2990   40.7376 H   0  0  0  0  0  0  0  0  0  0  0  0
   35.8156   23.5573   41.5089 H   0  0  0  0  0  0  0  0  0  0  0  0
   41.4527   30.4226   41.2095 H   0  0  0  0  0  0  0  0  0  0  0  0
   40.3682   34.6782   39.0160 H   0  0  0  0  0  0  0  0  0  0  0  0
  1  2  2  0
  1 13  1  0
  3  8  1  0
  3  1  1  0
  4  3  1  0
  5  4  1  0
  6  5  1  0
  6  7  1  0
  7  8  1  0
  8 21  1  0
  9 10  2  0
 10 11  1  0
 12 11  2  0
 13 12  1  0
 14 13  2  0
 14  9  1  0
 15 16  2  0
 15 20  1  0
 16 17  1  0
 17 18  2  0
 19 18  1  0
 19  9  1  0
 20 19  2  0
 21 22  2  0
 22 23  1  0
 24 23  1  0
 25 24  2  0
 25 21  1  0
  4 26  1  0
  4 27  1  0
  5 28  1  0
  5 29  1  0
  6 30  1  0
  7 31  1  0
  7 32  1  0
  8 33  1  1
 10 34  1  0
 11 35  1  0
 15 36  1  0
 16 37  1  0
 17 38  1  0
 22 39  1  0
 24 40  1  0
M  ISO  8  26  13  27  13  28  13  29  13  30   5  31  13  32  13  33  13
M  ISO  7  34  14  35  14  36  14  37  14  38  14  39  14  40  14
M  END
>  <minimizedAffinity>  (1) 
-5.24847412

>  <minimizedRMSD>  (1) 
3.77862644

$$$$
