
     RDKit          3D

 20 20  0  0  0  0  0  0  0  0999 V2000
   38.8090   29.5670   42.2250 C   0  0  0  0  0  0  0  0  0  0  0  0
   38.1110   29.3810   40.9900 C   0  0  0  0  0  0  0  0  0  0  0  0
   37.9200   28.0580   40.6200 C   0  0  0  0  0  0  0  0  0  0  0  0
   38.3790   27.0390   41.4040 N   0  0  0  0  0  0  0  0  0  0  0  0
   39.0270   27.2860   42.5550 C   0  0  0  0  0  0  0  0  0  0  0  0
   39.2410   28.5360   42.9630 N   0  0  0  0  0  0  0  0  0  0  0  0
   37.6750   30.5090   40.2470 N   0  0  0  0  0  0  0  0  0  0  0  0
   36.6800   31.4170   40.6950 C   0  0  0  0  0  0  0  0  0  0  0  0
   35.6590   30.8810   41.3270 N   0  0  0  0  0  0  0  0  0  0  0  0
   36.9260   32.8140   40.3950 N   0  0  0  0  0  0  0  0  0  0  0  0
   34.8930   31.4610   41.6920 H   0  0  0  0  0  0  0  0  0  0  0  0
   39.5310   26.2180   43.4180 C   0  0  0  0  0  0  0  0  0  0  0  0
   39.3550   24.9940   43.1840 O   0  0  0  0  0  0  0  0  0  0  0  0
   40.2580   26.4650   44.5890 O   0  0  0  0  0  0  0  0  0  0  0  0
   38.9972   30.5909   42.5803 H   0  0  0  0  0  0  0  0  0  0  0  0
   37.3920   27.8269   39.6831 H   0  0  0  0  0  0  0  0  0  0  0  0
   38.1065   30.6790   39.3273 H   0  0  0  0  0  0  0  0  0  0  0  0
   36.2476   33.5311   40.6890 H   0  0  0  0  0  0  0  0  0  0  0  0
   37.7792   33.0893   39.8879 H   0  0  0  0  0  0  0  0  0  0  0  0
   40.5787   25.7086   45.1413 H   0  0  0  0  0  0  0  0  0  0  0  0
  1  6  2  0
  2  1  1  0
  3  2  2  0
  3  4  1  0
  4  5  2  0
  5  6  1  0
  5 12  1  0
  7  8  1  0
  7  2  1  0
  8  9  2  0
  9 11  1  0
 10  8  1  0
 12 14  1  0
 13 12  2  0
  1 15  1  0
  3 16  1  0
  7 17  1  0
 10 18  1  0
 10 19  1  0
 14 20  1  0
M  ISO  3  15  14  16  14  20   3
M  END
>  <minimizedAffinity>  (1) 
-4.67177629

>  <minimizedRMSD>  (1) 
0.716867685

$$$$
