
     RDKit          3D

 47 50  0  0  1  0  0  0  0  0999 V2000
   38.7630   28.3830   36.9800 C   0  0  0  0  0  0  0  0  0  0  0  0
   38.3550   28.1320   35.8040 O   0  0  0  0  0  0  0  0  0  0  0  0
   39.9660   27.8290   37.5280 N   0  0  0  0  0  0  0  0  0  0  0  0
   40.4150   26.4490   37.4420 C   0  0  0  0  0  0  0  0  0  0  0  0
   40.7320   26.0780   38.8950 C   0  0  0  0  0  0  0  0  0  0  0  0
   41.9210   26.7680   39.2750 N   0  0  0  0  0  0  0  0  0  0  0  0
   41.9720   28.1440   38.9260 C   0  0  0  0  0  0  0  0  0  0  0  0
   40.8170   28.7460   38.2400 C   0  0  1  0  0  0  0  0  0  0  0  0
   37.3260   29.4780   40.1420 C   0  0  0  0  0  0  0  0  0  0  0  0
   36.7870   30.7060   39.8520 C   0  0  0  0  0  0  0  0  0  0  0  0
   36.9050   31.1780   38.5740 C   0  0  0  0  0  0  0  0  0  0  0  0
   37.5320   30.4790   37.5910 N   0  0  0  0  0  0  0  0  0  0  0  0
   38.0550   29.2660   37.9160 C   0  0  0  0  0  0  0  0  0  0  0  0
   37.9450   28.7900   39.1730 N   0  0  0  0  0  0  0  0  0  0  0  0
   37.7730   29.0570   43.7560 C   0  0  0  0  0  0  0  0  0  0  0  0
   37.0500   27.8530   43.9990 C   0  0  0  0  0  0  0  0  0  0  0  0
   36.4440   27.2360   42.9360 C   0  0  0  0  0  0  0  0  0  0  0  0
   36.5520   27.7890   41.6930 N   0  0  0  0  0  0  0  0  0  0  0  0
   37.2340   28.9250   41.4710 C   0  0  0  0  0  0  0  0  0  0  0  0
   37.8350   29.5400   42.5080 N   0  0  0  0  0  0  0  0  0  0  0  0
   41.1980   29.8590   37.4530 N   0  0  0  0  0  0  0  0  0  0  0  0
   42.1430   29.7080   36.4280 C   0  0  0  0  0  0  0  0  0  0  0  0
   43.2240   30.7690   36.3660 C   0  0  0  0  0  0  0  0  0  0  0  0
   42.7630   32.0200   36.7790 O   0  0  0  0  0  0  0  0  0  0  0  0
   42.3630   31.8410   38.1120 C   0  0  0  0  0  0  0  0  0  0  0  0
   41.0260   31.1400   38.0260 C   0  0  0  0  0  0  0  0  0  0  0  0
   39.6222   25.8033   37.0364 H   0  0  0  0  0  0  0  0  0  0  0  0
   41.2783   26.3229   36.7721 H   0  0  0  0  0  0  0  0  0  0  0  0
   39.8998   26.3802   39.5478 H   0  0  0  0  0  0  0  0  0  0  0  0
   40.8729   24.9913   38.9906 H   0  0  0  0  0  0  0  0  0  0  0  0
   42.0148   26.6972   40.2983 H   0  0  0  0  0  0  0  0  0  0  0  0
   42.1243   28.7082   39.8579 H   0  0  0  0  0  0  0  0  0  0  0  0
   42.7808   28.1995   38.1826 H   0  0  0  0  0  0  0  0  0  0  0  0
   40.1724   29.1078   39.0547 H   0  0  0  0  0  0  0  0  0  0  0  0
   36.2739   31.2949   40.6266 H   0  0  0  0  0  0  0  0  0  0  0  0
   36.4759   32.1615   38.3320 H   0  0  0  0  0  0  0  0  0  0  0  0
   38.2736   29.5828   44.5824 H   0  0  0  0  0  0  0  0  0  0  0  0
   36.9803   27.4305   45.0122 H   0  0  0  0  0  0  0  0  0  0  0  0
   35.8767   26.3051   43.0830 H   0  0  0  0  0  0  0  0  0  0  0  0
   42.6343   28.7331   36.5628 H   0  0  0  0  0  0  0  0  0  0  0  0
   41.5805   29.7992   35.4871 H   0  0  0  0  0  0  0  0  0  0  0  0
   44.0556   30.4653   37.0189 H   0  0  0  0  0  0  0  0  0  0  0  0
   43.5476   30.8587   35.3185 H   0  0  0  0  0  0  0  0  0  0  0  0
   43.0912   31.2203   38.6546 H   0  0  0  0  0  0  0  0  0  0  0  0
   42.2964   32.7947   38.6561 H   0  0  0  0  0  0  0  0  0  0  0  0
   40.3418   31.7320   37.4003 H   0  0  0  0  0  0  0  0  0  0  0  0
   40.6032   31.0346   39.0360 H   0  0  0  0  0  0  0  0  0  0  0  0
  1  3  1  0
  1 13  1  0
  2  1  2  0
  3  8  1  0
  4  3  1  0
  4  5  1  0
  5  6  1  0
  7  6  1  0
  8  7  1  0
  9 19  1  0
 10  9  2  0
 11 10  1  0
 12 13  1  0
 12 11  2  0
 13 14  2  0
 14  9  1  0
 15 16  2  0
 17 16  1  0
 18 17  2  0
 19 18  1  0
 19 20  2  0
 20 15  1  0
 21 26  1  0
 21  8  1  0
 22 21  1  0
 23 22  1  0
 23 24  1  0
 24 25  1  0
 26 25  1  0
  4 27  1  0
  4 28  1  0
  5 29  1  0
  5 30  1  0
  6 31  1  0
  7 32  1  0
  7 33  1  0
  8 34  1  1
 10 35  1  0
 11 36  1  0
 15 37  1  0
 16 38  1  0
 17 39  1  0
 22 40  1  0
 22 41  1  0
 23 42  1  0
 23 43  1  0
 25 44  1  0
 25 45  1  0
 26 46  1  0
 26 47  1  0
M  ISO  8  27  13  28  13  29  13  30  13  31   5  32  13  33  13  34  13
M  ISO  8  35  14  36  14  37  14  38  14  39  14  40  13  41  13  42  13
M  ISO  5  43  13  44  13  45  13  46  13  47  13
M  END
>  <minimizedAffinity>  (1) 
-4.89126635

>  <minimizedRMSD>  (1) 
1.76665652

$$$$
