
     RDKit          3D

 40 42  0  0  1  0  0  0  0  0999 V2000
   37.2990   31.0490   40.7010 C   0  0  0  0  0  0  0  0  0  0  0  0
   36.2780   30.9430   41.4290 O   0  0  0  0  0  0  0  0  0  0  0  0
   37.9140   29.9590   40.0080 N   0  0  0  0  0  0  0  0  0  0  0  0
   38.1720   28.6370   40.5610 C   0  0  0  0  0  0  0  0  0  0  0  0
   39.6570   28.3990   40.2390 C   0  0  0  0  0  0  0  0  0  0  0  0
   39.7800   28.1970   38.8210 N   0  0  0  0  0  0  0  0  0  0  0  0
   39.0480   29.0850   37.9990 C   0  0  0  0  0  0  0  0  0  0  0  0
   38.3040   30.1980   38.6540 C   0  0  1  0  0  0  0  0  0  0  0  0
   40.1000   33.3850   40.5330 C   0  0  0  0  0  0  0  0  0  0  0  0
   39.5350   34.5600   40.1130 C   0  0  0  0  0  0  0  0  0  0  0  0
   38.1760   34.5760   39.8790 C   0  0  0  0  0  0  0  0  0  0  0  0
   37.4170   33.4840   40.0510 N   0  0  0  0  0  0  0  0  0  0  0  0
   38.0000   32.3240   40.4700 C   0  0  0  0  0  0  0  0  0  0  0  0
   39.3330   32.3100   40.6990 N   0  0  0  0  0  0  0  0  0  0  0  0
   43.6970   34.1310   40.4330 C   0  0  0  0  0  0  0  0  0  0  0  0
   44.2190   33.1370   41.3100 C   0  0  0  0  0  0  0  0  0  0  0  0
   43.3400   32.2540   41.9010 C   0  0  0  0  0  0  0  0  0  0  0  0
   42.0030   32.3640   41.6250 N   0  0  0  0  0  0  0  0  0  0  0  0
   41.5210   33.3050   40.7970 C   0  0  0  0  0  0  0  0  0  0  0  0
   42.3720   34.1740   40.2140 N   0  0  0  0  0  0  0  0  0  0  0  0
   37.1750   30.6620   37.7560 C   0  0  0  0  0  0  0  0  0  0  0  0
   37.7830   31.7540   36.8800 C   0  0  0  0  0  0  0  0  0  0  0  0
   37.9978   28.6239   41.6470 H   0  0  0  0  0  0  0  0  0  0  0  0
   37.5127   27.8613   40.1443 H   0  0  0  0  0  0  0  0  0  0  0  0
   40.2495   29.2743   40.5436 H   0  0  0  0  0  0  0  0  0  0  0  0
   40.0283   27.5180   40.7829 H   0  0  0  0  0  0  0  0  0  0  0  0
   40.7760   28.2898   38.5754 H   0  0  0  0  0  0  0  0  0  0  0  0
   38.3134   28.4843   37.4427 H   0  0  0  0  0  0  0  0  0  0  0  0
   39.8141   29.5890   37.3915 H   0  0  0  0  0  0  0  0  0  0  0  0
   39.0141   31.0301   38.7699 H   0  0  0  0  0  0  0  0  0  0  0  0
   40.1463   35.4628   39.9669 H   0  0  0  0  0  0  0  0  0  0  0  0
   37.7019   35.5097   39.5422 H   0  0  0  0  0  0  0  0  0  0  0  0
   44.3680   34.8518   39.9429 H   0  0  0  0  0  0  0  0  0  0  0  0
   45.2987   33.0753   41.5111 H   0  0  0  0  0  0  0  0  0  0  0  0
   43.7070   31.4733   42.5836 H   0  0  0  0  0  0  0  0  0  0  0  0
   36.8082   29.8303   37.1366 H   0  0  0  0  0  0  0  0  0  0  0  0
   36.3148   31.0304   38.3343 H   0  0  0  0  0  0  0  0  0  0  0  0
   38.2186   32.5364   37.5188 H   0  0  0  0  0  0  0  0  0  0  0  0
   38.5690   31.3194   36.2449 H   0  0  0  0  0  0  0  0  0  0  0  0
   36.9996   32.1932   36.2449 H   0  0  0  0  0  0  0  0  0  0  0  0
  1  2  2  0
  3  4  1  0
  3  1  1  0
  5  4  1  0
  6  5  1  0
  7  8  1  0
  7  6  1  0
  8  3  1  0
  9 14  1  0
  9 19  1  0
 10  9  2  0
 11 12  2  0
 11 10  1  0
 12 13  1  0
 13 14  2  0
 13  1  1  0
 15 16  2  0
 16 17  1  0
 18 17  2  0
 19 18  1  0
 20 15  1  0
 20 19  2  0
 21  8  1  0
 22 21  1  0
  4 23  1  0
  4 24  1  0
  5 25  1  0
  5 26  1  0
  6 27  1  0
  7 28  1  0
  7 29  1  0
  8 30  1  1
 10 31  1  0
 11 32  1  0
 15 33  1  0
 16 34  1  0
 17 35  1  0
 21 36  1  0
 21 37  1  0
 22 38  1  0
 22 39  1  0
 22 40  1  0
M  ISO  8  23  13  24  13  25  13  26  13  27   5  28  13  29  13  30  13
M  ISO  8  31  14  32  14  33  14  34  14  35  14  36   8  37   8  38   8
M  ISO  2  39   8  40   8
M  END
>  <minimizedAffinity>  (1) 
-4.58560181

>  <minimizedRMSD>  (1) 
4.98805523

$$$$
