
     RDKit          3D

 23 24  0  0  0  0  0  0  0  0999 V2000
   38.8440   30.5510   42.1640 C   0  0  0  0  0  0  0  0  0  0  0  0
   37.6020   29.9720   41.7780 C   0  0  0  0  0  0  0  0  0  0  0  0
   37.3220   30.0520   40.4270 C   0  0  0  0  0  0  0  0  0  0  0  0
   38.1950   30.6440   39.5680 N   0  0  0  0  0  0  0  0  0  0  0  0
   39.3560   31.1760   39.9800 C   0  0  0  0  0  0  0  0  0  0  0  0
   39.6760   31.1260   41.2880 N   0  0  0  0  0  0  0  0  0  0  0  0
   40.1880   31.7690   38.9880 N   0  0  0  0  0  0  0  0  0  0  0  0
   40.5360   33.0700   39.1270 C   0  0  0  0  0  0  0  0  0  0  0  0
   41.3290   33.4360   38.0770 N   0  0  0  0  0  0  0  0  0  0  0  0
   41.4570   32.3300   37.2950 C   0  0  0  0  0  0  0  0  0  0  0  0
   40.7570   31.3260   37.8660 N   0  0  0  0  0  0  0  0  0  0  0  0
   36.7840   29.3860   42.7750 N   0  0  0  0  0  0  0  0  0  0  0  0
   37.1800   28.3380   43.6310 C   0  0  0  0  0  0  0  0  0  0  0  0
   37.9360   27.4090   43.0840 N   0  0  0  0  0  0  0  0  0  0  0  0
   36.7010   28.4280   44.9950 N   0  0  0  0  0  0  0  0  0  0  0  0
   38.2780   26.6100   43.6410 H   0  0  0  0  0  0  0  0  0  0  0  0
   39.1313   30.5246   43.2255 H   0  0  0  0  0  0  0  0  0  0  0  0
   36.3814   29.6317   40.0415 H   0  0  0  0  0  0  0  0  0  0  0  0
   40.2290   33.7274   39.9538 H   0  0  0  0  0  0  0  0  0  0  0  0
   42.0315   32.2648   36.3592 H   0  0  0  0  0  0  0  0  0  0  0  0
   35.8277   29.7532   42.8827 H   0  0  0  0  0  0  0  0  0  0  0  0
   36.9501   27.6980   45.6776 H   0  0  0  0  0  0  0  0  0  0  0  0
   36.1112   29.2220   45.2824 H   0  0  0  0  0  0  0  0  0  0  0  0
  2  1  2  0
  2 12  1  0
  3  2  1  0
  4  5  1  0
  4  3  2  0
  5  6  2  0
  6  1  1  0
  7  8  1  0
  7  5  1  0
  9  8  2  0
 10 11  2  0
 10  9  1  0
 11  7  1  0
 12 13  1  0
 13 15  1  0
 14 13  2  0
 14 16  1  0
  1 17  1  0
  3 18  1  0
  8 19  1  0
 10 20  1  0
 12 21  1  0
 15 22  1  0
 15 23  1  0
M  ISO  4  17  14  18  14  19  14  20  14
M  END
>  <minimizedAffinity>  (1) 
-4.62260485

>  <minimizedRMSD>  (1) 
6.60923052

$$$$
