
     RDKit          3D

 25 27  0  0  0  0  0  0  0  0999 V2000
   38.5320   24.9570   42.7040 C   0  0  0  0  0  0  0  0  0  0  0  0
   39.7810   24.6300   43.0870 N   0  0  0  0  0  0  0  0  0  0  0  0
   40.6350   25.6090   43.4620 C   0  0  0  0  0  0  0  0  0  0  0  0
   40.3270   26.9200   43.4820 N   0  0  0  0  0  0  0  0  0  0  0  0
   39.0900   27.2840   43.1060 C   0  0  0  0  0  0  0  0  0  0  0  0
   38.8040   28.6300   43.1360 C   0  0  0  0  0  0  0  0  0  0  0  0
   37.5410   29.0400   42.7560 C   0  0  0  0  0  0  0  0  0  0  0  0
   36.6060   28.1050   42.3590 C   0  0  0  0  0  0  0  0  0  0  0  0
   36.9540   26.7710   42.3500 C   0  0  0  0  0  0  0  0  0  0  0  0
   38.2030   26.3150   42.7210 C   0  0  0  0  0  0  0  0  0  0  0  0
   37.5050   24.1220   42.2850 O   0  0  0  0  0  0  0  0  0  0  0  0
   36.3700   23.1960   38.9500 C   0  0  0  0  0  0  0  0  0  0  0  0
   36.4110   23.7840   40.2300 C   0  0  0  0  0  0  0  0  0  0  0  0
   37.5130   23.5290   41.0550 C   0  0  0  0  0  0  0  0  0  0  0  0
   38.4910   22.7220   40.5750 N   0  0  0  0  0  0  0  0  0  0  0  0
   38.4290   22.1730   39.3500 C   0  0  0  0  0  0  0  0  0  0  0  0
   37.3760   22.4080   38.5430 N   0  0  0  0  0  0  0  0  0  0  0  0
   41.6489   25.3151   43.7714 H   0  0  0  0  0  0  0  0  0  0  0  0
   39.5621   29.3607   43.4545 H   0  0  0  0  0  0  0  0  0  0  0  0
   37.2808   30.1087   42.7696 H   0  0  0  0  0  0  0  0  0  0  0  0
   35.5972   28.4201   42.0540 H   0  0  0  0  0  0  0  0  0  0  0  0
   36.2007   26.0351   42.0321 H   0  0  0  0  0  0  0  0  0  0  0  0
   35.5137   23.3831   38.2853 H   0  0  0  0  0  0  0  0  0  0  0  0
   35.5917   24.4319   40.5748 H   0  0  0  0  0  0  0  0  0  0  0  0
   39.2468   21.5247   39.0024 H   0  0  0  0  0  0  0  0  0  0  0  0
  1 10  1  0
  1  2  2  0
  2  3  1  0
  3  4  2  0
  5  6  2  0
  5  4  1  0
  7  6  1  0
  8  7  2  0
  9  8  1  0
  9 10  2  0
 10  5  1  0
 11  1  1  0
 12 13  2  0
 13 14  1  0
 14 11  1  0
 15 14  2  0
 16 15  1  0
 17 12  1  0
 17 16  2  0
  3 18  1  0
  6 19  1  0
  7 20  1  0
  8 21  1  0
  9 22  1  0
 12 23  1  0
 13 24  1  0
 16 25  1  0
M  ISO  8  18  14  19  14  20  14  21  14  22  14  23  14  24  14  25  14
M  END
>  <minimizedAffinity>  (1) 
-4.66709089

>  <minimizedRMSD>  (1) 
5.91444778

$$$$
