
     RDKit          3D

 20 21  0  0  0  0  0  0  0  0999 V2000
   38.1450   29.0590   43.3140 C   0  0  0  0  0  0  0  0  0  0  0  0
   37.9010   27.6850   43.4480 C   0  0  0  0  0  0  0  0  0  0  0  0
   37.0270   27.0670   42.5450 C   0  0  0  0  0  0  0  0  0  0  0  0
   36.4610   27.8420   41.5870 N   0  0  0  0  0  0  0  0  0  0  0  0
   36.7070   29.1550   41.4770 C   0  0  0  0  0  0  0  0  0  0  0  0
   37.5470   29.7620   42.3380 N   0  0  0  0  0  0  0  0  0  0  0  0
   36.8040   25.7240   42.6950 O   0  0  0  0  0  0  0  0  0  0  0  0
   37.3880   24.8590   41.7790 C   0  0  0  0  0  0  0  0  0  0  0  0
   36.4400   24.1450   41.0740 C   0  0  0  0  0  0  0  0  0  0  0  0
   36.8160   23.2240   40.1070 C   0  0  0  0  0  0  0  0  0  0  0  0
   38.1380   22.9830   39.8120 C   0  0  0  0  0  0  0  0  0  0  0  0
   39.0310   23.7460   40.5710 C   0  0  0  0  0  0  0  0  0  0  0  0
   38.6830   24.6410   41.5090 N   0  0  0  0  0  0  0  0  0  0  0  0
   38.8295   29.5639   44.0115 H   0  0  0  0  0  0  0  0  0  0  0  0
   38.3862   27.1041   44.2462 H   0  0  0  0  0  0  0  0  0  0  0  0
   36.2215   29.7389   40.6812 H   0  0  0  0  0  0  0  0  0  0  0  0
   35.3722   24.3085   41.2817 H   0  0  0  0  0  0  0  0  0  0  0  0
   36.0365   22.6718   39.5617 H   0  0  0  0  0  0  0  0  0  0  0  0
   38.4621   22.2582   39.0506 H   0  0  0  0  0  0  0  0  0  0  0  0
   40.1053   23.6011   40.3843 H   0  0  0  0  0  0  0  0  0  0  0  0
  1  2  2  0
  3  7  1  0
  3  2  1  0
  4  3  2  0
  5  4  1  0
  5  6  2  0
  6  1  1  0
  8  7  1  0
  9  8  2  0
 10  9  1  0
 11 10  2  0
 11 12  1  0
 12 13  2  0
 13  8  1  0
  1 14  1  0
  2 15  1  0
  5 16  1  0
  9 17  1  0
 10 18  1  0
 11 19  1  0
 12 20  1  0
M  ISO  7  14  14  15  14  16  14  17  14  18  14  19  14  20  14
M  END
>  <minimizedAffinity>  (1) 
-3.71216774

>  <minimizedRMSD>  (1) 
2.2048471

$$$$
