
     RDKit          3D

 19 20  0  0  0  0  0  0  0  0999 V2000
   41.1730   26.7960   44.1550 C   0  0  0  0  0  0  0  0  0  0  0  0
   39.8120   26.4270   43.9860 C   0  0  0  0  0  0  0  0  0  0  0  0
   38.9850   27.2400   43.2310 C   0  0  0  0  0  0  0  0  0  0  0  0
   39.5280   28.3670   42.6810 N   0  0  0  0  0  0  0  0  0  0  0  0
   40.8220   28.7070   42.8490 C   0  0  0  0  0  0  0  0  0  0  0  0
   41.6180   27.9250   43.5750 N   0  0  0  0  0  0  0  0  0  0  0  0
   37.6820   26.8400   43.0990 O   0  0  0  0  0  0  0  0  0  0  0  0
   37.2220   26.1160   41.9810 C   0  0  0  0  0  0  0  0  0  0  0  0
   37.0040   24.7610   42.1350 C   0  0  0  0  0  0  0  0  0  0  0  0
   36.5550   24.1120   41.0040 C   0  0  0  0  0  0  0  0  0  0  0  0
   36.3380   24.7210   39.8360 N   0  0  0  0  0  0  0  0  0  0  0  0
   36.5610   26.0520   39.7160 C   0  0  0  0  0  0  0  0  0  0  0  0
   37.0020   26.7230   40.8020 N   0  0  0  0  0  0  0  0  0  0  0  0
   41.8523   26.1685   44.7507 H   0  0  0  0  0  0  0  0  0  0  0  0
   39.4211   25.5086   44.4484 H   0  0  0  0  0  0  0  0  0  0  0  0
   41.2174   29.6247   42.3891 H   0  0  0  0  0  0  0  0  0  0  0  0
   37.1755   24.2388   43.0878 H   0  0  0  0  0  0  0  0  0  0  0  0
   36.3648   23.0305   41.0680 H   0  0  0  0  0  0  0  0  0  0  0  0
   36.3879   26.5711   38.7617 H   0  0  0  0  0  0  0  0  0  0  0  0
  2  1  2  0
  3  2  1  0
  4  5  1  0
  4  3  2  0
  5  6  2  0
  6  1  1  0
  7  3  1  0
  8  9  2  0
  8  7  1  0
 10  9  1  0
 11 10  2  0
 12 11  1  0
 12 13  2  0
 13  8  1  0
  1 14  1  0
  2 15  1  0
  5 16  1  0
  9 17  1  0
 10 18  1  0
 12 19  1  0
M  ISO  6  14  14  15  14  16  14  17  14  18  14  19  14
M  END
>  <minimizedAffinity>  (1) 
-3.62597108

>  <minimizedRMSD>  (1) 
2.85557628

$$$$
