
     RDKit          3D

 18 19  0  0  0  0  0  0  0  0999 V2000
   38.1770   29.0720   43.3170 C   0  0  0  0  0  0  0  0  0  0  0  0
   37.8670   27.7180   43.5100 C   0  0  0  0  0  0  0  0  0  0  0  0
   36.9600   27.1090   42.6270 C   0  0  0  0  0  0  0  0  0  0  0  0
   36.4360   27.8780   41.6370 N   0  0  0  0  0  0  0  0  0  0  0  0
   36.7470   29.1750   41.4720 C   0  0  0  0  0  0  0  0  0  0  0  0
   37.6160   29.7710   42.3100 N   0  0  0  0  0  0  0  0  0  0  0  0
   36.6750   25.7890   42.8350 O   0  0  0  0  0  0  0  0  0  0  0  0
   37.3720   24.8360   42.0990 C   0  0  0  0  0  0  0  0  0  0  0  0
   38.6600   24.3310   41.9710 C   0  0  0  0  0  0  0  0  0  0  0  0
   38.6000   23.3690   41.0080 N   0  0  0  0  0  0  0  0  0  0  0  0
   37.3400   23.2710   40.5520 C   0  0  0  0  0  0  0  0  0  0  0  0
   36.5900   24.1760   41.2270 N   0  0  0  0  0  0  0  0  0  0  0  0
   38.8861   29.5694   43.9951 H   0  0  0  0  0  0  0  0  0  0  0  0
   38.3228   27.1470   44.3324 H   0  0  0  0  0  0  0  0  0  0  0  0
   36.2915   29.7497   40.6521 H   0  0  0  0  0  0  0  0  0  0  0  0
   39.5507   24.6452   42.5348 H   0  0  0  0  0  0  0  0  0  0  0  0
   36.9823   22.5819   39.7728 H   0  0  0  0  0  0  0  0  0  0  0  0
   35.5809   24.3332   41.0931 H   0  0  0  0  0  0  0  0  0  0  0  0
  1  2  2  0
  3  7  1  0
  3  2  1  0
  4  3  2  0
  5  4  1  0
  5  6  2  0
  6  1  1  0
  8  7  1  0
  9  8  2  0
 10  9  1  0
 11 10  2  0
 11 12  1  0
 12  8  1  0
  1 13  1  0
  2 14  1  0
  5 15  1  0
  9 16  1  0
 11 17  1  0
 12 18  1  0
M  ISO  6  13  14  14  14  15  14  16  14  17  14  18   9
M  END
>  <minimizedAffinity>  (1) 
-3.4983356

>  <minimizedRMSD>  (1) 
2.04064941

$$$$
