
     RDKit          3D

 23 24  0  0  1  0  0  0  0  0999 V2000
   37.9660   28.9710   43.3810 C   0  0  0  0  0  0  0  0  0  0  0  0
   37.8860   27.5740   43.3620 C   0  0  0  0  0  0  0  0  0  0  0  0
   37.1770   26.9630   42.3270 C   0  0  0  0  0  0  0  0  0  0  0  0
   36.5970   27.7490   41.3860 N   0  0  0  0  0  0  0  0  0  0  0  0
   36.6840   29.0920   41.4230 C   0  0  0  0  0  0  0  0  0  0  0  0
   37.3610   29.7010   42.4070 N   0  0  0  0  0  0  0  0  0  0  0  0
   37.1190   25.5950   42.3380 O   0  0  0  0  0  0  0  0  0  0  0  0
   38.3690   25.5650   40.4100 N   0  0  0  0  0  0  0  0  0  0  0  0
   39.4300   24.6030   40.6100 C   0  0  0  0  0  0  0  0  0  0  0  0
   38.6750   23.3230   40.2240 C   0  0  0  0  0  0  0  0  0  0  0  0
   37.5240   23.4750   41.2150 C   0  0  0  0  0  0  0  0  0  0  0  0
   37.2440   24.9520   41.0830 C   0  0  1  0  0  0  0  0  0  0  0  0
   38.5190   29.4788   44.1849 H   0  0  0  0  0  0  0  0  0  0  0  0
   38.3706   26.9717   44.1445 H   0  0  0  0  0  0  0  0  0  0  0  0
   36.1967   29.6932   40.6412 H   0  0  0  0  0  0  0  0  0  0  0  0
   38.6063   26.4721   40.8364 H   0  0  0  0  0  0  0  0  0  0  0  0
   40.2871   24.7914   39.9468 H   0  0  0  0  0  0  0  0  0  0  0  0
   39.8810   24.6001   41.6133 H   0  0  0  0  0  0  0  0  0  0  0  0
   38.3336   23.3357   39.1784 H   0  0  0  0  0  0  0  0  0  0  0  0
   39.2446   22.3833   40.2737 H   0  0  0  0  0  0  0  0  0  0  0  0
   36.6538   22.8686   40.9234 H   0  0  0  0  0  0  0  0  0  0  0  0
   37.7513   23.1402   42.2379 H   0  0  0  0  0  0  0  0  0  0  0  0
   36.2979   25.0612   40.5325 H   0  0  0  0  0  0  0  0  0  0  0  0
  2  1  2  0
  3  7  1  0
  3  2  1  0
  4  5  1  0
  4  3  2  0
  5  6  2  0
  6  1  1  0
  8  9  1  0
  8 12  1  0
 10  9  1  0
 10 11  1  0
 12 11  1  0
 12  7  1  0
  1 13  1  0
  2 14  1  0
  5 15  1  0
  8 16  1  0
  9 17  1  0
  9 18  1  0
 10 19  1  0
 10 20  1  0
 11 21  1  0
 11 22  1  0
 12 23  1  6
M  ISO  8  13  14  14  14  15  14  16   5  17  13  18  13  19  13  20  13
M  ISO  3  21  13  22  13  23  13
M  END
>  <minimizedAffinity>  (1) 
-3.38175964

>  <minimizedRMSD>  (1) 
1.45654714

$$$$
