
     RDKit          3D

 18 19  0  0  0  0  0  0  0  0999 V2000
   37.9260   28.8610   43.4140 C   0  0  0  0  0  0  0  0  0  0  0  0
   37.8390   27.4690   43.3130 C   0  0  0  0  0  0  0  0  0  0  0  0
   37.1520   26.9370   42.2340 C   0  0  0  0  0  0  0  0  0  0  0  0
   36.5890   27.7870   41.3170 N   0  0  0  0  0  0  0  0  0  0  0  0
   36.6930   29.1360   41.4470 C   0  0  0  0  0  0  0  0  0  0  0  0
   37.3560   29.6590   42.4870 N   0  0  0  0  0  0  0  0  0  0  0  0
   37.0780   25.5760   42.1520 O   0  0  0  0  0  0  0  0  0  0  0  0
   37.4470   24.7950   41.0490 C   0  0  0  0  0  0  0  0  0  0  0  0
   37.7030   23.3630   41.1150 C   0  0  0  0  0  0  0  0  0  0  0  0
   36.3530   23.8170   40.6180 C   0  0  0  0  0  0  0  0  0  0  0  0
   38.4660   29.3113   44.2600 H   0  0  0  0  0  0  0  0  0  0  0  0
   38.3021   26.8161   44.0675 H   0  0  0  0  0  0  0  0  0  0  0  0
   36.2330   29.7980   40.6986 H   0  0  0  0  0  0  0  0  0  0  0  0
   38.0589   25.6070   40.6292 H   0  0  0  0  0  0  0  0  0  0  0  0
   38.4153   22.9046   40.4132 H   0  0  0  0  0  0  0  0  0  0  0  0
   38.0357   22.6809   41.9112 H   0  0  0  0  0  0  0  0  0  0  0  0
   35.4550   23.6769   41.2376 H   0  0  0  0  0  0  0  0  0  0  0  0
   35.7438   23.6550   39.7166 H   0  0  0  0  0  0  0  0  0  0  0  0
  2  1  2  0
  3  2  1  0
  4  5  1  0
  4  3  2  0
  5  6  2  0
  6  1  1  0
  7  3  1  0
  8  9  1  0
  8  7  1  0
 10  8  1  0
 10  9  1  0
  1 11  1  0
  2 12  1  0
  5 13  1  0
  8 14  1  0
  9 15  1  0
  9 16  1  0
 10 17  1  0
 10 18  1  0
M  ISO  8  11  14  12  14  13  14  14  13  15  13  16  13  17  13  18  13
M  END
>  <minimizedAffinity>  (1) 
-3.1166389

>  <minimizedRMSD>  (1) 
1.22553074

$$$$
