
     RDKit          3D

 23 23  0  0  0  0  0  0  0  0999 V2000
   37.0150   27.8040   43.6740 C   0  0  0  0  0  0  0  0  0  0  0  0
   38.3780   27.4230   43.7580 C   0  0  0  0  0  0  0  0  0  0  0  0
   39.0780   27.1290   42.5950 C   0  0  0  0  0  0  0  0  0  0  0  0
   38.4100   27.2220   41.4120 N   0  0  0  0  0  0  0  0  0  0  0  0
   37.1150   27.5850   41.3610 C   0  0  0  0  0  0  0  0  0  0  0  0
   36.4250   27.8730   42.4710 N   0  0  0  0  0  0  0  0  0  0  0  0
   40.3880   26.7690   42.7430 O   0  0  0  0  0  0  0  0  0  0  0  0
   40.9890   25.5430   42.4770 C   0  0  0  0  0  0  0  0  0  0  0  0
   41.1590   25.2630   41.0060 C   0  0  0  0  0  0  0  0  0  0  0  0
   39.9920   24.4920   42.9870 C   0  0  0  0  0  0  0  0  0  0  0  0
   42.2980   25.3340   43.2160 C   0  0  0  0  0  0  0  0  0  0  0  0
   36.4470   28.0406   44.5858 H   0  0  0  0  0  0  0  0  0  0  0  0
   38.8771   27.3607   44.7363 H   0  0  0  0  0  0  0  0  0  0  0  0
   36.6122   27.6464   40.3846 H   0  0  0  0  0  0  0  0  0  0  0  0
   41.7257   24.3296   40.8735 H   0  0  0  0  0  0  0  0  0  0  0  0
   40.1700   25.1614   40.5354 H   0  0  0  0  0  0  0  0  0  0  0  0
   41.7054   26.0936   40.5354 H   0  0  0  0  0  0  0  0  0  0  0  0
   39.9910   24.4909   44.0870 H   0  0  0  0  0  0  0  0  0  0  0  0
   38.9839   24.7343   42.6196 H   0  0  0  0  0  0  0  0  0  0  0  0
   40.2871   23.4980   42.6196 H   0  0  0  0  0  0  0  0  0  0  0  0
   42.1156   25.3631   44.3004 H   0  0  0  0  0  0  0  0  0  0  0  0
   42.7220   24.3568   42.9416 H   0  0  0  0  0  0  0  0  0  0  0  0
   43.0052   26.1306   42.9416 H   0  0  0  0  0  0  0  0  0  0  0  0
  1  2  2  0
  3  7  1  0
  3  2  1  0
  4  3  2  0
  5  4  1  0
  5  6  2  0
  6  1  1  0
  8  7  1  0
  8 10  1  0
  8 11  1  0
  9  8  1  0
  1 12  1  0
  2 13  1  0
  5 14  1  0
  9 15  1  0
  9 16  1  0
  9 17  1  0
 10 18  1  0
 10 19  1  0
 10 20  1  0
 11 21  1  0
 11 22  1  0
 11 23  1  0
M  ISO  8  12  14  13  14  14  14  15   8  16   8  17   8  18   8  19   8
M  ISO  4  20   8  21   8  22   8  23   8
M  END
>  <minimizedAffinity>  (1) 
-3.05473423

>  <minimizedRMSD>  (1) 
3.89986515

$$$$
