
     RDKit          3D

 22 24  0  0  0  0  0  0  0  0999 V2000
   39.1650   27.9030   40.5320 O   0  0  0  0  0  0  0  0  0  0  0  0
   35.4250   30.4780   40.8400 N   0  0  0  0  0  0  0  0  0  0  0  0
   35.1370   29.1820   40.6330 C   0  0  0  0  0  0  0  0  0  0  0  0
   36.2970   28.5020   40.5560 N   0  0  0  0  0  0  0  0  0  0  0  0
   37.3470   29.3430   40.7110 C   0  0  0  0  0  0  0  0  0  0  0  0
   38.7300   29.2070   40.7240 C   0  0  0  0  0  0  0  0  0  0  0  0
   39.4980   30.3120   40.9130 N   0  0  0  0  0  0  0  0  0  0  0  0
   38.9150   31.5120   41.0840 C   0  0  0  0  0  0  0  0  0  0  0  0
   37.5710   31.6860   41.0790 N   0  0  0  0  0  0  0  0  0  0  0  0
   36.7630   30.6020   40.8920 C   0  0  0  0  0  0  0  0  0  0  0  0
   39.5080   24.8950   42.5620 C   0  0  0  0  0  0  0  0  0  0  0  0
   39.2760   25.7440   41.4460 C   0  0  0  0  0  0  0  0  0  0  0  0
   39.3970   27.1290   41.6360 C   0  0  0  0  0  0  0  0  0  0  0  0
   39.7270   27.6020   42.8760 N   0  0  0  0  0  0  0  0  0  0  0  0
   39.9380   26.7620   43.9100 C   0  0  0  0  0  0  0  0  0  0  0  0
   39.8320   25.4230   43.7630 N   0  0  0  0  0  0  0  0  0  0  0  0
   34.7414   31.2418   40.9410 H   0  0  0  0  0  0  0  0  0  0  0  0
   34.1289   28.7512   40.5422 H   0  0  0  0  0  0  0  0  0  0  0  0
   39.5580   32.3917   41.2347 H   0  0  0  0  0  0  0  0  0  0  0  0
   39.4235   23.8042   42.4477 H   0  0  0  0  0  0  0  0  0  0  0  0
   39.0097   25.3280   40.4632 H   0  0  0  0  0  0  0  0  0  0  0  0
   40.2021   27.1760   44.8943 H   0  0  0  0  0  0  0  0  0  0  0  0
  1  6  1  0
  1 13  1  0
  2 10  1  0
  3  2  1  0
  4  3  2  0
  4  5  1  0
  5  6  1  0
  5 10  2  0
  6  7  2  0
  7  8  1  0
  9  8  2  0
 10  9  1  0
 11 16  2  0
 12 13  2  0
 12 11  1  0
 13 14  1  0
 14 15  2  0
 16 15  1  0
  2 17  1  0
  3 18  1  0
  8 19  1  0
 11 20  1  0
 12 21  1  0
 15 22  1  0
M  ISO  6  17   9  18  14  19  14  20  14  21  14  22  14
M  END
>  <minimizedAffinity>  (1) 
-4.07230234

>  <minimizedRMSD>  (1) 
6.01980114

$$$$
