
     RDKit          3D

 35 38  0  0  0  0  0  0  0  0999 V2000
   38.9730   26.7760   43.7400 C   0  0  0  0  0  0  0  0  0  0  0  0
   38.8490   27.5120   42.5340 C   0  0  0  0  0  0  0  0  0  0  0  0
   40.0090   28.0520   41.9640 C   0  0  0  0  0  0  0  0  0  0  0  0
   41.2130   27.8460   42.5970 N   0  0  0  0  0  0  0  0  0  0  0  0
   41.2800   27.1390   43.7420 C   0  0  0  0  0  0  0  0  0  0  0  0
   40.1900   26.6070   44.3180 N   0  0  0  0  0  0  0  0  0  0  0  0
   42.5190   26.9170   44.4070 N   0  0  0  0  0  0  0  0  0  0  0  0
   42.5650   27.3610   45.6980 C   0  0  0  0  0  0  0  0  0  0  0  0
   43.7330   27.1820   46.4110 C   0  0  0  0  0  0  0  0  0  0  0  0
   43.8870   27.6320   47.8300 C   0  0  0  0  0  0  0  0  0  0  0  0
   44.8310   26.5730   45.8430 C   0  0  0  0  0  0  0  0  0  0  0  0
   45.9380   26.3800   46.4500 O   0  0  0  0  0  0  0  0  0  0  0  0
   44.7410   26.1510   44.5670 N   0  0  0  0  0  0  0  0  0  0  0  0
   43.6170   26.3160   43.8640 C   0  0  0  0  0  0  0  0  0  0  0  0
   43.4070   25.9680   42.6670 O   0  0  0  0  0  0  0  0  0  0  0  0
   39.8470   28.7500   40.8100 O   0  0  0  0  0  0  0  0  0  0  0  0
   36.8170   32.1260   40.6120 N   0  0  0  0  0  0  0  0  0  0  0  0
   36.2410   30.9300   40.4710 C   0  0  0  0  0  0  0  0  0  0  0  0
   37.2140   29.9910   40.5420 N   0  0  0  0  0  0  0  0  0  0  0  0
   38.4200   30.5730   40.7300 C   0  0  0  0  0  0  0  0  0  0  0  0
   39.7270   30.1350   40.8740 C   0  0  0  0  0  0  0  0  0  0  0  0
   40.7130   31.0420   41.0510 N   0  0  0  0  0  0  0  0  0  0  0  0
   40.4260   32.3580   41.0890 C   0  0  0  0  0  0  0  0  0  0  0  0
   39.1690   32.8270   40.9550 N   0  0  0  0  0  0  0  0  0  0  0  0
   38.1410   31.9530   40.7730 C   0  0  0  0  0  0  0  0  0  0  0  0
   38.0789   26.3399   44.2094 H   0  0  0  0  0  0  0  0  0  0  0  0
   37.8674   27.6551   42.0586 H   0  0  0  0  0  0  0  0  0  0  0  0
   41.6929   27.8490   46.1578 H   0  0  0  0  0  0  0  0  0  0  0  0
   43.6063   26.8119   48.5072 H   0  0  0  0  0  0  0  0  0  0  0  0
   44.9337   27.9166   48.0129 H   0  0  0  0  0  0  0  0  0  0  0  0
   43.2342   28.4982   48.0129 H   0  0  0  0  0  0  0  0  0  0  0  0
   45.5518   25.6937   44.1262 H   0  0  0  0  0  0  0  0  0  0  0  0
   36.3278   33.0323   40.5995 H   0  0  0  0  0  0  0  0  0  0  0  0
   35.1674   30.7410   40.3235 H   0  0  0  0  0  0  0  0  0  0  0  0
   41.2469   33.0756   41.2346 H   0  0  0  0  0  0  0  0  0  0  0  0
  1  6  2  0
  2  1  1  0
  3  2  2  0
  3  4  1  0
  4  5  2  0
  5  6  1  0
  5  7  1  0
  7  8  1  0
  8  9  2  0
  9 10  1  0
 11  9  1  0
 11 12  2  0
 13 11  1  0
 14  7  1  0
 14 13  1  0
 15 14  2  0
 16 21  1  0
 16  3  1  0
 17 25  1  0
 18 19  2  0
 18 17  1  0
 19 20  1  0
 20 25  2  0
 20 21  1  0
 21 22  2  0
 22 23  1  0
 24 23  2  0
 25 24  1  0
  1 26  1  0
  2 27  1  0
  8 28  1  0
 10 29  1  0
 10 30  1  0
 10 31  1  0
 13 32  1  0
 17 33  1  0
 18 34  1  0
 23 35  1  0
M  ISO  8  26  14  27  14  28  14  29   8  30   8  31   8  32   9  33   9
M  ISO  2  34  14  35  14
M  END
>  <minimizedAffinity>  (1) 
-5.79750013

>  <minimizedRMSD>  (1) 
2.87169409

$$$$
