
     RDKit          3D

 29 32  0  0  0  0  0  0  0  0999 V2000
   36.8070   27.0410   42.6490 C   0  0  0  0  0  0  0  0  0  0  0  0
   36.4440   28.2480   42.0050 C   0  0  0  0  0  0  0  0  0  0  0  0
   37.4270   29.2360   41.8390 C   0  0  0  0  0  0  0  0  0  0  0  0
   38.6840   29.0060   42.2990 N   0  0  0  0  0  0  0  0  0  0  0  0
   38.9960   27.8360   42.9120 C   0  0  0  0  0  0  0  0  0  0  0  0
   38.0750   26.8700   43.0850 N   0  0  0  0  0  0  0  0  0  0  0  0
   40.3710   27.6720   43.3760 C   0  0  0  0  0  0  0  0  0  0  0  0
   40.6890   26.5220   44.1020 C   0  0  0  0  0  0  0  0  0  0  0  0
   42.0490   26.6090   44.4220 C   0  0  0  0  0  0  0  0  0  0  0  0
   42.4660   27.8230   43.8620 C   0  0  0  0  0  0  0  0  0  0  0  0
   41.4520   28.4190   43.2550 O   0  0  0  0  0  0  0  0  0  0  0  0
   37.0160   30.3790   41.2090 O   0  0  0  0  0  0  0  0  0  0  0  0
   39.6040   33.5250   39.1700 N   0  0  0  0  0  0  0  0  0  0  0  0
   39.3590   33.8220   40.4670 C   0  0  0  0  0  0  0  0  0  0  0  0
   38.5900   32.8380   40.9800 N   0  0  0  0  0  0  0  0  0  0  0  0
   38.3300   31.9010   40.0340 C   0  0  0  0  0  0  0  0  0  0  0  0
   37.6210   30.7170   39.9950 C   0  0  0  0  0  0  0  0  0  0  0  0
   37.5760   30.0140   38.8260 N   0  0  0  0  0  0  0  0  0  0  0  0
   38.2110   30.4710   37.7430 C   0  0  0  0  0  0  0  0  0  0  0  0
   38.9150   31.6320   37.7540 N   0  0  0  0  0  0  0  0  0  0  0  0
   38.9880   32.3680   38.8990 C   0  0  0  0  0  0  0  0  0  0  0  0
   36.0608   26.2459   42.7940 H   0  0  0  0  0  0  0  0  0  0  0  0
   35.4174   28.4077   41.6437 H   0  0  0  0  0  0  0  0  0  0  0  0
   40.0029   25.7052   44.3706 H   0  0  0  0  0  0  0  0  0  0  0  0
   42.6549   25.8854   44.9871 H   0  0  0  0  0  0  0  0  0  0  0  0
   43.4889   28.2235   43.9185 H   0  0  0  0  0  0  0  0  0  0  0  0
   40.1625   34.0866   38.5115 H   0  0  0  0  0  0  0  0  0  0  0  0
   39.7221   34.7084   41.0079 H   0  0  0  0  0  0  0  0  0  0  0  0
   38.1619   29.8875   36.8118 H   0  0  0  0  0  0  0  0  0  0  0  0
  1  6  2  0
  2  1  1  0
  3  2  2  0
  3  4  1  0
  4  5  2  0
  5  6  1  0
  5  7  1  0
  7  8  2  0
  8  9  1  0
 10  9  2  0
 11  7  1  0
 11 10  1  0
 12  3  1  0
 13 14  1  0
 14 15  2  0
 16 15  1  0
 17 16  2  0
 17 12  1  0
 18 17  1  0
 19 20  1  0
 19 18  2  0
 20 21  2  0
 21 13  1  0
 21 16  1  0
  1 22  1  0
  2 23  1  0
  8 24  1  0
  9 25  1  0
 10 26  1  0
 13 27  1  0
 14 28  1  0
 19 29  1  0
M  ISO  8  22  14  23  14  24  14  25  14  26  14  27   9  28  14  29  14
M  END
>  <minimizedAffinity>  (1) 
-5.27274752

>  <minimizedRMSD>  (1) 
3.49651241

$$$$
