
     RDKit          3D

 20 20  0  0  0  0  0  0  0  0999 V2000
   38.9710   29.7850   42.3080 C   0  0  0  0  0  0  0  0  0  0  0  0
   38.1400   29.4550   41.1900 C   0  0  0  0  0  0  0  0  0  0  0  0
   37.8550   28.1130   41.0480 C   0  0  0  0  0  0  0  0  0  0  0  0
   38.3480   27.2030   41.9270 N   0  0  0  0  0  0  0  0  0  0  0  0
   39.1260   27.5630   42.9630 C   0  0  0  0  0  0  0  0  0  0  0  0
   39.4300   28.8410   43.1450 N   0  0  0  0  0  0  0  0  0  0  0  0
   37.6960   30.5130   40.3530 N   0  0  0  0  0  0  0  0  0  0  0  0
   36.6690   31.4250   40.6730 C   0  0  0  0  0  0  0  0  0  0  0  0
   35.6510   30.9270   41.3330 N   0  0  0  0  0  0  0  0  0  0  0  0
   36.8580   32.7790   40.2390 N   0  0  0  0  0  0  0  0  0  0  0  0
   34.8610   31.5170   41.6560 H   0  0  0  0  0  0  0  0  0  0  0  0
   39.6570   26.5430   43.9170 C   0  0  0  0  0  0  0  0  0  0  0  0
   39.2398   30.8368   42.4854 H   0  0  0  0  0  0  0  0  0  0  0  0
   37.2217   27.7764   40.2140 H   0  0  0  0  0  0  0  0  0  0  0  0
   38.1607   30.6229   39.4404 H   0  0  0  0  0  0  0  0  0  0  0  0
   36.1416   33.4902   40.4437 H   0  0  0  0  0  0  0  0  0  0  0  0
   37.7101   33.0401   39.7226 H   0  0  0  0  0  0  0  0  0  0  0  0
   39.4815   26.8800   44.9493 H   0  0  0  0  0  0  0  0  0  0  0  0
   39.1435   25.5843   43.7520 H   0  0  0  0  0  0  0  0  0  0  0  0
   40.7369   26.4137   43.7520 H   0  0  0  0  0  0  0  0  0  0  0  0
  1  6  2  0
  2  1  1  0
  3  2  2  0
  3  4  1  0
  4  5  2  0
  5  6  1  0
  5 12  1  0
  7  8  1  0
  7  2  1  0
  8  9  2  0
  9 11  1  0
 10  8  1  0
  1 13  1  0
  3 14  1  0
  7 15  1  0
 10 16  1  0
 10 17  1  0
 12 18  1  0
 12 19  1  0
 12 20  1  0
M  ISO  5  13  14  14  14  18   8  19   8  20   8
M  END
>  <minimizedAffinity>  (1) 
-4.36339521

>  <minimizedRMSD>  (1) 
0.623707175

$$$$
