
     RDKit          3D

 30 33  0  0  0  0  0  0  0  0999 V2000
   38.9590   24.5750   42.6390 C   0  0  0  0  0  0  0  0  0  0  0  0
   38.5560   25.4320   41.5730 C   0  0  0  0  0  0  0  0  0  0  0  0
   39.3390   26.5540   41.3050 C   0  0  0  0  0  0  0  0  0  0  0  0
   40.4550   26.7910   42.0650 N   0  0  0  0  0  0  0  0  0  0  0  0
   40.8090   25.9580   43.0690 C   0  0  0  0  0  0  0  0  0  0  0  0
   40.0760   24.8650   43.3550 N   0  0  0  0  0  0  0  0  0  0  0  0
   42.0020   26.2350   43.8610 C   0  0  0  0  0  0  0  0  0  0  0  0
   43.2370   25.7570   43.4510 C   0  0  0  0  0  0  0  0  0  0  0  0
   44.3530   26.0310   44.2150 C   0  0  0  0  0  0  0  0  0  0  0  0
   44.2670   26.7500   45.3500 N   0  0  0  0  0  0  0  0  0  0  0  0
   43.0700   27.2090   45.7390 C   0  0  0  0  0  0  0  0  0  0  0  0
   41.9690   26.9470   44.9990 N   0  0  0  0  0  0  0  0  0  0  0  0
   38.9170   27.3480   40.2760 O   0  0  0  0  0  0  0  0  0  0  0  0
   35.4800   30.2820   40.8390 N   0  0  0  0  0  0  0  0  0  0  0  0
   35.0460   29.0410   40.5860 C   0  0  0  0  0  0  0  0  0  0  0  0
   36.1250   28.2400   40.4330 N   0  0  0  0  0  0  0  0  0  0  0  0
   37.2620   28.9640   40.5880 C   0  0  0  0  0  0  0  0  0  0  0  0
   38.6230   28.6760   40.5420 C   0  0  0  0  0  0  0  0  0  0  0  0
   39.5040   29.6900   40.7530 N   0  0  0  0  0  0  0  0  0  0  0  0
   39.0610   30.9350   41.0010 C   0  0  0  0  0  0  0  0  0  0  0  0
   37.7490   31.2340   41.0500 N   0  0  0  0  0  0  0  0  0  0  0  0
   36.8170   30.2620   40.8470 C   0  0  0  0  0  0  0  0  0  0  0  0
   38.3662   23.6806   42.8810 H   0  0  0  0  0  0  0  0  0  0  0  0
   37.6551   25.2146   40.9804 H   0  0  0  0  0  0  0  0  0  0  0  0
   43.3263   25.1662   42.5274 H   0  0  0  0  0  0  0  0  0  0  0  0
   45.3338   25.6539   43.8897 H   0  0  0  0  0  0  0  0  0  0  0  0
   42.9826   27.8003   46.6624 H   0  0  0  0  0  0  0  0  0  0  0  0
   34.8869   31.1087   40.9996 H   0  0  0  0  0  0  0  0  0  0  0  0
   33.9941   28.7272   40.5149 H   0  0  0  0  0  0  0  0  0  0  0  0
   39.7953   31.7365   41.1696 H   0  0  0  0  0  0  0  0  0  0  0  0
  1  6  2  0
  2  1  1  0
  3  2  2  0
  3  4  1  0
  4  5  2  0
  5  6  1  0
  5  7  1  0
  7 12  1  0
  8  7  2  0
  8  9  1  0
  9 10  2  0
 10 11  1  0
 12 11  2  0
 13 18  1  0
 13  3  1  0
 14 22  1  0
 15 14  1  0
 16 15  2  0
 16 17  1  0
 17 22  2  0
 18 17  1  0
 18 19  2  0
 19 20  1  0
 20 21  2  0
 22 21  1  0
  1 23  1  0
  2 24  1  0
  8 25  1  0
  9 26  1  0
 11 27  1  0
 14 28  1  0
 15 29  1  0
 20 30  1  0
M  ISO  8  23  14  24  14  25  14  26  14  27  14  28   9  29  14  30  14
M  END
>  <minimizedAffinity>  (1) 
-4.86600018

>  <minimizedRMSD>  (1) 
1.98079658

$$$$
