
     RDKit          3D

 33 37  0  0  0  0  0  0  0  0999 V2000
   39.8390   25.0210   41.0680 C   0  0  0  0  0  0  0  0  0  0  0  0
   39.3640   26.0020   40.1700 C   0  0  0  0  0  0  0  0  0  0  0  0
   39.7100   27.3410   40.4030 C   0  0  0  0  0  0  0  0  0  0  0  0
   40.4840   27.6540   41.4780 N   0  0  0  0  0  0  0  0  0  0  0  0
   40.9240   26.6870   42.3220 C   0  0  0  0  0  0  0  0  0  0  0  0
   40.6090   25.3960   42.1240 N   0  0  0  0  0  0  0  0  0  0  0  0
   41.7300   27.1420   43.4140 N   0  0  0  0  0  0  0  0  0  0  0  0
   41.7230   26.7210   44.6910 C   0  0  0  0  0  0  0  0  0  0  0  0
   42.6260   27.4100   45.3640 N   0  0  0  0  0  0  0  0  0  0  0  0
   43.2040   28.2660   44.5150 C   0  0  0  0  0  0  0  0  0  0  0  0
   44.2130   29.1790   44.8230 C   0  0  0  0  0  0  0  0  0  0  0  0
   44.6580   29.9580   43.8000 N   0  0  0  0  0  0  0  0  0  0  0  0
   44.1180   29.8150   42.5700 C   0  0  0  0  0  0  0  0  0  0  0  0
   43.1300   28.9200   42.2750 N   0  0  0  0  0  0  0  0  0  0  0  0
   42.6460   28.1150   43.2530 C   0  0  0  0  0  0  0  0  0  0  0  0
   39.2110   28.2350   39.4850 O   0  0  0  0  0  0  0  0  0  0  0  0
   35.4420   30.2860   40.9940 N   0  0  0  0  0  0  0  0  0  0  0  0
   35.2240   29.0010   40.6600 C   0  0  0  0  0  0  0  0  0  0  0  0
   36.3910   28.4790   40.2270 N   0  0  0  0  0  0  0  0  0  0  0  0
   37.3670   29.4150   40.2760 C   0  0  0  0  0  0  0  0  0  0  0  0
   38.7270   29.4420   39.9610 C   0  0  0  0  0  0  0  0  0  0  0  0
   39.4150   30.6030   40.1470 N   0  0  0  0  0  0  0  0  0  0  0  0
   38.7870   31.6920   40.6210 C   0  0  0  0  0  0  0  0  0  0  0  0
   37.4780   31.6990   40.9340 N   0  0  0  0  0  0  0  0  0  0  0  0
   36.7410   30.5640   40.7690 C   0  0  0  0  0  0  0  0  0  0  0  0
   39.5878   23.9612   40.9142 H   0  0  0  0  0  0  0  0  0  0  0  0
   38.7383   25.7229   39.3094 H   0  0  0  0  0  0  0  0  0  0  0  0
   41.0743   25.9351   45.1051 H   0  0  0  0  0  0  0  0  0  0  0  0
   44.6267   29.2645   45.8387 H   0  0  0  0  0  0  0  0  0  0  0  0
   44.4958   30.4562   41.7600 H   0  0  0  0  0  0  0  0  0  0  0  0
   34.7378   30.9433   41.3586 H   0  0  0  0  0  0  0  0  0  0  0  0
   34.2635   28.4693   40.7279 H   0  0  0  0  0  0  0  0  0  0  0  0
   39.3669   32.6165   40.7590 H   0  0  0  0  0  0  0  0  0  0  0  0
  1  6  2  0
  2  3  2  0
  2  1  1  0
  3  4  1  0
  4  5  2  0
  5  7  1  0
  6  5  1  0
  7  8  1  0
  8  9  2  0
 10 11  2  0
 10  9  1  0
 12 11  1  0
 13 12  2  0
 14 13  1  0
 14 15  2  0
 15  7  1  0
 15 10  1  0
 16 21  1  0
 16  3  1  0
 18 17  1  0
 19 20  1  0
 19 18  2  0
 20 25  2  0
 21 22  2  0
 21 20  1  0
 22 23  1  0
 23 24  2  0
 25 24  1  0
 25 17  1  0
  1 26  1  0
  2 27  1  0
  8 28  1  0
 11 29  1  0
 13 30  1  0
 17 31  1  0
 18 32  1  0
 23 33  1  0
M  ISO  8  26  14  27  14  28  14  29  14  30  14  31   9  32  14  33  14
M  END
>  <minimizedAffinity>  (1) 
-4.8204546

>  <minimizedRMSD>  (1) 
1.88240993

$$$$
