
     RDKit          3D

 19 19  0  0  0  0  0  0  0  0999 V2000
   38.9880   29.7640   42.3170 C   0  0  0  0  0  0  0  0  0  0  0  0
   38.1600   29.4690   41.2080 C   0  0  0  0  0  0  0  0  0  0  0  0
   37.8660   28.1280   41.0630 C   0  0  0  0  0  0  0  0  0  0  0  0
   38.3490   27.1990   41.9280 N   0  0  0  0  0  0  0  0  0  0  0  0
   39.1340   27.5470   42.9640 C   0  0  0  0  0  0  0  0  0  0  0  0
   39.4440   28.8240   43.1450 N   0  0  0  0  0  0  0  0  0  0  0  0
   37.7090   30.5150   40.3650 N   0  0  0  0  0  0  0  0  0  0  0  0
   36.6800   31.4220   40.6900 C   0  0  0  0  0  0  0  0  0  0  0  0
   35.6560   30.9160   41.3430 N   0  0  0  0  0  0  0  0  0  0  0  0
   36.8850   32.7860   40.2660 N   0  0  0  0  0  0  0  0  0  0  0  0
   34.8630   31.5130   41.6290 H   0  0  0  0  0  0  0  0  0  0  0  0
   39.6830   26.5980   43.9260 C   0  0  0  0  0  0  0  0  0  0  0  0
   39.7970   25.3610   43.7100 O   0  0  0  0  0  0  0  0  0  0  0  0
   39.2667   30.8116   42.5034 H   0  0  0  0  0  0  0  0  0  0  0  0
   37.2264   27.8048   40.2285 H   0  0  0  0  0  0  0  0  0  0  0  0
   38.1663   30.6202   39.4481 H   0  0  0  0  0  0  0  0  0  0  0  0
   36.1728   33.5014   40.4705 H   0  0  0  0  0  0  0  0  0  0  0  0
   37.7435   33.0441   39.7588 H   0  0  0  0  0  0  0  0  0  0  0  0
   40.0181   26.9852   44.8996 H   0  0  0  0  0  0  0  0  0  0  0  0
  1  6  2  0
  2  1  1  0
  3  2  2  0
  3  4  1  0
  4  5  2  0
  5  6  1  0
  5 12  1  0
  7  8  1  0
  7  2  1  0
  8  9  2  0
  9 11  1  0
 10  8  1  0
 13 12  2  0
  1 14  1  0
  3 15  1  0
  7 16  1  0
 10 17  1  0
 10 18  1  0
 12 19  1  0
M  ISO  3  14  14  15  14  19   6
M  END
>  <minimizedAffinity>  (1) 
-4.34696007

>  <minimizedRMSD>  (1) 
0.738704205

$$$$
