
     RDKit          3D

 29 32  0  0  0  0  0  0  0  0999 V2000
   39.0810   27.8390   40.3500 O   0  0  0  0  0  0  0  0  0  0  0  0
   35.4080   30.4710   40.8330 N   0  0  0  0  0  0  0  0  0  0  0  0
   35.0900   29.1880   40.6070 C   0  0  0  0  0  0  0  0  0  0  0  0
   36.2410   28.4930   40.4790 N   0  0  0  0  0  0  0  0  0  0  0  0
   37.3050   29.3040   40.6180 C   0  0  0  0  0  0  0  0  0  0  0  0
   38.6900   29.1550   40.5840 C   0  0  0  0  0  0  0  0  0  0  0  0
   39.4710   30.2370   40.7720 N   0  0  0  0  0  0  0  0  0  0  0  0
   38.9230   31.4380   40.9870 C   0  0  0  0  0  0  0  0  0  0  0  0
   37.5820   31.6420   41.0310 N   0  0  0  0  0  0  0  0  0  0  0  0
   36.7470   30.5760   40.8460 C   0  0  0  0  0  0  0  0  0  0  0  0
   38.8990   24.9860   42.6100 C   0  0  0  0  0  0  0  0  0  0  0  0
   38.6480   25.8450   41.5180 C   0  0  0  0  0  0  0  0  0  0  0  0
   39.3610   27.0400   41.4290 C   0  0  0  0  0  0  0  0  0  0  0  0
   40.2740   27.3340   42.4050 N   0  0  0  0  0  0  0  0  0  0  0  0
   40.4940   26.4930   43.4410 C   0  0  0  0  0  0  0  0  0  0  0  0
   39.8090   25.3290   43.5380 N   0  0  0  0  0  0  0  0  0  0  0  0
   41.5120   26.8880   44.4690 C   0  0  0  0  0  0  0  0  0  0  0  0
   42.5670   27.8690   44.1000 C   0  0  0  0  0  0  0  0  0  0  0  0
   42.9060   26.4290   44.3950 C   0  0  0  0  0  0  0  0  0  0  0  0
   34.7405   31.2429   40.9726 H   0  0  0  0  0  0  0  0  0  0  0  0
   34.0728   28.7751   40.5381 H   0  0  0  0  0  0  0  0  0  0  0  0
   39.5900   32.3001   41.1350 H   0  0  0  0  0  0  0  0  0  0  0  0
   38.3504   24.0369   42.7013 H   0  0  0  0  0  0  0  0  0  0  0  0
   37.9048   25.5769   40.7527 H   0  0  0  0  0  0  0  0  0  0  0  0
   40.7375   26.8216   45.2473 H   0  0  0  0  0  0  0  0  0  0  0  0
   42.8569   28.6616   44.8055 H   0  0  0  0  0  0  0  0  0  0  0  0
   42.7379   28.5599   43.2612 H   0  0  0  0  0  0  0  0  0  0  0  0
   43.2227   25.7603   43.5810 H   0  0  0  0  0  0  0  0  0  0  0  0
   43.5944   25.9166   45.0832 H   0  0  0  0  0  0  0  0  0  0  0  0
  1  6  1  0
  1 13  1  0
  2 10  1  0
  3  2  1  0
  4  3  2  0
  4  5  1  0
  5 10  2  0
  6  5  1  0
  6  7  2  0
  7  8  1  0
  8  9  2  0
 10  9  1  0
 11 16  2  0
 12 11  1  0
 13 12  2  0
 13 14  1  0
 14 15  2  0
 15 16  1  0
 15 17  1  0
 18 19  1  0
 18 17  1  0
 19 17  1  0
  2 20  1  0
  3 21  1  0
  8 22  1  0
 11 23  1  0
 12 24  1  0
 17 25  1  0
 18 26  1  0
 18 27  1  0
 19 28  1  0
 19 29  1  0
M  ISO  8  20   9  21  14  22  14  23  14  24  14  25  13  26  13  27  13
M  ISO  2  28  13  29  13
M  END
>  <minimizedAffinity>  (1) 
-4.49606371

>  <minimizedRMSD>  (1) 
0.848696232

$$$$
