
     RDKit          3D

 24 26  0  0  0  0  0  0  0  0999 V2000
   36.4750   26.6290   40.4090 O   0  0  0  0  0  0  0  0  0  0  0  0
   37.3190   29.1100   44.1180 N   0  0  0  0  0  0  0  0  0  0  0  0
   36.6940   27.9650   44.4040 C   0  0  0  0  0  0  0  0  0  0  0  0
   36.4890   27.3040   43.2500 N   0  0  0  0  0  0  0  0  0  0  0  0
   36.9760   28.0090   42.2010 C   0  0  0  0  0  0  0  0  0  0  0  0
   37.0430   27.8260   40.8350 C   0  0  0  0  0  0  0  0  0  0  0  0
   37.6290   28.7850   40.0570 N   0  0  0  0  0  0  0  0  0  0  0  0
   38.1290   29.8860   40.6470 C   0  0  0  0  0  0  0  0  0  0  0  0
   38.0840   30.1020   41.9790 N   0  0  0  0  0  0  0  0  0  0  0  0
   37.5070   29.1670   42.7780 C   0  0  0  0  0  0  0  0  0  0  0  0
   37.5680   23.2020   40.9360 C   0  0  0  0  0  0  0  0  0  0  0  0
   36.7640   24.3800   40.9860 C   0  0  0  0  0  0  0  0  0  0  0  0
   37.2730   25.5260   40.3360 C   0  0  0  0  0  0  0  0  0  0  0  0
   38.4870   25.4620   39.7000 N   0  0  0  0  0  0  0  0  0  0  0  0
   39.1930   24.3230   39.6880 C   0  0  0  0  0  0  0  0  0  0  0  0
   38.7640   23.2010   40.2870 N   0  0  0  0  0  0  0  0  0  0  0  0
   40.4760   24.3340   38.9890 C   0  0  0  0  0  0  0  0  0  0  0  0
   40.8560   23.3010   38.3710 O   0  0  0  0  0  0  0  0  0  0  0  0
   37.6082   29.8264   44.7992 H   0  0  0  0  0  0  0  0  0  0  0  0
   36.3987   27.6224   45.4067 H   0  0  0  0  0  0  0  0  0  0  0  0
   38.5991   30.6503   40.0107 H   0  0  0  0  0  0  0  0  0  0  0  0
   37.2165   22.2833   41.4283 H   0  0  0  0  0  0  0  0  0  0  0  0
   35.7946   24.3948   41.5057 H   0  0  0  0  0  0  0  0  0  0  0  0
   41.1060   25.2356   39.0012 H   0  0  0  0  0  0  0  0  0  0  0  0
  1  6  1  0
  2  3  1  0
  4  3  2  0
  5 10  2  0
  5  4  1  0
  6  5  1  0
  7  8  1  0
  7  6  2  0
  8  9  2  0
  9 10  1  0
 10  2  1  0
 11 12  2  0
 13  1  1  0
 13 12  1  0
 14 13  2  0
 15 14  1  0
 15 16  2  0
 16 11  1  0
 17 15  1  0
 18 17  2  0
  2 19  1  0
  3 20  1  0
  8 21  1  0
 11 22  1  0
 12 23  1  0
 17 24  1  0
M  ISO  6  19   9  20  14  21  14  22  14  23  14  24   6
M  END
>  <minimizedAffinity>  (1) 
-4.42784548

>  <minimizedRMSD>  (1) 
3.9584887

$$$$
