
     RDKit          3D

 23 25  0  0  0  0  0  0  0  0999 V2000
   35.4310   30.4870   40.8520 N   0  0  0  0  0  0  0  0  0  0  0  0
   35.1000   29.2030   40.5810 C   0  0  0  0  0  0  0  0  0  0  0  0
   36.2500   28.5020   40.4590 N   0  0  0  0  0  0  0  0  0  0  0  0
   37.3180   29.3070   40.6440 C   0  0  0  0  0  0  0  0  0  0  0  0
   38.6970   29.1380   40.6350 C   0  0  0  0  0  0  0  0  0  0  0  0
   39.4900   30.2130   40.8720 N   0  0  0  0  0  0  0  0  0  0  0  0
   38.9400   31.4170   41.1090 C   0  0  0  0  0  0  0  0  0  0  0  0
   37.5950   31.6200   41.1260 N   0  0  0  0  0  0  0  0  0  0  0  0
   36.7640   30.5730   40.8940 C   0  0  0  0  0  0  0  0  0  0  0  0
   39.1050   27.8440   40.3760 O   0  0  0  0  0  0  0  0  0  0  0  0
   38.8530   24.9950   42.6340 C   0  0  0  0  0  0  0  0  0  0  0  0
   38.5870   25.8760   41.5380 C   0  0  0  0  0  0  0  0  0  0  0  0
   39.3880   27.0260   41.4360 C   0  0  0  0  0  0  0  0  0  0  0  0
   40.3630   27.2520   42.3600 N   0  0  0  0  0  0  0  0  0  0  0  0
   40.5750   26.3920   43.3740 C   0  0  0  0  0  0  0  0  0  0  0  0
   39.8400   25.2730   43.5260 N   0  0  0  0  0  0  0  0  0  0  0  0
   41.9070   26.9190   44.4430 S   0  0  0  0  0  0  0  0  0  0  0  0
   34.7703   31.2631   41.0002 H   0  0  0  0  0  0  0  0  0  0  0  0
   34.0807   28.8024   40.4786 H   0  0  0  0  0  0  0  0  0  0  0  0
   39.6050   32.2729   41.2968 H   0  0  0  0  0  0  0  0  0  0  0  0
   38.2515   24.0821   42.7559 H   0  0  0  0  0  0  0  0  0  0  0  0
   37.7917   25.6626   40.8086 H   0  0  0  0  0  0  0  0  0  0  0  0
   41.5290   26.7694   45.7513 H   0  0  0  0  0  0  0  0  0  0  0  0
  1  9  1  0
  2  1  1  0
  3  2  2  0
  3  4  1  0
  4  9  2  0
  5  4  1  0
  5  6  2  0
  6  7  1  0
  7  8  2  0
  9  8  1  0
 10  5  1  0
 10 13  1  0
 11 16  2  0
 12 11  1  0
 13 12  2  0
 13 14  1  0
 14 15  2  0
 15 16  1  0
 15 17  1  0
  1 18  1  0
  2 19  1  0
  7 20  1  0
 11 21  1  0
 12 22  1  0
 17 23  1  0
M  ISO  6  18   9  19  14  20  14  21  14  22  14  23  11
M  END
>  <minimizedAffinity>  (1) 
-4.14950037

>  <minimizedRMSD>  (1) 
0.629395664

$$$$
