
     RDKit          3D

 39 43  0  0  0  0  0  0  0  0999 V2000
   44.0180   26.0490   43.5380 C   0  0  0  0  0  0  0  0  0  0  0  0
   42.7000   26.2490   43.0630 C   0  0  0  0  0  0  0  0  0  0  0  0
   41.7560   26.8140   43.9230 C   0  0  0  0  0  0  0  0  0  0  0  0
   42.1410   27.1590   45.2070 N   0  0  0  0  0  0  0  0  0  0  0  0
   43.4120   26.9440   45.6020 C   0  0  0  0  0  0  0  0  0  0  0  0
   44.3410   26.4010   44.7910 N   0  0  0  0  0  0  0  0  0  0  0  0
   42.3720   25.8710   41.7300 N   0  0  0  0  0  0  0  0  0  0  0  0
   43.0810   26.0770   40.6070 C   0  0  0  0  0  0  0  0  0  0  0  0
   42.4140   25.5600   39.5480 N   0  0  0  0  0  0  0  0  0  0  0  0
   41.2560   25.0110   39.9940 C   0  0  0  0  0  0  0  0  0  0  0  0
   40.2700   24.3750   39.2670 C   0  0  0  0  0  0  0  0  0  0  0  0
   40.3640   24.2350   38.0200 O   0  0  0  0  0  0  0  0  0  0  0  0
   39.2200   23.9220   39.9770 N   0  0  0  0  0  0  0  0  0  0  0  0
   39.1700   24.0990   41.3130 C   0  0  0  0  0  0  0  0  0  0  0  0
   38.0700   23.6310   42.0860 N   0  0  0  0  0  0  0  0  0  0  0  0
   40.1560   24.7320   42.0070 N   0  0  0  0  0  0  0  0  0  0  0  0
   41.2490   25.2160   41.3600 C   0  0  0  0  0  0  0  0  0  0  0  0
   43.7810   27.3340   46.9980 C   0  0  0  0  0  0  0  0  0  0  0  0
   44.5780   28.4660   46.9990 F   0  0  0  0  0  0  0  0  0  0  0  0
   42.6320   27.7180   47.7090 F   0  0  0  0  0  0  0  0  0  0  0  0
   44.4890   26.3500   47.6610 F   0  0  0  0  0  0  0  0  0  0  0  0
   40.5050   26.9880   43.4310 O   0  0  0  0  0  0  0  0  0  0  0  0
   36.8470   29.5280   42.5040 N   0  0  0  0  0  0  0  0  0  0  0  0
   36.5150   28.2690   42.8140 C   0  0  0  0  0  0  0  0  0  0  0  0
   37.6590   27.5930   43.0730 N   0  0  0  0  0  0  0  0  0  0  0  0
   38.7330   28.4160   42.9290 C   0  0  0  0  0  0  0  0  0  0  0  0
   40.0990   28.2640   43.0650 C   0  0  0  0  0  0  0  0  0  0  0  0
   40.8880   29.3420   42.8330 N   0  0  0  0  0  0  0  0  0  0  0  0
   40.3530   30.5250   42.4830 C   0  0  0  0  0  0  0  0  0  0  0  0
   39.0190   30.7060   42.3420 N   0  0  0  0  0  0  0  0  0  0  0  0
   38.1760   29.6490   42.5650 C   0  0  0  0  0  0  0  0  0  0  0  0
   44.7782   25.6044   42.8788 H   0  0  0  0  0  0  0  0  0  0  0  0
   44.0541   26.5874   40.5559 H   0  0  0  0  0  0  0  0  0  0  0  0
   38.4491   23.4366   39.4964 H   0  0  0  0  0  0  0  0  0  0  0  0
   38.0567   23.7792   43.1052 H   0  0  0  0  0  0  0  0  0  0  0  0
   37.2875   23.1442   41.6261 H   0  0  0  0  0  0  0  0  0  0  0  0
   36.1867   30.2796   42.2589 H   0  0  0  0  0  0  0  0  0  0  0  0
   35.4956   27.8574   42.8516 H   0  0  0  0  0  0  0  0  0  0  0  0
   41.0247   31.3777   42.3046 H   0  0  0  0  0  0  0  0  0  0  0  0
  1  6  2  0
  2  1  1  0
  2  3  2  0
  3  4  1  0
  4  5  2  0
  5 18  1  0
  6  5  1  0
  7  2  1  0
  8  7  1  0
  9 10  1  0
  9  8  2  0
 10 17  2  0
 11 13  1  0
 11 10  1  0
 12 11  2  0
 13 14  1  0
 14 16  2  0
 14 15  1  0
 17  7  1  0
 17 16  1  0
 18 19  1  0
 18 21  1  0
 18 20  1  0
 22  3  1  0
 23 31  1  0
 23 24  1  0
 24 25  2  0
 26 27  2  0
 26 25  1  0
 27 22  1  0
 28 27  1  0
 29 28  2  0
 30 29  1  0
 30 31  2  0
 31 26  1  0
  1 32  1  0
  8 33  1  0
 13 34  1  0
 15 35  1  0
 15 36  1  0
 23 37  1  0
 24 38  1  0
 29 39  1  0
M  ISO  6  32  14  33  14  34   9  37   9  38  14  39  14
M  END
>  <minimizedAffinity>  (1) 
-6.04542923

>  <minimizedRMSD>  (1) 
1.18691111

$$$$
