
     RDKit          3D

 39 43  0  0  0  0  0  0  0  0999 V2000
   41.6470   26.1040   41.7820 C   0  0  0  0  0  0  0  0  0  0  0  0
   40.4380   26.8210   41.7540 C   0  0  0  0  0  0  0  0  0  0  0  0
   40.1370   27.6950   42.8140 C   0  0  0  0  0  0  0  0  0  0  0  0
   41.0450   27.8080   43.8320 N   0  0  0  0  0  0  0  0  0  0  0  0
   42.1840   27.1040   43.8130 C   0  0  0  0  0  0  0  0  0  0  0  0
   42.4930   26.2640   42.8170 N   0  0  0  0  0  0  0  0  0  0  0  0
   39.4350   26.7670   40.6670 C   0  0  0  0  0  0  0  0  0  0  0  0
   39.4860   27.6500   39.6480 N   0  0  0  0  0  0  0  0  0  0  0  0
   38.5600   27.6710   38.6440 C   0  0  0  0  0  0  0  0  0  0  0  0
   37.5390   26.7580   38.6720 N   0  0  0  0  0  0  0  0  0  0  0  0
   37.4520   25.8680   39.6600 C   0  0  0  0  0  0  0  0  0  0  0  0
   36.4200   24.9220   39.7570 C   0  0  0  0  0  0  0  0  0  0  0  0
   36.3090   24.0170   40.7750 C   0  0  0  0  0  0  0  0  0  0  0  0
   37.2500   23.9930   41.7980 C   0  0  0  0  0  0  0  0  0  0  0  0
   38.2880   24.9160   41.7350 C   0  0  0  0  0  0  0  0  0  0  0  0
   38.3860   25.8350   40.6870 C   0  0  0  0  0  0  0  0  0  0  0  0
   43.1200   27.2890   44.9780 C   0  0  0  0  0  0  0  0  0  0  0  0
   43.7490   28.5160   44.9200 F   0  0  0  0  0  0  0  0  0  0  0  0
   42.4190   27.3080   46.1850 F   0  0  0  0  0  0  0  0  0  0  0  0
   44.1390   26.3390   44.9850 F   0  0  0  0  0  0  0  0  0  0  0  0
   38.9440   28.3630   42.7400 O   0  0  0  0  0  0  0  0  0  0  0  0
   36.3700   31.3530   40.4970 N   0  0  0  0  0  0  0  0  0  0  0  0
   35.7310   30.2030   40.6870 C   0  0  0  0  0  0  0  0  0  0  0  0
   36.5640   29.3620   41.3660 N   0  0  0  0  0  0  0  0  0  0  0  0
   37.7370   29.9970   41.6010 C   0  0  0  0  0  0  0  0  0  0  0  0
   38.9260   29.6340   42.2330 C   0  0  0  0  0  0  0  0  0  0  0  0
   39.9410   30.5420   42.2910 N   0  0  0  0  0  0  0  0  0  0  0  0
   39.7770   31.7620   41.7420 C   0  0  0  0  0  0  0  0  0  0  0  0
   38.6290   32.1470   41.1170 N   0  0  0  0  0  0  0  0  0  0  0  0
   37.5860   31.2680   41.0350 C   0  0  0  0  0  0  0  0  0  0  0  0
   41.9005   25.4157   40.9623 H   0  0  0  0  0  0  0  0  0  0  0  0
   38.6327   28.4064   37.8292 H   0  0  0  0  0  0  0  0  0  0  0  0
   35.6550   24.9081   38.9667 H   0  0  0  0  0  0  0  0  0  0  0  0
   35.4712   23.3043   40.7850 H   0  0  0  0  0  0  0  0  0  0  0  0
   37.1763   23.2718   42.6253 H   0  0  0  0  0  0  0  0  0  0  0  0
   39.0497   24.9229   42.5286 H   0  0  0  0  0  0  0  0  0  0  0  0
   35.9869   32.1770   40.0121 H   0  0  0  0  0  0  0  0  0  0  0  0
   34.7086   29.9698   40.3547 H   0  0  0  0  0  0  0  0  0  0  0  0
   40.6083   32.4800   41.8012 H   0  0  0  0  0  0  0  0  0  0  0  0
  1  6  2  0
  2  1  1  0
  2  3  2  0
  3  4  1  0
  5  4  2  0
  5 17  1  0
  6  5  1  0
  7 16  1  0
  7  2  1  0
  8  7  2  0
  9 10  2  0
  9  8  1  0
 10 11  1  0
 11 12  1  0
 11 16  2  0
 12 13  2  0
 13 14  1  0
 15 14  2  0
 16 15  1  0
 17 20  1  0
 17 19  1  0
 18 17  1  0
 21  3  1  0
 22 23  1  0
 22 30  1  0
 23 24  2  0
 24 25  1  0
 25 26  2  0
 26 27  1  0
 26 21  1  0
 28 27  2  0
 29 28  1  0
 30 29  2  0
 30 25  1  0
  1 31  1  0
  9 32  1  0
 12 33  1  0
 13 34  1  0
 14 35  1  0
 15 36  1  0
 22 37  1  0
 23 38  1  0
 28 39  1  0
M  ISO  8  31  14  32  14  33  14  34  14  35  14  36  14  37   9  38  14
M  ISO  1  39  14
M  END
>  <minimizedAffinity>  (1) 
-5.91329336

>  <minimizedRMSD>  (1) 
3.61928487

$$$$
