
     RDKit          3D

 38 41  0  0  0  0  0  0  0  0999 V2000
   44.5890   26.4370   44.4140 C   0  0  0  0  0  0  0  0  0  0  0  0
   43.4260   26.4500   43.6270 C   0  0  0  0  0  0  0  0  0  0  0  0
   42.2400   26.9660   44.1810 C   0  0  0  0  0  0  0  0  0  0  0  0
   42.2860   27.4370   45.4860 N   0  0  0  0  0  0  0  0  0  0  0  0
   43.4250   27.4000   46.1920 C   0  0  0  0  0  0  0  0  0  0  0  0
   44.5720   26.9060   45.6740 N   0  0  0  0  0  0  0  0  0  0  0  0
   43.4100   25.9470   42.2530 C   0  0  0  0  0  0  0  0  0  0  0  0
   43.5910   27.0000   41.2000 C   0  0  0  0  0  0  0  0  0  0  0  0
   42.5700   26.6710   40.1020 C   0  0  0  0  0  0  0  0  0  0  0  0
   42.3190   25.1960   40.3330 C   0  0  0  0  0  0  0  0  0  0  0  0
   42.1860   25.1850   41.8610 C   0  0  0  0  0  0  0  0  0  0  0  0
   43.4030   27.9210   47.5900 C   0  0  0  0  0  0  0  0  0  0  0  0
   43.4210   29.3040   47.5990 F   0  0  0  0  0  0  0  0  0  0  0  0
   42.1920   27.5760   48.2140 F   0  0  0  0  0  0  0  0  0  0  0  0
   44.4980   27.4880   48.3270 F   0  0  0  0  0  0  0  0  0  0  0  0
   41.1260   26.9740   43.4080 O   0  0  0  0  0  0  0  0  0  0  0  0
   37.1230   29.0950   43.3240 N   0  0  0  0  0  0  0  0  0  0  0  0
   37.0050   27.8260   43.7600 C   0  0  0  0  0  0  0  0  0  0  0  0
   38.2460   27.2810   43.7490 N   0  0  0  0  0  0  0  0  0  0  0  0
   39.1550   28.1920   43.3090 C   0  0  0  0  0  0  0  0  0  0  0  0
   40.5330   28.1720   43.1050 C   0  0  0  0  0  0  0  0  0  0  0  0
   41.1280   29.2990   42.6410 N   0  0  0  0  0  0  0  0  0  0  0  0
   40.3980   30.3980   42.3910 C   0  0  0  0  0  0  0  0  0  0  0  0
   39.0520   30.4560   42.5780 N   0  0  0  0  0  0  0  0  0  0  0  0
   38.4070   29.3450   43.0440 C   0  0  0  0  0  0  0  0  0  0  0  0
   45.5247   26.0385   43.9948 H   0  0  0  0  0  0  0  0  0  0  0  0
   44.2774   25.2712   42.2849 H   0  0  0  0  0  0  0  0  0  0  0  0
   43.3955   27.9983   41.6186 H   0  0  0  0  0  0  0  0  0  0  0  0
   44.6189   27.0093   40.8083 H   0  0  0  0  0  0  0  0  0  0  0  0
   42.9879   26.8528   39.1009 H   0  0  0  0  0  0  0  0  0  0  0  0
   41.6596   27.2868   40.1457 H   0  0  0  0  0  0  0  0  0  0  0  0
   41.3958   24.8569   39.8404 H   0  0  0  0  0  0  0  0  0  0  0  0
   43.0926   24.5256   39.9303 H   0  0  0  0  0  0  0  0  0  0  0  0
   41.2687   25.6944   42.1914 H   0  0  0  0  0  0  0  0  0  0  0  0
   42.1123   24.1813   42.3049 H   0  0  0  0  0  0  0  0  0  0  0  0
   36.3481   29.7659   43.2224 H   0  0  0  0  0  0  0  0  0  0  0  0
   36.0751   27.3254   44.0676 H   0  0  0  0  0  0  0  0  0  0  0  0
   40.9135   31.2948   42.0169 H   0  0  0  0  0  0  0  0  0  0  0  0
  1  6  2  0
  2  3  2  0
  2  1  1  0
  3  4  1  0
  4  5  2  0
  5 12  1  0
  6  5  1  0
  7  2  1  0
  8  7  1  0
  9 10  1  0
  9  8  1  0
 10 11  1  0
 11  7  1  0
 12 13  1  0
 12 14  1  0
 12 15  1  0
 16  3  1  0
 17 18  1  0
 19 18  2  0
 20 19  1  0
 21 20  2  0
 21 16  1  0
 22 21  1  0
 23 24  1  0
 23 22  2  0
 24 25  2  0
 25 20  1  0
 25 17  1  0
  1 26  1  0
  7 27  1  0
  8 28  1  0
  8 29  1  0
  9 30  1  0
  9 31  1  0
 10 32  1  0
 10 33  1  0
 11 34  1  0
 11 35  1  0
 17 36  1  0
 18 37  1  0
 23 38  1  0
M  ISO  8  26  14  27  13  28  13  29  13  30  13  31  13  32  13  33  13
M  ISO  5  34  13  35  13  36   9  37  14  38  14
M  END
>  <minimizedAffinity>  (1) 
-5.48138285

>  <minimizedRMSD>  (1) 
0.442962438

$$$$
