
     RDKit          3D

 32 35  0  0  0  0  0  0  0  0999 V2000
   44.5720   26.4250   44.3260 C   0  0  0  0  0  0  0  0  0  0  0  0
   43.3710   26.4430   43.5990 C   0  0  0  0  0  0  0  0  0  0  0  0
   42.1980   26.9210   44.1800 C   0  0  0  0  0  0  0  0  0  0  0  0
   42.2800   27.3690   45.4880 N   0  0  0  0  0  0  0  0  0  0  0  0
   43.4400   27.3410   46.1590 C   0  0  0  0  0  0  0  0  0  0  0  0
   44.5710   26.8810   45.6040 N   0  0  0  0  0  0  0  0  0  0  0  0
   43.3420   25.9710   42.2570 N   0  0  0  0  0  0  0  0  0  0  0  0
   44.4170   26.2580   41.5430 N   0  0  0  0  0  0  0  0  0  0  0  0
   44.2800   25.7640   40.2920 C   0  0  0  0  0  0  0  0  0  0  0  0
   43.0330   25.1480   40.2900 C   0  0  0  0  0  0  0  0  0  0  0  0
   42.4430   25.2810   41.5330 C   0  0  0  0  0  0  0  0  0  0  0  0
   43.4470   27.8400   47.5660 C   0  0  0  0  0  0  0  0  0  0  0  0
   43.4320   29.2210   47.5990 F   0  0  0  0  0  0  0  0  0  0  0  0
   42.2630   27.4540   48.2180 F   0  0  0  0  0  0  0  0  0  0  0  0
   44.5610   27.4180   48.2730 F   0  0  0  0  0  0  0  0  0  0  0  0
   41.0680   26.9130   43.4250 O   0  0  0  0  0  0  0  0  0  0  0  0
   37.0910   29.0980   43.3300 N   0  0  0  0  0  0  0  0  0  0  0  0
   36.9650   27.8490   43.7870 C   0  0  0  0  0  0  0  0  0  0  0  0
   38.1930   27.2850   43.7780 N   0  0  0  0  0  0  0  0  0  0  0  0
   39.1070   28.1680   43.3160 C   0  0  0  0  0  0  0  0  0  0  0  0
   40.4890   28.1240   43.1000 C   0  0  0  0  0  0  0  0  0  0  0  0
   41.0950   29.2290   42.6120 N   0  0  0  0  0  0  0  0  0  0  0  0
   40.3770   30.3380   42.3460 C   0  0  0  0  0  0  0  0  0  0  0  0
   39.0410   30.4180   42.5420 N   0  0  0  0  0  0  0  0  0  0  0  0
   38.3750   29.3200   43.0370 C   0  0  0  0  0  0  0  0  0  0  0  0
   45.4979   26.0477   43.8674 H   0  0  0  0  0  0  0  0  0  0  0  0
   44.9962   25.8338   39.4600 H   0  0  0  0  0  0  0  0  0  0  0  0
   42.5837   24.6323   39.4285 H   0  0  0  0  0  0  0  0  0  0  0  0
   41.4605   24.9070   41.8567 H   0  0  0  0  0  0  0  0  0  0  0  0
   36.3246   29.7775   43.2215 H   0  0  0  0  0  0  0  0  0  0  0  0
   36.0310   27.3671   44.1117 H   0  0  0  0  0  0  0  0  0  0  0  0
   40.9023   31.2200   41.9508 H   0  0  0  0  0  0  0  0  0  0  0  0
  1  6  2  0
  2  3  2  0
  2  1  1  0
  3  4  1  0
  4  5  2  0
  5 12  1  0
  6  5  1  0
  7  2  1  0
  8  7  1  0
  9  8  2  0
 10  9  1  0
 10 11  2  0
 11  7  1  0
 12 13  1  0
 12 14  1  0
 12 15  1  0
 16  3  1  0
 17 18  1  0
 19 18  2  0
 20 19  1  0
 21 20  2  0
 21 16  1  0
 22 21  1  0
 23 24  1  0
 23 22  2  0
 24 25  2  0
 25 20  1  0
 25 17  1  0
  1 26  1  0
  9 27  1  0
 10 28  1  0
 11 29  1  0
 17 30  1  0
 18 31  1  0
 23 32  1  0
M  ISO  7  26  14  27  14  28  14  29  14  30   9  31  14  32  14
M  END
>  <minimizedAffinity>  (1) 
-5.43285799

>  <minimizedRMSD>  (1) 
0.156728446

$$$$
