
     RDKit          3D

 36 39  0  0  0  0  0  0  0  0999 V2000
   44.6570   26.6660   43.9700 C   0  0  0  0  0  0  0  0  0  0  0  0
   43.4170   26.6900   43.3080 C   0  0  0  0  0  0  0  0  0  0  0  0
   42.2490   26.9510   44.0250 C   0  0  0  0  0  0  0  0  0  0  0  0
   42.3680   27.1770   45.3720 N   0  0  0  0  0  0  0  0  0  0  0  0
   43.5570   27.1490   45.9750 C   0  0  0  0  0  0  0  0  0  0  0  0
   44.6940   26.8980   45.2990 N   0  0  0  0  0  0  0  0  0  0  0  0
   43.4980   26.4320   41.9090 N   0  0  0  0  0  0  0  0  0  0  0  0
   43.2290   25.2800   41.2640 C   0  0  0  0  0  0  0  0  0  0  0  0
   43.3650   25.2150   39.8920 C   0  0  0  0  0  0  0  0  0  0  0  0
   43.7780   26.3270   39.1700 C   0  0  0  0  0  0  0  0  0  0  0  0
   43.8990   26.1880   37.7410 N   0  0  0  0  0  0  0  0  0  0  0  0
   44.0480   27.4870   39.8330 N   0  0  0  0  0  0  0  0  0  0  0  0
   43.9020   27.5080   41.1810 C   0  0  0  0  0  0  0  0  0  0  0  0
   44.1810   28.6370   41.6890 O   0  0  0  0  0  0  0  0  0  0  0  0
   43.6160   27.4050   47.4540 C   0  0  0  0  0  0  0  0  0  0  0  0
   44.4180   28.4960   47.7370 F   0  0  0  0  0  0  0  0  0  0  0  0
   42.3370   27.7620   47.9190 F   0  0  0  0  0  0  0  0  0  0  0  0
   44.1230   26.3290   48.1600 F   0  0  0  0  0  0  0  0  0  0  0  0
   41.0850   26.9590   43.3200 O   0  0  0  0  0  0  0  0  0  0  0  0
   37.0670   29.0780   43.3390 N   0  0  0  0  0  0  0  0  0  0  0  0
   36.9470   27.7940   43.7220 C   0  0  0  0  0  0  0  0  0  0  0  0
   38.1880   27.2560   43.6840 N   0  0  0  0  0  0  0  0  0  0  0  0
   39.0930   28.1820   43.2810 C   0  0  0  0  0  0  0  0  0  0  0  0
   40.4700   28.1780   43.0690 C   0  0  0  0  0  0  0  0  0  0  0  0
   41.0640   29.3230   42.6520 N   0  0  0  0  0  0  0  0  0  0  0  0
   40.3230   30.4340   42.4520 C   0  0  0  0  0  0  0  0  0  0  0  0
   38.9800   30.4760   42.6470 N   0  0  0  0  0  0  0  0  0  0  0  0
   38.3430   29.3450   43.0670 C   0  0  0  0  0  0  0  0  0  0  0  0
   45.5832   26.4612   43.4131 H   0  0  0  0  0  0  0  0  0  0  0  0
   42.9022   24.3945   41.8288 H   0  0  0  0  0  0  0  0  0  0  0  0
   43.1444   24.2744   39.3661 H   0  0  0  0  0  0  0  0  0  0  0  0
   43.6820   25.2873   37.2910 H   0  0  0  0  0  0  0  0  0  0  0  0
   44.2025   26.9893   37.1695 H   0  0  0  0  0  0  0  0  0  0  0  0
   36.2909   29.7514   43.2671 H   0  0  0  0  0  0  0  0  0  0  0  0
   36.0183   27.2801   44.0107 H   0  0  0  0  0  0  0  0  0  0  0  0
   40.8319   31.3491   42.1149 H   0  0  0  0  0  0  0  0  0  0  0  0
  1  6  2  0
  2  1  1  0
  2  3  2  0
  3  4  1  0
  4  5  2  0
  5 15  1  0
  6  5  1  0
  7  2  1  0
  8  7  1  0
  9  8  2  0
 10 12  2  0
 10  9  1  0
 11 10  1  0
 12 13  1  0
 13 14  2  0
 13  7  1  0
 15 16  1  0
 15 17  1  0
 15 18  1  0
 19  3  1  0
 20 21  1  0
 22 21  2  0
 23 22  1  0
 24 23  2  0
 24 19  1  0
 25 24  1  0
 26 27  1  0
 26 25  2  0
 27 28  2  0
 28 23  1  0
 28 20  1  0
  1 29  1  0
  8 30  1  0
  9 31  1  0
 11 32  1  0
 11 33  1  0
 20 34  1  0
 21 35  1  0
 26 36  1  0
M  ISO  6  29  14  30  14  31  14  34   9  35  14  36  14
M  END
>  <minimizedAffinity>  (1) 
-5.37715292

>  <minimizedRMSD>  (1) 
1.47584045

$$$$
