
     RDKit          3D

 26 28  0  0  0  0  0  0  0  0999 V2000
   41.1060   26.9130   43.4140 O   0  0  0  0  0  0  0  0  0  0  0  0
   37.1140   29.0810   43.3440 N   0  0  0  0  0  0  0  0  0  0  0  0
   37.0010   27.8370   43.8170 C   0  0  0  0  0  0  0  0  0  0  0  0
   38.2280   27.2840   43.7970 N   0  0  0  0  0  0  0  0  0  0  0  0
   39.1410   28.1490   43.3190 C   0  0  0  0  0  0  0  0  0  0  0  0
   40.5060   28.1170   43.0850 C   0  0  0  0  0  0  0  0  0  0  0  0
   41.1090   29.2100   42.5780 N   0  0  0  0  0  0  0  0  0  0  0  0
   40.3870   30.3140   42.3060 C   0  0  0  0  0  0  0  0  0  0  0  0
   39.0410   30.4030   42.5160 N   0  0  0  0  0  0  0  0  0  0  0  0
   38.3960   29.3070   43.0310 C   0  0  0  0  0  0  0  0  0  0  0  0
   44.5950   26.4440   44.3730 C   0  0  0  0  0  0  0  0  0  0  0  0
   43.4020   26.4520   43.6160 C   0  0  0  0  0  0  0  0  0  0  0  0
   42.2180   26.9280   44.1810 C   0  0  0  0  0  0  0  0  0  0  0  0
   42.2750   27.3800   45.4860 N   0  0  0  0  0  0  0  0  0  0  0  0
   43.4250   27.3600   46.1780 C   0  0  0  0  0  0  0  0  0  0  0  0
   44.5730   26.9000   45.6370 N   0  0  0  0  0  0  0  0  0  0  0  0
   43.4100   27.8650   47.5840 C   0  0  0  0  0  0  0  0  0  0  0  0
   43.3800   29.2520   47.6090 F   0  0  0  0  0  0  0  0  0  0  0  0
   42.2360   27.4770   48.2290 F   0  0  0  0  0  0  0  0  0  0  0  0
   44.5330   27.4860   48.2940 F   0  0  0  0  0  0  0  0  0  0  0  0
   43.5320   25.8270   41.9470 S   0  0  0  0  0  0  0  0  0  0  0  0
   36.3424   29.7550   43.2376 H   0  0  0  0  0  0  0  0  0  0  0  0
   36.0747   27.3530   44.1601 H   0  0  0  0  0  0  0  0  0  0  0  0
   40.9092   31.1897   41.8931 H   0  0  0  0  0  0  0  0  0  0  0  0
   45.5308   26.0689   43.9329 H   0  0  0  0  0  0  0  0  0  0  0  0
   43.8109   24.4861   41.9819 H   0  0  0  0  0  0  0  0  0  0  0  0
  1 13  1  0
  2  3  1  0
  4  3  2  0
  5  4  1  0
  6  5  2  0
  6  1  1  0
  7  6  1  0
  8  9  1  0
  8  7  2  0
  9 10  2  0
 10  5  1  0
 10  2  1  0
 11 16  2  0
 12 13  2  0
 12 11  1  0
 13 14  1  0
 14 15  2  0
 15 17  1  0
 16 15  1  0
 17 18  1  0
 17 19  1  0
 17 20  1  0
 21 12  1  0
  2 22  1  0
  3 23  1  0
  8 24  1  0
 11 25  1  0
 21 26  1  0
M  ISO  5  22   9  23  14  24  14  25  14  26  11
M  END
>  <minimizedAffinity>  (1) 
-5.29384089

>  <minimizedRMSD>  (1) 
0.0966159105

$$$$
