
     RDKit          3D

 42 46  0  0  0  0  0  0  0  0999 V2000
   44.6320   26.6540   44.0500 C   0  0  0  0  0  0  0  0  0  0  0  0
   43.4210   26.6690   43.3620 C   0  0  0  0  0  0  0  0  0  0  0  0
   42.2520   26.9330   44.0710 C   0  0  0  0  0  0  0  0  0  0  0  0
   42.3490   27.1700   45.4290 N   0  0  0  0  0  0  0  0  0  0  0  0
   43.5380   27.1460   46.0470 C   0  0  0  0  0  0  0  0  0  0  0  0
   44.6860   26.8900   45.3750 N   0  0  0  0  0  0  0  0  0  0  0  0
   43.3100   26.4180   41.9270 C   0  0  0  0  0  0  0  0  0  0  0  0
   43.6700   27.3460   40.9650 C   0  0  0  0  0  0  0  0  0  0  0  0
   43.5750   27.1370   39.6010 C   0  0  0  0  0  0  0  0  0  0  0  0
   43.0930   25.9330   39.1890 N   0  0  0  0  0  0  0  0  0  0  0  0
   42.7400   25.0250   40.1220 C   0  0  0  0  0  0  0  0  0  0  0  0
   42.8410   25.2510   41.4450 N   0  0  0  0  0  0  0  0  0  0  0  0
   43.5800   27.4090   47.5190 C   0  0  0  0  0  0  0  0  0  0  0  0
   44.3830   28.4940   47.7980 F   0  0  0  0  0  0  0  0  0  0  0  0
   42.3040   27.7870   47.9770 F   0  0  0  0  0  0  0  0  0  0  0  0
   44.0790   26.3380   48.2400 F   0  0  0  0  0  0  0  0  0  0  0  0
   41.0620   26.9450   43.3860 O   0  0  0  0  0  0  0  0  0  0  0  0
   37.0900   29.0980   43.3400 N   0  0  0  0  0  0  0  0  0  0  0  0
   36.9610   27.8370   43.7840 C   0  0  0  0  0  0  0  0  0  0  0  0
   38.1950   27.2850   43.7580 N   0  0  0  0  0  0  0  0  0  0  0  0
   39.1070   28.1820   43.3040 C   0  0  0  0  0  0  0  0  0  0  0  0
   40.4680   28.1490   43.0850 C   0  0  0  0  0  0  0  0  0  0  0  0
   41.0780   29.2620   42.6090 N   0  0  0  0  0  0  0  0  0  0  0  0
   40.3530   30.3730   42.3610 C   0  0  0  0  0  0  0  0  0  0  0  0
   39.0180   30.4370   42.5660 N   0  0  0  0  0  0  0  0  0  0  0  0
   38.3700   29.3410   43.0420 C   0  0  0  0  0  0  0  0  0  0  0  0
   41.0190   31.5700   41.8480 C   0  0  0  0  0  0  0  0  0  0  0  0
   42.2920   31.8940   42.2810 C   0  0  0  0  0  0  0  0  0  0  0  0
   42.9860   32.9960   41.8510 C   0  0  0  0  0  0  0  0  0  0  0  0
   42.3180   33.7930   40.9290 C   0  0  0  0  0  0  0  0  0  0  0  0
   41.0350   33.4920   40.4760 C   0  0  0  0  0  0  0  0  0  0  0  0
   40.4220   32.3880   40.9480 N   0  0  0  0  0  0  0  0  0  0  0  0
   45.5620   26.4454   43.5008 H   0  0  0  0  0  0  0  0  0  0  0  0
   44.0582   28.3161   41.3089 H   0  0  0  0  0  0  0  0  0  0  0  0
   43.8763   27.9112   38.8800 H   0  0  0  0  0  0  0  0  0  0  0  0
   42.3508   24.0528   39.7853 H   0  0  0  0  0  0  0  0  0  0  0  0
   36.3196   29.7749   43.2438 H   0  0  0  0  0  0  0  0  0  0  0  0
   36.0303   27.3474   44.1067 H   0  0  0  0  0  0  0  0  0  0  0  0
   42.7756   31.2296   43.0123 H   0  0  0  0  0  0  0  0  0  0  0  0
   43.9986   33.2321   42.2101 H   0  0  0  0  0  0  0  0  0  0  0  0
   42.8196   34.6928   40.5434 H   0  0  0  0  0  0  0  0  0  0  0  0
   40.5315   34.1434   39.7465 H   0  0  0  0  0  0  0  0  0  0  0  0
  1  6  2  0
  2  1  1  0
  2  3  2  0
  3  4  1  0
  4  5  2  0
  5 13  1  0
  6  5  1  0
  7  2  1  0
  8  7  2  0
  9  8  1  0
 10  9  2  0
 10 11  1  0
 11 12  2  0
 12  7  1  0
 13 14  1  0
 13 15  1  0
 13 16  1  0
 17  3  1  0
 18 19  1  0
 20 19  2  0
 21 20  1  0
 22 21  2  0
 22 17  1  0
 23 22  1  0
 24 25  1  0
 24 23  2  0
 25 26  2  0
 26 21  1  0
 26 18  1  0
 27 28  2  0
 27 24  1  0
 29 28  1  0
 30 29  2  0
 31 30  1  0
 31 32  2  0
 32 27  1  0
  1 33  1  0
  8 34  1  0
  9 35  1  0
 11 36  1  0
 18 37  1  0
 19 38  1  0
 28 39  1  0
 29 40  1  0
 30 41  1  0
 31 42  1  0
M  ISO  8  33  14  34  14  35  14  36  14  37   9  38  14  39  14  40  14
M  ISO  2  41  14  42  14
M  END
>  <minimizedAffinity>  (1) 
-6.22743893

>  <minimizedRMSD>  (1) 
0.696357071

$$$$
