
     RDKit          3D

 39 42  0  0  0  0  0  0  0  0999 V2000
   44.5780   26.4120   44.4320 C   0  0  0  0  0  0  0  0  0  0  0  0
   43.4190   26.4390   43.6460 C   0  0  0  0  0  0  0  0  0  0  0  0
   42.2410   26.9260   44.2010 C   0  0  0  0  0  0  0  0  0  0  0  0
   42.2690   27.3620   45.5100 N   0  0  0  0  0  0  0  0  0  0  0  0
   43.4020   27.3160   46.2160 C   0  0  0  0  0  0  0  0  0  0  0  0
   44.5630   26.8430   45.6910 N   0  0  0  0  0  0  0  0  0  0  0  0
   43.3920   25.9760   42.2600 C   0  0  0  0  0  0  0  0  0  0  0  0
   44.4300   26.1300   41.3710 C   0  0  0  0  0  0  0  0  0  0  0  0
   44.4280   25.7030   40.0640 C   0  0  0  0  0  0  0  0  0  0  0  0
   43.3040   25.0780   39.6230 N   0  0  0  0  0  0  0  0  0  0  0  0
   42.2750   24.9180   40.4820 C   0  0  0  0  0  0  0  0  0  0  0  0
   42.3100   25.3480   41.7570 N   0  0  0  0  0  0  0  0  0  0  0  0
   43.3810   27.8010   47.6340 C   0  0  0  0  0  0  0  0  0  0  0  0
   43.3640   29.1840   47.6780 F   0  0  0  0  0  0  0  0  0  0  0  0
   42.1800   27.4290   48.2530 F   0  0  0  0  0  0  0  0  0  0  0  0
   44.4690   27.3760   48.3760 F   0  0  0  0  0  0  0  0  0  0  0  0
   41.1240   26.9450   43.4260 O   0  0  0  0  0  0  0  0  0  0  0  0
   37.1440   29.1000   43.3230 N   0  0  0  0  0  0  0  0  0  0  0  0
   37.0110   27.8440   43.7700 C   0  0  0  0  0  0  0  0  0  0  0  0
   38.2430   27.2840   43.7650 N   0  0  0  0  0  0  0  0  0  0  0  0
   39.1600   28.1780   43.3180 C   0  0  0  0  0  0  0  0  0  0  0  0
   40.5360   28.1470   43.1120 C   0  0  0  0  0  0  0  0  0  0  0  0
   41.1580   29.2550   42.6400 N   0  0  0  0  0  0  0  0  0  0  0  0
   40.4160   30.3600   42.3840 C   0  0  0  0  0  0  0  0  0  0  0  0
   39.0870   30.4310   42.5680 N   0  0  0  0  0  0  0  0  0  0  0  0
   38.4320   29.3340   43.0420 C   0  0  0  0  0  0  0  0  0  0  0  0
   41.0870   31.5880   41.8630 C   0  0  0  0  0  0  0  0  0  0  0  0
   42.4380   31.7980   42.5060 C   0  0  0  0  0  0  0  0  0  0  0  0
   45.5151   26.0286   44.0020 H   0  0  0  0  0  0  0  0  0  0  0  0
   45.3360   26.6362   41.7354 H   0  0  0  0  0  0  0  0  0  0  0  0
   45.2954   25.8598   39.4059 H   0  0  0  0  0  0  0  0  0  0  0  0
   41.3660   24.4129   40.1235 H   0  0  0  0  0  0  0  0  0  0  0  0
   36.3767   29.7783   43.2129 H   0  0  0  0  0  0  0  0  0  0  0  0
   36.0748   27.3584   44.0828 H   0  0  0  0  0  0  0  0  0  0  0  0
   41.2207   31.4879   40.7757 H   0  0  0  0  0  0  0  0  0  0  0  0
   40.4532   32.4546   42.1024 H   0  0  0  0  0  0  0  0  0  0  0  0
   42.3297   31.7812   43.6005 H   0  0  0  0  0  0  0  0  0  0  0  0
   43.1219   30.9954   42.1928 H   0  0  0  0  0  0  0  0  0  0  0  0
   42.8460   32.7703   42.1928 H   0  0  0  0  0  0  0  0  0  0  0  0
  1  6  2  0
  2  3  2  0
  2  1  1  0
  3  4  1  0
  4  5  2  0
  5 13  1  0
  6  5  1  0
  7  2  1  0
  8  7  2  0
  9  8  1  0
 10  9  2  0
 10 11  1  0
 11 12  2  0
 12  7  1  0
 13 14  1  0
 13 15  1  0
 13 16  1  0
 17  3  1  0
 18 19  1  0
 20 19  2  0
 21 20  1  0
 22 21  2  0
 22 17  1  0
 23 22  1  0
 24 25  1  0
 24 23  2  0
 25 26  2  0
 26 21  1  0
 26 18  1  0
 27 24  1  0
 27 28  1  0
  1 29  1  0
  8 30  1  0
  9 31  1  0
 11 32  1  0
 18 33  1  0
 19 34  1  0
 27 35  1  0
 27 36  1  0
 28 37  1  0
 28 38  1  0
 28 39  1  0
M  ISO  8  29  14  30  14  31  14  32  14  33   9  34  14  35   8  36   8
M  ISO  3  37   8  38   8  39   8
M  END
>  <minimizedAffinity>  (1) 
-5.56158638

>  <minimizedRMSD>  (1) 
0.190092802

$$$$
