
     RDKit          3D

 35 37  0  0  0  0  0  0  0  0999 V2000
   37.5260   29.2540   41.5730 C   0  0  0  0  0  0  0  0  0  0  0  0
   37.4260   29.0590   42.9670 C   0  0  0  0  0  0  0  0  0  0  0  0
   37.1760   27.8480   43.5780 C   0  0  0  0  0  0  0  0  0  0  0  0
   37.0090   26.7350   42.7780 C   0  0  0  0  0  0  0  0  0  0  0  0
   37.0930   26.8500   41.4090 C   0  0  0  0  0  0  0  0  0  0  0  0
   36.9370   25.7410   40.6180 C   0  0  0  0  0  0  0  0  0  0  0  0
   37.0240   25.8060   39.2350 C   0  0  0  0  0  0  0  0  0  0  0  0
   37.2800   27.0770   38.7100 C   0  0  0  0  0  0  0  0  0  0  0  0
   37.4280   28.1510   39.5340 C   0  0  0  0  0  0  0  0  0  0  0  0
   37.3440   28.0900   40.8900 C   0  0  0  0  0  0  0  0  0  0  0  0
   37.7860   30.5860   41.1430 C   0  0  0  0  0  0  0  0  0  0  0  0
   36.9580   31.4910   40.4610 C   0  0  0  0  0  0  0  0  0  0  0  0
   37.3470   32.7900   40.1410 C   0  0  0  0  0  0  0  0  0  0  0  0
   38.5970   33.1240   40.5340 N   0  0  0  0  0  0  0  0  0  0  0  0
   39.4140   32.2920   41.1820 C   0  0  0  0  0  0  0  0  0  0  0  0
   39.0010   31.0510   41.4730 N   0  0  0  0  0  0  0  0  0  0  0  0
   36.6600   24.3930   41.1570 C   0  0  0  0  0  0  0  0  0  0  0  0
   37.9420   23.5730   41.2870 C   0  0  0  0  0  0  0  0  0  0  0  0
   35.7700   23.5860   40.2190 C   0  0  0  0  0  0  0  0  0  0  0  0
   37.5572   29.9384   43.6147 H   0  0  0  0  0  0  0  0  0  0  0  0
   37.1114   27.7709   44.6734 H   0  0  0  0  0  0  0  0  0  0  0  0
   36.8085   25.7549   43.2355 H   0  0  0  0  0  0  0  0  0  0  0  0
   36.9003   24.9195   38.5956 H   0  0  0  0  0  0  0  0  0  0  0  0
   37.3625   27.2102   37.6212 H   0  0  0  0  0  0  0  0  0  0  0  0
   37.6282   29.1298   39.0737 H   0  0  0  0  0  0  0  0  0  0  0  0
   35.9523   31.1583   40.1645 H   0  0  0  0  0  0  0  0  0  0  0  0
   36.6871   33.4910   39.6088 H   0  0  0  0  0  0  0  0  0  0  0  0
   40.4211   32.6229   41.4758 H   0  0  0  0  0  0  0  0  0  0  0  0
   36.1779   24.5609   42.1313 H   0  0  0  0  0  0  0  0  0  0  0  0
   38.1754   23.4237   42.3515 H   0  0  0  0  0  0  0  0  0  0  0  0
   37.8030   22.5958   40.8015 H   0  0  0  0  0  0  0  0  0  0  0  0
   38.7709   24.1090   40.8015 H   0  0  0  0  0  0  0  0  0  0  0  0
   35.0831   22.9632   40.8108 H   0  0  0  0  0  0  0  0  0  0  0  0
   35.1890   24.2716   39.5846 H   0  0  0  0  0  0  0  0  0  0  0  0
   36.3956   22.9409   39.5846 H   0  0  0  0  0  0  0  0  0  0  0  0
  1  2  2  0
  2  3  1  0
  4  3  2  0
  5  4  1  0
  6 17  1  0
  6  5  2  0
  7  6  1  0
  8  7  2  0
  8  9  1  0
  9 10  2  0
 10  5  1  0
 10  1  1  0
 11 16  1  0
 11  1  1  0
 12 11  2  0
 13 12  1  0
 13 14  2  0
 14 15  1  0
 15 16  2  0
 17 18  1  0
 19 17  1  0
  2 20  1  0
  3 21  1  0
  4 22  1  0
  7 23  1  0
  8 24  1  0
  9 25  1  0
 12 26  1  0
 13 27  1  0
 15 28  1  0
 17 29  1  0
 18 30  1  0
 18 31  1  0
 18 32  1  0
 19 33  1  0
 19 34  1  0
 19 35  1  0
M  ISO  8  20  14  21  14  22  14  23  14  24  14  25  14  26  14  27  14
M  ISO  8  28  14  29   8  30   8  31   8  32   8  33   8  34   8  35   8
M  END
>  <minimizedAffinity>  (1) 
-5.74795008

>  <minimizedRMSD>  (1) 
2.14163733

$$$$
