
     RDKit          3D

 38 40  0  0  0  0  0  0  0  0999 V2000
   37.7470   29.5720   41.3850 C   0  0  0  0  0  0  0  0  0  0  0  0
   37.8470   29.3570   42.7770 C   0  0  0  0  0  0  0  0  0  0  0  0
   37.7110   28.1200   43.3820 C   0  0  0  0  0  0  0  0  0  0  0  0
   37.4610   27.0320   42.5860 C   0  0  0  0  0  0  0  0  0  0  0  0
   37.3510   27.1660   41.2280 C   0  0  0  0  0  0  0  0  0  0  0  0
   37.1160   26.0640   40.4540 C   0  0  0  0  0  0  0  0  0  0  0  0
   37.0150   26.1510   39.0740 C   0  0  0  0  0  0  0  0  0  0  0  0
   37.1700   27.4250   38.5490 C   0  0  0  0  0  0  0  0  0  0  0  0
   37.4010   28.5010   39.3560 C   0  0  0  0  0  0  0  0  0  0  0  0
   37.5010   28.4180   40.7120 C   0  0  0  0  0  0  0  0  0  0  0  0
   37.9090   30.9210   40.9470 C   0  0  0  0  0  0  0  0  0  0  0  0
   37.0200   31.7560   40.2490 C   0  0  0  0  0  0  0  0  0  0  0  0
   37.3090   33.0690   39.9230 C   0  0  0  0  0  0  0  0  0  0  0  0
   38.5330   33.5110   40.3290 N   0  0  0  0  0  0  0  0  0  0  0  0
   39.3930   32.7430   40.9890 C   0  0  0  0  0  0  0  0  0  0  0  0
   39.0740   31.4780   41.2840 N   0  0  0  0  0  0  0  0  0  0  0  0
   36.9750   24.7300   41.1070 C   0  0  0  0  0  0  0  0  0  0  0  0
   38.3420   24.0640   41.0720 C   0  0  0  0  0  0  0  0  0  0  0  0
   36.6340   24.8340   42.5580 C   0  0  0  0  0  0  0  0  0  0  0  0
   36.0780   23.7920   40.3410 C   0  0  0  0  0  0  0  0  0  0  0  0
   38.0453   30.2269   43.4204 H   0  0  0  0  0  0  0  0  0  0  0  0
   37.8011   28.0123   44.4730 H   0  0  0  0  0  0  0  0  0  0  0  0
   37.3473   26.0386   43.0445 H   0  0  0  0  0  0  0  0  0  0  0  0
   36.8254   25.2719   38.4406 H   0  0  0  0  0  0  0  0  0  0  0  0
   37.1055   27.5712   37.4607 H   0  0  0  0  0  0  0  0  0  0  0  0
   37.5125   29.4892   38.8859 H   0  0  0  0  0  0  0  0  0  0  0  0
   36.0455   31.3450   39.9467 H   0  0  0  0  0  0  0  0  0  0  0  0
   36.6022   33.7100   39.3757 H   0  0  0  0  0  0  0  0  0  0  0  0
   40.3693   33.1482   41.2934 H   0  0  0  0  0  0  0  0  0  0  0  0
   38.6930   23.8930   42.1004 H   0  0  0  0  0  0  0  0  0  0  0  0
   38.2674   23.1013   40.5452 H   0  0  0  0  0  0  0  0  0  0  0  0
   39.0542   24.7161   40.5452 H   0  0  0  0  0  0  0  0  0  0  0  0
   37.5137   24.5657   43.1615 H   0  0  0  0  0  0  0  0  0  0  0  0
   36.3307   25.8655   42.7904 H   0  0  0  0  0  0  0  0  0  0  0  0
   35.8066   24.1473   42.7904 H   0  0  0  0  0  0  0  0  0  0  0  0
   35.4954   23.1828   41.0478 H   0  0  0  0  0  0  0  0  0  0  0  0
   35.3928   24.3750   39.7081 H   0  0  0  0  0  0  0  0  0  0  0  0
   36.6910   23.1335   39.7081 H   0  0  0  0  0  0  0  0  0  0  0  0
  1  2  2  0
  2  3  1  0
  4  3  2  0
  5  4  1  0
  6 17  1  0
  6  5  2  0
  7  6  1  0
  8  7  2  0
  8  9  1  0
  9 10  2  0
 10  5  1  0
 10  1  1  0
 11 16  1  0
 11  1  1  0
 12 11  2  0
 13 12  1  0
 13 14  2  0
 14 15  1  0
 15 16  2  0
 17 19  1  0
 18 17  1  0
 20 17  1  0
  2 21  1  0
  3 22  1  0
  4 23  1  0
  7 24  1  0
  8 25  1  0
  9 26  1  0
 12 27  1  0
 13 28  1  0
 15 29  1  0
 18 30  1  0
 18 31  1  0
 18 32  1  0
 19 33  1  0
 19 34  1  0
 19 35  1  0
 20 36  1  0
 20 37  1  0
 20 38  1  0
M  ISO  8  21  14  22  14  23  14  24  14  25  14  26  14  27  14  28  14
M  ISO  8  29  14  30   8  31   8  32   8  33   8  34   8  35   8  36   8
M  ISO  2  37   8  38   8
M  END
>  <minimizedAffinity>  (1) 
-5.68064404

>  <minimizedRMSD>  (1) 
2.32062507

$$$$
