
     RDKit          3D

 32 34  0  0  0  0  0  0  0  0999 V2000
   37.5550   29.3370   41.6430 C   0  0  0  0  0  0  0  0  0  0  0  0
   37.5710   29.2080   43.0480 C   0  0  0  0  0  0  0  0  0  0  0  0
   37.3940   28.0230   43.7370 C   0  0  0  0  0  0  0  0  0  0  0  0
   37.1860   26.8800   43.0150 C   0  0  0  0  0  0  0  0  0  0  0  0
   37.1570   26.9240   41.6340 C   0  0  0  0  0  0  0  0  0  0  0  0
   36.9490   25.7770   40.9000 C   0  0  0  0  0  0  0  0  0  0  0  0
   36.9130   25.7740   39.5170 C   0  0  0  0  0  0  0  0  0  0  0  0
   37.1020   27.0170   38.9210 C   0  0  0  0  0  0  0  0  0  0  0  0
   37.3070   28.1410   39.6720 C   0  0  0  0  0  0  0  0  0  0  0  0
   37.3420   28.1410   41.0310 C   0  0  0  0  0  0  0  0  0  0  0  0
   37.7610   30.6500   41.1320 C   0  0  0  0  0  0  0  0  0  0  0  0
   36.9070   31.4790   40.3930 C   0  0  0  0  0  0  0  0  0  0  0  0
   37.2580   32.7670   39.9960 C   0  0  0  0  0  0  0  0  0  0  0  0
   38.4920   33.1770   40.3720 N   0  0  0  0  0  0  0  0  0  0  0  0
   39.3250   32.4160   41.0720 C   0  0  0  0  0  0  0  0  0  0  0  0
   38.9530   31.1860   41.4350 N   0  0  0  0  0  0  0  0  0  0  0  0
   36.7580   24.5060   41.6450 C   0  0  0  0  0  0  0  0  0  0  0  0
   37.6930   23.4210   41.1700 C   0  0  0  0  0  0  0  0  0  0  0  0
   37.7370   30.1201   43.6401 H   0  0  0  0  0  0  0  0  0  0  0  0
   37.4197   27.9997   44.8365 H   0  0  0  0  0  0  0  0  0  0  0  0
   37.0412   25.9219   43.5357 H   0  0  0  0  0  0  0  0  0  0  0  0
   36.7473   24.8572   38.9321 H   0  0  0  0  0  0  0  0  0  0  0  0
   37.0862   27.0970   37.8240 H   0  0  0  0  0  0  0  0  0  0  0  0
   37.4515   29.0973   39.1480 H   0  0  0  0  0  0  0  0  0  0  0  0
   35.9146   31.0954   40.1137 H   0  0  0  0  0  0  0  0  0  0  0  0
   36.5780   33.4081   39.4158 H   0  0  0  0  0  0  0  0  0  0  0  0
   40.3180   32.7975   41.3519 H   0  0  0  0  0  0  0  0  0  0  0  0
   36.9431   24.6904   42.7135 H   0  0  0  0  0  0  0  0  0  0  0  0
   35.7272   24.1639   41.4705 H   0  0  0  0  0  0  0  0  0  0  0  0
   38.1333   22.9101   42.0390 H   0  0  0  0  0  0  0  0  0  0  0  0
   37.1333   22.6947   40.5624 H   0  0  0  0  0  0  0  0  0  0  0  0
   38.4940   23.8673   40.5624 H   0  0  0  0  0  0  0  0  0  0  0  0
  1  2  2  0
  2  3  1  0
  4  3  2  0
  5  4  1  0
  6  5  2  0
  6 17  1  0
  7  6  1  0
  8  7  2  0
  8  9  1  0
  9 10  2  0
 10  5  1  0
 10  1  1  0
 11 16  1  0
 11  1  1  0
 12 11  2  0
 13 14  2  0
 13 12  1  0
 14 15  1  0
 15 16  2  0
 18 17  1  0
  2 19  1  0
  3 20  1  0
  4 21  1  0
  7 22  1  0
  8 23  1  0
  9 24  1  0
 12 25  1  0
 13 26  1  0
 15 27  1  0
 17 28  1  0
 17 29  1  0
 18 30  1  0
 18 31  1  0
 18 32  1  0
M  ISO  8  19  14  20  14  21  14  22  14  23  14  24  14  25  14  26  14
M  ISO  6  27  14  28   8  29   8  30   8  31   8  32   8
M  END
>  <minimizedAffinity>  (1) 
-5.60660315

>  <minimizedRMSD>  (1) 
2.02798033

$$$$
