
     RDKit          3D

 29 31  0  0  0  0  0  0  0  0999 V2000
   37.5730   29.2800   41.6270 C   0  0  0  0  0  0  0  0  0  0  0  0
   37.5850   29.2330   43.0380 C   0  0  0  0  0  0  0  0  0  0  0  0
   37.4110   28.0910   43.7940 C   0  0  0  0  0  0  0  0  0  0  0  0
   37.2100   26.9020   43.1380 C   0  0  0  0  0  0  0  0  0  0  0  0
   37.1860   26.8710   41.7730 C   0  0  0  0  0  0  0  0  0  0  0  0
   36.9890   25.6870   41.1060 C   0  0  0  0  0  0  0  0  0  0  0  0
   36.9580   25.5960   39.7110 C   0  0  0  0  0  0  0  0  0  0  0  0
   37.1400   26.7980   39.0490 C   0  0  0  0  0  0  0  0  0  0  0  0
   37.3350   27.9660   39.7300 C   0  0  0  0  0  0  0  0  0  0  0  0
   37.3650   28.0460   41.0880 C   0  0  0  0  0  0  0  0  0  0  0  0
   37.7790   30.5580   41.0370 C   0  0  0  0  0  0  0  0  0  0  0  0
   36.8770   31.4510   40.4720 C   0  0  0  0  0  0  0  0  0  0  0  0
   37.2390   32.6960   39.9650 C   0  0  0  0  0  0  0  0  0  0  0  0
   38.5530   32.9980   40.0540 N   0  0  0  0  0  0  0  0  0  0  0  0
   39.4490   32.1720   40.5880 C   0  0  0  0  0  0  0  0  0  0  0  0
   39.0530   30.9860   41.0620 N   0  0  0  0  0  0  0  0  0  0  0  0
   36.8050   24.4660   41.9410 C   0  0  0  0  0  0  0  0  0  0  0  0
   37.7453   30.1788   43.5763 H   0  0  0  0  0  0  0  0  0  0  0  0
   37.4328   28.1327   44.8930 H   0  0  0  0  0  0  0  0  0  0  0  0
   37.0683   25.9743   43.7118 H   0  0  0  0  0  0  0  0  0  0  0  0
   36.8014   24.6446   39.1816 H   0  0  0  0  0  0  0  0  0  0  0  0
   37.1273   26.8130   37.9492 H   0  0  0  0  0  0  0  0  0  0  0  0
   37.4751   28.8902   39.1502 H   0  0  0  0  0  0  0  0  0  0  0  0
   35.8179   31.1580   40.4225 H   0  0  0  0  0  0  0  0  0  0  0  0
   36.5058   33.3863   39.5224 H   0  0  0  0  0  0  0  0  0  0  0  0
   40.5086   32.4628   40.6392 H   0  0  0  0  0  0  0  0  0  0  0  0
   36.8463   24.7401   43.0055 H   0  0  0  0  0  0  0  0  0  0  0  0
   35.8283   24.0123   41.7168 H   0  0  0  0  0  0  0  0  0  0  0  0
   37.6046   23.7446   41.7168 H   0  0  0  0  0  0  0  0  0  0  0  0
  1  2  2  0
  2  3  1  0
  4  3  2  0
  5  4  1  0
  6  5  2  0
  6 17  1  0
  7  6  1  0
  8  7  2  0
  8  9  1  0
  9 10  2  0
 10  1  1  0
 10  5  1  0
 11 16  1  0
 11  1  1  0
 12 11  2  0
 13 14  2  0
 13 12  1  0
 14 15  1  0
 15 16  2  0
  2 18  1  0
  3 19  1  0
  4 20  1  0
  7 21  1  0
  8 22  1  0
  9 23  1  0
 12 24  1  0
 13 25  1  0
 15 26  1  0
 17 27  1  0
 17 28  1  0
 17 29  1  0
M  ISO  8  18  14  19  14  20  14  21  14  22  14  23  14  24  14  25  14
M  ISO  4  26  14  27   8  28   8  29   8
M  END
>  <minimizedAffinity>  (1) 
-5.4628768

>  <minimizedRMSD>  (1) 
1.68269742

$$$$
