
     RDKit          3D

 28 30  0  0  0  0  0  0  0  0999 V2000
   37.5680   29.3570   41.5780 C   0  0  0  0  0  0  0  0  0  0  0  0
   37.6450   29.2160   42.9800 C   0  0  0  0  0  0  0  0  0  0  0  0
   37.5140   28.0160   43.6540 C   0  0  0  0  0  0  0  0  0  0  0  0
   37.2920   26.8710   42.9290 C   0  0  0  0  0  0  0  0  0  0  0  0
   37.2040   26.9270   41.5480 C   0  0  0  0  0  0  0  0  0  0  0  0
   36.9920   25.7950   40.8060 C   0  0  0  0  0  0  0  0  0  0  0  0
   36.9070   25.8060   39.4280 C   0  0  0  0  0  0  0  0  0  0  0  0
   37.0530   27.0550   38.8560 C   0  0  0  0  0  0  0  0  0  0  0  0
   37.2640   28.1670   39.6120 C   0  0  0  0  0  0  0  0  0  0  0  0
   37.3480   28.1610   40.9680 C   0  0  0  0  0  0  0  0  0  0  0  0
   37.7230   30.6780   41.0720 C   0  0  0  0  0  0  0  0  0  0  0  0
   36.8430   31.4620   40.3100 C   0  0  0  0  0  0  0  0  0  0  0  0
   37.1280   32.7690   39.9210 C   0  0  0  0  0  0  0  0  0  0  0  0
   38.3210   33.2390   40.3260 N   0  0  0  0  0  0  0  0  0  0  0  0
   39.1830   32.5260   41.0490 C   0  0  0  0  0  0  0  0  0  0  0  0
   38.8730   31.2690   41.4050 N   0  0  0  0  0  0  0  0  0  0  0  0
   36.8380   24.4890   41.4080 C   0  0  0  0  0  0  0  0  0  0  0  0
   37.4770   23.4480   41.6140 O   0  0  0  0  0  0  0  0  0  0  0  0
   37.8213   30.1227   43.5773 H   0  0  0  0  0  0  0  0  0  0  0  0
   37.5863   27.9791   44.7510 H   0  0  0  0  0  0  0  0  0  0  0  0
   37.1838   25.9065   43.4467 H   0  0  0  0  0  0  0  0  0  0  0  0
   36.7371   24.8955   38.8346 H   0  0  0  0  0  0  0  0  0  0  0  0
   36.9973   27.1533   37.7618 H   0  0  0  0  0  0  0  0  0  0  0  0
   37.3733   29.1306   39.0928 H   0  0  0  0  0  0  0  0  0  0  0  0
   35.8815   31.0232   40.0051 H   0  0  0  0  0  0  0  0  0  0  0  0
   36.4276   33.3730   39.3255 H   0  0  0  0  0  0  0  0  0  0  0  0
   40.1446   32.9650   41.3531 H   0  0  0  0  0  0  0  0  0  0  0  0
   35.8217   24.3867   41.8162 H   0  0  0  0  0  0  0  0  0  0  0  0
  1  2  2  0
  2  3  1  0
  4  3  2  0
  5  4  1  0
  6 17  1  0
  6  5  2  0
  7  6  1  0
  8  7  2  0
  8  9  1  0
  9 10  2  0
 10  5  1  0
 10  1  1  0
 11 16  1  0
 11  1  1  0
 12 11  2  0
 13 12  1  0
 13 14  2  0
 14 15  1  0
 15 16  2  0
 17 18  2  0
  2 19  1  0
  3 20  1  0
  4 21  1  0
  7 22  1  0
  8 23  1  0
  9 24  1  0
 12 25  1  0
 13 26  1  0
 15 27  1  0
 17 28  1  0
M  ISO  8  19  14  20  14  21  14  22  14  23  14  24  14  25  14  26  14
M  ISO  2  27  14  28   6
M  END
>  <minimizedAffinity>  (1) 
-5.27145958

>  <minimizedRMSD>  (1) 
1.99060512

$$$$
