
     RDKit          3D

 33 35  0  0  0  0  0  0  0  0999 V2000
   37.6480   30.4660   40.8390 C   0  0  0  0  0  0  0  0  0  0  0  0
   36.3340   30.0210   41.0920 C   0  0  0  0  0  0  0  0  0  0  0  0
   35.9920   28.7420   41.4680 C   0  0  0  0  0  0  0  0  0  0  0  0
   37.0110   27.8130   41.6130 C   0  0  0  0  0  0  0  0  0  0  0  0
   38.3260   28.1760   41.3830 C   0  0  0  0  0  0  0  0  0  0  0  0
   39.3200   27.2520   41.5450 C   0  0  0  0  0  0  0  0  0  0  0  0
   40.6440   27.5740   41.3420 C   0  0  0  0  0  0  0  0  0  0  0  0
   40.8870   28.8900   40.9670 C   0  0  0  0  0  0  0  0  0  0  0  0
   39.8670   29.7870   40.8140 C   0  0  0  0  0  0  0  0  0  0  0  0
   38.5640   29.4610   41.0150 C   0  0  0  0  0  0  0  0  0  0  0  0
   37.7880   31.8310   40.4530 C   0  0  0  0  0  0  0  0  0  0  0  0
   37.0560   32.5800   39.5190 C   0  0  0  0  0  0  0  0  0  0  0  0
   37.2910   33.9320   39.2830 C   0  0  0  0  0  0  0  0  0  0  0  0
   38.2780   34.4780   40.0180 N   0  0  0  0  0  0  0  0  0  0  0  0
   38.9930   33.8000   40.9110 C   0  0  0  0  0  0  0  0  0  0  0  0
   38.7400   32.5010   41.1130 N   0  0  0  0  0  0  0  0  0  0  0  0
   39.0130   25.9160   41.9140 N   0  0  0  0  0  0  0  0  0  0  0  0
   39.5880   25.2360   43.0450 C   0  0  0  0  0  0  0  0  0  0  0  0
   39.6520   25.9540   44.1470 N   0  0  0  0  0  0  0  0  0  0  0  0
   40.0740   23.8720   43.0620 N   0  0  0  0  0  0  0  0  0  0  0  0
   40.0570   25.5170   44.9970 H   0  0  0  0  0  0  0  0  0  0  0  0
   35.5199   30.7523   40.9803 H   0  0  0  0  0  0  0  0  0  0  0  0
   34.9427   28.4653   41.6479 H   0  0  0  0  0  0  0  0  0  0  0  0
   36.7726   26.7818   41.9125 H   0  0  0  0  0  0  0  0  0  0  0  0
   41.4534   26.8398   41.4681 H   0  0  0  0  0  0  0  0  0  0  0  0
   41.9223   29.2167   40.7895 H   0  0  0  0  0  0  0  0  0  0  0  0
   40.1120   30.8169   40.5153 H   0  0  0  0  0  0  0  0  0  0  0  0
   36.2616   32.0769   38.9482 H   0  0  0  0  0  0  0  0  0  0  0  0
   36.7121   34.5120   38.5492 H   0  0  0  0  0  0  0  0  0  0  0  0
   39.7879   34.3037   41.4805 H   0  0  0  0  0  0  0  0  0  0  0  0
   38.3351   25.3999   41.3351 H   0  0  0  0  0  0  0  0  0  0  0  0
   40.4697   23.4770   43.9271 H   0  0  0  0  0  0  0  0  0  0  0  0
   40.0240   23.2968   42.2090 H   0  0  0  0  0  0  0  0  0  0  0  0
  1 10  1  0
  1  2  2  0
  2  3  1  0
  3  4  2  0
  5  6  2  0
  5  4  1  0
  6 17  1  0
  7  6  1  0
  8  7  2  0
  9  8  1  0
  9 10  2  0
 10  5  1  0
 11  1  1  0
 11 16  1  0
 12 11  2  0
 13 12  1  0
 13 14  2  0
 14 15  1  0
 15 16  2  0
 17 18  1  0
 18 20  1  0
 18 19  2  0
 19 21  1  0
  2 22  1  0
  3 23  1  0
  4 24  1  0
  7 25  1  0
  8 26  1  0
  9 27  1  0
 12 28  1  0
 13 29  1  0
 15 30  1  0
 17 31  1  0
 20 32  1  0
 20 33  1  0
M  ISO  8  22  14  23  14  24  14  25  14  26  14  27  14  28  14  29  14
M  ISO  1  30  14
M  END
>  <minimizedAffinity>  (1) 
-5.25623798

>  <minimizedRMSD>  (1) 
3.23139715

$$$$
