
     RDKit          3D

 42 45  0  0  0  0  0  0  0  0999 V2000
   37.0410   26.7310   41.1240 C   0  0  0  0  0  0  0  0  0  0  0  0
   36.8710   26.1480   42.3970 C   0  0  0  0  0  0  0  0  0  0  0  0
   37.0240   24.8000   42.6700 C   0  0  0  0  0  0  0  0  0  0  0  0
   37.3680   23.9580   41.6280 C   0  0  0  0  0  0  0  0  0  0  0  0
   37.5470   24.4670   40.3630 C   0  0  0  0  0  0  0  0  0  0  0  0
   37.8970   23.6130   39.3380 C   0  0  0  0  0  0  0  0  0  0  0  0
   38.0990   24.0760   38.0490 C   0  0  0  0  0  0  0  0  0  0  0  0
   37.9230   25.4520   37.8690 C   0  0  0  0  0  0  0  0  0  0  0  0
   37.5760   26.2560   38.9150 C   0  0  0  0  0  0  0  0  0  0  0  0
   37.3780   25.8050   40.1830 C   0  0  0  0  0  0  0  0  0  0  0  0
   36.8410   28.1370   41.0480 C   0  0  0  0  0  0  0  0  0  0  0  0
   35.7400   28.8770   40.6040 C   0  0  0  0  0  0  0  0  0  0  0  0
   35.6890   30.2570   40.6260 C   0  0  0  0  0  0  0  0  0  0  0  0
   36.7940   30.8770   41.1170 N   0  0  0  0  0  0  0  0  0  0  0  0
   37.8600   30.2130   41.5490 C   0  0  0  0  0  0  0  0  0  0  0  0
   37.8650   28.8770   41.5080 N   0  0  0  0  0  0  0  0  0  0  0  0
   38.0670   22.1580   39.5410 C   0  0  0  0  0  0  0  0  0  0  0  0
   39.1960   21.6390   38.6790 C   0  0  0  0  0  0  0  0  0  0  0  0
   39.1670   20.1340   38.6110 C   0  0  0  0  0  0  0  0  0  0  0  0
   37.9110   19.5630   38.0300 C   0  0  0  0  0  0  0  0  0  0  0  0
   36.9670   20.7350   37.7900 C   0  0  0  0  0  0  0  0  0  0  0  0
   36.8080   21.4090   39.1340 C   0  0  0  0  0  0  0  0  0  0  0  0
   36.5977   26.8111   43.2310 H   0  0  0  0  0  0  0  0  0  0  0  0
   36.8761   24.4090   43.6875 H   0  0  0  0  0  0  0  0  0  0  0  0
   37.4984   22.8812   41.8111 H   0  0  0  0  0  0  0  0  0  0  0  0
   38.3790   23.4069   37.2220 H   0  0  0  0  0  0  0  0  0  0  0  0
   38.0663   25.8915   36.8709 H   0  0  0  0  0  0  0  0  0  0  0  0
   37.4489   27.3314   38.7219 H   0  0  0  0  0  0  0  0  0  0  0  0
   34.8677   28.3302   40.2164 H   0  0  0  0  0  0  0  0  0  0  0  0
   34.8119   30.8171   40.2696 H   0  0  0  0  0  0  0  0  0  0  0  0
   38.7325   30.7586   41.9377 H   0  0  0  0  0  0  0  0  0  0  0  0
   38.2819   21.9961   40.6076 H   0  0  0  0  0  0  0  0  0  0  0  0
   39.0920   22.0482   37.6633 H   0  0  0  0  0  0  0  0  0  0  0  0
   40.1523   21.9542   39.1220 H   0  0  0  0  0  0  0  0  0  0  0  0
   40.0137   19.8016   37.9925 H   0  0  0  0  0  0  0  0  0  0  0  0
   39.2243   19.7728   39.6484 H   0  0  0  0  0  0  0  0  0  0  0  0
   38.1304   19.0525   37.0807 H   0  0  0  0  0  0  0  0  0  0  0  0
   37.4605   18.8250   38.7100 H   0  0  0  0  0  0  0  0  0  0  0  0
   37.3998   21.4335   37.0587 H   0  0  0  0  0  0  0  0  0  0  0  0
   36.0002   20.4031   37.3836 H   0  0  0  0  0  0  0  0  0  0  0  0
   35.9718   22.1215   39.0786 H   0  0  0  0  0  0  0  0  0  0  0  0
   36.6141   20.6306   39.8867 H   0  0  0  0  0  0  0  0  0  0  0  0
  1  2  2  0
  2  3  1  0
  4  3  2  0
  5  4  1  0
  6 17  1  0
  6  5  2  0
  7  6  1  0
  8  7  2  0
  8  9  1  0
  9 10  2  0
 10  5  1  0
 10  1  1  0
 11  1  1  0
 11 16  2  0
 12 13  2  0
 12 11  1  0
 13 14  1  0
 14 15  2  0
 16 15  1  0
 18 17  1  0
 19 18  1  0
 20 19  1  0
 21 20  1  0
 21 22  1  0
 22 17  1  0
  2 23  1  0
  3 24  1  0
  4 25  1  0
  7 26  1  0
  8 27  1  0
  9 28  1  0
 12 29  1  0
 13 30  1  0
 15 31  1  0
 17 32  1  0
 18 33  1  0
 18 34  1  0
 19 35  1  0
 19 36  1  0
 20 37  1  0
 20 38  1  0
 21 39  1  0
 21 40  1  0
 22 41  1  0
 22 42  1  0
M  ISO  8  23  14  24  14  25  14  26  14  27  14  28  14  29  14  30  14
M  ISO  8  31  14  32  13  33  13  34  13  35  13  36  13  37  13  38  13
M  ISO  4  39  13  40  13  41  13  42  13
M  END
>  <minimizedAffinity>  (1) 
-4.73449945

>  <minimizedRMSD>  (1) 
4.06557465

$$$$
