
     RDKit          3D

 35 38  0  0  0  0  0  0  0  0999 V2000
   39.5820   31.6890   41.0230 C   0  0  0  0  0  0  0  0  0  0  0  0
   40.4250   31.3200   42.0930 C   0  0  0  0  0  0  0  0  0  0  0  0
   40.4670   30.0500   42.6400 C   0  0  0  0  0  0  0  0  0  0  0  0
   39.6360   29.0750   42.1140 C   0  0  0  0  0  0  0  0  0  0  0  0
   38.7980   29.3780   41.0780 C   0  0  0  0  0  0  0  0  0  0  0  0
   38.0170   28.3910   40.5590 C   0  0  0  0  0  0  0  0  0  0  0  0
   37.1700   28.6350   39.4560 C   0  0  0  0  0  0  0  0  0  0  0  0
   37.1940   29.9450   38.9570 C   0  0  0  0  0  0  0  0  0  0  0  0
   37.9950   30.8880   39.5270 C   0  0  0  0  0  0  0  0  0  0  0  0
   38.8210   30.6480   40.6000 C   0  0  0  0  0  0  0  0  0  0  0  0
   39.6790   33.0510   40.5960 C   0  0  0  0  0  0  0  0  0  0  0  0
   38.7410   34.0910   40.7040 C   0  0  0  0  0  0  0  0  0  0  0  0
   39.0060   35.3850   40.2730 C   0  0  0  0  0  0  0  0  0  0  0  0
   40.2420   35.5870   39.7340 N   0  0  0  0  0  0  0  0  0  0  0  0
   41.1410   34.6160   39.6230 C   0  0  0  0  0  0  0  0  0  0  0  0
   40.8570   33.3830   40.0460 N   0  0  0  0  0  0  0  0  0  0  0  0
   37.9130   27.0080   40.9940 C   0  0  0  0  0  0  0  0  0  0  0  0
   37.0970   26.4690   41.9490 C   0  0  0  0  0  0  0  0  0  0  0  0
   37.0060   25.1330   42.2490 C   0  0  0  0  0  0  0  0  0  0  0  0
   37.7600   24.2160   41.5800 C   0  0  0  0  0  0  0  0  0  0  0  0
   38.5770   24.7630   40.6200 C   0  0  0  0  0  0  0  0  0  0  0  0
   38.6460   26.0730   40.3480 N   0  0  0  0  0  0  0  0  0  0  0  0
   41.0883   32.0881   42.5174 H   0  0  0  0  0  0  0  0  0  0  0  0
   41.1456   29.8197   43.4745 H   0  0  0  0  0  0  0  0  0  0  0  0
   39.6505   28.0568   42.5301 H   0  0  0  0  0  0  0  0  0  0  0  0
   36.5348   27.8509   39.0181 H   0  0  0  0  0  0  0  0  0  0  0  0
   36.5610   30.2135   38.0984 H   0  0  0  0  0  0  0  0  0  0  0  0
   37.9802   31.9030   39.1033 H   0  0  0  0  0  0  0  0  0  0  0  0
   37.7582   33.8724   41.1471 H   0  0  0  0  0  0  0  0  0  0  0  0
   38.2663   36.1944   40.3610 H   0  0  0  0  0  0  0  0  0  0  0  0
   42.1250   34.8294   39.1800 H   0  0  0  0  0  0  0  0  0  0  0  0
   36.4629   27.1611   42.5226 H   0  0  0  0  0  0  0  0  0  0  0  0
   36.3167   24.7986   43.0383 H   0  0  0  0  0  0  0  0  0  0  0  0
   37.7185   23.1369   41.7893 H   0  0  0  0  0  0  0  0  0  0  0  0
   39.2150   24.0819   40.0378 H   0  0  0  0  0  0  0  0  0  0  0  0
  1  2  2  0
  2  3  1  0
  4  3  2  0
  5  4  1  0
  6 17  1  0
  6  5  2  0
  7  6  1  0
  8  7  2  0
  8  9  1  0
  9 10  2  0
 10  1  1  0
 10  5  1  0
 11 12  2  0
 11  1  1  0
 13 12  1  0
 14 13  2  0
 15 14  1  0
 15 16  2  0
 16 11  1  0
 17 18  2  0
 18 19  1  0
 20 19  2  0
 21 20  1  0
 22 21  2  0
 22 17  1  0
  2 23  1  0
  3 24  1  0
  4 25  1  0
  7 26  1  0
  8 27  1  0
  9 28  1  0
 12 29  1  0
 13 30  1  0
 15 31  1  0
 18 32  1  0
 19 33  1  0
 20 34  1  0
 21 35  1  0
M  ISO  8  23  14  24  14  25  14  26  14  27  14  28  14  29  14  30  14
M  ISO  5  31  14  32  14  33  14  34  14  35  14
M  END
>  <minimizedAffinity>  (1) 
-5.74141932

>  <minimizedRMSD>  (1) 
4.28810883

$$$$
