
     RDKit          3D

 25 26  0  0  0  0  0  0  0  0999 V2000
   37.6350   30.4720   41.1320 C   0  0  0  0  0  0  0  0  0  0  0  0
   38.5540   29.8170   41.9890 C   0  0  0  0  0  0  0  0  0  0  0  0
   39.6650   30.5630   42.3310 C   0  0  0  0  0  0  0  0  0  0  0  0
   39.8450   31.8250   41.8680 N   0  0  0  0  0  0  0  0  0  0  0  0
   38.9360   32.4020   41.0520 C   0  0  0  0  0  0  0  0  0  0  0  0
   37.8490   31.7230   40.6950 N   0  0  0  0  0  0  0  0  0  0  0  0
   38.2770   28.4860   42.4250 N   0  0  0  0  0  0  0  0  0  0  0  0
   37.2470   28.1490   43.3200 C   0  0  0  0  0  0  0  0  0  0  0  0
   37.0280   28.9820   44.3040 N   0  0  0  0  0  0  0  0  0  0  0  0
   36.5610   26.9040   43.0170 N   0  0  0  0  0  0  0  0  0  0  0  0
   36.3110   28.8000   45.0200 H   0  0  0  0  0  0  0  0  0  0  0  0
   39.2870   33.7660   40.6460 C   0  0  0  0  0  0  0  0  0  0  0  0
   38.4450   34.7990   40.2830 C   0  0  0  0  0  0  0  0  0  0  0  0
   39.2010   35.9250   39.9730 C   0  0  0  0  0  0  0  0  0  0  0  0
   40.5020   35.4890   40.1750 C   0  0  0  0  0  0  0  0  0  0  0  0
   40.5020   34.2530   40.5580 O   0  0  0  0  0  0  0  0  0  0  0  0
   41.6840   36.2000   40.0160 O   0  0  0  0  0  0  0  0  0  0  0  0
   36.7238   29.9422   40.8171 H   0  0  0  0  0  0  0  0  0  0  0  0
   40.4228   30.1225   42.9956 H   0  0  0  0  0  0  0  0  0  0  0  0
   38.8687   27.7255   42.0611 H   0  0  0  0  0  0  0  0  0  0  0  0
   35.7922   26.5795   43.6207 H   0  0  0  0  0  0  0  0  0  0  0  0
   36.8437   26.3462   42.1985 H   0  0  0  0  0  0  0  0  0  0  0  0
   37.3472   34.7405   40.2449 H   0  0  0  0  0  0  0  0  0  0  0  0
   38.8528   36.9165   39.6479 H   0  0  0  0  0  0  0  0  0  0  0  0
   42.5533   35.7619   40.1964 H   0  0  0  0  0  0  0  0  0  0  0  0
  1  2  2  0
  2  3  1  0
  2  7  1  0
  4  3  2  0
  5  4  1  0
  6  5  2  0
  6  1  1  0
  7  8  1  0
  8  9  2  0
  9 11  1  0
 10  8  1  0
 12  5  1  0
 13 12  2  0
 14 15  2  0
 14 13  1  0
 15 16  1  0
 16 12  1  0
 17 15  1  0
  1 18  1  0
  3 19  1  0
  7 20  1  0
 10 21  1  0
 10 22  1  0
 13 23  1  0
 14 24  1  0
 17 25  1  0
M  ISO  5  18  14  19  14  23  14  24  14  25   3
M  END
>  <minimizedAffinity>  (1) 
-5.30480957

>  <minimizedRMSD>  (1) 
0.112505533

$$$$
