
     RDKit          3D

 42 46  0  0  0  0  0  0  0  0999 V2000
   39.6400   32.4050   41.0180 C   0  0  0  0  0  0  0  0  0  0  0  0
   40.7110   31.8880   41.7750 C   0  0  0  0  0  0  0  0  0  0  0  0
   40.7160   30.6180   42.3320 C   0  0  0  0  0  0  0  0  0  0  0  0
   39.6050   29.8090   42.1360 C   0  0  0  0  0  0  0  0  0  0  0  0
   38.5500   30.2660   41.4140 C   0  0  0  0  0  0  0  0  0  0  0  0
   37.4880   29.4400   41.2470 C   0  0  0  0  0  0  0  0  0  0  0  0
   36.3570   29.8590   40.4990 C   0  0  0  0  0  0  0  0  0  0  0  0
   36.4300   31.1560   39.9680 C   0  0  0  0  0  0  0  0  0  0  0  0
   37.5320   31.9320   40.1780 C   0  0  0  0  0  0  0  0  0  0  0  0
   38.6180   31.5180   40.9000 C   0  0  0  0  0  0  0  0  0  0  0  0
   37.2770   28.0990   41.7350 C   0  0  0  0  0  0  0  0  0  0  0  0
   36.6840   27.6980   42.9120 C   0  0  0  0  0  0  0  0  0  0  0  0
   36.4900   26.3900   43.2970 C   0  0  0  0  0  0  0  0  0  0  0  0
   36.9000   25.3630   42.4830 C   0  0  0  0  0  0  0  0  0  0  0  0
   37.4850   25.7780   41.3220 C   0  0  0  0  0  0  0  0  0  0  0  0
   37.6690   27.0640   40.9600 N   0  0  0  0  0  0  0  0  0  0  0  0
   37.9560   24.7990   40.3880 N   0  0  0  0  0  0  0  0  0  0  0  0
   38.0560   23.5500   40.8710 N   0  0  0  0  0  0  0  0  0  0  0  0
   38.5140   22.7590   39.8570 C   0  0  0  0  0  0  0  0  0  0  0  0
   38.6870   23.5780   38.7350 C   0  0  0  0  0  0  0  0  0  0  0  0
   38.3230   24.8750   39.1040 C   0  0  0  0  0  0  0  0  0  0  0  0
   39.8170   33.7340   40.5360 C   0  0  0  0  0  0  0  0  0  0  0  0
   38.9820   34.8630   40.6360 C   0  0  0  0  0  0  0  0  0  0  0  0
   39.3250   36.1010   40.1160 C   0  0  0  0  0  0  0  0  0  0  0  0
   40.5360   36.1710   39.4900 N   0  0  0  0  0  0  0  0  0  0  0  0
   41.3360   35.1280   39.3830 C   0  0  0  0  0  0  0  0  0  0  0  0
   40.9860   33.9440   39.8920 N   0  0  0  0  0  0  0  0  0  0  0  0
   41.5919   32.5277   41.9327 H   0  0  0  0  0  0  0  0  0  0  0  0
   41.5782   30.2608   42.9142 H   0  0  0  0  0  0  0  0  0  0  0  0
   39.5795   28.7969   42.5660 H   0  0  0  0  0  0  0  0  0  0  0  0
   35.4818   29.2106   40.3457 H   0  0  0  0  0  0  0  0  0  0  0  0
   35.5905   31.5506   39.3768 H   0  0  0  0  0  0  0  0  0  0  0  0
   37.5484   32.9428   39.7445 H   0  0  0  0  0  0  0  0  0  0  0  0
   36.3381   28.4847   43.5986 H   0  0  0  0  0  0  0  0  0  0  0  0
   36.0054   26.1674   44.2591 H   0  0  0  0  0  0  0  0  0  0  0  0
   36.7688   24.3023   42.7431 H   0  0  0  0  0  0  0  0  0  0  0  0
   38.7107   21.6781   39.9115 H   0  0  0  0  0  0  0  0  0  0  0  0
   39.0440   23.2588   37.7447 H   0  0  0  0  0  0  0  0  0  0  0  0
   38.3356   25.7735   38.4696 H   0  0  0  0  0  0  0  0  0  0  0  0
   38.0149   34.7579   41.1494 H   0  0  0  0  0  0  0  0  0  0  0  0
   38.6616   36.9742   40.2025 H   0  0  0  0  0  0  0  0  0  0  0  0
   42.3025   35.2345   38.8687 H   0  0  0  0  0  0  0  0  0  0  0  0
  1  2  2  0
  2  3  1  0
  4  3  2  0
  5  4  1  0
  6  5  2  0
  6 11  1  0
  7  6  1  0
  8  9  1  0
  8  7  2  0
  9 10  2  0
 10  1  1  0
 10  5  1  0
 11 12  2  0
 12 13  1  0
 14 13  2  0
 15 14  1  0
 16 15  2  0
 16 11  1  0
 17 18  1  0
 17 15  1  0
 19 18  2  0
 20 21  2  0
 20 19  1  0
 21 17  1  0
 22 23  2  0
 22  1  1  0
 24 23  1  0
 25 24  2  0
 26 25  1  0
 26 27  2  0
 27 22  1  0
  2 28  1  0
  3 29  1  0
  4 30  1  0
  7 31  1  0
  8 32  1  0
  9 33  1  0
 12 34  1  0
 13 35  1  0
 14 36  1  0
 19 37  1  0
 20 38  1  0
 21 39  1  0
 23 40  1  0
 24 41  1  0
 26 42  1  0
M  ISO  8  28  14  29  14  30  14  31  14  32  14  33  14  34  14  35  14
M  ISO  7  36  14  37  14  38  14  39  14  40  14  41  14  42  14
M  END
>  <minimizedAffinity>  (1) 
-6.88717365

>  <minimizedRMSD>  (1) 
1.38418102

$$$$
