
     RDKit          3D

 47 50  0  0  0  0  0  0  0  0999 V2000
   39.8790   32.7040   40.9070 C   0  0  0  0  0  0  0  0  0  0  0  0
   40.9930   32.0960   41.5140 C   0  0  0  0  0  0  0  0  0  0  0  0
   40.9770   30.8120   42.0550 C   0  0  0  0  0  0  0  0  0  0  0  0
   39.7910   30.0910   41.9910 C   0  0  0  0  0  0  0  0  0  0  0  0
   38.6850   30.6440   41.4100 C   0  0  0  0  0  0  0  0  0  0  0  0
   37.5580   29.8990   41.3710 C   0  0  0  0  0  0  0  0  0  0  0  0
   36.3760   30.4160   40.7780 C   0  0  0  0  0  0  0  0  0  0  0  0
   36.4790   31.7150   40.2560 C   0  0  0  0  0  0  0  0  0  0  0  0
   37.6570   32.4020   40.3370 C   0  0  0  0  0  0  0  0  0  0  0  0
   38.7980   31.8980   40.9110 C   0  0  0  0  0  0  0  0  0  0  0  0
   40.0980   34.0240   40.4250 C   0  0  0  0  0  0  0  0  0  0  0  0
   39.4100   35.2230   40.7170 C   0  0  0  0  0  0  0  0  0  0  0  0
   39.7760   36.4450   40.1630 C   0  0  0  0  0  0  0  0  0  0  0  0
   40.8440   36.4240   39.3160 N   0  0  0  0  0  0  0  0  0  0  0  0
   41.4980   35.3160   39.0300 C   0  0  0  0  0  0  0  0  0  0  0  0
   41.1360   34.1490   39.5700 N   0  0  0  0  0  0  0  0  0  0  0  0
   37.3090   28.5680   41.8690 C   0  0  0  0  0  0  0  0  0  0  0  0
   36.9870   28.1710   43.1500 C   0  0  0  0  0  0  0  0  0  0  0  0
   36.7350   26.8780   43.5450 C   0  0  0  0  0  0  0  0  0  0  0  0
   36.7970   25.8590   42.6300 C   0  0  0  0  0  0  0  0  0  0  0  0
   37.1170   26.2650   41.3670 C   0  0  0  0  0  0  0  0  0  0  0  0
   37.3620   27.5310   40.9900 N   0  0  0  0  0  0  0  0  0  0  0  0
   37.2170   25.2410   40.2760 C   0  0  0  0  0  0  0  0  0  0  0  0
   36.4720   23.9830   40.7260 C   0  0  0  0  0  0  0  0  0  0  0  0
   36.5440   25.8340   39.0600 C   0  0  0  0  0  0  0  0  0  0  0  0
   38.6410   24.8390   40.0010 C   0  0  0  0  0  0  0  0  0  0  0  0
   41.9315   32.6676   41.5645 H   0  0  0  0  0  0  0  0  0  0  0  0
   41.8768   30.3819   42.5191 H   0  0  0  0  0  0  0  0  0  0  0  0
   39.7425   29.0744   42.4083 H   0  0  0  0  0  0  0  0  0  0  0  0
   35.4418   29.8372   40.7308 H   0  0  0  0  0  0  0  0  0  0  0  0
   35.6054   32.1828   39.7786 H   0  0  0  0  0  0  0  0  0  0  0  0
   37.6936   33.4184   39.9179 H   0  0  0  0  0  0  0  0  0  0  0  0
   38.5542   35.1887   41.4073 H   0  0  0  0  0  0  0  0  0  0  0  0
   39.2352   37.3744   40.3948 H   0  0  0  0  0  0  0  0  0  0  0  0
   42.3524   35.3527   38.3382 H   0  0  0  0  0  0  0  0  0  0  0  0
   36.9267   28.9541   43.9202 H   0  0  0  0  0  0  0  0  0  0  0  0
   36.4840   26.6617   44.5939 H   0  0  0  0  0  0  0  0  0  0  0  0
   36.6058   24.8076   42.8907 H   0  0  0  0  0  0  0  0  0  0  0  0
   36.4489   23.9440   41.8251 H   0  0  0  0  0  0  0  0  0  0  0  0
   35.4429   24.0079   40.3383 H   0  0  0  0  0  0  0  0  0  0  0  0
   36.9885   23.0926   40.3383 H   0  0  0  0  0  0  0  0  0  0  0  0
   35.7545   26.5296   39.3806 H   0  0  0  0  0  0  0  0  0  0  0  0
   37.2876   26.3759   38.4571 H   0  0  0  0  0  0  0  0  0  0  0  0
   36.1000   25.0281   38.4571 H   0  0  0  0  0  0  0  0  0  0  0  0
   39.1703   24.6896   40.9536 H   0  0  0  0  0  0  0  0  0  0  0  0
   38.6527   23.9024   39.4242 H   0  0  0  0  0  0  0  0  0  0  0  0
   39.1408   25.6312   39.4242 H   0  0  0  0  0  0  0  0  0  0  0  0
  1 10  1  0
  1  2  2  0
  2  3  1  0
  4  3  2  0
  5  4  1  0
  6  5  2  0
  6 17  1  0
  7  6  1  0
  8  9  1  0
  8  7  2  0
  9 10  2  0
 10  5  1  0
 11 12  2  0
 11  1  1  0
 13 12  1  0
 14 13  2  0
 15 14  1  0
 15 16  2  0
 16 11  1  0
 17 18  2  0
 18 19  1  0
 20 19  2  0
 21 20  1  0
 22 21  2  0
 22 17  1  0
 23 24  1  0
 23 21  1  0
 25 23  1  0
 26 23  1  0
  2 27  1  0
  3 28  1  0
  4 29  1  0
  7 30  1  0
  8 31  1  0
  9 32  1  0
 12 33  1  0
 13 34  1  0
 15 35  1  0
 18 36  1  0
 19 37  1  0
 20 38  1  0
 24 39  1  0
 24 40  1  0
 24 41  1  0
 25 42  1  0
 25 43  1  0
 25 44  1  0
 26 45  1  0
 26 46  1  0
 26 47  1  0
M  ISO  8  27  14  28  14  29  14  30  14  31  14  32  14  33  14  34  14
M  ISO  8  35  14  36  14  37  14  38  14  39   8  40   8  41   8  42   8
M  ISO  5  43   8  44   8  45   8  46   8  47   8
M  END
>  <minimizedAffinity>  (1) 
-6.74184418

>  <minimizedRMSD>  (1) 
1.89347732

$$$$
