
     RDKit          3D

 25 27  0  0  0  0  0  0  0  0999 V2000
   39.2000   30.2930   41.8240 C   0  0  0  0  0  0  0  0  0  0  0  0
   40.4900   30.3890   42.1930 N   0  0  0  0  0  0  0  0  0  0  0  0
   41.2650   31.4390   41.9080 C   0  0  0  0  0  0  0  0  0  0  0  0
   40.8050   32.4970   41.2170 N   0  0  0  0  0  0  0  0  0  0  0  0
   39.5070   32.4910   40.7990 C   0  0  0  0  0  0  0  0  0  0  0  0
   39.0400   33.5780   40.0910 C   0  0  0  0  0  0  0  0  0  0  0  0
   37.7320   33.6000   39.6550 C   0  0  0  0  0  0  0  0  0  0  0  0
   36.9300   32.4950   39.9610 C   0  0  0  0  0  0  0  0  0  0  0  0
   37.4730   31.4490   40.6710 C   0  0  0  0  0  0  0  0  0  0  0  0
   38.7520   31.3840   41.1200 C   0  0  0  0  0  0  0  0  0  0  0  0
   37.1950   28.1410   43.9160 C   0  0  0  0  0  0  0  0  0  0  0  0
   36.7900   27.0660   43.1290 C   0  0  0  0  0  0  0  0  0  0  0  0
   37.2160   27.0680   41.8210 C   0  0  0  0  0  0  0  0  0  0  0  0
   37.9720   28.0990   41.4480 N   0  0  0  0  0  0  0  0  0  0  0  0
   38.3840   29.1380   42.1490 C   0  0  0  0  0  0  0  0  0  0  0  0
   37.9590   29.1190   43.4200 N   0  0  0  0  0  0  0  0  0  0  0  0
   36.8690   26.0490   40.9610 O   0  0  0  0  0  0  0  0  0  0  0  0
   42.3109   31.4382   42.2488 H   0  0  0  0  0  0  0  0  0  0  0  0
   39.7083   34.4245   39.8748 H   0  0  0  0  0  0  0  0  0  0  0  0
   37.3339   34.4543   39.0878 H   0  0  0  0  0  0  0  0  0  0  0  0
   35.8790   32.4630   39.6381 H   0  0  0  0  0  0  0  0  0  0  0  0
   36.8162   30.5950   40.8930 H   0  0  0  0  0  0  0  0  0  0  0  0
   36.8793   28.1862   44.9687 H   0  0  0  0  0  0  0  0  0  0  0  0
   36.1623   26.2576   43.5321 H   0  0  0  0  0  0  0  0  0  0  0  0
   37.1835   26.0647   40.0224 H   0  0  0  0  0  0  0  0  0  0  0  0
  1 15  1  0
  1  2  2  0
  3  2  1  0
  4  3  2  0
  5 10  2  0
  5  4  1  0
  6  5  1  0
  7  8  1  0
  7  6  2  0
  8  9  2  0
  9 10  1  0
 10  1  1  0
 12 11  2  0
 13 12  1  0
 14 13  2  0
 14 15  1  0
 15 16  2  0
 16 11  1  0
 17 13  1  0
  3 18  1  0
  6 19  1  0
  7 20  1  0
  8 21  1  0
  9 22  1  0
 11 23  1  0
 12 24  1  0
 17 25  1  0
M  ISO  8  18  14  19  14  20  14  21  14  22  14  23  14  24  14  25   3
M  END
>  <minimizedAffinity>  (1) 
-4.94496918

>  <minimizedRMSD>  (1) 
4.25637436

$$$$
