
     RDKit          3D

 24 25  0  0  0  0  0  0  0  0999 V2000
   38.6830   28.3750   43.2790 C   0  0  0  0  0  0  0  0  0  0  0  0
   38.2510   27.0240   43.2840 C   0  0  0  0  0  0  0  0  0  0  0  0
   37.3040   26.6480   42.3460 C   0  0  0  0  0  0  0  0  0  0  0  0
   36.8330   27.5690   41.4730 N   0  0  0  0  0  0  0  0  0  0  0  0
   37.2590   28.8540   41.4870 C   0  0  0  0  0  0  0  0  0  0  0  0
   38.1700   29.2480   42.3750 N   0  0  0  0  0  0  0  0  0  0  0  0
   36.7090   29.7530   40.5320 N   0  0  0  0  0  0  0  0  0  0  0  0
   36.2570   31.0930   40.8590 C   0  0  0  0  0  0  0  0  0  0  0  0
   37.2420   32.0070   40.1360 C   0  0  0  0  0  0  0  0  0  0  0  0
   37.1350   31.8150   38.6670 C   0  0  0  0  0  0  0  0  0  0  0  0
   36.7860   30.4760   38.1700 C   0  0  0  0  0  0  0  0  0  0  0  0
   36.5550   29.4000   39.1540 C   0  0  0  0  0  0  0  0  0  0  0  0
   36.9050   25.3270   42.3770 O   0  0  0  0  0  0  0  0  0  0  0  0
   39.4336   28.7152   44.0076 H   0  0  0  0  0  0  0  0  0  0  0  0
   38.6541   26.3002   44.0076 H   0  0  0  0  0  0  0  0  0  0  0  0
   35.2321   31.2586   40.4955 H   0  0  0  0  0  0  0  0  0  0  0  0
   36.2305   31.2759   41.9434 H   0  0  0  0  0  0  0  0  0  0  0  0
   37.0147   33.0545   40.3832 H   0  0  0  0  0  0  0  0  0  0  0  0
   38.2644   31.7592   40.4573 H   0  0  0  0  0  0  0  0  0  0  0  0
   36.3653   32.5106   38.3013 H   0  0  0  0  0  0  0  0  0  0  0  0
   38.1540   31.9906   38.2918 H   0  0  0  0  0  0  0  0  0  0  0  0
   36.6991   30.2807   37.0910 H   0  0  0  0  0  0  0  0  0  0  0  0
   36.2792   28.3812   38.8443 H   0  0  0  0  0  0  0  0  0  0  0  0
   36.2305   24.9984   41.7312 H   0  0  0  0  0  0  0  0  0  0  0  0
  1  2  2  0
  3 13  1  0
  3  2  1  0
  4  5  1  0
  4  3  2  0
  5  6  2  0
  6  1  1  0
  7  8  1  0
  7  5  1  0
  9  8  1  0
 10  9  1  0
 11 10  1  0
 11 12  2  0
 12  7  1  0
  1 14  1  0
  2 15  1  0
  8 16  1  0
  8 17  1  0
  9 18  1  0
  9 19  1  0
 10 20  1  0
 10 21  1  0
 11 22  1  0
 12 23  1  0
 13 24  1  0
M  ISO  8  14  14  15  14  16  13  17  13  18  13  19  13  20  13  21  13
M  ISO  3  22  13  23  13  24   3
M  END
>  <minimizedAffinity>  (1) 
-4.31764269

>  <minimizedRMSD>  (1) 
0.827975154

$$$$
