
     RDKit          3D

 18 19  0  0  0  0  0  0  0  0999 V2000
   39.5950   27.7920   43.1920 C   0  0  0  0  0  0  0  0  0  0  0  0
   38.3870   27.3390   43.7670 C   0  0  0  0  0  0  0  0  0  0  0  0
   37.2350   28.0780   43.5560 C   0  0  0  0  0  0  0  0  0  0  0  0
   37.3370   29.2150   42.7960 N   0  0  0  0  0  0  0  0  0  0  0  0
   38.5050   29.6180   42.2630 C   0  0  0  0  0  0  0  0  0  0  0  0
   39.6210   28.9150   42.4600 N   0  0  0  0  0  0  0  0  0  0  0  0
   38.3000   30.8540   41.5110 C   0  0  0  0  0  0  0  0  0  0  0  0
   37.1190   31.0410   40.8210 C   0  0  0  0  0  0  0  0  0  0  0  0
   37.2640   32.3020   40.2310 C   0  0  0  0  0  0  0  0  0  0  0  0
   38.5010   32.7910   40.5920 C   0  0  0  0  0  0  0  0  0  0  0  0
   39.0970   31.9060   41.3560 O   0  0  0  0  0  0  0  0  0  0  0  0
   36.0720   27.6160   44.1260 O   0  0  0  0  0  0  0  0  0  0  0  0
   40.5214   27.2191   43.3459 H   0  0  0  0  0  0  0  0  0  0  0  0
   38.3618   26.4190   44.3694 H   0  0  0  0  0  0  0  0  0  0  0  0
   36.2610   30.3562   40.7509 H   0  0  0  0  0  0  0  0  0  0  0  0
   36.5248   32.8105   39.5946 H   0  0  0  0  0  0  0  0  0  0  0  0
   38.9194   33.7624   40.2897 H   0  0  0  0  0  0  0  0  0  0  0  0
   35.2264   28.1150   43.9993 H   0  0  0  0  0  0  0  0  0  0  0  0
  1  2  2  0
  3  2  1  0
  3 12  1  0
  4  3  2  0
  5  6  2  0
  5  4  1  0
  6  1  1  0
  7  5  1  0
  8  7  2  0
  9 10  2  0
  9  8  1  0
 10 11  1  0
 11  7  1  0
  1 13  1  0
  2 14  1  0
  8 15  1  0
  9 16  1  0
 10 17  1  0
 12 18  1  0
M  ISO  6  13  14  14  14  15  14  16  14  17  14  18   3
M  END
>  <minimizedAffinity>  (1) 
-4.19254684

>  <minimizedRMSD>  (1) 
2.72527409

$$$$
