
     RDKit          3D

 19 20  0  0  0  0  0  0  0  0999 V2000
   40.0790   26.5540   43.9150 C   0  0  0  0  0  0  0  0  0  0  0  0
   39.8560   25.2220   43.5260 C   0  0  0  0  0  0  0  0  0  0  0  0
   38.8410   24.9550   42.5970 C   0  0  0  0  0  0  0  0  0  0  0  0
   38.1260   26.0130   42.1230 N   0  0  0  0  0  0  0  0  0  0  0  0
   38.3660   27.2710   42.5160 C   0  0  0  0  0  0  0  0  0  0  0  0
   39.3260   27.5450   43.3980 N   0  0  0  0  0  0  0  0  0  0  0  0
   37.5300   28.3130   41.9330 C   0  0  0  0  0  0  0  0  0  0  0  0
   37.8690   29.6620   41.9770 C   0  0  0  0  0  0  0  0  0  0  0  0
   36.9950   30.5620   41.3890 C   0  0  0  0  0  0  0  0  0  0  0  0
   35.8420   30.1910   40.7810 N   0  0  0  0  0  0  0  0  0  0  0  0
   35.5510   28.8750   40.7590 C   0  0  0  0  0  0  0  0  0  0  0  0
   36.3780   27.9770   41.3230 N   0  0  0  0  0  0  0  0  0  0  0  0
   38.6410   23.6460   42.2310 O   0  0  0  0  0  0  0  0  0  0  0  0
   40.8698   26.7882   44.6429 H   0  0  0  0  0  0  0  0  0  0  0  0
   40.4653   24.4061   43.9419 H   0  0  0  0  0  0  0  0  0  0  0  0
   38.7968   30.0013   42.4608 H   0  0  0  0  0  0  0  0  0  0  0  0
   37.2498   31.6317   41.4171 H   0  0  0  0  0  0  0  0  0  0  0  0
   34.6256   28.5314   40.2737 H   0  0  0  0  0  0  0  0  0  0  0  0
   37.9335   23.4173   41.5773 H   0  0  0  0  0  0  0  0  0  0  0  0
  2  1  2  0
  3  2  1  0
  4  5  1  0
  4  3  2  0
  5  6  2  0
  6  1  1  0
  7  8  2  0
  7  5  1  0
  9  8  1  0
 10  9  2  0
 11 10  1  0
 11 12  2  0
 12  7  1  0
 13  3  1  0
  1 14  1  0
  2 15  1  0
  8 16  1  0
  9 17  1  0
 11 18  1  0
 13 19  1  0
M  ISO  6  14  14  15  14  16  14  17  14  18  14  19   3
M  END
>  <minimizedAffinity>  (1) 
-4.17333317

>  <minimizedRMSD>  (1) 
2.90723848

$$$$
