
     RDKit          3D

 16 17  0  0  0  0  0  0  0  0999 V2000
   40.0730   26.7460   43.8290 C   0  0  0  0  0  0  0  0  0  0  0  0
   39.7910   25.4100   43.5010 C   0  0  0  0  0  0  0  0  0  0  0  0
   38.7100   25.1490   42.6730 C   0  0  0  0  0  0  0  0  0  0  0  0
   37.9690   26.2040   42.2150 N   0  0  0  0  0  0  0  0  0  0  0  0
   38.2600   27.4720   42.5440 C   0  0  0  0  0  0  0  0  0  0  0  0
   39.3000   27.7520   43.3430 N   0  0  0  0  0  0  0  0  0  0  0  0
   37.4070   28.5260   42.0020 C   0  0  0  0  0  0  0  0  0  0  0  0
   36.2360   28.2390   41.3930 N   0  0  0  0  0  0  0  0  0  0  0  0
   35.6450   29.3220   40.9910 O   0  0  0  0  0  0  0  0  0  0  0  0
   36.4120   30.3430   41.3240 C   0  0  0  0  0  0  0  0  0  0  0  0
   37.5250   29.8740   41.9590 N   0  0  0  0  0  0  0  0  0  0  0  0
   38.4520   23.8360   42.3650 O   0  0  0  0  0  0  0  0  0  0  0  0
   40.9255   26.9796   44.4838 H   0  0  0  0  0  0  0  0  0  0  0  0
   40.4125   24.5907   43.8914 H   0  0  0  0  0  0  0  0  0  0  0  0
   36.1899   31.4013   41.1222 H   0  0  0  0  0  0  0  0  0  0  0  0
   37.6895   23.6061   41.7769 H   0  0  0  0  0  0  0  0  0  0  0  0
  2  1  2  0
  3  2  1  0
  4  5  1  0
  4  3  2  0
  5  6  2  0
  6  1  1  0
  7  5  1  0
  8  7  2  0
  9 10  1  0
  9  8  1  0
 10 11  2  0
 11  7  1  0
 12  3  1  0
  1 13  1  0
  2 14  1  0
 10 15  1  0
 12 16  1  0
M  ISO  4  13  14  14  14  15  14  16   3
M  END
>  <minimizedAffinity>  (1) 
-3.86819792

>  <minimizedRMSD>  (1) 
2.73721766

$$$$
