
     RDKit          3D

 14 14  0  0  0  0  0  0  0  0999 V2000
   38.3290   28.8580   43.3040 C   0  0  0  0  0  0  0  0  0  0  0  0
   38.0980   27.4750   43.3080 C   0  0  0  0  0  0  0  0  0  0  0  0
   37.1550   26.9300   42.4170 C   0  0  0  0  0  0  0  0  0  0  0  0
   36.5250   27.8090   41.5980 N   0  0  0  0  0  0  0  0  0  0  0  0
   36.7560   29.1280   41.6040 C   0  0  0  0  0  0  0  0  0  0  0  0
   37.6490   29.6390   42.4510 N   0  0  0  0  0  0  0  0  0  0  0  0
   36.0340   30.0440   40.6850 C   0  0  0  0  0  0  0  0  0  0  0  0
   35.9400   31.3320   41.2150 F   0  0  0  0  0  0  0  0  0  0  0  0
   34.7830   29.5800   40.3400 F   0  0  0  0  0  0  0  0  0  0  0  0
   36.7400   30.2020   39.4860 F   0  0  0  0  0  0  0  0  0  0  0  0
   36.9700   25.5770   42.4640 O   0  0  0  0  0  0  0  0  0  0  0  0
   39.0623   29.2993   43.9951 H   0  0  0  0  0  0  0  0  0  0  0  0
   38.6488   26.8222   44.0012 H   0  0  0  0  0  0  0  0  0  0  0  0
   36.3176   25.1452   41.8573 H   0  0  0  0  0  0  0  0  0  0  0  0
  1  2  2  0
  3 11  1  0
  3  2  1  0
  4  5  1  0
  4  3  2  0
  5  6  2  0
  6  1  1  0
  7  8  1  0
  7  5  1  0
  9  7  1  0
 10  7  1  0
  1 12  1  0
  2 13  1  0
 11 14  1  0
M  ISO  3  12  14  13  14  14   3
M  END
>  <minimizedAffinity>  (1) 
-3.72546887

>  <minimizedRMSD>  (1) 
0.341735005

$$$$
