
     RDKit          3D

 26 27  0  0  0  0  0  0  0  0999 V2000
   37.3910   30.4610   41.1790 C   0  0  0  0  0  0  0  0  0  0  0  0
   38.3850   29.7750   41.9500 C   0  0  0  0  0  0  0  0  0  0  0  0
   39.5090   30.5350   42.2490 C   0  0  0  0  0  0  0  0  0  0  0  0
   39.6350   31.8200   41.8360 N   0  0  0  0  0  0  0  0  0  0  0  0
   38.6710   32.4130   41.1150 C   0  0  0  0  0  0  0  0  0  0  0  0
   37.5700   31.7280   40.7990 N   0  0  0  0  0  0  0  0  0  0  0  0
   38.1650   28.4250   42.3390 N   0  0  0  0  0  0  0  0  0  0  0  0
   37.1940   28.0220   43.2670 C   0  0  0  0  0  0  0  0  0  0  0  0
   37.0150   28.8140   44.2960 N   0  0  0  0  0  0  0  0  0  0  0  0
   36.5190   26.7800   42.9610 N   0  0  0  0  0  0  0  0  0  0  0  0
   36.3440   28.5870   45.0400 H   0  0  0  0  0  0  0  0  0  0  0  0
   38.9610   33.8070   40.7390 C   0  0  0  0  0  0  0  0  0  0  0  0
   38.1750   34.6820   40.0130 C   0  0  0  0  0  0  0  0  0  0  0  0
   38.8610   35.8970   39.9020 C   0  0  0  0  0  0  0  0  0  0  0  0
   40.0450   35.6630   40.5890 C   0  0  0  0  0  0  0  0  0  0  0  0
   40.0670   34.4420   41.0590 O   0  0  0  0  0  0  0  0  0  0  0  0
   41.0890   36.6750   40.7340 C   0  0  0  0  0  0  0  0  0  0  0  0
   41.6570   36.7950   41.8640 O   0  0  0  0  0  0  0  0  0  0  0  0
   36.4668   29.9358   40.8961 H   0  0  0  0  0  0  0  0  0  0  0  0
   40.3198   30.0810   42.8377 H   0  0  0  0  0  0  0  0  0  0  0  0
   38.7561   27.6974   41.9123 H   0  0  0  0  0  0  0  0  0  0  0  0
   35.7928   26.4186   43.5957 H   0  0  0  0  0  0  0  0  0  0  0  0
   36.7645   26.2569   42.1084 H   0  0  0  0  0  0  0  0  0  0  0  0
   37.1818   34.4616   39.5947 H   0  0  0  0  0  0  0  0  0  0  0  0
   38.5392   36.8172   39.3924 H   0  0  0  0  0  0  0  0  0  0  0  0
   41.3755   37.3159   39.8872 H   0  0  0  0  0  0  0  0  0  0  0  0
  1  2  2  0
  2  3  1  0
  2  7  1  0
  4  3  2  0
  5  4  1  0
  6  5  2  0
  6  1  1  0
  7  8  1  0
  8  9  2  0
  9 11  1  0
 10  8  1  0
 12 16  1  0
 12  5  1  0
 13 12  2  0
 14 13  1  0
 14 15  2  0
 15 17  1  0
 15 16  1  0
 17 18  2  0
  1 19  1  0
  3 20  1  0
  7 21  1  0
 10 22  1  0
 10 23  1  0
 13 24  1  0
 14 25  1  0
 17 26  1  0
M  ISO  5  19  14  20  14  24  14  25  14  26   6
M  END
>  <minimizedAffinity>  (1) 
-5.00516319

>  <minimizedRMSD>  (1) 
0.713843644

$$$$
