
     RDKit          3D

 13 13  0  0  0  0  0  0  0  0999 V2000
   38.5110   28.7990   43.2620 C   0  0  0  0  0  0  0  0  0  0  0  0
   38.1970   27.4250   43.2690 C   0  0  0  0  0  0  0  0  0  0  0  0
   37.1650   26.9750   42.4620 C   0  0  0  0  0  0  0  0  0  0  0  0
   36.4950   27.8910   41.6900 N   0  0  0  0  0  0  0  0  0  0  0  0
   36.8220   29.1910   41.7080 C   0  0  0  0  0  0  0  0  0  0  0  0
   37.8220   29.6530   42.4850 N   0  0  0  0  0  0  0  0  0  0  0  0
   36.0620   30.0870   40.8610 C   0  0  0  0  0  0  0  0  0  0  0  0
   36.3590   31.3260   40.8980 O   0  0  0  0  0  0  0  0  0  0  0  0
   36.8820   25.6300   42.4920 O   0  0  0  0  0  0  0  0  0  0  0  0
   39.3262   29.1756   43.8973 H   0  0  0  0  0  0  0  0  0  0  0  0
   38.7602   26.7240   43.9026 H   0  0  0  0  0  0  0  0  0  0  0  0
   35.2584   29.7122   40.2100 H   0  0  0  0  0  0  0  0  0  0  0  0
   36.1524   25.2650   41.9311 H   0  0  0  0  0  0  0  0  0  0  0  0
  1  2  2  0
  3  9  1  0
  3  2  1  0
  4  5  1  0
  4  3  2  0
  5  6  2  0
  6  1  1  0
  7  8  2  0
  7  5  1  0
  1 10  1  0
  2 11  1  0
  7 12  1  0
  9 13  1  0
M  ISO  4  10  14  11  14  12   6  13   3
M  END
>  <minimizedAffinity>  (1) 
-3.08015323

>  <minimizedRMSD>  (1) 
0.595685542

$$$$
