
     RDKit          3D

 25 26  0  0  0  0  0  0  0  0999 V2000
   35.9270   30.3410   40.9600 C   0  0  0  0  0  0  0  0  0  0  0  0
   36.5470   30.7760   39.7350 N   0  0  0  0  0  0  0  0  0  0  0  0
   37.2620   31.9300   39.8340 C   0  0  0  0  0  0  0  0  0  0  0  0
   37.8810   32.4030   38.6980 C   0  0  0  0  0  0  0  0  0  0  0  0
   37.7660   31.7120   37.5070 C   0  0  0  0  0  0  0  0  0  0  0  0
   38.4340   32.2530   36.3550 N   0  0  0  0  0  0  0  0  0  0  0  0
   37.0470   30.5560   37.4200 N   0  0  0  0  0  0  0  0  0  0  0  0
   36.4580   30.1320   38.5590 C   0  0  0  0  0  0  0  0  0  0  0  0
   35.7860   29.0740   38.5260 O   0  0  0  0  0  0  0  0  0  0  0  0
   38.6130   29.0020   43.0520 C   0  0  0  0  0  0  0  0  0  0  0  0
   38.3190   27.6420   43.0960 C   0  0  0  0  0  0  0  0  0  0  0  0
   37.2040   27.1470   42.4180 C   0  0  0  0  0  0  0  0  0  0  0  0
   36.4410   28.0580   41.7270 N   0  0  0  0  0  0  0  0  0  0  0  0
   36.7580   29.3730   41.7070 C   0  0  0  0  0  0  0  0  0  0  0  0
   37.8240   29.8260   42.3600 N   0  0  0  0  0  0  0  0  0  0  0  0
   36.9500   25.8040   42.4870 O   0  0  0  0  0  0  0  0  0  0  0  0
   34.9648   29.8660   40.7182 H   0  0  0  0  0  0  0  0  0  0  0  0
   35.7939   31.2270   41.5982 H   0  0  0  0  0  0  0  0  0  0  0  0
   37.3429   32.4675   40.7903 H   0  0  0  0  0  0  0  0  0  0  0  0
   38.4679   33.3324   38.7390 H   0  0  0  0  0  0  0  0  0  0  0  0
   38.3724   31.7675   35.4487 H   0  0  0  0  0  0  0  0  0  0  0  0
   38.9742   33.1262   36.4358 H   0  0  0  0  0  0  0  0  0  0  0  0
   39.4912   29.3953   43.5850 H   0  0  0  0  0  0  0  0  0  0  0  0
   38.9654   26.9576   43.6650 H   0  0  0  0  0  0  0  0  0  0  0  0
   36.1664   25.4236   42.0164 H   0  0  0  0  0  0  0  0  0  0  0  0
  1 14  1  0
  2  3  1  0
  2  1  1  0
  4  3  2  0
  5  4  1  0
  6  5  1  0
  7  5  2  0
  7  8  1  0
  8  2  1  0
  9  8  2  0
 10 11  2  0
 12 16  1  0
 12 11  1  0
 13 12  2  0
 14 13  1  0
 14 15  2  0
 15 10  1  0
  1 17  1  0
  1 18  1  0
  3 19  1  0
  4 20  1  0
  6 21  1  0
  6 22  1  0
 10 23  1  0
 11 24  1  0
 16 25  1  0
M  ISO  7  17   8  18   8  19  14  20  14  23  14  24  14  25   3
M  END
>  <minimizedAffinity>  (1) 
-4.97784472

>  <minimizedRMSD>  (1) 
1.00792003

$$$$
