
     RDKit          3D

 29 30  0  0  0  0  0  0  0  0999 V2000
   39.9170   25.7290   43.7030 C   0  0  0  0  0  0  0  0  0  0  0  0
   39.6390   24.4970   43.0980 C   0  0  0  0  0  0  0  0  0  0  0  0
   38.4860   24.3400   42.3180 C   0  0  0  0  0  0  0  0  0  0  0  0
   37.6720   25.4440   42.1900 N   0  0  0  0  0  0  0  0  0  0  0  0
   37.9610   26.6060   42.7770 C   0  0  0  0  0  0  0  0  0  0  0  0
   39.0630   26.7560   43.5230 N   0  0  0  0  0  0  0  0  0  0  0  0
   37.0840   27.7920   42.6390 C   0  0  0  0  0  0  0  0  0  0  0  0
   36.9930   28.2730   41.2780 N   0  0  0  0  0  0  0  0  0  0  0  0
   38.0540   29.1940   40.9680 C   0  0  0  0  0  0  0  0  0  0  0  0
   37.7370   30.6290   41.2540 C   0  0  0  0  0  0  0  0  0  0  0  0
   36.4470   31.0890   40.6440 C   0  0  0  0  0  0  0  0  0  0  0  0
   35.7890   29.8950   39.9800 C   0  0  0  0  0  0  0  0  0  0  0  0
   35.6790   28.8260   41.0380 C   0  0  0  0  0  0  0  0  0  0  0  0
   38.2520   23.1300   41.7480 O   0  0  0  0  0  0  0  0  0  0  0  0
   40.8206   25.8568   44.3171 H   0  0  0  0  0  0  0  0  0  0  0  0
   40.3277   23.6504   43.2356 H   0  0  0  0  0  0  0  0  0  0  0  0
   36.0746   27.5234   42.9840 H   0  0  0  0  0  0  0  0  0  0  0  0
   37.5240   28.5985   43.2440 H   0  0  0  0  0  0  0  0  0  0  0  0
   38.2871   29.1010   39.8970 H   0  0  0  0  0  0  0  0  0  0  0  0
   38.8996   28.9259   41.6185 H   0  0  0  0  0  0  0  0  0  0  0  0
   37.6733   30.7610   42.3442 H   0  0  0  0  0  0  0  0  0  0  0  0
   38.5402   31.2333   40.8071 H   0  0  0  0  0  0  0  0  0  0  0  0
   35.7869   31.4914   41.4265 H   0  0  0  0  0  0  0  0  0  0  0  0
   36.6357   31.8809   39.9043 H   0  0  0  0  0  0  0  0  0  0  0  0
   34.7898   30.1683   39.6101 H   0  0  0  0  0  0  0  0  0  0  0  0
   36.3762   29.5443   39.1185 H   0  0  0  0  0  0  0  0  0  0  0  0
   35.2867   29.2644   41.9675 H   0  0  0  0  0  0  0  0  0  0  0  0
   34.9954   28.0334   40.6997 H   0  0  0  0  0  0  0  0  0  0  0  0
   37.4444   22.9926   41.1921 H   0  0  0  0  0  0  0  0  0  0  0  0
  2  1  2  0
  3  2  1  0
  4  3  2  0
  4  5  1  0
  5  6  2  0
  6  1  1  0
  7  5  1  0
  8  7  1  0
  9 10  1  0
  9  8  1  0
 11 10  1  0
 12 11  1  0
 12 13  1  0
 13  8  1  0
 14  3  1  0
  1 15  1  0
  2 16  1  0
  7 17  1  0
  7 18  1  0
  9 19  1  0
  9 20  1  0
 10 21  1  0
 10 22  1  0
 11 23  1  0
 11 24  1  0
 12 25  1  0
 12 26  1  0
 13 27  1  0
 13 28  1  0
 14 29  1  0
M  ISO  8  15  14  16  14  17   8  18   8  19  13  20  13  21  13  22  13
M  ISO  7  23  13  24  13  25  13  26  13  27  13  28  13  29   3
M  END
>  <minimizedAffinity>  (1) 
-4.33867788

>  <minimizedRMSD>  (1) 
3.5762341

$$$$
