
     RDKit          3D

 26 27  0  0  0  0  0  0  0  0999 V2000
   40.9120   27.1610   43.6030 C   0  0  0  0  0  0  0  0  0  0  0  0
   40.9130   25.7570   43.5400 C   0  0  0  0  0  0  0  0  0  0  0  0
   39.7250   25.0810   43.2480 C   0  0  0  0  0  0  0  0  0  0  0  0
   38.6090   25.8410   43.0370 N   0  0  0  0  0  0  0  0  0  0  0  0
   38.6460   27.1870   43.1060 C   0  0  0  0  0  0  0  0  0  0  0  0
   39.7810   27.8420   43.3860 N   0  0  0  0  0  0  0  0  0  0  0  0
   37.4310   28.0020   42.8770 C   0  0  0  0  0  0  0  0  0  0  0  0
   37.3970   28.6540   41.5910 N   0  0  0  0  0  0  0  0  0  0  0  0
   36.2470   28.1170   40.8930 C   0  0  0  0  0  0  0  0  0  0  0  0
   35.3550   29.2510   40.5040 C   0  0  0  0  0  0  0  0  0  0  0  0
   36.1600   30.5010   40.7510 C   0  0  0  0  0  0  0  0  0  0  0  0
   37.1710   30.0530   41.7780 C   0  0  0  0  0  0  0  0  0  0  0  0
   39.7610   23.7200   43.1950 O   0  0  0  0  0  0  0  0  0  0  0  0
   41.8428   27.7010   43.8311 H   0  0  0  0  0  0  0  0  0  0  0  0
   41.8413   25.1946   43.7191 H   0  0  0  0  0  0  0  0  0  0  0  0
   36.5531   27.3438   42.9547 H   0  0  0  0  0  0  0  0  0  0  0  0
   37.4324   28.7969   43.6374 H   0  0  0  0  0  0  0  0  0  0  0  0
   36.5777   27.5794   39.9921 H   0  0  0  0  0  0  0  0  0  0  0  0
   35.7037   27.4174   41.5452 H   0  0  0  0  0  0  0  0  0  0  0  0
   34.4442   29.2524   41.1207 H   0  0  0  0  0  0  0  0  0  0  0  0
   35.0323   29.1746   39.4552 H   0  0  0  0  0  0  0  0  0  0  0  0
   36.6557   30.8411   39.8298 H   0  0  0  0  0  0  0  0  0  0  0  0
   35.5490   31.3524   41.0853 H   0  0  0  0  0  0  0  0  0  0  0  0
   36.7819   30.2367   42.7904 H   0  0  0  0  0  0  0  0  0  0  0  0
   38.1109   30.6121   41.6597 H   0  0  0  0  0  0  0  0  0  0  0  0
   38.9371   23.2106   42.9907 H   0  0  0  0  0  0  0  0  0  0  0  0
  2  1  2  0
  3  2  1  0
  4  5  1  0
  4  3  2  0
  5  6  2  0
  6  1  1  0
  7  5  1  0
  8 12  1  0
  8  7  1  0
  9  8  1  0
 10 11  1  0
 10  9  1  0
 11 12  1  0
 13  3  1  0
  1 14  1  0
  2 15  1  0
  7 16  1  0
  7 17  1  0
  9 18  1  0
  9 19  1  0
 10 20  1  0
 10 21  1  0
 11 22  1  0
 11 23  1  0
 12 24  1  0
 12 25  1  0
 13 26  1  0
M  ISO  8  14  14  15  14  16   8  17   8  18  13  19  13  20  13  21  13
M  ISO  5  22  13  23  13  24  13  25  13  26   3
M  END
>  <minimizedAffinity>  (1) 
-4.12714577

>  <minimizedRMSD>  (1) 
3.42676187

$$$$
