
     RDKit          3D

 37 39  0  0  0  0  0  0  0  0999 V2000
   35.8440   29.8680   40.3710 C   0  0  0  0  0  0  0  0  0  0  0  0
   35.7120   29.1340   39.0740 C   0  0  0  0  0  0  0  0  0  0  0  0
   34.2140   28.9680   38.8260 C   0  0  0  0  0  0  0  0  0  0  0  0
   34.0500   28.1190   37.5760 C   0  0  0  0  0  0  0  0  0  0  0  0
   34.4920   29.0270   36.4230 C   0  0  0  0  0  0  0  0  0  0  0  0
   35.9660   29.2700   36.6090 C   0  0  0  0  0  0  0  0  0  0  0  0
   36.2790   29.9200   37.9140 C   0  0  0  0  0  0  0  0  0  0  0  0
   38.1330   29.1790   43.1350 C   0  0  0  0  0  0  0  0  0  0  0  0
   37.8720   27.8400   43.4200 C   0  0  0  0  0  0  0  0  0  0  0  0
   36.9140   27.1480   42.6780 C   0  0  0  0  0  0  0  0  0  0  0  0
   36.2880   27.8600   41.7010 N   0  0  0  0  0  0  0  0  0  0  0  0
   36.5460   29.1400   41.4370 C   0  0  0  0  0  0  0  0  0  0  0  0
   37.4640   29.7770   42.1590 N   0  0  0  0  0  0  0  0  0  0  0  0
   36.6820   25.8350   42.9850 O   0  0  0  0  0  0  0  0  0  0  0  0
   38.5100   23.3180   41.5090 N   0  0  0  0  0  0  0  0  0  0  0  0
   38.2480   24.2660   42.3870 N   0  0  0  0  0  0  0  0  0  0  0  0
   37.0430   24.8180   42.1020 C   0  0  0  0  0  0  0  0  0  0  0  0
   36.5690   24.1550   40.9910 C   0  0  0  0  0  0  0  0  0  0  0  0
   37.5080   23.2040   40.6220 C   0  0  0  0  0  0  0  0  0  0  0  0
   34.8322   30.1055   40.7313 H   0  0  0  0  0  0  0  0  0  0  0  0
   36.4558   30.7565   40.1562 H   0  0  0  0  0  0  0  0  0  0  0  0
   36.2584   28.1816   39.1404 H   0  0  0  0  0  0  0  0  0  0  0  0
   33.7443   28.4666   39.6850 H   0  0  0  0  0  0  0  0  0  0  0  0
   33.7317   29.9479   38.6952 H   0  0  0  0  0  0  0  0  0  0  0  0
   34.6868   27.2237   37.6298 H   0  0  0  0  0  0  0  0  0  0  0  0
   33.0172   27.7620   37.4500 H   0  0  0  0  0  0  0  0  0  0  0  0
   33.9428   29.9794   36.4577 H   0  0  0  0  0  0  0  0  0  0  0  0
   34.2864   28.5600   35.4485 H   0  0  0  0  0  0  0  0  0  0  0  0
   36.4912   28.3046   36.5611 H   0  0  0  0  0  0  0  0  0  0  0  0
   36.2953   29.9505   35.8100 H   0  0  0  0  0  0  0  0  0  0  0  0
   37.3711   29.9869   38.0273 H   0  0  0  0  0  0  0  0  0  0  0  0
   35.8229   30.9210   37.9194 H   0  0  0  0  0  0  0  0  0  0  0  0
   38.8861   29.7339   43.7137 H   0  0  0  0  0  0  0  0  0  0  0  0
   38.4192   27.3305   44.2269 H   0  0  0  0  0  0  0  0  0  0  0  0
   39.3652   22.7440   41.5040 H   0  0  0  0  0  0  0  0  0  0  0  0
   35.6116   24.3470   40.4846 H   0  0  0  0  0  0  0  0  0  0  0  0
   37.4453   22.5017   39.7777 H   0  0  0  0  0  0  0  0  0  0  0  0
  1 12  1  0
  2  1  1  0
  3  2  1  0
  4  3  1  0
  5  6  1  0
  5  4  1  0
  6  7  1  0
  7  2  1  0
  8  9  2  0
 10 14  1  0
 10  9  1  0
 11 10  2  0
 12 11  1  0
 12 13  2  0
 13  8  1  0
 15 16  1  0
 17 16  2  0
 17 14  1  0
 18 17  1  0
 19 18  2  0
 19 15  1  0
  1 20  1  0
  1 21  1  0
  2 22  1  0
  3 23  1  0
  3 24  1  0
  4 25  1  0
  4 26  1  0
  5 27  1  0
  5 28  1  0
  6 29  1  0
  6 30  1  0
  7 31  1  0
  7 32  1  0
  8 33  1  0
  9 34  1  0
 15 35  1  0
 18 36  1  0
 19 37  1  0
M  ISO  8  20   8  21   8  22  13  23  13  24  13  25  13  26  13  27  13
M  ISO  8  28  13  29  13  30  13  31  13  32  13  33  14  34  14  35   9
M  ISO  2  36  14  37  14
M  END
>  <minimizedAffinity>  (1) 
-5.36675072

>  <minimizedRMSD>  (1) 
2.66793227

$$$$
