
     RDKit          3D

 33 34  0  0  0  0  0  0  0  0999 V2000
   35.6520   29.1610   39.0310 C   0  0  0  0  0  0  0  0  0  0  0  0
   34.1550   28.9700   38.7720 C   0  0  0  0  0  0  0  0  0  0  0  0
   34.0300   28.0930   37.5340 C   0  0  0  0  0  0  0  0  0  0  0  0
   34.4520   29.0170   36.3840 C   0  0  0  0  0  0  0  0  0  0  0  0
   35.9180   29.2760   36.5750 C   0  0  0  0  0  0  0  0  0  0  0  0
   36.2420   29.9160   37.8800 C   0  0  0  0  0  0  0  0  0  0  0  0
   35.7520   29.8730   40.3260 C   0  0  0  0  0  0  0  0  0  0  0  0
   38.1430   29.2680   43.0390 C   0  0  0  0  0  0  0  0  0  0  0  0
   37.9260   27.9160   43.3240 C   0  0  0  0  0  0  0  0  0  0  0  0
   36.9810   27.1930   42.6160 C   0  0  0  0  0  0  0  0  0  0  0  0
   36.2950   27.8640   41.6490 N   0  0  0  0  0  0  0  0  0  0  0  0
   36.5180   29.1680   41.3870 C   0  0  0  0  0  0  0  0  0  0  0  0
   37.4360   29.8540   42.0830 N   0  0  0  0  0  0  0  0  0  0  0  0
   36.7840   25.8790   42.9080 O   0  0  0  0  0  0  0  0  0  0  0  0
   37.3040   24.8900   42.0640 C   0  0  0  0  0  0  0  0  0  0  0  0
   37.9980   25.5520   41.0610 F   0  0  0  0  0  0  0  0  0  0  0  0
   38.1780   24.1120   42.7630 F   0  0  0  0  0  0  0  0  0  0  0  0
   36.2360   24.1970   41.5260 F   0  0  0  0  0  0  0  0  0  0  0  0
   36.2169   28.2197   39.1004 H   0  0  0  0  0  0  0  0  0  0  0  0
   33.6816   28.4774   39.6341 H   0  0  0  0  0  0  0  0  0  0  0  0
   33.6543   29.9378   38.6217 H   0  0  0  0  0  0  0  0  0  0  0  0
   34.6986   27.2222   37.6020 H   0  0  0  0  0  0  0  0  0  0  0  0
   33.0163   27.6868   37.4021 H   0  0  0  0  0  0  0  0  0  0  0  0
   33.8888   29.9609   36.4264 H   0  0  0  0  0  0  0  0  0  0  0  0
   34.2490   28.5586   35.4049 H   0  0  0  0  0  0  0  0  0  0  0  0
   36.4520   28.3161   36.5156 H   0  0  0  0  0  0  0  0  0  0  0  0
   36.2291   29.9754   35.7850 H   0  0  0  0  0  0  0  0  0  0  0  0
   37.3351   29.9492   37.9987 H   0  0  0  0  0  0  0  0  0  0  0  0
   35.8136   30.9291   37.8799 H   0  0  0  0  0  0  0  0  0  0  0  0
   36.2396   30.8419   40.1431 H   0  0  0  0  0  0  0  0  0  0  0  0
   34.7224   29.9587   40.7035 H   0  0  0  0  0  0  0  0  0  0  0  0
   38.8940   29.8402   43.6034 H   0  0  0  0  0  0  0  0  0  0  0  0
   38.5099   27.4239   44.1158 H   0  0  0  0  0  0  0  0  0  0  0  0
  1  7  1  0
  2  1  1  0
  3  2  1  0
  4  5  1  0
  4  3  1  0
  5  6  1  0
  6  1  1  0
  7 12  1  0
  8  9  2  0
 10 14  1  0
 10  9  1  0
 11 10  2  0
 12 11  1  0
 12 13  2  0
 13  8  1  0
 15 17  1  0
 15 14  1  0
 16 15  1  0
 18 15  1  0
  1 19  1  0
  2 20  1  0
  2 21  1  0
  3 22  1  0
  3 23  1  0
  4 24  1  0
  4 25  1  0
  5 26  1  0
  5 27  1  0
  6 28  1  0
  6 29  1  0
  7 30  1  0
  7 31  1  0
  8 32  1  0
  9 33  1  0
M  ISO  8  19  13  20  13  21  13  22  13  23  13  24  13  25  13  26  13
M  ISO  7  27  13  28  13  29  13  30   8  31   8  32  14  33  14
M  END
>  <minimizedAffinity>  (1) 
-4.98800182

>  <minimizedRMSD>  (1) 
3.05777574

$$$$
