
     RDKit          3D

 36 38  0  0  0  0  0  0  0  0999 V2000
   36.6520   27.7830   42.2440 C   0  0  0  0  0  0  0  0  0  0  0  0
   36.4740   28.0340   40.7840 C   0  0  0  0  0  0  0  0  0  0  0  0
   35.3050   29.0100   40.6690 C   0  0  0  0  0  0  0  0  0  0  0  0
   35.0140   29.1740   39.1830 C   0  0  0  0  0  0  0  0  0  0  0  0
   36.1920   29.9660   38.6310 C   0  0  0  0  0  0  0  0  0  0  0  0
   37.3940   29.0820   38.7470 C   0  0  0  0  0  0  0  0  0  0  0  0
   37.6840   28.6440   40.1400 C   0  0  0  0  0  0  0  0  0  0  0  0
   38.4630   24.6070   42.4220 C   0  0  0  0  0  0  0  0  0  0  0  0
   39.5760   24.9440   43.2040 C   0  0  0  0  0  0  0  0  0  0  0  0
   39.7270   26.2540   43.6820 C   0  0  0  0  0  0  0  0  0  0  0  0
   38.7430   27.1460   43.3400 N   0  0  0  0  0  0  0  0  0  0  0  0
   37.6970   26.7950   42.5950 C   0  0  0  0  0  0  0  0  0  0  0  0
   37.5570   25.5410   42.1410 N   0  0  0  0  0  0  0  0  0  0  0  0
   40.8190   26.5200   44.4300 O   0  0  0  0  0  0  0  0  0  0  0  0
   42.0580   26.1500   43.9240 C   0  0  0  0  0  0  0  0  0  0  0  0
   42.3480   27.6870   43.9390 C   0  0  0  0  0  0  0  0  0  0  0  0
   44.1500   27.6500   43.2450 S   0  0  0  0  0  0  0  0  0  0  0  0
   44.1170   25.7300   43.0990 C   0  0  0  0  0  0  0  0  0  0  0  0
   43.0020   25.3470   43.4960 N   0  0  0  0  0  0  0  0  0  0  0  0
   35.6940   27.4210   42.6455 H   0  0  0  0  0  0  0  0  0  0  0  0
   36.9801   28.7389   42.6784 H   0  0  0  0  0  0  0  0  0  0  0  0
   36.2994   27.0784   40.2678 H   0  0  0  0  0  0  0  0  0  0  0  0
   34.4219   28.6059   41.1856 H   0  0  0  0  0  0  0  0  0  0  0  0
   35.5507   29.9769   41.1324 H   0  0  0  0  0  0  0  0  0  0  0  0
   34.9457   28.1918   38.6925 H   0  0  0  0  0  0  0  0  0  0  0  0
   34.0558   29.6843   39.0053 H   0  0  0  0  0  0  0  0  0  0  0  0
   36.3391   30.8853   39.2169 H   0  0  0  0  0  0  0  0  0  0  0  0
   36.0164   30.2614   37.5861 H   0  0  0  0  0  0  0  0  0  0  0  0
   37.2276   28.1871   38.1294 H   0  0  0  0  0  0  0  0  0  0  0  0
   38.2594   29.6710   38.4090 H   0  0  0  0  0  0  0  0  0  0  0  0
   38.4930   27.8989   40.1200 H   0  0  0  0  0  0  0  0  0  0  0  0
   37.9810   29.5262   40.7261 H   0  0  0  0  0  0  0  0  0  0  0  0
   38.3393   23.5813   42.0443 H   0  0  0  0  0  0  0  0  0  0  0  0
   40.3314   24.1810   43.4430 H   0  0  0  0  0  0  0  0  0  0  0  0
   41.7170   28.5325   44.2504 H   0  0  0  0  0  0  0  0  0  0  0  0
   44.9332   25.0902   42.7323 H   0  0  0  0  0  0  0  0  0  0  0  0
  1 12  1  0
  2  1  1  0
  3  2  1  0
  4  3  1  0
  5  6  1  0
  5  4  1  0
  6  7  1  0
  7  2  1  0
  8  9  2  0
  9 10  1  0
 10 14  1  0
 11 10  2  0
 12 11  1  0
 13  8  1  0
 13 12  2  0
 15 16  2  0
 15 14  1  0
 17 16  1  0
 18 17  1  0
 18 19  2  0
 19 15  1  0
  1 20  1  0
  1 21  1  0
  2 22  1  0
  3 23  1  0
  3 24  1  0
  4 25  1  0
  4 26  1  0
  5 27  1  0
  5 28  1  0
  6 29  1  0
  6 30  1  0
  7 31  1  0
  7 32  1  0
  8 33  1  0
  9 34  1  0
 16 35  1  0
 18 36  1  0
M  ISO  8  20   8  21   8  22  13  23  13  24  13  25  13  26  13  27  13
M  ISO  8  28  13  29  13  30  13  31  13  32  13  33  14  34  14  35  14
M  ISO  1  36  14
M  END
>  <minimizedAffinity>  (1) 
-4.67060328

>  <minimizedRMSD>  (1) 
4.25174856

$$$$
