
     RDKit          3D

 38 40  0  0  0  0  0  0  0  0999 V2000
   37.7840   28.3720   42.8260 C   0  0  0  0  0  0  0  0  0  0  0  0
   37.3900   28.8270   41.4740 C   0  0  0  0  0  0  0  0  0  0  0  0
   36.6200   30.1380   41.6820 C   0  0  0  0  0  0  0  0  0  0  0  0
   36.0800   30.5520   40.3160 C   0  0  0  0  0  0  0  0  0  0  0  0
   37.3280   30.9940   39.5320 C   0  0  0  0  0  0  0  0  0  0  0  0
   38.1400   29.7430   39.3010 C   0  0  0  0  0  0  0  0  0  0  0  0
   38.5560   29.0750   40.5650 C   0  0  0  0  0  0  0  0  0  0  0  0
   40.0440   25.6270   43.7120 C   0  0  0  0  0  0  0  0  0  0  0  0
   39.4600   24.5430   43.0330 C   0  0  0  0  0  0  0  0  0  0  0  0
   38.3010   24.7020   42.2620 C   0  0  0  0  0  0  0  0  0  0  0  0
   37.8140   25.9800   42.2410 N   0  0  0  0  0  0  0  0  0  0  0  0
   38.3810   27.0080   42.8940 C   0  0  0  0  0  0  0  0  0  0  0  0
   39.4940   26.8490   43.6340 N   0  0  0  0  0  0  0  0  0  0  0  0
   37.7900   23.6600   41.6480 O   0  0  0  0  0  0  0  0  0  0  0  0
   37.9800   22.9070   40.6090 C   0  0  0  0  0  0  0  0  0  0  0  0
   38.1690   21.6190   40.1750 C   0  0  0  0  0  0  0  0  0  0  0  0
   38.3480   21.1670   38.8920 C   0  0  0  0  0  0  0  0  0  0  0  0
   38.3310   22.1310   37.9560 N   0  0  0  0  0  0  0  0  0  0  0  0
   38.1530   23.4200   38.2800 C   0  0  0  0  0  0  0  0  0  0  0  0
   37.9790   23.7990   39.5830 N   0  0  0  0  0  0  0  0  0  0  0  0
   36.8865   28.3815   43.4620 H   0  0  0  0  0  0  0  0  0  0  0  0
   38.5711   29.0638   43.1606 H   0  0  0  0  0  0  0  0  0  0  0  0
   36.7928   28.0425   40.9864 H   0  0  0  0  0  0  0  0  0  0  0  0
   35.7896   29.9821   42.3864 H   0  0  0  0  0  0  0  0  0  0  0  0
   37.2728   30.9175   42.1018 H   0  0  0  0  0  0  0  0  0  0  0  0
   35.5873   29.7037   39.8183 H   0  0  0  0  0  0  0  0  0  0  0  0
   35.3241   31.3481   40.3865 H   0  0  0  0  0  0  0  0  0  0  0  0
   37.0364   31.4430   38.5711 H   0  0  0  0  0  0  0  0  0  0  0  0
   37.9035   31.7510   40.0849 H   0  0  0  0  0  0  0  0  0  0  0  0
   37.5349   29.0362   38.7142 H   0  0  0  0  0  0  0  0  0  0  0  0
   39.0564   30.0402   38.7701 H   0  0  0  0  0  0  0  0  0  0  0  0
   39.0276   28.1119   40.3201 H   0  0  0  0  0  0  0  0  0  0  0  0
   39.2607   29.7393   41.0866 H   0  0  0  0  0  0  0  0  0  0  0  0
   40.9548   25.4731   44.3092 H   0  0  0  0  0  0  0  0  0  0  0  0
   39.9233   23.5482   43.1088 H   0  0  0  0  0  0  0  0  0  0  0  0
   38.1782   20.8474   40.9589 H   0  0  0  0  0  0  0  0  0  0  0  0
   38.4933   20.1039   38.6497 H   0  0  0  0  0  0  0  0  0  0  0  0
   38.1468   24.1829   37.4875 H   0  0  0  0  0  0  0  0  0  0  0  0
  1 12  1  0
  2  3  1  0
  2  1  1  0
  4  3  1  0
  5  4  1  0
  6  5  1  0
  6  7  1  0
  7  2  1  0
  9  8  2  0
 10  9  1  0
 11 10  2  0
 11 12  1  0
 12 13  2  0
 13  8  1  0
 14 10  1  0
 15 14  1  0
 16 15  2  0
 17 16  1  0
 18 19  1  0
 18 17  2  0
 19 20  2  0
 20 15  1  0
  1 21  1  0
  1 22  1  0
  2 23  1  0
  3 24  1  0
  3 25  1  0
  4 26  1  0
  4 27  1  0
  5 28  1  0
  5 29  1  0
  6 30  1  0
  6 31  1  0
  7 32  1  0
  7 33  1  0
  8 34  1  0
  9 35  1  0
 16 36  1  0
 17 37  1  0
 19 38  1  0
M  ISO  8  21   8  22   8  23  13  24  13  25  13  26  13  27  13  28  13
M  ISO  8  29  13  30  13  31  13  32  13  33  13  34  14  35  14  36  14
M  ISO  2  37  14  38  14
M  END
>  <minimizedAffinity>  (1) 
-4.44757271

>  <minimizedRMSD>  (1) 
2.40520668

$$$$
