
     RDKit          3D

 33 34  0  0  0  0  0  0  0  0999 V2000
   35.6460   28.5980   39.4170 C   0  0  0  0  0  0  0  0  0  0  0  0
   34.1970   28.8500   38.9750 C   0  0  0  0  0  0  0  0  0  0  0  0
   34.0790   28.3190   37.5480 C   0  0  0  0  0  0  0  0  0  0  0  0
   34.8730   29.3170   36.7110 C   0  0  0  0  0  0  0  0  0  0  0  0
   36.3160   29.1470   37.1050 C   0  0  0  0  0  0  0  0  0  0  0  0
   36.5530   29.4180   38.5520 C   0  0  0  0  0  0  0  0  0  0  0  0
   35.6940   28.9710   40.8490 C   0  0  0  0  0  0  0  0  0  0  0  0
   38.7460   29.8850   42.6720 C   0  0  0  0  0  0  0  0  0  0  0  0
   39.4740   28.6830   42.6670 C   0  0  0  0  0  0  0  0  0  0  0  0
   38.9200   27.5540   42.0360 C   0  0  0  0  0  0  0  0  0  0  0  0
   37.6940   27.7140   41.4670 N   0  0  0  0  0  0  0  0  0  0  0  0
   37.0330   28.8690   41.4920 C   0  0  0  0  0  0  0  0  0  0  0  0
   37.5570   29.9530   42.0930 N   0  0  0  0  0  0  0  0  0  0  0  0
   39.6710   26.4220   42.0650 O   0  0  0  0  0  0  0  0  0  0  0  0
   39.8360   25.7740   43.2970 C   0  0  0  0  0  0  0  0  0  0  0  0
   39.5990   24.5200   43.3660 O   0  0  0  0  0  0  0  0  0  0  0  0
   40.2260   26.2220   44.5310 O   0  0  0  0  0  0  0  0  0  0  0  0
   35.9768   27.5547   39.3067 H   0  0  0  0  0  0  0  0  0  0  0  0
   33.4996   28.3166   39.6376 H   0  0  0  0  0  0  0  0  0  0  0  0
   33.9476   29.9203   39.0225 H   0  0  0  0  0  0  0  0  0  0  0  0
   34.5131   27.3113   37.4695 H   0  0  0  0  0  0  0  0  0  0  0  0
   33.0339   28.2286   37.2170 H   0  0  0  0  0  0  0  0  0  0  0  0
   34.5387   30.3432   36.9236 H   0  0  0  0  0  0  0  0  0  0  0  0
   34.7292   29.1393   35.6350 H   0  0  0  0  0  0  0  0  0  0  0  0
   36.6212   28.1131   36.8860 H   0  0  0  0  0  0  0  0  0  0  0  0
   36.9057   29.8757   36.5295 H   0  0  0  0  0  0  0  0  0  0  0  0
   37.5974   29.1735   38.7956 H   0  0  0  0  0  0  0  0  0  0  0  0
   36.3463   30.4813   38.7436 H   0  0  0  0  0  0  0  0  0  0  0  0
   35.3526   30.0127   40.9398 H   0  0  0  0  0  0  0  0  0  0  0  0
   35.0513   28.2475   41.3719 H   0  0  0  0  0  0  0  0  0  0  0  0
   39.1670   30.7761   43.1606 H   0  0  0  0  0  0  0  0  0  0  0  0
   40.4612   28.6257   43.1487 H   0  0  0  0  0  0  0  0  0  0  0  0
   40.2807   25.5912   45.2921 H   0  0  0  0  0  0  0  0  0  0  0  0
  1  7  1  0
  2  1  1  0
  3  2  1  0
  4  5  1  0
  4  3  1  0
  5  6  1  0
  6  1  1  0
  7 12  1  0
  9  8  2  0
 10 14  1  0
 10  9  1  0
 11 12  1  0
 11 10  2  0
 12 13  2  0
 13  8  1  0
 14 15  1  0
 15 16  2  0
 15 17  1  0
  1 18  1  0
  2 19  1  0
  2 20  1  0
  3 21  1  0
  3 22  1  0
  4 23  1  0
  4 24  1  0
  5 25  1  0
  5 26  1  0
  6 27  1  0
  6 28  1  0
  7 29  1  0
  7 30  1  0
  8 31  1  0
  9 32  1  0
 17 33  1  0
M  ISO  8  18  13  19  13  20  13  21  13  22  13  23  13  24  13  25  13
M  ISO  8  26  13  27  13  28  13  29   8  30   8  31  14  32  14  33   3
M  END
>  <minimizedAffinity>  (1) 
-4.38971853

>  <minimizedRMSD>  (1) 
2.84557557

$$$$
