
     RDKit          3D

 31 34  0  0  0  0  0  0  0  0999 V2000
   39.7690   25.4720   42.4020 N   0  0  0  0  0  0  0  0  0  0  0  0
   40.9280   25.1020   43.0180 C   0  0  0  0  0  0  0  0  0  0  0  0
   41.1830   26.1390   43.8700 C   0  0  0  0  0  0  0  0  0  0  0  0
   40.2320   27.0810   43.7740 N   0  0  0  0  0  0  0  0  0  0  0  0
   39.3420   26.6390   42.8310 C   0  0  0  0  0  0  0  0  0  0  0  0
   38.2430   27.5600   42.6170 C   0  0  0  0  0  0  0  0  0  0  0  0
   37.7970   28.5640   43.4890 C   0  0  0  0  0  0  0  0  0  0  0  0
   36.8110   29.3000   42.9720 N   0  0  0  0  0  0  0  0  0  0  0  0
   36.5460   28.8420   41.7490 C   0  0  0  0  0  0  0  0  0  0  0  0
   35.6450   29.2710   40.8180 C   0  0  0  0  0  0  0  0  0  0  0  0
   35.5640   28.6540   39.5860 C   0  0  0  0  0  0  0  0  0  0  0  0
   36.4130   27.6090   39.3400 C   0  0  0  0  0  0  0  0  0  0  0  0
   37.2900   27.2200   40.2980 C   0  0  0  0  0  0  0  0  0  0  0  0
   37.4130   27.7940   41.5370 C   0  0  0  0  0  0  0  0  0  0  0  0
   37.8840   23.9920   41.7760 C   0  0  0  0  0  0  0  0  0  0  0  0
   39.0980   24.6540   41.4690 C   0  0  0  0  0  0  0  0  0  0  0  0
   39.6470   24.4710   40.1660 C   0  0  0  0  0  0  0  0  0  0  0  0
   38.9650   23.6700   39.2950 N   0  0  0  0  0  0  0  0  0  0  0  0
   37.7860   23.0500   39.6430 C   0  0  0  0  0  0  0  0  0  0  0  0
   37.2420   23.2120   40.8940 N   0  0  0  0  0  0  0  0  0  0  0  0
   41.5176   24.1860   42.8651 H   0  0  0  0  0  0  0  0  0  0  0  0
   42.0507   26.1944   44.5438 H   0  0  0  0  0  0  0  0  0  0  0  0
   38.2157   28.7275   44.4930 H   0  0  0  0  0  0  0  0  0  0  0  0
   36.3366   30.0865   43.4380 H   0  0  0  0  0  0  0  0  0  0  0  0
   34.9786   30.1145   41.0511 H   0  0  0  0  0  0  0  0  0  0  0  0
   34.8417   28.9906   38.8277 H   0  0  0  0  0  0  0  0  0  0  0  0
   36.3840   27.0882   38.3715 H   0  0  0  0  0  0  0  0  0  0  0  0
   37.9559   26.3767   40.0624 H   0  0  0  0  0  0  0  0  0  0  0  0
   37.4503   24.1230   42.7784 H   0  0  0  0  0  0  0  0  0  0  0  0
   40.5882   24.9585   39.8721 H   0  0  0  0  0  0  0  0  0  0  0  0
   37.2712   22.4146   38.9073 H   0  0  0  0  0  0  0  0  0  0  0  0
  1  5  1  0
  1  2  1  0
  2  3  2  0
  4  3  1  0
  5  4  2  0
  6  5  1  0
  6  7  2  0
  8  7  1  0
  9  8  1  0
 10  9  2  0
 11 10  1  0
 12 11  2  0
 12 13  1  0
 13 14  2  0
 14  9  1  0
 14  6  1  0
 16 15  2  0
 16  1  1  0
 17 16  1  0
 18 19  1  0
 18 17  2  0
 19 20  2  0
 20 15  1  0
  2 21  1  0
  3 22  1  0
  7 23  1  0
  8 24  1  0
 10 25  1  0
 11 26  1  0
 12 27  1  0
 13 28  1  0
 15 29  1  0
 17 30  1  0
 19 31  1  0
M  ISO  8  21  14  22  14  23  14  24   9  25  14  26  14  27  14  28  14
M  ISO  3  29  14  30  14  31  14
M  END
>  <minimizedAffinity>  (1) 
-5.35263395

>  <minimizedRMSD>  (1) 
5.70338249

$$$$
