
     RDKit          3D

 28 30  0  0  0  0  0  0  0  0999 V2000
   39.0370   30.5940   40.7730 N   0  0  0  0  0  0  0  0  0  0  0  0
   38.8400   30.2590   42.0660 C   0  0  0  0  0  0  0  0  0  0  0  0
   39.8620   30.8830   42.7450 C   0  0  0  0  0  0  0  0  0  0  0  0
   40.6610   31.5810   41.8830 N   0  0  0  0  0  0  0  0  0  0  0  0
   40.1180   31.3780   40.6700 C   0  0  0  0  0  0  0  0  0  0  0  0
   40.8060   32.0160   39.6040 N   0  0  0  0  0  0  0  0  0  0  0  0
   41.5280   31.4410   38.6010 C   0  0  0  0  0  0  0  0  0  0  0  0
   42.1400   32.2020   37.6520 C   0  0  0  0  0  0  0  0  0  0  0  0
   42.0740   33.5660   37.6350 C   0  0  0  0  0  0  0  0  0  0  0  0
   42.7030   34.3770   36.6550 N   0  0  0  0  0  0  0  0  0  0  0  0
   41.3730   34.1410   38.6090 N   0  0  0  0  0  0  0  0  0  0  0  0
   40.7660   33.3810   39.5520 C   0  0  0  0  0  0  0  0  0  0  0  0
   40.1280   34.0350   40.4260 O   0  0  0  0  0  0  0  0  0  0  0  0
   37.2280   30.9690   39.1570 C   0  0  0  0  0  0  0  0  0  0  0  0
   38.2470   30.1900   39.6990 C   0  0  0  0  0  0  0  0  0  0  0  0
   38.4750   28.9170   39.1020 C   0  0  0  0  0  0  0  0  0  0  0  0
   37.6960   28.5390   38.0500 N   0  0  0  0  0  0  0  0  0  0  0  0
   36.7050   29.3540   37.5610 C   0  0  0  0  0  0  0  0  0  0  0  0
   36.4690   30.5820   38.1210 N   0  0  0  0  0  0  0  0  0  0  0  0
   38.0413   29.6284   42.4836 H   0  0  0  0  0  0  0  0  0  0  0  0
   40.0149   30.8275   43.8329 H   0  0  0  0  0  0  0  0  0  0  0  0
   41.6177   30.3455   38.5575 H   0  0  0  0  0  0  0  0  0  0  0  0
   42.7140   31.6947   36.8626 H   0  0  0  0  0  0  0  0  0  0  0  0
   42.6135   35.4021   36.7001 H   0  0  0  0  0  0  0  0  0  0  0  0
   43.2491   33.9405   35.8985 H   0  0  0  0  0  0  0  0  0  0  0  0
   37.0349   31.9559   39.6029 H   0  0  0  0  0  0  0  0  0  0  0  0
   39.2644   28.2522   39.4828 H   0  0  0  0  0  0  0  0  0  0  0  0
   36.0940   29.0174   36.7105 H   0  0  0  0  0  0  0  0  0  0  0  0
  1  2  1  0
  2  3  2  0
  4  3  1  0
  5  1  1  0
  5  4  2  0
  6  5  1  0
  7  6  1  0
  8  7  2  0
  9  8  1  0
  9 11  2  0
 10  9  1  0
 11 12  1  0
 12  6  1  0
 12 13  2  0
 14 15  2  0
 15  1  1  0
 16 15  1  0
 17 16  2  0
 18 17  1  0
 18 19  2  0
 19 14  1  0
  2 20  1  0
  3 21  1  0
  7 22  1  0
  8 23  1  0
 10 24  1  0
 10 25  1  0
 14 26  1  0
 16 27  1  0
 18 28  1  0
M  ISO  7  20  14  21  14  22  14  23  14  26  14  27  14  28  14
M  END
>  <minimizedAffinity>  (1) 
-4.97280979

>  <minimizedRMSD>  (1) 
3.88284111

$$$$
