
     RDKit          3D

 27 28  0  0  0  0  0  0  0  0999 V2000
   37.2710   30.0830   41.3110 C   0  0  0  0  0  0  0  0  0  0  0  0
   38.2740   29.4900   42.1490 C   0  0  0  0  0  0  0  0  0  0  0  0
   39.3550   30.3160   42.4000 C   0  0  0  0  0  0  0  0  0  0  0  0
   39.4460   31.5620   41.8980 N   0  0  0  0  0  0  0  0  0  0  0  0
   38.4650   32.0740   41.1090 C   0  0  0  0  0  0  0  0  0  0  0  0
   37.3970   31.3280   40.8300 N   0  0  0  0  0  0  0  0  0  0  0  0
   38.0580   28.1690   42.6120 N   0  0  0  0  0  0  0  0  0  0  0  0
   37.0740   27.7990   43.5460 C   0  0  0  0  0  0  0  0  0  0  0  0
   36.8090   28.6600   44.5020 N   0  0  0  0  0  0  0  0  0  0  0  0
   36.4860   26.5040   43.3140 N   0  0  0  0  0  0  0  0  0  0  0  0
   36.1140   28.4550   45.2280 H   0  0  0  0  0  0  0  0  0  0  0  0
   38.7200   33.4320   40.6520 C   0  0  0  0  0  0  0  0  0  0  0  0
   37.8530   34.3140   40.0360 C   0  0  0  0  0  0  0  0  0  0  0  0
   38.5170   35.5100   39.7690 C   0  0  0  0  0  0  0  0  0  0  0  0
   39.7860   35.2670   40.2570 C   0  0  0  0  0  0  0  0  0  0  0  0
   39.8630   34.0730   40.7520 O   0  0  0  0  0  0  0  0  0  0  0  0
   40.8890   36.2660   40.2030 C   0  0  0  0  0  0  0  0  0  0  0  0
   41.9240   35.8860   41.0530 F   0  0  0  0  0  0  0  0  0  0  0  0
   41.3420   36.3790   38.9060 F   0  0  0  0  0  0  0  0  0  0  0  0
   40.4530   37.4960   40.6600 F   0  0  0  0  0  0  0  0  0  0  0  0
   36.3739   29.4997   41.0563 H   0  0  0  0  0  0  0  0  0  0  0  0
   40.1716   29.9404   43.0341 H   0  0  0  0  0  0  0  0  0  0  0  0
   38.6653   27.4260   42.2377 H   0  0  0  0  0  0  0  0  0  0  0  0
   35.7558   26.1489   43.9478 H   0  0  0  0  0  0  0  0  0  0  0  0
   36.7959   25.9335   42.5144 H   0  0  0  0  0  0  0  0  0  0  0  0
   36.8007   34.1045   39.7936 H   0  0  0  0  0  0  0  0  0  0  0  0
   38.1276   36.4201   39.2894 H   0  0  0  0  0  0  0  0  0  0  0  0
  1  2  2  0
  2  3  1  0
  2  7  1  0
  4  3  2  0
  5  4  1  0
  6  5  2  0
  6  1  1  0
  7  8  1  0
  8  9  2  0
  9 11  1  0
 10  8  1  0
 12 16  1  0
 12  5  1  0
 13 12  2  0
 14 13  1  0
 14 15  2  0
 15 16  1  0
 17 15  1  0
 17 20  1  0
 17 18  1  0
 19 17  1  0
  1 21  1  0
  3 22  1  0
  7 23  1  0
 10 24  1  0
 10 25  1  0
 13 26  1  0
 14 27  1  0
M  ISO  4  21  14  22  14  26  14  27  14
M  END
>  <minimizedAffinity>  (1) 
-5.46228456

>  <minimizedRMSD>  (1) 
0.78205055

$$$$
