
     RDKit          3D

 31 34  0  0  0  0  0  0  0  0999 V2000
   38.3920   27.5490   42.4680 N   0  0  0  0  0  0  0  0  0  0  0  0
   38.6760   27.5550   43.8120 C   0  0  0  0  0  0  0  0  0  0  0  0
   39.5190   26.4700   43.9230 C   0  0  0  0  0  0  0  0  0  0  0  0
   39.7160   25.8700   42.7510 N   0  0  0  0  0  0  0  0  0  0  0  0
   38.9920   26.5560   41.8180 C   0  0  0  0  0  0  0  0  0  0  0  0
   38.9180   26.1230   40.4050 C   0  0  0  0  0  0  0  0  0  0  0  0
   39.7230   26.5000   39.4440 N   0  0  0  0  0  0  0  0  0  0  0  0
   39.6670   26.1060   38.1950 C   0  0  0  0  0  0  0  0  0  0  0  0
   38.7240   25.2360   37.7930 N   0  0  0  0  0  0  0  0  0  0  0  0
   37.8270   24.7710   38.7100 C   0  0  0  0  0  0  0  0  0  0  0  0
   36.8950   23.8770   38.2580 C   0  0  0  0  0  0  0  0  0  0  0  0
   35.9760   23.3670   39.1470 C   0  0  0  0  0  0  0  0  0  0  0  0
   36.0390   23.7800   40.4610 C   0  0  0  0  0  0  0  0  0  0  0  0
   37.0130   24.6800   40.8110 C   0  0  0  0  0  0  0  0  0  0  0  0
   37.9590   25.2350   39.9920 C   0  0  0  0  0  0  0  0  0  0  0  0
   38.1130   29.8890   41.7170 C   0  0  0  0  0  0  0  0  0  0  0  0
   37.5960   28.5740   41.8840 C   0  0  0  0  0  0  0  0  0  0  0  0
   36.2640   28.2760   41.4640 C   0  0  0  0  0  0  0  0  0  0  0  0
   35.5540   29.2890   40.9150 N   0  0  0  0  0  0  0  0  0  0  0  0
   36.0820   30.5570   40.7630 C   0  0  0  0  0  0  0  0  0  0  0  0
   37.3680   30.8700   41.1620 N   0  0  0  0  0  0  0  0  0  0  0  0
   38.3236   28.2440   44.5937 H   0  0  0  0  0  0  0  0  0  0  0  0
   39.9749   26.1392   44.8679 H   0  0  0  0  0  0  0  0  0  0  0  0
   40.3984   26.4908   37.4690 H   0  0  0  0  0  0  0  0  0  0  0  0
   36.8803   23.5708   37.2016 H   0  0  0  0  0  0  0  0  0  0  0  0
   35.2110   22.6485   38.8176 H   0  0  0  0  0  0  0  0  0  0  0  0
   35.3276   23.3982   41.2081 H   0  0  0  0  0  0  0  0  0  0  0  0
   37.0365   24.9900   41.8662 H   0  0  0  0  0  0  0  0  0  0  0  0
   39.1388   30.1112   42.0460 H   0  0  0  0  0  0  0  0  0  0  0  0
   35.8350   27.2699   41.5813 H   0  0  0  0  0  0  0  0  0  0  0  0
   35.4591   31.3424   40.3100 H   0  0  0  0  0  0  0  0  0  0  0  0
  1  2  1  0
  2  3  2  0
  4  3  1  0
  5  1  1  0
  5  4  2  0
  6  5  1  0
  7  6  2  0
  8  7  1  0
  9  8  2  0
  9 10  1  0
 10 15  2  0
 11 10  1  0
 11 12  2  0
 12 13  1  0
 13 14  2  0
 15  6  1  0
 15 14  1  0
 16 17  2  0
 17  1  1  0
 18 17  1  0
 19 18  2  0
 20 19  1  0
 20 21  2  0
 21 16  1  0
  2 22  1  0
  3 23  1  0
  8 24  1  0
 11 25  1  0
 12 26  1  0
 13 27  1  0
 14 28  1  0
 16 29  1  0
 18 30  1  0
 20 31  1  0
M  ISO  8  22  14  23  14  24  14  25  14  26  14  27  14  28  14  29  14
M  ISO  2  30  14  31  14
M  END
>  <minimizedAffinity>  (1) 
-4.55242968

>  <minimizedRMSD>  (1) 
5.67316771

$$$$
