
     RDKit          3D

 27 29  0  0  0  0  0  0  0  0999 V2000
   38.5040   27.9590   42.5600 N   0  0  0  0  0  0  0  0  0  0  0  0
   38.3280   26.8740   43.3500 C   0  0  0  0  0  0  0  0  0  0  0  0
   39.5890   26.6840   43.9090 C   0  0  0  0  0  0  0  0  0  0  0  0
   40.4780   27.6220   43.4680 N   0  0  0  0  0  0  0  0  0  0  0  0
   39.7530   28.3950   42.6270 C   0  0  0  0  0  0  0  0  0  0  0  0
   37.1120   29.8800   41.9060 C   0  0  0  0  0  0  0  0  0  0  0  0
   37.4880   28.5230   41.7900 C   0  0  0  0  0  0  0  0  0  0  0  0
   36.7810   27.7330   40.8370 C   0  0  0  0  0  0  0  0  0  0  0  0
   35.8010   28.3060   40.0990 N   0  0  0  0  0  0  0  0  0  0  0  0
   35.4740   29.6310   40.2500 C   0  0  0  0  0  0  0  0  0  0  0  0
   36.1370   30.4130   41.1580 N   0  0  0  0  0  0  0  0  0  0  0  0
   40.4990   29.4820   42.0100 C   0  0  0  0  0  0  0  0  0  0  0  0
   40.7780   30.7320   42.5760 C   0  0  0  0  0  0  0  0  0  0  0  0
   41.4860   31.6760   41.8830 C   0  0  0  0  0  0  0  0  0  0  0  0
   41.9540   31.4450   40.6100 C   0  0  0  0  0  0  0  0  0  0  0  0
   41.7240   30.2500   39.9830 C   0  0  0  0  0  0  0  0  0  0  0  0
   41.0080   29.3280   40.7140 C   0  0  0  0  0  0  0  0  0  0  0  0
   37.4124   26.2860   43.5110 H   0  0  0  0  0  0  0  0  0  0  0  0
   39.8378   25.8795   44.6168 H   0  0  0  0  0  0  0  0  0  0  0  0
   37.6359   30.5182   42.6327 H   0  0  0  0  0  0  0  0  0  0  0  0
   37.0288   26.6697   40.7027 H   0  0  0  0  0  0  0  0  0  0  0  0
   34.6726   30.0682   39.6363 H   0  0  0  0  0  0  0  0  0  0  0  0
   40.4230   30.9584   43.5922 H   0  0  0  0  0  0  0  0  0  0  0  0
   41.6868   32.6478   42.3576 H   0  0  0  0  0  0  0  0  0  0  0  0
   42.5205   32.2310   40.0891 H   0  0  0  0  0  0  0  0  0  0  0  0
   42.0860   30.0406   38.9656 H   0  0  0  0  0  0  0  0  0  0  0  0
   40.8140   28.3619   40.2251 H   0  0  0  0  0  0  0  0  0  0  0  0
  1  5  1  0
  1  2  1  0
  2  3  2  0
  4  3  1  0
  5  4  2  0
  7  6  2  0
  7  1  1  0
  8  7  1  0
  9 10  1  0
  9  8  2  0
 10 11  2  0
 11  6  1  0
 12 13  2  0
 12  5  1  0
 14 13  1  0
 15 14  2  0
 16 15  1  0
 16 17  2  0
 17 12  1  0
  2 18  1  0
  3 19  1  0
  6 20  1  0
  8 21  1  0
 10 22  1  0
 13 23  1  0
 14 24  1  0
 15 25  1  0
 16 26  1  0
 17 27  1  0
M  ISO  8  18  14  19  14  20  14  21  14  22  14  23  14  24  14  25  14
M  ISO  2  26  14  27  14
M  END
>  <minimizedAffinity>  (1) 
-3.94116926

>  <minimizedRMSD>  (1) 
0.728402495

$$$$
