
     RDKit          3D

 24 26  0  0  0  0  0  0  0  0999 V2000
   38.5270   28.0560   42.4880 N   0  0  0  0  0  0  0  0  0  0  0  0
   38.4300   26.9670   43.2860 C   0  0  0  0  0  0  0  0  0  0  0  0
   39.7090   26.8340   43.8320 C   0  0  0  0  0  0  0  0  0  0  0  0
   40.5370   27.8180   43.3720 N   0  0  0  0  0  0  0  0  0  0  0  0
   39.7620   28.5490   42.5430 C   0  0  0  0  0  0  0  0  0  0  0  0
   37.0610   29.9110   41.8310 C   0  0  0  0  0  0  0  0  0  0  0  0
   37.4800   28.5650   41.7320 C   0  0  0  0  0  0  0  0  0  0  0  0
   36.7800   27.7320   40.8130 C   0  0  0  0  0  0  0  0  0  0  0  0
   35.7590   28.2640   40.0870 N   0  0  0  0  0  0  0  0  0  0  0  0
   35.3980   29.5730   40.2230 C   0  0  0  0  0  0  0  0  0  0  0  0
   36.0470   30.3940   41.0930 N   0  0  0  0  0  0  0  0  0  0  0  0
   40.4230   29.6800   41.9020 C   0  0  0  0  0  0  0  0  0  0  0  0
   40.6960   30.8190   42.6290 C   0  0  0  0  0  0  0  0  0  0  0  0
   41.3150   31.7160   41.7870 C   0  0  0  0  0  0  0  0  0  0  0  0
   41.3930   31.0790   40.5770 C   0  0  0  0  0  0  0  0  0  0  0  0
   40.8700   29.9010   40.6690 O   0  0  0  0  0  0  0  0  0  0  0  0
   37.5484   26.3335   43.4635 H   0  0  0  0  0  0  0  0  0  0  0  0
   40.0085   26.0442   44.5366 H   0  0  0  0  0  0  0  0  0  0  0  0
   37.5793   30.5821   42.5317 H   0  0  0  0  0  0  0  0  0  0  0  0
   37.0601   26.6752   40.6918 H   0  0  0  0  0  0  0  0  0  0  0  0
   34.5689   29.9711   39.6196 H   0  0  0  0  0  0  0  0  0  0  0  0
   40.4615   30.9822   43.6912 H   0  0  0  0  0  0  0  0  0  0  0  0
   41.6706   32.7273   42.0335 H   0  0  0  0  0  0  0  0  0  0  0  0
   41.8344   31.5059   39.6644 H   0  0  0  0  0  0  0  0  0  0  0  0
  1  5  1  0
  1  2  1  0
  2  3  2  0
  4  3  1  0
  5  4  2  0
  7  6  2  0
  7  1  1  0
  8  7  1  0
  9 10  1  0
  9  8  2  0
 10 11  2  0
 11  6  1  0
 12  5  1  0
 12 13  2  0
 14 13  1  0
 15 16  1  0
 15 14  2  0
 16 12  1  0
  2 17  1  0
  3 18  1  0
  6 19  1  0
  8 20  1  0
 10 21  1  0
 13 22  1  0
 14 23  1  0
 15 24  1  0
M  ISO  8  17  14  18  14  19  14  20  14  21  14  22  14  23  14  24  14
M  END
>  <minimizedAffinity>  (1) 
-3.78821611

>  <minimizedRMSD>  (1) 
0.79671663

$$$$
