
     RDKit          3D

 24 26  0  0  0  0  0  0  0  0999 V2000
   38.4600   27.9620   42.5020 N   0  0  0  0  0  0  0  0  0  0  0  0
   38.2760   26.8690   43.2780 C   0  0  0  0  0  0  0  0  0  0  0  0
   39.5320   26.7100   43.8920 C   0  0  0  0  0  0  0  0  0  0  0  0
   40.4040   27.6800   43.4780 N   0  0  0  0  0  0  0  0  0  0  0  0
   39.7060   28.4360   42.6170 C   0  0  0  0  0  0  0  0  0  0  0  0
   37.0160   29.8590   41.8780 C   0  0  0  0  0  0  0  0  0  0  0  0
   37.4610   28.5270   41.6970 C   0  0  0  0  0  0  0  0  0  0  0  0
   36.8640   27.7530   40.6620 C   0  0  0  0  0  0  0  0  0  0  0  0
   35.8950   28.3350   39.8980 N   0  0  0  0  0  0  0  0  0  0  0  0
   35.4910   29.6320   40.1060 C   0  0  0  0  0  0  0  0  0  0  0  0
   36.0490   30.4000   41.0970 N   0  0  0  0  0  0  0  0  0  0  0  0
   40.4840   29.5480   41.9830 C   0  0  0  0  0  0  0  0  0  0  0  0
   41.5850   30.2280   42.6590 C   0  0  0  0  0  0  0  0  0  0  0  0
   40.3000   30.9270   42.7200 C   0  0  0  0  0  0  0  0  0  0  0  0
   37.3700   26.2570   43.3988 H   0  0  0  0  0  0  0  0  0  0  0  0
   39.7797   25.9130   44.6086 H   0  0  0  0  0  0  0  0  0  0  0  0
   37.4668   30.4709   42.6732 H   0  0  0  0  0  0  0  0  0  0  0  0
   37.1757   26.7134   40.4830 H   0  0  0  0  0  0  0  0  0  0  0  0
   34.7062   30.0623   39.4666 H   0  0  0  0  0  0  0  0  0  0  0  0
   40.3967   29.1043   40.9802 H   0  0  0  0  0  0  0  0  0  0  0  0
   42.0003   29.7903   43.5787 H   0  0  0  0  0  0  0  0  0  0  0  0
   42.5874   30.5367   42.3275 H   0  0  0  0  0  0  0  0  0  0  0  0
   40.1397   31.8500   42.1435 H   0  0  0  0  0  0  0  0  0  0  0  0
   39.6485   31.3217   43.5136 H   0  0  0  0  0  0  0  0  0  0  0  0
  1  5  1  0
  1  2  1  0
  2  3  2  0
  4  3  1  0
  5  4  2  0
  7  6  2  0
  7  1  1  0
  8  7  1  0
  9 10  1  0
  9  8  2  0
 10 11  2  0
 11  6  1  0
 12  5  1  0
 12 13  1  0
 12 14  1  0
 13 14  1  0
  2 15  1  0
  3 16  1  0
  6 17  1  0
  8 18  1  0
 10 19  1  0
 12 20  1  0
 13 21  1  0
 13 22  1  0
 14 23  1  0
 14 24  1  0
M  ISO  8  15  14  16  14  17  14  18  14  19  14  20  13  21  13  22  13
M  ISO  2  23  13  24  13
M  END
>  <minimizedAffinity>  (1) 
-3.64194655

>  <minimizedRMSD>  (1) 
0.814574063

$$$$
