
     RDKit          3D

 20 21  0  0  0  0  0  0  0  0999 V2000
   38.4780   27.9460   42.5350 N   0  0  0  0  0  0  0  0  0  0  0  0
   38.4240   26.8170   43.2220 C   0  0  0  0  0  0  0  0  0  0  0  0
   39.6410   26.6300   43.8360 C   0  0  0  0  0  0  0  0  0  0  0  0
   40.4450   27.6590   43.5170 N   0  0  0  0  0  0  0  0  0  0  0  0
   39.6860   28.4310   42.7210 C   0  0  0  0  0  0  0  0  0  0  0  0
   37.0890   29.8580   41.8940 C   0  0  0  0  0  0  0  0  0  0  0  0
   37.4660   28.5110   41.7700 C   0  0  0  0  0  0  0  0  0  0  0  0
   36.7730   27.7100   40.8130 C   0  0  0  0  0  0  0  0  0  0  0  0
   35.7920   28.3020   40.0800 N   0  0  0  0  0  0  0  0  0  0  0  0
   35.4660   29.6270   40.2420 C   0  0  0  0  0  0  0  0  0  0  0  0
   36.1150   30.4170   41.1550 N   0  0  0  0  0  0  0  0  0  0  0  0
   40.3790   29.5980   42.2410 C   0  0  0  0  0  0  0  0  0  0  0  0
   40.4580   30.7820   42.7120 O   0  0  0  0  0  0  0  0  0  0  0  0
   41.1220   30.4700   41.5380 O   0  0  0  0  0  0  0  0  0  0  0  0
   37.5565   26.1442   43.2906 H   0  0  0  0  0  0  0  0  0  0  0  0
   39.9110   25.7803   44.4803 H   0  0  0  0  0  0  0  0  0  0  0  0
   37.6148   30.4845   42.6296 H   0  0  0  0  0  0  0  0  0  0  0  0
   37.0242   26.6483   40.6729 H   0  0  0  0  0  0  0  0  0  0  0  0
   34.6665   30.0634   39.6253 H   0  0  0  0  0  0  0  0  0  0  0  0
   41.5706   30.1791   40.7048 H   0  0  0  0  0  0  0  0  0  0  0  0
  1  5  1  0
  1  2  1  0
  2  3  2  0
  4  3  1  0
  5  4  2  0
  7  6  2  0
  7  1  1  0
  8  7  1  0
  9 10  1  0
  9  8  2  0
 10 11  2  0
 11  6  1  0
 12 13  2  0
 12  5  1  0
 14 12  1  0
  2 15  1  0
  3 16  1  0
  6 17  1  0
  8 18  1  0
 10 19  1  0
 14 20  1  0
M  ISO  6  15  14  16  14  17  14  18  14  19  14  20   3
M  END
>  <minimizedAffinity>  (1) 
-3.46944332

>  <minimizedRMSD>  (1) 
0.640033185

$$$$
