
     RDKit          3D

 23 24  0  0  0  0  0  0  0  0999 V2000
   38.5570   28.0700   42.5390 N   0  0  0  0  0  0  0  0  0  0  0  0
   38.4350   27.0140   43.3810 C   0  0  0  0  0  0  0  0  0  0  0  0
   39.7270   26.8570   43.8910 C   0  0  0  0  0  0  0  0  0  0  0  0
   40.5670   27.7720   43.3770 N   0  0  0  0  0  0  0  0  0  0  0  0
   39.8170   28.5250   42.5310 C   0  0  0  0  0  0  0  0  0  0  0  0
   37.0880   29.8940   41.8600 C   0  0  0  0  0  0  0  0  0  0  0  0
   37.5160   28.5830   41.7790 C   0  0  0  0  0  0  0  0  0  0  0  0
   36.8130   27.7730   40.8430 C   0  0  0  0  0  0  0  0  0  0  0  0
   35.8050   28.2900   40.1070 N   0  0  0  0  0  0  0  0  0  0  0  0
   35.4330   29.6050   40.2420 C   0  0  0  0  0  0  0  0  0  0  0  0
   36.0830   30.4200   41.1310 N   0  0  0  0  0  0  0  0  0  0  0  0
   40.5370   29.6360   41.8590 C   0  0  0  0  0  0  0  0  0  0  0  0
   40.5620   30.9230   42.6830 C   0  0  0  0  0  0  0  0  0  0  0  0
   37.5355   26.4230   43.6081 H   0  0  0  0  0  0  0  0  0  0  0  0
   40.0185   26.0850   44.6184 H   0  0  0  0  0  0  0  0  0  0  0  0
   37.6042   30.5565   42.5704 H   0  0  0  0  0  0  0  0  0  0  0  0
   37.0930   26.7166   40.7179 H   0  0  0  0  0  0  0  0  0  0  0  0
   34.6091   30.0060   39.6334 H   0  0  0  0  0  0  0  0  0  0  0  0
   41.5740   29.3192   41.6740 H   0  0  0  0  0  0  0  0  0  0  0  0
   39.9993   29.8563   40.9250 H   0  0  0  0  0  0  0  0  0  0  0  0
   40.5571   30.6727   43.7541 H   0  0  0  0  0  0  0  0  0  0  0  0
   41.4714   31.4938   42.4440 H   0  0  0  0  0  0  0  0  0  0  0  0
   39.6755   31.5287   42.4440 H   0  0  0  0  0  0  0  0  0  0  0  0
  1  2  1  0
  2  3  2  0
  4  3  1  0
  5  1  1  0
  5  4  2  0
  7  6  2  0
  7  1  1  0
  8  7  1  0
  9 10  1  0
  9  8  2  0
 10 11  2  0
 11  6  1  0
 12  5  1  0
 12 13  1  0
  2 14  1  0
  3 15  1  0
  6 16  1  0
  8 17  1  0
 10 18  1  0
 12 19  1  0
 12 20  1  0
 13 21  1  0
 13 22  1  0
 13 23  1  0
M  ISO  8  14  14  15  14  16  14  17  14  18  14  19   8  20   8  21   8
M  ISO  2  22   8  23   8
M  END
>  <minimizedAffinity>  (1) 
-3.44052577

>  <minimizedRMSD>  (1) 
0.692330241

$$$$
