
     RDKit          3D

 18 19  0  0  0  0  0  0  0  0999 V2000
   37.5910   30.0250   41.8030 C   0  0  0  0  0  0  0  0  0  0  0  0
   37.5450   28.6160   41.8400 C   0  0  0  0  0  0  0  0  0  0  0  0
   36.4630   27.9700   41.1760 C   0  0  0  0  0  0  0  0  0  0  0  0
   35.5400   28.7320   40.5470 N   0  0  0  0  0  0  0  0  0  0  0  0
   35.6320   30.1030   40.5420 C   0  0  0  0  0  0  0  0  0  0  0  0
   36.6600   30.7550   41.1700 N   0  0  0  0  0  0  0  0  0  0  0  0
   38.5190   27.8580   42.5000 N   0  0  0  0  0  0  0  0  0  0  0  0
   38.3820   27.3590   43.7500 C   0  0  0  0  0  0  0  0  0  0  0  0
   39.5890   26.6870   43.9680 C   0  0  0  0  0  0  0  0  0  0  0  0
   40.4090   26.7890   42.8770 N   0  0  0  0  0  0  0  0  0  0  0  0
   39.7030   27.5210   41.9950 C   0  0  0  0  0  0  0  0  0  0  0  0
   40.5050   27.8280   40.4290 S   0  0  0  0  0  0  0  0  0  0  0  0
   38.4182   30.5431   42.3103 H   0  0  0  0  0  0  0  0  0  0  0  0
   36.3800   26.8731   41.1750 H   0  0  0  0  0  0  0  0  0  0  0  0
   34.8618   30.6909   40.0213 H   0  0  0  0  0  0  0  0  0  0  0  0
   37.5251   27.4582   44.4325 H   0  0  0  0  0  0  0  0  0  0  0  0
   39.8450   26.1486   44.8925 H   0  0  0  0  0  0  0  0  0  0  0  0
   41.7678   28.3114   40.6496 H   0  0  0  0  0  0  0  0  0  0  0  0
  1  2  2  0
  2  7  1  0
  3  2  1  0
  4  3  2  0
  5  4  1  0
  5  6  2  0
  6  1  1  0
  7  8  1  0
  8  9  2  0
 10  9  1  0
 11  7  1  0
 11 10  2  0
 12 11  1  0
  1 13  1  0
  3 14  1  0
  5 15  1  0
  8 16  1  0
  9 17  1  0
 12 18  1  0
M  ISO  6  13  14  14  14  15  14  16  14  17  14  18  11
M  END
>  <minimizedAffinity>  (1) 
-3.24273419

>  <minimizedRMSD>  (1) 
0.924764216

$$$$
