
     RDKit          3D

 45 49  0  0  0  0  0  0  0  0999 V2000
   36.8430   28.4430   41.8790 N   0  0  0  0  0  0  0  0  0  0  0  0
   36.3270   27.5050   42.6960 C   0  0  0  0  0  0  0  0  0  0  0  0
   36.9800   27.7170   43.8870 C   0  0  0  0  0  0  0  0  0  0  0  0
   37.8670   28.7580   43.7860 N   0  0  0  0  0  0  0  0  0  0  0  0
   37.7540   29.1860   42.5220 C   0  0  0  0  0  0  0  0  0  0  0  0
   38.5890   30.2770   42.1760 N   0  0  0  0  0  0  0  0  0  0  0  0
   39.8600   30.4080   42.6770 C   0  0  0  0  0  0  0  0  0  0  0  0
   40.4530   31.5380   42.1930 N   0  0  0  0  0  0  0  0  0  0  0  0
   39.5710   32.1340   41.3850 C   0  0  0  0  0  0  0  0  0  0  0  0
   39.6180   33.2910   40.6310 C   0  0  0  0  0  0  0  0  0  0  0  0
   38.5060   33.5750   39.9260 N   0  0  0  0  0  0  0  0  0  0  0  0
   37.4070   32.8180   39.9250 C   0  0  0  0  0  0  0  0  0  0  0  0
   37.3380   31.6850   40.6520 N   0  0  0  0  0  0  0  0  0  0  0  0
   38.4280   31.3680   41.3700 C   0  0  0  0  0  0  0  0  0  0  0  0
   35.2300   29.0700   40.1150 C   0  0  0  0  0  0  0  0  0  0  0  0
   36.4810   28.6270   40.5320 C   0  0  0  0  0  0  0  0  0  0  0  0
   37.4280   28.3530   39.5110 C   0  0  0  0  0  0  0  0  0  0  0  0
   37.0760   28.5310   38.2140 N   0  0  0  0  0  0  0  0  0  0  0  0
   35.8260   28.9710   37.8700 C   0  0  0  0  0  0  0  0  0  0  0  0
   34.9010   29.2400   38.8280 N   0  0  0  0  0  0  0  0  0  0  0  0
   35.4250   29.1680   36.5180 N   0  0  0  0  0  0  0  0  0  0  0  0
   34.1480   28.7130   36.0030 C   0  0  0  0  0  0  0  0  0  0  0  0
   34.4730   27.6210   35.0090 C   0  0  0  0  0  0  0  0  0  0  0  0
   35.5090   28.0220   34.0000 C   0  0  0  0  0  0  0  0  0  0  0  0
   36.6600   28.8070   34.5340 C   0  0  0  0  0  0  0  0  0  0  0  0
   36.2850   29.8460   35.5640 C   0  0  0  0  0  0  0  0  0  0  0  0
   40.7660   34.1280   40.6000 N   0  0  0  0  0  0  0  0  0  0  0  0
   35.5632   26.7479   42.4649 H   0  0  0  0  0  0  0  0  0  0  0  0
   36.8129   27.1287   44.8013 H   0  0  0  0  0  0  0  0  0  0  0  0
   40.3350   29.7003   43.3723 H   0  0  0  0  0  0  0  0  0  0  0  0
   36.5412   33.1243   39.3196 H   0  0  0  0  0  0  0  0  0  0  0  0
   34.4726   29.2919   40.8812 H   0  0  0  0  0  0  0  0  0  0  0  0
   38.4372   27.9998   39.7694 H   0  0  0  0  0  0  0  0  0  0  0  0
   33.5250   28.3165   36.8183 H   0  0  0  0  0  0  0  0  0  0  0  0
   33.5837   29.5330   35.5350 H   0  0  0  0  0  0  0  0  0  0  0  0
   34.8452   26.7459   35.5618 H   0  0  0  0  0  0  0  0  0  0  0  0
   33.5486   27.4008   34.4550 H   0  0  0  0  0  0  0  0  0  0  0  0
   35.0130   28.6304   33.2294 H   0  0  0  0  0  0  0  0  0  0  0  0
   35.9366   27.0830   33.6187 H   0  0  0  0  0  0  0  0  0  0  0  0
   37.3696   28.1051   34.9965 H   0  0  0  0  0  0  0  0  0  0  0  0
   37.0893   29.3527   33.6809 H   0  0  0  0  0  0  0  0  0  0  0  0
   37.1855   30.2297   36.0659 H   0  0  0  0  0  0  0  0  0  0  0  0
   35.7779   30.7067   35.1035 H   0  0  0  0  0  0  0  0  0  0  0  0
   40.7645   34.9832   40.0259 H   0  0  0  0  0  0  0  0  0  0  0  0
   41.5996   33.8795   41.1516 H   0  0  0  0  0  0  0  0  0  0  0  0
  1  5  1  0
  1  2  1  0
  2  3  2  0
  4  3  1  0
  5  4  2  0
  6  5  1  0
  6  7  1  0
  8  7  2  0
  9  8  1  0
 10  9  2  0
 11 10  1  0
 12 11  2  0
 12 13  1  0
 13 14  2  0
 14  9  1  0
 14  6  1  0
 15 16  2  0
 16  1  1  0
 17 16  1  0
 18 17  2  0
 19 18  1  0
 19 20  2  0
 20 15  1  0
 21 19  1  0
 22 21  1  0
 23 22  1  0
 24 25  1  0
 24 23  1  0
 25 26  1  0
 26 21  1  0
 27 10  1  0
  2 28  1  0
  3 29  1  0
  7 30  1  0
 12 31  1  0
 15 32  1  0
 17 33  1  0
 22 34  1  0
 22 35  1  0
 23 36  1  0
 23 37  1  0
 24 38  1  0
 24 39  1  0
 25 40  1  0
 25 41  1  0
 26 42  1  0
 26 43  1  0
 27 44  1  0
 27 45  1  0
M  ISO  8  28  14  29  14  30  14  31  14  32  14  33  14  34  13  35  13
M  ISO  8  36  13  37  13  38  13  39  13  40  13  41  13  42  13  43  13
M  END
>  <minimizedAffinity>  (1) 
-6.48413467

>  <minimizedRMSD>  (1) 
1.40645254

$$$$
