
     RDKit          3D

 37 41  0  0  0  0  0  0  0  0999 V2000
   36.8900   28.4910   41.9550 N   0  0  0  0  0  0  0  0  0  0  0  0
   36.5280   27.5510   42.8530 C   0  0  0  0  0  0  0  0  0  0  0  0
   37.3420   27.7970   43.9350 C   0  0  0  0  0  0  0  0  0  0  0  0
   38.1660   28.8580   43.6860 N   0  0  0  0  0  0  0  0  0  0  0  0
   37.8600   29.2620   42.4530 C   0  0  0  0  0  0  0  0  0  0  0  0
   38.6040   30.3760   41.9700 N   0  0  0  0  0  0  0  0  0  0  0  0
   39.9300   30.5430   42.2790 C   0  0  0  0  0  0  0  0  0  0  0  0
   40.4230   31.6840   41.7000 N   0  0  0  0  0  0  0  0  0  0  0  0
   39.4040   32.2420   41.0190 C   0  0  0  0  0  0  0  0  0  0  0  0
   39.3060   33.3820   40.2550 C   0  0  0  0  0  0  0  0  0  0  0  0
   38.1090   33.6350   39.7160 N   0  0  0  0  0  0  0  0  0  0  0  0
   37.0330   32.8510   39.8830 C   0  0  0  0  0  0  0  0  0  0  0  0
   37.1070   31.7180   40.6360 N   0  0  0  0  0  0  0  0  0  0  0  0
   38.2850   31.4480   41.1790 C   0  0  0  0  0  0  0  0  0  0  0  0
   35.0290   29.0470   40.4370 C   0  0  0  0  0  0  0  0  0  0  0  0
   36.3290   28.6430   40.6760 C   0  0  0  0  0  0  0  0  0  0  0  0
   37.1210   28.3710   39.5370 C   0  0  0  0  0  0  0  0  0  0  0  0
   36.5880   28.5140   38.2980 N   0  0  0  0  0  0  0  0  0  0  0  0
   35.2810   28.9230   38.1300 C   0  0  0  0  0  0  0  0  0  0  0  0
   34.4870   29.1950   39.2230 N   0  0  0  0  0  0  0  0  0  0  0  0
   34.8620   29.0290   36.7740 N   0  0  0  0  0  0  0  0  0  0  0  0
   35.6700   29.1010   35.7270 N   0  0  0  0  0  0  0  0  0  0  0  0
   34.8580   29.1900   34.6390 C   0  0  0  0  0  0  0  0  0  0  0  0
   33.5200   29.1700   35.0390 C   0  0  0  0  0  0  0  0  0  0  0  0
   33.5590   29.0660   36.4170 C   0  0  0  0  0  0  0  0  0  0  0  0
   40.4210   34.2470   40.0490 N   0  0  0  0  0  0  0  0  0  0  0  0
   35.7609   26.7700   42.7452 H   0  0  0  0  0  0  0  0  0  0  0  0
   37.3308   27.2193   44.8710 H   0  0  0  0  0  0  0  0  0  0  0  0
   40.5174   29.8557   42.9055 H   0  0  0  0  0  0  0  0  0  0  0  0
   36.0804   33.1261   39.4066 H   0  0  0  0  0  0  0  0  0  0  0  0
   34.3937   29.2626   41.3087 H   0  0  0  0  0  0  0  0  0  0  0  0
   38.1649   28.0448   39.6551 H   0  0  0  0  0  0  0  0  0  0  0  0
   35.2043   29.2664   33.5977 H   0  0  0  0  0  0  0  0  0  0  0  0
   32.6286   29.2251   34.3969 H   0  0  0  0  0  0  0  0  0  0  0  0
   32.6935   29.0217   37.0945 H   0  0  0  0  0  0  0  0  0  0  0  0
   40.3163   35.0935   39.4717 H   0  0  0  0  0  0  0  0  0  0  0  0
   41.3310   34.0252   40.4776 H   0  0  0  0  0  0  0  0  0  0  0  0
  1  5  1  0
  1  2  1  0
  2  3  2  0
  4  3  1  0
  5  4  2  0
  6  7  1  0
  6  5  1  0
  8  7  2  0
  9 14  2  0
  9  8  1  0
 10  9  1  0
 11 12  1  0
 11 10  2  0
 12 13  2  0
 13 14  1  0
 14  6  1  0
 15 16  2  0
 16  1  1  0
 17 16  1  0
 18 17  2  0
 19 18  1  0
 19 20  2  0
 20 15  1  0
 21 19  1  0
 22 21  1  0
 23 24  1  0
 23 22  2  0
 24 25  2  0
 25 21  1  0
 26 10  1  0
  2 27  1  0
  3 28  1  0
  7 29  1  0
 12 30  1  0
 15 31  1  0
 17 32  1  0
 23 33  1  0
 24 34  1  0
 25 35  1  0
 26 36  1  0
 26 37  1  0
M  ISO  8  27  14  28  14  29  14  30  14  31  14  32  14  33  14  34  14
M  ISO  1  35  14
M  END
>  <minimizedAffinity>  (1) 
-6.45035458

>  <minimizedRMSD>  (1) 
1.68623877

$$$$
