
     RDKit          3D

 40 42  0  0  0  0  0  0  0  0999 V2000
   40.8200   30.0150   40.0450 C   0  0  0  0  0  0  0  0  0  0  0  0
   40.7760   31.1340   40.8410 C   0  0  0  0  0  0  0  0  0  0  0  0
   41.2100   32.2360   40.1180 C   0  0  0  0  0  0  0  0  0  0  0  0
   41.5010   31.6990   38.8900 C   0  0  0  0  0  0  0  0  0  0  0  0
   41.2650   30.4230   38.8810 O   0  0  0  0  0  0  0  0  0  0  0  0
   41.3030   33.5700   40.6050 N   0  0  0  0  0  0  0  0  0  0  0  0
   42.5170   33.8020   41.1780 C   0  0  0  0  0  0  0  0  0  0  0  0
   42.8180   35.0450   41.7190 C   0  0  0  0  0  0  0  0  0  0  0  0
   44.1360   35.3410   42.3570 C   0  0  0  0  0  0  0  0  0  0  0  0
   41.8460   36.0230   41.6510 C   0  0  0  0  0  0  0  0  0  0  0  0
   42.0410   37.1760   42.1170 O   0  0  0  0  0  0  0  0  0  0  0  0
   40.6540   35.7550   41.0740 N   0  0  0  0  0  0  0  0  0  0  0  0
   40.3790   34.5470   40.5560 C   0  0  0  0  0  0  0  0  0  0  0  0
   39.3000   34.2100   40.0030 O   0  0  0  0  0  0  0  0  0  0  0  0
   39.8670   26.4270   40.0520 C   0  0  0  0  0  0  0  0  0  0  0  0
   39.7790   26.1460   41.4440 C   0  0  0  0  0  0  0  0  0  0  0  0
   40.0610   27.2350   42.2540 C   0  0  0  0  0  0  0  0  0  0  0  0
   40.3860   28.4400   41.7500 N   0  0  0  0  0  0  0  0  0  0  0  0
   40.4540   28.6450   40.3980 C   0  0  0  0  0  0  0  0  0  0  0  0
   40.1940   27.6390   39.5820 N   0  0  0  0  0  0  0  0  0  0  0  0
   39.4260   24.8340   41.8550 N   0  0  0  0  0  0  0  0  0  0  0  0
   38.1280   24.2980   41.7780 C   0  0  0  0  0  0  0  0  0  0  0  0
   37.1410   25.1260   42.0290 N   0  0  0  0  0  0  0  0  0  0  0  0
   38.0530   22.9050   41.4340 N   0  0  0  0  0  0  0  0  0  0  0  0
   36.1640   24.8100   42.0140 H   0  0  0  0  0  0  0  0  0  0  0  0
   42.0140   32.5010   37.7440 C   0  0  0  0  0  0  0  0  0  0  0  0
   42.1520   31.6900   36.6190 F   0  0  0  0  0  0  0  0  0  0  0  0
   41.1310   33.5240   37.4790 F   0  0  0  0  0  0  0  0  0  0  0  0
   43.2740   32.9950   38.0160 F   0  0  0  0  0  0  0  0  0  0  0  0
   40.4472   31.1533   41.8905 H   0  0  0  0  0  0  0  0  0  0  0  0
   43.2659   32.9970   41.2124 H   0  0  0  0  0  0  0  0  0  0  0  0
   44.0273   35.3166   43.4513 H   0  0  0  0  0  0  0  0  0  0  0  0
   44.8724   34.5859   42.0447 H   0  0  0  0  0  0  0  0  0  0  0  0
   44.4788   36.3385   42.0447 H   0  0  0  0  0  0  0  0  0  0  0  0
   39.9390   36.4951   41.0304 H   0  0  0  0  0  0  0  0  0  0  0  0
   39.6589   25.6194   39.3347 H   0  0  0  0  0  0  0  0  0  0  0  0
   40.0177   27.1101   43.3460 H   0  0  0  0  0  0  0  0  0  0  0  0
   40.1713   24.2335   42.2356 H   0  0  0  0  0  0  0  0  0  0  0  0
   37.1361   22.4418   41.3585 H   0  0  0  0  0  0  0  0  0  0  0  0
   38.9161   22.3696   41.2629 H   0  0  0  0  0  0  0  0  0  0  0  0
  1 19  1  0
  1  2  2  0
  3  6  1  0
  3  2  1  0
  4  3  2  0
  5  4  1  0
  5  1  1  0
  6  7  1  0
  7  8  2  0
  8  9  1  0
 10  8  1  0
 10 11  2  0
 12 10  1  0
 13  6  1  0
 13 12  1  0
 14 13  2  0
 15 16  2  0
 16 21  1  0
 16 17  1  0
 18 17  2  0
 19 18  1  0
 20 15  1  0
 20 19  2  0
 22 21  1  0
 22 23  2  0
 24 22  1  0
 25 23  1  0
 26 29  1  0
 26  4  1  0
 27 26  1  0
 28 26  1  0
  2 30  1  0
  7 31  1  0
  9 32  1  0
  9 33  1  0
  9 34  1  0
 12 35  1  0
 15 36  1  0
 17 37  1  0
 21 38  1  0
 24 39  1  0
 24 40  1  0
M  ISO  8  30  14  31  14  32   8  33   8  34   8  35   9  36  14  37  14
M  END
>  <minimizedAffinity>  (1) 
-5.58961248

>  <minimizedRMSD>  (1) 
4.95331478

$$$$
