
     RDKit          3D

 33 36  0  0  0  0  0  0  0  0999 V2000
   37.2660   28.0530   40.8930 N   0  0  0  0  0  0  0  0  0  0  0  0
   36.8830   26.9270   41.5170 C   0  0  0  0  0  0  0  0  0  0  0  0
   37.2950   27.1080   42.8210 C   0  0  0  0  0  0  0  0  0  0  0  0
   37.9100   28.3190   42.9630 N   0  0  0  0  0  0  0  0  0  0  0  0
   37.8750   28.8750   41.7520 C   0  0  0  0  0  0  0  0  0  0  0  0
   38.4710   30.1700   41.6530 N   0  0  0  0  0  0  0  0  0  0  0  0
   39.5850   30.4960   42.3700 C   0  0  0  0  0  0  0  0  0  0  0  0
   39.9740   31.7840   42.1140 N   0  0  0  0  0  0  0  0  0  0  0  0
   39.1000   32.2750   41.2320 C   0  0  0  0  0  0  0  0  0  0  0  0
   38.9860   33.5070   40.6150 C   0  0  0  0  0  0  0  0  0  0  0  0
   37.9510   33.6430   39.7600 N   0  0  0  0  0  0  0  0  0  0  0  0
   37.0640   32.6710   39.4950 C   0  0  0  0  0  0  0  0  0  0  0  0
   37.1630   31.4590   40.0930 N   0  0  0  0  0  0  0  0  0  0  0  0
   38.1780   31.2940   40.9450 C   0  0  0  0  0  0  0  0  0  0  0  0
   35.8240   28.6050   38.9690 C   0  0  0  0  0  0  0  0  0  0  0  0
   37.0610   28.3330   39.5310 C   0  0  0  0  0  0  0  0  0  0  0  0
   38.1680   28.3480   38.6520 C   0  0  0  0  0  0  0  0  0  0  0  0
   37.9820   28.6180   37.3370 N   0  0  0  0  0  0  0  0  0  0  0  0
   36.7210   28.8800   36.8440 C   0  0  0  0  0  0  0  0  0  0  0  0
   35.6410   28.8720   37.6680 N   0  0  0  0  0  0  0  0  0  0  0  0
   36.4770   29.1750   35.4370 C   0  0  0  0  0  0  0  0  0  0  0  0
   35.4160   29.7130   35.0270 O   0  0  0  0  0  0  0  0  0  0  0  0
   37.3820   28.8910   34.4390 O   0  0  0  0  0  0  0  0  0  0  0  0
   39.8980   34.5630   40.8620 N   0  0  0  0  0  0  0  0  0  0  0  0
   36.3607   26.0596   41.0870 H   0  0  0  0  0  0  0  0  0  0  0  0
   37.1488   26.3795   43.6321 H   0  0  0  0  0  0  0  0  0  0  0  0
   40.1021   29.8148   43.0618 H   0  0  0  0  0  0  0  0  0  0  0  0
   36.2467   32.8606   38.7836 H   0  0  0  0  0  0  0  0  0  0  0  0
   34.9427   28.6017   39.6272 H   0  0  0  0  0  0  0  0  0  0  0  0
   39.1783   28.1409   39.0346 H   0  0  0  0  0  0  0  0  0  0  0  0
   37.1670   29.1120   33.4982 H   0  0  0  0  0  0  0  0  0  0  0  0
   39.7807   35.4674   40.3832 H   0  0  0  0  0  0  0  0  0  0  0  0
   40.6783   34.4262   41.5203 H   0  0  0  0  0  0  0  0  0  0  0  0
  1  2  1  0
  1  5  1  0
  2  3  2  0
  3  4  1  0
  5  4  2  0
  6  5  1  0
  6  7  1  0
  8  7  2  0
  9  8  1  0
 10 24  1  0
 10  9  2  0
 11 10  1  0
 12 11  2  0
 12 13  1  0
 13 14  2  0
 14  9  1  0
 14  6  1  0
 15 16  2  0
 16  1  1  0
 17 16  1  0
 18 17  2  0
 19 18  1  0
 19 20  2  0
 20 15  1  0
 21 19  1  0
 22 21  2  0
 23 21  1  0
  2 25  1  0
  3 26  1  0
  7 27  1  0
 12 28  1  0
 15 29  1  0
 17 30  1  0
 23 31  1  0
 24 32  1  0
 24 33  1  0
M  ISO  7  25  14  26  14  27  14  28  14  29  14  30  14  31   3
M  END
>  <minimizedAffinity>  (1) 
-5.81608343

>  <minimizedRMSD>  (1) 
0.461252987

$$$$
