
     RDKit          3D

 38 41  0  0  0  0  0  0  0  0999 V2000
   40.2850   29.6940   39.7580 C   0  0  0  0  0  0  0  0  0  0  0  0
   39.8330   30.8540   40.3670 C   0  0  0  0  0  0  0  0  0  0  0  0
   40.3380   31.9520   39.6710 C   0  0  0  0  0  0  0  0  0  0  0  0
   41.0750   31.3770   38.6690 C   0  0  0  0  0  0  0  0  0  0  0  0
   41.0240   30.0890   38.7470 O   0  0  0  0  0  0  0  0  0  0  0  0
   40.0700   33.2960   40.0280 N   0  0  0  0  0  0  0  0  0  0  0  0
   38.8390   33.8350   39.7950 C   0  0  0  0  0  0  0  0  0  0  0  0
   38.8070   35.1070   40.2060 N   0  0  0  0  0  0  0  0  0  0  0  0
   40.0100   35.4290   40.7160 C   0  0  0  0  0  0  0  0  0  0  0  0
   40.6440   36.5110   41.2880 C   0  0  0  0  0  0  0  0  0  0  0  0
   41.9210   36.4840   41.7060 N   0  0  0  0  0  0  0  0  0  0  0  0
   42.6240   35.3340   41.5590 C   0  0  0  0  0  0  0  0  0  0  0  0
   42.0530   34.2270   41.0000 N   0  0  0  0  0  0  0  0  0  0  0  0
   40.7780   34.2890   40.5950 C   0  0  0  0  0  0  0  0  0  0  0  0
   39.6240   26.0440   39.7360 C   0  0  0  0  0  0  0  0  0  0  0  0
   39.5180   25.7530   41.1330 C   0  0  0  0  0  0  0  0  0  0  0  0
   39.6880   26.8570   41.9390 C   0  0  0  0  0  0  0  0  0  0  0  0
   39.9290   28.0880   41.4600 N   0  0  0  0  0  0  0  0  0  0  0  0
   40.0200   28.3120   40.1270 C   0  0  0  0  0  0  0  0  0  0  0  0
   39.8660   27.2830   39.2800 N   0  0  0  0  0  0  0  0  0  0  0  0
   39.2610   24.4200   41.5110 N   0  0  0  0  0  0  0  0  0  0  0  0
   38.0130   23.7760   41.4110 C   0  0  0  0  0  0  0  0  0  0  0  0
   36.9440   24.5210   41.6350 N   0  0  0  0  0  0  0  0  0  0  0  0
   38.0780   22.3850   41.0760 N   0  0  0  0  0  0  0  0  0  0  0  0
   36.0000   24.1220   41.5790 H   0  0  0  0  0  0  0  0  0  0  0  0
   41.8120   32.1690   37.6580 C   0  0  0  0  0  0  0  0  0  0  0  0
   42.2150   31.3400   36.6020 F   0  0  0  0  0  0  0  0  0  0  0  0
   40.9910   33.1680   37.1560 F   0  0  0  0  0  0  0  0  0  0  0  0
   42.9680   32.7020   38.1700 F   0  0  0  0  0  0  0  0  0  0  0  0
   39.1831   30.9009   41.2532 H   0  0  0  0  0  0  0  0  0  0  0  0
   37.9945   33.3005   39.3354 H   0  0  0  0  0  0  0  0  0  0  0  0
   40.0754   37.4449   41.4086 H   0  0  0  0  0  0  0  0  0  0  0  0
   43.6705   35.2923   41.8953 H   0  0  0  0  0  0  0  0  0  0  0  0
   39.5031   25.2250   39.0116 H   0  0  0  0  0  0  0  0  0  0  0  0
   39.6231   26.7236   43.0289 H   0  0  0  0  0  0  0  0  0  0  0  0
   40.0478   23.8740   41.8902 H   0  0  0  0  0  0  0  0  0  0  0  0
   37.2111   21.8368   40.9824 H   0  0  0  0  0  0  0  0  0  0  0  0
   38.9917   21.9329   40.9286 H   0  0  0  0  0  0  0  0  0  0  0  0
  1 19  1  0
  1  2  2  0
  3  6  1  0
  3  2  1  0
  4  5  1  0
  4  3  2  0
  5  1  1  0
  6 14  1  0
  7  6  1  0
  7  8  2  0
  8  9  1  0
  9 10  2  0
 10 11  1  0
 12 11  2  0
 13 12  1  0
 14  9  1  0
 14 13  2  0
 15 16  2  0
 16 21  1  0
 16 17  1  0
 18 17  2  0
 19 18  1  0
 20 15  1  0
 20 19  2  0
 22 21  1  0
 22 23  2  0
 24 22  1  0
 25 23  1  0
 26 29  1  0
 26  4  1  0
 27 26  1  0
 28 26  1  0
  2 30  1  0
  7 31  1  0
 10 32  1  0
 12 33  1  0
 15 34  1  0
 17 35  1  0
 21 36  1  0
 24 37  1  0
 24 38  1  0
M  ISO  6  30  14  31  14  32  14  33  14  34  14  35  14
M  END
>  <minimizedAffinity>  (1) 
-5.5703392

>  <minimizedRMSD>  (1) 
4.74746609

$$$$
