
     RDKit          3D

 42 45  0  0  0  0  0  0  0  0999 V2000
   36.7560   28.3560   42.0890 N   0  0  0  0  0  0  0  0  0  0  0  0
   36.3580   27.5030   43.0530 C   0  0  0  0  0  0  0  0  0  0  0  0
   37.1000   27.8460   44.1560 C   0  0  0  0  0  0  0  0  0  0  0  0
   37.9290   28.8890   43.8610 N   0  0  0  0  0  0  0  0  0  0  0  0
   37.6980   29.1840   42.5830 C   0  0  0  0  0  0  0  0  0  0  0  0
   38.4690   30.2600   42.0570 N   0  0  0  0  0  0  0  0  0  0  0  0
   39.7750   30.4700   42.4270 C   0  0  0  0  0  0  0  0  0  0  0  0
   40.2820   31.5670   41.7790 N   0  0  0  0  0  0  0  0  0  0  0  0
   39.3140   32.0550   41.0000 C   0  0  0  0  0  0  0  0  0  0  0  0
   39.2660   33.1280   40.1420 C   0  0  0  0  0  0  0  0  0  0  0  0
   38.0870   33.3190   39.5090 N   0  0  0  0  0  0  0  0  0  0  0  0
   37.0150   32.5370   39.6810 C   0  0  0  0  0  0  0  0  0  0  0  0
   37.0480   31.4750   40.5250 N   0  0  0  0  0  0  0  0  0  0  0  0
   38.2020   31.2580   41.1680 C   0  0  0  0  0  0  0  0  0  0  0  0
   35.0520   28.9510   40.4210 C   0  0  0  0  0  0  0  0  0  0  0  0
   36.2840   28.3980   40.7830 C   0  0  0  0  0  0  0  0  0  0  0  0
   37.0660   27.8620   39.7340 C   0  0  0  0  0  0  0  0  0  0  0  0
   36.6080   27.9030   38.4590 N   0  0  0  0  0  0  0  0  0  0  0  0
   35.3850   28.4610   38.1650 C   0  0  0  0  0  0  0  0  0  0  0  0
   34.6030   28.9860   39.1460 N   0  0  0  0  0  0  0  0  0  0  0  0
   34.8130   28.5470   36.8140 C   0  0  0  0  0  0  0  0  0  0  0  0
   33.4220   29.1300   36.7950 C   0  0  0  0  0  0  0  0  0  0  0  0
   34.7390   27.1600   36.2070 C   0  0  0  0  0  0  0  0  0  0  0  0
   35.7320   29.3670   35.9010 C   0  0  0  0  0  0  0  0  0  0  0  0
   40.3800   33.9860   39.9280 N   0  0  0  0  0  0  0  0  0  0  0  0
   35.6037   26.7063   42.9737 H   0  0  0  0  0  0  0  0  0  0  0  0
   37.0355   27.3513   45.1364 H   0  0  0  0  0  0  0  0  0  0  0  0
   40.3341   29.8473   43.1409 H   0  0  0  0  0  0  0  0  0  0  0  0
   36.0903   32.7590   39.1282 H   0  0  0  0  0  0  0  0  0  0  0  0
   34.4174   29.3782   41.2114 H   0  0  0  0  0  0  0  0  0  0  0  0
   38.0456   27.4119   39.9526 H   0  0  0  0  0  0  0  0  0  0  0  0
   33.0718   29.2768   37.8274 H   0  0  0  0  0  0  0  0  0  0  0  0
   33.4371   30.0975   36.2719 H   0  0  0  0  0  0  0  0  0  0  0  0
   32.7427   28.4409   36.2719 H   0  0  0  0  0  0  0  0  0  0  0  0
   34.6990   26.4098   37.0105 H   0  0  0  0  0  0  0  0  0  0  0  0
   33.8353   27.0797   35.5850 H   0  0  0  0  0  0  0  0  0  0  0  0
   35.6290   26.9840   35.5850 H   0  0  0  0  0  0  0  0  0  0  0  0
   36.4126   29.9743   36.5158 H   0  0  0  0  0  0  0  0  0  0  0  0
   36.3193   28.6874   35.2661 H   0  0  0  0  0  0  0  0  0  0  0  0
   35.1234   30.0277   35.2661 H   0  0  0  0  0  0  0  0  0  0  0  0
   40.3012   34.7794   39.2759 H   0  0  0  0  0  0  0  0  0  0  0  0
   41.2655   33.8140   40.4252 H   0  0  0  0  0  0  0  0  0  0  0  0
  1  5  1  0
  1  2  1  0
  2  3  2  0
  4  3  1  0
  5  4  2  0
  6  7  1  0
  6  5  1  0
  8  7  2  0
  9 14  2  0
  9  8  1  0
 10  9  1  0
 11 12  1  0
 11 10  2  0
 12 13  2  0
 13 14  1  0
 14  6  1  0
 15 16  2  0
 16  1  1  0
 17 16  1  0
 18 17  2  0
 19 18  1  0
 19 20  2  0
 20 15  1  0
 21 19  1  0
 22 21  1  0
 23 21  1  0
 24 21  1  0
 25 10  1  0
  2 26  1  0
  3 27  1  0
  7 28  1  0
 12 29  1  0
 15 30  1  0
 17 31  1  0
 22 32  1  0
 22 33  1  0
 22 34  1  0
 23 35  1  0
 23 36  1  0
 23 37  1  0
 24 38  1  0
 24 39  1  0
 24 40  1  0
 25 41  1  0
 25 42  1  0
M  ISO  8  26  14  27  14  28  14  29  14  30  14  31  14  32   8  33   8
M  ISO  7  34   8  35   8  36   8  37   8  38   8  39   8  40   8
M  END
>  <minimizedAffinity>  (1) 
-6.03322697

>  <minimizedRMSD>  (1) 
1.69241214

$$$$
