
     RDKit          3D

 36 38  0  0  0  0  0  0  0  0999 V2000
   40.5650   31.6740   40.3010 C   0  0  0  0  0  0  0  0  0  0  0  0
   39.2020   31.5480   40.3990 C   0  0  0  0  0  0  0  0  0  0  0  0
   38.7750   30.3990   39.7510 C   0  0  0  0  0  0  0  0  0  0  0  0
   39.9450   29.8680   39.2770 C   0  0  0  0  0  0  0  0  0  0  0  0
   40.9440   30.6310   39.6160 O   0  0  0  0  0  0  0  0  0  0  0  0
   43.2090   33.5480   42.0970 C   0  0  0  0  0  0  0  0  0  0  0  0
   42.9460   34.8970   41.6680 C   0  0  0  0  0  0  0  0  0  0  0  0
   41.8710   35.0180   40.7950 C   0  0  0  0  0  0  0  0  0  0  0  0
   41.1450   33.9580   40.3910 N   0  0  0  0  0  0  0  0  0  0  0  0
   41.4370   32.7130   40.8250 C   0  0  0  0  0  0  0  0  0  0  0  0
   42.4620   32.5220   41.6700 N   0  0  0  0  0  0  0  0  0  0  0  0
   43.7680   35.9450   42.1510 N   0  0  0  0  0  0  0  0  0  0  0  0
   43.6400   36.5400   43.4090 C   0  0  0  0  0  0  0  0  0  0  0  0
   42.4110   36.7000   43.8540 N   0  0  0  0  0  0  0  0  0  0  0  0
   44.8780   36.9010   44.0550 N   0  0  0  0  0  0  0  0  0  0  0  0
   42.2230   37.1500   44.7590 H   0  0  0  0  0  0  0  0  0  0  0  0
   37.3920   29.9560   39.6580 C   0  0  0  0  0  0  0  0  0  0  0  0
   36.7320   29.5000   40.7790 C   0  0  0  0  0  0  0  0  0  0  0  0
   35.4210   29.0820   40.6900 C   0  0  0  0  0  0  0  0  0  0  0  0
   34.7010   29.0880   39.5120 C   0  0  0  0  0  0  0  0  0  0  0  0
   35.4180   29.5530   38.4290 C   0  0  0  0  0  0  0  0  0  0  0  0
   36.6950   29.9640   38.5100 N   0  0  0  0  0  0  0  0  0  0  0  0
   40.0200   28.6040   38.4950 C   0  0  0  0  0  0  0  0  0  0  0  0
   41.3600   28.2920   38.2180 F   0  0  0  0  0  0  0  0  0  0  0  0
   39.4480   27.5830   39.2140 F   0  0  0  0  0  0  0  0  0  0  0  0
   39.4250   28.7570   37.2690 F   0  0  0  0  0  0  0  0  0  0  0  0
   38.5416   32.2581   40.9182 H   0  0  0  0  0  0  0  0  0  0  0  0
   44.0412   33.3561   42.7902 H   0  0  0  0  0  0  0  0  0  0  0  0
   41.6033   36.0169   40.4201 H   0  0  0  0  0  0  0  0  0  0  0  0
   44.5130   36.2932   41.5308 H   0  0  0  0  0  0  0  0  0  0  0  0
   44.8637   37.3441   44.9847 H   0  0  0  0  0  0  0  0  0  0  0  0
   45.7764   36.7157   43.5866 H   0  0  0  0  0  0  0  0  0  0  0  0
   37.2527   29.4695   41.7475 H   0  0  0  0  0  0  0  0  0  0  0  0
   34.9235   28.7256   41.6041 H   0  0  0  0  0  0  0  0  0  0  0  0
   33.6552   28.7538   39.4435 H   0  0  0  0  0  0  0  0  0  0  0  0
   34.9191   29.5892   37.4493 H   0  0  0  0  0  0  0  0  0  0  0  0
  1  2  2  0
  1 10  1  0
  3  2  1  0
  4  5  1  0
  4  3  2  0
  5  1  1  0
  7  6  2  0
  7 12  1  0
  8  7  1  0
  9  8  2  0
  9 10  1  0
 10 11  2  0
 11  6  1  0
 12 13  1  0
 13 14  2  0
 13 15  1  0
 14 16  1  0
 17  3  1  0
 17 18  2  0
 19 18  1  0
 20 19  2  0
 21 22  2  0
 21 20  1  0
 22 17  1  0
 23 25  1  0
 23  4  1  0
 24 23  1  0
 26 23  1  0
  2 27  1  0
  6 28  1  0
  8 29  1  0
 12 30  1  0
 15 31  1  0
 15 32  1  0
 18 33  1  0
 19 34  1  0
 20 35  1  0
 21 36  1  0
M  ISO  7  27  14  28  14  29  14  33  14  34  14  35  14  36  14
M  END
>  <minimizedAffinity>  (1) 
-5.55186892

>  <minimizedRMSD>  (1) 
7.72095585

$$$$
