
     RDKit          3D

 49 53  0  0  0  0  0  0  0  0999 V2000
   35.4060   28.5520   40.0330 C   0  0  0  0  0  0  0  0  0  0  0  0
   36.6130   28.1520   40.5930 C   0  0  0  0  0  0  0  0  0  0  0  0
   37.5720   27.6520   39.6940 C   0  0  0  0  0  0  0  0  0  0  0  0
   37.2990   27.5810   38.3650 N   0  0  0  0  0  0  0  0  0  0  0  0
   36.0860   27.9930   37.8710 C   0  0  0  0  0  0  0  0  0  0  0  0
   35.1320   28.4820   38.7110 N   0  0  0  0  0  0  0  0  0  0  0  0
   36.9010   28.2200   41.9510 N   0  0  0  0  0  0  0  0  0  0  0  0
   36.4560   27.3770   42.9010 C   0  0  0  0  0  0  0  0  0  0  0  0
   37.0030   27.8490   44.0720 C   0  0  0  0  0  0  0  0  0  0  0  0
   37.7630   28.9520   43.8220 N   0  0  0  0  0  0  0  0  0  0  0  0
   37.6900   29.1700   42.5110 C   0  0  0  0  0  0  0  0  0  0  0  0
   38.4160   30.2850   42.0250 N   0  0  0  0  0  0  0  0  0  0  0  0
   39.6370   30.6470   42.5510 C   0  0  0  0  0  0  0  0  0  0  0  0
   40.1270   31.7530   41.9100 N   0  0  0  0  0  0  0  0  0  0  0  0
   39.2340   32.1040   40.9780 C   0  0  0  0  0  0  0  0  0  0  0  0
   39.2050   33.1180   40.0600 C   0  0  0  0  0  0  0  0  0  0  0  0
   38.1100   33.1600   39.2610 N   0  0  0  0  0  0  0  0  0  0  0  0
   37.1070   32.2860   39.3400 C   0  0  0  0  0  0  0  0  0  0  0  0
   37.1170   31.2760   40.2430 N   0  0  0  0  0  0  0  0  0  0  0  0
   38.1910   31.2100   41.0470 C   0  0  0  0  0  0  0  0  0  0  0  0
   40.2610   34.0740   39.9440 N   0  0  0  0  0  0  0  0  0  0  0  0
   35.6920   27.9570   36.4570 C   0  0  0  0  0  0  0  0  0  0  0  0
   34.6440   28.9730   36.1090 C   0  0  0  0  0  0  0  0  0  0  0  0
   35.1410   26.5810   36.1300 C   0  0  0  0  0  0  0  0  0  0  0  0
   36.9190   28.1670   35.5650 C   0  0  0  0  0  0  0  0  0  0  0  0
   36.7570   29.3230   34.6530 C   0  0  0  0  0  0  0  0  0  0  0  0
   36.5510   30.6530   34.9560 C   0  0  0  0  0  0  0  0  0  0  0  0
   36.4590   31.3720   33.8230 N   0  0  0  0  0  0  0  0  0  0  0  0
   36.6030   30.5130   32.7850 C   0  0  0  0  0  0  0  0  0  0  0  0
   36.7820   29.2790   33.3040 N   0  0  0  0  0  0  0  0  0  0  0  0
   34.6291   28.9482   40.7035 H   0  0  0  0  0  0  0  0  0  0  0  0
   38.5499   27.3161   40.0695 H   0  0  0  0  0  0  0  0  0  0  0  0
   35.8000   26.5037   42.7702 H   0  0  0  0  0  0  0  0  0  0  0  0
   36.8492   27.4013   45.0649 H   0  0  0  0  0  0  0  0  0  0  0  0
   40.1469   30.1208   43.3714 H   0  0  0  0  0  0  0  0  0  0  0  0
   36.2512   32.3870   38.6563 H   0  0  0  0  0  0  0  0  0  0  0  0
   40.2022   34.8233   39.2398 H   0  0  0  0  0  0  0  0  0  0  0  0
   41.0808   34.0136   40.5646 H   0  0  0  0  0  0  0  0  0  0  0  0
   34.2152   29.3887   37.0328 H   0  0  0  0  0  0  0  0  0  0  0  0
   35.0994   29.7824   35.5196 H   0  0  0  0  0  0  0  0  0  0  0  0
   33.8491   28.4927   35.5196 H   0  0  0  0  0  0  0  0  0  0  0  0
   34.9248   26.0412   37.0637 H   0  0  0  0  0  0  0  0  0  0  0  0
   34.2156   26.6862   35.5446 H   0  0  0  0  0  0  0  0  0  0  0  0
   35.8832   26.0184   35.5446 H   0  0  0  0  0  0  0  0  0  0  0  0
   37.7965   28.3411   36.2050 H   0  0  0  0  0  0  0  0  0  0  0  0
   37.0459   27.2654   34.9478 H   0  0  0  0  0  0  0  0  0  0  0  0
   36.4735   31.0644   35.9732 H   0  0  0  0  0  0  0  0  0  0  0  0
   36.5786   30.7728   31.7164 H   0  0  0  0  0  0  0  0  0  0  0  0
   36.9186   28.4230   32.7476 H   0  0  0  0  0  0  0  0  0  0  0  0
  1  2  2  0
  2  7  1  0
  3  2  1  0
  4  3  2  0
  5  4  1  0
  5  6  2  0
  6  1  1  0
  7 11  1  0
  7  8  1  0
  8  9  2  0
 10  9  1  0
 11 10  2  0
 12 11  1  0
 12 13  1  0
 14 13  2  0
 15 20  2  0
 15 14  1  0
 16 15  1  0
 17 18  1  0
 17 16  2  0
 18 19  2  0
 19 20  1  0
 20 12  1  0
 21 16  1  0
 22  5  1  0
 23 22  1  0
 24 22  1  0
 25 22  1  0
 26 27  2  0
 26 25  1  0
 28 27  1  0
 29 30  1  0
 29 28  2  0
 30 26  1  0
  1 31  1  0
  3 32  1  0
  8 33  1  0
  9 34  1  0
 13 35  1  0
 18 36  1  0
 21 37  1  0
 21 38  1  0
 23 39  1  0
 23 40  1  0
 23 41  1  0
 24 42  1  0
 24 43  1  0
 24 44  1  0
 25 45  1  0
 25 46  1  0
 27 47  1  0
 29 48  1  0
 30 49  1  0
M  ISO  8  31  14  32  14  33  14  34  14  35  14  36  14  39   8  40   8
M  ISO  8  41   8  42   8  43   8  44   8  45   8  46   8  47  14  48  14
M  ISO  1  49   9
M  END
>  <minimizedAffinity>  (1) 
-6.21518326

>  <minimizedRMSD>  (1) 
1.09072161

$$$$
