
     RDKit          3D

 49 53  0  0  0  0  0  0  0  0999 V2000
   35.2410   28.7410   40.1630 C   0  0  0  0  0  0  0  0  0  0  0  0
   36.5040   28.3000   40.6020 C   0  0  0  0  0  0  0  0  0  0  0  0
   37.3650   27.7700   39.6280 C   0  0  0  0  0  0  0  0  0  0  0  0
   36.9530   27.7050   38.3350 N   0  0  0  0  0  0  0  0  0  0  0  0
   35.6900   28.1590   37.9660 C   0  0  0  0  0  0  0  0  0  0  0  0
   34.8400   28.6740   38.8710 N   0  0  0  0  0  0  0  0  0  0  0  0
   36.9230   28.3700   41.9270 N   0  0  0  0  0  0  0  0  0  0  0  0
   36.5490   27.5500   42.9270 C   0  0  0  0  0  0  0  0  0  0  0  0
   37.2160   28.0140   44.0330 C   0  0  0  0  0  0  0  0  0  0  0  0
   37.9820   29.0990   43.7020 N   0  0  0  0  0  0  0  0  0  0  0  0
   37.7850   29.3010   42.3990 C   0  0  0  0  0  0  0  0  0  0  0  0
   38.4950   30.3950   41.8390 N   0  0  0  0  0  0  0  0  0  0  0  0
   39.7650   30.7330   42.2380 C   0  0  0  0  0  0  0  0  0  0  0  0
   40.2110   31.8290   41.5410 N   0  0  0  0  0  0  0  0  0  0  0  0
   39.2410   32.1960   40.7000 C   0  0  0  0  0  0  0  0  0  0  0  0
   39.1360   33.2140   39.7790 C   0  0  0  0  0  0  0  0  0  0  0  0
   37.9570   33.2700   39.0980 N   0  0  0  0  0  0  0  0  0  0  0  0
   36.9490   32.4100   39.2890 C   0  0  0  0  0  0  0  0  0  0  0  0
   37.0340   31.4100   40.1840 N   0  0  0  0  0  0  0  0  0  0  0  0
   38.1840   31.3130   40.8830 C   0  0  0  0  0  0  0  0  0  0  0  0
   40.1790   34.1450   39.5490 N   0  0  0  0  0  0  0  0  0  0  0  0
   35.2410   28.0920   36.5700 C   0  0  0  0  0  0  0  0  0  0  0  0
   34.1010   29.0840   36.3240 C   0  0  0  0  0  0  0  0  0  0  0  0
   34.6780   26.7260   36.2560 C   0  0  0  0  0  0  0  0  0  0  0  0
   36.3510   28.3530   35.5920 C   0  0  0  0  0  0  0  0  0  0  0  0
   36.4410   29.5980   34.8800 C   0  0  0  0  0  0  0  0  0  0  0  0
   36.4780   29.3900   33.4820 C   0  0  0  0  0  0  0  0  0  0  0  0
   36.5680   30.5720   32.7750 C   0  0  0  0  0  0  0  0  0  0  0  0
   36.5830   31.4840   33.8050 C   0  0  0  0  0  0  0  0  0  0  0  0
   36.5100   30.8960   34.9720 O   0  0  0  0  0  0  0  0  0  0  0  0
   34.5461   29.1604   40.9054 H   0  0  0  0  0  0  0  0  0  0  0  0
   38.3656   27.4101   39.9096 H   0  0  0  0  0  0  0  0  0  0  0  0
   35.8594   26.6949   42.8701 H   0  0  0  0  0  0  0  0  0  0  0  0
   37.1453   27.5771   45.0400 H   0  0  0  0  0  0  0  0  0  0  0  0
   40.3435   30.2008   43.0075 H   0  0  0  0  0  0  0  0  0  0  0  0
   36.0278   32.5243   38.6988 H   0  0  0  0  0  0  0  0  0  0  0  0
   40.0580   34.8916   38.8499 H   0  0  0  0  0  0  0  0  0  0  0  0
   41.0582   34.0752   40.0809 H   0  0  0  0  0  0  0  0  0  0  0  0
   33.7023   29.4309   37.2887 H   0  0  0  0  0  0  0  0  0  0  0  0
   34.4804   29.9444   35.7533 H   0  0  0  0  0  0  0  0  0  0  0  0
   33.3013   28.5893   35.7533 H   0  0  0  0  0  0  0  0  0  0  0  0
   34.4592   26.1951   37.1942 H   0  0  0  0  0  0  0  0  0  0  0  0
   33.7520   26.8363   35.6726 H   0  0  0  0  0  0  0  0  0  0  0  0
   35.4128   26.1518   35.6726 H   0  0  0  0  0  0  0  0  0  0  0  0
   37.2914   28.2463   36.1526 H   0  0  0  0  0  0  0  0  0  0  0  0
   36.1352   27.6335   34.7884 H   0  0  0  0  0  0  0  0  0  0  0  0
   36.4394   28.3970   33.0104 H   0  0  0  0  0  0  0  0  0  0  0  0
   36.6148   30.7387   31.6887 H   0  0  0  0  0  0  0  0  0  0  0  0
   36.6483   32.5731   33.6650 H   0  0  0  0  0  0  0  0  0  0  0  0
  1  2  2  0
  2  7  1  0
  3  2  1  0
  4  3  2  0
  5  4  1  0
  5  6  2  0
  6  1  1  0
  7 11  1  0
  7  8  1  0
  8  9  2  0
 10  9  1  0
 11 10  2  0
 12 13  1  0
 12 11  1  0
 14 13  2  0
 15 20  2  0
 15 14  1  0
 16 15  1  0
 17 18  1  0
 17 16  2  0
 18 19  2  0
 19 20  1  0
 20 12  1  0
 21 16  1  0
 22  5  1  0
 23 22  1  0
 24 22  1  0
 25 22  1  0
 26 30  1  0
 26 25  1  0
 27 26  2  0
 28 27  1  0
 28 29  2  0
 29 30  1  0
  1 31  1  0
  3 32  1  0
  8 33  1  0
  9 34  1  0
 13 35  1  0
 18 36  1  0
 21 37  1  0
 21 38  1  0
 23 39  1  0
 23 40  1  0
 23 41  1  0
 24 42  1  0
 24 43  1  0
 24 44  1  0
 25 45  1  0
 25 46  1  0
 27 47  1  0
 28 48  1  0
 29 49  1  0
M  ISO  8  31  14  32  14  33  14  34  14  35  14  36  14  39   8  40   8
M  ISO  8  41   8  42   8  43   8  44   8  45   8  46   8  47  14  48  14
M  ISO  1  49  14
M  END
>  <minimizedAffinity>  (1) 
-6.2002058

>  <minimizedRMSD>  (1) 
1.1378597

$$$$
