
     RDKit          3D

 27 29  0  0  0  0  0  0  0  0999 V2000
   35.5340   28.8330   40.7290 C   0  0  0  0  0  0  0  0  0  0  0  0
   36.4650   27.7090   40.8790 C   0  0  0  0  0  0  0  0  0  0  0  0
   36.5890   26.6980   39.9530 C   0  0  0  0  0  0  0  0  0  0  0  0
   37.5060   25.8160   40.3490 N   0  0  0  0  0  0  0  0  0  0  0  0
   37.9820   26.2450   41.5290 C   0  0  0  0  0  0  0  0  0  0  0  0
   38.9360   25.6860   42.3370 C   0  0  0  0  0  0  0  0  0  0  0  0
   39.2770   26.3030   43.5220 C   0  0  0  0  0  0  0  0  0  0  0  0
   38.6380   27.4880   43.8710 C   0  0  0  0  0  0  0  0  0  0  0  0
   37.6650   28.0540   43.0440 C   0  0  0  0  0  0  0  0  0  0  0  0
   37.3570   27.4040   41.8720 C   0  0  0  0  0  0  0  0  0  0  0  0
   37.1770   32.2240   40.2610 C   0  0  0  0  0  0  0  0  0  0  0  0
   36.5690   31.1220   40.9020 C   0  0  0  0  0  0  0  0  0  0  0  0
   36.1820   30.0340   40.1170 C   0  0  0  0  0  0  0  0  0  0  0  0
   36.4110   30.0880   38.7700 N   0  0  0  0  0  0  0  0  0  0  0  0
   36.9940   31.1590   38.1950 C   0  0  0  0  0  0  0  0  0  0  0  0
   37.3700   32.2080   38.9290 N   0  0  0  0  0  0  0  0  0  0  0  0
   34.6991   28.5165   40.0865 H   0  0  0  0  0  0  0  0  0  0  0  0
   35.1859   29.1157   41.7334 H   0  0  0  0  0  0  0  0  0  0  0  0
   36.0128   26.6281   39.0186 H   0  0  0  0  0  0  0  0  0  0  0  0
   37.7952   24.9655   39.8450 H   0  0  0  0  0  0  0  0  0  0  0  0
   39.4286   24.7479   42.0416 H   0  0  0  0  0  0  0  0  0  0  0  0
   40.0418   25.8653   44.1804 H   0  0  0  0  0  0  0  0  0  0  0  0
   38.9033   27.9879   44.8142 H   0  0  0  0  0  0  0  0  0  0  0  0
   37.1605   28.9912   43.3218 H   0  0  0  0  0  0  0  0  0  0  0  0
   37.4933   33.0967   40.8513 H   0  0  0  0  0  0  0  0  0  0  0  0
   36.4049   31.1209   41.9897 H   0  0  0  0  0  0  0  0  0  0  0  0
   37.1617   31.1682   37.1079 H   0  0  0  0  0  0  0  0  0  0  0  0
  1  2  1  0
  2 10  1  0
  3  4  1  0
  3  2  2  0
  4  5  1  0
  5 10  2  0
  5  6  1  0
  6  7  2  0
  7  8  1  0
  9  8  2  0
 10  9  1  0
 11 12  2  0
 13  1  1  0
 13 12  1  0
 14 13  2  0
 15 14  1  0
 15 16  2  0
 16 11  1  0
  1 17  1  0
  1 18  1  0
  3 19  1  0
  4 20  1  0
  6 21  1  0
  7 22  1  0
  8 23  1  0
  9 24  1  0
 11 25  1  0
 12 26  1  0
 15 27  1  0
M  ISO  8  17   8  18   8  19  14  20   9  21  14  22  14  23  14  24  14
M  ISO  3  25  14  26  14  27  14
M  END
>  <minimizedAffinity>  (1) 
-4.73784351

>  <minimizedRMSD>  (1) 
4.42170763

$$$$
