
     RDKit          3D

 26 28  0  0  0  0  0  0  0  0999 V2000
   37.7640   27.4830   43.3140 C   0  0  0  0  0  0  0  0  0  0  0  0
   41.3770   26.6730   44.1670 C   0  0  0  0  0  0  0  0  0  0  0  0
   39.9720   26.5580   44.0940 C   0  0  0  0  0  0  0  0  0  0  0  0
   39.2510   27.5580   43.4190 C   0  0  0  0  0  0  0  0  0  0  0  0
   39.9500   28.5850   42.8710 N   0  0  0  0  0  0  0  0  0  0  0  0
   41.3050   28.6620   42.9620 C   0  0  0  0  0  0  0  0  0  0  0  0
   42.0020   27.7040   43.6090 N   0  0  0  0  0  0  0  0  0  0  0  0
   37.2940   27.0260   42.0470 N   0  0  0  0  0  0  0  0  0  0  0  0
   36.7480   27.9110   41.1660 C   0  0  0  0  0  0  0  0  0  0  0  0
   36.3890   27.2200   40.0530 N   0  0  0  0  0  0  0  0  0  0  0  0
   36.6920   25.9230   40.2050 C   0  0  0  0  0  0  0  0  0  0  0  0
   36.5660   24.7810   39.4370 C   0  0  0  0  0  0  0  0  0  0  0  0
   37.0040   23.6170   39.9530 N   0  0  0  0  0  0  0  0  0  0  0  0
   37.5590   23.5220   41.1830 C   0  0  0  0  0  0  0  0  0  0  0  0
   37.6910   24.6310   41.9500 N   0  0  0  0  0  0  0  0  0  0  0  0
   37.2620   25.8140   41.4640 C   0  0  0  0  0  0  0  0  0  0  0  0
   35.9840   24.8680   38.1410 N   0  0  0  0  0  0  0  0  0  0  0  0
   37.3969   26.7933   44.0884 H   0  0  0  0  0  0  0  0  0  0  0  0
   37.3838   28.5070   43.4440 H   0  0  0  0  0  0  0  0  0  0  0  0
   41.9601   25.9014   44.6910 H   0  0  0  0  0  0  0  0  0  0  0  0
   39.4530   25.7048   44.5551 H   0  0  0  0  0  0  0  0  0  0  0  0
   41.8361   29.5102   42.5055 H   0  0  0  0  0  0  0  0  0  0  0  0
   36.6208   28.9916   41.3274 H   0  0  0  0  0  0  0  0  0  0  0  0
   37.9022   22.5470   41.5594 H   0  0  0  0  0  0  0  0  0  0  0  0
   35.6609   25.7776   37.7816 H   0  0  0  0  0  0  0  0  0  0  0  0
   35.8860   24.0214   37.5626 H   0  0  0  0  0  0  0  0  0  0  0  0
  1  4  1  0
  3  2  2  0
  4  3  1  0
  5  6  1  0
  5  4  2  0
  6  7  2  0
  7  2  1  0
  8  1  1  0
  9  8  1  0
 10 11  1  0
 10  9  2  0
 11 16  2  0
 12 13  2  0
 12 11  1  0
 13 14  1  0
 14 15  2  0
 16 15  1  0
 16  8  1  0
 17 12  1  0
  1 18  1  0
  1 19  1  0
  2 20  1  0
  3 21  1  0
  6 22  1  0
  9 23  1  0
 14 24  1  0
 17 25  1  0
 17 26  1  0
M  ISO  7  18   8  19   8  20  14  21  14  22  14  23  14  24  14
M  END
>  <minimizedAffinity>  (1) 
-4.02535915

>  <minimizedRMSD>  (1) 
3.86620975

$$$$
