
     RDKit          3D

 25 26  0  0  0  0  0  0  0  0999 V2000
   38.1580   28.1440   43.4060 C   0  0  0  0  0  0  0  0  0  0  0  0
   37.9450   29.4310   42.8680 C   0  0  0  0  0  0  0  0  0  0  0  0
   37.1890   29.5260   41.7080 C   0  0  0  0  0  0  0  0  0  0  0  0
   36.7030   28.3810   41.1620 N   0  0  0  0  0  0  0  0  0  0  0  0
   36.9260   27.1580   41.7060 C   0  0  0  0  0  0  0  0  0  0  0  0
   37.6550   27.0600   42.8250 N   0  0  0  0  0  0  0  0  0  0  0  0
   36.9130   30.8440   41.0650 C   0  0  0  0  0  0  0  0  0  0  0  0
   37.7500   31.0020   39.9160 N   0  0  0  0  0  0  0  0  0  0  0  0
   38.9740   31.7330   40.1690 C   0  0  0  0  0  0  0  0  0  0  0  0
   38.4850   33.1670   40.3070 C   0  0  0  0  0  0  0  0  0  0  0  0
   37.2000   33.2010   39.5080 C   0  0  0  0  0  0  0  0  0  0  0  0
   37.1530   31.8390   38.8940 C   0  0  0  0  0  0  0  0  0  0  0  0
   38.7526   28.0359   44.3251 H   0  0  0  0  0  0  0  0  0  0  0  0
   38.3631   30.3267   43.3506 H   0  0  0  0  0  0  0  0  0  0  0  0
   36.5119   26.2557   41.2323 H   0  0  0  0  0  0  0  0  0  0  0  0
   35.8576   30.8876   40.7579 H   0  0  0  0  0  0  0  0  0  0  0  0
   37.1214   31.6513   41.7825 H   0  0  0  0  0  0  0  0  0  0  0  0
   39.4578   31.3881   41.0947 H   0  0  0  0  0  0  0  0  0  0  0  0
   39.7303   31.6038   39.3808 H   0  0  0  0  0  0  0  0  0  0  0  0
   38.2949   33.4143   41.3618 H   0  0  0  0  0  0  0  0  0  0  0  0
   39.2230   33.8996   39.9484 H   0  0  0  0  0  0  0  0  0  0  0  0
   36.3318   33.3707   40.1618 H   0  0  0  0  0  0  0  0  0  0  0  0
   37.1706   34.0131   38.7667 H   0  0  0  0  0  0  0  0  0  0  0  0
   36.1166   31.5334   38.6879 H   0  0  0  0  0  0  0  0  0  0  0  0
   37.6730   31.7806   37.9264 H   0  0  0  0  0  0  0  0  0  0  0  0
  2  1  2  0
  3  2  1  0
  4  5  1  0
  4  3  2  0
  5  6  2  0
  6  1  1  0
  7  3  1  0
  8  9  1  0
  8  7  1  0
  9 10  1  0
 11 10  1  0
 12 11  1  0
 12  8  1  0
  1 13  1  0
  2 14  1  0
  5 15  1  0
  7 16  1  0
  7 17  1  0
  9 18  1  0
  9 19  1  0
 10 20  1  0
 10 21  1  0
 11 22  1  0
 11 23  1  0
 12 24  1  0
 12 25  1  0
M  ISO  8  13  14  14  14  15  14  16   8  17   8  18  13  19  13  20  13
M  ISO  5  21  13  22  13  23  13  24  13  25  13
M  END
>  <minimizedAffinity>  (1) 
-3.54117966

>  <minimizedRMSD>  (1) 
5.67147779

$$$$
