
     RDKit          3D

 24 26  0  0  0  0  0  0  0  0999 V2000
   37.5770   28.6090   43.6530 C   0  0  0  0  0  0  0  0  0  0  0  0
   37.3030   27.2440   43.4110 C   0  0  0  0  0  0  0  0  0  0  0  0
   36.9720   26.8990   42.1070 C   0  0  0  0  0  0  0  0  0  0  0  0
   36.9290   27.8610   41.1530 N   0  0  0  0  0  0  0  0  0  0  0  0
   37.1920   29.1480   41.4080 C   0  0  0  0  0  0  0  0  0  0  0  0
   37.5170   29.5120   42.6670 N   0  0  0  0  0  0  0  0  0  0  0  0
   37.1660   30.2070   40.4620 N   0  0  0  0  0  0  0  0  0  0  0  0
   37.6050   31.3860   40.8690 N   0  0  0  0  0  0  0  0  0  0  0  0
   37.4970   32.2550   39.8220 C   0  0  0  0  0  0  0  0  0  0  0  0
   36.9670   31.5170   38.7680 C   0  0  0  0  0  0  0  0  0  0  0  0
   36.7600   30.2170   39.1820 C   0  0  0  0  0  0  0  0  0  0  0  0
   36.2190   29.0700   38.4300 C   0  0  0  0  0  0  0  0  0  0  0  0
   35.4500   29.3800   37.1910 C   0  0  0  0  0  0  0  0  0  0  0  0
   34.7150   28.8650   38.4060 C   0  0  0  0  0  0  0  0  0  0  0  0
   37.8442   28.9349   44.6691 H   0  0  0  0  0  0  0  0  0  0  0  0
   37.3495   26.4935   44.2139 H   0  0  0  0  0  0  0  0  0  0  0  0
   36.7465   25.8534   41.8504 H   0  0  0  0  0  0  0  0  0  0  0  0
   37.7724   33.3199   39.8132 H   0  0  0  0  0  0  0  0  0  0  0  0
   36.7477   31.9081   37.7635 H   0  0  0  0  0  0  0  0  0  0  0  0
   37.0767   28.4296   38.6835 H   0  0  0  0  0  0  0  0  0  0  0  0
   35.5587   28.7388   36.3039 H   0  0  0  0  0  0  0  0  0  0  0  0
   35.3500   30.2638   36.5437 H   0  0  0  0  0  0  0  0  0  0  0  0
   34.0566   29.5346   38.9788 H   0  0  0  0  0  0  0  0  0  0  0  0
   34.0350   28.0256   38.6132 H   0  0  0  0  0  0  0  0  0  0  0  0
  2  1  2  0
  3  2  1  0
  4  5  1  0
  4  3  2  0
  5  6  2  0
  6  1  1  0
  7  8  1  0
  7  5  1  0
  9  8  2  0
 10 11  2  0
 10  9  1  0
 11  7  1  0
 12 11  1  0
 13 14  1  0
 13 12  1  0
 14 12  1  0
  1 15  1  0
  2 16  1  0
  3 17  1  0
  9 18  1  0
 10 19  1  0
 12 20  1  0
 13 21  1  0
 13 22  1  0
 14 23  1  0
 14 24  1  0
M  ISO  8  15  14  16  14  17  14  18  14  19  14  20  13  21  13  22  13
M  ISO  2  23  13  24  13
M  END
>  <minimizedAffinity>  (1) 
-4.22148752

>  <minimizedRMSD>  (1) 
1.67370296

$$$$
