
     RDKit          3D

 34 37  0  0  0  0  0  0  0  0999 V2000
   38.1810   27.1110   43.0780 C   0  0  0  0  0  0  0  0  0  0  0  0
   39.2090   26.2760   43.3340 C   0  0  0  0  0  0  0  0  0  0  0  0
   39.4360   25.1530   42.6280 C   0  0  0  0  0  0  0  0  0  0  0  0
   38.4500   24.9560   41.5710 C   0  0  0  0  0  0  0  0  0  0  0  0
   37.3560   26.3400   41.7030 S   0  0  0  0  0  0  0  0  0  0  0  0
   38.4670   23.8220   40.6630 C   0  0  0  0  0  0  0  0  0  0  0  0
   37.5990   22.7560   40.6630 C   0  0  0  0  0  0  0  0  0  0  0  0
   38.0240   21.9890   39.6490 N   0  0  0  0  0  0  0  0  0  0  0  0
   39.1010   22.5210   39.0250 C   0  0  0  0  0  0  0  0  0  0  0  0
   39.8700   22.1100   37.9560 C   0  0  0  0  0  0  0  0  0  0  0  0
   40.9370   22.8640   37.5160 C   0  0  0  0  0  0  0  0  0  0  0  0
   41.2710   24.0630   38.1360 C   0  0  0  0  0  0  0  0  0  0  0  0
   40.4870   24.4530   39.2020 C   0  0  0  0  0  0  0  0  0  0  0  0
   39.4140   23.7220   39.6670 C   0  0  0  0  0  0  0  0  0  0  0  0
   37.6710   28.3660   43.6380 C   0  0  0  0  0  0  0  0  0  0  0  0
   39.3240   31.1750   41.6840 C   0  0  0  0  0  0  0  0  0  0  0  0
   39.1490   30.1170   42.6060 C   0  0  0  0  0  0  0  0  0  0  0  0
   37.9220   29.4860   42.6890 C   0  0  0  0  0  0  0  0  0  0  0  0
   36.9270   29.9310   41.8560 N   0  0  0  0  0  0  0  0  0  0  0  0
   37.1270   30.9450   40.9860 C   0  0  0  0  0  0  0  0  0  0  0  0
   38.3070   31.5530   40.9060 N   0  0  0  0  0  0  0  0  0  0  0  0
   39.8937   26.5246   44.1583 H   0  0  0  0  0  0  0  0  0  0  0  0
   40.2695   24.4628   42.8253 H   0  0  0  0  0  0  0  0  0  0  0  0
   36.7508   22.5742   41.3394 H   0  0  0  0  0  0  0  0  0  0  0  0
   37.5827   21.0991   39.3766 H   0  0  0  0  0  0  0  0  0  0  0  0
   39.6280   21.1656   37.4465 H   0  0  0  0  0  0  0  0  0  0  0  0
   41.5333   22.5117   36.6614 H   0  0  0  0  0  0  0  0  0  0  0  0
   42.1204   24.6718   37.7926 H   0  0  0  0  0  0  0  0  0  0  0  0
   40.7310   25.3984   39.7086 H   0  0  0  0  0  0  0  0  0  0  0  0
   36.5892   28.2733   43.8142 H   0  0  0  0  0  0  0  0  0  0  0  0
   38.1869   28.5741   44.5870 H   0  0  0  0  0  0  0  0  0  0  0  0
   40.2956   31.6852   41.6081 H   0  0  0  0  0  0  0  0  0  0  0  0
   39.9815   29.7992   43.2510 H   0  0  0  0  0  0  0  0  0  0  0  0
   36.3028   31.2721   40.3351 H   0  0  0  0  0  0  0  0  0  0  0  0
  1  2  2  0
  1 15  1  0
  3  2  1  0
  4  5  1  0
  4  3  2  0
  5  1  1  0
  6  7  2  0
  6  4  1  0
  8  7  1  0
  9  8  1  0
  9 14  2  0
 10  9  1  0
 11 10  2  0
 11 12  1  0
 12 13  2  0
 13 14  1  0
 14  6  1  0
 16 17  2  0
 17 18  1  0
 18 15  1  0
 19 18  2  0
 20 19  1  0
 21 20  2  0
 21 16  1  0
  2 22  1  0
  3 23  1  0
  7 24  1  0
  8 25  1  0
 10 26  1  0
 11 27  1  0
 12 28  1  0
 13 29  1  0
 15 30  1  0
 15 31  1  0
 16 32  1  0
 17 33  1  0
 20 34  1  0
M  ISO  8  22  14  23  14  24  14  25   9  26  14  27  14  28  14  29  14
M  ISO  5  30   8  31   8  32  14  33  14  34  14
M  END
>  <minimizedAffinity>  (1) 
-4.73901272

>  <minimizedRMSD>  (1) 
2.57429171

$$$$
