
     RDKit          3D

 34 37  0  0  0  0  0  0  0  0999 V2000
   36.9190   26.5590   42.2280 C   0  0  0  0  0  0  0  0  0  0  0  0
   36.9160   25.2560   42.5770 C   0  0  0  0  0  0  0  0  0  0  0  0
   37.0680   24.2550   41.6910 C   0  0  0  0  0  0  0  0  0  0  0  0
   37.2360   24.7450   40.3270 C   0  0  0  0  0  0  0  0  0  0  0  0
   37.1590   26.5050   40.4670 S   0  0  0  0  0  0  0  0  0  0  0  0
   37.4160   23.9190   39.1920 N   0  0  0  0  0  0  0  0  0  0  0  0
   37.2630   24.2410   37.8780 C   0  0  0  0  0  0  0  0  0  0  0  0
   37.5390   23.1430   37.1240 N   0  0  0  0  0  0  0  0  0  0  0  0
   37.8610   22.1450   37.9600 C   0  0  0  0  0  0  0  0  0  0  0  0
   38.2200   20.8290   37.6550 C   0  0  0  0  0  0  0  0  0  0  0  0
   38.2630   20.4720   36.4360 O   0  0  0  0  0  0  0  0  0  0  0  0
   38.5070   19.9870   38.6730 N   0  0  0  0  0  0  0  0  0  0  0  0
   38.4340   20.4550   39.9450 C   0  0  0  0  0  0  0  0  0  0  0  0
   38.7460   19.5250   40.9770 N   0  0  0  0  0  0  0  0  0  0  0  0
   38.0880   21.7240   40.2310 N   0  0  0  0  0  0  0  0  0  0  0  0
   37.7880   22.6190   39.2670 C   0  0  0  0  0  0  0  0  0  0  0  0
   36.7820   27.8330   42.9350 C   0  0  0  0  0  0  0  0  0  0  0  0
   40.3170   29.2070   42.7070 C   0  0  0  0  0  0  0  0  0  0  0  0
   39.2410   28.3490   43.0060 C   0  0  0  0  0  0  0  0  0  0  0  0
   37.9560   28.7070   42.6420 C   0  0  0  0  0  0  0  0  0  0  0  0
   37.8040   29.8940   42.0010 N   0  0  0  0  0  0  0  0  0  0  0  0
   38.8440   30.7080   41.7200 C   0  0  0  0  0  0  0  0  0  0  0  0
   40.0830   30.3530   42.0770 N   0  0  0  0  0  0  0  0  0  0  0  0
   36.7827   24.9992   43.6383 H   0  0  0  0  0  0  0  0  0  0  0  0
   37.0659   23.1893   41.9637 H   0  0  0  0  0  0  0  0  0  0  0  0
   36.9653   25.2264   37.4902 H   0  0  0  0  0  0  0  0  0  0  0  0
   38.7756   19.0102   38.4871 H   0  0  0  0  0  0  0  0  0  0  0  0
   38.7090   19.8188   41.9635 H   0  0  0  0  0  0  0  0  0  0  0  0
   39.0087   18.5584   40.7370 H   0  0  0  0  0  0  0  0  0  0  0  0
   35.8614   28.3362   42.6043 H   0  0  0  0  0  0  0  0  0  0  0  0
   36.7342   27.6425   44.0173 H   0  0  0  0  0  0  0  0  0  0  0  0
   41.3427   28.9306   42.9927 H   0  0  0  0  0  0  0  0  0  0  0  0
   39.4222   27.3974   43.5273 H   0  0  0  0  0  0  0  0  0  0  0  0
   38.6725   31.6612   41.1985 H   0  0  0  0  0  0  0  0  0  0  0  0
  1  2  2  0
  1 17  1  0
  3  2  1  0
  4  5  1  0
  4  3  2  0
  5  1  1  0
  6 16  1  0
  6  4  1  0
  7  6  1  0
  8  7  2  0
  8  9  1  0
  9 16  2  0
 10  9  1  0
 10 12  1  0
 11 10  2  0
 12 13  1  0
 13 15  2  0
 13 14  1  0
 16 15  1  0
 18 19  2  0
 20 17  1  0
 20 19  1  0
 21 20  2  0
 22 21  1  0
 22 23  2  0
 23 18  1  0
  2 24  1  0
  3 25  1  0
  7 26  1  0
 12 27  1  0
 14 28  1  0
 14 29  1  0
 17 30  1  0
 17 31  1  0
 18 32  1  0
 19 33  1  0
 22 34  1  0
M  ISO  8  24  14  25  14  26  14  27   9  30   8  31   8  32  14  33  14
M  ISO  1  34  14
M  END
>  <minimizedAffinity>  (1) 
-4.63951683

>  <minimizedRMSD>  (1) 
1.3058871

$$$$
