
     RDKit          3D

 31 34  0  0  0  0  0  0  0  0999 V2000
   38.1580   27.1100   43.0940 C   0  0  0  0  0  0  0  0  0  0  0  0
   39.1800   26.2760   43.3790 C   0  0  0  0  0  0  0  0  0  0  0  0
   39.4330   25.1500   42.6870 C   0  0  0  0  0  0  0  0  0  0  0  0
   38.4730   24.9520   41.6050 C   0  0  0  0  0  0  0  0  0  0  0  0
   37.3740   26.3300   41.6980 S   0  0  0  0  0  0  0  0  0  0  0  0
   38.5020   23.8360   40.7080 N   0  0  0  0  0  0  0  0  0  0  0  0
   37.8010   22.6990   40.6340 C   0  0  0  0  0  0  0  0  0  0  0  0
   38.2710   22.0090   39.5630 N   0  0  0  0  0  0  0  0  0  0  0  0
   39.2510   22.6920   38.9670 C   0  0  0  0  0  0  0  0  0  0  0  0
   40.0120   22.4000   37.8670 C   0  0  0  0  0  0  0  0  0  0  0  0
   40.9550   23.2780   37.4650 N   0  0  0  0  0  0  0  0  0  0  0  0
   41.1140   24.4330   38.1730 C   0  0  0  0  0  0  0  0  0  0  0  0
   40.3610   24.7120   39.2540 N   0  0  0  0  0  0  0  0  0  0  0  0
   39.3960   23.8540   39.6980 C   0  0  0  0  0  0  0  0  0  0  0  0
   37.6490   28.3670   43.6560 C   0  0  0  0  0  0  0  0  0  0  0  0
   39.3390   31.1530   41.7050 C   0  0  0  0  0  0  0  0  0  0  0  0
   39.1490   30.0960   42.6330 C   0  0  0  0  0  0  0  0  0  0  0  0
   37.9190   29.4810   42.7050 C   0  0  0  0  0  0  0  0  0  0  0  0
   36.9380   29.9340   41.8640 N   0  0  0  0  0  0  0  0  0  0  0  0
   37.1390   30.9410   40.9870 C   0  0  0  0  0  0  0  0  0  0  0  0
   38.3170   31.5340   40.9140 N   0  0  0  0  0  0  0  0  0  0  0  0
   39.8407   26.5299   44.2210 H   0  0  0  0  0  0  0  0  0  0  0  0
   40.2623   24.4624   42.9095 H   0  0  0  0  0  0  0  0  0  0  0  0
   36.9955   22.3826   41.3129 H   0  0  0  0  0  0  0  0  0  0  0  0
   39.8566   21.4602   37.3169 H   0  0  0  0  0  0  0  0  0  0  0  0
   41.8782   25.1563   37.8522 H   0  0  0  0  0  0  0  0  0  0  0  0
   36.5651   28.2818   43.8228 H   0  0  0  0  0  0  0  0  0  0  0  0
   38.1521   28.5713   44.6126 H   0  0  0  0  0  0  0  0  0  0  0  0
   40.3137   31.6576   41.6321 H   0  0  0  0  0  0  0  0  0  0  0  0
   39.9731   29.7725   43.2858 H   0  0  0  0  0  0  0  0  0  0  0  0
   36.3189   31.2686   40.3312 H   0  0  0  0  0  0  0  0  0  0  0  0
  1  2  2  0
  1 15  1  0
  3  2  1  0
  4  5  1  0
  4  3  2  0
  5  1  1  0
  6  4  1  0
  7  6  1  0
  8  7  2  0
  9  8  1  0
  9 14  2  0
 10  9  1  0
 11 10  2  0
 11 12  1  0
 12 13  2  0
 13 14  1  0
 14  6  1  0
 16 17  2  0
 17 18  1  0
 18 15  1  0
 19 18  2  0
 20 19  1  0
 21 20  2  0
 21 16  1  0
  2 22  1  0
  3 23  1  0
  7 24  1  0
 10 25  1  0
 12 26  1  0
 15 27  1  0
 15 28  1  0
 16 29  1  0
 17 30  1  0
 20 31  1  0
M  ISO  8  22  14  23  14  24  14  25  14  26  14  27   8  28   8  29  14
M  ISO  2  30  14  31  14
M  END
>  <minimizedAffinity>  (1) 
-4.54372931

>  <minimizedRMSD>  (1) 
2.49792767

$$$$
