
     RDKit          3D

 29 31  0  0  0  0  0  0  0  0999 V2000
   37.0150   26.1190   42.3370 C   0  0  0  0  0  0  0  0  0  0  0  0
   37.4050   24.8640   42.6410 C   0  0  0  0  0  0  0  0  0  0  0  0
   37.7610   23.9490   41.7220 C   0  0  0  0  0  0  0  0  0  0  0  0
   37.6700   24.4830   40.3670 C   0  0  0  0  0  0  0  0  0  0  0  0
   37.1190   26.1400   40.5560 S   0  0  0  0  0  0  0  0  0  0  0  0
   37.9740   23.7860   39.1230 C   0  0  0  0  0  0  0  0  0  0  0  0
   38.6820   22.6370   39.2300 C   0  0  0  0  0  0  0  0  0  0  0  0
   38.9570   21.9930   38.0180 C   0  0  0  0  0  0  0  0  0  0  0  0
   38.4930   22.5730   36.8500 C   0  0  0  0  0  0  0  0  0  0  0  0
   37.7640   23.7660   36.7840 C   0  0  0  0  0  0  0  0  0  0  0  0
   37.5230   24.3520   37.9950 N   0  0  0  0  0  0  0  0  0  0  0  0
   36.5810   27.3050   43.0820 C   0  0  0  0  0  0  0  0  0  0  0  0
   39.3350   29.8710   42.6000 C   0  0  0  0  0  0  0  0  0  0  0  0
   38.6520   28.7190   43.0650 C   0  0  0  0  0  0  0  0  0  0  0  0
   37.3630   28.4930   42.6360 C   0  0  0  0  0  0  0  0  0  0  0  0
   36.8140   29.4070   41.7770 N   0  0  0  0  0  0  0  0  0  0  0  0
   37.4810   30.4980   41.3460 C   0  0  0  0  0  0  0  0  0  0  0  0
   38.7250   30.7190   41.7570 N   0  0  0  0  0  0  0  0  0  0  0  0
   37.4335   24.5723   43.7012 H   0  0  0  0  0  0  0  0  0  0  0  0
   38.0813   22.9244   41.9621 H   0  0  0  0  0  0  0  0  0  0  0  0
   39.0168   22.2385   40.1990 H   0  0  0  0  0  0  0  0  0  0  0  0
   39.5261   21.0520   37.9944 H   0  0  0  0  0  0  0  0  0  0  0  0
   38.7136   22.0581   35.9033 H   0  0  0  0  0  0  0  0  0  0  0  0
   37.4135   24.1970   35.8346 H   0  0  0  0  0  0  0  0  0  0  0  0
   35.5110   27.4814   42.8974 H   0  0  0  0  0  0  0  0  0  0  0  0
   36.7486   27.1413   44.1568 H   0  0  0  0  0  0  0  0  0  0  0  0
   40.3652   30.0700   42.9301 H   0  0  0  0  0  0  0  0  0  0  0  0
   39.1429   28.0181   43.7562 H   0  0  0  0  0  0  0  0  0  0  0  0
   36.9955   31.2033   40.6554 H   0  0  0  0  0  0  0  0  0  0  0  0
  1  2  2  0
  1 12  1  0
  3  2  1  0
  4  5  1  0
  4  3  2  0
  5  1  1  0
  6  7  2  0
  6  4  1  0
  8  7  1  0
  9  8  2  0
 10  9  1  0
 10 11  2  0
 11  6  1  0
 13 14  2  0
 15 14  1  0
 15 12  1  0
 16 15  2  0
 17 18  2  0
 17 16  1  0
 18 13  1  0
  2 19  1  0
  3 20  1  0
  7 21  1  0
  8 22  1  0
  9 23  1  0
 10 24  1  0
 12 25  1  0
 12 26  1  0
 13 27  1  0
 14 28  1  0
 17 29  1  0
M  ISO  8  19  14  20  14  21  14  22  14  23  14  24  14  25   8  26   8
M  ISO  3  27  14  28  14  29  14
M  END
>  <minimizedAffinity>  (1) 
-3.94578338

>  <minimizedRMSD>  (1) 
0.545913637

$$$$
