
     RDKit          3D

 32 33  0  0  0  0  0  0  0  0999 V2000
   36.5910   27.2210   43.0390 C   0  0  0  0  0  0  0  0  0  0  0  0
   39.3180   29.8350   42.6330 C   0  0  0  0  0  0  0  0  0  0  0  0
   38.6370   28.6670   43.0680 C   0  0  0  0  0  0  0  0  0  0  0  0
   37.3520   28.4300   42.6140 C   0  0  0  0  0  0  0  0  0  0  0  0
   36.8030   29.3500   41.7590 N   0  0  0  0  0  0  0  0  0  0  0  0
   37.4750   30.4530   41.3610 C   0  0  0  0  0  0  0  0  0  0  0  0
   38.7100   30.6810   41.7970 N   0  0  0  0  0  0  0  0  0  0  0  0
   37.0250   26.0650   42.2480 C   0  0  0  0  0  0  0  0  0  0  0  0
   37.2770   24.7650   42.5070 C   0  0  0  0  0  0  0  0  0  0  0  0
   37.6730   23.8980   41.5590 C   0  0  0  0  0  0  0  0  0  0  0  0
   37.7950   24.5120   40.2410 C   0  0  0  0  0  0  0  0  0  0  0  0
   37.3490   26.1870   40.5000 S   0  0  0  0  0  0  0  0  0  0  0  0
   38.2060   23.8300   38.9990 C   0  0  0  0  0  0  0  0  0  0  0  0
   37.6190   22.4700   39.0020 C   0  0  0  0  0  0  0  0  0  0  0  0
   39.7080   23.7030   39.0610 C   0  0  0  0  0  0  0  0  0  0  0  0
   37.7240   24.5860   37.7940 C   0  0  0  0  0  0  0  0  0  0  0  0
   36.7782   27.0264   44.1053 H   0  0  0  0  0  0  0  0  0  0  0  0
   35.5159   27.3906   42.8796 H   0  0  0  0  0  0  0  0  0  0  0  0
   40.3403   30.0418   42.9825 H   0  0  0  0  0  0  0  0  0  0  0  0
   39.1245   27.9608   43.7562 H   0  0  0  0  0  0  0  0  0  0  0  0
   36.9975   31.1659   40.6726 H   0  0  0  0  0  0  0  0  0  0  0  0
   37.1532   24.3993   43.5370 H   0  0  0  0  0  0  0  0  0  0  0  0
   37.8831   22.8364   41.7563 H   0  0  0  0  0  0  0  0  0  0  0  0
   37.4745   22.1353   40.0398 H   0  0  0  0  0  0  0  0  0  0  0  0
   36.6487   22.4883   38.4842 H   0  0  0  0  0  0  0  0  0  0  0  0
   38.2979   21.7765   38.4842 H   0  0  0  0  0  0  0  0  0  0  0  0
   40.0306   23.6757   40.1123 H   0  0  0  0  0  0  0  0  0  0  0  0
   40.0186   22.7754   38.5580 H   0  0  0  0  0  0  0  0  0  0  0  0
   40.1700   24.5653   38.5580 H   0  0  0  0  0  0  0  0  0  0  0  0
   37.1590   25.4721   38.1189 H   0  0  0  0  0  0  0  0  0  0  0  0
   38.5873   24.9026   37.1903 H   0  0  0  0  0  0  0  0  0  0  0  0
   37.0727   23.9369   37.1903 H   0  0  0  0  0  0  0  0  0  0  0  0
  2  3  2  0
  4  1  1  0
  4  3  1  0
  5  4  2  0
  6  5  1  0
  6  7  2  0
  7  2  1  0
  8  9  2  0
  8  1  1  0
 10  9  1  0
 11 12  1  0
 11 10  2  0
 12  8  1  0
 13 14  1  0
 13 15  1  0
 13 11  1  0
 16 13  1  0
  1 17  1  0
  1 18  1  0
  2 19  1  0
  3 20  1  0
  6 21  1  0
  9 22  1  0
 10 23  1  0
 14 24  1  0
 14 25  1  0
 14 26  1  0
 15 27  1  0
 15 28  1  0
 15 29  1  0
 16 30  1  0
 16 31  1  0
 16 32  1  0
M  ISO  8  17   8  18   8  19  14  20  14  21  14  22  14  23  14  24   8
M  ISO  8  25   8  26   8  27   8  28   8  29   8  30   8  31   8  32   8
M  END
>  <minimizedAffinity>  (1) 
-3.91442919

>  <minimizedRMSD>  (1) 
0.532149613

$$$$
