
     RDKit          3D

 27 29  0  0  0  0  0  0  0  0999 V2000
   36.5830   27.2560   43.0520 C   0  0  0  0  0  0  0  0  0  0  0  0
   39.3410   29.8510   42.6280 C   0  0  0  0  0  0  0  0  0  0  0  0
   38.6490   28.6930   43.0730 C   0  0  0  0  0  0  0  0  0  0  0  0
   37.3570   28.4530   42.6190 C   0  0  0  0  0  0  0  0  0  0  0  0
   36.8230   29.3620   41.7590 N   0  0  0  0  0  0  0  0  0  0  0  0
   37.4870   30.4580   41.3420 C   0  0  0  0  0  0  0  0  0  0  0  0
   38.7270   30.6960   41.7720 N   0  0  0  0  0  0  0  0  0  0  0  0
   37.0090   26.0910   42.2660 C   0  0  0  0  0  0  0  0  0  0  0  0
   37.2210   24.7820   42.5190 C   0  0  0  0  0  0  0  0  0  0  0  0
   37.6210   23.9040   41.5880 C   0  0  0  0  0  0  0  0  0  0  0  0
   37.8000   24.5240   40.2810 C   0  0  0  0  0  0  0  0  0  0  0  0
   37.3910   26.2120   40.5300 S   0  0  0  0  0  0  0  0  0  0  0  0
   38.2130   23.9790   38.9970 C   0  0  0  0  0  0  0  0  0  0  0  0
   39.2960   23.1950   38.8050 C   0  0  0  0  0  0  0  0  0  0  0  0
   39.5800   22.7440   37.5450 C   0  0  0  0  0  0  0  0  0  0  0  0
   38.6730   23.1620   36.5180 C   0  0  0  0  0  0  0  0  0  0  0  0
   37.4380   24.2130   37.5060 S   0  0  0  0  0  0  0  0  0  0  0  0
   36.7673   27.0660   44.1197 H   0  0  0  0  0  0  0  0  0  0  0  0
   35.5093   27.4346   42.8930 H   0  0  0  0  0  0  0  0  0  0  0  0
   40.3639   30.0568   42.9762 H   0  0  0  0  0  0  0  0  0  0  0  0
   39.1311   27.9924   43.7706 H   0  0  0  0  0  0  0  0  0  0  0  0
   37.0047   31.1588   40.6446 H   0  0  0  0  0  0  0  0  0  0  0  0
   37.0569   24.4163   43.5434 H   0  0  0  0  0  0  0  0  0  0  0  0
   37.7945   22.8363   41.7879 H   0  0  0  0  0  0  0  0  0  0  0  0
   39.9424   22.9222   39.6522 H   0  0  0  0  0  0  0  0  0  0  0  0
   40.4482   22.1023   37.3343 H   0  0  0  0  0  0  0  0  0  0  0  0
   38.6880   22.9344   35.4419 H   0  0  0  0  0  0  0  0  0  0  0  0
  2  3  2  0
  4  1  1  0
  4  3  1  0
  5  4  2  0
  6  5  1  0
  6  7  2  0
  7  2  1  0
  8  9  2  0
  8  1  1  0
 10  9  1  0
 11 12  1  0
 11 10  2  0
 12  8  1  0
 13 11  1  0
 14 13  2  0
 15 14  1  0
 16 17  1  0
 16 15  2  0
 17 13  1  0
  1 18  1  0
  1 19  1  0
  2 20  1  0
  3 21  1  0
  6 22  1  0
  9 23  1  0
 10 24  1  0
 14 25  1  0
 15 26  1  0
 16 27  1  0
M  ISO  8  18   8  19   8  20  14  21  14  22  14  23  14  24  14  25  14
M  ISO  2  26  14  27  14
M  END
>  <minimizedAffinity>  (1) 
-3.87946367

>  <minimizedRMSD>  (1) 
0.628428996

$$$$
