
     RDKit          3D

 33 35  0  0  0  0  0  0  0  0999 V2000
   37.1030   25.8120   42.1320 C   0  0  0  0  0  0  0  0  0  0  0  0
   37.5250   24.5460   42.3440 C   0  0  0  0  0  0  0  0  0  0  0  0
   37.8520   23.6890   41.3600 C   0  0  0  0  0  0  0  0  0  0  0  0
   37.6920   24.3050   40.0460 C   0  0  0  0  0  0  0  0  0  0  0  0
   37.1250   25.9430   40.3640 S   0  0  0  0  0  0  0  0  0  0  0  0
   37.9450   23.6930   38.7800 N   0  0  0  0  0  0  0  0  0  0  0  0
   37.3200   23.9600   37.4950 C   0  0  0  0  0  0  0  0  0  0  0  0
   38.3570   23.5910   36.4290 C   0  0  0  0  0  0  0  0  0  0  0  0
   38.5470   22.2130   36.3860 O   0  0  0  0  0  0  0  0  0  0  0  0
   38.5820   21.6470   37.6560 C   0  0  0  0  0  0  0  0  0  0  0  0
   38.9710   22.6420   38.7240 C   0  0  0  0  0  0  0  0  0  0  0  0
   36.6870   26.9360   42.9760 C   0  0  0  0  0  0  0  0  0  0  0  0
   39.5210   29.4400   42.6420 C   0  0  0  0  0  0  0  0  0  0  0  0
   38.8150   28.2650   42.9980 C   0  0  0  0  0  0  0  0  0  0  0  0
   37.4870   28.1450   42.6310 C   0  0  0  0  0  0  0  0  0  0  0  0
   36.9290   29.1850   41.9360 N   0  0  0  0  0  0  0  0  0  0  0  0
   37.6170   30.2920   41.6080 C   0  0  0  0  0  0  0  0  0  0  0  0
   38.9020   30.4090   41.9620 N   0  0  0  0  0  0  0  0  0  0  0  0
   37.6060   24.1952   43.3834 H   0  0  0  0  0  0  0  0  0  0  0  0
   38.1957   22.6570   41.5242 H   0  0  0  0  0  0  0  0  0  0  0  0
   36.4157   23.3451   37.3759 H   0  0  0  0  0  0  0  0  0  0  0  0
   37.0151   25.0134   37.4093 H   0  0  0  0  0  0  0  0  0  0  0  0
   38.0045   23.9381   35.4465 H   0  0  0  0  0  0  0  0  0  0  0  0
   39.3128   24.0728   36.6826 H   0  0  0  0  0  0  0  0  0  0  0  0
   37.5842   21.2487   37.8920 H   0  0  0  0  0  0  0  0  0  0  0  0
   39.3434   20.8532   37.6465 H   0  0  0  0  0  0  0  0  0  0  0  0
   39.0355   22.1345   39.6978 H   0  0  0  0  0  0  0  0  0  0  0  0
   39.9501   23.0841   38.4878 H   0  0  0  0  0  0  0  0  0  0  0  0
   35.6198   27.1436   42.8089 H   0  0  0  0  0  0  0  0  0  0  0  0
   36.8518   26.6790   44.0328 H   0  0  0  0  0  0  0  0  0  0  0  0
   40.5778   29.5546   42.9251 H   0  0  0  0  0  0  0  0  0  0  0  0
   39.3150   27.4606   43.5575 H   0  0  0  0  0  0  0  0  0  0  0  0
   37.1241   31.1011   41.0490 H   0  0  0  0  0  0  0  0  0  0  0  0
  1  2  2  0
  1 12  1  0
  3  2  1  0
  4  5  1  0
  4  3  2  0
  5  1  1  0
  6  4  1  0
  7  6  1  0
  8  7  1  0
  9  8  1  0
  9 10  1  0
 10 11  1  0
 11  6  1  0
 13 14  2  0
 15 12  1  0
 15 14  1  0
 16 15  2  0
 17 16  1  0
 17 18  2  0
 18 13  1  0
  2 19  1  0
  3 20  1  0
  7 21  1  0
  7 22  1  0
  8 23  1  0
  8 24  1  0
 10 25  1  0
 10 26  1  0
 11 27  1  0
 11 28  1  0
 12 29  1  0
 12 30  1  0
 13 31  1  0
 14 32  1  0
 17 33  1  0
M  ISO  8  19  14  20  14  21  13  22  13  23  13  24  13  25  13  26  13
M  ISO  7  27  13  28  13  29   8  30   8  31  14  32  14  33  14
M  END
>  <minimizedAffinity>  (1) 
-3.80673933

>  <minimizedRMSD>  (1) 
0.235410869

$$$$
