
     RDKit          3D

 23 24  0  0  0  0  0  0  0  0999 V2000
   36.7650   26.7980   42.9970 C   0  0  0  0  0  0  0  0  0  0  0  0
   39.5270   29.3810   42.6450 C   0  0  0  0  0  0  0  0  0  0  0  0
   38.8540   28.1860   42.9900 C   0  0  0  0  0  0  0  0  0  0  0  0
   37.5160   28.0460   42.6520 C   0  0  0  0  0  0  0  0  0  0  0  0
   36.9230   29.0830   41.9990 N   0  0  0  0  0  0  0  0  0  0  0  0
   37.5900   30.2170   41.6800 C   0  0  0  0  0  0  0  0  0  0  0  0
   38.8750   30.3550   42.0040 N   0  0  0  0  0  0  0  0  0  0  0  0
   37.1820   25.7160   42.1170 C   0  0  0  0  0  0  0  0  0  0  0  0
   37.6780   24.4770   42.3030 C   0  0  0  0  0  0  0  0  0  0  0  0
   37.9940   23.6340   41.2740 C   0  0  0  0  0  0  0  0  0  0  0  0
   37.7250   24.2570   39.9810 C   0  0  0  0  0  0  0  0  0  0  0  0
   37.0950   25.8560   40.3420 S   0  0  0  0  0  0  0  0  0  0  0  0
   37.9830   23.5530   38.7110 C   0  0  0  0  0  0  0  0  0  0  0  0
   36.9746   26.5218   44.0409 H   0  0  0  0  0  0  0  0  0  0  0  0
   35.6866   26.9750   42.8714 H   0  0  0  0  0  0  0  0  0  0  0  0
   40.5883   29.5086   42.9047 H   0  0  0  0  0  0  0  0  0  0  0  0
   39.3836   27.3796   43.5185 H   0  0  0  0  0  0  0  0  0  0  0  0
   37.0687   31.0283   41.1508 H   0  0  0  0  0  0  0  0  0  0  0  0
   37.8365   24.1265   43.3336 H   0  0  0  0  0  0  0  0  0  0  0  0
   38.3981   22.6191   41.4032 H   0  0  0  0  0  0  0  0  0  0  0  0
   38.3544   22.5394   38.9225 H   0  0  0  0  0  0  0  0  0  0  0  0
   37.0502   23.4882   38.1316 H   0  0  0  0  0  0  0  0  0  0  0  0
   38.7368   24.1063   38.1316 H   0  0  0  0  0  0  0  0  0  0  0  0
  2  3  2  0
  4  3  1  0
  4  1  1  0
  5  4  2  0
  6  5  1  0
  6  7  2  0
  7  2  1  0
  8  9  2  0
  8  1  1  0
 10  9  1  0
 11 12  1  0
 11 10  2  0
 12  8  1  0
 13 11  1  0
  1 14  1  0
  1 15  1  0
  2 16  1  0
  3 17  1  0
  6 18  1  0
  9 19  1  0
 10 20  1  0
 13 21  1  0
 13 22  1  0
 13 23  1  0
M  ISO  8  14   8  15   8  16  14  17  14  18  14  19  14  20  14  21   8
M  ISO  2  22   8  23   8
M  END
>  <minimizedAffinity>  (1) 
-3.60774112

>  <minimizedRMSD>  (1) 
0.0187136848

$$$$
