
     RDKit          3D

 42 44  0  0  0  0  0  0  0  0999 V2000
   40.5360   30.7250   40.5480 C   0  0  0  0  0  0  0  0  0  0  0  0
   40.0840   31.9180   41.0950 C   0  0  0  0  0  0  0  0  0  0  0  0
   40.6210   32.9870   40.3770 C   0  0  0  0  0  0  0  0  0  0  0  0
   41.3810   32.3560   39.4180 C   0  0  0  0  0  0  0  0  0  0  0  0
   41.3050   31.0730   39.5500 O   0  0  0  0  0  0  0  0  0  0  0  0
   39.9270   27.0770   40.6910 C   0  0  0  0  0  0  0  0  0  0  0  0
   39.6220   26.8850   42.0770 C   0  0  0  0  0  0  0  0  0  0  0  0
   39.6560   28.0480   42.8300 C   0  0  0  0  0  0  0  0  0  0  0  0
   39.9550   29.2510   42.2950 N   0  0  0  0  0  0  0  0  0  0  0  0
   40.2370   29.3670   40.9660 C   0  0  0  0  0  0  0  0  0  0  0  0
   40.2190   28.2790   40.1890 N   0  0  0  0  0  0  0  0  0  0  0  0
   39.3200   25.5910   42.5600 N   0  0  0  0  0  0  0  0  0  0  0  0
   38.1380   24.8850   42.2710 C   0  0  0  0  0  0  0  0  0  0  0  0
   37.0370   25.6100   42.2220 N   0  0  0  0  0  0  0  0  0  0  0  0
   38.2800   23.4700   42.0680 N   0  0  0  0  0  0  0  0  0  0  0  0
   36.1260   25.1800   42.0410 H   0  0  0  0  0  0  0  0  0  0  0  0
   40.3670   34.3560   40.6650 N   0  0  0  0  0  0  0  0  0  0  0  0
   41.2780   35.4420   40.9070 C   0  0  0  0  0  0  0  0  0  0  0  0
   41.0940   36.4590   39.7980 C   0  0  0  0  0  0  0  0  0  0  0  0
   39.7340   37.0740   39.9490 C   0  0  0  0  0  0  0  0  0  0  0  0
   38.6830   36.0020   39.9180 C   0  0  0  0  0  0  0  0  0  0  0  0
   38.9980   34.7950   40.7430 C   0  0  0  0  0  0  0  0  0  0  0  0
   42.1600   33.1030   38.3990 C   0  0  0  0  0  0  0  0  0  0  0  0
   42.7820   32.2040   37.5220 F   0  0  0  0  0  0  0  0  0  0  0  0
   41.3420   33.9460   37.6950 F   0  0  0  0  0  0  0  0  0  0  0  0
   43.2030   33.8010   38.9880 F   0  0  0  0  0  0  0  0  0  0  0  0
   39.4086   32.0067   41.9587 H   0  0  0  0  0  0  0  0  0  0  0  0
   39.9205   26.2064   40.0187 H   0  0  0  0  0  0  0  0  0  0  0  0
   39.4307   27.9887   43.9050 H   0  0  0  0  0  0  0  0  0  0  0  0
   40.0148   25.1326   43.1666 H   0  0  0  0  0  0  0  0  0  0  0  0
   37.4529   22.8950   41.8529 H   0  0  0  0  0  0  0  0  0  0  0  0
   39.2089   23.0304   42.1375 H   0  0  0  0  0  0  0  0  0  0  0  0
   41.0573   35.9055   41.8798 H   0  0  0  0  0  0  0  0  0  0  0  0
   42.3152   35.0761   40.9238 H   0  0  0  0  0  0  0  0  0  0  0  0
   41.1716   35.9619   38.8198 H   0  0  0  0  0  0  0  0  0  0  0  0
   41.8715   37.2347   39.8600 H   0  0  0  0  0  0  0  0  0  0  0  0
   39.6803   37.6100   40.9081 H   0  0  0  0  0  0  0  0  0  0  0  0
   39.5598   37.7765   39.1207 H   0  0  0  0  0  0  0  0  0  0  0  0
   37.7416   36.4341   40.2882 H   0  0  0  0  0  0  0  0  0  0  0  0
   38.6202   35.6581   38.8750 H   0  0  0  0  0  0  0  0  0  0  0  0
   38.3535   33.9704   40.4045 H   0  0  0  0  0  0  0  0  0  0  0  0
   38.8210   35.0789   41.7909 H   0  0  0  0  0  0  0  0  0  0  0  0
  1 10  1  0
  1  2  2  0
  3 17  1  0
  3  2  1  0
  4  5  1  0
  4  3  2  0
  5  1  1  0
  6  7  2  0
  7 12  1  0
  7  8  1  0
  9  8  2  0
 10  9  1  0
 11  6  1  0
 11 10  2  0
 13 12  1  0
 14 13  2  0
 15 13  1  0
 16 14  1  0
 17 22  1  0
 17 18  1  0
 19 20  1  0
 19 18  1  0
 21 20  1  0
 21 22  1  0
 23 26  1  0
 23  4  1  0
 24 23  1  0
 25 23  1  0
  2 27  1  0
  6 28  1  0
  8 29  1  0
 12 30  1  0
 15 31  1  0
 15 32  1  0
 18 33  1  0
 18 34  1  0
 19 35  1  0
 19 36  1  0
 20 37  1  0
 20 38  1  0
 21 39  1  0
 21 40  1  0
 22 41  1  0
 22 42  1  0
M  ISO  8  27  14  28  14  29  14  33  13  34  13  35  13  36  13  37  13
M  ISO  5  38  13  39  13  40  13  41  13  42  13
M  END
>  <minimizedAffinity>  (1) 
-5.18917608

>  <minimizedRMSD>  (1) 
3.64184666

$$$$
