
     RDKit          3D

 41 44  0  0  0  0  0  0  0  0999 V2000
   37.1620   27.5620   43.3240 C   0  0  0  0  0  0  0  0  0  0  0  0
   40.5090   29.1580   42.5200 C   0  0  0  0  0  0  0  0  0  0  0  0
   39.5420   28.2310   43.0070 C   0  0  0  0  0  0  0  0  0  0  0  0
   38.2100   28.4940   42.8360 C   0  0  0  0  0  0  0  0  0  0  0  0
   37.8700   29.6530   42.1940 N   0  0  0  0  0  0  0  0  0  0  0  0
   38.7930   30.5270   41.7340 C   0  0  0  0  0  0  0  0  0  0  0  0
   40.0720   30.2820   41.8950 N   0  0  0  0  0  0  0  0  0  0  0  0
   38.2600   31.6800   41.0920 N   0  0  0  0  0  0  0  0  0  0  0  0
   38.9680   32.9350   41.1270 C   0  0  0  0  0  0  0  0  0  0  0  0
   38.9610   33.5630   39.7520 C   0  0  0  0  0  0  0  0  0  0  0  0
   37.6330   33.5390   39.1560 N   0  0  0  0  0  0  0  0  0  0  0  0
   37.2010   32.1600   39.0030 C   0  0  0  0  0  0  0  0  0  0  0  0
   36.9890   31.5960   40.3940 C   0  0  0  0  0  0  0  0  0  0  0  0
   37.0190   26.4290   42.3950 C   0  0  0  0  0  0  0  0  0  0  0  0
   36.9410   25.0960   42.5200 C   0  0  0  0  0  0  0  0  0  0  0  0
   36.8060   24.2720   41.4600 C   0  0  0  0  0  0  0  0  0  0  0  0
   36.7580   24.9920   40.2160 C   0  0  0  0  0  0  0  0  0  0  0  0
   36.9010   26.6890   40.6390 S   0  0  0  0  0  0  0  0  0  0  0  0
   36.6200   24.4370   38.8790 C   0  0  0  0  0  0  0  0  0  0  0  0
   37.1860   23.2670   38.4630 C   0  0  0  0  0  0  0  0  0  0  0  0
   36.7730   23.1660   37.1330 C   0  0  0  0  0  0  0  0  0  0  0  0
   36.0010   24.2370   36.8010 N   0  0  0  0  0  0  0  0  0  0  0  0
   35.9250   24.9970   37.8900 N   0  0  0  0  0  0  0  0  0  0  0  0
   37.4453   27.1842   44.3175 H   0  0  0  0  0  0  0  0  0  0  0  0
   36.2040   28.0989   43.3865 H   0  0  0  0  0  0  0  0  0  0  0  0
   41.5849   28.9675   42.6474 H   0  0  0  0  0  0  0  0  0  0  0  0
   39.8641   27.3109   43.5166 H   0  0  0  0  0  0  0  0  0  0  0  0
   38.4763   33.6123   41.8407 H   0  0  0  0  0  0  0  0  0  0  0  0
   40.0072   32.7581   41.4412 H   0  0  0  0  0  0  0  0  0  0  0  0
   39.2955   34.6076   39.8354 H   0  0  0  0  0  0  0  0  0  0  0  0
   39.6371   32.9830   39.1066 H   0  0  0  0  0  0  0  0  0  0  0  0
   36.9726   34.0409   39.7666 H   0  0  0  0  0  0  0  0  0  0  0  0
   36.2604   32.1213   38.4339 H   0  0  0  0  0  0  0  0  0  0  0  0
   37.9550   31.5745   38.4566 H   0  0  0  0  0  0  0  0  0  0  0  0
   36.2273   32.1842   40.9267 H   0  0  0  0  0  0  0  0  0  0  0  0
   36.6406   30.5539   40.3430 H   0  0  0  0  0  0  0  0  0  0  0  0
   36.9890   24.6566   43.5273 H   0  0  0  0  0  0  0  0  0  0  0  0
   36.7403   23.1768   41.5383 H   0  0  0  0  0  0  0  0  0  0  0  0
   37.8157   22.5713   39.0370 H   0  0  0  0  0  0  0  0  0  0  0  0
   37.0334   22.3416   36.4529 H   0  0  0  0  0  0  0  0  0  0  0  0
   35.5626   24.4221   35.8875 H   0  0  0  0  0  0  0  0  0  0  0  0
  2  3  2  0
  4  3  1  0
  4  1  1  0
  5  4  2  0
  6  7  2  0
  6  5  1  0
  7  2  1  0
  8  9  1  0
  8  6  1  0
 10  9  1  0
 11 10  1  0
 12 11  1  0
 12 13  1  0
 13  8  1  0
 14 15  2  0
 14  1  1  0
 16 15  1  0
 17 18  1  0
 17 16  2  0
 18 14  1  0
 19 17  1  0
 20 19  1  0
 21 20  2  0
 22 21  1  0
 22 23  1  0
 23 19  2  0
  1 24  1  0
  1 25  1  0
  2 26  1  0
  3 27  1  0
  9 28  1  0
  9 29  1  0
 10 30  1  0
 10 31  1  0
 11 32  1  0
 12 33  1  0
 12 34  1  0
 13 35  1  0
 13 36  1  0
 15 37  1  0
 16 38  1  0
 20 39  1  0
 21 40  1  0
 22 41  1  0
M  ISO  8  24   8  25   8  26  14  27  14  28  13  29  13  30  13  31  13
M  ISO  8  32   5  33  13  34  13  35  13  36  13  37  14  38  14  39  14
M  ISO  2  40  14  41   9
M  END
>  <minimizedAffinity>  (1) 
-5.52204418

>  <minimizedRMSD>  (1) 
1.49922645

$$$$
