
     RDKit          3D

 42 45  0  0  0  0  0  0  0  0999 V2000
   37.3910   27.3850   43.4090 C   0  0  0  0  0  0  0  0  0  0  0  0
   40.5800   29.1210   42.2850 C   0  0  0  0  0  0  0  0  0  0  0  0
   39.7040   28.1580   42.8480 C   0  0  0  0  0  0  0  0  0  0  0  0
   38.3400   28.3680   42.8320 C   0  0  0  0  0  0  0  0  0  0  0  0
   37.8830   29.5220   42.2650 N   0  0  0  0  0  0  0  0  0  0  0  0
   38.7420   30.4370   41.7290 C   0  0  0  0  0  0  0  0  0  0  0  0
   40.0460   30.2330   41.7450 N   0  0  0  0  0  0  0  0  0  0  0  0
   38.1260   31.5840   41.1760 N   0  0  0  0  0  0  0  0  0  0  0  0
   38.8090   32.8560   41.1690 C   0  0  0  0  0  0  0  0  0  0  0  0
   38.7330   33.5970   39.8750 C   0  0  0  0  0  0  0  0  0  0  0  0
   37.4380   33.4420   39.1500 C   0  0  0  0  0  0  0  0  0  0  0  0
   37.0220   31.9860   39.1310 C   0  0  0  0  0  0  0  0  0  0  0  0
   36.7990   31.5790   40.5890 C   0  0  0  0  0  0  0  0  0  0  0  0
   37.1380   26.2990   42.4490 C   0  0  0  0  0  0  0  0  0  0  0  0
   36.9780   24.9680   42.5140 C   0  0  0  0  0  0  0  0  0  0  0  0
   36.7520   24.2130   41.4220 C   0  0  0  0  0  0  0  0  0  0  0  0
   36.7060   24.9940   40.2100 C   0  0  0  0  0  0  0  0  0  0  0  0
   36.9730   26.6440   40.7050 S   0  0  0  0  0  0  0  0  0  0  0  0
   36.4810   24.5000   38.8560 C   0  0  0  0  0  0  0  0  0  0  0  0
   36.2800   23.2000   38.5380 C   0  0  0  0  0  0  0  0  0  0  0  0
   36.1190   23.2410   37.1480 C   0  0  0  0  0  0  0  0  0  0  0  0
   36.2250   24.5160   36.6980 N   0  0  0  0  0  0  0  0  0  0  0  0
   36.4470   25.2670   37.7700 N   0  0  0  0  0  0  0  0  0  0  0  0
   37.8199   26.9633   44.3300 H   0  0  0  0  0  0  0  0  0  0  0  0
   36.4417   27.8926   43.6350 H   0  0  0  0  0  0  0  0  0  0  0  0
   41.6686   28.9634   42.2894 H   0  0  0  0  0  0  0  0  0  0  0  0
   40.1127   27.2415   43.2985 H   0  0  0  0  0  0  0  0  0  0  0  0
   38.3650   33.4878   41.9524 H   0  0  0  0  0  0  0  0  0  0  0  0
   39.8735   32.6384   41.3407 H   0  0  0  0  0  0  0  0  0  0  0  0
   38.8854   34.6666   40.0818 H   0  0  0  0  0  0  0  0  0  0  0  0
   39.5100   33.1707   39.2235 H   0  0  0  0  0  0  0  0  0  0  0  0
   36.6634   34.0349   39.6584 H   0  0  0  0  0  0  0  0  0  0  0  0
   37.5608   33.7944   38.1152 H   0  0  0  0  0  0  0  0  0  0  0  0
   36.0923   31.8639   38.5559 H   0  0  0  0  0  0  0  0  0  0  0  0
   37.7907   31.3588   38.6560 H   0  0  0  0  0  0  0  0  0  0  0  0
   36.1458   32.3025   41.0988 H   0  0  0  0  0  0  0  0  0  0  0  0
   36.3063   30.5996   40.6786 H   0  0  0  0  0  0  0  0  0  0  0  0
   37.0335   24.4754   43.4960 H   0  0  0  0  0  0  0  0  0  0  0  0
   36.6174   23.1217   41.4510 H   0  0  0  0  0  0  0  0  0  0  0  0
   36.2504   22.3269   39.2065 H   0  0  0  0  0  0  0  0  0  0  0  0
   35.9329   22.3636   36.5111 H   0  0  0  0  0  0  0  0  0  0  0  0
   36.1487   24.8367   35.7222 H   0  0  0  0  0  0  0  0  0  0  0  0
  2  3  2  0
  4  3  1  0
  4  1  1  0
  5  4  2  0
  6  7  2  0
  6  5  1  0
  7  2  1  0
  8  6  1  0
  9  8  1  0
 10  9  1  0
 11 10  1  0
 12 11  1  0
 12 13  1  0
 13  8  1  0
 14 15  2  0
 14  1  1  0
 16 15  1  0
 17 18  1  0
 17 16  2  0
 18 14  1  0
 19 17  1  0
 20 19  1  0
 21 20  2  0
 22 21  1  0
 22 23  1  0
 23 19  2  0
  1 24  1  0
  1 25  1  0
  2 26  1  0
  3 27  1  0
  9 28  1  0
  9 29  1  0
 10 30  1  0
 10 31  1  0
 11 32  1  0
 11 33  1  0
 12 34  1  0
 12 35  1  0
 13 36  1  0
 13 37  1  0
 15 38  1  0
 16 39  1  0
 20 40  1  0
 21 41  1  0
 22 42  1  0
M  ISO  8  24   8  25   8  26  14  27  14  28  13  29  13  30  13  31  13
M  ISO  8  32  13  33  13  34  13  35  13  36  13  37  13  38  14  39  14
M  ISO  3  40  14  41  14  42   9
M  END
>  <minimizedAffinity>  (1) 
-5.41939545

>  <minimizedRMSD>  (1) 
1.55999529

$$$$
