
     RDKit          3D

 40 43  0  0  0  0  0  0  0  0999 V2000
   36.8460   27.3460   42.9980 C   0  0  0  0  0  0  0  0  0  0  0  0
   40.2860   28.9310   42.7790 C   0  0  0  0  0  0  0  0  0  0  0  0
   39.2550   28.0010   43.0660 C   0  0  0  0  0  0  0  0  0  0  0  0
   37.9610   28.2830   42.7210 C   0  0  0  0  0  0  0  0  0  0  0  0
   37.7410   29.4700   42.1050 N   0  0  0  0  0  0  0  0  0  0  0  0
   38.7070   30.3740   41.8200 C   0  0  0  0  0  0  0  0  0  0  0  0
   39.9600   30.0830   42.1630 N   0  0  0  0  0  0  0  0  0  0  0  0
   38.3790   31.6040   41.1680 N   0  0  0  0  0  0  0  0  0  0  0  0
   39.3320   32.6970   41.1530 C   0  0  0  0  0  0  0  0  0  0  0  0
   39.2430   33.3630   39.8040 C   0  0  0  0  0  0  0  0  0  0  0  0
   37.9270   33.8080   39.6420 O   0  0  0  0  0  0  0  0  0  0  0  0
   37.1290   32.6990   39.3720 C   0  0  0  0  0  0  0  0  0  0  0  0
   37.0800   31.7350   40.5240 C   0  0  0  0  0  0  0  0  0  0  0  0
   36.9570   26.1690   42.1280 C   0  0  0  0  0  0  0  0  0  0  0  0
   37.0280   24.8440   42.3270 C   0  0  0  0  0  0  0  0  0  0  0  0
   37.1260   23.9420   41.3050 C   0  0  0  0  0  0  0  0  0  0  0  0
   37.1400   24.6080   40.0260 C   0  0  0  0  0  0  0  0  0  0  0  0
   37.0210   26.3280   40.3700 S   0  0  0  0  0  0  0  0  0  0  0  0
   37.2330   23.9780   38.7190 C   0  0  0  0  0  0  0  0  0  0  0  0
   38.2610   23.1740   38.3230 C   0  0  0  0  0  0  0  0  0  0  0  0
   37.9010   22.8210   37.0170 C   0  0  0  0  0  0  0  0  0  0  0  0
   36.7030   23.4110   36.6870 N   0  0  0  0  0  0  0  0  0  0  0  0
   36.3120   24.1190   37.7520 N   0  0  0  0  0  0  0  0  0  0  0  0
   36.8894   27.0277   44.0501 H   0  0  0  0  0  0  0  0  0  0  0  0
   35.8893   27.8526   42.8029 H   0  0  0  0  0  0  0  0  0  0  0  0
   41.3293   28.7161   43.0536 H   0  0  0  0  0  0  0  0  0  0  0  0
   39.4955   27.0515   43.5666 H   0  0  0  0  0  0  0  0  0  0  0  0
   39.0858   33.4198   41.9448 H   0  0  0  0  0  0  0  0  0  0  0  0
   40.3508   32.3227   41.3318 H   0  0  0  0  0  0  0  0  0  0  0  0
   39.9362   34.2159   39.7596 H   0  0  0  0  0  0  0  0  0  0  0  0
   39.5153   32.6581   39.0047 H   0  0  0  0  0  0  0  0  0  0  0  0
   36.1069   33.0434   39.1557 H   0  0  0  0  0  0  0  0  0  0  0  0
   37.5670   32.1718   38.5116 H   0  0  0  0  0  0  0  0  0  0  0  0
   36.3502   32.0981   41.2627 H   0  0  0  0  0  0  0  0  0  0  0  0
   36.7874   30.7485   40.1352 H   0  0  0  0  0  0  0  0  0  0  0  0
   37.0063   24.4665   43.3600 H   0  0  0  0  0  0  0  0  0  0  0  0
   37.1862   22.8520   41.4401 H   0  0  0  0  0  0  0  0  0  0  0  0
   39.1546   22.8758   38.8910 H   0  0  0  0  0  0  0  0  0  0  0  0
   38.4885   22.1691   36.3537 H   0  0  0  0  0  0  0  0  0  0  0  0
   36.2027   23.3241   35.7909 H   0  0  0  0  0  0  0  0  0  0  0  0
  2  3  2  0
  4  1  1  0
  4  3  1  0
  5  4  2  0
  6  5  1  0
  6  7  2  0
  7  2  1  0
  8  6  1  0
  9  8  1  0
 10  9  1  0
 11 10  1  0
 12 11  1  0
 12 13  1  0
 13  8  1  0
 14 15  2  0
 14  1  1  0
 16 15  1  0
 17 18  1  0
 17 16  2  0
 18 14  1  0
 19 17  1  0
 20 19  1  0
 21 20  2  0
 22 21  1  0
 22 23  1  0
 23 19  2  0
  1 24  1  0
  1 25  1  0
  2 26  1  0
  3 27  1  0
  9 28  1  0
  9 29  1  0
 10 30  1  0
 10 31  1  0
 12 32  1  0
 12 33  1  0
 13 34  1  0
 13 35  1  0
 15 36  1  0
 16 37  1  0
 20 38  1  0
 21 39  1  0
 22 40  1  0
M  ISO  8  24   8  25   8  26  14  27  14  28  13  29  13  30  13  31  13
M  ISO  8  32  13  33  13  34  13  35  13  36  14  37  14  38  14  39  14
M  ISO  1  40   9
M  END
>  <minimizedAffinity>  (1) 
-5.3007822

>  <minimizedRMSD>  (1) 
1.32891154

$$$$
