
     RDKit          3D

 37 40  0  0  0  0  0  0  0  0999 V2000
   36.8480   27.3780   42.9760 C   0  0  0  0  0  0  0  0  0  0  0  0
   40.3260   28.8980   42.8030 C   0  0  0  0  0  0  0  0  0  0  0  0
   39.2730   27.9880   43.0920 C   0  0  0  0  0  0  0  0  0  0  0  0
   37.9820   28.2980   42.6960 C   0  0  0  0  0  0  0  0  0  0  0  0
   37.7640   29.4820   42.0340 N   0  0  0  0  0  0  0  0  0  0  0  0
   38.7990   30.3330   41.7730 C   0  0  0  0  0  0  0  0  0  0  0  0
   40.0300   30.0490   42.1440 N   0  0  0  0  0  0  0  0  0  0  0  0
   38.4460   31.5590   41.0650 C   0  0  0  0  0  0  0  0  0  0  0  0
   37.2890   31.6570   40.3110 C   0  0  0  0  0  0  0  0  0  0  0  0
   37.0220   32.8610   39.6650 C   0  0  0  0  0  0  0  0  0  0  0  0
   37.8740   33.9440   39.7580 C   0  0  0  0  0  0  0  0  0  0  0  0
   39.0310   33.8660   40.5040 C   0  0  0  0  0  0  0  0  0  0  0  0
   39.2700   32.6640   41.1310 C   0  0  0  0  0  0  0  0  0  0  0  0
   36.9490   26.1820   42.1220 C   0  0  0  0  0  0  0  0  0  0  0  0
   36.9980   24.8550   42.3250 C   0  0  0  0  0  0  0  0  0  0  0  0
   37.0930   23.9740   41.3130 C   0  0  0  0  0  0  0  0  0  0  0  0
   37.1350   24.6150   40.0220 C   0  0  0  0  0  0  0  0  0  0  0  0
   37.0400   26.3250   40.3460 S   0  0  0  0  0  0  0  0  0  0  0  0
   37.2360   23.9550   38.7220 C   0  0  0  0  0  0  0  0  0  0  0  0
   38.2610   23.1790   38.3290 C   0  0  0  0  0  0  0  0  0  0  0  0
   37.9010   22.7920   37.0410 C   0  0  0  0  0  0  0  0  0  0  0  0
   36.7010   23.3380   36.7130 N   0  0  0  0  0  0  0  0  0  0  0  0
   36.2980   24.0560   37.7620 N   0  0  0  0  0  0  0  0  0  0  0  0
   36.8770   27.0748   44.0330 H   0  0  0  0  0  0  0  0  0  0  0  0
   35.9011   27.8957   42.7631 H   0  0  0  0  0  0  0  0  0  0  0  0
   41.3595   28.6751   43.1066 H   0  0  0  0  0  0  0  0  0  0  0  0
   39.4808   27.0480   43.6242 H   0  0  0  0  0  0  0  0  0  0  0  0
   36.5983   30.8053   40.2245 H   0  0  0  0  0  0  0  0  0  0  0  0
   36.1059   32.9524   39.0630 H   0  0  0  0  0  0  0  0  0  0  0  0
   37.6272   34.8779   39.2318 H   0  0  0  0  0  0  0  0  0  0  0  0
   39.7236   34.7159   40.5931 H   0  0  0  0  0  0  0  0  0  0  0  0
   40.1882   32.5777   41.7306 H   0  0  0  0  0  0  0  0  0  0  0  0
   36.9590   24.4749   43.3565 H   0  0  0  0  0  0  0  0  0  0  0  0
   37.1341   22.8839   41.4547 H   0  0  0  0  0  0  0  0  0  0  0  0
   39.1683   22.9131   38.8913 H   0  0  0  0  0  0  0  0  0  0  0  0
   38.4991   22.1411   36.3864 H   0  0  0  0  0  0  0  0  0  0  0  0
   36.1975   23.2197   35.8223 H   0  0  0  0  0  0  0  0  0  0  0  0
  2  3  2  0
  4  1  1  0
  4  3  1  0
  5  4  2  0
  6  5  1  0
  6  7  2  0
  7  2  1  0
  8 13  1  0
  8  6  1  0
  9  8  2  0
 10 11  2  0
 10  9  1  0
 11 12  1  0
 12 13  2  0
 14 15  2  0
 14  1  1  0
 16 15  1  0
 17 18  1  0
 17 16  2  0
 18 14  1  0
 19 17  1  0
 20 19  1  0
 21 20  2  0
 22 21  1  0
 22 23  1  0
 23 19  2  0
  1 24  1  0
  1 25  1  0
  2 26  1  0
  3 27  1  0
  9 28  1  0
 10 29  1  0
 11 30  1  0
 12 31  1  0
 13 32  1  0
 15 33  1  0
 16 34  1  0
 20 35  1  0
 21 36  1  0
 22 37  1  0
M  ISO  8  24   8  25   8  26  14  27  14  28  14  29  14  30  14  31  14
M  ISO  6  32  14  33  14  34  14  35  14  36  14  37   9
M  END
>  <minimizedAffinity>  (1) 
-5.28437948

>  <minimizedRMSD>  (1) 
1.41245782

$$$$
