
     RDKit          3D

 35 38  0  0  0  0  0  0  0  0999 V2000
   37.0740   27.8240   43.0360 C   0  0  0  0  0  0  0  0  0  0  0  0
   35.4430   29.6780   40.1540 C   0  0  0  0  0  0  0  0  0  0  0  0
   35.6830   28.6990   41.1520 C   0  0  0  0  0  0  0  0  0  0  0  0
   36.7870   28.8250   41.9820 C   0  0  0  0  0  0  0  0  0  0  0  0
   37.6000   29.9010   41.7980 N   0  0  0  0  0  0  0  0  0  0  0  0
   37.3530   30.8310   40.8350 C   0  0  0  0  0  0  0  0  0  0  0  0
   36.2970   30.7080   40.0420 N   0  0  0  0  0  0  0  0  0  0  0  0
   38.2700   31.9740   40.6840 C   0  0  0  0  0  0  0  0  0  0  0  0
   39.6200   31.8250   40.9150 C   0  0  0  0  0  0  0  0  0  0  0  0
   40.4240   32.9450   40.7530 C   0  0  0  0  0  0  0  0  0  0  0  0
   39.8810   34.1410   40.3810 N   0  0  0  0  0  0  0  0  0  0  0  0
   38.5510   34.2450   40.1650 C   0  0  0  0  0  0  0  0  0  0  0  0
   37.7720   33.1740   40.3170 N   0  0  0  0  0  0  0  0  0  0  0  0
   37.8690   26.7150   42.4830 C   0  0  0  0  0  0  0  0  0  0  0  0
   39.1150   26.2500   42.6540 C   0  0  0  0  0  0  0  0  0  0  0  0
   39.5850   25.1780   41.9890 C   0  0  0  0  0  0  0  0  0  0  0  0
   38.6040   24.6110   41.0970 C   0  0  0  0  0  0  0  0  0  0  0  0
   37.1780   25.6040   41.2760 S   0  0  0  0  0  0  0  0  0  0  0  0
   38.7760   23.4560   40.2330 C   0  0  0  0  0  0  0  0  0  0  0  0
   39.5080   23.4420   39.0950 C   0  0  0  0  0  0  0  0  0  0  0  0
   39.3660   22.1280   38.6320 C   0  0  0  0  0  0  0  0  0  0  0  0
   38.5710   21.4170   39.4920 N   0  0  0  0  0  0  0  0  0  0  0  0
   38.2200   22.2570   40.4710 N   0  0  0  0  0  0  0  0  0  0  0  0
   37.6376   28.3045   43.8493 H   0  0  0  0  0  0  0  0  0  0  0  0
   36.1234   27.4263   43.4209 H   0  0  0  0  0  0  0  0  0  0  0  0
   34.5740   29.5950   39.4847 H   0  0  0  0  0  0  0  0  0  0  0  0
   34.9983   27.8458   41.2669 H   0  0  0  0  0  0  0  0  0  0  0  0
   40.0444   30.8559   41.2162 H   0  0  0  0  0  0  0  0  0  0  0  0
   41.5076   32.8682   40.9258 H   0  0  0  0  0  0  0  0  0  0  0  0
   38.1134   35.2087   39.8652 H   0  0  0  0  0  0  0  0  0  0  0  0
   39.7785   26.7642   43.3649 H   0  0  0  0  0  0  0  0  0  0  0  0
   40.6028   24.7794   42.1122 H   0  0  0  0  0  0  0  0  0  0  0  0
   40.0785   24.2661   38.6418 H   0  0  0  0  0  0  0  0  0  0  0  0
   39.8239   21.7270   37.7157 H   0  0  0  0  0  0  0  0  0  0  0  0
   38.2972   20.4282   39.4018 H   0  0  0  0  0  0  0  0  0  0  0  0
  2  3  2  0
  3  4  1  0
  4  1  1  0
  5  4  2  0
  6  5  1  0
  7  2  1  0
  7  6  2  0
  8  6  1  0
  8  9  2  0
 10  9  1  0
 11 10  2  0
 12 13  2  0
 12 11  1  0
 13  8  1  0
 14 15  2  0
 14  1  1  0
 16 15  1  0
 17 18  1  0
 17 16  2  0
 18 14  1  0
 19 23  2  0
 19 17  1  0
 20 19  1  0
 21 20  2  0
 21 22  1  0
 22 23  1  0
  1 24  1  0
  1 25  1  0
  2 26  1  0
  3 27  1  0
  9 28  1  0
 10 29  1  0
 12 30  1  0
 15 31  1  0
 16 32  1  0
 20 33  1  0
 21 34  1  0
 22 35  1  0
M  ISO  8  24   8  25   8  26  14  27  14  28  14  29  14  30  14  31  14
M  ISO  4  32  14  33  14  34  14  35   9
M  END
>  <minimizedAffinity>  (1) 
-5.24515724

>  <minimizedRMSD>  (1) 
2.61864805

$$$$
