
     RDKit          3D

 39 42  0  0  0  0  0  0  0  0999 V2000
   36.9070   27.8730   43.0370 C   0  0  0  0  0  0  0  0  0  0  0  0
   40.3780   29.3300   42.5640 C   0  0  0  0  0  0  0  0  0  0  0  0
   39.3390   28.4500   42.9760 C   0  0  0  0  0  0  0  0  0  0  0  0
   38.0420   28.7470   42.6390 C   0  0  0  0  0  0  0  0  0  0  0  0
   37.8070   29.8900   41.9120 N   0  0  0  0  0  0  0  0  0  0  0  0
   38.8020   30.7180   41.5250 C   0  0  0  0  0  0  0  0  0  0  0  0
   40.0540   30.4380   41.8470 N   0  0  0  0  0  0  0  0  0  0  0  0
   38.4430   31.8740   40.7760 N   0  0  0  0  0  0  0  0  0  0  0  0
   38.9980   33.2060   41.0610 C   0  0  0  0  0  0  0  0  0  0  0  0
   38.5110   34.0930   39.9570 C   0  0  0  0  0  0  0  0  0  0  0  0
   37.1960   33.4410   39.5800 C   0  0  0  0  0  0  0  0  0  0  0  0
   37.5270   31.9800   39.6570 C   0  0  0  0  0  0  0  0  0  0  0  0
   36.9420   26.6180   42.2670 C   0  0  0  0  0  0  0  0  0  0  0  0
   36.9600   25.3090   42.5660 C   0  0  0  0  0  0  0  0  0  0  0  0
   36.9930   24.3510   41.6200 C   0  0  0  0  0  0  0  0  0  0  0  0
   37.0070   24.8980   40.2840 C   0  0  0  0  0  0  0  0  0  0  0  0
   36.9730   26.6270   40.4820 S   0  0  0  0  0  0  0  0  0  0  0  0
   37.0410   24.1500   39.0340 C   0  0  0  0  0  0  0  0  0  0  0  0
   37.8870   23.1330   38.7570 C   0  0  0  0  0  0  0  0  0  0  0  0
   37.5260   22.7590   37.4580 C   0  0  0  0  0  0  0  0  0  0  0  0
   36.5040   23.5460   37.0160 N   0  0  0  0  0  0  0  0  0  0  0  0
   36.2180   24.3930   37.9920 N   0  0  0  0  0  0  0  0  0  0  0  0
   36.9829   27.6439   44.1102 H   0  0  0  0  0  0  0  0  0  0  0  0
   35.9608   28.3953   42.8324 H   0  0  0  0  0  0  0  0  0  0  0  0
   41.4261   29.1172   42.8215 H   0  0  0  0  0  0  0  0  0  0  0  0
   39.5716   27.5448   43.5561 H   0  0  0  0  0  0  0  0  0  0  0  0
   38.6375   33.5715   42.0339 H   0  0  0  0  0  0  0  0  0  0  0  0
   40.0967   33.1858   41.1106 H   0  0  0  0  0  0  0  0  0  0  0  0
   38.3585   35.1233   40.3109 H   0  0  0  0  0  0  0  0  0  0  0  0
   39.2166   34.1820   39.1179 H   0  0  0  0  0  0  0  0  0  0  0  0
   36.8875   33.7261   38.5634 H   0  0  0  0  0  0  0  0  0  0  0  0
   36.3574   33.7363   40.2277 H   0  0  0  0  0  0  0  0  0  0  0  0
   36.6200   31.3849   39.8392 H   0  0  0  0  0  0  0  0  0  0  0  0
   37.9635   31.6001   38.7215 H   0  0  0  0  0  0  0  0  0  0  0  0
   36.9473   25.0077   43.6239 H   0  0  0  0  0  0  0  0  0  0  0  0
   37.0076   23.2734   41.8404 H   0  0  0  0  0  0  0  0  0  0  0  0
   38.6705   22.7030   39.3983 H   0  0  0  0  0  0  0  0  0  0  0  0
   37.9966   21.9504   36.8794 H   0  0  0  0  0  0  0  0  0  0  0  0
   36.0422   23.4917   36.0969 H   0  0  0  0  0  0  0  0  0  0  0  0
  2  3  2  0
  4  3  1  0
  4  1  1  0
  5  4  2  0
  6  7  2  0
  6  5  1  0
  7  2  1  0
  8  9  1  0
  8  6  1  0
 10  9  1  0
 11 12  1  0
 11 10  1  0
 12  8  1  0
 13 14  2  0
 13  1  1  0
 15 14  1  0
 16 17  1  0
 16 15  2  0
 17 13  1  0
 18 16  1  0
 19 18  1  0
 20 19  2  0
 21 20  1  0
 21 22  1  0
 22 18  2  0
  1 23  1  0
  1 24  1  0
  2 25  1  0
  3 26  1  0
  9 27  1  0
  9 28  1  0
 10 29  1  0
 10 30  1  0
 11 31  1  0
 11 32  1  0
 12 33  1  0
 12 34  1  0
 14 35  1  0
 15 36  1  0
 19 37  1  0
 20 38  1  0
 21 39  1  0
M  ISO  8  23   8  24   8  25  14  26  14  27  13  28  13  29  13  30  13
M  ISO  8  31  13  32  13  33  13  34  13  35  14  36  14  37  14  38  14
M  ISO  1  39   9
M  END
>  <minimizedAffinity>  (1) 
-5.16329432

>  <minimizedRMSD>  (1) 
1.37847292

$$$$
