
     RDKit          3D

 34 37  0  0  0  0  0  0  0  0999 V2000
   37.6380   29.1320   43.0610 C   0  0  0  0  0  0  0  0  0  0  0  0
   41.2430   29.7140   42.0280 C   0  0  0  0  0  0  0  0  0  0  0  0
   40.0810   29.0820   42.5570 C   0  0  0  0  0  0  0  0  0  0  0  0
   38.8740   29.7510   42.5230 C   0  0  0  0  0  0  0  0  0  0  0  0
   38.8450   31.0080   41.9740 N   0  0  0  0  0  0  0  0  0  0  0  0
   39.9700   31.5860   41.4770 C   0  0  0  0  0  0  0  0  0  0  0  0
   41.1250   30.9570   41.5040 N   0  0  0  0  0  0  0  0  0  0  0  0
   39.8000   32.9270   40.9210 C   0  0  0  0  0  0  0  0  0  0  0  0
   40.5580   33.5920   39.9730 C   0  0  0  0  0  0  0  0  0  0  0  0
   40.0060   34.8090   39.7880 N   0  0  0  0  0  0  0  0  0  0  0  0
   38.9340   34.9350   40.5780 C   0  0  0  0  0  0  0  0  0  0  0  0
   38.8220   33.7890   41.2570 N   0  0  0  0  0  0  0  0  0  0  0  0
   37.4010   27.8320   42.4120 C   0  0  0  0  0  0  0  0  0  0  0  0
   37.4200   26.5500   42.8100 C   0  0  0  0  0  0  0  0  0  0  0  0
   37.1550   25.5280   41.9750 C   0  0  0  0  0  0  0  0  0  0  0  0
   36.8560   25.9760   40.6360 C   0  0  0  0  0  0  0  0  0  0  0  0
   36.9740   27.7150   40.6880 S   0  0  0  0  0  0  0  0  0  0  0  0
   36.5260   25.1460   39.4900 C   0  0  0  0  0  0  0  0  0  0  0  0
   36.6800   23.8070   39.4290 C   0  0  0  0  0  0  0  0  0  0  0  0
   36.2340   23.4770   38.1540 C   0  0  0  0  0  0  0  0  0  0  0  0
   35.8340   24.6100   37.4990 N   0  0  0  0  0  0  0  0  0  0  0  0
   36.0200   25.6240   38.3350 N   0  0  0  0  0  0  0  0  0  0  0  0
   37.7477   28.9830   44.1453 H   0  0  0  0  0  0  0  0  0  0  0  0
   36.7848   29.7965   42.8596 H   0  0  0  0  0  0  0  0  0  0  0  0
   42.2167   29.2024   42.0449 H   0  0  0  0  0  0  0  0  0  0  0  0
   40.1449   28.0719   42.9879 H   0  0  0  0  0  0  0  0  0  0  0  0
   41.4496   33.1991   39.4625 H   0  0  0  0  0  0  0  0  0  0  0  0
   38.2732   35.8111   40.6541 H   0  0  0  0  0  0  0  0  0  0  0  0
   38.0836   33.5912   41.9473 H   0  0  0  0  0  0  0  0  0  0  0  0
   37.6616   26.3260   43.8595 H   0  0  0  0  0  0  0  0  0  0  0  0
   37.1652   24.4708   42.2788 H   0  0  0  0  0  0  0  0  0  0  0  0
   37.0681   23.1331   40.2070 H   0  0  0  0  0  0  0  0  0  0  0  0
   36.2068   22.4601   37.7356 H   0  0  0  0  0  0  0  0  0  0  0  0
   35.4602   24.6653   36.5408 H   0  0  0  0  0  0  0  0  0  0  0  0
  2  3  2  0
  4  3  1  0
  4  1  1  0
  5  4  2  0
  6  7  2  0
  6  5  1  0
  7  2  1  0
  8 12  1  0
  8  6  1  0
  9  8  2  0
 10  9  1  0
 10 11  2  0
 11 12  1  0
 13 14  2  0
 13  1  1  0
 15 14  1  0
 16 17  1  0
 16 15  2  0
 17 13  1  0
 18 16  1  0
 19 18  1  0
 20 19  2  0
 21 20  1  0
 21 22  1  0
 22 18  2  0
  1 23  1  0
  1 24  1  0
  2 25  1  0
  3 26  1  0
  9 27  1  0
 11 28  1  0
 12 29  1  0
 14 30  1  0
 15 31  1  0
 19 32  1  0
 20 33  1  0
 21 34  1  0
M  ISO  8  23   8  24   8  25  14  26  14  27  14  28  14  29   9  30  14
M  ISO  4  31  14  32  14  33  14  34   9
M  END
>  <minimizedAffinity>  (1) 
-5.13830853

>  <minimizedRMSD>  (1) 
2.74051189

$$$$
