
     RDKit          3D

 32 35  0  0  0  0  0  0  0  0999 V2000
   36.6700   27.9330   42.6420 C   0  0  0  0  0  0  0  0  0  0  0  0
   40.1430   29.4610   42.5160 C   0  0  0  0  0  0  0  0  0  0  0  0
   39.0920   28.5380   42.7880 C   0  0  0  0  0  0  0  0  0  0  0  0
   37.8010   28.8570   42.3850 C   0  0  0  0  0  0  0  0  0  0  0  0
   37.6020   30.0460   41.7460 N   0  0  0  0  0  0  0  0  0  0  0  0
   38.6300   30.9050   41.5010 C   0  0  0  0  0  0  0  0  0  0  0  0
   39.8590   30.6060   41.8830 N   0  0  0  0  0  0  0  0  0  0  0  0
   38.2570   32.1370   40.8080 C   0  0  0  0  0  0  0  0  0  0  0  0
   37.2260   32.4100   39.9840 N   0  0  0  0  0  0  0  0  0  0  0  0
   37.2830   33.6540   39.5910 O   0  0  0  0  0  0  0  0  0  0  0  0
   38.3350   34.2130   40.1390 C   0  0  0  0  0  0  0  0  0  0  0  0
   38.9740   33.2940   40.9120 N   0  0  0  0  0  0  0  0  0  0  0  0
   36.9430   26.6150   42.0460 C   0  0  0  0  0  0  0  0  0  0  0  0
   37.0720   25.3620   42.5060 C   0  0  0  0  0  0  0  0  0  0  0  0
   37.3310   24.3170   41.6970 C   0  0  0  0  0  0  0  0  0  0  0  0
   37.4480   24.7090   40.3130 C   0  0  0  0  0  0  0  0  0  0  0  0
   37.1940   26.4300   40.2890 S   0  0  0  0  0  0  0  0  0  0  0  0
   37.7220   23.8350   39.1770 C   0  0  0  0  0  0  0  0  0  0  0  0
   38.8010   23.0270   39.0640 C   0  0  0  0  0  0  0  0  0  0  0  0
   38.6110   22.4130   37.8320 C   0  0  0  0  0  0  0  0  0  0  0  0
   37.4650   22.8500   37.2550 N   0  0  0  0  0  0  0  0  0  0  0  0
   36.9290   23.7300   38.1050 N   0  0  0  0  0  0  0  0  0  0  0  0
   36.5335   27.8193   43.7276 H   0  0  0  0  0  0  0  0  0  0  0  0
   35.7577   28.3488   42.1895 H   0  0  0  0  0  0  0  0  0  0  0  0
   41.1751   29.2355   42.8224 H   0  0  0  0  0  0  0  0  0  0  0  0
   39.2988   27.5906   43.3073 H   0  0  0  0  0  0  0  0  0  0  0  0
   38.6501   35.2572   39.9965 H   0  0  0  0  0  0  0  0  0  0  0  0
   36.9621   25.1808   43.5854 H   0  0  0  0  0  0  0  0  0  0  0  0
   37.4410   23.2814   42.0512 H   0  0  0  0  0  0  0  0  0  0  0  0
   39.6287   22.8893   39.7753 H   0  0  0  0  0  0  0  0  0  0  0  0
   39.2951   21.6753   37.3871 H   0  0  0  0  0  0  0  0  0  0  0  0
   37.0835   22.5611   36.3429 H   0  0  0  0  0  0  0  0  0  0  0  0
  2  3  2  0
  4  1  1  0
  4  3  1  0
  5  4  2  0
  6  5  1  0
  6  7  2  0
  7  2  1  0
  8 12  1  0
  8  6  1  0
  9  8  2  0
 10  9  1  0
 10 11  1  0
 11 12  2  0
 13 14  2  0
 13  1  1  0
 15 14  1  0
 16 15  2  0
 17 16  1  0
 17 13  1  0
 18 16  1  0
 19 18  1  0
 20 19  2  0
 21 20  1  0
 21 22  1  0
 22 18  2  0
  1 23  1  0
  1 24  1  0
  2 25  1  0
  3 26  1  0
 11 27  1  0
 14 28  1  0
 15 29  1  0
 19 30  1  0
 20 31  1  0
 21 32  1  0
M  ISO  8  23   8  24   8  25  14  26  14  27  14  28  14  29  14  30  14
M  ISO  2  31  14  32   9
M  END
>  <minimizedAffinity>  (1) 
-4.90286303

>  <minimizedRMSD>  (1) 
1.34396708

$$$$
