
     RDKit          3D

 33 36  0  0  0  0  0  0  0  0999 V2000
   38.2390   27.9220   43.5910 C   0  0  0  0  0  0  0  0  0  0  0  0
   41.2270   29.7720   42.1390 C   0  0  0  0  0  0  0  0  0  0  0  0
   40.4630   28.8120   42.8430 C   0  0  0  0  0  0  0  0  0  0  0  0
   39.0780   28.9070   42.8650 C   0  0  0  0  0  0  0  0  0  0  0  0
   38.5060   29.9400   42.1930 N   0  0  0  0  0  0  0  0  0  0  0  0
   39.2580   30.8570   41.5190 C   0  0  0  0  0  0  0  0  0  0  0  0
   40.5780   30.7640   41.5010 N   0  0  0  0  0  0  0  0  0  0  0  0
   38.6030   31.9710   40.7980 C   0  0  0  0  0  0  0  0  0  0  0  0
   37.3230   31.8680   40.0310 C   0  0  0  0  0  0  0  0  0  0  0  0
   37.2250   33.6270   39.4740 S   0  0  0  0  0  0  0  0  0  0  0  0
   38.8390   34.1420   40.3320 C   0  0  0  0  0  0  0  0  0  0  0  0
   39.3000   33.1110   40.9090 N   0  0  0  0  0  0  0  0  0  0  0  0
   38.3900   26.5880   42.9860 C   0  0  0  0  0  0  0  0  0  0  0  0
   39.2590   25.5710   43.0950 C   0  0  0  0  0  0  0  0  0  0  0  0
   39.1290   24.4320   42.3860 C   0  0  0  0  0  0  0  0  0  0  0  0
   37.9730   24.4460   41.5240 C   0  0  0  0  0  0  0  0  0  0  0  0
   37.2130   25.9900   41.7820 S   0  0  0  0  0  0  0  0  0  0  0  0
   37.5420   23.3790   40.6270 C   0  0  0  0  0  0  0  0  0  0  0  0
   38.2730   22.3000   40.2970 C   0  0  0  0  0  0  0  0  0  0  0  0
   37.4360   21.5960   39.4320 C   0  0  0  0  0  0  0  0  0  0  0  0
   36.2590   22.2580   39.2740 N   0  0  0  0  0  0  0  0  0  0  0  0
   36.3450   23.3540   40.0190 N   0  0  0  0  0  0  0  0  0  0  0  0
   38.5536   27.8819   44.6443 H   0  0  0  0  0  0  0  0  0  0  0  0
   37.1848   28.2297   43.5276 H   0  0  0  0  0  0  0  0  0  0  0  0
   42.3249   29.7095   42.1135 H   0  0  0  0  0  0  0  0  0  0  0  0
   40.9663   27.9900   43.3731 H   0  0  0  0  0  0  0  0  0  0  0  0
   36.6519   31.0145   39.8543 H   0  0  0  0  0  0  0  0  0  0  0  0
   39.2893   35.1456   40.3291 H   0  0  0  0  0  0  0  0  0  0  0  0
   40.1077   25.6705   43.7877 H   0  0  0  0  0  0  0  0  0  0  0  0
   39.8276   23.5853   42.4571 H   0  0  0  0  0  0  0  0  0  0  0  0
   39.2877   22.0359   40.6295 H   0  0  0  0  0  0  0  0  0  0  0  0
   37.6913   20.6422   38.9472 H   0  0  0  0  0  0  0  0  0  0  0  0
   35.4600   21.9674   38.6925 H   0  0  0  0  0  0  0  0  0  0  0  0
  2  3  2  0
  3  4  1  0
  4  1  1  0
  5  4  2  0
  6  5  1  0
  7  6  2  0
  7  2  1  0
  8 12  1  0
  8  6  1  0
  9  8  2  0
 10  9  1  0
 10 11  1  0
 11 12  2  0
 13 14  2  0
 13  1  1  0
 15 14  1  0
 16 17  1  0
 16 15  2  0
 17 13  1  0
 18 16  1  0
 19 18  1  0
 20 19  2  0
 21 20  1  0
 21 22  1  0
 22 18  2  0
  1 23  1  0
  1 24  1  0
  2 25  1  0
  3 26  1  0
  9 27  1  0
 11 28  1  0
 14 29  1  0
 15 30  1  0
 19 31  1  0
 20 32  1  0
 21 33  1  0
M  ISO  8  23   8  24   8  25  14  26  14  27  14  28  14  29  14  30  14
M  ISO  3  31  14  32  14  33   9
M  END
>  <minimizedAffinity>  (1) 
-4.87915421

>  <minimizedRMSD>  (1) 
2.00966334

$$$$
