
     RDKit          3D

 32 34  0  0  0  0  0  0  0  0999 V2000
   38.5500   28.2140   40.6830 C   0  0  0  0  0  0  0  0  0  0  0  0
   38.7700   27.8750   42.0690 C   0  0  0  0  0  0  0  0  0  0  0  0
   39.4680   28.8380   42.7870 C   0  0  0  0  0  0  0  0  0  0  0  0
   39.8950   29.9840   42.2270 N   0  0  0  0  0  0  0  0  0  0  0  0
   39.6600   30.2550   40.9170 C   0  0  0  0  0  0  0  0  0  0  0  0
   38.9930   29.3690   40.1660 N   0  0  0  0  0  0  0  0  0  0  0  0
   38.2800   26.6430   42.5590 N   0  0  0  0  0  0  0  0  0  0  0  0
   36.9260   26.3830   42.8480 C   0  0  0  0  0  0  0  0  0  0  0  0
   36.2370   27.3680   43.3620 N   0  0  0  0  0  0  0  0  0  0  0  0
   36.4590   25.0600   42.5430 N   0  0  0  0  0  0  0  0  0  0  0  0
   35.2520   27.2750   43.6350 H   0  0  0  0  0  0  0  0  0  0  0  0
   40.1880   31.5330   40.4760 C   0  0  0  0  0  0  0  0  0  0  0  0
   39.8030   32.7970   40.8430 C   0  0  0  0  0  0  0  0  0  0  0  0
   40.5730   33.7410   40.1820 C   0  0  0  0  0  0  0  0  0  0  0  0
   41.4150   32.9750   39.4180 C   0  0  0  0  0  0  0  0  0  0  0  0
   41.1670   31.7090   39.6110 O   0  0  0  0  0  0  0  0  0  0  0  0
   40.4670   35.1880   40.3050 C   0  0  0  0  0  0  0  0  0  0  0  0
   41.3540   36.0190   40.8790 N   0  0  0  0  0  0  0  0  0  0  0  0
   40.8840   37.2470   40.7810 O   0  0  0  0  0  0  0  0  0  0  0  0
   39.7170   37.2380   40.1610 C   0  0  0  0  0  0  0  0  0  0  0  0
   39.4490   35.9340   39.8570 N   0  0  0  0  0  0  0  0  0  0  0  0
   42.4580   33.5160   38.5050 C   0  0  0  0  0  0  0  0  0  0  0  0
   43.1230   32.4860   37.8490 F   0  0  0  0  0  0  0  0  0  0  0  0
   41.8590   34.3520   37.5830 F   0  0  0  0  0  0  0  0  0  0  0  0
   43.4100   34.2060   39.2160 F   0  0  0  0  0  0  0  0  0  0  0  0
   38.0068   27.5089   40.0367 H   0  0  0  0  0  0  0  0  0  0  0  0
   39.6790   28.6569   43.8513 H   0  0  0  0  0  0  0  0  0  0  0  0
   38.9587   25.8842   42.7153 H   0  0  0  0  0  0  0  0  0  0  0  0
   35.4790   24.8039   42.7299 H   0  0  0  0  0  0  0  0  0  0  0  0
   37.1040   24.3670   42.1373 H   0  0  0  0  0  0  0  0  0  0  0  0
   38.9997   33.0281   41.5581 H   0  0  0  0  0  0  0  0  0  0  0  0
   39.0855   38.1097   39.9343 H   0  0  0  0  0  0  0  0  0  0  0  0
  1  2  2  0
  2  7  1  0
  2  3  1  0
  4  3  2  0
  5  4  1  0
  6  1  1  0
  6  5  2  0
  7  8  1  0
  8  9  2  0
  9 11  1  0
 10  8  1  0
 12 13  2  0
 12  5  1  0
 14 17  1  0
 14 13  1  0
 15 16  1  0
 15 14  2  0
 16 12  1  0
 17 18  2  0
 19 18  1  0
 20 19  1  0
 21 20  2  0
 21 17  1  0
 22 25  1  0
 22 15  1  0
 23 22  1  0
 24 22  1  0
  1 26  1  0
  3 27  1  0
  7 28  1  0
 10 29  1  0
 10 30  1  0
 13 31  1  0
 20 32  1  0
M  ISO  4  26  14  27  14  31  14  32  14
M  END
>  <minimizedAffinity>  (1) 
-5.17640638

>  <minimizedRMSD>  (1) 
2.92650223

$$$$
