
     RDKit          3D

 39 41  0  0  0  0  0  0  0  0999 V2000
   36.8140   27.3740   41.8050 C   0  0  0  0  0  0  0  0  0  0  0  0
   37.1090   26.3250   42.5870 C   0  0  0  0  0  0  0  0  0  0  0  0
   37.5430   25.1510   42.0910 C   0  0  0  0  0  0  0  0  0  0  0  0
   37.6500   25.1690   40.6530 C   0  0  0  0  0  0  0  0  0  0  0  0
   37.1460   26.7720   40.1580 S   0  0  0  0  0  0  0  0  0  0  0  0
   38.0870   24.0720   39.7980 C   0  0  0  0  0  0  0  0  0  0  0  0
   39.3730   23.7810   39.5090 C   0  0  0  0  0  0  0  0  0  0  0  0
   39.2700   22.6650   38.6680 C   0  0  0  0  0  0  0  0  0  0  0  0
   37.9610   22.3390   38.4890 N   0  0  0  0  0  0  0  0  0  0  0  0
   37.2520   23.2200   39.1950 N   0  0  0  0  0  0  0  0  0  0  0  0
   36.3330   28.7490   42.0170 C   0  0  0  0  0  0  0  0  0  0  0  0
   39.5620   30.7030   42.4360 C   0  0  0  0  0  0  0  0  0  0  0  0
   38.5260   29.7630   42.6690 C   0  0  0  0  0  0  0  0  0  0  0  0
   37.4370   29.7180   41.8080 C   0  0  0  0  0  0  0  0  0  0  0  0
   37.4090   30.5900   40.7620 N   0  0  0  0  0  0  0  0  0  0  0  0
   38.4200   31.4860   40.5600 C   0  0  0  0  0  0  0  0  0  0  0  0
   39.4530   31.5330   41.3720 N   0  0  0  0  0  0  0  0  0  0  0  0
   38.4440   32.4500   39.4490 C   0  0  0  0  0  0  0  0  0  0  0  0
   39.8680   32.8700   39.1160 C   0  0  0  0  0  0  0  0  0  0  0  0
   37.8090   31.8120   38.2320 C   0  0  0  0  0  0  0  0  0  0  0  0
   37.6250   33.6540   39.8100 C   0  0  0  0  0  0  0  0  0  0  0  0
   36.9918   26.4279   43.6759 H   0  0  0  0  0  0  0  0  0  0  0  0
   37.7882   24.2770   42.7123 H   0  0  0  0  0  0  0  0  0  0  0  0
   40.2828   24.2960   39.8513 H   0  0  0  0  0  0  0  0  0  0  0  0
   40.1209   22.1316   38.2191 H   0  0  0  0  0  0  0  0  0  0  0  0
   37.5909   21.5642   37.9201 H   0  0  0  0  0  0  0  0  0  0  0  0
   35.5220   28.9636   41.3055 H   0  0  0  0  0  0  0  0  0  0  0  0
   35.9636   28.8441   43.0487 H   0  0  0  0  0  0  0  0  0  0  0  0
   40.4340   30.7565   43.1044 H   0  0  0  0  0  0  0  0  0  0  0  0
   38.5844   29.0747   43.5251 H   0  0  0  0  0  0  0  0  0  0  0  0
   40.4289   33.0354   40.0477 H   0  0  0  0  0  0  0  0  0  0  0  0
   40.3564   32.0777   38.5298 H   0  0  0  0  0  0  0  0  0  0  0  0
   39.8482   33.8006   38.5298 H   0  0  0  0  0  0  0  0  0  0  0  0
   37.0670   31.0665   38.5539 H   0  0  0  0  0  0  0  0  0  0  0  0
   37.3127   32.5865   37.6288 H   0  0  0  0  0  0  0  0  0  0  0  0
   38.5859   31.3194   37.6288 H   0  0  0  0  0  0  0  0  0  0  0  0
   37.5652   33.7419   40.9048 H   0  0  0  0  0  0  0  0  0  0  0  0
   38.0973   34.5566   39.3949 H   0  0  0  0  0  0  0  0  0  0  0  0
   36.6120   33.5463   39.3949 H   0  0  0  0  0  0  0  0  0  0  0  0
  1 11  1  0
  1  2  2  0
  3  2  1  0
  4  3  2  0
  5  4  1  0
  5  1  1  0
  6  4  1  0
  7  6  1  0
  8  7  2  0
  9  8  1  0
  9 10  1  0
 10  6  2  0
 12 13  2  0
 14 11  1  0
 14 13  1  0
 15 14  2  0
 16 15  1  0
 16 17  2  0
 17 12  1  0
 18 21  1  0
 18 16  1  0
 19 18  1  0
 20 18  1  0
  2 22  1  0
  3 23  1  0
  7 24  1  0
  8 25  1  0
  9 26  1  0
 11 27  1  0
 11 28  1  0
 12 29  1  0
 13 30  1  0
 19 31  1  0
 19 32  1  0
 19 33  1  0
 20 34  1  0
 20 35  1  0
 20 36  1  0
 21 37  1  0
 21 38  1  0
 21 39  1  0
M  ISO  8  22  14  23  14  24  14  25  14  26   9  27   8  28   8  29  14
M  ISO  8  30  14  31   8  32   8  33   8  34   8  35   8  36   8  37   8
M  ISO  2  38   8  39   8
M  END
>  <minimizedAffinity>  (1) 
-4.6924715

>  <minimizedRMSD>  (1) 
1.56616926

$$$$
