
     RDKit          3D

 31 33  0  0  0  0  0  0  0  0999 V2000
   38.9130   29.7020   42.3780 C   0  0  0  0  0  0  0  0  0  0  0  0
   38.1620   29.3140   41.2200 C   0  0  0  0  0  0  0  0  0  0  0  0
   38.0420   27.9330   41.0570 C   0  0  0  0  0  0  0  0  0  0  0  0
   38.5950   27.0660   41.9300 N   0  0  0  0  0  0  0  0  0  0  0  0
   39.2900   27.4800   43.0030 C   0  0  0  0  0  0  0  0  0  0  0  0
   39.4350   28.7800   43.2040 N   0  0  0  0  0  0  0  0  0  0  0  0
   37.3000   27.3770   39.9330 C   0  0  0  0  0  0  0  0  0  0  0  0
   37.1160   28.1580   38.7850 C   0  0  0  0  0  0  0  0  0  0  0  0
   36.4470   27.4200   37.8760 N   0  0  0  0  0  0  0  0  0  0  0  0
   36.2130   26.2020   38.4330 C   0  0  0  0  0  0  0  0  0  0  0  0
   35.5670   25.0520   37.9720 C   0  0  0  0  0  0  0  0  0  0  0  0
   35.4820   23.9470   38.8030 C   0  0  0  0  0  0  0  0  0  0  0  0
   36.0230   23.9350   40.1020 C   0  0  0  0  0  0  0  0  0  0  0  0
   36.6700   25.0760   40.5680 C   0  0  0  0  0  0  0  0  0  0  0  0
   36.7270   26.1440   39.7070 C   0  0  0  0  0  0  0  0  0  0  0  0
   37.5900   30.2660   40.3500 N   0  0  0  0  0  0  0  0  0  0  0  0
   36.6080   31.2210   40.7360 C   0  0  0  0  0  0  0  0  0  0  0  0
   35.6550   30.7470   41.5190 N   0  0  0  0  0  0  0  0  0  0  0  0
   36.7390   32.5690   40.2570 N   0  0  0  0  0  0  0  0  0  0  0  0
   34.8840   31.3500   41.8570 H   0  0  0  0  0  0  0  0  0  0  0  0
   39.0640   30.7701   42.5933 H   0  0  0  0  0  0  0  0  0  0  0  0
   39.7299   26.7524   43.7008 H   0  0  0  0  0  0  0  0  0  0  0  0
   37.4582   29.1945   38.6484 H   0  0  0  0  0  0  0  0  0  0  0  0
   36.1651   27.7233   36.9329 H   0  0  0  0  0  0  0  0  0  0  0  0
   35.1316   25.0245   36.9622 H   0  0  0  0  0  0  0  0  0  0  0  0
   34.9724   23.0449   38.4336 H   0  0  0  0  0  0  0  0  0  0  0  0
   35.9363   23.0410   40.7370 H   0  0  0  0  0  0  0  0  0  0  0  0
   37.1127   25.1198   41.5740 H   0  0  0  0  0  0  0  0  0  0  0  0
   37.9044   30.2701   39.3692 H   0  0  0  0  0  0  0  0  0  0  0  0
   36.0419   33.2796   40.5216 H   0  0  0  0  0  0  0  0  0  0  0  0
   37.5300   32.8249   39.6490 H   0  0  0  0  0  0  0  0  0  0  0  0
  1  6  2  0
  2  1  1  0
  3  2  2  0
  3  4  1  0
  4  5  2  0
  5  6  1  0
  7  3  1  0
  8  7  2  0
  9 10  1  0
  9  8  1  0
 10 15  2  0
 11 10  1  0
 11 12  2  0
 12 13  1  0
 13 14  2  0
 15  7  1  0
 15 14  1  0
 16 17  1  0
 16  2  1  0
 17 18  2  0
 18 20  1  0
 19 17  1  0
  1 21  1  0
  5 22  1  0
  8 23  1  0
  9 24  1  0
 11 25  1  0
 12 26  1  0
 13 27  1  0
 14 28  1  0
 16 29  1  0
 19 30  1  0
 19 31  1  0
M  ISO  8  21  14  22  14  23  14  24   9  25  14  26  14  27  14  28  14
M  END
>  <minimizedAffinity>  (1) 
-5.45315266

>  <minimizedRMSD>  (1) 
0.729296148

$$$$
