
     RDKit          3D

 27 28  0  0  0  0  0  0  0  0999 V2000
   38.6260   29.3070   42.5580 C   0  0  0  0  0  0  0  0  0  0  0  0
   37.8630   29.1700   41.3550 C   0  0  0  0  0  0  0  0  0  0  0  0
   37.3800   27.9000   41.1360 C   0  0  0  0  0  0  0  0  0  0  0  0
   37.6420   26.8950   42.0300 N   0  0  0  0  0  0  0  0  0  0  0  0
   38.3600   27.0740   43.1390 C   0  0  0  0  0  0  0  0  0  0  0  0
   38.8440   28.2800   43.3860 N   0  0  0  0  0  0  0  0  0  0  0  0
   37.6350   30.2530   40.4860 N   0  0  0  0  0  0  0  0  0  0  0  0
   36.7560   31.3370   40.7750 C   0  0  0  0  0  0  0  0  0  0  0  0
   35.6150   30.9930   41.3320 N   0  0  0  0  0  0  0  0  0  0  0  0
   37.1910   32.6690   40.4410 N   0  0  0  0  0  0  0  0  0  0  0  0
   34.8750   31.6630   41.5630 H   0  0  0  0  0  0  0  0  0  0  0  0
   36.6120   27.4940   39.9730 C   0  0  0  0  0  0  0  0  0  0  0  0
   36.7830   26.1480   39.6190 C   0  0  0  0  0  0  0  0  0  0  0  0
   36.1750   25.5080   38.5650 C   0  0  0  0  0  0  0  0  0  0  0  0
   35.3140   26.2260   37.7690 C   0  0  0  0  0  0  0  0  0  0  0  0
   35.1170   27.5510   38.0830 C   0  0  0  0  0  0  0  0  0  0  0  0
   35.7440   28.1570   39.1440 C   0  0  0  0  0  0  0  0  0  0  0  0
   39.0477   30.2912   42.8102 H   0  0  0  0  0  0  0  0  0  0  0  0
   38.5453   26.2396   43.8314 H   0  0  0  0  0  0  0  0  0  0  0  0
   38.1343   30.2629   39.5852 H   0  0  0  0  0  0  0  0  0  0  0  0
   36.5798   33.4746   40.6367 H   0  0  0  0  0  0  0  0  0  0  0  0
   38.1133   32.8158   40.0065 H   0  0  0  0  0  0  0  0  0  0  0  0
   37.4654   25.5500   40.2409 H   0  0  0  0  0  0  0  0  0  0  0  0
   36.3730   24.4450   38.3630 H   0  0  0  0  0  0  0  0  0  0  0  0
   34.8025   25.7592   36.9143 H   0  0  0  0  0  0  0  0  0  0  0  0
   34.4323   28.1467   37.4615 H   0  0  0  0  0  0  0  0  0  0  0  0
   35.5410   29.2207   39.3372 H   0  0  0  0  0  0  0  0  0  0  0  0
  1  6  2  0
  2  1  1  0
  3  2  2  0
  3  4  1  0
  4  5  2  0
  5  6  1  0
  7  8  1  0
  7  2  1  0
  8  9  2  0
  9 11  1  0
 10  8  1  0
 12  3  1  0
 13 12  2  0
 14 13  1  0
 15 16  1  0
 15 14  2  0
 16 17  2  0
 17 12  1  0
  1 18  1  0
  5 19  1  0
  7 20  1  0
 10 21  1  0
 10 22  1  0
 13 23  1  0
 14 24  1  0
 15 25  1  0
 16 26  1  0
 17 27  1  0
M  ISO  7  18  14  19  14  23  14  24  14  25  14  26  14  27  14
M  END
>  <minimizedAffinity>  (1) 
-5.15844822

>  <minimizedRMSD>  (1) 
1.14802575

$$$$
