
     RDKit          3D

 32 33  0  0  0  0  0  0  0  0999 V2000
   38.7950   29.4360   42.4140 C   0  0  0  0  0  0  0  0  0  0  0  0
   37.9150   29.2310   41.3100 C   0  0  0  0  0  0  0  0  0  0  0  0
   37.4380   27.9450   41.2120 C   0  0  0  0  0  0  0  0  0  0  0  0
   37.7990   26.9940   42.1050 N   0  0  0  0  0  0  0  0  0  0  0  0
   38.6260   27.2390   43.1210 C   0  0  0  0  0  0  0  0  0  0  0  0
   39.1180   28.4580   43.2670 N   0  0  0  0  0  0  0  0  0  0  0  0
   37.6120   30.2960   40.4470 N   0  0  0  0  0  0  0  0  0  0  0  0
   36.7190   31.3630   40.7680 C   0  0  0  0  0  0  0  0  0  0  0  0
   35.6390   31.0080   41.4300 N   0  0  0  0  0  0  0  0  0  0  0  0
   37.1150   32.6840   40.3270 N   0  0  0  0  0  0  0  0  0  0  0  0
   34.9290   31.7000   41.7050 H   0  0  0  0  0  0  0  0  0  0  0  0
   36.5490   27.5720   40.1760 N   0  0  0  0  0  0  0  0  0  0  0  0
   36.6030   26.1960   39.6750 C   0  0  0  0  0  0  0  0  0  0  0  0
   36.8750   26.0860   38.2220 C   0  0  0  0  0  0  0  0  0  0  0  0
   35.9310   26.9130   37.3740 C   0  0  0  0  0  0  0  0  0  0  0  0
   35.9800   28.3150   37.9380 C   0  0  0  0  0  0  0  0  0  0  0  0
   35.5170   28.1980   39.4000 C   0  0  0  0  0  0  0  0  0  0  0  0
   39.2243   30.4368   42.5696 H   0  0  0  0  0  0  0  0  0  0  0  0
   38.8952   26.4398   43.8272 H   0  0  0  0  0  0  0  0  0  0  0  0
   38.0636   30.3086   39.5213 H   0  0  0  0  0  0  0  0  0  0  0  0
   36.5136   33.4957   40.5277 H   0  0  0  0  0  0  0  0  0  0  0  0
   37.9981   32.8120   39.8126 H   0  0  0  0  0  0  0  0  0  0  0  0
   37.3992   25.6635   40.2158 H   0  0  0  0  0  0  0  0  0  0  0  0
   35.6070   25.7604   39.8428 H   0  0  0  0  0  0  0  0  0  0  0  0
   37.9039   26.4256   38.0322 H   0  0  0  0  0  0  0  0  0  0  0  0
   36.7291   25.0326   37.9409 H   0  0  0  0  0  0  0  0  0  0  0  0
   34.9090   26.5112   37.4380 H   0  0  0  0  0  0  0  0  0  0  0  0
   36.2235   26.8959   36.3138 H   0  0  0  0  0  0  0  0  0  0  0  0
   37.0055   28.7103   37.8919 H   0  0  0  0  0  0  0  0  0  0  0  0
   35.3403   29.0030   37.3657 H   0  0  0  0  0  0  0  0  0  0  0  0
   35.3125   29.2013   39.8020 H   0  0  0  0  0  0  0  0  0  0  0  0
   34.6005   27.5917   39.4487 H   0  0  0  0  0  0  0  0  0  0  0  0
  1  6  2  0
  2  1  1  0
  3  2  2  0
  3  4  1  0
  4  5  2  0
  5  6  1  0
  7  8  1  0
  7  2  1  0
  8  9  2  0
  9 11  1  0
 10  8  1  0
 12  3  1  0
 13 12  1  0
 14 13  1  0
 15 16  1  0
 15 14  1  0
 16 17  1  0
 17 12  1  0
  1 18  1  0
  5 19  1  0
  7 20  1  0
 10 21  1  0
 10 22  1  0
 13 23  1  0
 13 24  1  0
 14 25  1  0
 14 26  1  0
 15 27  1  0
 15 28  1  0
 16 29  1  0
 16 30  1  0
 17 31  1  0
 17 32  1  0
M  ISO  8  18  14  19  14  23  13  24  13  25  13  26  13  27  13  28  13
M  ISO  4  29  13  30  13  31  13  32  13
M  END
>  <minimizedAffinity>  (1) 
-4.71279097

>  <minimizedRMSD>  (1) 
0.460529059

$$$$
