
     RDKit          3D

 30 31  0  0  0  0  0  0  0  0999 V2000
   38.7490   29.5460   42.4670 C   0  0  0  0  0  0  0  0  0  0  0  0
   38.0970   29.3630   41.2050 C   0  0  0  0  0  0  0  0  0  0  0  0
   37.8630   28.0400   40.8870 C   0  0  0  0  0  0  0  0  0  0  0  0
   38.2290   27.0260   41.7200 N   0  0  0  0  0  0  0  0  0  0  0  0
   38.8360   27.2520   42.8870 C   0  0  0  0  0  0  0  0  0  0  0  0
   39.0820   28.5080   43.2360 N   0  0  0  0  0  0  0  0  0  0  0  0
   37.7570   30.4740   40.4110 N   0  0  0  0  0  0  0  0  0  0  0  0
   36.7360   31.4060   40.7380 C   0  0  0  0  0  0  0  0  0  0  0  0
   35.6440   30.8950   41.2680 N   0  0  0  0  0  0  0  0  0  0  0  0
   37.0280   32.7910   40.4460 N   0  0  0  0  0  0  0  0  0  0  0  0
   34.8480   31.4940   41.5270 H   0  0  0  0  0  0  0  0  0  0  0  0
   37.2220   27.7680   39.6550 N   0  0  0  0  0  0  0  0  0  0  0  0
   37.1220   28.4210   38.3630 C   0  0  0  0  0  0  0  0  0  0  0  0
   35.6240   28.5290   38.0760 C   0  0  0  0  0  0  0  0  0  0  0  0
   35.1940   27.2550   37.7400 O   0  0  0  0  0  0  0  0  0  0  0  0
   35.9330   26.2280   38.2840 C   0  0  0  0  0  0  0  0  0  0  0  0
   36.4750   26.5390   39.6610 C   0  0  0  0  0  0  0  0  0  0  0  0
   38.9804   30.5653   42.8099 H   0  0  0  0  0  0  0  0  0  0  0  0
   39.1251   26.4177   43.5430 H   0  0  0  0  0  0  0  0  0  0  0  0
   38.2819   30.6208   39.5370 H   0  0  0  0  0  0  0  0  0  0  0  0
   36.3317   33.5199   40.6578 H   0  0  0  0  0  0  0  0  0  0  0  0
   37.9324   33.0492   40.0261 H   0  0  0  0  0  0  0  0  0  0  0  0
   37.5794   29.4207   38.4009 H   0  0  0  0  0  0  0  0  0  0  0  0
   37.6487   27.8576   37.5786 H   0  0  0  0  0  0  0  0  0  0  0  0
   35.0909   28.8866   38.9693 H   0  0  0  0  0  0  0  0  0  0  0  0
   35.4256   29.2428   37.2629 H   0  0  0  0  0  0  0  0  0  0  0  0
   35.2916   25.3372   38.3552 H   0  0  0  0  0  0  0  0  0  0  0  0
   36.7984   26.0671   37.6242 H   0  0  0  0  0  0  0  0  0  0  0  0
   37.1341   25.7189   39.9819 H   0  0  0  0  0  0  0  0  0  0  0  0
   35.6283   26.6467   40.3550 H   0  0  0  0  0  0  0  0  0  0  0  0
  1  6  2  0
  2  1  1  0
  3  2  2  0
  3  4  1  0
  4  5  2  0
  5  6  1  0
  7  8  1  0
  7  2  1  0
  8  9  2  0
  9 11  1  0
 10  8  1  0
 12 17  1  0
 12  3  1  0
 13 12  1  0
 14 13  1  0
 15 14  1  0
 15 16  1  0
 16 17  1  0
  1 18  1  0
  5 19  1  0
  7 20  1  0
 10 21  1  0
 10 22  1  0
 13 23  1  0
 13 24  1  0
 14 25  1  0
 14 26  1  0
 16 27  1  0
 16 28  1  0
 17 29  1  0
 17 30  1  0
M  ISO  8  18  14  19  14  23  13  24  13  25  13  26  13  27  13  28  13
M  ISO  2  29  13  30  13
M  END
>  <minimizedAffinity>  (1) 
-4.68637562

>  <minimizedRMSD>  (1) 
0.623717546

$$$$
