
     RDKit          3D

 31 32  0  0  0  0  0  0  0  0999 V2000
   38.7820   29.5660   42.4190 C   0  0  0  0  0  0  0  0  0  0  0  0
   38.0950   29.3490   41.1790 C   0  0  0  0  0  0  0  0  0  0  0  0
   37.8590   28.0240   40.8960 C   0  0  0  0  0  0  0  0  0  0  0  0
   38.2480   27.0210   41.7280 N   0  0  0  0  0  0  0  0  0  0  0  0
   38.8940   27.3010   42.8860 C   0  0  0  0  0  0  0  0  0  0  0  0
   39.1560   28.5590   43.2230 N   0  0  0  0  0  0  0  0  0  0  0  0
   37.7340   30.4540   40.3850 N   0  0  0  0  0  0  0  0  0  0  0  0
   36.7210   31.3870   40.7300 C   0  0  0  0  0  0  0  0  0  0  0  0
   35.6470   30.8850   41.2980 N   0  0  0  0  0  0  0  0  0  0  0  0
   36.9970   32.7740   40.4130 N   0  0  0  0  0  0  0  0  0  0  0  0
   34.8650   31.4870   41.5940 H   0  0  0  0  0  0  0  0  0  0  0  0
   37.1850   27.7330   39.6890 N   0  0  0  0  0  0  0  0  0  0  0  0
   37.0010   28.4370   38.4360 C   0  0  0  0  0  0  0  0  0  0  0  0
   35.5170   28.2920   38.1430 C   0  0  0  0  0  0  0  0  0  0  0  0
   35.3880   26.9340   37.6100 N   0  0  0  0  0  0  0  0  0  0  0  0
   35.9700   25.9610   38.4680 C   0  0  0  0  0  0  0  0  0  0  0  0
   36.5540   26.4510   39.7480 C   0  0  0  0  0  0  0  0  0  0  0  0
   39.0112   30.5981   42.7228 H   0  0  0  0  0  0  0  0  0  0  0  0
   39.2034   26.4813   43.5511 H   0  0  0  0  0  0  0  0  0  0  0  0
   38.2369   30.5946   39.4971 H   0  0  0  0  0  0  0  0  0  0  0  0
   36.3032   33.5015   40.6373 H   0  0  0  0  0  0  0  0  0  0  0  0
   37.8870   33.0323   39.9634 H   0  0  0  0  0  0  0  0  0  0  0  0
   37.2767   29.4968   38.5396 H   0  0  0  0  0  0  0  0  0  0  0  0
   37.6316   28.0346   37.6295 H   0  0  0  0  0  0  0  0  0  0  0  0
   34.9245   28.4083   39.0624 H   0  0  0  0  0  0  0  0  0  0  0  0
   35.1487   29.0565   37.4431 H   0  0  0  0  0  0  0  0  0  0  0  0
   34.3878   26.7173   37.4935 H   0  0  0  0  0  0  0  0  0  0  0  0
   35.1879   25.2293   38.7187 H   0  0  0  0  0  0  0  0  0  0  0  0
   36.8214   25.5542   37.9027 H   0  0  0  0  0  0  0  0  0  0  0  0
   37.3053   25.7190   40.0792 H   0  0  0  0  0  0  0  0  0  0  0  0
   35.7073   26.5642   40.4410 H   0  0  0  0  0  0  0  0  0  0  0  0
  1  6  2  0
  2  1  1  0
  3  2  2  0
  3  4  1  0
  4  5  2  0
  5  6  1  0
  7  8  1  0
  7  2  1  0
  8  9  2  0
  9 11  1  0
 10  8  1  0
 12 17  1  0
 12  3  1  0
 13 12  1  0
 14 13  1  0
 15 14  1  0
 15 16  1  0
 16 17  1  0
  1 18  1  0
  5 19  1  0
  7 20  1  0
 10 21  1  0
 10 22  1  0
 13 23  1  0
 13 24  1  0
 14 25  1  0
 14 26  1  0
 15 27  1  0
 16 28  1  0
 16 29  1  0
 17 30  1  0
 17 31  1  0
M  ISO  8  18  14  19  14  23  13  24  13  25  13  26  13  27   5  28  13
M  ISO  3  29  13  30  13  31  13
M  END
>  <minimizedAffinity>  (1) 
-4.67945099

>  <minimizedRMSD>  (1) 
0.539275885

$$$$
