
     RDKit          3D

 22 23  0  0  0  0  0  0  0  0999 V2000
   38.6470   29.3190   42.5250 C   0  0  0  0  0  0  0  0  0  0  0  0
   37.8770   29.1670   41.3490 C   0  0  0  0  0  0  0  0  0  0  0  0
   37.3840   27.8860   41.1350 C   0  0  0  0  0  0  0  0  0  0  0  0
   37.6350   26.8760   42.0010 N   0  0  0  0  0  0  0  0  0  0  0  0
   38.3790   27.0780   43.1150 C   0  0  0  0  0  0  0  0  0  0  0  0
   38.8780   28.3030   43.3630 N   0  0  0  0  0  0  0  0  0  0  0  0
   37.6640   30.2840   40.4940 N   0  0  0  0  0  0  0  0  0  0  0  0
   36.7530   31.3390   40.7820 C   0  0  0  0  0  0  0  0  0  0  0  0
   35.6100   30.9710   41.3200 N   0  0  0  0  0  0  0  0  0  0  0  0
   37.2030   32.6620   40.4470 N   0  0  0  0  0  0  0  0  0  0  0  0
   34.8820   31.6580   41.5550 H   0  0  0  0  0  0  0  0  0  0  0  0
   36.5920   27.6640   39.9520 C   0  0  0  0  0  0  0  0  0  0  0  0
   36.6990   26.6000   39.1210 N   0  0  0  0  0  0  0  0  0  0  0  0
   35.8350   26.7160   38.1580 O   0  0  0  0  0  0  0  0  0  0  0  0
   35.1710   27.8130   38.3290 C   0  0  0  0  0  0  0  0  0  0  0  0
   35.6280   28.4030   39.4270 N   0  0  0  0  0  0  0  0  0  0  0  0
   39.0706   30.3070   42.7586 H   0  0  0  0  0  0  0  0  0  0  0  0
   38.5735   26.2483   43.8105 H   0  0  0  0  0  0  0  0  0  0  0  0
   38.2000   30.3320   39.6158 H   0  0  0  0  0  0  0  0  0  0  0  0
   36.5954   33.4738   40.6278 H   0  0  0  0  0  0  0  0  0  0  0  0
   38.1331   32.7984   40.0261 H   0  0  0  0  0  0  0  0  0  0  0  0
   34.3683   28.1908   37.6786 H   0  0  0  0  0  0  0  0  0  0  0  0
  1  6  2  0
  2  1  1  0
  3  2  2  0
  3  4  1  0
  4  5  2  0
  5  6  1  0
  7  8  1  0
  7  2  1  0
  8  9  2  0
  9 11  1  0
 10  8  1  0
 12  3  1  0
 13 12  2  0
 14 15  1  0
 14 13  1  0
 15 16  2  0
 16 12  1  0
  1 17  1  0
  5 18  1  0
  7 19  1  0
 10 20  1  0
 10 21  1  0
 15 22  1  0
M  ISO  3  17  14  18  14  22  14
M  END
>  <minimizedAffinity>  (1) 
-4.57090473

>  <minimizedRMSD>  (1) 
0.22221972

$$$$
