
     RDKit          3D

 29 29  0  0  0  0  0  0  0  0999 V2000
   38.3860   29.3590   42.6770 C   0  0  0  0  0  0  0  0  0  0  0  0
   37.8790   29.1690   41.3480 C   0  0  0  0  0  0  0  0  0  0  0  0
   37.6310   27.8640   40.9870 C   0  0  0  0  0  0  0  0  0  0  0  0
   37.8780   26.8640   41.8950 N   0  0  0  0  0  0  0  0  0  0  0  0
   38.3500   27.0880   43.1220 C   0  0  0  0  0  0  0  0  0  0  0  0
   38.5980   28.3360   43.4960 N   0  0  0  0  0  0  0  0  0  0  0  0
   37.6530   30.2740   40.4750 N   0  0  0  0  0  0  0  0  0  0  0  0
   36.7490   31.3360   40.7710 C   0  0  0  0  0  0  0  0  0  0  0  0
   35.6130   30.9780   41.3070 N   0  0  0  0  0  0  0  0  0  0  0  0
   37.1920   32.6800   40.4490 N   0  0  0  0  0  0  0  0  0  0  0  0
   34.8660   31.6490   41.5220 H   0  0  0  0  0  0  0  0  0  0  0  0
   37.1180   27.5060   39.6390 C   0  0  0  0  0  0  0  0  0  0  0  0
   38.1370   27.8030   38.5570 C   0  0  0  0  0  0  0  0  0  0  0  0
   36.9400   25.9760   39.5840 C   0  0  0  0  0  0  0  0  0  0  0  0
   35.7490   28.0580   39.3420 C   0  0  0  0  0  0  0  0  0  0  0  0
   38.6047   30.3789   43.0262 H   0  0  0  0  0  0  0  0  0  0  0  0
   38.5307   26.2512   43.8127 H   0  0  0  0  0  0  0  0  0  0  0  0
   38.1697   30.3064   39.5845 H   0  0  0  0  0  0  0  0  0  0  0  0
   36.5785   33.4846   40.6419 H   0  0  0  0  0  0  0  0  0  0  0  0
   38.1199   32.8293   40.0276 H   0  0  0  0  0  0  0  0  0  0  0  0
   39.0943   28.0820   39.0215 H   0  0  0  0  0  0  0  0  0  0  0  0
   38.2794   26.9090   37.9321 H   0  0  0  0  0  0  0  0  0  0  0  0
   37.7768   28.6335   37.9321 H   0  0  0  0  0  0  0  0  0  0  0  0
   36.8934   25.5753   40.6073 H   0  0  0  0  0  0  0  0  0  0  0  0
   36.0077   25.7342   39.0527 H   0  0  0  0  0  0  0  0  0  0  0  0
   37.7919   25.5266   39.0527 H   0  0  0  0  0  0  0  0  0  0  0  0
   35.2259   28.2689   40.2864 H   0  0  0  0  0  0  0  0  0  0  0  0
   35.8463   28.9872   38.7613 H   0  0  0  0  0  0  0  0  0  0  0  0
   35.1746   27.3212   38.7613 H   0  0  0  0  0  0  0  0  0  0  0  0
  1  6  2  0
  2  1  1  0
  3  2  2  0
  3  4  1  0
  4  5  2  0
  5  6  1  0
  7  8  1  0
  7  2  1  0
  8  9  2  0
  9 11  1  0
 10  8  1  0
 12  3  1  0
 13 12  1  0
 14 12  1  0
 15 12  1  0
  1 16  1  0
  5 17  1  0
  7 18  1  0
 10 19  1  0
 10 20  1  0
 13 21  1  0
 13 22  1  0
 13 23  1  0
 14 24  1  0
 14 25  1  0
 14 26  1  0
 15 27  1  0
 15 28  1  0
 15 29  1  0
M  ISO  8  16  14  17  14  21   8  22   8  23   8  24   8  25   8  26   8
M  ISO  3  27   8  28   8  29   8
M  END
>  <minimizedAffinity>  (1) 
-4.55453491

>  <minimizedRMSD>  (1) 
0.375503957

$$$$
