
     RDKit          3D

 18 18  0  0  0  0  0  0  0  0999 V2000
   38.6730   29.2800   42.5130 C   0  0  0  0  0  0  0  0  0  0  0  0
   37.8760   29.1410   41.3320 C   0  0  0  0  0  0  0  0  0  0  0  0
   37.3740   27.8730   41.1200 C   0  0  0  0  0  0  0  0  0  0  0  0
   37.6490   26.8620   42.0050 N   0  0  0  0  0  0  0  0  0  0  0  0
   38.4040   27.0550   43.0970 C   0  0  0  0  0  0  0  0  0  0  0  0
   38.9130   28.2680   43.3440 N   0  0  0  0  0  0  0  0  0  0  0  0
   37.6750   30.2710   40.5070 N   0  0  0  0  0  0  0  0  0  0  0  0
   36.7550   31.3180   40.7860 C   0  0  0  0  0  0  0  0  0  0  0  0
   35.6070   30.9400   41.3090 N   0  0  0  0  0  0  0  0  0  0  0  0
   37.1860   32.6470   40.4660 N   0  0  0  0  0  0  0  0  0  0  0  0
   34.8830   31.6340   41.5580 H   0  0  0  0  0  0  0  0  0  0  0  0
   36.5980   27.7070   39.9850 O   0  0  0  0  0  0  0  0  0  0  0  0
   39.1055   30.2648   42.7436 H   0  0  0  0  0  0  0  0  0  0  0  0
   38.6037   26.2208   43.7857 H   0  0  0  0  0  0  0  0  0  0  0  0
   38.2336   30.3405   39.6444 H   0  0  0  0  0  0  0  0  0  0  0  0
   36.5632   33.4476   40.6453 H   0  0  0  0  0  0  0  0  0  0  0  0
   38.1185   32.8015   40.0567 H   0  0  0  0  0  0  0  0  0  0  0  0
   36.2087   26.8209   39.7768 H   0  0  0  0  0  0  0  0  0  0  0  0
  1  6  2  0
  2  1  1  0
  3  2  2  0
  3  4  1  0
  4  5  2  0
  5  6  1  0
  7  8  1  0
  7  2  1  0
  8  9  2  0
  9 11  1  0
 10  8  1  0
 12  3  1  0
  1 13  1  0
  5 14  1  0
  7 15  1  0
 10 16  1  0
 10 17  1  0
 12 18  1  0
M  ISO  3  13  14  14  14  18   3
M  END
>  <minimizedAffinity>  (1) 
-4.13811111

>  <minimizedRMSD>  (1) 
0.0515219606

$$$$
