
     RDKit          3D

 40 42  0  0  0  0  0  0  0  0999 V2000
   38.1610   29.1850   41.1850 C   0  0  0  0  0  0  0  0  0  0  0  0
   38.7860   28.5680   42.3280 C   0  0  0  0  0  0  0  0  0  0  0  0
   40.0000   29.1180   42.6700 C   0  0  0  0  0  0  0  0  0  0  0  0
   40.5500   30.1440   41.9910 N   0  0  0  0  0  0  0  0  0  0  0  0
   39.9250   30.6890   40.9270 C   0  0  0  0  0  0  0  0  0  0  0  0
   38.7400   30.2070   40.5340 N   0  0  0  0  0  0  0  0  0  0  0  0
   38.0840   27.4990   42.9360 N   0  0  0  0  0  0  0  0  0  0  0  0
   36.9570   27.6380   43.7550 C   0  0  0  0  0  0  0  0  0  0  0  0
   36.8700   28.7160   44.4980 N   0  0  0  0  0  0  0  0  0  0  0  0
   36.0330   26.5290   43.6470 N   0  0  0  0  0  0  0  0  0  0  0  0
   36.0410   28.8900   45.0890 H   0  0  0  0  0  0  0  0  0  0  0  0
   40.6500   31.7880   40.3030 C   0  0  0  0  0  0  0  0  0  0  0  0
   40.8470   33.0730   40.7560 C   0  0  0  0  0  0  0  0  0  0  0  0
   41.6050   33.7820   39.8270 C   0  0  0  0  0  0  0  0  0  0  0  0
   41.8320   32.8600   38.8350 C   0  0  0  0  0  0  0  0  0  0  0  0
   41.2740   31.7320   39.1370 O   0  0  0  0  0  0  0  0  0  0  0  0
   42.0060   35.1860   39.9840 C   0  0  0  0  0  0  0  0  0  0  0  0
   40.9030   36.1440   39.5880 C   0  0  0  0  0  0  0  0  0  0  0  0
   40.3500   36.6700   40.9040 C   0  0  0  0  0  0  0  0  0  0  0  0
   41.6250   36.7590   41.7500 C   0  0  0  0  0  0  0  0  0  0  0  0
   42.3950   35.4930   41.3910 C   0  0  0  0  0  0  0  0  0  0  0  0
   42.6130   33.1550   37.6060 C   0  0  0  0  0  0  0  0  0  0  0  0
   42.5940   32.0420   36.7550 F   0  0  0  0  0  0  0  0  0  0  0  0
   42.0890   34.2470   36.9720 F   0  0  0  0  0  0  0  0  0  0  0  0
   43.9480   33.3490   37.9090 F   0  0  0  0  0  0  0  0  0  0  0  0
   37.1869   28.8099   40.8378 H   0  0  0  0  0  0  0  0  0  0  0  0
   40.5433   28.7037   43.5321 H   0  0  0  0  0  0  0  0  0  0  0  0
   38.4296   26.5444   42.7621 H   0  0  0  0  0  0  0  0  0  0  0  0
   35.1672   26.5239   44.2049 H   0  0  0  0  0  0  0  0  0  0  0  0
   36.2413   25.7450   43.0123 H   0  0  0  0  0  0  0  0  0  0  0  0
   40.4649   33.4774   41.7049 H   0  0  0  0  0  0  0  0  0  0  0  0
   42.8685   35.3226   39.3151 H   0  0  0  0  0  0  0  0  0  0  0  0
   41.3056   36.9679   38.9805 H   0  0  0  0  0  0  0  0  0  0  0  0
   40.1283   35.6547   38.9794 H   0  0  0  0  0  0  0  0  0  0  0  0
   39.8804   37.6567   40.7780 H   0  0  0  0  0  0  0  0  0  0  0  0
   39.5599   36.0435   41.3437 H   0  0  0  0  0  0  0  0  0  0  0  0
   42.2051   37.6566   41.4896 H   0  0  0  0  0  0  0  0  0  0  0  0
   41.4141   36.8352   42.8269 H   0  0  0  0  0  0  0  0  0  0  0  0
   42.1115   34.6663   42.0590 H   0  0  0  0  0  0  0  0  0  0  0  0
   43.4815   35.6278   41.4977 H   0  0  0  0  0  0  0  0  0  0  0  0
  1  2  2  0
  2  3  1  0
  2  7  1  0
  4  3  2  0
  5  4  1  0
  6  5  2  0
  6  1  1  0
  7  8  1  0
  8  9  2  0
  9 11  1  0
 10  8  1  0
 12 13  2  0
 12  5  1  0
 14 17  1  0
 14 13  1  0
 15 16  1  0
 15 14  2  0
 16 12  1  0
 17 21  1  0
 18 17  1  0
 18 19  1  0
 19 20  1  0
 21 20  1  0
 22 25  1  0
 22 15  1  0
 23 22  1  0
 24 22  1  0
  1 26  1  0
  3 27  1  0
  7 28  1  0
 10 29  1  0
 10 30  1  0
 13 31  1  0
 17 32  1  0
 18 33  1  0
 18 34  1  0
 19 35  1  0
 19 36  1  0
 20 37  1  0
 20 38  1  0
 21 39  1  0
 21 40  1  0
M  ISO  8  26  14  27  14  31  14  32  13  33  13  34  13  35  13  36  13
M  ISO  4  37  13  38  13  39  13  40  13
M  END
>  <minimizedAffinity>  (1) 
-5.09780598

>  <minimizedRMSD>  (1) 
3.58721066

$$$$
