
     RDKit          3D

 30 31  0  0  0  0  0  0  0  0999 V2000
   38.4730   29.3490   42.6530 C   0  0  0  0  0  0  0  0  0  0  0  0
   37.8920   29.1810   41.3490 C   0  0  0  0  0  0  0  0  0  0  0  0
   37.5890   27.8750   41.0090 C   0  0  0  0  0  0  0  0  0  0  0  0
   37.8540   26.8660   41.9040 N   0  0  0  0  0  0  0  0  0  0  0  0
   38.3940   27.0790   43.1020 C   0  0  0  0  0  0  0  0  0  0  0  0
   38.7050   28.3360   43.4750 N   0  0  0  0  0  0  0  0  0  0  0  0
   37.6850   30.3000   40.5250 N   0  0  0  0  0  0  0  0  0  0  0  0
   36.7410   31.3250   40.7790 C   0  0  0  0  0  0  0  0  0  0  0  0
   35.6010   30.9210   41.2700 N   0  0  0  0  0  0  0  0  0  0  0  0
   37.1520   32.6770   40.4690 N   0  0  0  0  0  0  0  0  0  0  0  0
   34.8350   31.5800   41.4810 H   0  0  0  0  0  0  0  0  0  0  0  0
   37.0120   27.4750   39.7670 C   0  0  0  0  0  0  0  0  0  0  0  0
   36.5940   25.9980   39.8750 C   0  0  0  0  0  0  0  0  0  0  0  0
   36.0400   25.7740   38.4660 C   0  0  0  0  0  0  0  0  0  0  0  0
   36.7650   26.7460   37.5800 C   0  0  0  0  0  0  0  0  0  0  0  0
   37.7800   27.4420   38.5190 C   0  0  0  0  0  0  0  0  0  0  0  0
   38.7369   30.3645   42.9834 H   0  0  0  0  0  0  0  0  0  0  0  0
   38.5848   26.2357   43.7820 H   0  0  0  0  0  0  0  0  0  0  0  0
   38.2612   30.3808   39.6751 H   0  0  0  0  0  0  0  0  0  0  0  0
   36.5060   33.4622   40.6335 H   0  0  0  0  0  0  0  0  0  0  0  0
   38.0906   32.8544   40.0838 H   0  0  0  0  0  0  0  0  0  0  0  0
   36.2637   28.2748   39.6653 H   0  0  0  0  0  0  0  0  0  0  0  0
   37.4540   25.3447   40.0840 H   0  0  0  0  0  0  0  0  0  0  0  0
   35.8901   25.7745   40.6902 H   0  0  0  0  0  0  0  0  0  0  0  0
   36.2319   24.7414   38.1390 H   0  0  0  0  0  0  0  0  0  0  0  0
   34.9516   25.9290   38.4304 H   0  0  0  0  0  0  0  0  0  0  0  0
   37.2855   26.2181   36.7674 H   0  0  0  0  0  0  0  0  0  0  0  0
   36.0830   27.4612   37.0968 H   0  0  0  0  0  0  0  0  0  0  0  0
   38.7034   26.8538   38.6260 H   0  0  0  0  0  0  0  0  0  0  0  0
   38.1278   28.4252   38.1692 H   0  0  0  0  0  0  0  0  0  0  0  0
  1  6  2  0
  2  1  1  0
  3  2  2  0
  3  4  1  0
  4  5  2  0
  5  6  1  0
  7  8  1  0
  7  2  1  0
  8  9  2  0
  9 11  1  0
 10  8  1  0
 12 13  1  0
 12  3  1  0
 14 13  1  0
 15 14  1  0
 15 16  1  0
 16 12  1  0
  1 17  1  0
  5 18  1  0
  7 19  1  0
 10 20  1  0
 10 21  1  0
 12 22  1  0
 13 23  1  0
 13 24  1  0
 14 25  1  0
 14 26  1  0
 15 27  1  0
 15 28  1  0
 16 29  1  0
 16 30  1  0
M  ISO  8  17  14  18  14  22  13  23  13  24  13  25  13  26  13  27  13
M  ISO  3  28  13  29  13  30  13
M  END
>  <minimizedAffinity>  (1) 
-4.69016552

>  <minimizedRMSD>  (1) 
0.507130802

$$$$
