
     RDKit          3D

 41 43  0  0  0  0  0  0  0  0999 V2000
   38.4403   29.3421   42.6720 C   0  0  0  0  0  0  0  0  0  0  0  0
   37.8913   29.1757   41.3410 C   0  0  0  0  0  0  0  0  0  0  0  0
   37.6310   27.8910   40.9773 C   0  0  0  0  0  0  0  0  0  0  0  0
   37.9027   26.8718   41.8792 N   0  0  0  0  0  0  0  0  0  0  0  0
   38.4069   27.0841   43.0920 C   0  0  0  0  0  0  0  0  0  0  0  0
   38.6775   28.3308   43.4893 N   0  0  0  0  0  0  0  0  0  0  0  0
   37.7206   30.3050   40.5458 N   0  0  0  0  0  0  0  0  0  0  0  0
   36.7383   31.3172   40.7840 C   0  0  0  0  0  0  0  0  0  0  0  0
   35.6014   30.9188   41.2709 N   0  0  0  0  0  0  0  0  0  0  0  0
   37.1408   32.6815   40.4662 N   0  0  0  0  0  0  0  0  0  0  0  0
   34.8408   31.5811   41.4752 H   0  0  0  0  0  0  0  0  0  0  0  0
   36.9651   27.4681   39.7810 C   0  0  2  0  0  0  0  0  0  0  0  0
   36.5532   26.0253   39.8747 C   0  0  0  0  0  0  0  0  0  0  0  0
   36.0438   25.7694   38.4721 C   0  0  0  0  0  0  0  0  0  0  0  0
   36.7642   26.7173   37.5886 C   0  0  0  0  0  0  0  0  0  0  0  0
   37.7941   27.4448   38.5136 C   0  0  1  0  0  0  0  0  0  0  0  0
   38.6686   30.3423   43.0175 H   0  0  0  0  0  0  0  0  0  0  0  0
   38.6033   26.2609   43.7671 H   0  0  0  0  0  0  0  0  0  0  0  0
   38.3367   30.5156   39.7314 H   0  0  0  0  0  0  0  0  0  0  0  0
   37.1700   33.1885   41.3902 H   0  0  0  0  0  0  0  0  0  0  0  0
   37.3523   33.0607   39.5142 H   0  0  0  0  0  0  0  0  0  0  0  0
   36.1649   28.1530   39.4802 H   0  0  0  0  0  0  0  0  0  0  0  0
   37.3846   25.3616   40.1502 H   0  0  0  0  0  0  0  0  0  0  0  0
   35.6854   25.8921   40.5877 H   0  0  0  0  0  0  0  0  0  0  0  0
   36.2459   24.7004   38.1772 H   0  0  0  0  0  0  0  0  0  0  0  0
   34.9628   25.9782   38.4279 H   0  0  0  0  0  0  0  0  0  0  0  0
   36.1282   27.4162   37.0554 H   0  0  0  0  0  0  0  0  0  0  0  0
   37.4215   26.1771   36.8438 H   0  0  0  0  0  0  0  0  0  0  0  0
   38.7070   26.8645   38.5866 H   0  0  0  0  0  0  0  0  0  0  0  0
   37.9572   28.6964   37.8276 N   0  0  0  0  0  0  0  0  0  0  0  0
   37.3756   28.9402   36.6258 C   0  0  0  0  0  0  0  0  0  0  0  0
   37.5854   30.1547   35.9918 C   0  0  0  0  0  0  0  0  0  0  0  0
   38.4020   31.0746   36.6455 C   0  0  0  0  0  0  0  0  0  0  0  0
   38.5750   32.3102   35.9307 N   0  0  0  0  0  0  0  0  0  0  0  0
   38.9733   30.8149   37.8432 N   0  0  0  0  0  0  0  0  0  0  0  0
   38.7552   29.6171   38.4488 C   0  0  0  0  0  0  0  0  0  0  0  0
   39.2815   29.3667   39.5612 O   0  0  0  0  0  0  0  0  0  0  0  0
   36.7374   28.2285   36.1246 H   0  0  0  0  0  0  0  0  0  0  0  0
   37.1185   30.3367   35.0377 H   0  0  0  0  0  0  0  0  0  0  0  0
   39.5946   32.2619   35.6708 H   0  0  0  0  0  0  0  0  0  0  0  0
   39.3666   32.8131   35.4376 H   0  0  0  0  0  0  0  0  0  0  0  0
  1  6  2  0
  2  1  1  0
  3  2  2  0
  3  4  1  0
  4  5  2  0
  5  6  1  0
  7  8  1  0
  7  2  1  0
  8  9  2  0
  9 11  1  0
 10  8  1  0
 12 13  1  0
 12  3  1  0
 14 13  1  0
 15 14  1  0
 15 16  1  0
 16 12  1  0
  1 17  1  0
  5 18  1  0
  7 19  1  0
 10 20  1  0
 10 21  1  0
 12 22  1  6
 13 23  1  0
 13 24  1  0
 14 25  1  0
 14 26  1  0
 15 27  1  0
 15 28  1  0
 16 29  1  1
 30 31  1  0
 31 32  2  0
 32 33  1  0
 33 34  1  0
 33 35  2  0
 35 36  1  0
 36 37  2  0
 36 30  1  0
 31 38  1  0
 32 39  1  0
 34 40  1  0
 34 41  1  0
 16 30  1  0
M  END
>  <DihAtoms>  (1) 
14,15,29,30

>  <DihDeg>  (1) 
54.70155918577281

$$$$
