
     RDKit          3D

 44 47  0  0  1  0  0  0  0  0999 V2000
   37.1200   27.6010   39.6480 C   0  0  2  0  0  0  0  0  0  0  0  0
   36.5210   26.1980   39.6860 C   0  0  0  0  0  0  0  0  0  0  0  0
   36.1240   26.0210   38.2310 C   0  0  0  0  0  0  0  0  0  0  0  0
   37.0590   26.8720   37.4350 C   0  0  0  0  0  0  0  0  0  0  0  0
   37.9940   27.4660   38.4830 C   0  0  1  0  0  0  0  0  0  0  0  0
   39.0860   28.2110   38.0140 C   0  0  0  0  0  0  0  0  0  0  0  0
   39.2040   29.5770   38.1010 N   0  0  0  0  0  0  0  0  0  0  0  0
   40.2420   30.2920   37.6860 C   0  0  0  0  0  0  0  0  0  0  0  0
   41.3210   29.7370   37.1180 N   0  0  0  0  0  0  0  0  0  0  0  0
   41.3440   28.4110   36.9680 C   0  0  0  0  0  0  0  0  0  0  0  0
   42.4350   27.8170   36.3800 C   0  0  0  0  0  0  0  0  0  0  0  0
   42.4710   26.4490   36.2070 C   0  0  0  0  0  0  0  0  0  0  0  0
   41.4070   25.6770   36.6260 C   0  0  0  0  0  0  0  0  0  0  0  0
   40.3410   26.3310   37.2090 C   0  0  0  0  0  0  0  0  0  0  0  0
   40.2490   27.7060   37.4120 C   0  0  0  0  0  0  0  0  0  0  0  0
   38.3250   29.2950   42.7490 C   0  0  0  0  0  0  0  0  0  0  0  0
   37.8920   29.2100   41.3670 C   0  0  0  0  0  0  0  0  0  0  0  0
   37.6700   27.9490   40.9110 C   0  0  0  0  0  0  0  0  0  0  0  0
   37.8710   26.8890   41.7740 N   0  0  0  0  0  0  0  0  0  0  0  0
   38.2680   27.0150   43.0320 C   0  0  0  0  0  0  0  0  0  0  0  0
   38.4990   28.2420   43.5230 N   0  0  0  0  0  0  0  0  0  0  0  0
   37.7860   30.3840   40.6260 N   0  0  0  0  0  0  0  0  0  0  0  0
   36.7750   31.3760   40.8140 C   0  0  0  0  0  0  0  0  0  0  0  0
   35.6060   30.9440   41.1630 N   0  0  0  0  0  0  0  0  0  0  0  0
   37.2060   32.7550   40.6070 N   0  0  0  0  0  0  0  0  0  0  0  0
   34.8170   31.5830   41.3310 H   0  0  0  0  0  0  0  0  0  0  0  0
   36.4526   28.4653   39.5158 H   0  0  0  0  0  0  0  0  0  0  0  0
   37.2636   25.4487   39.9974 H   0  0  0  0  0  0  0  0  0  0  0  0
   35.6957   26.0735   40.4025 H   0  0  0  0  0  0  0  0  0  0  0  0
   36.2231   24.9663   37.9347 H   0  0  0  0  0  0  0  0  0  0  0  0
   35.0768   26.3132   38.0638 H   0  0  0  0  0  0  0  0  0  0  0  0
   37.6196   26.2647   36.7092 H   0  0  0  0  0  0  0  0  0  0  0  0
   36.5370   27.6410   36.8466 H   0  0  0  0  0  0  0  0  0  0  0  0
   38.8735   26.9900   38.9411 H   0  0  0  0  0  0  0  0  0  0  0  0
   40.2155   31.3843   37.8135 H   0  0  0  0  0  0  0  0  0  0  0  0
   43.2821   28.4344   36.0463 H   0  0  0  0  0  0  0  0  0  0  0  0
   43.3451   25.9751   35.7365 H   0  0  0  0  0  0  0  0  0  0  0  0
   41.4085   24.5842   36.5004 H   0  0  0  0  0  0  0  0  0  0  0  0
   39.4926   25.7148   37.5414 H   0  0  0  0  0  0  0  0  0  0  0  0
   38.5184   30.2911   43.1737 H   0  0  0  0  0  0  0  0  0  0  0  0
   38.4062   26.1260   43.6649 H   0  0  0  0  0  0  0  0  0  0  0  0
   38.4867   30.5492   39.8894 H   0  0  0  0  0  0  0  0  0  0  0  0
   36.5347   33.5274   40.7238 H   0  0  0  0  0  0  0  0  0  0  0  0
   38.1814   32.9557   40.3441 H   0  0  0  0  0  0  0  0  0  0  0  0
  1  2  1  0
  1 18  1  0
  3  2  1  0
  4  3  1  0
  4  5  1  0
  5  1  1  0
  6  7  2  0
  6  5  1  0
  8  7  1  0
  9  8  2  0
 10  9  1  0
 10 15  2  0
 11 10  1  0
 12 11  2  0
 12 13  1  0
 13 14  2  0
 14 15  1  0
 15  6  1  0
 16 21  2  0
 17 16  1  0
 18 17  2  0
 18 19  1  0
 19 20  2  0
 20 21  1  0
 22 23  1  0
 22 17  1  0
 23 24  2  0
 24 26  1  0
 25 23  1  0
  1 27  1  6
  2 28  1  0
  2 29  1  0
  3 30  1  0
  3 31  1  0
  4 32  1  0
  4 33  1  0
  5 34  1  1
  8 35  1  0
 11 36  1  0
 12 37  1  0
 13 38  1  0
 14 39  1  0
 16 40  1  0
 20 41  1  0
 22 42  1  0
 25 43  1  0
 25 44  1  0
M  ISO  8  27  13  28  13  29  13  30  13  31  13  32  13  33  13  34  13
M  ISO  7  35  14  36  14  37  14  38  14  39  14  40  14  41  14
M  END
>  <minimizedAffinity>  (1) 
-5.63670301

>  <minimizedRMSD>  (1) 
1.11973798

$$$$
