
     RDKit          3D

 37 39  0  0  1  0  0  0  0  0999 V2000
   36.9260   27.5090   39.8520 C   0  0  2  0  0  0  0  0  0  0  0  0
   36.5750   26.0470   39.9020 C   0  0  0  0  0  0  0  0  0  0  0  0
   35.9890   25.8390   38.5170 C   0  0  0  0  0  0  0  0  0  0  0  0
   36.6410   26.8460   37.6430 C   0  0  0  0  0  0  0  0  0  0  0  0
   37.7080   27.5520   38.5500 C   0  0  1  0  0  0  0  0  0  0  0  0
   38.4950   29.3350   42.7170 C   0  0  0  0  0  0  0  0  0  0  0  0
   37.9140   29.1880   41.3970 C   0  0  0  0  0  0  0  0  0  0  0  0
   37.6260   27.9150   41.0330 C   0  0  0  0  0  0  0  0  0  0  0  0
   37.9030   26.8870   41.9210 N   0  0  0  0  0  0  0  0  0  0  0  0
   38.4370   27.0690   43.1200 C   0  0  0  0  0  0  0  0  0  0  0  0
   38.7380   28.3230   43.5260 N   0  0  0  0  0  0  0  0  0  0  0  0
   37.7600   30.3280   40.6110 N   0  0  0  0  0  0  0  0  0  0  0  0
   36.7360   31.3090   40.8060 C   0  0  0  0  0  0  0  0  0  0  0  0
   35.5880   30.8740   41.2200 N   0  0  0  0  0  0  0  0  0  0  0  0
   37.1090   32.6880   40.5320 N   0  0  0  0  0  0  0  0  0  0  0  0
   34.8040   31.5120   41.4140 H   0  0  0  0  0  0  0  0  0  0  0  0
   37.8130   28.8650   37.8960 C   0  0  0  0  0  0  0  0  0  0  0  0
   36.7140   29.5120   37.3320 C   0  0  0  0  0  0  0  0  0  0  0  0
   37.2660   30.7030   36.8490 C   0  0  0  0  0  0  0  0  0  0  0  0
   38.5870   30.7010   37.1360 N   0  0  0  0  0  0  0  0  0  0  0  0
   38.9470   29.5790   37.7810 N   0  0  0  0  0  0  0  0  0  0  0  0
   36.0906   28.2247   39.8506 H   0  0  0  0  0  0  0  0  0  0  0  0
   37.4670   25.4231   40.0605 H   0  0  0  0  0  0  0  0  0  0  0  0
   35.8990   25.7721   40.7251 H   0  0  0  0  0  0  0  0  0  0  0  0
   36.2073   24.8224   38.1581 H   0  0  0  0  0  0  0  0  0  0  0  0
   34.8952   25.9552   38.5201 H   0  0  0  0  0  0  0  0  0  0  0  0
   37.1270   26.3559   36.7865 H   0  0  0  0  0  0  0  0  0  0  0  0
   35.9153   27.5621   37.2301 H   0  0  0  0  0  0  0  0  0  0  0  0
   38.7303   27.1750   38.7011 H   0  0  0  0  0  0  0  0  0  0  0  0
   38.7473   30.3482   43.0630 H   0  0  0  0  0  0  0  0  0  0  0  0
   38.6332   26.2094   43.7777 H   0  0  0  0  0  0  0  0  0  0  0  0
   38.4264   30.4744   39.8394 H   0  0  0  0  0  0  0  0  0  0  0  0
   36.4180   33.4422   40.6528 H   0  0  0  0  0  0  0  0  0  0  0  0
   38.0642   32.9103   40.2172 H   0  0  0  0  0  0  0  0  0  0  0  0
   35.6698   29.1699   37.2798 H   0  0  0  0  0  0  0  0  0  0  0  0
   36.7201   31.5023   36.3265 H   0  0  0  0  0  0  0  0  0  0  0  0
   39.2352   31.4631   36.8912 H   0  0  0  0  0  0  0  0  0  0  0  0
  1  2  1  0
  1  8  1  0
  3  2  1  0
  4  3  1  0
  4  5  1  0
  5  1  1  0
  6 11  2  0
  7  6  1  0
  8  7  2  0
  8  9  1  0
  9 10  2  0
 10 11  1  0
 12 13  1  0
 12  7  1  0
 13 14  2  0
 14 16  1  0
 15 13  1  0
 17  5  1  0
 18 17  1  0
 19 20  1  0
 19 18  2  0
 20 21  1  0
 21 17  2  0
  1 22  1  6
  2 23  1  0
  2 24  1  0
  3 25  1  0
  3 26  1  0
  4 27  1  0
  4 28  1  0
  5 29  1  1
  6 30  1  0
 10 31  1  0
 12 32  1  0
 15 33  1  0
 15 34  1  0
 18 35  1  0
 19 36  1  0
 20 37  1  0
M  ISO  8  22  13  23  13  24  13  25  13  26  13  27  13  28  13  29  13
M  ISO  5  30  14  31  14  35  14  36  14  37   9
M  END
>  <minimizedAffinity>  (1) 
-5.53890562

>  <minimizedRMSD>  (1) 
0.222327188

$$$$
