
     RDKit          3D

 43 45  0  0  1  0  0  0  0  0999 V2000
   37.2350   26.9490   40.5320 C   0  0  2  0  0  0  0  0  0  0  0  0
   37.2260   25.5740   41.1420 C   0  0  0  0  0  0  0  0  0  0  0  0
   36.3630   24.8190   40.1460 C   0  0  0  0  0  0  0  0  0  0  0  0
   36.5520   25.5050   38.8420 C   0  0  0  0  0  0  0  0  0  0  0  0
   37.6180   26.6180   39.1060 C   0  0  1  0  0  0  0  0  0  0  0  0
   37.2820   27.5870   38.1000 N   0  0  0  0  0  0  0  0  0  0  0  0
   36.0140   27.8700   37.7780 C   0  0  0  0  0  0  0  0  0  0  0  0
   35.8040   28.8020   36.7780 C   0  0  0  0  0  0  0  0  0  0  0  0
   34.3970   29.1400   36.3940 C   0  0  0  0  0  0  0  0  0  0  0  0
   36.8660   29.4320   36.1200 C   0  0  0  0  0  0  0  0  0  0  0  0
   36.6390   30.2600   35.2290 O   0  0  0  0  0  0  0  0  0  0  0  0
   38.1100   29.0730   36.5220 N   0  0  0  0  0  0  0  0  0  0  0  0
   38.3630   28.1670   37.4970 C   0  0  0  0  0  0  0  0  0  0  0  0
   39.5390   27.8970   37.8030 O   0  0  0  0  0  0  0  0  0  0  0  0
   39.0330   29.8410   42.0920 C   0  0  0  0  0  0  0  0  0  0  0  0
   38.1520   29.1810   41.1500 C   0  0  0  0  0  0  0  0  0  0  0  0
   38.1150   27.8270   41.2470 C   0  0  0  0  0  0  0  0  0  0  0  0
   38.8980   27.2050   42.2070 N   0  0  0  0  0  0  0  0  0  0  0  0
   39.6900   27.8560   43.0480 C   0  0  0  0  0  0  0  0  0  0  0  0
   39.7560   29.1940   42.9870 N   0  0  0  0  0  0  0  0  0  0  0  0
   37.4690   29.9570   40.2150 N   0  0  0  0  0  0  0  0  0  0  0  0
   36.5280   30.9800   40.5520 C   0  0  0  0  0  0  0  0  0  0  0  0
   35.7940   30.7690   41.6020 N   0  0  0  0  0  0  0  0  0  0  0  0
   36.5190   32.1470   39.6810 N   0  0  0  0  0  0  0  0  0  0  0  0
   35.0980   31.4590   41.9190 H   0  0  0  0  0  0  0  0  0  0  0  0
   36.2944   27.5178   40.5738 H   0  0  0  0  0  0  0  0  0  0  0  0
   38.2399   25.1513   41.1996 H   0  0  0  0  0  0  0  0  0  0  0  0
   36.8570   25.5405   42.1777 H   0  0  0  0  0  0  0  0  0  0  0  0
   36.6868   23.7700   40.0770 H   0  0  0  0  0  0  0  0  0  0  0  0
   35.3059   24.8134   40.4501 H   0  0  0  0  0  0  0  0  0  0  0  0
   35.6060   25.9516   38.5019 H   0  0  0  0  0  0  0  0  0  0  0  0
   36.8772   24.8066   38.0569 H   0  0  0  0  0  0  0  0  0  0  0  0
   38.7029   26.4496   39.0380 H   0  0  0  0  0  0  0  0  0  0  0  0
   35.1718   27.3804   38.2888 H   0  0  0  0  0  0  0  0  0  0  0  0
   33.7938   29.2849   37.3023 H   0  0  0  0  0  0  0  0  0  0  0  0
   34.3915   30.0650   35.7988 H   0  0  0  0  0  0  0  0  0  0  0  0
   33.9719   28.3184   35.7988 H   0  0  0  0  0  0  0  0  0  0  0  0
   38.9141   29.5174   36.0564 H   0  0  0  0  0  0  0  0  0  0  0  0
   39.1030   30.9383   42.0597 H   0  0  0  0  0  0  0  0  0  0  0  0
   40.2871   27.3038   43.7886 H   0  0  0  0  0  0  0  0  0  0  0  0
   37.6539   29.7824   39.2169 H   0  0  0  0  0  0  0  0  0  0  0  0
   35.8662   32.9221   39.8653 H   0  0  0  0  0  0  0  0  0  0  0  0
   37.1654   32.1973   38.8807 H   0  0  0  0  0  0  0  0  0  0  0  0
  1  2  1  0
  1 17  1  0
  3  2  1  0
  4  5  1  0
  4  3  1  0
  5  1  1  0
  6  5  1  0
  7  6  1  0
  8  7  2  0
  9  8  1  0
 10 12  1  0
 10  8  1  0
 11 10  2  0
 12 13  1  0
 13 14  2  0
 13  6  1  0
 15 20  2  0
 16 17  2  0
 16 15  1  0
 17 18  1  0
 18 19  2  0
 20 19  1  0
 21 22  1  0
 21 16  1  0
 22 23  2  0
 23 25  1  0
 24 22  1  0
  1 26  1  6
  2 27  1  0
  2 28  1  0
  3 29  1  0
  3 30  1  0
  4 31  1  0
  4 32  1  0
  5 33  1  1
  7 34  1  0
  9 35  1  0
  9 36  1  0
  9 37  1  0
 12 38  1  0
 15 39  1  0
 19 40  1  0
 21 41  1  0
 24 42  1  0
 24 43  1  0
M  ISO  8  26  13  27  13  28  13  29  13  30  13  31  13  32  13  33  13
M  ISO  7  34  14  35   8  36   8  37   8  38   9  39  14  40  14
M  END
>  <minimizedAffinity>  (1) 
-5.45072937

>  <minimizedRMSD>  (1) 
1.75255883

$$$$
