
     RDKit          3D

 42 43  0  0  1  0  0  0  0  0999 V2000
   36.9270   27.6330   39.7740 C   0  0  2  0  0  0  0  0  0  0  0  0
   36.6940   26.1660   39.8250 C   0  0  0  0  0  0  0  0  0  0  0  0
   35.9800   25.8930   38.5280 C   0  0  0  0  0  0  0  0  0  0  0  0
   36.2850   27.0520   37.6150 C   0  0  0  0  0  0  0  0  0  0  0  0
   37.3610   27.8690   38.3700 C   0  0  2  0  0  0  0  0  0  0  0  0
   38.8120   29.5530   42.3770 C   0  0  0  0  0  0  0  0  0  0  0  0
   38.0570   29.3870   41.1660 C   0  0  0  0  0  0  0  0  0  0  0  0
   37.7510   28.0930   40.8460 C   0  0  0  0  0  0  0  0  0  0  0  0
   38.1790   27.1010   41.6860 N   0  0  0  0  0  0  0  0  0  0  0  0
   38.8720   27.2890   42.7930 C   0  0  0  0  0  0  0  0  0  0  0  0
   39.1890   28.5430   43.1330 N   0  0  0  0  0  0  0  0  0  0  0  0
   37.6920   30.4990   40.3660 N   0  0  0  0  0  0  0  0  0  0  0  0
   36.7160   31.4490   40.7130 C   0  0  0  0  0  0  0  0  0  0  0  0
   35.6490   30.9460   41.2980 N   0  0  0  0  0  0  0  0  0  0  0  0
   37.0040   32.8290   40.3900 N   0  0  0  0  0  0  0  0  0  0  0  0
   34.8650   31.5510   41.5830 H   0  0  0  0  0  0  0  0  0  0  0  0
   38.7040   27.6170   37.9000 C   0  0  0  0  0  0  0  0  0  0  0  0
   39.5430   26.5830   38.5780 C   0  0  0  0  0  0  0  0  0  0  0  0
   38.6970   27.1600   36.4200 C   0  0  0  0  0  0  0  0  0  0  0  0
   39.5970   28.8430   37.8390 C   0  0  0  0  0  0  0  0  0  0  0  0
   36.0451   28.2604   39.9703 H   0  0  0  0  0  0  0  0  0  0  0  0
   37.6452   25.6159   39.8764 H   0  0  0  0  0  0  0  0  0  0  0  0
   36.1236   25.8475   40.7100 H   0  0  0  0  0  0  0  0  0  0  0  0
   36.3445   24.9547   38.0845 H   0  0  0  0  0  0  0  0  0  0  0  0
   34.8966   25.7881   38.6867 H   0  0  0  0  0  0  0  0  0  0  0  0
   35.3842   27.6598   37.4444 H   0  0  0  0  0  0  0  0  0  0  0  0
   36.6295   26.7233   36.6234 H   0  0  0  0  0  0  0  0  0  0  0  0
   37.4334   28.9543   38.2058 H   0  0  0  0  0  0  0  0  0  0  0  0
   39.0881   30.5716   42.6872 H   0  0  0  0  0  0  0  0  0  0  0  0
   39.1803   26.4383   43.4186 H   0  0  0  0  0  0  0  0  0  0  0  0
   38.1771   30.6194   39.4654 H   0  0  0  0  0  0  0  0  0  0  0  0
   36.3225   33.5654   40.6226 H   0  0  0  0  0  0  0  0  0  0  0  0
   37.8906   33.0754   39.9274 H   0  0  0  0  0  0  0  0  0  0  0  0
   39.4524   26.6947   39.6686 H   0  0  0  0  0  0  0  0  0  0  0  0
   39.1997   25.5807   38.2823 H   0  0  0  0  0  0  0  0  0  0  0  0
   40.5946   26.7125   38.2823 H   0  0  0  0  0  0  0  0  0  0  0  0
   38.6802   26.0610   36.3757 H   0  0  0  0  0  0  0  0  0  0  0  0
   37.8049   27.5610   35.9166 H   0  0  0  0  0  0  0  0  0  0  0  0
   39.6010   27.5335   35.9166 H   0  0  0  0  0  0  0  0  0  0  0  0
   39.8372   29.1728   38.8605 H   0  0  0  0  0  0  0  0  0  0  0  0
   40.5264   28.5935   37.3061 H   0  0  0  0  0  0  0  0  0  0  0  0
   39.0745   29.6511   37.3061 H   0  0  0  0  0  0  0  0  0  0  0  0
  1  2  1  0
  1  8  1  0
  3  2  1  0
  4  5  1  0
  4  3  1  0
  5  1  1  0
  6 11  2  0
  7  6  1  0
  8  7  2  0
  8  9  1  0
  9 10  2  0
 10 11  1  0
 12 13  1  0
 12  7  1  0
 13 14  2  0
 14 16  1  0
 15 13  1  0
 17  5  1  0
 17 18  1  0
 19 17  1  0
 20 17  1  0
  1 21  1  6
  2 22  1  0
  2 23  1  0
  3 24  1  0
  3 25  1  0
  4 26  1  0
  4 27  1  0
  5 28  1  6
  6 29  1  0
 10 30  1  0
 12 31  1  0
 15 32  1  0
 15 33  1  0
 18 34  1  0
 18 35  1  0
 18 36  1  0
 19 37  1  0
 19 38  1  0
 19 39  1  0
 20 40  1  0
 20 41  1  0
 20 42  1  0
M  ISO  8  21  13  22  13  23  13  24  13  25  13  26  13  27  13  28  13
M  ISO  8  29  14  30  14  34   8  35   8  36   8  37   8  38   8  39   8
M  ISO  3  40   8  41   8  42   8
M  END
>  <minimizedAffinity>  (1) 
-4.9560442

>  <minimizedRMSD>  (1) 
0.715595841

$$$$
