
     RDKit          3D

 37 39  0  0  1  0  0  0  0  0999 V2000
   38.8250   29.5400   42.3770 C   0  0  0  0  0  0  0  0  0  0  0  0
   38.0420   29.3560   41.1900 C   0  0  0  0  0  0  0  0  0  0  0  0
   37.7120   28.0680   40.8810 C   0  0  0  0  0  0  0  0  0  0  0  0
   38.1540   27.0580   41.7250 N   0  0  0  0  0  0  0  0  0  0  0  0
   38.8790   27.2910   42.8200 C   0  0  0  0  0  0  0  0  0  0  0  0
   39.2150   28.5450   43.1440 N   0  0  0  0  0  0  0  0  0  0  0  0
   36.8410   27.6120   39.8450 C   0  0  2  0  0  0  0  0  0  0  0  0
   36.7180   26.1240   39.8200 C   0  0  0  0  0  0  0  0  0  0  0  0
   35.8950   25.9090   38.5550 C   0  0  0  0  0  0  0  0  0  0  0  0
   36.1760   27.0920   37.6700 C   0  0  0  0  0  0  0  0  0  0  0  0
   37.3020   27.8750   38.4150 C   0  0  2  0  0  0  0  0  0  0  0  0
   38.6270   27.3160   38.0730 C   0  0  0  0  0  0  0  0  0  0  0  0
   39.8210   28.1510   38.0870 C   0  0  0  0  0  0  0  0  0  0  0  0
   39.2010   27.8250   36.7380 C   0  0  0  0  0  0  0  0  0  0  0  0
   37.6780   30.4610   40.3810 N   0  0  0  0  0  0  0  0  0  0  0  0
   36.7140   31.4280   40.7130 C   0  0  0  0  0  0  0  0  0  0  0  0
   35.6500   30.9400   41.3090 N   0  0  0  0  0  0  0  0  0  0  0  0
   36.9940   32.7980   40.3730 N   0  0  0  0  0  0  0  0  0  0  0  0
   34.8650   31.5430   41.6030 H   0  0  0  0  0  0  0  0  0  0  0  0
   39.1136   30.5630   42.6600 H   0  0  0  0  0  0  0  0  0  0  0  0
   39.2004   26.4531   43.4561 H   0  0  0  0  0  0  0  0  0  0  0  0
   35.9263   28.1685   40.0973 H   0  0  0  0  0  0  0  0  0  0  0  0
   37.7032   25.6404   39.7456 H   0  0  0  0  0  0  0  0  0  0  0  0
   36.2667   25.6957   40.7272 H   0  0  0  0  0  0  0  0  0  0  0  0
   36.1990   24.9774   38.0553 H   0  0  0  0  0  0  0  0  0  0  0  0
   34.8223   25.8226   38.7827 H   0  0  0  0  0  0  0  0  0  0  0  0
   35.2772   27.7160   37.5572 H   0  0  0  0  0  0  0  0  0  0  0  0
   36.4741   26.7942   36.6539 H   0  0  0  0  0  0  0  0  0  0  0  0
   37.4311   28.9424   38.1829 H   0  0  0  0  0  0  0  0  0  0  0  0
   38.4036   26.3482   38.5457 H   0  0  0  0  0  0  0  0  0  0  0  0
   39.7622   29.1772   38.4786 H   0  0  0  0  0  0  0  0  0  0  0  0
   40.8288   28.0366   38.5127 H   0  0  0  0  0  0  0  0  0  0  0  0
   39.7024   27.1328   36.0456 H   0  0  0  0  0  0  0  0  0  0  0  0
   38.8250   28.3959   35.8762 H   0  0  0  0  0  0  0  0  0  0  0  0
   38.1591   30.5637   39.4761 H   0  0  0  0  0  0  0  0  0  0  0  0
   36.3113   33.5349   40.6004 H   0  0  0  0  0  0  0  0  0  0  0  0
   37.8771   33.0416   39.9022 H   0  0  0  0  0  0  0  0  0  0  0  0
  1  6  2  0
  2  1  1  0
  3  2  2  0
  3  4  1  0
  4  5  2  0
  5  6  1  0
  7  3  1  0
  8  7  1  0
  9  8  1  0
 10 11  1  0
 10  9  1  0
 11  7  1  0
 12 13  1  0
 12 11  1  0
 14 12  1  0
 14 13  1  0
 15 16  1  0
 15  2  1  0
 16 17  2  0
 17 19  1  0
 18 16  1  0
  1 20  1  0
  5 21  1  0
  7 22  1  1
  8 23  1  0
  8 24  1  0
  9 25  1  0
  9 26  1  0
 10 27  1  0
 10 28  1  0
 11 29  1  6
 12 30  1  0
 13 31  1  0
 13 32  1  0
 14 33  1  0
 14 34  1  0
 15 35  1  0
 18 36  1  0
 18 37  1  0
M  ISO  8  20  14  21  14  22  13  23  13  24  13  25  13  26  13  27  13
M  ISO  7  28  13  29  13  30  13  31  13  32  13  33  13  34  13
M  END
>  <minimizedAffinity>  (1) 
-4.83695126

>  <minimizedRMSD>  (1) 
0.922162056

$$$$
