
     RDKit          3D

 25 26  0  0  0  0  0  0  0  0999 V2000
   37.6320   28.8960   43.5160 C   0  0  0  0  0  0  0  0  0  0  0  0
   37.4260   27.4970   43.5130 C   0  0  0  0  0  0  0  0  0  0  0  0
   37.2420   26.8890   42.2570 C   0  0  0  0  0  0  0  0  0  0  0  0
   37.2730   27.6550   41.1500 N   0  0  0  0  0  0  0  0  0  0  0  0
   37.4710   28.9810   41.1790 C   0  0  0  0  0  0  0  0  0  0  0  0
   37.6500   29.6060   42.3640 N   0  0  0  0  0  0  0  0  0  0  0  0
   37.0260   25.5040   42.0900 N   0  0  0  0  0  0  0  0  0  0  0  0
   37.5070   29.8130   40.0250 N   0  0  0  0  0  0  0  0  0  0  0  0
   37.3640   29.1760   38.8420 C   0  0  0  0  0  0  0  0  0  0  0  0
   37.3700   29.7950   37.6070 C   0  0  0  0  0  0  0  0  0  0  0  0
   37.2070   29.0150   36.3450 C   0  0  0  0  0  0  0  0  0  0  0  0
   37.5380   31.1700   37.6150 C   0  0  0  0  0  0  0  0  0  0  0  0
   37.5540   31.8050   36.5260 O   0  0  0  0  0  0  0  0  0  0  0  0
   37.6790   31.7890   38.8040 N   0  0  0  0  0  0  0  0  0  0  0  0
   37.6670   31.1490   39.9870 C   0  0  0  0  0  0  0  0  0  0  0  0
   37.7960   31.7080   41.1000 O   0  0  0  0  0  0  0  0  0  0  0  0
   37.7805   29.4173   44.4732 H   0  0  0  0  0  0  0  0  0  0  0  0
   37.4103   26.9133   44.4453 H   0  0  0  0  0  0  0  0  0  0  0  0
   36.8974   25.1130   41.1458 H   0  0  0  0  0  0  0  0  0  0  0  0
   36.9970   24.8845   42.9123 H   0  0  0  0  0  0  0  0  0  0  0  0
   37.2332   28.0840   38.8639 H   0  0  0  0  0  0  0  0  0  0  0  0
   36.9876   27.9650   36.5887 H   0  0  0  0  0  0  0  0  0  0  0  0
   36.3775   29.4363   35.7581 H   0  0  0  0  0  0  0  0  0  0  0  0
   38.1358   29.0688   35.7581 H   0  0  0  0  0  0  0  0  0  0  0  0
   37.8031   32.8115   38.8069 H   0  0  0  0  0  0  0  0  0  0  0  0
  2  1  2  0
  3  2  1  0
  4  5  1  0
  4  3  2  0
  5  6  2  0
  6  1  1  0
  7  3  1  0
  8  5  1  0
  9  8  1  0
 10 12  1  0
 10  9  2  0
 11 10  1  0
 12 14  1  0
 13 12  2  0
 14 15  1  0
 15  8  1  0
 15 16  2  0
  1 17  1  0
  2 18  1  0
  7 19  1  0
  7 20  1  0
  9 21  1  0
 11 22  1  0
 11 23  1  0
 11 24  1  0
 14 25  1  0
M  ISO  7  17  14  18  14  21  14  22   8  23   8  24   8  25   9
M  END
>  <minimizedAffinity>  (1) 
-4.47627926

>  <minimizedRMSD>  (1) 
1.98388004

$$$$
