
     RDKit          3D

 36 39  0  0  0  0  0  0  0  0999 V2000
   38.0260   29.1170   43.3090 C   0  0  0  0  0  0  0  0  0  0  0  0
   37.9650   27.7410   43.0390 C   0  0  0  0  0  0  0  0  0  0  0  0
   38.5360   27.3180   41.8340 C   0  0  0  0  0  0  0  0  0  0  0  0
   39.0970   28.2310   41.0230 N   0  0  0  0  0  0  0  0  0  0  0  0
   39.1400   29.5400   41.3090 C   0  0  0  0  0  0  0  0  0  0  0  0
   38.6030   29.9830   42.4550 N   0  0  0  0  0  0  0  0  0  0  0  0
   38.5590   25.9640   41.4080 N   0  0  0  0  0  0  0  0  0  0  0  0
   39.7320   30.5280   40.4600 N   0  0  0  0  0  0  0  0  0  0  0  0
   40.3170   30.0610   39.3310 C   0  0  0  0  0  0  0  0  0  0  0  0
   40.9400   30.8520   38.3900 C   0  0  0  0  0  0  0  0  0  0  0  0
   40.9540   32.2120   38.6370 C   0  0  0  0  0  0  0  0  0  0  0  0
   41.4970   33.0030   37.8340 O   0  0  0  0  0  0  0  0  0  0  0  0
   40.3680   32.6490   39.7590 N   0  0  0  0  0  0  0  0  0  0  0  0
   39.7640   31.8560   40.6690 C   0  0  0  0  0  0  0  0  0  0  0  0
   39.2150   32.2540   41.7200 O   0  0  0  0  0  0  0  0  0  0  0  0
   42.4800   36.1940   41.7370 N   0  0  0  0  0  0  0  0  0  0  0  0
   43.2560   35.0820   41.8460 C   0  0  0  0  0  0  0  0  0  0  0  0
   42.5760   34.0670   41.2420 N   0  0  0  0  0  0  0  0  0  0  0  0
   41.4160   34.5820   40.7840 C   0  0  0  0  0  0  0  0  0  0  0  0
   40.3350   34.0310   40.0950 C   0  0  0  0  0  0  0  0  0  0  0  0
   39.2800   34.8100   39.7590 N   0  0  0  0  0  0  0  0  0  0  0  0
   39.2240   36.1340   40.0690 C   0  0  0  0  0  0  0  0  0  0  0  0
   40.2670   36.6680   40.7350 N   0  0  0  0  0  0  0  0  0  0  0  0
   41.3330   35.9260   41.0860 C   0  0  0  0  0  0  0  0  0  0  0  0
   41.5560   30.2540   37.1790 C   0  0  0  0  0  0  0  0  0  0  0  0
   37.5903   29.4983   44.2443 H   0  0  0  0  0  0  0  0  0  0  0  0
   37.4937   27.0335   43.7371 H   0  0  0  0  0  0  0  0  0  0  0  0
   38.9949   25.7144   40.5088 H   0  0  0  0  0  0  0  0  0  0  0  0
   38.1398   25.2313   41.9981 H   0  0  0  0  0  0  0  0  0  0  0  0
   40.2931   28.9758   39.1530 H   0  0  0  0  0  0  0  0  0  0  0  0
   42.7370   37.1210   42.1050 H   0  0  0  0  0  0  0  0  0  0  0  0
   44.2422   35.0150   42.3286 H   0  0  0  0  0  0  0  0  0  0  0  0
   38.3564   36.7479   39.7854 H   0  0  0  0  0  0  0  0  0  0  0  0
   42.3152   29.5170   37.4797 H   0  0  0  0  0  0  0  0  0  0  0  0
   40.7790   29.7565   36.5800 H   0  0  0  0  0  0  0  0  0  0  0  0
   42.0302   31.0454   36.5800 H   0  0  0  0  0  0  0  0  0  0  0  0
  2  1  2  0
  3  2  1  0
  4  5  1  0
  4  3  2  0
  5  6  2  0
  6  1  1  0
  7  3  1  0
  8 14  1  0
  8  5  1  0
  9  8  1  0
 10 11  1  0
 10  9  2  0
 11 13  1  0
 12 11  2  0
 13 20  1  0
 13 14  1  0
 14 15  2  0
 16 17  1  0
 18 17  2  0
 19 24  2  0
 19 18  1  0
 20 19  1  0
 21 22  1  0
 21 20  2  0
 22 23  2  0
 23 24  1  0
 24 16  1  0
 25 10  1  0
  1 26  1  0
  2 27  1  0
  7 28  1  0
  7 29  1  0
  9 30  1  0
 16 31  1  0
 17 32  1  0
 22 33  1  0
 25 34  1  0
 25 35  1  0
 25 36  1  0
M  ISO  8  26  14  27  14  30  14  31   9  32  14  33  14  34   8  35   8
M  ISO  1  36   8
M  END
>  <minimizedAffinity>  (1) 
-6.57982349

>  <minimizedRMSD>  (1) 
2.75942445

$$$$
