
     RDKit          3D

 30 32  0  0  0  0  0  0  0  0999 V2000
   39.6500   27.7300   43.5060 C   0  0  0  0  0  0  0  0  0  0  0  0
   39.0730   26.4470   43.4200 C   0  0  0  0  0  0  0  0  0  0  0  0
   38.1560   26.2360   42.3750 C   0  0  0  0  0  0  0  0  0  0  0  0
   37.8890   27.2530   41.5360 N   0  0  0  0  0  0  0  0  0  0  0  0
   38.4550   28.4740   41.6390 C   0  0  0  0  0  0  0  0  0  0  0  0
   39.3380   28.7030   42.6320 N   0  0  0  0  0  0  0  0  0  0  0  0
   37.4940   25.0120   42.1530 N   0  0  0  0  0  0  0  0  0  0  0  0
   38.1900   29.5580   40.7690 N   0  0  0  0  0  0  0  0  0  0  0  0
   37.3150   29.3140   39.7690 C   0  0  0  0  0  0  0  0  0  0  0  0
   36.9260   30.2320   38.8210 C   0  0  0  0  0  0  0  0  0  0  0  0
   37.4840   31.4860   38.9200 C   0  0  0  0  0  0  0  0  0  0  0  0
   37.1930   32.3990   38.1010 O   0  0  0  0  0  0  0  0  0  0  0  0
   38.3480   31.7050   39.9180 N   0  0  0  0  0  0  0  0  0  0  0  0
   38.7160   30.8030   40.8310 C   0  0  0  0  0  0  0  0  0  0  0  0
   39.5170   30.9940   41.7620 O   0  0  0  0  0  0  0  0  0  0  0  0
   38.9830   32.9820   40.1040 C   0  0  0  0  0  0  0  0  0  0  0  0
   40.2130   33.4670   40.2800 N   0  0  0  0  0  0  0  0  0  0  0  0
   40.1640   34.7390   40.3920 O   0  0  0  0  0  0  0  0  0  0  0  0
   38.9410   35.1940   40.3030 C   0  0  0  0  0  0  0  0  0  0  0  0
   38.1920   34.0860   40.1210 N   0  0  0  0  0  0  0  0  0  0  0  0
   35.9560   29.8860   37.7510 C   0  0  0  0  0  0  0  0  0  0  0  0
   40.3732   27.9405   44.3077 H   0  0  0  0  0  0  0  0  0  0  0  0
   39.3273   25.6504   44.1347 H   0  0  0  0  0  0  0  0  0  0  0  0
   36.8322   24.9192   41.3692 H   0  0  0  0  0  0  0  0  0  0  0  0
   37.6719   24.2101   42.7745 H   0  0  0  0  0  0  0  0  0  0  0  0
   36.8808   28.3052   39.7082 H   0  0  0  0  0  0  0  0  0  0  0  0
   38.6013   36.2385   40.3627 H   0  0  0  0  0  0  0  0  0  0  0  0
   35.0127   29.5495   38.2060 H   0  0  0  0  0  0  0  0  0  0  0  0
   35.7667   30.7720   37.1272 H   0  0  0  0  0  0  0  0  0  0  0  0
   36.3701   29.0802   37.1272 H   0  0  0  0  0  0  0  0  0  0  0  0
  2  1  2  0
  3  2  1  0
  4  5  1  0
  4  3  2  0
  5  6  2  0
  6  1  1  0
  7  3  1  0
  8 14  1  0
  8  5  1  0
  9  8  1  0
 10 11  1  0
 10  9  2  0
 11 13  1  0
 12 11  2  0
 13 16  1  0
 13 14  1  0
 14 15  2  0
 16 20  1  0
 16 17  2  0
 17 18  1  0
 19 18  1  0
 20 19  2  0
 21 10  1  0
  1 22  1  0
  2 23  1  0
  7 24  1  0
  7 25  1  0
  9 26  1  0
 19 27  1  0
 21 28  1  0
 21 29  1  0
 21 30  1  0
M  ISO  7  22  14  23  14  26  14  27  14  28   8  29   8  30   8
M  END
>  <minimizedAffinity>  (1) 
-5.90767002

>  <minimizedRMSD>  (1) 
1.67556012

$$$$
