
     RDKit          3D

 38 40  0  0  1  0  0  0  0  0999 V2000
   40.5040   31.7270   39.3520 C   0  0  0  0  0  0  0  0  0  0  0  0
   40.3130   30.3860   39.6850 C   0  0  0  0  0  0  0  0  0  0  0  0
   38.9420   30.1650   39.8910 C   0  0  0  0  0  0  0  0  0  0  0  0
   38.4060   31.4090   39.6630 C   0  0  0  0  0  0  0  0  0  0  0  0
   39.3150   32.2630   39.3630 O   0  0  0  0  0  0  0  0  0  0  0  0
   44.0590   32.6380   38.7980 C   0  0  0  0  0  0  0  0  0  0  0  0
   43.9470   34.0250   38.4110 C   0  0  0  0  0  0  0  0  0  0  0  0
   42.6390   34.4940   38.3860 C   0  0  0  0  0  0  0  0  0  0  0  0
   41.5840   33.7190   38.6940 N   0  0  0  0  0  0  0  0  0  0  0  0
   41.7590   32.4020   39.0550 C   0  0  0  0  0  0  0  0  0  0  0  0
   42.9750   31.9110   39.0950 N   0  0  0  0  0  0  0  0  0  0  0  0
   45.1110   34.7610   38.1050 N   0  0  0  0  0  0  0  0  0  0  0  0
   46.1820   34.9460   39.0090 C   0  0  0  0  0  0  0  0  0  0  0  0
   45.8550   35.1390   40.2660 N   0  0  0  0  0  0  0  0  0  0  0  0
   47.5080   34.9000   38.4340 N   0  0  0  0  0  0  0  0  0  0  0  0
   46.5760   35.2990   40.9780 H   0  0  0  0  0  0  0  0  0  0  0  0
   36.9500   31.6550   39.7700 C   0  0  0  0  0  0  0  0  0  0  0  0
   36.6650   32.9760   39.4270 F   0  0  0  0  0  0  0  0  0  0  0  0
   36.2640   30.8210   38.8900 F   0  0  0  0  0  0  0  0  0  0  0  0
   36.4940   31.4910   41.0560 F   0  0  0  0  0  0  0  0  0  0  0  0
   38.4200   28.8710   40.2580 C   0  0  0  0  0  0  0  0  0  0  0  0
   38.3520   27.8610   39.4630 O   0  0  0  0  0  0  0  0  0  0  0  0
   37.9030   28.5670   41.6110 C   0  0  0  0  0  0  0  0  0  0  0  0
   36.9390   27.6150   41.8690 C   0  0  0  0  0  0  0  0  0  0  0  0
   36.6690   27.5650   43.2410 C   0  0  0  0  0  0  0  0  0  0  0  0
   37.5160   28.5240   43.7550 C   0  0  0  0  0  0  0  0  0  0  0  0
   38.2120   29.0810   42.7970 O   0  0  0  0  0  0  0  0  0  0  0  0
   41.1050   29.6276   39.7718 H   0  0  0  0  0  0  0  0  0  0  0  0
   45.0534   32.1705   38.8496 H   0  0  0  0  0  0  0  0  0  0  0  0
   42.4594   35.5416   38.1028 H   0  0  0  0  0  0  0  0  0  0  0  0
   45.1847   35.1876   37.1704 H   0  0  0  0  0  0  0  0  0  0  0  0
   48.3347   35.0271   39.0351 H   0  0  0  0  0  0  0  0  0  0  0  0
   47.6258   34.7401   37.4233 H   0  0  0  0  0  0  0  0  0  0  0  0
   37.4147   29.1870   39.9425 H   0  0  0  0  0  0  0  0  0  0  0  0
   38.2958   27.0269   39.9932 H   0  0  0  0  0  0  0  0  0  0  0  0
   36.4535   26.9869   41.1076 H   0  0  0  0  0  0  0  0  0  0  0  0
   35.9571   26.9201   43.7770 H   0  0  0  0  0  0  0  0  0  0  0  0
   37.5955   28.7843   44.8208 H   0  0  0  0  0  0  0  0  0  0  0  0
  1  5  1  0
  1  2  2  0
  2  3  1  0
  3 21  1  0
  4 17  1  0
  4  3  2  0
  5  4  1  0
  6 11  2  0
  7  6  1  0
  8  7  2  0
  8  9  1  0
  9 10  2  0
 10 11  1  0
 10  1  1  0
 12  7  1  0
 12 13  1  0
 13 14  2  0
 14 16  1  0
 15 13  1  0
 17 20  1  0
 18 17  1  0
 19 17  1  0
 21 22  1  0
 21 23  1  0
 23 24  2  0
 23 27  1  0
 24 25  1  0
 25 26  2  0
 27 26  1  0
  2 28  1  0
  6 29  1  0
  8 30  1  0
 12 31  1  0
 15 32  1  0
 15 33  1  0
 21 34  1  0
 22 35  1  0
 24 36  1  0
 25 37  1  0
 26 38  1  0
M  ISO  8  28  14  29  14  30  14  34   8  35   3  36  14  37  14  38  14
M  END
>  <minimizedAffinity>  (1) 
-6.46900988

>  <minimizedRMSD>  (1) 
8.52739239

$$$$
