
     RDKit          3D

 33 35  0  0  0  0  0  0  0  0999 V2000
   37.9360   28.5740   43.8870 C   0  0  0  0  0  0  0  0  0  0  0  0
   37.4190   27.2620   43.7910 C   0  0  0  0  0  0  0  0  0  0  0  0
   37.0950   26.8150   42.5050 C   0  0  0  0  0  0  0  0  0  0  0  0
   37.2900   27.6410   41.4620 N   0  0  0  0  0  0  0  0  0  0  0  0
   37.7840   28.8810   41.5800 C   0  0  0  0  0  0  0  0  0  0  0  0
   38.1090   29.3520   42.8010 N   0  0  0  0  0  0  0  0  0  0  0  0
   36.5710   25.5360   42.2540 N   0  0  0  0  0  0  0  0  0  0  0  0
   37.9930   29.7600   40.4770 N   0  0  0  0  0  0  0  0  0  0  0  0
   37.7010   29.2720   39.2600 C   0  0  0  0  0  0  0  0  0  0  0  0
   37.8390   29.9700   38.0820 C   0  0  0  0  0  0  0  0  0  0  0  0
   38.3100   31.2590   38.1860 C   0  0  0  0  0  0  0  0  0  0  0  0
   38.4630   31.9630   37.1500 O   0  0  0  0  0  0  0  0  0  0  0  0
   38.5970   31.7320   39.4170 N   0  0  0  0  0  0  0  0  0  0  0  0
   38.4520   31.0250   40.5430 C   0  0  0  0  0  0  0  0  0  0  0  0
   38.7130   31.4510   41.6820 O   0  0  0  0  0  0  0  0  0  0  0  0
   39.0860   33.0600   39.5710 C   0  0  0  0  0  0  0  0  0  0  0  0
   38.2890   34.1200   39.9450 C   0  0  0  0  0  0  0  0  0  0  0  0
   38.7110   35.4140   40.1080 C   0  0  0  0  0  0  0  0  0  0  0  0
   39.9970   35.6420   39.8800 N   0  0  0  0  0  0  0  0  0  0  0  0
   40.8270   34.6690   39.5150 C   0  0  0  0  0  0  0  0  0  0  0  0
   40.3790   33.3900   39.3610 N   0  0  0  0  0  0  0  0  0  0  0  0
   37.4940   29.3530   36.7760 C   0  0  0  0  0  0  0  0  0  0  0  0
   38.2048   28.9712   44.8770 H   0  0  0  0  0  0  0  0  0  0  0  0
   37.2790   26.6272   44.6783 H   0  0  0  0  0  0  0  0  0  0  0  0
   36.3475   25.2511   41.2897 H   0  0  0  0  0  0  0  0  0  0  0  0
   36.4103   24.8831   43.0342 H   0  0  0  0  0  0  0  0  0  0  0  0
   37.3245   28.2402   39.2007 H   0  0  0  0  0  0  0  0  0  0  0  0
   37.2248   33.9102   40.1281 H   0  0  0  0  0  0  0  0  0  0  0  0
   38.0225   36.2168   40.4105 H   0  0  0  0  0  0  0  0  0  0  0  0
   41.8876   34.8986   39.3351 H   0  0  0  0  0  0  0  0  0  0  0  0
   36.9637   28.4046   36.9472 H   0  0  0  0  0  0  0  0  0  0  0  0
   36.8475   30.0370   36.2067 H   0  0  0  0  0  0  0  0  0  0  0  0
   38.4153   29.1604   36.2067 H   0  0  0  0  0  0  0  0  0  0  0  0
  2  1  2  0
  3  2  1  0
  4  5  1  0
  4  3  2  0
  5  6  2  0
  6  1  1  0
  7  3  1  0
  8 14  1  0
  8  5  1  0
  9  8  1  0
 10 11  1  0
 10  9  2  0
 11 13  1  0
 12 11  2  0
 13 16  1  0
 13 14  1  0
 14 15  2  0
 16 17  2  0
 17 18  1  0
 19 18  2  0
 20 19  1  0
 21 20  2  0
 21 16  1  0
 22 10  1  0
  1 23  1  0
  2 24  1  0
  7 25  1  0
  7 26  1  0
  9 27  1  0
 17 28  1  0
 18 29  1  0
 20 30  1  0
 22 31  1  0
 22 32  1  0
 22 33  1  0
M  ISO  8  23  14  24  14  27  14  28  14  29  14  30  14  31   8  32   8
M  ISO  1  33   8
M  END
>  <minimizedAffinity>  (1) 
-5.66254282

>  <minimizedRMSD>  (1) 
1.14834607

$$$$
