
     RDKit          3D

 32 34  0  0  0  0  0  0  0  0999 V2000
   37.2200   26.4550   42.7320 C   0  0  0  0  0  0  0  0  0  0  0  0
   37.0180   25.2030   42.0930 C   0  0  0  0  0  0  0  0  0  0  0  0
   36.8490   25.2290   40.7050 C   0  0  0  0  0  0  0  0  0  0  0  0
   36.8850   26.4020   40.0600 N   0  0  0  0  0  0  0  0  0  0  0  0
   37.0780   27.5810   40.6800 C   0  0  0  0  0  0  0  0  0  0  0  0
   37.2460   27.6160   42.0220 N   0  0  0  0  0  0  0  0  0  0  0  0
   36.6440   24.0530   39.9710 N   0  0  0  0  0  0  0  0  0  0  0  0
   37.1180   28.8360   40.0090 N   0  0  0  0  0  0  0  0  0  0  0  0
   37.0330   28.7850   38.6570 C   0  0  0  0  0  0  0  0  0  0  0  0
   37.0530   29.8870   37.8270 C   0  0  0  0  0  0  0  0  0  0  0  0
   37.1710   31.1100   38.4480 C   0  0  0  0  0  0  0  0  0  0  0  0
   37.1960   32.1570   37.7460 O   0  0  0  0  0  0  0  0  0  0  0  0
   37.2550   31.1410   39.8000 N   0  0  0  0  0  0  0  0  0  0  0  0
   37.2320   30.0540   40.5770 C   0  0  0  0  0  0  0  0  0  0  0  0
   37.3080   30.0550   41.8220 O   0  0  0  0  0  0  0  0  0  0  0  0
   36.9530   29.7370   36.3450 C   0  0  0  0  0  0  0  0  0  0  0  0
   37.3810   32.4250   40.4840 C   0  0  0  0  0  0  0  0  0  0  0  0
   38.8090   32.8680   40.8210 C   0  0  0  0  0  0  0  0  0  0  0  0
   37.9680   33.6050   39.7990 C   0  0  0  0  0  0  0  0  0  0  0  0
   37.3583   26.4872   43.8228 H   0  0  0  0  0  0  0  0  0  0  0  0
   36.9956   24.2611   42.6607 H   0  0  0  0  0  0  0  0  0  0  0  0
   36.5221   24.0983   38.9492 H   0  0  0  0  0  0  0  0  0  0  0  0
   36.6152   23.1433   40.4533 H   0  0  0  0  0  0  0  0  0  0  0  0
   36.9415   27.7942   38.1881 H   0  0  0  0  0  0  0  0  0  0  0  0
   36.3574   28.8436   36.1063 H   0  0  0  0  0  0  0  0  0  0  0  0
   36.4667   30.6267   35.9184 H   0  0  0  0  0  0  0  0  0  0  0  0
   37.9613   29.6303   35.9184 H   0  0  0  0  0  0  0  0  0  0  0  0
   36.4358   32.2694   41.0247 H   0  0  0  0  0  0  0  0  0  0  0  0
   39.0311   33.3307   41.7939 H   0  0  0  0  0  0  0  0  0  0  0  0
   39.8003   32.3912   40.8287 H   0  0  0  0  0  0  0  0  0  0  0  0
   38.2276   33.5436   38.7318 H   0  0  0  0  0  0  0  0  0  0  0  0
   37.6578   34.6523   39.6692 H   0  0  0  0  0  0  0  0  0  0  0  0
  2  1  2  0
  3  2  1  0
  4  5  1  0
  4  3  2  0
  5  6  2  0
  6  1  1  0
  7  3  1  0
  8 14  1  0
  8  5  1  0
  9  8  1  0
 10 11  1  0
 10  9  2  0
 11 13  1  0
 12 11  2  0
 13 17  1  0
 13 14  1  0
 14 15  2  0
 16 10  1  0
 17 18  1  0
 19 17  1  0
 19 18  1  0
  1 20  1  0
  2 21  1  0
  7 22  1  0
  7 23  1  0
  9 24  1  0
 16 25  1  0
 16 26  1  0
 16 27  1  0
 17 28  1  0
 18 29  1  0
 18 30  1  0
 19 31  1  0
 19 32  1  0
M  ISO  8  20  14  21  14  24  14  25   8  26   8  27   8  28  13  29  13
M  ISO  3  30  13  31  13  32  13
M  END
>  <minimizedAffinity>  (1) 
-4.94990873

>  <minimizedRMSD>  (1) 
1.71218169

$$$$
