
     RDKit          3D

 28 29  0  0  0  0  0  0  0  0999 V2000
   37.2940   28.5480   43.5950 C   0  0  0  0  0  0  0  0  0  0  0  0
   37.2520   27.1410   43.5250 C   0  0  0  0  0  0  0  0  0  0  0  0
   37.2420   26.5610   42.2490 C   0  0  0  0  0  0  0  0  0  0  0  0
   37.2720   27.3670   41.1780 N   0  0  0  0  0  0  0  0  0  0  0  0
   37.3130   28.7030   41.2650 C   0  0  0  0  0  0  0  0  0  0  0  0
   37.3240   29.2900   42.4720 N   0  0  0  0  0  0  0  0  0  0  0  0
   37.2000   25.1750   42.0190 N   0  0  0  0  0  0  0  0  0  0  0  0
   37.3450   29.5800   40.1340 N   0  0  0  0  0  0  0  0  0  0  0  0
   37.3590   28.9730   38.9160 C   0  0  0  0  0  0  0  0  0  0  0  0
   37.3910   29.6530   37.7120 C   0  0  0  0  0  0  0  0  0  0  0  0
   37.4090   31.0270   37.7770 C   0  0  0  0  0  0  0  0  0  0  0  0
   37.4380   31.6990   36.7120 O   0  0  0  0  0  0  0  0  0  0  0  0
   37.3940   31.5940   38.9900 N   0  0  0  0  0  0  0  0  0  0  0  0
   37.3640   30.9160   40.1470 C   0  0  0  0  0  0  0  0  0  0  0  0
   37.3500   31.4420   41.2730 O   0  0  0  0  0  0  0  0  0  0  0  0
   37.4050   28.9020   36.4350 C   0  0  0  0  0  0  0  0  0  0  0  0
   37.4140   33.0490   39.0270 C   0  0  0  0  0  0  0  0  0  0  0  0
   37.3023   29.0446   44.5765 H   0  0  0  0  0  0  0  0  0  0  0  0
   37.2280   26.5231   44.4348 H   0  0  0  0  0  0  0  0  0  0  0  0
   37.1948   24.8129   41.0548 H   0  0  0  0  0  0  0  0  0  0  0  0
   37.1744   24.5215   42.8147 H   0  0  0  0  0  0  0  0  0  0  0  0
   37.3439   27.8735   38.8873 H   0  0  0  0  0  0  0  0  0  0  0  0
   37.4251   27.8224   36.6448 H   0  0  0  0  0  0  0  0  0  0  0  0
   36.5021   29.1463   35.8560 H   0  0  0  0  0  0  0  0  0  0  0  0
   38.2981   29.1798   35.8560 H   0  0  0  0  0  0  0  0  0  0  0  0
   37.4187   33.3892   40.0731 H   0  0  0  0  0  0  0  0  0  0  0  0
   38.3173   33.4164   38.5179 H   0  0  0  0  0  0  0  0  0  0  0  0
   36.5212   33.4410   38.5179 H   0  0  0  0  0  0  0  0  0  0  0  0
  2  1  2  0
  3  2  1  0
  4  5  1  0
  4  3  2  0
  5  6  2  0
  6  1  1  0
  7  3  1  0
  8 14  1  0
  8  5  1  0
  9  8  1  0
 10 11  1  0
 10  9  2  0
 11 13  1  0
 12 11  2  0
 13 17  1  0
 13 14  1  0
 14 15  2  0
 16 10  1  0
  1 18  1  0
  2 19  1  0
  7 20  1  0
  7 21  1  0
  9 22  1  0
 16 23  1  0
 16 24  1  0
 16 25  1  0
 17 26  1  0
 17 27  1  0
 17 28  1  0
M  ISO  8  18  14  19  14  22  14  23   8  24   8  25   8  26   8  27   8
M  ISO  1  28   8
M  END
>  <minimizedAffinity>  (1) 
-4.57561922

>  <minimizedRMSD>  (1) 
0.369616985

$$$$
