
     RDKit          3D

 31 32  0  0  0  0  0  0  0  0999 V2000
   37.9370   29.8790   41.1420 C   0  0  0  0  0  0  0  0  0  0  0  0
   38.6620   29.2660   42.2090 C   0  0  0  0  0  0  0  0  0  0  0  0
   39.7860   29.9790   42.5830 C   0  0  0  0  0  0  0  0  0  0  0  0
   40.1580   31.1340   41.9990 N   0  0  0  0  0  0  0  0  0  0  0  0
   39.4070   31.6650   40.9740 C   0  0  0  0  0  0  0  0  0  0  0  0
   38.3280   31.0340   40.5730 N   0  0  0  0  0  0  0  0  0  0  0  0
   38.2020   28.0510   42.7650 N   0  0  0  0  0  0  0  0  0  0  0  0
   37.0610   27.9540   43.5960 C   0  0  0  0  0  0  0  0  0  0  0  0
   36.8670   28.9420   44.4520 N   0  0  0  0  0  0  0  0  0  0  0  0
   36.2460   26.7850   43.4090 N   0  0  0  0  0  0  0  0  0  0  0  0
   36.0870   28.9330   45.1220 H   0  0  0  0  0  0  0  0  0  0  0  0
   39.9540   32.9110   40.4640 C   0  0  0  0  0  0  0  0  0  0  0  0
   39.6380   34.2160   40.8710 C   0  0  0  0  0  0  0  0  0  0  0  0
   40.3950   35.1100   40.1210 C   0  0  0  0  0  0  0  0  0  0  0  0
   41.1280   34.2940   39.2990 C   0  0  0  0  0  0  0  0  0  0  0  0
   40.8490   33.0460   39.5240 O   0  0  0  0  0  0  0  0  0  0  0  0
   40.3140   36.5410   40.2860 C   0  0  0  0  0  0  0  0  0  0  0  0
   39.4110   37.2990   39.8350 O   0  0  0  0  0  0  0  0  0  0  0  0
   41.2920   37.2850   41.0150 N   0  0  0  0  0  0  0  0  0  0  0  0
   42.0970   34.8280   38.3030 C   0  0  0  0  0  0  0  0  0  0  0  0
   41.9910   34.1010   37.1230 F   0  0  0  0  0  0  0  0  0  0  0  0
   41.8180   36.1550   38.0540 F   0  0  0  0  0  0  0  0  0  0  0  0
   43.3970   34.6680   38.7400 F   0  0  0  0  0  0  0  0  0  0  0  0
   37.0248   29.3885   40.7715 H   0  0  0  0  0  0  0  0  0  0  0  0
   40.4080   29.5826   43.3991 H   0  0  0  0  0  0  0  0  0  0  0  0
   38.7256   27.1895   42.5539 H   0  0  0  0  0  0  0  0  0  0  0  0
   35.3999   26.6503   43.9807 H   0  0  0  0  0  0  0  0  0  0  0  0
   36.5081   26.0820   42.7033 H   0  0  0  0  0  0  0  0  0  0  0  0
   38.9128   34.4869   41.6525 H   0  0  0  0  0  0  0  0  0  0  0  0
   41.1971   38.3063   41.1094 H   0  0  0  0  0  0  0  0  0  0  0  0
   42.0919   36.8001   41.4461 H   0  0  0  0  0  0  0  0  0  0  0  0
  1  2  2  0
  2  3  1  0
  2  7  1  0
  4  3  2  0
  5  4  1  0
  6  5  2  0
  6  1  1  0
  7  8  1  0
  8  9  2  0
  9 11  1  0
 10  8  1  0
 12 13  2  0
 12  5  1  0
 14 17  1  0
 14 13  1  0
 15 16  1  0
 15 14  2  0
 16 12  1  0
 17 19  1  0
 18 17  2  0
 20 23  1  0
 20 15  1  0
 21 20  1  0
 22 20  1  0
  1 24  1  0
  3 25  1  0
  7 26  1  0
 10 27  1  0
 10 28  1  0
 13 29  1  0
 19 30  1  0
 19 31  1  0
M  ISO  3  24  14  25  14  29  14
M  END
>  <minimizedAffinity>  (1) 
-5.78697014

>  <minimizedRMSD>  (1) 
0.286263347

$$$$
