
     RDKit          3D

 46 50  0  0  0  0  0  0  0  0999 V2000
   39.6140   27.9620   43.3510 C   0  0  0  0  0  0  0  0  0  0  0  0
   38.9000   26.7330   43.3910 C   0  0  0  0  0  0  0  0  0  0  0  0
   37.9360   26.5540   42.4090 C   0  0  0  0  0  0  0  0  0  0  0  0
   37.7380   27.5140   41.5060 N   0  0  0  0  0  0  0  0  0  0  0  0
   38.4210   28.6680   41.4820 C   0  0  0  0  0  0  0  0  0  0  0  0
   39.3610   28.8900   42.4080 N   0  0  0  0  0  0  0  0  0  0  0  0
   37.1630   25.3920   42.3350 N   0  0  0  0  0  0  0  0  0  0  0  0
   38.2260   29.6950   40.5230 N   0  0  0  0  0  0  0  0  0  0  0  0
   37.3950   29.4110   39.5000 C   0  0  0  0  0  0  0  0  0  0  0  0
   37.0820   30.2760   38.4680 C   0  0  0  0  0  0  0  0  0  0  0  0
   37.6780   31.5190   38.5100 C   0  0  0  0  0  0  0  0  0  0  0  0
   37.4480   32.3630   37.6140 O   0  0  0  0  0  0  0  0  0  0  0  0
   38.5040   31.7820   39.5400 N   0  0  0  0  0  0  0  0  0  0  0  0
   38.7760   30.9130   40.5150 C   0  0  0  0  0  0  0  0  0  0  0  0
   39.5460   31.1520   41.4800 O   0  0  0  0  0  0  0  0  0  0  0  0
   39.1540   33.0490   39.6420 C   0  0  0  0  0  0  0  0  0  0  0  0
   38.4890   34.0730   40.2670 C   0  0  0  0  0  0  0  0  0  0  0  0
   39.1180   35.2970   40.3650 C   0  0  0  0  0  0  0  0  0  0  0  0
   40.3840   35.4310   39.8290 C   0  0  0  0  0  0  0  0  0  0  0  0
   41.0500   34.4200   39.2070 C   0  0  0  0  0  0  0  0  0  0  0  0
   40.4320   33.1810   39.0990 C   0  0  0  0  0  0  0  0  0  0  0  0
   36.1520   29.8730   37.3830 C   0  0  0  0  0  0  0  0  0  0  0  0
   36.5210   28.6020   36.8000 N   0  0  0  0  0  0  0  0  0  0  0  0
   37.6520   28.3300   36.1220 C   0  0  0  0  0  0  0  0  0  0  0  0
   37.7220   27.0490   35.6920 N   0  0  0  0  0  0  0  0  0  0  0  0
   36.5840   26.4530   36.1060 C   0  0  0  0  0  0  0  0  0  0  0  0
   36.0370   25.1910   36.0060 C   0  0  0  0  0  0  0  0  0  0  0  0
   34.8460   24.8410   36.5250 N   0  0  0  0  0  0  0  0  0  0  0  0
   34.1690   25.8210   37.1820 C   0  0  0  0  0  0  0  0  0  0  0  0
   34.6720   27.0820   37.3040 N   0  0  0  0  0  0  0  0  0  0  0  0
   35.8590   27.4320   36.7880 C   0  0  0  0  0  0  0  0  0  0  0  0
   40.3893   28.1591   44.1060 H   0  0  0  0  0  0  0  0  0  0  0  0
   39.1002   25.9684   44.1561 H   0  0  0  0  0  0  0  0  0  0  0  0
   36.4555   25.2905   41.5934 H   0  0  0  0  0  0  0  0  0  0  0  0
   37.3008   24.6371   43.0221 H   0  0  0  0  0  0  0  0  0  0  0  0
   36.9302   28.4141   39.4854 H   0  0  0  0  0  0  0  0  0  0  0  0
   37.4804   33.9222   40.6794 H   0  0  0  0  0  0  0  0  0  0  0  0
   38.6229   36.1463   40.8584 H   0  0  0  0  0  0  0  0  0  0  0  0
   40.8814   36.4088   39.9093 H   0  0  0  0  0  0  0  0  0  0  0  0
   42.0582   34.5812   38.7978 H   0  0  0  0  0  0  0  0  0  0  0  0
   40.9317   32.3354   38.6038 H   0  0  0  0  0  0  0  0  0  0  0  0
   35.1361   29.7926   37.7971 H   0  0  0  0  0  0  0  0  0  0  0  0
   36.1992   30.6367   36.5928 H   0  0  0  0  0  0  0  0  0  0  0  0
   38.4401   29.0746   35.9363 H   0  0  0  0  0  0  0  0  0  0  0  0
   36.6106   24.4219   35.4679 H   0  0  0  0  0  0  0  0  0  0  0  0
   33.1898   25.5898   37.6266 H   0  0  0  0  0  0  0  0  0  0  0  0
  1  2  2  0
  3  2  1  0
  4  3  2  0
  5  4  1  0
  5  6  2  0
  6  1  1  0
  7  3  1  0
  8  5  1  0
  9  8  1  0
 10 11  1  0
 10  9  2  0
 11 13  1  0
 12 11  2  0
 13 16  1  0
 13 14  1  0
 14  8  1  0
 14 15  2  0
 16 17  2  0
 17 18  1  0
 19 18  2  0
 20 19  1  0
 21 20  2  0
 21 16  1  0
 22 10  1  0
 23 22  1  0
 24 23  1  0
 25 26  1  0
 25 24  2  0
 26 31  2  0
 27 26  1  0
 27 28  2  0
 28 29  1  0
 29 30  2  0
 31 23  1  0
 31 30  1  0
  1 32  1  0
  2 33  1  0
  7 34  1  0
  7 35  1  0
  9 36  1  0
 17 37  1  0
 18 38  1  0
 19 39  1  0
 20 40  1  0
 21 41  1  0
 22 42  1  0
 22 43  1  0
 24 44  1  0
 27 45  1  0
 29 46  1  0
M  ISO  8  32  14  33  14  36  14  37  14  38  14  39  14  40  14  41  14
M  ISO  5  42   8  43   8  44  14  45  14  46  14
M  END
>  <minimizedAffinity>  (1) 
-6.41797972

>  <minimizedRMSD>  (1) 
2.1195097

$$$$
