
     RDKit          3D

 45 48  0  0  0  0  0  0  0  0999 V2000
   41.3960   28.4360   43.1840 C   0  0  0  0  0  0  0  0  0  0  0  0
   40.7610   27.1840   43.4450 C   0  0  0  0  0  0  0  0  0  0  0  0
   39.5230   26.9900   42.8520 C   0  0  0  0  0  0  0  0  0  0  0  0
   38.9880   27.9490   42.0860 N   0  0  0  0  0  0  0  0  0  0  0  0
   39.6080   29.1230   41.8550 C   0  0  0  0  0  0  0  0  0  0  0  0
   40.8030   29.3620   42.4000 N   0  0  0  0  0  0  0  0  0  0  0  0
   38.7850   25.8030   43.0220 N   0  0  0  0  0  0  0  0  0  0  0  0
   39.0740   30.1550   41.0420 N   0  0  0  0  0  0  0  0  0  0  0  0
   37.9530   29.8470   40.3430 C   0  0  0  0  0  0  0  0  0  0  0  0
   37.2790   30.7130   39.4920 C   0  0  0  0  0  0  0  0  0  0  0  0
   37.8130   31.9720   39.3720 C   0  0  0  0  0  0  0  0  0  0  0  0
   37.2600   32.8160   38.6200 O   0  0  0  0  0  0  0  0  0  0  0  0
   38.9220   32.2620   40.0700 N   0  0  0  0  0  0  0  0  0  0  0  0
   39.5440   31.3970   40.8820 C   0  0  0  0  0  0  0  0  0  0  0  0
   40.5840   31.6590   41.5390 O   0  0  0  0  0  0  0  0  0  0  0  0
   39.5240   33.5460   39.9820 C   0  0  0  0  0  0  0  0  0  0  0  0
   38.9640   34.5920   40.6700 C   0  0  0  0  0  0  0  0  0  0  0  0
   39.5720   35.8330   40.5630 C   0  0  0  0  0  0  0  0  0  0  0  0
   40.7010   35.9650   39.7810 C   0  0  0  0  0  0  0  0  0  0  0  0
   41.2660   34.9320   39.0930 C   0  0  0  0  0  0  0  0  0  0  0  0
   40.6640   33.6910   39.1940 C   0  0  0  0  0  0  0  0  0  0  0  0
   36.0710   30.2730   38.7710 C   0  0  0  0  0  0  0  0  0  0  0  0
   36.3320   29.1150   37.8770 C   0  0  0  0  0  0  0  0  0  0  0  0
   35.9840   27.7910   38.0250 C   0  0  0  0  0  0  0  0  0  0  0  0
   36.3460   26.9070   37.0530 C   0  0  0  0  0  0  0  0  0  0  0  0
   37.0360   27.2240   35.9220 C   0  0  0  0  0  0  0  0  0  0  0  0
   37.4040   28.5570   35.7390 C   0  0  0  0  0  0  0  0  0  0  0  0
   37.0420   29.4580   36.7180 C   0  0  0  0  0  0  0  0  0  0  0  0
   42.3801   28.6488   43.6269 H   0  0  0  0  0  0  0  0  0  0  0  0
   41.2276   26.4170   44.0805 H   0  0  0  0  0  0  0  0  0  0  0  0
   37.8682   25.6966   42.5647 H   0  0  0  0  0  0  0  0  0  0  0  0
   39.1619   25.0411   43.6037 H   0  0  0  0  0  0  0  0  0  0  0  0
   37.5460   28.8317   40.4594 H   0  0  0  0  0  0  0  0  0  0  0  0
   38.0633   34.4509   41.2855 H   0  0  0  0  0  0  0  0  0  0  0  0
   39.1592   36.7026   41.0954 H   0  0  0  0  0  0  0  0  0  0  0  0
   41.1707   36.9570   39.7086 H   0  0  0  0  0  0  0  0  0  0  0  0
   42.1674   35.0803   38.4802 H   0  0  0  0  0  0  0  0  0  0  0  0
   41.0813   32.8263   38.6572 H   0  0  0  0  0  0  0  0  0  0  0  0
   35.3061   29.9850   39.5072 H   0  0  0  0  0  0  0  0  0  0  0  0
   35.7329   31.1105   38.1431 H   0  0  0  0  0  0  0  0  0  0  0  0
   35.4249   27.4535   38.9102 H   0  0  0  0  0  0  0  0  0  0  0  0
   36.0583   25.8545   37.1927 H   0  0  0  0  0  0  0  0  0  0  0  0
   37.2941   26.4553   35.1787 H   0  0  0  0  0  0  0  0  0  0  0  0
   37.9622   28.8774   34.8469 H   0  0  0  0  0  0  0  0  0  0  0  0
   37.3281   30.5113   36.5810 H   0  0  0  0  0  0  0  0  0  0  0  0
  1  2  2  0
  3  7  1  0
  3  2  1  0
  4  3  2  0
  5  4  1  0
  5  6  2  0
  6  1  1  0
  8  5  1  0
  9  8  1  0
 10  9  2  0
 11 10  1  0
 11 13  1  0
 12 11  2  0
 13 14  1  0
 14  8  1  0
 14 15  2  0
 16 13  1  0
 16 17  2  0
 18 17  1  0
 19 18  2  0
 20 21  2  0
 20 19  1  0
 21 16  1  0
 22 10  1  0
 23 24  2  0
 23 22  1  0
 25 24  1  0
 26 25  2  0
 27 26  1  0
 27 28  2  0
 28 23  1  0
  1 29  1  0
  2 30  1  0
  7 31  1  0
  7 32  1  0
  9 33  1  0
 17 34  1  0
 18 35  1  0
 19 36  1  0
 20 37  1  0
 21 38  1  0
 22 39  1  0
 22 40  1  0
 24 41  1  0
 25 42  1  0
 26 43  1  0
 27 44  1  0
 28 45  1  0
M  ISO  8  29  14  30  14  33  14  34  14  35  14  36  14  37  14  38  14
M  ISO  7  39   8  40   8  41  14  42  14  43  14  44  14  45  14
M  END
>  <minimizedAffinity>  (1) 
-6.2919178

>  <minimizedRMSD>  (1) 
2.53315973

$$$$
