
     RDKit          3D

 44 47  0  0  0  0  0  0  0  0999 V2000
   39.5080   27.8890   43.3750 C   0  0  0  0  0  0  0  0  0  0  0  0
   38.7950   26.6590   43.4140 C   0  0  0  0  0  0  0  0  0  0  0  0
   37.8380   26.4770   42.4200 C   0  0  0  0  0  0  0  0  0  0  0  0
   37.6400   27.4320   41.5060 N   0  0  0  0  0  0  0  0  0  0  0  0
   38.3280   28.5850   41.4910 C   0  0  0  0  0  0  0  0  0  0  0  0
   39.2570   28.8110   42.4210 N   0  0  0  0  0  0  0  0  0  0  0  0
   37.0680   25.3130   42.3460 N   0  0  0  0  0  0  0  0  0  0  0  0
   38.1270   29.6110   40.5240 N   0  0  0  0  0  0  0  0  0  0  0  0
   37.2820   29.3290   39.5120 C   0  0  0  0  0  0  0  0  0  0  0  0
   36.9580   30.1990   38.4770 C   0  0  0  0  0  0  0  0  0  0  0  0
   37.5580   31.4300   38.5130 C   0  0  0  0  0  0  0  0  0  0  0  0
   37.3270   32.2790   37.6210 O   0  0  0  0  0  0  0  0  0  0  0  0
   38.4020   31.6990   39.5310 N   0  0  0  0  0  0  0  0  0  0  0  0
   38.6850   30.8190   40.5150 C   0  0  0  0  0  0  0  0  0  0  0  0
   39.4720   31.0610   41.4710 O   0  0  0  0  0  0  0  0  0  0  0  0
   39.0540   32.9470   39.6280 C   0  0  0  0  0  0  0  0  0  0  0  0
   38.4080   33.9980   40.2340 C   0  0  0  0  0  0  0  0  0  0  0  0
   39.0430   35.2150   40.3290 C   0  0  0  0  0  0  0  0  0  0  0  0
   40.3170   35.3320   39.8070 C   0  0  0  0  0  0  0  0  0  0  0  0
   40.9830   34.2990   39.1980 C   0  0  0  0  0  0  0  0  0  0  0  0
   40.3360   33.0760   39.1060 C   0  0  0  0  0  0  0  0  0  0  0  0
   36.0130   29.7880   37.4110 C   0  0  0  0  0  0  0  0  0  0  0  0
   36.1550   28.3410   37.0770 C   0  0  0  0  0  0  0  0  0  0  0  0
   35.1850   27.4610   37.5540 C   0  0  0  0  0  0  0  0  0  0  0  0
   35.2780   26.1130   37.2680 C   0  0  0  0  0  0  0  0  0  0  0  0
   36.3420   25.6460   36.5040 C   0  0  0  0  0  0  0  0  0  0  0  0
   37.2960   26.5420   36.0390 C   0  0  0  0  0  0  0  0  0  0  0  0
   37.1850   27.8570   36.3310 N   0  0  0  0  0  0  0  0  0  0  0  0
   40.2769   28.0926   44.1348 H   0  0  0  0  0  0  0  0  0  0  0  0
   38.9883   25.8972   44.1836 H   0  0  0  0  0  0  0  0  0  0  0  0
   36.3669   25.2059   41.5991 H   0  0  0  0  0  0  0  0  0  0  0  0
   37.2016   24.5622   43.0384 H   0  0  0  0  0  0  0  0  0  0  0  0
   36.8128   28.3341   39.5046 H   0  0  0  0  0  0  0  0  0  0  0  0
   37.3936   33.8675   40.6390 H   0  0  0  0  0  0  0  0  0  0  0  0
   38.5490   36.0730   40.8083 H   0  0  0  0  0  0  0  0  0  0  0  0
   40.8240   36.3051   39.8839 H   0  0  0  0  0  0  0  0  0  0  0  0
   41.9975   34.4363   38.7956 H   0  0  0  0  0  0  0  0  0  0  0  0
   40.8308   32.2188   38.6261 H   0  0  0  0  0  0  0  0  0  0  0  0
   34.9848   29.9756   37.7540 H   0  0  0  0  0  0  0  0  0  0  0  0
   36.2394   30.3728   36.5073 H   0  0  0  0  0  0  0  0  0  0  0  0
   34.3467   27.8395   38.1573 H   0  0  0  0  0  0  0  0  0  0  0  0
   34.5157   25.4136   37.6420 H   0  0  0  0  0  0  0  0  0  0  0  0
   36.4275   24.5747   36.2696 H   0  0  0  0  0  0  0  0  0  0  0  0
   38.1409   26.1818   35.4338 H   0  0  0  0  0  0  0  0  0  0  0  0
  1  2  2  0
  3  2  1  0
  4  3  2  0
  5  4  1  0
  5  6  2  0
  6  1  1  0
  7  3  1  0
  8  5  1  0
  9  8  1  0
 10 11  1  0
 10  9  2  0
 11 13  1  0
 12 11  2  0
 13 16  1  0
 13 14  1  0
 14  8  1  0
 14 15  2  0
 16 17  2  0
 17 18  1  0
 19 18  2  0
 20 19  1  0
 21 20  2  0
 21 16  1  0
 22 10  1  0
 23 22  1  0
 23 24  2  0
 25 24  1  0
 26 25  2  0
 27 28  2  0
 27 26  1  0
 28 23  1  0
  1 29  1  0
  2 30  1  0
  7 31  1  0
  7 32  1  0
  9 33  1  0
 17 34  1  0
 18 35  1  0
 19 36  1  0
 20 37  1  0
 21 38  1  0
 22 39  1  0
 22 40  1  0
 24 41  1  0
 25 42  1  0
 26 43  1  0
 27 44  1  0
M  ISO  8  29  14  30  14  33  14  34  14  35  14  36  14  37  14  38  14
M  ISO  6  39   8  40   8  41  14  42  14  43  14  44  14
M  END
>  <minimizedAffinity>  (1) 
-6.23584938

>  <minimizedRMSD>  (1) 
1.71051979

$$$$
