
     RDKit          3D

 30 31  0  0  0  0  0  0  0  0999 V2000
   37.9570   29.8930   41.1200 C   0  0  0  0  0  0  0  0  0  0  0  0
   38.6820   29.2780   42.1920 C   0  0  0  0  0  0  0  0  0  0  0  0
   39.8060   29.9890   42.5730 C   0  0  0  0  0  0  0  0  0  0  0  0
   40.1800   31.1440   41.9950 N   0  0  0  0  0  0  0  0  0  0  0  0
   39.4520   31.6820   40.9810 C   0  0  0  0  0  0  0  0  0  0  0  0
   38.3690   31.0470   40.5750 N   0  0  0  0  0  0  0  0  0  0  0  0
   38.2280   28.0650   42.7480 N   0  0  0  0  0  0  0  0  0  0  0  0
   37.0720   27.9730   43.5740 C   0  0  0  0  0  0  0  0  0  0  0  0
   36.8820   28.9540   44.4370 N   0  0  0  0  0  0  0  0  0  0  0  0
   36.2360   26.8250   43.3820 N   0  0  0  0  0  0  0  0  0  0  0  0
   36.1060   28.9510   45.1000 H   0  0  0  0  0  0  0  0  0  0  0  0
   39.9930   32.9350   40.4660 C   0  0  0  0  0  0  0  0  0  0  0  0
   39.6870   34.2240   40.8700 C   0  0  0  0  0  0  0  0  0  0  0  0
   40.4320   35.1200   40.1130 C   0  0  0  0  0  0  0  0  0  0  0  0
   41.1570   34.2920   39.2800 C   0  0  0  0  0  0  0  0  0  0  0  0
   40.8770   33.0490   39.5140 O   0  0  0  0  0  0  0  0  0  0  0  0
   42.1150   34.8150   38.2710 C   0  0  0  0  0  0  0  0  0  0  0  0
   42.0010   34.0880   37.0900 F   0  0  0  0  0  0  0  0  0  0  0  0
   41.8540   36.1540   38.0390 F   0  0  0  0  0  0  0  0  0  0  0  0
   43.4190   34.6600   38.6970 F   0  0  0  0  0  0  0  0  0  0  0  0
   40.3680   36.5500   40.2630 C   0  0  0  0  0  0  0  0  0  0  0  0
   39.4350   37.3100   39.8620 O   0  0  0  0  0  0  0  0  0  0  0  0
   41.2890   37.4070   40.8660 O   0  0  0  0  0  0  0  0  0  0  0  0
   37.0460   29.4098   40.7371 H   0  0  0  0  0  0  0  0  0  0  0  0
   40.4248   29.5893   43.3899 H   0  0  0  0  0  0  0  0  0  0  0  0
   38.7575   27.2046   42.5473 H   0  0  0  0  0  0  0  0  0  0  0  0
   35.3861   26.7057   43.9516 H   0  0  0  0  0  0  0  0  0  0  0  0
   36.4850   26.1191   42.6744 H   0  0  0  0  0  0  0  0  0  0  0  0
   38.9715   34.4942   41.6606 H   0  0  0  0  0  0  0  0  0  0  0  0
   41.1125   38.3806   40.8970 H   0  0  0  0  0  0  0  0  0  0  0  0
  1  2  2  0
  2  3  1  0
  2  7  1  0
  4  3  2  0
  5  4  1  0
  6  5  2  0
  6  1  1  0
  7  8  1  0
  8  9  2  0
  9 11  1  0
 10  8  1  0
 12 13  2  0
 12  5  1  0
 14 21  1  0
 14 13  1  0
 15 16  1  0
 15 14  2  0
 16 12  1  0
 17 20  1  0
 17 15  1  0
 18 17  1  0
 19 17  1  0
 21 23  1  0
 22 21  2  0
  1 24  1  0
  3 25  1  0
  7 26  1  0
 10 27  1  0
 10 28  1  0
 13 29  1  0
 23 30  1  0
M  ISO  4  24  14  25  14  29  14  30   3
M  END
>  <minimizedAffinity>  (1) 
-5.7653718

>  <minimizedRMSD>  (1) 
0.27598232

$$$$
