
     RDKit          3D

 48 51  0  0  0  0  0  0  0  0999 V2000
   39.4560   27.8650   43.4000 C   0  0  0  0  0  0  0  0  0  0  0  0
   38.9520   26.5460   43.2920 C   0  0  0  0  0  0  0  0  0  0  0  0
   38.3150   26.2150   42.0960 C   0  0  0  0  0  0  0  0  0  0  0  0
   38.2120   27.1340   41.1200 N   0  0  0  0  0  0  0  0  0  0  0  0
   38.7050   28.3820   41.2560 C   0  0  0  0  0  0  0  0  0  0  0  0
   39.3250   28.7500   42.3880 N   0  0  0  0  0  0  0  0  0  0  0  0
   37.7790   24.9510   41.8750 N   0  0  0  0  0  0  0  0  0  0  0  0
   38.6110   29.3740   40.2400 N   0  0  0  0  0  0  0  0  0  0  0  0
   38.1230   28.9610   39.0500 C   0  0  0  0  0  0  0  0  0  0  0  0
   37.9600   29.7780   37.9470 C   0  0  0  0  0  0  0  0  0  0  0  0
   38.3270   31.0970   38.0940 C   0  0  0  0  0  0  0  0  0  0  0  0
   38.2060   31.9020   37.1310 O   0  0  0  0  0  0  0  0  0  0  0  0
   38.8050   31.4800   39.2800 N   0  0  0  0  0  0  0  0  0  0  0  0
   38.9530   30.6600   40.3380 C   0  0  0  0  0  0  0  0  0  0  0  0
   39.4030   31.0150   41.4590 O   0  0  0  0  0  0  0  0  0  0  0  0
   39.2020   32.8280   39.5050 C   0  0  0  0  0  0  0  0  0  0  0  0
   38.2600   33.7100   40.0320 C   0  0  0  0  0  0  0  0  0  0  0  0
   38.6240   35.0150   40.2570 C   0  0  0  0  0  0  0  0  0  0  0  0
   39.9140   35.3890   39.9470 C   0  0  0  0  0  0  0  0  0  0  0  0
   40.8470   34.5400   39.4310 C   0  0  0  0  0  0  0  0  0  0  0  0
   40.4950   33.2120   39.1960 C   0  0  0  0  0  0  0  0  0  0  0  0
   37.4150   29.2450   36.6600 C   0  0  0  0  0  0  0  0  0  0  0  0
   36.0170   29.5310   36.5110 N   0  0  0  0  0  0  0  0  0  0  0  0
   35.1820   29.1690   37.5830 C   0  0  0  0  0  0  0  0  0  0  0  0
   33.7370   28.9600   37.2220 C   0  0  0  0  0  0  0  0  0  0  0  0
   33.7010   28.2250   36.0280 O   0  0  0  0  0  0  0  0  0  0  0  0
   34.0900   29.0840   35.0220 C   0  0  0  0  0  0  0  0  0  0  0  0
   35.5070   29.5040   35.1960 C   0  0  0  0  0  0  0  0  0  0  0  0
   39.9637   28.1747   44.3254 H   0  0  0  0  0  0  0  0  0  0  0  0
   39.0576   25.8187   44.1105 H   0  0  0  0  0  0  0  0  0  0  0  0
   37.3146   24.7377   40.9807 H   0  0  0  0  0  0  0  0  0  0  0  0
   37.8464   24.2281   42.6056 H   0  0  0  0  0  0  0  0  0  0  0  0
   37.8361   27.9036   38.9522 H   0  0  0  0  0  0  0  0  0  0  0  0
   37.2412   33.3662   40.2640 H   0  0  0  0  0  0  0  0  0  0  0  0
   37.9080   35.7397   40.6719 H   0  0  0  0  0  0  0  0  0  0  0  0
   40.2076   36.4338   40.1266 H   0  0  0  0  0  0  0  0  0  0  0  0
   41.8622   34.8973   39.2035 H   0  0  0  0  0  0  0  0  0  0  0  0
   41.2186   32.4954   38.7801 H   0  0  0  0  0  0  0  0  0  0  0  0
   37.9630   29.7048   35.8244 H   0  0  0  0  0  0  0  0  0  0  0  0
   37.5406   28.1522   36.6635 H   0  0  0  0  0  0  0  0  0  0  0  0
   35.5653   28.2316   38.0123 H   0  0  0  0  0  0  0  0  0  0  0  0
   35.2033   30.0135   38.2875 H   0  0  0  0  0  0  0  0  0  0  0  0
   33.2274   28.4022   38.0215 H   0  0  0  0  0  0  0  0  0  0  0  0
   33.2261   29.9261   37.0969 H   0  0  0  0  0  0  0  0  0  0  0  0
   33.4458   29.9755   35.0414 H   0  0  0  0  0  0  0  0  0  0  0  0
   33.9959   28.5606   34.0591 H   0  0  0  0  0  0  0  0  0  0  0  0
   36.1312   28.8102   34.6137 H   0  0  0  0  0  0  0  0  0  0  0  0
   35.5343   30.5514   34.8610 H   0  0  0  0  0  0  0  0  0  0  0  0
  2  1  2  0
  3  2  1  0
  4  5  1  0
  4  3  2  0
  5  6  2  0
  6  1  1  0
  7  3  1  0
  8 14  1  0
  8  5  1  0
  9  8  1  0
 10 11  1  0
 10  9  2  0
 11 13  1  0
 12 11  2  0
 13 16  1  0
 13 14  1  0
 14 15  2  0
 16 17  2  0
 17 18  1  0
 19 18  2  0
 20 19  1  0
 21 20  2  0
 21 16  1  0
 22 10  1  0
 23 22  1  0
 23 24  1  0
 25 24  1  0
 26 25  1  0
 27 28  1  0
 27 26  1  0
 28 23  1  0
  1 29  1  0
  2 30  1  0
  7 31  1  0
  7 32  1  0
  9 33  1  0
 17 34  1  0
 18 35  1  0
 19 36  1  0
 20 37  1  0
 21 38  1  0
 22 39  1  0
 22 40  1  0
 24 41  1  0
 24 42  1  0
 25 43  1  0
 25 44  1  0
 27 45  1  0
 27 46  1  0
 28 47  1  0
 28 48  1  0
M  ISO  8  29  14  30  14  33  14  34  14  35  14  36  14  37  14  38  14
M  ISO  8  39   8  40   8  41  13  42  13  43  13  44  13  45  13  46  13
M  ISO  2  47  13  48  13
M  END
>  <minimizedAffinity>  (1) 
-6.11876869

>  <minimizedRMSD>  (1) 
1.10492706

$$$$
