
     RDKit          3D

 42 45  0  0  0  0  0  0  0  0999 V2000
   40.0630   27.7430   43.3430 C   0  0  0  0  0  0  0  0  0  0  0  0
   39.3310   26.5300   43.4530 C   0  0  0  0  0  0  0  0  0  0  0  0
   38.2180   26.4070   42.6170 C   0  0  0  0  0  0  0  0  0  0  0  0
   37.9030   27.4020   41.7820 N   0  0  0  0  0  0  0  0  0  0  0  0
   38.6060   28.5320   41.6970 C   0  0  0  0  0  0  0  0  0  0  0  0
   39.6940   28.7110   42.4800 N   0  0  0  0  0  0  0  0  0  0  0  0
   37.4110   25.2670   42.6200 N   0  0  0  0  0  0  0  0  0  0  0  0
   38.2910   29.6080   40.8100 N   0  0  0  0  0  0  0  0  0  0  0  0
   37.3050   29.3770   39.9150 C   0  0  0  0  0  0  0  0  0  0  0  0
   36.8630   30.2840   38.9730 C   0  0  0  0  0  0  0  0  0  0  0  0
   37.4920   31.5140   38.9670 C   0  0  0  0  0  0  0  0  0  0  0  0
   37.1440   32.3950   38.1380 O   0  0  0  0  0  0  0  0  0  0  0  0
   38.4690   31.7230   39.8660 N   0  0  0  0  0  0  0  0  0  0  0  0
   38.8700   30.8170   40.7630 C   0  0  0  0  0  0  0  0  0  0  0  0
   39.7760   31.0040   41.5980 O   0  0  0  0  0  0  0  0  0  0  0  0
   39.1560   32.9710   39.9090 C   0  0  0  0  0  0  0  0  0  0  0  0
   38.6130   33.9940   40.6560 C   0  0  0  0  0  0  0  0  0  0  0  0
   39.2700   35.2020   40.7030 C   0  0  0  0  0  0  0  0  0  0  0  0
   40.4500   35.3320   39.9940 C   0  0  0  0  0  0  0  0  0  0  0  0
   40.9990   34.3150   39.2460 C   0  0  0  0  0  0  0  0  0  0  0  0
   40.3420   33.0930   39.1950 C   0  0  0  0  0  0  0  0  0  0  0  0
   35.7900   29.9310   38.0240 C   0  0  0  0  0  0  0  0  0  0  0  0
   36.2630   29.0930   36.9070 C   0  0  0  0  0  0  0  0  0  0  0  0
   36.5370   29.6860   35.6910 C   0  0  0  0  0  0  0  0  0  0  0  0
   36.9500   28.7460   34.8140 N   0  0  0  0  0  0  0  0  0  0  0  0
   36.9450   27.5540   35.4540 C   0  0  0  0  0  0  0  0  0  0  0  0
   36.5290   27.7940   36.7040 N   0  0  0  0  0  0  0  0  0  0  0  0
   40.9499   27.8955   43.9756 H   0  0  0  0  0  0  0  0  0  0  0  0
   39.6232   25.7349   44.1547 H   0  0  0  0  0  0  0  0  0  0  0  0
   36.5979   25.2099   41.9903 H   0  0  0  0  0  0  0  0  0  0  0  0
   37.6290   24.4834   43.2519 H   0  0  0  0  0  0  0  0  0  0  0  0
   36.8176   28.3912   39.9391 H   0  0  0  0  0  0  0  0  0  0  0  0
   37.6711   33.8474   41.2049 H   0  0  0  0  0  0  0  0  0  0  0  0
   38.8675   36.0416   41.2887 H   0  0  0  0  0  0  0  0  0  0  0  0
   40.9768   36.2970   40.0295 H   0  0  0  0  0  0  0  0  0  0  0  0
   41.9409   34.4678   38.6988 H   0  0  0  0  0  0  0  0  0  0  0  0
   40.7453   32.2525   38.6111 H   0  0  0  0  0  0  0  0  0  0  0  0
   35.0075   29.3815   38.5679 H   0  0  0  0  0  0  0  0  0  0  0  0
   35.4088   30.8689   37.5939 H   0  0  0  0  0  0  0  0  0  0  0  0
   36.4347   30.7588   35.4704 H   0  0  0  0  0  0  0  0  0  0  0  0
   37.2273   26.5788   35.0305 H   0  0  0  0  0  0  0  0  0  0  0  0
   36.4254   27.0661   37.4254 H   0  0  0  0  0  0  0  0  0  0  0  0
  1  2  2  0
  3  7  1  0
  3  2  1  0
  4  3  2  0
  5  4  1  0
  5  6  2  0
  6  1  1  0
  8  5  1  0
  9  8  1  0
 10  9  2  0
 11 10  1  0
 11 13  1  0
 12 11  2  0
 13 16  1  0
 13 14  1  0
 14  8  1  0
 14 15  2  0
 16 17  2  0
 17 18  1  0
 19 18  2  0
 20 19  1  0
 21 20  2  0
 21 16  1  0
 22 10  1  0
 23 22  1  0
 24 23  2  0
 25 26  2  0
 25 24  1  0
 26 27  1  0
 27 23  1  0
  1 28  1  0
  2 29  1  0
  7 30  1  0
  7 31  1  0
  9 32  1  0
 17 33  1  0
 18 34  1  0
 19 35  1  0
 20 36  1  0
 21 37  1  0
 22 38  1  0
 22 39  1  0
 24 40  1  0
 26 41  1  0
 27 42  1  0
M  ISO  8  28  14  29  14  32  14  33  14  34  14  35  14  36  14  37  14
M  ISO  5  38   8  39   8  40  14  41  14  42   9
M  END
>  <minimizedAffinity>  (1) 
-6.08453751

>  <minimizedRMSD>  (1) 
1.89014065

$$$$
