
     RDKit          3D

 42 45  0  0  0  0  0  0  0  0999 V2000
   38.4850   22.1600   39.8170 C   0  0  0  0  0  0  0  0  0  0  0  0
   37.2070   21.8080   39.3260 C   0  0  0  0  0  0  0  0  0  0  0  0
   36.2020   22.7600   39.4930 C   0  0  0  0  0  0  0  0  0  0  0  0
   36.4900   23.9240   40.0920 N   0  0  0  0  0  0  0  0  0  0  0  0
   37.7120   24.2260   40.5470 C   0  0  0  0  0  0  0  0  0  0  0  0
   38.7220   23.3440   40.4130 N   0  0  0  0  0  0  0  0  0  0  0  0
   34.8950   22.5580   39.0640 N   0  0  0  0  0  0  0  0  0  0  0  0
   38.0350   25.4630   41.1940 N   0  0  0  0  0  0  0  0  0  0  0  0
   37.0790   26.4010   41.2040 C   0  0  0  0  0  0  0  0  0  0  0  0
   37.2000   27.6510   41.7760 C   0  0  0  0  0  0  0  0  0  0  0  0
   38.4100   27.9370   42.3800 C   0  0  0  0  0  0  0  0  0  0  0  0
   38.6040   29.0530   42.9260 O   0  0  0  0  0  0  0  0  0  0  0  0
   39.3520   26.9880   42.3600 N   0  0  0  0  0  0  0  0  0  0  0  0
   39.2030   25.7800   41.7930 C   0  0  0  0  0  0  0  0  0  0  0  0
   40.0760   24.8900   41.7680 O   0  0  0  0  0  0  0  0  0  0  0  0
   40.6220   27.2080   42.9590 C   0  0  0  0  0  0  0  0  0  0  0  0
   40.8280   26.7360   44.2530 C   0  0  0  0  0  0  0  0  0  0  0  0
   42.0600   26.9530   44.8350 C   0  0  0  0  0  0  0  0  0  0  0  0
   43.0270   27.6260   44.1100 C   0  0  0  0  0  0  0  0  0  0  0  0
   42.8260   28.0870   42.8460 C   0  0  0  0  0  0  0  0  0  0  0  0
   41.5940   27.8870   42.2240 C   0  0  0  0  0  0  0  0  0  0  0  0
   36.0830   28.6330   41.7400 C   0  0  0  0  0  0  0  0  0  0  0  0
   36.3640   29.7190   40.7840 C   0  0  0  0  0  0  0  0  0  0  0  0
   36.7110   29.7950   39.4620 C   0  0  0  0  0  0  0  0  0  0  0  0
   36.8700   31.0860   39.0180 C   0  0  0  0  0  0  0  0  0  0  0  0
   36.5980   31.7990   40.1530 N   0  0  0  0  0  0  0  0  0  0  0  0
   36.3070   31.0280   41.1700 N   0  0  0  0  0  0  0  0  0  0  0  0
   39.3126   21.4436   39.7087 H   0  0  0  0  0  0  0  0  0  0  0  0
   37.0165   20.8395   38.8405 H   0  0  0  0  0  0  0  0  0  0  0  0
   34.1861   23.2910   39.2094 H   0  0  0  0  0  0  0  0  0  0  0  0
   34.6356   21.6754   38.6008 H   0  0  0  0  0  0  0  0  0  0  0  0
   36.1229   26.1559   40.7184 H   0  0  0  0  0  0  0  0  0  0  0  0
   40.0315   26.2055   44.7954 H   0  0  0  0  0  0  0  0  0  0  0  0
   42.2691   26.5980   45.8549 H   0  0  0  0  0  0  0  0  0  0  0  0
   44.0073   27.7969   44.5789 H   0  0  0  0  0  0  0  0  0  0  0  0
   43.6323   28.6156   42.3165 H   0  0  0  0  0  0  0  0  0  0  0  0
   41.3981   28.2472   41.2033 H   0  0  0  0  0  0  0  0  0  0  0  0
   35.1601   28.1169   41.4368 H   0  0  0  0  0  0  0  0  0  0  0  0
   35.9688   29.0702   42.7429 H   0  0  0  0  0  0  0  0  0  0  0  0
   36.8486   28.9124   38.8201 H   0  0  0  0  0  0  0  0  0  0  0  0
   37.1433   31.4492   38.0163 H   0  0  0  0  0  0  0  0  0  0  0  0
   36.6197   32.8276   40.2020 H   0  0  0  0  0  0  0  0  0  0  0  0
  1  6  2  0
  2  3  2  0
  2  1  1  0
  3  4  1  0
  4  5  2  0
  5  8  1  0
  6  5  1  0
  7  3  1  0
  8  9  1  0
  8 14  1  0
  9 10  2  0
 10 11  1  0
 11 12  2  0
 13 11  1  0
 13 16  1  0
 14 13  1  0
 15 14  2  0
 16 17  2  0
 17 18  1  0
 19 18  2  0
 20 19  1  0
 21 20  2  0
 21 16  1  0
 22 10  1  0
 23 27  2  0
 23 22  1  0
 24 23  1  0
 25 24  2  0
 25 26  1  0
 26 27  1  0
  1 28  1  0
  2 29  1  0
  7 30  1  0
  7 31  1  0
  9 32  1  0
 17 33  1  0
 18 34  1  0
 19 35  1  0
 20 36  1  0
 21 37  1  0
 22 38  1  0
 22 39  1  0
 24 40  1  0
 25 41  1  0
 26 42  1  0
M  ISO  8  28  14  29  14  32  14  33  14  34  14  35  14  36  14  37  14
M  ISO  5  38   8  39   8  40  14  41  14  42   9
M  END
>  <minimizedAffinity>  (1) 
-5.98935175

>  <minimizedRMSD>  (1) 
5.86706924

$$$$
