
     RDKit          3D

 41 44  0  0  0  0  0  0  0  0999 V2000
   40.0810   27.7150   43.3210 C   0  0  0  0  0  0  0  0  0  0  0  0
   39.3490   26.5040   43.4420 C   0  0  0  0  0  0  0  0  0  0  0  0
   38.2190   26.3790   42.6230 C   0  0  0  0  0  0  0  0  0  0  0  0
   37.8990   27.3730   41.7940 N   0  0  0  0  0  0  0  0  0  0  0  0
   38.6080   28.5040   41.6990 C   0  0  0  0  0  0  0  0  0  0  0  0
   39.7060   28.6850   42.4630 N   0  0  0  0  0  0  0  0  0  0  0  0
   37.4220   25.2410   42.6510 N   0  0  0  0  0  0  0  0  0  0  0  0
   38.2870   29.5790   40.8140 N   0  0  0  0  0  0  0  0  0  0  0  0
   37.2910   29.3440   39.9280 C   0  0  0  0  0  0  0  0  0  0  0  0
   36.8420   30.2450   38.9890 C   0  0  0  0  0  0  0  0  0  0  0  0
   37.4640   31.4730   38.9670 C   0  0  0  0  0  0  0  0  0  0  0  0
   37.1130   32.3550   38.1410 O   0  0  0  0  0  0  0  0  0  0  0  0
   38.4570   31.6870   39.8620 N   0  0  0  0  0  0  0  0  0  0  0  0
   38.8630   30.7850   40.7550 C   0  0  0  0  0  0  0  0  0  0  0  0
   39.7880   30.9780   41.5890 O   0  0  0  0  0  0  0  0  0  0  0  0
   39.1450   32.9350   39.8950 C   0  0  0  0  0  0  0  0  0  0  0  0
   38.6090   33.9630   40.6320 C   0  0  0  0  0  0  0  0  0  0  0  0
   39.2810   35.1680   40.6580 C   0  0  0  0  0  0  0  0  0  0  0  0
   40.4570   35.2870   39.9440 C   0  0  0  0  0  0  0  0  0  0  0  0
   40.9930   34.2680   39.2080 C   0  0  0  0  0  0  0  0  0  0  0  0
   40.3200   33.0590   39.1820 C   0  0  0  0  0  0  0  0  0  0  0  0
   35.7660   29.8900   38.0370 C   0  0  0  0  0  0  0  0  0  0  0  0
   36.2900   29.3170   36.8060 N   0  0  0  0  0  0  0  0  0  0  0  0
   36.5090   29.8160   35.5790 C   0  0  0  0  0  0  0  0  0  0  0  0
   37.0160   28.8690   34.7690 N   0  0  0  0  0  0  0  0  0  0  0  0
   37.1080   27.7590   35.5330 C   0  0  0  0  0  0  0  0  0  0  0  0
   36.6710   28.0420   36.7490 N   0  0  0  0  0  0  0  0  0  0  0  0
   40.9760   27.8653   43.9426 H   0  0  0  0  0  0  0  0  0  0  0  0
   39.6520   25.7091   44.1393 H   0  0  0  0  0  0  0  0  0  0  0  0
   36.5967   25.1750   42.0382 H   0  0  0  0  0  0  0  0  0  0  0  0
   37.6565   24.4635   43.2845 H   0  0  0  0  0  0  0  0  0  0  0  0
   36.8035   28.3585   39.9608 H   0  0  0  0  0  0  0  0  0  0  0  0
   37.6687   33.8291   41.1869 H   0  0  0  0  0  0  0  0  0  0  0  0
   38.8876   36.0171   41.2362 H   0  0  0  0  0  0  0  0  0  0  0  0
   40.9886   36.2497   39.9689 H   0  0  0  0  0  0  0  0  0  0  0  0
   41.9324   34.4048   38.6522 H   0  0  0  0  0  0  0  0  0  0  0  0
   40.7150   32.2113   38.6028 H   0  0  0  0  0  0  0  0  0  0  0  0
   35.0988   29.1567   38.5135 H   0  0  0  0  0  0  0  0  0  0  0  0
   35.2258   30.8124   37.7777 H   0  0  0  0  0  0  0  0  0  0  0  0
   36.3028   30.8538   35.2781 H   0  0  0  0  0  0  0  0  0  0  0  0
   37.4843   26.7808   35.1990 H   0  0  0  0  0  0  0  0  0  0  0  0
  1  2  2  0
  3  7  1  0
  3  2  1  0
  4  3  2  0
  5  4  1  0
  5  6  2  0
  6  1  1  0
  8  5  1  0
  9  8  1  0
 10  9  2  0
 11 10  1  0
 11 13  1  0
 12 11  2  0
 13 16  1  0
 13 14  1  0
 14  8  1  0
 14 15  2  0
 16 17  2  0
 17 18  1  0
 19 18  2  0
 20 19  1  0
 21 20  2  0
 21 16  1  0
 22 10  1  0
 23 22  1  0
 24 23  1  0
 25 26  1  0
 25 24  2  0
 26 27  2  0
 27 23  1  0
  1 28  1  0
  2 29  1  0
  7 30  1  0
  7 31  1  0
  9 32  1  0
 17 33  1  0
 18 34  1  0
 19 35  1  0
 20 36  1  0
 21 37  1  0
 22 38  1  0
 22 39  1  0
 24 40  1  0
 26 41  1  0
M  ISO  8  28  14  29  14  32  14  33  14  34  14  35  14  36  14  37  14
M  ISO  4  38   8  39   8  40  14  41  14
M  END
>  <minimizedAffinity>  (1) 
-5.98060179

>  <minimizedRMSD>  (1) 
1.89601886

$$$$
