
     RDKit          3D

 30 32  0  0  0  0  0  0  0  0999 V2000
   38.4910   32.4550   40.6760 C   0  0  0  0  0  0  0  0  0  0  0  0
   37.1610   32.3000   40.2570 C   0  0  0  0  0  0  0  0  0  0  0  0
   36.8060   31.0300   40.6640 C   0  0  0  0  0  0  0  0  0  0  0  0
   37.8720   30.4590   41.2940 N   0  0  0  0  0  0  0  0  0  0  0  0
   38.8680   31.3240   41.2910 N   0  0  0  0  0  0  0  0  0  0  0  0
   39.1340   36.0190   40.0230 C   0  0  0  0  0  0  0  0  0  0  0  0
   40.5330   36.0550   39.9060 C   0  0  0  0  0  0  0  0  0  0  0  0
   41.2460   34.8610   40.0510 C   0  0  0  0  0  0  0  0  0  0  0  0
   40.5550   33.7300   40.2970 N   0  0  0  0  0  0  0  0  0  0  0  0
   39.2100   33.7130   40.4070 C   0  0  0  0  0  0  0  0  0  0  0  0
   38.5030   34.8690   40.2670 N   0  0  0  0  0  0  0  0  0  0  0  0
   37.8940   29.1310   41.8630 C   0  0  0  0  0  0  0  0  0  0  0  0
   36.5910   28.4070   41.6570 C   0  0  0  0  0  0  0  0  0  0  0  0
   36.3140   27.6150   42.9130 C   0  0  0  0  0  0  0  0  0  0  0  0
   37.3770   27.9890   43.9120 C   0  0  0  0  0  0  0  0  0  0  0  0
   38.1760   29.1250   43.3450 C   0  0  0  0  0  0  0  0  0  0  0  0
   36.5375   33.0309   39.7212 H   0  0  0  0  0  0  0  0  0  0  0  0
   35.8256   30.5568   40.5063 H   0  0  0  0  0  0  0  0  0  0  0  0
   38.5535   36.9468   39.9125 H   0  0  0  0  0  0  0  0  0  0  0  0
   41.0562   37.0014   39.7048 H   0  0  0  0  0  0  0  0  0  0  0  0
   42.3426   34.8450   39.9665 H   0  0  0  0  0  0  0  0  0  0  0  0
   38.7107   28.6205   41.3316 H   0  0  0  0  0  0  0  0  0  0  0  0
   35.7815   29.1311   41.4823 H   0  0  0  0  0  0  0  0  0  0  0  0
   36.6487   27.7425   40.7823 H   0  0  0  0  0  0  0  0  0  0  0  0
   35.3189   27.8680   43.3075 H   0  0  0  0  0  0  0  0  0  0  0  0
   36.3306   26.5345   42.7077 H   0  0  0  0  0  0  0  0  0  0  0  0
   36.9070   28.2997   44.8568 H   0  0  0  0  0  0  0  0  0  0  0  0
   38.0310   27.1271   44.1107 H   0  0  0  0  0  0  0  0  0  0  0  0
   39.2489   28.9675   43.5295 H   0  0  0  0  0  0  0  0  0  0  0  0
   37.9026   30.0829   43.8116 H   0  0  0  0  0  0  0  0  0  0  0  0
  1  5  2  0
  2  3  2  0
  2  1  1  0
  3  4  1  0
  4 12  1  0
  5  4  1  0
  6 11  2  0
  7  6  1  0
  7  8  2  0
  8  9  1  0
  9 10  2  0
 10  1  1  0
 11 10  1  0
 12 16  1  0
 13 12  1  0
 13 14  1  0
 14 15  1  0
 16 15  1  0
  2 17  1  0
  3 18  1  0
  6 19  1  0
  7 20  1  0
  8 21  1  0
 12 22  1  0
 13 23  1  0
 13 24  1  0
 14 25  1  0
 14 26  1  0
 15 27  1  0
 15 28  1  0
 16 29  1  0
 16 30  1  0
M  ISO  8  17  14  18  14  19  14  20  14  21  14  22  13  23  13  24  13
M  ISO  6  25  13  26  13  27  13  28  13  29  13  30  13
M  END
>  <minimizedAffinity>  (1) 
-5.61105537

>  <minimizedRMSD>  (1) 
6.42102957

$$$$
