
     RDKit          3D

 36 38  0  0  0  0  0  0  0  0999 V2000
   38.9340   28.7950   40.6140 C   0  0  0  0  0  0  0  0  0  0  0  0
   38.8910   28.5950   42.0250 C   0  0  0  0  0  0  0  0  0  0  0  0
   39.2960   29.7080   42.7410 C   0  0  0  0  0  0  0  0  0  0  0  0
   39.6890   30.8580   42.1560 N   0  0  0  0  0  0  0  0  0  0  0  0
   39.7030   30.9760   40.7860 C   0  0  0  0  0  0  0  0  0  0  0  0
   39.3290   29.9520   40.0540 N   0  0  0  0  0  0  0  0  0  0  0  0
   38.4690   27.3650   42.5550 N   0  0  0  0  0  0  0  0  0  0  0  0
   37.1040   26.9680   42.6260 C   0  0  0  0  0  0  0  0  0  0  0  0
   36.2260   27.9070   42.9220 N   0  0  0  0  0  0  0  0  0  0  0  0
   36.8560   25.5710   42.3590 N   0  0  0  0  0  0  0  0  0  0  0  0
   35.2320   27.6890   43.0120 H   0  0  0  0  0  0  0  0  0  0  0  0
   40.1550   32.2850   40.3370 C   0  0  0  0  0  0  0  0  0  0  0  0
   39.7370   33.5270   40.7950 C   0  0  0  0  0  0  0  0  0  0  0  0
   40.4360   34.5170   40.0830 C   0  0  0  0  0  0  0  0  0  0  0  0
   41.2320   33.7790   39.2400 C   0  0  0  0  0  0  0  0  0  0  0  0
   41.0470   32.5240   39.4110 O   0  0  0  0  0  0  0  0  0  0  0  0
   42.1640   34.4300   38.2790 C   0  0  0  0  0  0  0  0  0  0  0  0
   42.1400   33.7280   37.0620 F   0  0  0  0  0  0  0  0  0  0  0  0
   41.7510   35.7280   38.0380 F   0  0  0  0  0  0  0  0  0  0  0  0
   43.4600   34.3810   38.7140 F   0  0  0  0  0  0  0  0  0  0  0  0
   40.2400   35.9290   40.3170 C   0  0  0  0  0  0  0  0  0  0  0  0
   39.2230   36.6040   39.9470 O   0  0  0  0  0  0  0  0  0  0  0  0
   41.2160   36.8220   41.0410 C   0  0  0  0  0  0  0  0  0  0  0  0
   42.3330   36.1870   41.8350 C   0  0  0  0  0  0  0  0  0  0  0  0
   41.1930   36.8860   42.5340 C   0  0  0  0  0  0  0  0  0  0  0  0
   38.6312   27.9676   39.9554 H   0  0  0  0  0  0  0  0  0  0  0  0
   39.2974   29.6520   43.8396 H   0  0  0  0  0  0  0  0  0  0  0  0
   39.1850   26.7159   42.9112 H   0  0  0  0  0  0  0  0  0  0  0  0
   35.8943   25.2035   42.3905 H   0  0  0  0  0  0  0  0  0  0  0  0
   37.6408   24.9419   42.1370 H   0  0  0  0  0  0  0  0  0  0  0  0
   38.9876   33.7057   41.5801 H   0  0  0  0  0  0  0  0  0  0  0  0
   41.1567   37.5693   40.2360 H   0  0  0  0  0  0  0  0  0  0  0  0
   42.4218   35.0917   41.8839 H   0  0  0  0  0  0  0  0  0  0  0  0
   43.4295   36.2739   41.8490 H   0  0  0  0  0  0  0  0  0  0  0  0
   41.3674   37.8443   43.0451 H   0  0  0  0  0  0  0  0  0  0  0  0
   40.4687   36.6015   43.3114 H   0  0  0  0  0  0  0  0  0  0  0  0
  1  2  2  0
  2  7  1  0
  2  3  1  0
  4  3  2  0
  5  4  1  0
  6  1  1  0
  6  5  2  0
  7  8  1  0
  8  9  2  0
  9 11  1  0
 10  8  1  0
 12  5  1  0
 12 13  2  0
 14 21  1  0
 14 13  1  0
 15 16  1  0
 15 14  2  0
 16 12  1  0
 17 20  1  0
 17 15  1  0
 18 17  1  0
 19 17  1  0
 21 23  1  0
 22 21  2  0
 23 24  1  0
 23 25  1  0
 24 25  1  0
  1 26  1  0
  3 27  1  0
  7 28  1  0
 10 29  1  0
 10 30  1  0
 13 31  1  0
 23 32  1  0
 24 33  1  0
 24 34  1  0
 25 35  1  0
 25 36  1  0
M  ISO  8  26  14  27  14  31  14  32  13  33  13  34  13  35  13  36  13
M  END
>  <minimizedAffinity>  (1) 
-5.38926983

>  <minimizedRMSD>  (1) 
1.31739521

$$$$
