
     RDKit          3D

 30 33  0  0  1  0  0  0  0  0999 V2000
   38.4550   29.1410   42.5970 C   0  0  0  0  0  0  0  0  0  0  0  0
   37.3960   28.6800   43.3830 C   0  0  0  0  0  0  0  0  0  0  0  0
   37.8570   27.5000   43.9610 C   0  0  0  0  0  0  0  0  0  0  0  0
   39.1060   27.2900   43.5370 N   0  0  0  0  0  0  0  0  0  0  0  0
   39.4770   28.2740   42.7120 N   0  0  0  0  0  0  0  0  0  0  0  0
   37.0110   31.7570   40.4750 C   0  0  0  0  0  0  0  0  0  0  0  0
   38.0490   32.6940   40.3780 C   0  0  0  0  0  0  0  0  0  0  0  0
   39.2420   32.4120   41.0490 C   0  0  0  0  0  0  0  0  0  0  0  0
   39.3470   31.2600   41.7580 N   0  0  0  0  0  0  0  0  0  0  0  0
   38.3270   30.3730   41.8330 C   0  0  0  0  0  0  0  0  0  0  0  0
   37.1580   30.6330   41.1850 N   0  0  0  0  0  0  0  0  0  0  0  0
   39.8950   26.1370   43.9480 C   0  0  2  0  0  0  0  0  0  0  0  0
   41.0720   25.7640   42.9870 C   0  0  0  0  0  0  0  0  0  0  0  0
   39.8620   24.8880   43.1630 C   0  0  2  0  0  0  0  0  0  0  0  0
   38.9100   24.7080   42.0110 C   0  0  0  0  0  0  0  0  0  0  0  0
   39.3260   24.9530   40.6500 C   0  0  0  0  0  0  0  0  0  0  0  0
   37.7690   24.5700   39.7780 S   0  0  0  0  0  0  0  0  0  0  0  0
   36.8400   24.1510   41.3920 C   0  0  0  0  0  0  0  0  0  0  0  0
   37.6680   24.3190   42.2420 N   0  0  0  0  0  0  0  0  0  0  0  0
   36.4098   29.1486   43.5166 H   0  0  0  0  0  0  0  0  0  0  0  0
   37.2909   26.8532   44.6475 H   0  0  0  0  0  0  0  0  0  0  0  0
   36.0591   31.9494   39.9583 H   0  0  0  0  0  0  0  0  0  0  0  0
   37.9288   33.6186   39.7943 H   0  0  0  0  0  0  0  0  0  0  0  0
   40.0861   33.1158   41.0029 H   0  0  0  0  0  0  0  0  0  0  0  0
   39.7543   26.3563   45.0167 H   0  0  0  0  0  0  0  0  0  0  0  0
   42.0466   25.4558   43.3935 H   0  0  0  0  0  0  0  0  0  0  0  0
   41.5872   26.2434   42.1416 H   0  0  0  0  0  0  0  0  0  0  0  0
   39.7059   23.8361   43.4445 H   0  0  0  0  0  0  0  0  0  0  0  0
   40.2996   25.2768   40.2535 H   0  0  0  0  0  0  0  0  0  0  0  0
   35.7944   23.8316   41.5130 H   0  0  0  0  0  0  0  0  0  0  0  0
  1  5  2  0
  1  2  1  0
  2  3  2  0
  4 12  1  0
  4  3  1  0
  5  4  1  0
  6 11  2  0
  7  6  1  0
  7  8  2  0
  8  9  1  0
  9 10  2  0
 10  1  1  0
 11 10  1  0
 13 14  1  0
 13 12  1  0
 14 12  1  0
 15 19  1  0
 15 14  1  0
 16 15  2  0
 17 16  1  0
 17 18  1  0
 18 19  2  0
  2 20  1  0
  3 21  1  0
  6 22  1  0
  7 23  1  0
  8 24  1  0
 12 25  1  1
 13 26  1  0
 13 27  1  0
 14 28  1  1
 16 29  1  0
 18 30  1  0
M  ISO  8  20  14  21  14  22  14  23  14  24  14  25  13  26  13  27  13
M  ISO  3  28  13  29  14  30  14
M  END
>  <minimizedAffinity>  (1) 
-5.01000023

>  <minimizedRMSD>  (1) 
1.71788931

$$$$
