
     RDKit          3D

 26 28  0  0  1  0  0  0  0  0999 V2000
   38.4700   29.0950   42.5950 C   0  0  0  0  0  0  0  0  0  0  0  0
   37.4230   28.6420   43.4010 C   0  0  0  0  0  0  0  0  0  0  0  0
   37.9060   27.4770   43.9800 C   0  0  0  0  0  0  0  0  0  0  0  0
   39.1660   27.2690   43.5300 N   0  0  0  0  0  0  0  0  0  0  0  0
   39.4990   28.2530   42.6920 N   0  0  0  0  0  0  0  0  0  0  0  0
   36.9410   31.6930   40.4850 C   0  0  0  0  0  0  0  0  0  0  0  0
   37.9630   32.6450   40.3770 C   0  0  0  0  0  0  0  0  0  0  0  0
   39.1740   32.3830   41.0340 C   0  0  0  0  0  0  0  0  0  0  0  0
   39.3160   31.2370   41.7390 N   0  0  0  0  0  0  0  0  0  0  0  0
   38.3010   30.3330   41.8220 C   0  0  0  0  0  0  0  0  0  0  0  0
   37.1160   30.5750   41.1890 N   0  0  0  0  0  0  0  0  0  0  0  0
   39.9840   26.1310   43.9320 C   0  0  2  0  0  0  0  0  0  0  0  0
   41.0210   25.6590   42.8620 C   0  0  0  0  0  0  0  0  0  0  0  0
   39.8150   24.8360   43.2290 C   0  0  2  0  0  0  0  0  0  0  0  0
   38.7840   24.7520   42.1320 C   0  0  0  0  0  0  0  0  0  0  0  0
   37.7130   24.1710   42.3640 O   0  0  0  0  0  0  0  0  0  0  0  0
   36.4358   29.1054   43.5447 H   0  0  0  0  0  0  0  0  0  0  0  0
   37.3589   26.8328   44.6840 H   0  0  0  0  0  0  0  0  0  0  0  0
   35.9795   31.8709   39.9811 H   0  0  0  0  0  0  0  0  0  0  0  0
   37.8203   33.5680   39.7958 H   0  0  0  0  0  0  0  0  0  0  0  0
   40.0026   33.1042   40.9765 H   0  0  0  0  0  0  0  0  0  0  0  0
   39.9925   26.4228   44.9926 H   0  0  0  0  0  0  0  0  0  0  0  0
   42.0276   25.3372   43.1672 H   0  0  0  0  0  0  0  0  0  0  0  0
   41.4437   26.0723   41.9343 H   0  0  0  0  0  0  0  0  0  0  0  0
   39.6420   23.8154   43.6011 H   0  0  0  0  0  0  0  0  0  0  0  0
   38.9779   25.1974   41.1451 H   0  0  0  0  0  0  0  0  0  0  0  0
  1  5  2  0
  1  2  1  0
  2  3  2  0
  4 12  1  0
  4  3  1  0
  5  4  1  0
  6 11  2  0
  7  6  1  0
  7  8  2  0
  8  9  1  0
  9 10  2  0
 10  1  1  0
 11 10  1  0
 13 14  1  0
 13 12  1  0
 14 12  1  0
 15 16  2  0
 15 14  1  0
  2 17  1  0
  3 18  1  0
  6 19  1  0
  7 20  1  0
  8 21  1  0
 12 22  1  1
 13 23  1  0
 13 24  1  0
 14 25  1  1
 15 26  1  0
M  ISO  8  17  14  18  14  19  14  20  14  21  14  22  13  23  13  24  13
M  ISO  2  25  13  26   6
M  END
>  <minimizedAffinity>  (1) 
-4.46950483

>  <minimizedRMSD>  (1) 
1.59109855

$$$$
