
     RDKit          3D

 25 27  0  0  1  0  0  0  0  0999 V2000
   38.8050   28.7570   42.6690 C   0  0  0  0  0  0  0  0  0  0  0  0
   37.9900   27.7650   43.2340 C   0  0  0  0  0  0  0  0  0  0  0  0
   38.8750   26.8970   43.8670 C   0  0  0  0  0  0  0  0  0  0  0  0
   40.1320   27.3610   43.6800 N   0  0  0  0  0  0  0  0  0  0  0  0
   40.0930   28.4820   42.9580 N   0  0  0  0  0  0  0  0  0  0  0  0
   36.2840   30.8340   41.0060 C   0  0  0  0  0  0  0  0  0  0  0  0
   37.0430   31.8960   40.4970 C   0  0  0  0  0  0  0  0  0  0  0  0
   38.4240   31.8870   40.7330 C   0  0  0  0  0  0  0  0  0  0  0  0
   38.9730   30.8680   41.4340 N   0  0  0  0  0  0  0  0  0  0  0  0
   38.2200   29.8540   41.9150 C   0  0  0  0  0  0  0  0  0  0  0  0
   36.8810   29.8620   41.6870 N   0  0  0  0  0  0  0  0  0  0  0  0
   41.3130   26.6910   44.2130 C   0  0  2  0  0  0  0  0  0  0  0  0
   42.6660   27.1530   43.5880 C   0  0  0  0  0  0  0  0  0  0  0  0
   42.0930   25.7850   43.3460 C   0  0  2  0  0  0  0  0  0  0  0  0
   41.3270   25.3930   41.7610 S   0  0  0  0  0  0  0  0  0  0  0  0
   36.8936   27.6897   43.1872 H   0  0  0  0  0  0  0  0  0  0  0  0
   38.5996   25.9893   44.4239 H   0  0  0  0  0  0  0  0  0  0  0  0
   35.1966   30.8051   40.8422 H   0  0  0  0  0  0  0  0  0  0  0  0
   36.5696   32.7111   39.9300 H   0  0  0  0  0  0  0  0  0  0  0  0
   39.0569   32.7018   40.3515 H   0  0  0  0  0  0  0  0  0  0  0  0
   40.8781   26.5856   45.2178 H   0  0  0  0  0  0  0  0  0  0  0  0
   42.6799   27.9011   42.7817 H   0  0  0  0  0  0  0  0  0  0  0  0
   43.6160   27.5576   43.9673 H   0  0  0  0  0  0  0  0  0  0  0  0
   42.5321   24.7814   43.4464 H   0  0  0  0  0  0  0  0  0  0  0  0
   40.1225   24.7766   41.9759 H   0  0  0  0  0  0  0  0  0  0  0  0
  1  5  2  0
  1  2  1  0
  2  3  2  0
  4  3  1  0
  4 12  1  0
  5  4  1  0
  6 11  2  0
  7  8  2  0
  7  6  1  0
  8  9  1  0
  9 10  2  0
 10  1  1  0
 11 10  1  0
 13 12  1  0
 14 13  1  0
 14 12  1  0
 15 14  1  0
  2 16  1  0
  3 17  1  0
  6 18  1  0
  7 19  1  0
  8 20  1  0
 12 21  1  1
 13 22  1  0
 13 23  1  0
 14 24  1  1
 15 25  1  0
M  ISO  8  16  14  17  14  18  14  19  14  20  14  21  13  22  13  23  13
M  ISO  2  24  13  25  11
M  END
>  <minimizedAffinity>  (1) 
-4.11974144

>  <minimizedRMSD>  (1) 
0.278057128

$$$$
