
     RDKit          3D

 42 46  0  0  1  0  0  0  0  0999 V2000
   39.9180   26.2200   43.6510 C   0  0  2  0  0  0  0  0  0  0  0  0
   40.9410   25.7650   42.5990 C   0  0  0  0  0  0  0  0  0  0  0  0
   39.7240   24.9540   42.8680 C   0  0  2  0  0  0  0  0  0  0  0  0
   38.6130   24.8710   41.8820 C   0  0  0  0  0  0  0  0  0  0  0  0
   37.5320   24.0480   42.1500 C   0  0  0  0  0  0  0  0  0  0  0  0
   36.5880   24.0430   41.1550 C   0  0  0  0  0  0  0  0  0  0  0  0
   36.6200   24.7300   40.0050 N   0  0  0  0  0  0  0  0  0  0  0  0
   37.6990   25.5180   39.7970 C   0  0  0  0  0  0  0  0  0  0  0  0
   38.6680   25.5760   40.7270 N   0  0  0  0  0  0  0  0  0  0  0  0
   37.7390   26.2510   38.5780 N   0  0  0  0  0  0  0  0  0  0  0  0
   38.5860   25.8870   37.5980 C   0  0  0  0  0  0  0  0  0  0  0  0
   38.5910   26.6360   36.4160 C   0  0  0  0  0  0  0  0  0  0  0  0
   37.7140   27.7160   36.3320 C   0  0  0  0  0  0  0  0  0  0  0  0
   37.7120   28.4040   35.2590 O   0  0  0  0  0  0  0  0  0  0  0  0
   36.8950   28.0200   37.3550 N   0  0  0  0  0  0  0  0  0  0  0  0
   36.8910   27.2890   38.5070 C   0  0  0  0  0  0  0  0  0  0  0  0
   36.1020   27.6340   39.4100 O   0  0  0  0  0  0  0  0  0  0  0  0
   38.4730   29.2870   42.4860 C   0  0  0  0  0  0  0  0  0  0  0  0
   37.4940   28.8670   43.4010 C   0  0  0  0  0  0  0  0  0  0  0  0
   37.9550   27.6690   43.9200 C   0  0  0  0  0  0  0  0  0  0  0  0
   39.1380   27.4040   43.3410 N   0  0  0  0  0  0  0  0  0  0  0  0
   39.4570   28.3710   42.4780 N   0  0  0  0  0  0  0  0  0  0  0  0
   36.9830   31.8950   40.3920 C   0  0  0  0  0  0  0  0  0  0  0  0
   37.9980   32.8720   40.3310 C   0  0  0  0  0  0  0  0  0  0  0  0
   39.1960   32.6150   41.0200 C   0  0  0  0  0  0  0  0  0  0  0  0
   39.3240   31.4520   41.7070 N   0  0  0  0  0  0  0  0  0  0  0  0
   38.3150   30.5300   41.7420 C   0  0  0  0  0  0  0  0  0  0  0  0
   37.1350   30.7560   41.0780 N   0  0  0  0  0  0  0  0  0  0  0  0
   39.9186   26.4645   44.7235 H   0  0  0  0  0  0  0  0  0  0  0  0
   41.9290   25.3976   42.9135 H   0  0  0  0  0  0  0  0  0  0  0  0
   41.3958   26.2175   41.7055 H   0  0  0  0  0  0  0  0  0  0  0  0
   39.5646   23.8961   43.1236 H   0  0  0  0  0  0  0  0  0  0  0  0
   37.4393   23.4554   43.0721 H   0  0  0  0  0  0  0  0  0  0  0  0
   35.7074   23.4045   41.3192 H   0  0  0  0  0  0  0  0  0  0  0  0
   39.2565   25.0239   37.7226 H   0  0  0  0  0  0  0  0  0  0  0  0
   39.2629   26.3816   35.5831 H   0  0  0  0  0  0  0  0  0  0  0  0
   36.2562   28.8231   37.2665 H   0  0  0  0  0  0  0  0  0  0  0  0
   36.5557   29.3827   43.6531 H   0  0  0  0  0  0  0  0  0  0  0  0
   37.4451   27.0470   44.6704 H   0  0  0  0  0  0  0  0  0  0  0  0
   36.0374   32.0746   39.8595 H   0  0  0  0  0  0  0  0  0  0  0  0
   37.8571   33.8037   39.7635 H   0  0  0  0  0  0  0  0  0  0  0  0
   40.0177   33.3461   41.0025 H   0  0  0  0  0  0  0  0  0  0  0  0
  2  3  1  0
  2  1  1  0
  3  1  1  0
  4  5  2  0
  4  3  1  0
  6  5  1  0
  7  6  2  0
  8  7  1  0
  8  9  2  0
  9  4  1  0
 10  8  1  0
 11 10  1  0
 12 11  2  0
 13 12  1  0
 13 15  1  0
 14 13  2  0
 15 16  1  0
 16 10  1  0
 16 17  2  0
 18 19  1  0
 19 20  2  0
 21  1  1  0
 21 20  1  0
 22 18  2  0
 22 21  1  0
 23 28  2  0
 24 23  1  0
 24 25  2  0
 25 26  1  0
 26 27  2  0
 27 18  1  0
 28 27  1  0
  1 29  1  1
  2 30  1  0
  2 31  1  0
  3 32  1  1
  5 33  1  0
  6 34  1  0
 11 35  1  0
 12 36  1  0
 15 37  1  0
 19 38  1  0
 20 39  1  0
 23 40  1  0
 24 41  1  0
 25 42  1  0
M  ISO  8  29  13  30  13  31  13  32  13  33  14  34  14  35  14  36  14
M  ISO  6  37   9  38  14  39  14  40  14  41  14  42  14
M  END
>  <minimizedAffinity>  (1) 
-6.11585283

>  <minimizedRMSD>  (1) 
0.962021172

$$$$
