
     RDKit          3D

 39 43  0  0  1  0  0  0  0  0999 V2000
   39.8690   26.2060   43.8820 C   0  0  2  0  0  0  0  0  0  0  0  0
   41.0140   25.7880   42.9460 C   0  0  0  0  0  0  0  0  0  0  0  0
   39.8040   24.9330   43.0860 C   0  0  2  0  0  0  0  0  0  0  0  0
   38.8110   24.8060   41.9970 C   0  0  0  0  0  0  0  0  0  0  0  0
   37.5840   24.2190   42.2550 C   0  0  0  0  0  0  0  0  0  0  0  0
   36.7650   24.1430   41.1590 C   0  0  0  0  0  0  0  0  0  0  0  0
   37.0290   24.5660   39.9210 N   0  0  0  0  0  0  0  0  0  0  0  0
   38.2480   25.1370   39.7200 C   0  0  0  0  0  0  0  0  0  0  0  0
   39.1030   25.2440   40.7450 N   0  0  0  0  0  0  0  0  0  0  0  0
   38.6000   25.6130   38.4190 N   0  0  0  0  0  0  0  0  0  0  0  0
   39.6420   25.0390   37.8210 N   0  0  0  0  0  0  0  0  0  0  0  0
   39.8620   25.5810   36.6080 C   0  0  0  0  0  0  0  0  0  0  0  0
   38.9010   26.5550   36.4310 C   0  0  0  0  0  0  0  0  0  0  0  0
   38.1340   26.5480   37.5780 C   0  0  0  0  0  0  0  0  0  0  0  0
   38.4410   29.2150   42.5580 C   0  0  0  0  0  0  0  0  0  0  0  0
   37.3910   28.7610   43.3670 C   0  0  0  0  0  0  0  0  0  0  0  0
   37.8390   27.5810   43.9400 C   0  0  0  0  0  0  0  0  0  0  0  0
   39.0840   27.3580   43.4880 N   0  0  0  0  0  0  0  0  0  0  0  0
   39.4540   28.3350   42.6580 N   0  0  0  0  0  0  0  0  0  0  0  0
   37.0220   31.8300   40.4230 C   0  0  0  0  0  0  0  0  0  0  0  0
   38.0610   32.7770   40.3430 C   0  0  0  0  0  0  0  0  0  0  0  0
   39.2540   32.4940   41.0360 C   0  0  0  0  0  0  0  0  0  0  0  0
   39.3510   31.3440   41.7410 N   0  0  0  0  0  0  0  0  0  0  0  0
   38.3170   30.4500   41.7940 C   0  0  0  0  0  0  0  0  0  0  0  0
   37.1420   30.6970   41.1280 N   0  0  0  0  0  0  0  0  0  0  0  0
   39.7482   26.4506   44.9476 H   0  0  0  0  0  0  0  0  0  0  0  0
   41.9752   25.4558   43.3651 H   0  0  0  0  0  0  0  0  0  0  0  0
   41.5450   26.2572   42.1046 H   0  0  0  0  0  0  0  0  0  0  0  0
   39.6567   23.8695   43.3253 H   0  0  0  0  0  0  0  0  0  0  0  0
   37.2932   23.8476   43.2487 H   0  0  0  0  0  0  0  0  0  0  0  0
   35.7791   23.6815   41.3174 H   0  0  0  0  0  0  0  0  0  0  0  0
   40.6535   25.3017   35.8970 H   0  0  0  0  0  0  0  0  0  0  0  0
   38.7723   27.2054   35.5533 H   0  0  0  0  0  0  0  0  0  0  0  0
   37.2745   27.2065   37.7723 H   0  0  0  0  0  0  0  0  0  0  0  0
   36.4130   29.2417   43.5166 H   0  0  0  0  0  0  0  0  0  0  0  0
   37.2770   26.9431   44.6381 H   0  0  0  0  0  0  0  0  0  0  0  0
   36.0807   32.0269   39.8890 H   0  0  0  0  0  0  0  0  0  0  0  0
   37.9452   33.7032   39.7610 H   0  0  0  0  0  0  0  0  0  0  0  0
   40.0969   33.2000   41.0042 H   0  0  0  0  0  0  0  0  0  0  0  0
  2  3  1  0
  2  1  1  0
  3  1  1  0
  4  5  2  0
  4  3  1  0
  6  5  1  0
  7  6  2  0
  8  7  1  0
  8  9  2  0
  9  4  1  0
 10  8  1  0
 11 10  1  0
 12 11  2  0
 13 12  1  0
 13 14  2  0
 14 10  1  0
 15 19  2  0
 15 16  1  0
 16 17  2  0
 18  1  1  0
 18 17  1  0
 19 18  1  0
 20 25  2  0
 21 20  1  0
 21 22  2  0
 22 23  1  0
 23 24  2  0
 24 15  1  0
 25 24  1  0
  1 26  1  1
  2 27  1  0
  2 28  1  0
  3 29  1  1
  5 30  1  0
  6 31  1  0
 12 32  1  0
 13 33  1  0
 14 34  1  0
 16 35  1  0
 17 36  1  0
 20 37  1  0
 21 38  1  0
 22 39  1  0
M  ISO  8  26  13  27  13  28  13  29  13  30  14  31  14  32  14  33  14
M  ISO  6  34  14  35  14  36  14  37  14  38  14  39  14
M  END
>  <minimizedAffinity>  (1) 
-5.72810364

>  <minimizedRMSD>  (1) 
0.0905697942

$$$$
