
     RDKit          3D

 37 41  0  0  1  0  0  0  0  0999 V2000
   39.8840   26.1160   43.8570 C   0  0  2  0  0  0  0  0  0  0  0  0
   41.0170   25.7040   42.9050 C   0  0  0  0  0  0  0  0  0  0  0  0
   39.8050   24.8520   43.0500 C   0  0  2  0  0  0  0  0  0  0  0  0
   38.8040   24.7450   41.9640 C   0  0  0  0  0  0  0  0  0  0  0  0
   37.5490   24.2320   42.2420 C   0  0  0  0  0  0  0  0  0  0  0  0
   36.7210   24.1650   41.1470 C   0  0  0  0  0  0  0  0  0  0  0  0
   37.0180   24.5370   39.8950 N   0  0  0  0  0  0  0  0  0  0  0  0
   38.2540   25.0300   39.6790 C   0  0  0  0  0  0  0  0  0  0  0  0
   39.1160   25.1250   40.7010 N   0  0  0  0  0  0  0  0  0  0  0  0
   38.6480   25.4560   38.3410 C   0  0  0  0  0  0  0  0  0  0  0  0
   37.8200   25.6770   37.3100 N   0  0  0  0  0  0  0  0  0  0  0  0
   38.4550   26.0450   36.2530 O   0  0  0  0  0  0  0  0  0  0  0  0
   39.7350   26.0690   36.5840 C   0  0  0  0  0  0  0  0  0  0  0  0
   39.8680   25.7050   37.8780 N   0  0  0  0  0  0  0  0  0  0  0  0
   38.4470   29.1390   42.5790 C   0  0  0  0  0  0  0  0  0  0  0  0
   37.4140   28.6920   43.4050 C   0  0  0  0  0  0  0  0  0  0  0  0
   37.8650   27.5080   43.9630 C   0  0  0  0  0  0  0  0  0  0  0  0
   39.0990   27.2760   43.4850 N   0  0  0  0  0  0  0  0  0  0  0  0
   39.4610   28.2520   42.6480 N   0  0  0  0  0  0  0  0  0  0  0  0
   37.0090   31.7740   40.4730 C   0  0  0  0  0  0  0  0  0  0  0  0
   38.0520   32.7110   40.3810 C   0  0  0  0  0  0  0  0  0  0  0  0
   39.2560   32.4230   41.0540 C   0  0  0  0  0  0  0  0  0  0  0  0
   39.3550   31.2670   41.7520 N   0  0  0  0  0  0  0  0  0  0  0  0
   38.3170   30.3790   41.8210 C   0  0  0  0  0  0  0  0  0  0  0  0
   37.1340   30.6350   41.1750 N   0  0  0  0  0  0  0  0  0  0  0  0
   39.7756   26.3501   44.9263 H   0  0  0  0  0  0  0  0  0  0  0  0
   41.9815   25.3642   43.3103 H   0  0  0  0  0  0  0  0  0  0  0  0
   41.5407   26.1797   42.0627 H   0  0  0  0  0  0  0  0  0  0  0  0
   39.6536   23.7876   43.2827 H   0  0  0  0  0  0  0  0  0  0  0  0
   37.2423   23.9076   43.2473 H   0  0  0  0  0  0  0  0  0  0  0  0
   35.7105   23.7647   41.3162 H   0  0  0  0  0  0  0  0  0  0  0  0
   40.5614   26.3424   35.9115 H   0  0  0  0  0  0  0  0  0  0  0  0
   36.4430   29.1795   43.5768 H   0  0  0  0  0  0  0  0  0  0  0  0
   37.3126   26.8719   44.6702 H   0  0  0  0  0  0  0  0  0  0  0  0
   36.0609   31.9792   39.9544 H   0  0  0  0  0  0  0  0  0  0  0  0
   37.9325   33.6390   39.8026 H   0  0  0  0  0  0  0  0  0  0  0  0
   40.1014   33.1256   41.0130 H   0  0  0  0  0  0  0  0  0  0  0  0
  2  3  1  0
  2  1  1  0
  3  1  1  0
  4  5  2  0
  4  3  1  0
  6  5  1  0
  7  6  2  0
  8  7  1  0
  8  9  2  0
  9  4  1  0
 10  8  1  0
 11 10  2  0
 12 13  1  0
 12 11  1  0
 13 14  2  0
 14 10  1  0
 15 19  2  0
 15 16  1  0
 16 17  2  0
 18  1  1  0
 18 17  1  0
 19 18  1  0
 20 25  2  0
 21 20  1  0
 21 22  2  0
 22 23  1  0
 23 24  2  0
 24 15  1  0
 25 24  1  0
  1 26  1  1
  2 27  1  0
  2 28  1  0
  3 29  1  1
  5 30  1  0
  6 31  1  0
 13 32  1  0
 16 33  1  0
 17 34  1  0
 20 35  1  0
 21 36  1  0
 22 37  1  0
M  ISO  8  26  13  27  13  28  13  29  13  30  14  31  14  32  14  33  14
M  ISO  4  34  14  35  14  36  14  37  14
M  END
>  <minimizedAffinity>  (1) 
-5.42665291

>  <minimizedRMSD>  (1) 
0.205430984

$$$$
