
     RDKit          3D

 35 38  0  0  1  0  0  0  0  0999 V2000
   39.8660   26.1920   43.9100 C   0  0  2  0  0  0  0  0  0  0  0  0
   41.0190   25.7780   42.9840 C   0  0  0  0  0  0  0  0  0  0  0  0
   39.8120   24.9160   43.1170 C   0  0  2  0  0  0  0  0  0  0  0  0
   38.8260   24.7860   42.0210 C   0  0  0  0  0  0  0  0  0  0  0  0
   37.5750   24.2530   42.2840 C   0  0  0  0  0  0  0  0  0  0  0  0
   36.7680   24.1670   41.1800 C   0  0  0  0  0  0  0  0  0  0  0  0
   37.0710   24.5380   39.9190 N   0  0  0  0  0  0  0  0  0  0  0  0
   38.3050   25.0500   39.7260 C   0  0  0  0  0  0  0  0  0  0  0  0
   39.1490   25.1640   40.7590 N   0  0  0  0  0  0  0  0  0  0  0  0
   38.6630   25.4680   38.3340 C   0  0  0  0  0  0  0  0  0  0  0  0
   38.4410   29.1930   42.5640 C   0  0  0  0  0  0  0  0  0  0  0  0
   37.3820   28.7370   43.3680 C   0  0  0  0  0  0  0  0  0  0  0  0
   37.8310   27.5620   43.9470 C   0  0  0  0  0  0  0  0  0  0  0  0
   39.0760   27.3410   43.5090 N   0  0  0  0  0  0  0  0  0  0  0  0
   39.4530   28.3150   42.6770 N   0  0  0  0  0  0  0  0  0  0  0  0
   37.0190   31.8040   40.4320 C   0  0  0  0  0  0  0  0  0  0  0  0
   38.0610   32.7520   40.3470 C   0  0  0  0  0  0  0  0  0  0  0  0
   39.2560   32.4690   41.0370 C   0  0  0  0  0  0  0  0  0  0  0  0
   39.3530   31.3160   41.7430 N   0  0  0  0  0  0  0  0  0  0  0  0
   38.3140   30.4250   41.7970 C   0  0  0  0  0  0  0  0  0  0  0  0
   37.1410   30.6770   41.1350 N   0  0  0  0  0  0  0  0  0  0  0  0
   39.7371   26.4389   44.9741 H   0  0  0  0  0  0  0  0  0  0  0  0
   41.9789   25.4520   43.4109 H   0  0  0  0  0  0  0  0  0  0  0  0
   41.5536   26.2481   42.1454 H   0  0  0  0  0  0  0  0  0  0  0  0
   39.6689   23.8521   43.3571 H   0  0  0  0  0  0  0  0  0  0  0  0
   37.2586   23.9287   43.2864 H   0  0  0  0  0  0  0  0  0  0  0  0
   35.7628   23.7497   41.3395 H   0  0  0  0  0  0  0  0  0  0  0  0
   39.3781   26.3029   38.3743 H   0  0  0  0  0  0  0  0  0  0  0  0
   39.1192   24.6199   37.8024 H   0  0  0  0  0  0  0  0  0  0  0  0
   37.7549   25.7884   37.8024 H   0  0  0  0  0  0  0  0  0  0  0  0
   36.4008   29.2142   43.5081 H   0  0  0  0  0  0  0  0  0  0  0  0
   37.2655   26.9244   44.6425 H   0  0  0  0  0  0  0  0  0  0  0  0
   36.0758   32.0008   39.9014 H   0  0  0  0  0  0  0  0  0  0  0  0
   37.9444   33.6773   39.7637 H   0  0  0  0  0  0  0  0  0  0  0  0
   40.0994   33.1744   41.0033 H   0  0  0  0  0  0  0  0  0  0  0  0
  2  3  1  0
  2  1  1  0
  3  1  1  0
  4  5  2  0
  4  3  1  0
  6  5  1  0
  7  6  2  0
  8  7  1  0
  8  9  2  0
  9  4  1  0
 10  8  1  0
 11 15  2  0
 11 12  1  0
 12 13  2  0
 14  1  1  0
 14 13  1  0
 15 14  1  0
 16 21  2  0
 17 16  1  0
 17 18  2  0
 18 19  1  0
 19 20  2  0
 20 11  1  0
 21 20  1  0
  1 22  1  1
  2 23  1  0
  2 24  1  0
  3 25  1  1
  5 26  1  0
  6 27  1  0
 10 28  1  0
 10 29  1  0
 10 30  1  0
 12 31  1  0
 13 32  1  0
 16 33  1  0
 17 34  1  0
 18 35  1  0
M  ISO  8  22  13  23  13  24  13  25  13  26  14  27  14  28   8  29   8
M  ISO  6  30   8  31  14  32  14  33  14  34  14  35  14
M  END
>  <minimizedAffinity>  (1) 
-5.29858828

>  <minimizedRMSD>  (1) 
0.0213680398

$$$$
