
     RDKit          3D

 19 20  0  0  0  0  0  0  0  0999 V2000
   38.0860   28.9830   43.4960 C   0  0  0  0  0  0  0  0  0  0  0  0
   37.2100   27.8900   43.5720 C   0  0  0  0  0  0  0  0  0  0  0  0
   36.3630   27.6420   42.4680 C   0  0  0  0  0  0  0  0  0  0  0  0
   36.4630   28.4860   41.4100 N   0  0  0  0  0  0  0  0  0  0  0  0
   37.3130   29.5250   41.3670 C   0  0  0  0  0  0  0  0  0  0  0  0
   38.1180   29.7630   42.4110 N   0  0  0  0  0  0  0  0  0  0  0  0
   37.3780   30.4100   40.1890 C   0  0  0  0  0  0  0  0  0  0  0  0
   37.1030   31.7630   40.3620 C   0  0  0  0  0  0  0  0  0  0  0  0
   37.1710   32.5740   39.2350 C   0  0  0  0  0  0  0  0  0  0  0  0
   37.5070   31.9940   38.0140 C   0  0  0  0  0  0  0  0  0  0  0  0
   37.7720   30.6610   37.8740 C   0  0  0  0  0  0  0  0  0  0  0  0
   37.7010   29.8910   38.9760 N   0  0  0  0  0  0  0  0  0  0  0  0
   38.7558   29.2012   44.3409 H   0  0  0  0  0  0  0  0  0  0  0  0
   37.1831   27.2458   44.4633 H   0  0  0  0  0  0  0  0  0  0  0  0
   35.6535   26.8014   42.4664 H   0  0  0  0  0  0  0  0  0  0  0  0
   36.8428   32.1735   41.3488 H   0  0  0  0  0  0  0  0  0  0  0  0
   36.9637   33.6519   39.3060 H   0  0  0  0  0  0  0  0  0  0  0  0
   37.5614   32.6374   37.1234 H   0  0  0  0  0  0  0  0  0  0  0  0
   38.0341   30.2322   36.8955 H   0  0  0  0  0  0  0  0  0  0  0  0
  1  2  2  0
  3  2  1  0
  4  3  2  0
  5  4  1  0
  5  6  2  0
  6  1  1  0
  7  8  2  0
  7  5  1  0
  9  8  1  0
 10  9  2  0
 11 10  1  0
 11 12  2  0
 12  7  1  0
  1 13  1  0
  2 14  1  0
  3 15  1  0
  8 16  1  0
  9 17  1  0
 10 18  1  0
 11 19  1  0
M  ISO  7  13  14  14  14  15  14  16  14  17  14  18  14  19  14
M  END
>  <minimizedAffinity>  (1) 
-3.89339972

>  <minimizedRMSD>  (1) 
1.16057193

$$$$
