
     RDKit          3D

 26 28  0  0  0  0  0  0  0  0999 V2000
   37.1560   30.1810   40.3940 C   0  0  0  0  0  0  0  0  0  0  0  0
   37.1470   31.5530   40.5560 C   0  0  0  0  0  0  0  0  0  0  0  0
   37.1550   32.3470   39.4130 C   0  0  0  0  0  0  0  0  0  0  0  0
   37.1720   31.7160   38.1720 C   0  0  0  0  0  0  0  0  0  0  0  0
   37.1810   30.3660   38.0310 C   0  0  0  0  0  0  0  0  0  0  0  0
   37.1730   29.6210   39.1500 N   0  0  0  0  0  0  0  0  0  0  0  0
   37.9740   28.8510   43.7030 C   0  0  0  0  0  0  0  0  0  0  0  0
   37.1480   27.7220   43.8140 C   0  0  0  0  0  0  0  0  0  0  0  0
   36.3020   27.4190   42.7340 C   0  0  0  0  0  0  0  0  0  0  0  0
   36.3520   28.2510   41.6610 N   0  0  0  0  0  0  0  0  0  0  0  0
   37.1470   29.3200   41.5800 C   0  0  0  0  0  0  0  0  0  0  0  0
   37.9640   29.6190   42.6120 N   0  0  0  0  0  0  0  0  0  0  0  0
   37.1990   29.6460   36.7630 C   0  0  0  0  0  0  0  0  0  0  0  0
   36.3530   29.9410   35.7120 C   0  0  0  0  0  0  0  0  0  0  0  0
   36.6670   29.0580   34.6980 C   0  0  0  0  0  0  0  0  0  0  0  0
   37.6780   28.2580   35.1430 N   0  0  0  0  0  0  0  0  0  0  0  0
   37.9850   28.6210   36.3760 N   0  0  0  0  0  0  0  0  0  0  0  0
   37.1339   32.0046   41.5589 H   0  0  0  0  0  0  0  0  0  0  0  0
   37.1481   33.4444   39.4881 H   0  0  0  0  0  0  0  0  0  0  0  0
   37.1784   32.3392   37.2656 H   0  0  0  0  0  0  0  0  0  0  0  0
   38.6456   29.1089   44.5351 H   0  0  0  0  0  0  0  0  0  0  0  0
   37.1624   27.0945   44.7174 H   0  0  0  0  0  0  0  0  0  0  0  0
   35.6301   26.5483   42.7561 H   0  0  0  0  0  0  0  0  0  0  0  0
   35.5814   30.7246   35.6875 H   0  0  0  0  0  0  0  0  0  0  0  0
   36.1879   29.0086   33.7091 H   0  0  0  0  0  0  0  0  0  0  0  0
   38.1260   27.4998   34.6088 H   0  0  0  0  0  0  0  0  0  0  0  0
  1  2  2  0
  1 11  1  0
  3  2  1  0
  4  3  2  0
  5  4  1  0
  5  6  2  0
  6  1  1  0
  7  8  2  0
  9  8  1  0
 10  9  2  0
 11 10  1  0
 11 12  2  0
 12  7  1  0
 13  5  1  0
 14 13  1  0
 15 16  1  0
 15 14  2  0
 16 17  1  0
 17 13  2  0
  2 18  1  0
  3 19  1  0
  4 20  1  0
  7 21  1  0
  8 22  1  0
  9 23  1  0
 14 24  1  0
 15 25  1  0
 16 26  1  0
M  ISO  8  18  14  19  14  20  14  21  14  22  14  23  14  24  14  25  14
M  ISO  1  26   9
M  END
>  <minimizedAffinity>  (1) 
-4.91656733

>  <minimizedRMSD>  (1) 
0.994585335

$$$$
