
     RDKit          3D

 25 27  0  0  0  0  0  0  0  0999 V2000
   37.2020   30.3270   40.3490 C   0  0  0  0  0  0  0  0  0  0  0  0
   37.2420   31.6960   40.5400 C   0  0  0  0  0  0  0  0  0  0  0  0
   37.2290   32.4920   39.4040 C   0  0  0  0  0  0  0  0  0  0  0  0
   37.1770   31.8920   38.1600 C   0  0  0  0  0  0  0  0  0  0  0  0
   37.1380   30.5450   38.0080 C   0  0  0  0  0  0  0  0  0  0  0  0
   37.1500   29.7570   39.1080 N   0  0  0  0  0  0  0  0  0  0  0  0
   37.0820   29.8040   36.7950 N   0  0  0  0  0  0  0  0  0  0  0  0
   37.6380   28.5740   36.6490 C   0  0  0  0  0  0  0  0  0  0  0  0
   37.4440   28.0990   35.4140 N   0  0  0  0  0  0  0  0  0  0  0  0
   36.7460   29.0550   34.7600 C   0  0  0  0  0  0  0  0  0  0  0  0
   36.5430   30.0680   35.6120 N   0  0  0  0  0  0  0  0  0  0  0  0
   38.1070   28.9270   43.6190 C   0  0  0  0  0  0  0  0  0  0  0  0
   37.2510   27.8260   43.7520 C   0  0  0  0  0  0  0  0  0  0  0  0
   36.3530   27.5630   42.7040 C   0  0  0  0  0  0  0  0  0  0  0  0
   36.3830   28.4000   41.6370 N   0  0  0  0  0  0  0  0  0  0  0  0
   37.2130   29.4450   41.5420 C   0  0  0  0  0  0  0  0  0  0  0  0
   38.0700   29.6990   42.5360 N   0  0  0  0  0  0  0  0  0  0  0  0
   37.2823   32.1344   41.5481 H   0  0  0  0  0  0  0  0  0  0  0  0
   37.2597   33.5880   39.4922 H   0  0  0  0  0  0  0  0  0  0  0  0
   37.1669   32.5286   37.2630 H   0  0  0  0  0  0  0  0  0  0  0  0
   38.1779   28.0378   37.4434 H   0  0  0  0  0  0  0  0  0  0  0  0
   36.4058   29.0088   33.7150 H   0  0  0  0  0  0  0  0  0  0  0  0
   38.8214   29.1570   44.4232 H   0  0  0  0  0  0  0  0  0  0  0  0
   37.2810   27.1882   44.6477 H   0  0  0  0  0  0  0  0  0  0  0  0
   35.6549   26.7140   42.7469 H   0  0  0  0  0  0  0  0  0  0  0  0
  1  2  2  0
  1 16  1  0
  3  2  1  0
  4  3  2  0
  5  4  1  0
  5  6  2  0
  6  1  1  0
  7  5  1  0
  8  7  1  0
  9  8  2  0
 10  9  1  0
 10 11  2  0
 11  7  1  0
 12 13  2  0
 14 13  1  0
 15 14  2  0
 16 15  1  0
 16 17  2  0
 17 12  1  0
  2 18  1  0
  3 19  1  0
  4 20  1  0
  8 21  1  0
 10 22  1  0
 12 23  1  0
 13 24  1  0
 14 25  1  0
M  ISO  8  18  14  19  14  20  14  21  14  22  14  23  14  24  14  25  14
M  END
>  <minimizedAffinity>  (1) 
-4.82361555

>  <minimizedRMSD>  (1) 
0.812356293

$$$$
