
     RDKit          3D

 32 35  0  0  0  0  0  0  0  0999 V2000
   36.9780   29.5550   40.1010 C   0  0  0  0  0  0  0  0  0  0  0  0
   37.2300   30.9030   39.8990 C   0  0  0  0  0  0  0  0  0  0  0  0
   37.1090   31.3990   38.6080 C   0  0  0  0  0  0  0  0  0  0  0  0
   36.7420   30.5120   37.5970 C   0  0  0  0  0  0  0  0  0  0  0  0
   36.5000   29.1950   37.8190 C   0  0  0  0  0  0  0  0  0  0  0  0
   36.6190   28.7220   39.0760 N   0  0  0  0  0  0  0  0  0  0  0  0
   36.1300   28.3750   36.7140 N   0  0  0  0  0  0  0  0  0  0  0  0
   36.9810   27.4380   36.2020 C   0  0  0  0  0  0  0  0  0  0  0  0
   36.3440   26.8320   35.1690 N   0  0  0  0  0  0  0  0  0  0  0  0
   35.1300   27.3880   35.0560 C   0  0  0  0  0  0  0  0  0  0  0  0
   34.0510   27.2050   34.2220 C   0  0  0  0  0  0  0  0  0  0  0  0
   32.9150   27.9420   34.3490 N   0  0  0  0  0  0  0  0  0  0  0  0
   32.8030   28.8890   35.3080 C   0  0  0  0  0  0  0  0  0  0  0  0
   33.8430   29.0910   36.1400 N   0  0  0  0  0  0  0  0  0  0  0  0
   34.9680   28.3760   36.0310 C   0  0  0  0  0  0  0  0  0  0  0  0
   38.0900   29.1160   43.5670 C   0  0  0  0  0  0  0  0  0  0  0  0
   37.3390   28.0080   44.0140 C   0  0  0  0  0  0  0  0  0  0  0  0
   36.4460   27.4160   43.1010 C   0  0  0  0  0  0  0  0  0  0  0  0
   36.3790   27.9630   41.8620 N   0  0  0  0  0  0  0  0  0  0  0  0
   37.1020   29.0150   41.4590 C   0  0  0  0  0  0  0  0  0  0  0  0
   37.9520   29.5810   42.3250 N   0  0  0  0  0  0  0  0  0  0  0  0
   34.1870   26.1960   33.2090 N   0  0  0  0  0  0  0  0  0  0  0  0
   37.5166   31.5585   40.7346 H   0  0  0  0  0  0  0  0  0  0  0  0
   37.2971   32.4605   38.3893 H   0  0  0  0  0  0  0  0  0  0  0  0
   36.6440   30.8975   36.5714 H   0  0  0  0  0  0  0  0  0  0  0  0
   37.9966   27.2154   36.5612 H   0  0  0  0  0  0  0  0  0  0  0  0
   31.8818   29.4820   35.4066 H   0  0  0  0  0  0  0  0  0  0  0  0
   38.7991   29.6028   44.2527 H   0  0  0  0  0  0  0  0  0  0  0  0
   37.4474   27.6212   45.0380 H   0  0  0  0  0  0  0  0  0  0  0  0
   35.8300   26.5484   43.3801 H   0  0  0  0  0  0  0  0  0  0  0  0
   35.0594   25.6532   33.1366 H   0  0  0  0  0  0  0  0  0  0  0  0
   33.4122   26.0152   32.5549 H   0  0  0  0  0  0  0  0  0  0  0  0
  1 20  1  0
  2  1  2  0
  3  2  1  0
  4  5  1  0
  4  3  2  0
  5  6  2  0
  6  1  1  0
  7  5  1  0
  8  7  1  0
  9  8  2  0
 10  9  1  0
 10 15  2  0
 11 12  2  0
 11 10  1  0
 12 13  1  0
 13 14  2  0
 15 14  1  0
 15  7  1  0
 16 17  2  0
 18 17  1  0
 19 18  2  0
 20 19  1  0
 20 21  2  0
 21 16  1  0
 22 11  1  0
  2 23  1  0
  3 24  1  0
  4 25  1  0
  8 26  1  0
 13 27  1  0
 16 28  1  0
 17 29  1  0
 18 30  1  0
 22 31  1  0
 22 32  1  0
M  ISO  8  23  14  24  14  25  14  26  14  27  14  28  14  29  14  30  14
M  END
>  <minimizedAffinity>  (1) 
-4.8193388

>  <minimizedRMSD>  (1) 
2.55843067

$$$$
