
     RDKit          3D

 35 37  0  0  0  0  0  0  0  0999 V2000
   37.5950   30.0620   40.6630 C   0  0  0  0  0  0  0  0  0  0  0  0
   37.8560   31.4100   40.8880 C   0  0  0  0  0  0  0  0  0  0  0  0
   37.5940   32.2900   39.8470 C   0  0  0  0  0  0  0  0  0  0  0  0
   37.0930   31.7800   38.6620 C   0  0  0  0  0  0  0  0  0  0  0  0
   36.8440   30.4410   38.4660 C   0  0  0  0  0  0  0  0  0  0  0  0
   37.1060   29.6120   39.4900 N   0  0  0  0  0  0  0  0  0  0  0  0
   39.4040   28.0080   43.1130 C   0  0  0  0  0  0  0  0  0  0  0  0
   38.3840   27.3380   43.7910 C   0  0  0  0  0  0  0  0  0  0  0  0
   37.0560   27.5930   43.4010 C   0  0  0  0  0  0  0  0  0  0  0  0
   36.8830   28.4750   42.3950 N   0  0  0  0  0  0  0  0  0  0  0  0
   37.8660   29.1090   41.7570 C   0  0  0  0  0  0  0  0  0  0  0  0
   39.1400   28.8730   42.1200 N   0  0  0  0  0  0  0  0  0  0  0  0
   36.3050   29.9440   37.1730 C   0  0  0  0  0  0  0  0  0  0  0  0
   37.3040   29.0120   36.5170 C   0  0  0  0  0  0  0  0  0  0  0  0
   36.8960   28.8080   35.0760 C   0  0  0  0  0  0  0  0  0  0  0  0
   35.5520   28.1170   35.0900 C   0  0  0  0  0  0  0  0  0  0  0  0
   34.5330   28.8190   35.9460 C   0  0  0  0  0  0  0  0  0  0  0  0
   35.0310   29.1460   37.3340 C   0  0  0  0  0  0  0  0  0  0  0  0
   38.2534   31.7636   41.8508 H   0  0  0  0  0  0  0  0  0  0  0  0
   37.7803   33.3681   39.9613 H   0  0  0  0  0  0  0  0  0  0  0  0
   36.8840   32.4780   37.8379 H   0  0  0  0  0  0  0  0  0  0  0  0
   40.4499   27.8229   43.3991 H   0  0  0  0  0  0  0  0  0  0  0  0
   38.6111   26.6331   44.6043 H   0  0  0  0  0  0  0  0  0  0  0  0
   36.2038   27.0991   43.8908 H   0  0  0  0  0  0  0  0  0  0  0  0
   36.1061   30.8418   36.5694 H   0  0  0  0  0  0  0  0  0  0  0  0
   38.3091   29.4570   36.5585 H   0  0  0  0  0  0  0  0  0  0  0  0
   37.3207   28.0466   37.0440 H   0  0  0  0  0  0  0  0  0  0  0  0
   37.6374   28.1813   34.5587 H   0  0  0  0  0  0  0  0  0  0  0  0
   36.8371   29.7696   34.5452 H   0  0  0  0  0  0  0  0  0  0  0  0
   35.1712   28.0723   34.0590 H   0  0  0  0  0  0  0  0  0  0  0  0
   35.7041   27.1153   35.5183 H   0  0  0  0  0  0  0  0  0  0  0  0
   34.2485   29.7579   35.4485 H   0  0  0  0  0  0  0  0  0  0  0  0
   33.6816   28.1323   36.0624 H   0  0  0  0  0  0  0  0  0  0  0  0
   35.2343   28.2189   37.8900 H   0  0  0  0  0  0  0  0  0  0  0  0
   34.2783   29.7194   37.8949 H   0  0  0  0  0  0  0  0  0  0  0  0
  1  2  2  0
  1 11  1  0
  3  2  1  0
  4  3  2  0
  5  4  1  0
  5  6  2  0
  6  1  1  0
  7  8  2  0
  9  8  1  0
 10  9  2  0
 11 12  2  0
 11 10  1  0
 12  7  1  0
 13 18  1  0
 13  5  1  0
 14 13  1  0
 15 16  1  0
 15 14  1  0
 16 17  1  0
 17 18  1  0
  2 19  1  0
  3 20  1  0
  4 21  1  0
  7 22  1  0
  8 23  1  0
  9 24  1  0
 13 25  1  0
 14 26  1  0
 14 27  1  0
 15 28  1  0
 15 29  1  0
 16 30  1  0
 16 31  1  0
 17 32  1  0
 17 33  1  0
 18 34  1  0
 18 35  1  0
M  ISO  8  19  14  20  14  21  14  22  14  23  14  24  14  25  13  26  13
M  ISO  8  27  13  28  13  29  13  30  13  31  13  32  13  33  13  34  13
M  ISO  1  35  13
M  END
>  <minimizedAffinity>  (1) 
-4.73718262

>  <minimizedRMSD>  (1) 
1.74366021

$$$$
