
     RDKit          3D

 32 34  0  0  0  0  0  0  0  0999 V2000
   37.1510   30.2040   40.4590 C   0  0  0  0  0  0  0  0  0  0  0  0
   37.4540   31.5400   40.6320 C   0  0  0  0  0  0  0  0  0  0  0  0
   37.4420   32.3560   39.5050 C   0  0  0  0  0  0  0  0  0  0  0  0
   37.1300   31.7840   38.2780 C   0  0  0  0  0  0  0  0  0  0  0  0
   36.8330   30.4530   38.1350 C   0  0  0  0  0  0  0  0  0  0  0  0
   36.8490   29.6760   39.2410 N   0  0  0  0  0  0  0  0  0  0  0  0
   38.0100   28.7990   43.7360 C   0  0  0  0  0  0  0  0  0  0  0  0
   37.1790   27.6730   43.8410 C   0  0  0  0  0  0  0  0  0  0  0  0
   36.3160   27.4030   42.7670 C   0  0  0  0  0  0  0  0  0  0  0  0
   36.3580   28.2490   41.7200 N   0  0  0  0  0  0  0  0  0  0  0  0
   37.1540   29.3140   41.6390 C   0  0  0  0  0  0  0  0  0  0  0  0
   37.9920   29.5940   42.6570 N   0  0  0  0  0  0  0  0  0  0  0  0
   36.5160   29.9230   36.8210 C   0  0  0  0  0  0  0  0  0  0  0  0
   35.2400   29.1870   36.6600 C   0  0  0  0  0  0  0  0  0  0  0  0
   35.3890   28.6280   35.2570 C   0  0  0  0  0  0  0  0  0  0  0  0
   36.8930   28.6100   34.9620 C   0  0  0  0  0  0  0  0  0  0  0  0
   37.5160   28.8620   36.3440 C   0  0  0  0  0  0  0  0  0  0  0  0
   37.6963   31.9449   41.6256 H   0  0  0  0  0  0  0  0  0  0  0  0
   37.6740   33.4284   39.5837 H   0  0  0  0  0  0  0  0  0  0  0  0
   37.1208   32.4253   37.3843 H   0  0  0  0  0  0  0  0  0  0  0  0
   38.6957   29.0359   44.5628 H   0  0  0  0  0  0  0  0  0  0  0  0
   37.2029   27.0267   44.7308 H   0  0  0  0  0  0  0  0  0  0  0  0
   35.6357   26.5387   42.7801 H   0  0  0  0  0  0  0  0  0  0  0  0
   36.5055   30.8705   36.2623 H   0  0  0  0  0  0  0  0  0  0  0  0
   35.1428   28.3833   37.4047 H   0  0  0  0  0  0  0  0  0  0  0  0
   34.3430   29.8074   36.8030 H   0  0  0  0  0  0  0  0  0  0  0  0
   34.9783   27.6088   35.2069 H   0  0  0  0  0  0  0  0  0  0  0  0
   34.8434   29.2381   34.5221 H   0  0  0  0  0  0  0  0  0  0  0  0
   37.2057   27.6356   34.5585 H   0  0  0  0  0  0  0  0  0  0  0  0
   37.1968   29.3498   34.2067 H   0  0  0  0  0  0  0  0  0  0  0  0
   37.5075   27.9630   36.9778 H   0  0  0  0  0  0  0  0  0  0  0  0
   38.5774   29.1506   36.3561 H   0  0  0  0  0  0  0  0  0  0  0  0
  1  2  2  0
  1 11  1  0
  3  2  1  0
  4  3  2  0
  5  4  1  0
  5  6  2  0
  6  1  1  0
  7  8  2  0
  9  8  1  0
 10  9  2  0
 11 10  1  0
 11 12  2  0
 12  7  1  0
 13  5  1  0
 14 13  1  0
 15 14  1  0
 16 15  1  0
 16 17  1  0
 17 13  1  0
  2 18  1  0
  3 19  1  0
  4 20  1  0
  7 21  1  0
  8 22  1  0
  9 23  1  0
 13 24  1  0
 14 25  1  0
 14 26  1  0
 15 27  1  0
 15 28  1  0
 16 29  1  0
 16 30  1  0
 17 31  1  0
 17 32  1  0
M  ISO  8  18  14  19  14  20  14  21  14  22  14  23  14  24  13  25  13
M  ISO  7  26  13  27  13  28  13  29  13  30  13  31  13  32  13
M  END
>  <minimizedAffinity>  (1) 
-4.61265564

>  <minimizedRMSD>  (1) 
1.19347215

$$$$
