
     RDKit          3D

 20 21  0  0  0  0  0  0  0  0999 V2000
   37.8230   28.8360   43.3980 C   0  0  0  0  0  0  0  0  0  0  0  0
   37.2710   27.5710   43.0850 C   0  0  0  0  0  0  0  0  0  0  0  0
   36.7180   27.4000   41.8210 C   0  0  0  0  0  0  0  0  0  0  0  0
   36.7240   28.4320   40.9400 N   0  0  0  0  0  0  0  0  0  0  0  0
   37.2590   29.6310   41.2670 C   0  0  0  0  0  0  0  0  0  0  0  0
   37.7960   29.8110   42.4840 N   0  0  0  0  0  0  0  0  0  0  0  0
   37.2950   30.7480   40.3900 N   0  0  0  0  0  0  0  0  0  0  0  0
   37.9110   31.8290   40.8400 N   0  0  0  0  0  0  0  0  0  0  0  0
   37.8650   32.8010   39.9050 C   0  0  0  0  0  0  0  0  0  0  0  0
   37.1770   32.2270   38.8590 C   0  0  0  0  0  0  0  0  0  0  0  0
   36.8070   30.9230   39.1510 C   0  0  0  0  0  0  0  0  0  0  0  0
   36.0810   29.9130   38.3980 C   0  0  0  0  0  0  0  0  0  0  0  0
   38.2711   29.0156   44.3864 H   0  0  0  0  0  0  0  0  0  0  0  0
   37.2792   26.7504   43.8175 H   0  0  0  0  0  0  0  0  0  0  0  0
   36.2778   26.4329   41.5365 H   0  0  0  0  0  0  0  0  0  0  0  0
   38.2811   33.8175   39.9645 H   0  0  0  0  0  0  0  0  0  0  0  0
   36.9498   32.7383   37.9119 H   0  0  0  0  0  0  0  0  0  0  0  0
   35.5844   29.2222   39.0953 H   0  0  0  0  0  0  0  0  0  0  0  0
   35.3254   30.4006   37.7645 H   0  0  0  0  0  0  0  0  0  0  0  0
   36.7839   29.3521   37.7645 H   0  0  0  0  0  0  0  0  0  0  0  0
  2  1  2  0
  3  2  1  0
  4  5  1  0
  4  3  2  0
  5  6  2  0
  6  1  1  0
  7  8  1  0
  7  5  1  0
  9  8  2  0
 10 11  2  0
 10  9  1  0
 11  7  1  0
 12 11  1  0
  1 13  1  0
  2 14  1  0
  3 15  1  0
  9 16  1  0
 10 17  1  0
 12 18  1  0
 12 19  1  0
 12 20  1  0
M  ISO  8  13  14  14  14  15  14  16  14  17  14  18   8  19   8  20   8
M  END
>  <minimizedAffinity>  (1) 
-3.94660807

>  <minimizedRMSD>  (1) 
0.999572814

$$$$
