
     RDKit          3D

 31 32  0  0  0  0  0  0  0  0999 V2000
   37.1710   29.9340   40.0390 C   0  0  0  0  0  0  0  0  0  0  0  0
   37.3180   31.3080   39.9930 C   0  0  0  0  0  0  0  0  0  0  0  0
   37.2740   31.9280   38.7520 C   0  0  0  0  0  0  0  0  0  0  0  0
   37.0880   31.1400   37.6310 C   0  0  0  0  0  0  0  0  0  0  0  0
   36.9450   29.7750   37.6860 C   0  0  0  0  0  0  0  0  0  0  0  0
   36.9900   29.1930   38.9020 N   0  0  0  0  0  0  0  0  0  0  0  0
   38.1230   29.1030   43.4720 C   0  0  0  0  0  0  0  0  0  0  0  0
   37.3230   28.0060   43.7810 C   0  0  0  0  0  0  0  0  0  0  0  0
   36.4250   27.5300   42.7860 C   0  0  0  0  0  0  0  0  0  0  0  0
   36.4410   28.2050   41.6140 N   0  0  0  0  0  0  0  0  0  0  0  0
   37.2140   29.2530   41.3370 C   0  0  0  0  0  0  0  0  0  0  0  0
   38.0520   29.6910   42.2780 N   0  0  0  0  0  0  0  0  0  0  0  0
   36.7490   28.9760   36.4650 C   0  0  0  0  0  0  0  0  0  0  0  0
   35.5550   28.0410   36.6200 C   0  0  0  0  0  0  0  0  0  0  0  0
   37.9820   28.1720   36.1250 C   0  0  0  0  0  0  0  0  0  0  0  0
   36.4160   29.8850   35.3060 C   0  0  0  0  0  0  0  0  0  0  0  0
   37.4655   31.8927   40.9130 H   0  0  0  0  0  0  0  0  0  0  0  0
   37.3843   33.0188   38.6624 H   0  0  0  0  0  0  0  0  0  0  0  0
   37.0528   31.6303   36.6470 H   0  0  0  0  0  0  0  0  0  0  0  0
   38.8247   29.4905   44.2253 H   0  0  0  0  0  0  0  0  0  0  0  0
   37.3838   27.5213   44.7666 H   0  0  0  0  0  0  0  0  0  0  0  0
   35.7614   26.6698   42.9582 H   0  0  0  0  0  0  0  0  0  0  0  0
   35.3508   27.8811   37.6890 H   0  0  0  0  0  0  0  0  0  0  0  0
   34.6726   28.4907   36.1414 H   0  0  0  0  0  0  0  0  0  0  0  0
   35.7800   27.0765   36.1414 H   0  0  0  0  0  0  0  0  0  0  0  0
   38.4768   27.8494   37.0530 H   0  0  0  0  0  0  0  0  0  0  0  0
   37.6929   27.2883   35.5372 H   0  0  0  0  0  0  0  0  0  0  0  0
   38.6741   28.7929   35.5372 H   0  0  0  0  0  0  0  0  0  0  0  0
   36.0614   30.8531   35.6894 H   0  0  0  0  0  0  0  0  0  0  0  0
   37.3154   30.0410   34.6922 H   0  0  0  0  0  0  0  0  0  0  0  0
   35.6287   29.4231   34.6922 H   0  0  0  0  0  0  0  0  0  0  0  0
  1 11  1  0
  2  1  2  0
  3  2  1  0
  4  5  1  0
  4  3  2  0
  5  6  2  0
  6  1  1  0
  7  8  2  0
  9  8  1  0
 10  9  2  0
 11 10  1  0
 11 12  2  0
 12  7  1  0
 13 14  1  0
 13  5  1  0
 15 13  1  0
 16 13  1  0
  2 17  1  0
  3 18  1  0
  4 19  1  0
  7 20  1  0
  8 21  1  0
  9 22  1  0
 14 23  1  0
 14 24  1  0
 14 25  1  0
 15 26  1  0
 15 27  1  0
 15 28  1  0
 16 29  1  0
 16 30  1  0
 16 31  1  0
M  ISO  8  17  14  18  14  19  14  20  14  21  14  22  14  23   8  24   8
M  ISO  7  25   8  26   8  27   8  28   8  29   8  30   8  31   8
M  END
>  <minimizedAffinity>  (1) 
-4.2826376

>  <minimizedRMSD>  (1) 
1.20798528

$$$$
