
     RDKit          3D

 39 42  0  0  0  0  0  0  0  0999 V2000
   37.5790   28.5950   43.9280 C   0  0  0  0  0  0  0  0  0  0  0  0
   37.0410   27.2960   43.8360 C   0  0  0  0  0  0  0  0  0  0  0  0
   36.6260   26.8470   42.5770 C   0  0  0  0  0  0  0  0  0  0  0  0
   36.7610   27.6810   41.5120 N   0  0  0  0  0  0  0  0  0  0  0  0
   37.2880   28.9330   41.6380 C   0  0  0  0  0  0  0  0  0  0  0  0
   37.6900   29.3800   42.8330 N   0  0  0  0  0  0  0  0  0  0  0  0
   37.3840   29.7200   40.4660 N   0  0  0  0  0  0  0  0  0  0  0  0
   36.8510   29.3160   39.2920 C   0  0  0  0  0  0  0  0  0  0  0  0
   37.0260   30.1850   38.2460 C   0  0  0  0  0  0  0  0  0  0  0  0
   37.6870   31.3940   38.3320 C   0  0  0  0  0  0  0  0  0  0  0  0
   37.8310   32.1730   37.3520 O   0  0  0  0  0  0  0  0  0  0  0  0
   38.2010   31.7440   39.5460 N   0  0  0  0  0  0  0  0  0  0  0  0
   38.0360   30.8920   40.5950 C   0  0  0  0  0  0  0  0  0  0  0  0
   38.5340   31.2730   41.6850 O   0  0  0  0  0  0  0  0  0  0  0  0
   38.8840   32.9890   39.6460 C   0  0  0  0  0  0  0  0  0  0  0  0
   38.1210   34.1020   40.0150 C   0  0  0  0  0  0  0  0  0  0  0  0
   38.7770   35.3180   40.1140 C   0  0  0  0  0  0  0  0  0  0  0  0
   40.1330   35.4730   39.8690 C   0  0  0  0  0  0  0  0  0  0  0  0
   40.8870   34.3550   39.5000 C   0  0  0  0  0  0  0  0  0  0  0  0
   42.2290   34.5030   39.2570 C   0  0  0  0  0  0  0  0  0  0  0  0
   42.9110   33.3620   38.8990 C   0  0  0  0  0  0  0  0  0  0  0  0
   42.3190   32.1150   38.7800 C   0  0  0  0  0  0  0  0  0  0  0  0
   40.9520   32.0110   39.0380 C   0  0  0  0  0  0  0  0  0  0  0  0
   40.2340   33.1430   39.4010 C   0  0  0  0  0  0  0  0  0  0  0  0
   36.4880   29.8560   36.9080 C   0  0  0  0  0  0  0  0  0  0  0  0
   37.9133   28.9757   44.9044 H   0  0  0  0  0  0  0  0  0  0  0  0
   36.9500   26.6551   44.7254 H   0  0  0  0  0  0  0  0  0  0  0  0
   36.1997   25.8407   42.4519 H   0  0  0  0  0  0  0  0  0  0  0  0
   36.3164   28.3608   39.1835 H   0  0  0  0  0  0  0  0  0  0  0  0
   37.0435   34.0150   40.2183 H   0  0  0  0  0  0  0  0  0  0  0  0
   38.1931   36.2049   40.4013 H   0  0  0  0  0  0  0  0  0  0  0  0
   40.6082   36.4605   39.9635 H   0  0  0  0  0  0  0  0  0  0  0  0
   42.7315   35.4777   39.3433 H   0  0  0  0  0  0  0  0  0  0  0  0
   43.9888   33.4452   38.6956 H   0  0  0  0  0  0  0  0  0  0  0  0
   42.9094   31.2331   38.4907 H   0  0  0  0  0  0  0  0  0  0  0  0
   40.4457   31.0380   38.9544 H   0  0  0  0  0  0  0  0  0  0  0  0
   35.5543   29.2850   37.0185 H   0  0  0  0  0  0  0  0  0  0  0  0
   36.2862   30.7854   36.3552 H   0  0  0  0  0  0  0  0  0  0  0  0
   37.2234   29.2529   36.3552 H   0  0  0  0  0  0  0  0  0  0  0  0
  2  1  2  0
  3  2  1  0
  4  5  1  0
  4  3  2  0
  5  6  2  0
  6  1  1  0
  7 13  1  0
  7  5  1  0
  8  7  1  0
  9 10  1  0
  9  8  2  0
 10 12  1  0
 11 10  2  0
 12 15  1  0
 12 13  1  0
 13 14  2  0
 15 16  2  0
 16 17  1  0
 18 17  2  0
 19 18  1  0
 20 19  2  0
 21 20  1  0
 22 21  2  0
 22 23  1  0
 23 24  2  0
 24 19  1  0
 24 15  1  0
 25  9  1  0
  1 26  1  0
  2 27  1  0
  3 28  1  0
  8 29  1  0
 16 30  1  0
 17 31  1  0
 18 32  1  0
 20 33  1  0
 21 34  1  0
 22 35  1  0
 23 36  1  0
 25 37  1  0
 25 38  1  0
 25 39  1  0
M  ISO  8  26  14  27  14  28  14  29  14  30  14  31  14  32  14  33  14
M  ISO  6  34  14  35  14  36  14  37   8  38   8  39   8
M  END
>  <minimizedAffinity>  (1) 
-6.67964697

>  <minimizedRMSD>  (1) 
3.19919586

$$$$
