
     RDKit          3D

 31 34  0  0  0  0  0  0  0  0999 V2000
   37.1690   26.8220   41.5780 C   0  0  0  0  0  0  0  0  0  0  0  0
   37.7530   26.6520   42.8290 C   0  0  0  0  0  0  0  0  0  0  0  0
   37.9490   27.8020   43.5910 C   0  0  0  0  0  0  0  0  0  0  0  0
   37.5530   29.0300   43.0620 C   0  0  0  0  0  0  0  0  0  0  0  0
   36.9850   29.1560   41.8380 C   0  0  0  0  0  0  0  0  0  0  0  0
   36.8020   28.0460   41.1130 N   0  0  0  0  0  0  0  0  0  0  0  0
   37.1010   23.3310   40.4610 C   0  0  0  0  0  0  0  0  0  0  0  0
   36.5290   23.4090   39.1830 C   0  0  0  0  0  0  0  0  0  0  0  0
   36.1680   24.6700   38.7110 C   0  0  0  0  0  0  0  0  0  0  0  0
   36.3990   25.7340   39.5260 N   0  0  0  0  0  0  0  0  0  0  0  0
   36.9410   25.6420   40.7350 C   0  0  0  0  0  0  0  0  0  0  0  0
   37.2840   24.4370   41.1810 N   0  0  0  0  0  0  0  0  0  0  0  0
   36.5050   30.7600   41.2280 S   0  0  0  0  0  0  0  0  0  0  0  0
   38.9110   32.0810   37.0800 N   0  0  0  0  0  0  0  0  0  0  0  0
   37.7450   31.4430   36.8460 C   0  0  0  0  0  0  0  0  0  0  0  0
   37.1900   31.1390   38.0440 N   0  0  0  0  0  0  0  0  0  0  0  0
   38.0220   31.5930   39.0000 C   0  0  0  0  0  0  0  0  0  0  0  0
   37.8790   31.5130   40.3710 C   0  0  0  0  0  0  0  0  0  0  0  0
   38.8710   32.0550   41.1380 N   0  0  0  0  0  0  0  0  0  0  0  0
   39.9440   32.6420   40.5530 C   0  0  0  0  0  0  0  0  0  0  0  0
   40.0720   32.7130   39.2170 N   0  0  0  0  0  0  0  0  0  0  0  0
   39.1190   32.1920   38.4180 C   0  0  0  0  0  0  0  0  0  0  0  0
   38.0458   25.6582   43.1987 H   0  0  0  0  0  0  0  0  0  0  0  0
   38.4068   27.7424   44.5895 H   0  0  0  0  0  0  0  0  0  0  0  0
   37.7086   29.9367   43.6650 H   0  0  0  0  0  0  0  0  0  0  0  0
   37.3993   22.3544   40.8700 H   0  0  0  0  0  0  0  0  0  0  0  0
   36.3707   22.5066   38.5742 H   0  0  0  0  0  0  0  0  0  0  0  0
   35.7138   24.7995   37.7176 H   0  0  0  0  0  0  0  0  0  0  0  0
   39.5491   32.4320   36.3516 H   0  0  0  0  0  0  0  0  0  0  0  0
   37.3206   31.2110   35.8580 H   0  0  0  0  0  0  0  0  0  0  0  0
   40.7315   33.0720   41.1894 H   0  0  0  0  0  0  0  0  0  0  0  0
  1  2  2  0
  2  3  1  0
  4  3  2  0
  5  4  1  0
  6  1  1  0
  6  5  2  0
  7 12  2  0
  8  7  1  0
  9  8  2  0
  9 10  1  0
 10 11  2  0
 11 12  1  0
 11  1  1  0
 13  5  1  0
 14 22  1  0
 15 14  1  0
 15 16  2  0
 16 17  1  0
 17 18  1  0
 18 19  2  0
 18 13  1  0
 20 19  1  0
 21 20  2  0
 22 17  2  0
 22 21  1  0
  2 23  1  0
  3 24  1  0
  4 25  1  0
  7 26  1  0
  8 27  1  0
  9 28  1  0
 14 29  1  0
 15 30  1  0
 20 31  1  0
M  ISO  8  23  14  24  14  25  14  26  14  27  14  28  14  29   9  30  14
M  ISO  1  31  14
M  END
>  <minimizedAffinity>  (1) 
-5.57278442

>  <minimizedRMSD>  (1) 
5.29635763

$$$$
