
     RDKit          3D

 34 37  0  0  0  0  0  0  0  0999 V2000
   37.1480   30.1480   40.3890 C   0  0  0  0  0  0  0  0  0  0  0  0
   37.2150   31.5320   40.5070 C   0  0  0  0  0  0  0  0  0  0  0  0
   37.1900   32.2760   39.3330 C   0  0  0  0  0  0  0  0  0  0  0  0
   37.1010   31.6010   38.1220 C   0  0  0  0  0  0  0  0  0  0  0  0
   37.0360   30.2500   38.0200 C   0  0  0  0  0  0  0  0  0  0  0  0
   37.0620   29.5490   39.1740 N   0  0  0  0  0  0  0  0  0  0  0  0
   38.1060   28.9230   43.7080 C   0  0  0  0  0  0  0  0  0  0  0  0
   37.2630   27.8140   43.8860 C   0  0  0  0  0  0  0  0  0  0  0  0
   36.3600   27.4890   42.8540 C   0  0  0  0  0  0  0  0  0  0  0  0
   36.3470   28.2670   41.7320 N   0  0  0  0  0  0  0  0  0  0  0  0
   37.1710   29.3210   41.5980 C   0  0  0  0  0  0  0  0  0  0  0  0
   38.0330   29.6320   42.5820 N   0  0  0  0  0  0  0  0  0  0  0  0
   36.9230   29.4400   36.4350 S   0  0  0  0  0  0  0  0  0  0  0  0
   35.3230   28.7080   36.1740 C   0  0  0  0  0  0  0  0  0  0  0  0
   34.2990   29.3260   35.5300 N   0  0  0  0  0  0  0  0  0  0  0  0
   33.1100   28.6730   35.3850 C   0  0  0  0  0  0  0  0  0  0  0  0
   32.8770   27.4470   35.8390 N   0  0  0  0  0  0  0  0  0  0  0  0
   33.8440   26.7560   36.4920 C   0  0  0  0  0  0  0  0  0  0  0  0
   33.6850   25.4810   36.9940 C   0  0  0  0  0  0  0  0  0  0  0  0
   34.7120   24.8260   37.6540 C   0  0  0  0  0  0  0  0  0  0  0  0
   35.9140   25.4680   37.8100 C   0  0  0  0  0  0  0  0  0  0  0  0
   36.0550   26.7500   37.3000 C   0  0  0  0  0  0  0  0  0  0  0  0
   35.0500   27.4300   36.6350 C   0  0  0  0  0  0  0  0  0  0  0  0
   37.2850   32.0190   41.4908 H   0  0  0  0  0  0  0  0  0  0  0  0
   37.2396   33.3745   39.3622 H   0  0  0  0  0  0  0  0  0  0  0  0
   37.0822   32.1942   37.1958 H   0  0  0  0  0  0  0  0  0  0  0  0
   38.8225   29.2048   44.4936 H   0  0  0  0  0  0  0  0  0  0  0  0
   37.3064   27.2145   44.8072 H   0  0  0  0  0  0  0  0  0  0  0  0
   35.6814   26.6286   42.9501 H   0  0  0  0  0  0  0  0  0  0  0  0
   32.2952   29.1934   34.8604 H   0  0  0  0  0  0  0  0  0  0  0  0
   32.7184   24.9715   36.8671 H   0  0  0  0  0  0  0  0  0  0  0  0
   34.5660   23.8087   38.0461 H   0  0  0  0  0  0  0  0  0  0  0  0
   36.7495   24.9759   38.3293 H   0  0  0  0  0  0  0  0  0  0  0  0
   37.0228   27.2560   37.4319 H   0  0  0  0  0  0  0  0  0  0  0  0
  1  2  2  0
  1 11  1  0
  3  2  1  0
  4  3  2  0
  5  4  1  0
  5  6  2  0
  6  1  1  0
  7  8  2  0
  9  8  1  0
 10  9  2  0
 11 10  1  0
 11 12  2  0
 12  7  1  0
 13  5  1  0
 14 13  1  0
 14 23  1  0
 15 14  2  0
 16 15  1  0
 16 17  2  0
 17 18  1  0
 18 23  2  0
 18 19  1  0
 19 20  2  0
 20 21  1  0
 22 21  2  0
 23 22  1  0
  2 24  1  0
  3 25  1  0
  4 26  1  0
  7 27  1  0
  8 28  1  0
  9 29  1  0
 16 30  1  0
 19 31  1  0
 20 32  1  0
 21 33  1  0
 22 34  1  0
M  ISO  8  24  14  25  14  26  14  27  14  28  14  29  14  30  14  31  14
M  ISO  3  32  14  33  14  34  14
M  END
>  <minimizedAffinity>  (1) 
-4.92038488

>  <minimizedRMSD>  (1) 
1.3025769

$$$$
