
     RDKit          3D

 33 35  0  0  0  0  0  0  0  0999 V2000
   37.1610   30.2540   40.4360 C   0  0  0  0  0  0  0  0  0  0  0  0
   37.2530   31.6140   40.6090 C   0  0  0  0  0  0  0  0  0  0  0  0
   37.2310   32.4390   39.4990 C   0  0  0  0  0  0  0  0  0  0  0  0
   37.1180   31.8500   38.2660 C   0  0  0  0  0  0  0  0  0  0  0  0
   37.0250   30.4940   38.0950 C   0  0  0  0  0  0  0  0  0  0  0  0
   37.0500   29.7260   39.1900 N   0  0  0  0  0  0  0  0  0  0  0  0
   38.1170   28.8470   43.6760 C   0  0  0  0  0  0  0  0  0  0  0  0
   37.2530   27.7220   43.7910 C   0  0  0  0  0  0  0  0  0  0  0  0
   36.3450   27.4540   42.7510 C   0  0  0  0  0  0  0  0  0  0  0  0
   36.3550   28.3010   41.6890 N   0  0  0  0  0  0  0  0  0  0  0  0
   37.1800   29.3600   41.5980 C   0  0  0  0  0  0  0  0  0  0  0  0
   38.0480   29.6210   42.5870 N   0  0  0  0  0  0  0  0  0  0  0  0
   36.8640   29.7620   36.4570 S   0  0  0  0  0  0  0  0  0  0  0  0
   35.5340   28.5310   36.4960 C   0  0  0  0  0  0  0  0  0  0  0  0
   34.9640   28.2980   35.1110 C   0  0  0  0  0  0  0  0  0  0  0  0
   33.8070   29.3000   35.0430 C   0  0  0  0  0  0  0  0  0  0  0  0
   33.1830   29.0730   36.4100 C   0  0  0  0  0  0  0  0  0  0  0  0
   34.4000   29.0930   37.3120 C   0  0  0  0  0  0  0  0  0  0  0  0
   37.3431   32.0417   41.6184 H   0  0  0  0  0  0  0  0  0  0  0  0
   37.3018   33.5319   39.6021 H   0  0  0  0  0  0  0  0  0  0  0  0
   37.1013   32.4947   37.3749 H   0  0  0  0  0  0  0  0  0  0  0  0
   38.8357   29.0783   44.4760 H   0  0  0  0  0  0  0  0  0  0  0  0
   37.2947   27.0731   44.6782 H   0  0  0  0  0  0  0  0  0  0  0  0
   35.6573   26.5966   42.7955 H   0  0  0  0  0  0  0  0  0  0  0  0
   35.9452   27.5964   36.9052 H   0  0  0  0  0  0  0  0  0  0  0  0
   35.7143   28.5068   34.3342 H   0  0  0  0  0  0  0  0  0  0  0  0
   34.6482   27.2581   34.9409 H   0  0  0  0  0  0  0  0  0  0  0  0
   34.1673   30.3326   34.9248 H   0  0  0  0  0  0  0  0  0  0  0  0
   33.1234   29.1623   34.1923 H   0  0  0  0  0  0  0  0  0  0  0  0
   32.4796   29.8784   36.6681 H   0  0  0  0  0  0  0  0  0  0  0  0
   32.5899   28.1493   36.4817 H   0  0  0  0  0  0  0  0  0  0  0  0
   34.2255   28.4711   38.2024 H   0  0  0  0  0  0  0  0  0  0  0  0
   34.6235   30.1113   37.6628 H   0  0  0  0  0  0  0  0  0  0  0  0
  1  2  2  0
  1 11  1  0
  3  2  1  0
  4  3  2  0
  5  4  1  0
  5  6  2  0
  6  1  1  0
  7  8  2  0
  9  8  1  0
 10  9  2  0
 11 10  1  0
 11 12  2  0
 12  7  1  0
 13 14  1  0
 13  5  1  0
 14 18  1  0
 15 14  1  0
 16 15  1  0
 16 17  1  0
 17 18  1  0
  2 19  1  0
  3 20  1  0
  4 21  1  0
  7 22  1  0
  8 23  1  0
  9 24  1  0
 14 25  1  0
 15 26  1  0
 15 27  1  0
 16 28  1  0
 16 29  1  0
 17 30  1  0
 17 31  1  0
 18 32  1  0
 18 33  1  0
M  ISO  8  19  14  20  14  21  14  22  14  23  14  24  14  25  13  26  13
M  ISO  7  27  13  28  13  29  13  30  13  31  13  32  13  33  13
M  END
>  <minimizedAffinity>  (1) 
-4.61219501

>  <minimizedRMSD>  (1) 
1.12313843

$$$$
