
     RDKit          3D

 27 29  0  0  0  0  0  0  0  0999 V2000
   37.4370   30.0120   39.6260 C   0  0  0  0  0  0  0  0  0  0  0  0
   38.2180   31.1420   39.4060 C   0  0  0  0  0  0  0  0  0  0  0  0
   38.2000   31.6890   38.1290 C   0  0  0  0  0  0  0  0  0  0  0  0
   37.4240   31.0980   37.1580 C   0  0  0  0  0  0  0  0  0  0  0  0
   36.6680   29.9900   37.3990 C   0  0  0  0  0  0  0  0  0  0  0  0
   36.6800   29.4530   38.6370 N   0  0  0  0  0  0  0  0  0  0  0  0
   38.2960   29.3590   43.1300 C   0  0  0  0  0  0  0  0  0  0  0  0
   37.4360   28.2940   43.4730 C   0  0  0  0  0  0  0  0  0  0  0  0
   36.5570   27.8020   42.4830 C   0  0  0  0  0  0  0  0  0  0  0  0
   36.6050   28.3960   41.2670 N   0  0  0  0  0  0  0  0  0  0  0  0
   37.4370   29.4130   40.9660 C   0  0  0  0  0  0  0  0  0  0  0  0
   38.2640   29.8750   41.8970 N   0  0  0  0  0  0  0  0  0  0  0  0
   35.6570   29.2230   36.1190 S   0  0  0  0  0  0  0  0  0  0  0  0
   36.0950   29.9050   34.5430 C   0  0  0  0  0  0  0  0  0  0  0  0
   36.0850   31.2280   34.1030 C   0  0  0  0  0  0  0  0  0  0  0  0
   36.5160   31.2040   32.8040 C   0  0  0  0  0  0  0  0  0  0  0  0
   36.7700   29.8680   32.5120 C   0  0  0  0  0  0  0  0  0  0  0  0
   36.5130   29.1190   33.5600 O   0  0  0  0  0  0  0  0  0  0  0  0
   38.8248   31.5842   40.2099 H   0  0  0  0  0  0  0  0  0  0  0  0
   38.7980   32.5826   37.8971 H   0  0  0  0  0  0  0  0  0  0  0  0
   37.4136   31.5366   36.1493 H   0  0  0  0  0  0  0  0  0  0  0  0
   38.9933   29.7649   43.8777 H   0  0  0  0  0  0  0  0  0  0  0  0
   37.4499   27.8591   44.4833 H   0  0  0  0  0  0  0  0  0  0  0  0
   35.8642   26.9732   42.6905 H   0  0  0  0  0  0  0  0  0  0  0  0
   35.7897   32.1142   34.6839 H   0  0  0  0  0  0  0  0  0  0  0  0
   36.6367   32.0646   32.1296 H   0  0  0  0  0  0  0  0  0  0  0  0
   37.1334   29.4931   31.5438 H   0  0  0  0  0  0  0  0  0  0  0  0
  1 11  1  0
  2  1  2  0
  3  2  1  0
  4  5  1  0
  4  3  2  0
  5  6  2  0
  6  1  1  0
  7  8  2  0
  9  8  1  0
 10  9  2  0
 11 10  1  0
 11 12  2  0
 12  7  1  0
 13  5  1  0
 14 13  1  0
 15 14  2  0
 16 15  1  0
 17 16  2  0
 17 18  1  0
 18 14  1  0
  2 19  1  0
  3 20  1  0
  4 21  1  0
  7 22  1  0
  8 23  1  0
  9 24  1  0
 15 25  1  0
 16 26  1  0
 17 27  1  0
M  ISO  8  19  14  20  14  21  14  22  14  23  14  24  14  25  14  26  14
M  ISO  1  27  14
M  END
>  <minimizedAffinity>  (1) 
-4.54889631

>  <minimizedRMSD>  (1) 
1.38385975

$$$$
