
     RDKit          3D

 32 34  0  0  1  0  0  0  0  0999 V2000
   37.1740   30.3440   40.3700 C   0  0  0  0  0  0  0  0  0  0  0  0
   37.3020   31.7010   40.5520 C   0  0  0  0  0  0  0  0  0  0  0  0
   37.3070   32.5190   39.4340 C   0  0  0  0  0  0  0  0  0  0  0  0
   37.1840   31.9370   38.1890 C   0  0  0  0  0  0  0  0  0  0  0  0
   37.0580   30.5960   38.0140 C   0  0  0  0  0  0  0  0  0  0  0  0
   37.0540   29.8090   39.1080 N   0  0  0  0  0  0  0  0  0  0  0  0
   38.0620   28.9050   43.6120 C   0  0  0  0  0  0  0  0  0  0  0  0
   37.2050   27.7830   43.7120 C   0  0  0  0  0  0  0  0  0  0  0  0
   36.3240   27.5330   42.6510 C   0  0  0  0  0  0  0  0  0  0  0  0
   36.3390   28.3810   41.5840 N   0  0  0  0  0  0  0  0  0  0  0  0
   37.1640   29.4370   41.5210 C   0  0  0  0  0  0  0  0  0  0  0  0
   38.0120   29.6830   42.5340 N   0  0  0  0  0  0  0  0  0  0  0  0
   36.8980   29.8600   36.3790 S   0  0  0  0  0  0  0  0  0  0  0  0
   34.4700   29.1520   37.3420 N   0  0  0  0  0  0  0  0  0  0  0  0
   33.1040   29.0880   36.8650 C   0  0  0  0  0  0  0  0  0  0  0  0
   33.2110   28.6510   35.3980 C   0  0  0  0  0  0  0  0  0  0  0  0
   34.5230   29.3640   35.0450 C   0  0  0  0  0  0  0  0  0  0  0  0
   35.3550   28.9480   36.2400 C   0  0  1  0  0  0  0  0  0  0  0  0
   37.3982   32.1270   41.5616 H   0  0  0  0  0  0  0  0  0  0  0  0
   37.4069   33.6096   39.5366 H   0  0  0  0  0  0  0  0  0  0  0  0
   37.1882   32.5862   37.3010 H   0  0  0  0  0  0  0  0  0  0  0  0
   38.7680   29.1333   44.4241 H   0  0  0  0  0  0  0  0  0  0  0  0
   37.2296   27.1275   44.5950 H   0  0  0  0  0  0  0  0  0  0  0  0
   35.6376   26.6739   42.6787 H   0  0  0  0  0  0  0  0  0  0  0  0
   34.6469   30.0761   37.7610 H   0  0  0  0  0  0  0  0  0  0  0  0
   32.5266   28.3533   37.4454 H   0  0  0  0  0  0  0  0  0  0  0  0
   32.5859   30.0526   36.9702 H   0  0  0  0  0  0  0  0  0  0  0  0
   33.2920   27.5588   35.2955 H   0  0  0  0  0  0  0  0  0  0  0  0
   32.3476   28.8957   34.7619 H   0  0  0  0  0  0  0  0  0  0  0  0
   34.9490   28.9974   34.0994 H   0  0  0  0  0  0  0  0  0  0  0  0
   34.4405   30.4490   34.8836 H   0  0  0  0  0  0  0  0  0  0  0  0
   35.7048   27.9073   36.1726 H   0  0  0  0  0  0  0  0  0  0  0  0
  1  2  2  0
  1 11  1  0
  3  2  1  0
  4  3  2  0
  5  4  1  0
  5  6  2  0
  6  1  1  0
  7  8  2  0
  9  8  1  0
 10  9  2  0
 11 10  1  0
 11 12  2  0
 12  7  1  0
 13  5  1  0
 15 14  1  0
 16 15  1  0
 17 16  1  0
 17 18  1  0
 18 13  1  0
 18 14  1  0
  2 19  1  0
  3 20  1  0
  4 21  1  0
  7 22  1  0
  8 23  1  0
  9 24  1  0
 14 25  1  0
 15 26  1  0
 15 27  1  0
 16 28  1  0
 16 29  1  0
 17 30  1  0
 17 31  1  0
 18 32  1  6
M  ISO  8  19  14  20  14  21  14  22  14  23  14  24  14  25   5  26  13
M  ISO  6  27  13  28  13  29  13  30  13  31  13  32  13
M  END
>  <minimizedAffinity>  (1) 
-4.52043009

>  <minimizedRMSD>  (1) 
1.00806475

$$$$
