
     RDKit          3D

 44 47  0  0  1  0  0  0  0  0999 V2000
   33.2690   27.0870   36.9200 N   0  0  0  0  0  0  0  0  0  0  0  0
   33.2790   28.5010   37.1950 C   0  0  0  0  0  0  0  0  0  0  0  0
   34.4090   29.2230   36.5040 C   0  0  0  0  0  0  0  0  0  0  0  0
   35.6070   28.3160   36.2830 C   0  0  2  0  0  0  0  0  0  0  0  0
   35.6790   27.2200   37.3170 C   0  0  0  0  0  0  0  0  0  0  0  0
   34.4410   26.3900   37.4140 C   0  0  2  0  0  0  0  0  0  0  0  0
   34.6500   25.1210   36.6760 C   0  0  0  0  0  0  0  0  0  0  0  0
   35.2440   24.0310   37.3230 C   0  0  0  0  0  0  0  0  0  0  0  0
   35.4170   22.8680   36.5900 C   0  0  0  0  0  0  0  0  0  0  0  0
   35.0030   22.8330   35.2740 C   0  0  0  0  0  0  0  0  0  0  0  0
   34.4190   23.9120   34.6440 C   0  0  0  0  0  0  0  0  0  0  0  0
   34.2620   25.0290   35.3770 N   0  0  0  0  0  0  0  0  0  0  0  0
   37.1080   29.3080   36.4650 S   0  0  0  0  0  0  0  0  0  0  0  0
   37.1560   30.1190   40.4080 C   0  0  0  0  0  0  0  0  0  0  0  0
   37.1540   31.4850   40.4840 C   0  0  0  0  0  0  0  0  0  0  0  0
   37.1360   32.1970   39.3010 C   0  0  0  0  0  0  0  0  0  0  0  0
   37.1230   31.5080   38.1030 C   0  0  0  0  0  0  0  0  0  0  0  0
   37.1260   30.1350   38.0430 C   0  0  0  0  0  0  0  0  0  0  0  0
   37.1420   29.4710   39.2060 N   0  0  0  0  0  0  0  0  0  0  0  0
   38.1130   28.9320   43.7280 C   0  0  0  0  0  0  0  0  0  0  0  0
   37.2690   27.8160   43.9390 C   0  0  0  0  0  0  0  0  0  0  0  0
   36.3710   27.4880   42.9150 C   0  0  0  0  0  0  0  0  0  0  0  0
   36.3650   28.2500   41.7990 N   0  0  0  0  0  0  0  0  0  0  0  0
   37.1740   29.3020   41.6240 C   0  0  0  0  0  0  0  0  0  0  0  0
   38.0270   29.6130   42.5970 N   0  0  0  0  0  0  0  0  0  0  0  0
   32.4350   26.6753   37.3625 H   0  0  0  0  0  0  0  0  0  0  0  0
   32.3261   28.9320   36.8543 H   0  0  0  0  0  0  0  0  0  0  0  0
   33.4194   28.6266   38.2788 H   0  0  0  0  0  0  0  0  0  0  0  0
   34.0545   29.5884   35.5289 H   0  0  0  0  0  0  0  0  0  0  0  0
   34.7259   30.0569   37.1476 H   0  0  0  0  0  0  0  0  0  0  0  0
   35.5116   27.8663   35.2837 H   0  0  0  0  0  0  0  0  0  0  0  0
   36.5193   26.5581   37.0607 H   0  0  0  0  0  0  0  0  0  0  0  0
   35.8077   27.7123   38.2922 H   0  0  0  0  0  0  0  0  0  0  0  0
   34.2508   26.1777   38.4764 H   0  0  0  0  0  0  0  0  0  0  0  0
   35.5616   24.0954   38.3742 H   0  0  0  0  0  0  0  0  0  0  0  0
   35.8790   21.9829   37.0517 H   0  0  0  0  0  0  0  0  0  0  0  0
   35.1450   21.9039   34.7025 H   0  0  0  0  0  0  0  0  0  0  0  0
   34.0973   23.8616   33.5933 H   0  0  0  0  0  0  0  0  0  0  0  0
   37.1663   31.9995   41.4562 H   0  0  0  0  0  0  0  0  0  0  0  0
   37.1321   33.2969   39.3120 H   0  0  0  0  0  0  0  0  0  0  0  0
   37.1098   32.0794   37.1632 H   0  0  0  0  0  0  0  0  0  0  0  0
   38.8368   29.2317   44.5002 H   0  0  0  0  0  0  0  0  0  0  0  0
   37.3161   27.2301   44.8688 H   0  0  0  0  0  0  0  0  0  0  0  0
   35.6880   26.6318   43.0168 H   0  0  0  0  0  0  0  0  0  0  0  0
  1  2  1  0
  1  6  1  0
  3  2  1  0
  4 13  1  0
  4  3  1  0
  4  5  1  0
  5  6  1  0
  7  8  2  0
  7  6  1  0
  9  8  1  0
 10  9  2  0
 11 10  1  0
 11 12  2  0
 12  7  1  0
 13 18  1  0
 14 15  2  0
 14 24  1  0
 16 15  1  0
 17 16  2  0
 18 17  1  0
 18 19  2  0
 19 14  1  0
 20 21  2  0
 22 21  1  0
 23 22  2  0
 24 23  1  0
 24 25  2  0
 25 20  1  0
  1 26  1  0
  2 27  1  0
  2 28  1  0
  3 29  1  0
  3 30  1  0
  4 31  1  6
  5 32  1  0
  5 33  1  0
  6 34  1  1
  8 35  1  0
  9 36  1  0
 10 37  1  0
 11 38  1  0
 15 39  1  0
 16 40  1  0
 17 41  1  0
 20 42  1  0
 21 43  1  0
 22 44  1  0
M  ISO  8  26   5  27  13  28  13  29  13  30  13  31  13  32  13  33  13
M  ISO  8  34  13  35  14  36  14  37  14  38  14  39  14  40  14  41  14
M  ISO  3  42  14  43  14  44  14
M  END
>  <minimizedAffinity>  (1) 
-4.69272041

>  <minimizedRMSD>  (1) 
0.609189808

$$$$
