
     RDKit          3D

 38 40  0  0  1  0  0  0  0  0999 V2000
   37.0880   29.9650   36.3940 S   0  0  0  0  0  0  0  0  0  0  0  0
   34.1000   26.7370   37.1510 N   0  0  0  0  0  0  0  0  0  0  0  0
   33.8070   28.0710   37.6380 C   0  0  0  0  0  0  0  0  0  0  0  0
   34.5580   29.1430   36.8910 C   0  0  0  0  0  0  0  0  0  0  0  0
   35.8560   28.6320   36.3050 C   0  0  2  0  0  0  0  0  0  0  0  0
   36.4270   27.4910   37.1170 C   0  0  0  0  0  0  0  0  0  0  0  0
   35.4720   26.3450   37.2520 C   0  0  1  0  0  0  0  0  0  0  0  0
   35.7530   25.5120   38.4460 C   0  0  0  0  0  0  0  0  0  0  0  0
   35.4050   24.3030   38.5580 O   0  0  0  0  0  0  0  0  0  0  0  0
   36.4390   26.1030   39.4990 O   0  0  0  0  0  0  0  0  0  0  0  0
   37.2040   30.4070   40.4030 C   0  0  0  0  0  0  0  0  0  0  0  0
   37.2580   31.7580   40.5970 C   0  0  0  0  0  0  0  0  0  0  0  0
   37.2600   32.5880   39.4890 C   0  0  0  0  0  0  0  0  0  0  0  0
   37.2070   32.0030   38.2200 C   0  0  0  0  0  0  0  0  0  0  0  0
   37.1540   30.6480   38.0470 C   0  0  0  0  0  0  0  0  0  0  0  0
   37.1540   29.8710   39.1440 N   0  0  0  0  0  0  0  0  0  0  0  0
   38.1280   28.9230   43.6070 C   0  0  0  0  0  0  0  0  0  0  0  0
   37.2620   27.8110   43.7060 C   0  0  0  0  0  0  0  0  0  0  0  0
   36.3600   27.5810   42.6540 C   0  0  0  0  0  0  0  0  0  0  0  0
   36.3810   28.4460   41.6150 N   0  0  0  0  0  0  0  0  0  0  0  0
   37.1990   29.4870   41.5350 C   0  0  0  0  0  0  0  0  0  0  0  0
   38.0500   29.6940   42.5370 N   0  0  0  0  0  0  0  0  0  0  0  0
   33.8268   26.6918   36.1589 H   0  0  0  0  0  0  0  0  0  0  0  0
   32.7282   28.2562   37.5284 H   0  0  0  0  0  0  0  0  0  0  0  0
   34.1238   28.1166   38.6904 H   0  0  0  0  0  0  0  0  0  0  0  0
   33.9232   29.5155   36.0736 H   0  0  0  0  0  0  0  0  0  0  0  0
   34.8029   29.9427   37.6055 H   0  0  0  0  0  0  0  0  0  0  0  0
   35.6475   28.2977   35.2780 H   0  0  0  0  0  0  0  0  0  0  0  0
   37.3418   27.1309   36.6236 H   0  0  0  0  0  0  0  0  0  0  0  0
   36.6341   27.8726   38.1277 H   0  0  0  0  0  0  0  0  0  0  0  0
   35.6507   25.6990   36.3798 H   0  0  0  0  0  0  0  0  0  0  0  0
   36.6445   25.5779   40.3127 H   0  0  0  0  0  0  0  0  0  0  0  0
   37.2991   32.1779   41.6129 H   0  0  0  0  0  0  0  0  0  0  0  0
   37.3023   33.6811   39.6041 H   0  0  0  0  0  0  0  0  0  0  0  0
   37.2080   32.6536   37.3330 H   0  0  0  0  0  0  0  0  0  0  0  0
   38.8527   29.1424   44.4049 H   0  0  0  0  0  0  0  0  0  0  0  0
   37.2932   27.1451   44.5810 H   0  0  0  0  0  0  0  0  0  0  0  0
   35.6634   26.7299   42.6747 H   0  0  0  0  0  0  0  0  0  0  0  0
  1 15  1  0
  2  7  1  0
  2  3  1  0
  4  3  1  0
  5  1  1  0
  5  4  1  0
  5  6  1  0
  6  7  1  0
  7  8  1  0
  8  9  2  0
  8 10  1  0
 11 12  2  0
 11 21  1  0
 13 12  1  0
 14 13  2  0
 15 14  1  0
 15 16  2  0
 16 11  1  0
 17 18  2  0
 19 18  1  0
 20 19  2  0
 21 20  1  0
 21 22  2  0
 22 17  1  0
  2 23  1  0
  3 24  1  0
  3 25  1  0
  4 26  1  0
  4 27  1  0
  5 28  1  6
  6 29  1  0
  6 30  1  0
  7 31  1  6
 10 32  1  0
 12 33  1  0
 13 34  1  0
 14 35  1  0
 17 36  1  0
 18 37  1  0
 19 38  1  0
M  ISO  8  23   5  24  13  25  13  26  13  27  13  28  13  29  13  30  13
M  ISO  8  31  13  32   3  33  14  34  14  35  14  36  14  37  14  38  14
M  END
>  <minimizedAffinity>  (1) 
-4.67463779

>  <minimizedRMSD>  (1) 
1.02593243

$$$$
