
     RDKit          3D

 41 43  0  0  1  0  0  0  0  0999 V2000
   37.0750   28.8750   36.3310 S   0  0  0  0  0  0  0  0  0  0  0  0
   32.9800   27.1210   36.7370 N   0  0  0  0  0  0  0  0  0  0  0  0
   33.1650   28.5250   36.9940 C   0  0  0  0  0  0  0  0  0  0  0  0
   34.3870   29.1100   36.3270 C   0  0  0  0  0  0  0  0  0  0  0  0
   35.4590   28.0760   36.1220 C   0  0  2  0  0  0  0  0  0  0  0  0
   35.4020   26.9630   37.1530 C   0  0  0  0  0  0  0  0  0  0  0  0
   34.0680   26.3120   37.2260 C   0  0  2  0  0  0  0  0  0  0  0  0
   34.0350   24.9390   36.5940 C   0  0  0  0  0  0  0  0  0  0  0  0
   33.1060   24.0380   37.3810 C   0  0  0  0  0  0  0  0  0  0  0  0
   37.1610   29.9460   40.2160 C   0  0  0  0  0  0  0  0  0  0  0  0
   37.1710   31.3260   40.2020 C   0  0  0  0  0  0  0  0  0  0  0  0
   37.1510   31.9590   38.9640 C   0  0  0  0  0  0  0  0  0  0  0  0
   37.1230   31.1820   37.8160 C   0  0  0  0  0  0  0  0  0  0  0  0
   37.1120   29.8100   37.8440 C   0  0  0  0  0  0  0  0  0  0  0  0
   37.1320   29.2250   39.0630 N   0  0  0  0  0  0  0  0  0  0  0  0
   38.1040   29.0150   43.6230 C   0  0  0  0  0  0  0  0  0  0  0  0
   37.2720   27.9120   43.8970 C   0  0  0  0  0  0  0  0  0  0  0  0
   36.3860   27.4980   42.8930 C   0  0  0  0  0  0  0  0  0  0  0  0
   36.3900   28.1860   41.7300 N   0  0  0  0  0  0  0  0  0  0  0  0
   37.1800   29.2230   41.4850 C   0  0  0  0  0  0  0  0  0  0  0  0
   38.0240   29.6200   42.4380 N   0  0  0  0  0  0  0  0  0  0  0  0
   32.1106   26.8147   37.1966 H   0  0  0  0  0  0  0  0  0  0  0  0
   32.2786   29.0643   36.6287 H   0  0  0  0  0  0  0  0  0  0  0  0
   33.3075   28.6364   38.0790 H   0  0  0  0  0  0  0  0  0  0  0  0
   34.0966   29.5208   35.3488 H   0  0  0  0  0  0  0  0  0  0  0  0
   34.7907   29.8965   36.9815 H   0  0  0  0  0  0  0  0  0  0  0  0
   35.3082   27.6503   35.1190 H   0  0  0  0  0  0  0  0  0  0  0  0
   36.1506   26.2013   36.8894 H   0  0  0  0  0  0  0  0  0  0  0  0
   35.6050   27.4123   38.1363 H   0  0  0  0  0  0  0  0  0  0  0  0
   33.9059   26.1898   38.3071 H   0  0  0  0  0  0  0  0  0  0  0  0
   33.6739   25.0216   35.5583 H   0  0  0  0  0  0  0  0  0  0  0  0
   35.0483   24.5111   36.5984 H   0  0  0  0  0  0  0  0  0  0  0  0
   33.2679   24.1950   38.4576 H   0  0  0  0  0  0  0  0  0  0  0  0
   32.0624   24.2770   37.1285 H   0  0  0  0  0  0  0  0  0  0  0  0
   33.3130   22.9876   37.1285 H   0  0  0  0  0  0  0  0  0  0  0  0
   37.1940   31.9048   41.1371 H   0  0  0  0  0  0  0  0  0  0  0  0
   37.1573   33.0569   38.8967 H   0  0  0  0  0  0  0  0  0  0  0  0
   37.1090   31.6878   36.8393 H   0  0  0  0  0  0  0  0  0  0  0  0
   38.8148   29.3746   44.3816 H   0  0  0  0  0  0  0  0  0  0  0  0
   37.3161   27.3932   44.8660 H   0  0  0  0  0  0  0  0  0  0  0  0
   35.7111   26.6430   43.0464 H   0  0  0  0  0  0  0  0  0  0  0  0
  1 14  1  0
  2  3  1  0
  2  7  1  0
  4  3  1  0
  5  4  1  0
  5  1  1  0
  5  6  1  0
  6  7  1  0
  8  7  1  0
  8  9  1  0
 10 20  1  0
 11 10  2  0
 12 11  1  0
 13 14  1  0
 13 12  2  0
 14 15  2  0
 15 10  1  0
 16 17  2  0
 18 17  1  0
 19 18  2  0
 20 19  1  0
 20 21  2  0
 21 16  1  0
  2 22  1  0
  3 23  1  0
  3 24  1  0
  4 25  1  0
  4 26  1  0
  5 27  1  6
  6 28  1  0
  6 29  1  0
  7 30  1  1
  8 31  1  0
  8 32  1  0
  9 33  1  0
  9 34  1  0
  9 35  1  0
 11 36  1  0
 12 37  1  0
 13 38  1  0
 16 39  1  0
 17 40  1  0
 18 41  1  0
M  ISO  8  22   5  23  13  24  13  25  13  26  13  27  13  28  13  29  13
M  ISO  8  30  13  31   8  32   8  33   8  34   8  35   8  36  14  37  14
M  ISO  4  38  14  39  14  40  14  41  14
M  END
>  <minimizedAffinity>  (1) 
-4.58934927

>  <minimizedRMSD>  (1) 
0.223660633

$$$$
