
     RDKit          3D

 41 44  0  0  1  0  0  0  0  0999 V2000
   33.3030   27.0230   36.9790 N   0  0  0  0  0  0  0  0  0  0  0  0
   33.3470   28.3870   37.4160 C   0  0  0  0  0  0  0  0  0  0  0  0
   34.4120   29.1960   36.7230 C   0  0  0  0  0  0  0  0  0  0  0  0
   35.5850   28.3410   36.2730 C   0  0  2  0  0  0  0  0  0  0  0  0
   35.7380   27.1240   37.1730 C   0  0  0  0  0  0  0  0  0  0  0  0
   34.5250   26.2770   37.2400 C   0  0  2  0  0  0  0  0  0  0  0  0
   34.5990   25.0810   36.3590 C   0  0  0  0  0  0  0  0  0  0  0  0
   34.0370   25.0680   35.0490 C   0  0  0  0  0  0  0  0  0  0  0  0
   34.4500   23.3500   34.4750 S   0  0  0  0  0  0  0  0  0  0  0  0
   35.3070   22.9830   36.1330 C   0  0  0  0  0  0  0  0  0  0  0  0
   35.1820   23.9460   36.7000 N   0  0  0  0  0  0  0  0  0  0  0  0
   37.1090   29.3010   36.4580 S   0  0  0  0  0  0  0  0  0  0  0  0
   37.1720   30.1180   40.4050 C   0  0  0  0  0  0  0  0  0  0  0  0
   37.1890   31.4820   40.4870 C   0  0  0  0  0  0  0  0  0  0  0  0
   37.1790   32.2010   39.3060 C   0  0  0  0  0  0  0  0  0  0  0  0
   37.1560   31.4990   38.0950 C   0  0  0  0  0  0  0  0  0  0  0  0
   37.1390   30.1220   38.0290 C   0  0  0  0  0  0  0  0  0  0  0  0
   37.1480   29.4600   39.2070 N   0  0  0  0  0  0  0  0  0  0  0  0
   38.1120   28.9290   43.7430 C   0  0  0  0  0  0  0  0  0  0  0  0
   37.2570   27.8280   43.9430 C   0  0  0  0  0  0  0  0  0  0  0  0
   36.3520   27.4950   42.9190 C   0  0  0  0  0  0  0  0  0  0  0  0
   36.3620   28.2600   41.8020 N   0  0  0  0  0  0  0  0  0  0  0  0
   37.1810   29.3010   41.6320 C   0  0  0  0  0  0  0  0  0  0  0  0
   38.0360   29.6090   42.6070 N   0  0  0  0  0  0  0  0  0  0  0  0
   33.1287   27.0138   35.9639 H   0  0  0  0  0  0  0  0  0  0  0  0
   32.3697   28.8504   37.2157 H   0  0  0  0  0  0  0  0  0  0  0  0
   33.5874   28.3797   38.4894 H   0  0  0  0  0  0  0  0  0  0  0  0
   33.9693   29.6816   35.8408 H   0  0  0  0  0  0  0  0  0  0  0  0
   34.7921   29.9372   37.4414 H   0  0  0  0  0  0  0  0  0  0  0  0
   35.4059   28.0331   35.2323 H   0  0  0  0  0  0  0  0  0  0  0  0
   36.5684   26.5119   36.7912 H   0  0  0  0  0  0  0  0  0  0  0  0
   35.9256   27.4980   38.1903 H   0  0  0  0  0  0  0  0  0  0  0  0
   34.4879   25.9201   38.2798 H   0  0  0  0  0  0  0  0  0  0  0  0
   33.4993   25.8666   34.5170 H   0  0  0  0  0  0  0  0  0  0  0  0
   35.8030   22.0564   36.4575 H   0  0  0  0  0  0  0  0  0  0  0  0
   37.2100   31.9917   41.4616 H   0  0  0  0  0  0  0  0  0  0  0  0
   37.1889   33.3009   39.3177 H   0  0  0  0  0  0  0  0  0  0  0  0
   37.1513   32.0709   37.1554 H   0  0  0  0  0  0  0  0  0  0  0  0
   38.8341   29.2214   44.5196 H   0  0  0  0  0  0  0  0  0  0  0  0
   37.2958   27.2444   44.8746 H   0  0  0  0  0  0  0  0  0  0  0  0
   35.6618   26.6447   43.0219 H   0  0  0  0  0  0  0  0  0  0  0  0
  1  6  1  0
  1  2  1  0
  3  2  1  0
  4 12  1  0
  4  3  1  0
  4  5  1  0
  5  6  1  0
  7 11  1  0
  7  6  1  0
  8  7  2  0
  9  8  1  0
  9 10  1  0
 10 11  2  0
 12 17  1  0
 13 14  2  0
 13 23  1  0
 15 14  1  0
 16 15  2  0
 17 16  1  0
 17 18  2  0
 18 13  1  0
 19 20  2  0
 21 20  1  0
 22 21  2  0
 23 22  1  0
 23 24  2  0
 24 19  1  0
  1 25  1  0
  2 26  1  0
  2 27  1  0
  3 28  1  0
  3 29  1  0
  4 30  1  6
  5 31  1  0
  5 32  1  0
  6 33  1  1
  8 34  1  0
 10 35  1  0
 14 36  1  0
 15 37  1  0
 16 38  1  0
 19 39  1  0
 20 40  1  0
 21 41  1  0
M  ISO  8  25   5  26  13  27  13  28  13  29  13  30  13  31  13  32  13
M  ISO  8  33  13  34  14  35  14  36  14  37  14  38  14  39  14  40  14
M  ISO  1  41  14
M  END
>  <minimizedAffinity>  (1) 
-4.5731225

>  <minimizedRMSD>  (1) 
0.537207127

$$$$
