
     RDKit          3D

 31 33  0  0  0  0  0  0  0  0999 V2000
   37.7810   28.6890   43.8640 C   0  0  0  0  0  0  0  0  0  0  0  0
   37.0790   27.4710   43.8660 C   0  0  0  0  0  0  0  0  0  0  0  0
   36.4850   27.0520   42.6770 C   0  0  0  0  0  0  0  0  0  0  0  0
   36.6140   27.8450   41.5710 N   0  0  0  0  0  0  0  0  0  0  0  0
   37.2920   29.0060   41.5990 C   0  0  0  0  0  0  0  0  0  0  0  0
   37.8640   29.4110   42.7320 N   0  0  0  0  0  0  0  0  0  0  0  0
   37.3700   29.7550   40.3980 N   0  0  0  0  0  0  0  0  0  0  0  0
   36.7950   29.3310   39.2550 C   0  0  0  0  0  0  0  0  0  0  0  0
   36.9570   30.1660   38.1790 C   0  0  0  0  0  0  0  0  0  0  0  0
   37.6420   31.3550   38.2090 C   0  0  0  0  0  0  0  0  0  0  0  0
   37.7650   32.0920   37.1940 O   0  0  0  0  0  0  0  0  0  0  0  0
   38.1990   31.7350   39.3780 N   0  0  0  0  0  0  0  0  0  0  0  0
   38.0520   30.9240   40.4610 C   0  0  0  0  0  0  0  0  0  0  0  0
   38.5960   31.3210   41.5460 O   0  0  0  0  0  0  0  0  0  0  0  0
   38.9310   32.9540   39.5060 C   0  0  0  0  0  0  0  0  0  0  0  0
   38.1790   34.0250   39.9980 C   0  0  0  0  0  0  0  0  0  0  0  0
   38.8510   35.2240   40.1360 C   0  0  0  0  0  0  0  0  0  0  0  0
   40.1650   35.3830   39.8200 N   0  0  0  0  0  0  0  0  0  0  0  0
   40.8360   34.3130   39.3500 C   0  0  0  0  0  0  0  0  0  0  0  0
   40.2460   33.1000   39.1850 N   0  0  0  0  0  0  0  0  0  0  0  0
   36.3620   29.7900   36.8750 C   0  0  0  0  0  0  0  0  0  0  0  0
   38.2610   29.0506   44.7853 H   0  0  0  0  0  0  0  0  0  0  0  0
   37.0007   26.8653   44.7809 H   0  0  0  0  0  0  0  0  0  0  0  0
   35.9258   26.1059   42.6296 H   0  0  0  0  0  0  0  0  0  0  0  0
   36.2371   28.3852   39.1900 H   0  0  0  0  0  0  0  0  0  0  0  0
   37.1158   33.9192   40.2596 H   0  0  0  0  0  0  0  0  0  0  0  0
   38.2967   36.0930   40.5202 H   0  0  0  0  0  0  0  0  0  0  0  0
   41.8991   34.4255   39.0907 H   0  0  0  0  0  0  0  0  0  0  0  0
   35.4433   29.2094   37.0449 H   0  0  0  0  0  0  0  0  0  0  0  0
   36.1207   30.7000   36.3060 H   0  0  0  0  0  0  0  0  0  0  0  0
   37.0803   29.1815   36.3060 H   0  0  0  0  0  0  0  0  0  0  0  0
  1  2  2  0
  3  2  1  0
  4  5  1  0
  4  3  2  0
  5  6  2  0
  6  1  1  0
  7 13  1  0
  7  5  1  0
  8  7  1  0
  9 10  1  0
  9  8  2  0
 10 12  1  0
 11 10  2  0
 12 15  1  0
 12 13  1  0
 13 14  2  0
 15 16  2  0
 16 17  1  0
 18 17  2  0
 19 18  1  0
 20 19  2  0
 20 15  1  0
 21  9  1  0
  1 22  1  0
  2 23  1  0
  3 24  1  0
  8 25  1  0
 16 26  1  0
 17 27  1  0
 19 28  1  0
 21 29  1  0
 21 30  1  0
 21 31  1  0
M  ISO  8  22  14  23  14  24  14  25  14  26  14  27  14  28  14  29   8
M  ISO  2  30   8  31   8
M  END
>  <minimizedAffinity>  (1) 
-5.95441675

>  <minimizedRMSD>  (1) 
3.12243319

$$$$
