
     RDKit          3D

 36 38  0  0  1  0  0  0  0  0999 V2000
   37.1330   30.1700   40.4320 C   0  0  0  0  0  0  0  0  0  0  0  0
   37.1030   31.5340   40.5730 C   0  0  0  0  0  0  0  0  0  0  0  0
   37.1180   32.3090   39.4220 C   0  0  0  0  0  0  0  0  0  0  0  0
   37.1620   31.6720   38.1860 C   0  0  0  0  0  0  0  0  0  0  0  0
   37.1920   30.3050   38.0590 C   0  0  0  0  0  0  0  0  0  0  0  0
   37.1760   29.5820   39.1990 N   0  0  0  0  0  0  0  0  0  0  0  0
   37.9860   28.8540   43.7260 C   0  0  0  0  0  0  0  0  0  0  0  0
   37.1660   27.7170   43.8410 C   0  0  0  0  0  0  0  0  0  0  0  0
   36.3130   27.4070   42.7680 C   0  0  0  0  0  0  0  0  0  0  0  0
   36.3350   28.2200   41.6960 N   0  0  0  0  0  0  0  0  0  0  0  0
   37.1200   29.2920   41.6070 C   0  0  0  0  0  0  0  0  0  0  0  0
   37.9310   29.5860   42.6290 N   0  0  0  0  0  0  0  0  0  0  0  0
   37.2480   29.5520   36.4490 S   0  0  0  0  0  0  0  0  0  0  0  0
   33.7470   26.8080   36.7800 N   0  0  0  0  0  0  0  0  0  0  0  0
   33.7170   28.0610   37.4970 C   0  0  0  0  0  0  0  0  0  0  0  0
   34.6280   29.1050   36.9070 C   0  0  0  0  0  0  0  0  0  0  0  0
   35.8140   28.4850   36.1990 C   0  0  2  0  0  0  0  0  0  0  0  0
   36.1720   27.1460   36.7800 C   0  0  0  0  0  0  0  0  0  0  0  0
   35.0420   26.1750   36.8100 C   0  0  1  0  0  0  0  0  0  0  0  0
   35.1920   25.4280   37.9920 O   0  0  0  0  0  0  0  0  0  0  0  0
   37.0681   31.9998   41.5689 H   0  0  0  0  0  0  0  0  0  0  0  0
   37.0955   33.4069   39.4857 H   0  0  0  0  0  0  0  0  0  0  0  0
   37.1732   32.2876   37.2745 H   0  0  0  0  0  0  0  0  0  0  0  0
   38.6677   29.1309   44.5437 H   0  0  0  0  0  0  0  0  0  0  0  0
   37.1916   27.0892   44.7439 H   0  0  0  0  0  0  0  0  0  0  0  0
   35.6501   26.5299   42.8033 H   0  0  0  0  0  0  0  0  0  0  0  0
   33.4904   26.9849   35.7983 H   0  0  0  0  0  0  0  0  0  0  0  0
   32.6872   28.4473   37.4825 H   0  0  0  0  0  0  0  0  0  0  0  0
   34.0692   27.8606   38.5196 H   0  0  0  0  0  0  0  0  0  0  0  0
   34.0577   29.7072   36.1845 H   0  0  0  0  0  0  0  0  0  0  0  0
   35.0096   29.7281   37.7292 H   0  0  0  0  0  0  0  0  0  0  0  0
   35.5475   28.3677   35.1382 H   0  0  0  0  0  0  0  0  0  0  0  0
   36.9836   26.7133   36.1766 H   0  0  0  0  0  0  0  0  0  0  0  0
   36.4674   27.3219   37.8249 H   0  0  0  0  0  0  0  0  0  0  0  0
   35.0795   25.5447   35.9092 H   0  0  0  0  0  0  0  0  0  0  0  0
   35.0727   26.0219   38.7751 H   0  0  0  0  0  0  0  0  0  0  0  0
  1  2  2  0
  1 11  1  0
  3  2  1  0
  4  3  2  0
  5  4  1  0
  5  6  2  0
  6  1  1  0
  7  8  2  0
  9  8  1  0
 10  9  2  0
 11 10  1  0
 11 12  2  0
 12  7  1  0
 13  5  1  0
 14 19  1  0
 14 15  1  0
 16 15  1  0
 17 13  1  0
 17 18  1  0
 17 16  1  0
 18 19  1  0
 19 20  1  0
  2 21  1  0
  3 22  1  0
  4 23  1  0
  7 24  1  0
  8 25  1  0
  9 26  1  0
 14 27  1  0
 15 28  1  0
 15 29  1  0
 16 30  1  0
 16 31  1  0
 17 32  1  6
 18 33  1  0
 18 34  1  0
 19 35  1  6
 20 36  1  0
M  ISO  8  21  14  22  14  23  14  24  14  25  14  26  14  27   5  28  13
M  ISO  8  29  13  30  13  31  13  32  13  33  13  34  13  35  13  36   3
M  END
>  <minimizedAffinity>  (1) 
-4.50086737

>  <minimizedRMSD>  (1) 
0.487773687

$$$$
