
     RDKit          3D

 35 38  0  0  0  0  0  0  0  0999 V2000
   38.0270   30.3600   40.9510 C   0  0  0  0  0  0  0  0  0  0  0  0
   38.6000   29.7010   42.0460 C   0  0  0  0  0  0  0  0  0  0  0  0
   39.6970   30.3490   42.6650 C   0  0  0  0  0  0  0  0  0  0  0  0
   40.1340   31.5390   42.1900 N   0  0  0  0  0  0  0  0  0  0  0  0
   39.5340   32.1290   41.1190 C   0  0  0  0  0  0  0  0  0  0  0  0
   38.4780   31.5300   40.5040 N   0  0  0  0  0  0  0  0  0  0  0  0
   36.9280   29.7480   40.2900 N   0  0  0  0  0  0  0  0  0  0  0  0
   35.6630   30.0010   40.6900 C   0  0  0  0  0  0  0  0  0  0  0  0
   34.7770   29.3170   39.9300 N   0  0  0  0  0  0  0  0  0  0  0  0
   35.4680   28.6100   39.0230 C   0  0  0  0  0  0  0  0  0  0  0  0
   35.2330   27.7290   37.9770 C   0  0  0  0  0  0  0  0  0  0  0  0
   36.2330   27.1880   37.2480 N   0  0  0  0  0  0  0  0  0  0  0  0
   37.5330   27.4930   37.5180 C   0  0  0  0  0  0  0  0  0  0  0  0
   37.7800   28.3490   38.5350 N   0  0  0  0  0  0  0  0  0  0  0  0
   36.7960   28.8920   39.2640 C   0  0  0  0  0  0  0  0  0  0  0  0
   38.1840   28.4820   42.5720 N   0  0  0  0  0  0  0  0  0  0  0  0
   38.4290   27.1480   42.0760 C   0  0  0  0  0  0  0  0  0  0  0  0
   37.1590   26.3920   42.4320 C   0  0  0  0  0  0  0  0  0  0  0  0
   36.3680   27.3040   43.3370 C   0  0  0  0  0  0  0  0  0  0  0  0
   37.3930   28.3090   43.7760 C   0  0  0  0  0  0  0  0  0  0  0  0
   33.8660   27.4210   37.7080 N   0  0  0  0  0  0  0  0  0  0  0  0
   40.1932   29.8858   43.5306 H   0  0  0  0  0  0  0  0  0  0  0  0
   39.9054   33.0959   40.7487 H   0  0  0  0  0  0  0  0  0  0  0  0
   35.3907   30.6706   41.5191 H   0  0  0  0  0  0  0  0  0  0  0  0
   38.3536   27.0578   36.9288 H   0  0  0  0  0  0  0  0  0  0  0  0
   39.3037   26.7002   42.5704 H   0  0  0  0  0  0  0  0  0  0  0  0
   38.6492   27.1277   40.9985 H   0  0  0  0  0  0  0  0  0  0  0  0
   36.5834   26.1635   41.5229 H   0  0  0  0  0  0  0  0  0  0  0  0
   37.3861   25.4353   42.9251 H   0  0  0  0  0  0  0  0  0  0  0  0
   35.5463   27.7894   42.7900 H   0  0  0  0  0  0  0  0  0  0  0  0
   35.8888   26.7767   44.1750 H   0  0  0  0  0  0  0  0  0  0  0  0
   38.0048   27.9200   44.6033 H   0  0  0  0  0  0  0  0  0  0  0  0
   36.9597   29.2446   44.1592 H   0  0  0  0  0  0  0  0  0  0  0  0
   33.6246   26.7734   36.9443 H   0  0  0  0  0  0  0  0  0  0  0  0
   33.1206   27.8463   38.2775 H   0  0  0  0  0  0  0  0  0  0  0  0
  1  2  1  0
  2 16  1  0
  2  3  2  0
  4  3  1  0
  5  4  2  0
  6  1  2  0
  6  5  1  0
  7  8  1  0
  7  1  1  0
  9  8  2  0
 10 15  2  0
 10  9  1  0
 11 10  1  0
 12 13  1  0
 12 11  2  0
 13 14  2  0
 14 15  1  0
 15  7  1  0
 16 20  1  0
 17 18  1  0
 17 16  1  0
 18 19  1  0
 19 20  1  0
 21 11  1  0
  3 22  1  0
  5 23  1  0
  8 24  1  0
 13 25  1  0
 17 26  1  0
 17 27  1  0
 18 28  1  0
 18 29  1  0
 19 30  1  0
 19 31  1  0
 20 32  1  0
 20 33  1  0
 21 34  1  0
 21 35  1  0
M  ISO  8  22  14  23  14  24  14  25  14  26  13  27  13  28  13  29  13
M  ISO  4  30  13  31  13  32  13  33  13
M  END
>  <minimizedAffinity>  (1) 
-5.21854448

>  <minimizedRMSD>  (1) 
6.02449751

$$$$
