
     RDKit          3D

 32 34  0  0  0  0  0  0  0  0999 V2000
   41.1730   33.7200   38.9280 C   0  0  0  0  0  0  0  0  0  0  0  0
   40.2380   32.6840   38.8410 C   0  0  0  0  0  0  0  0  0  0  0  0
   40.4320   31.7290   37.8150 C   0  0  0  0  0  0  0  0  0  0  0  0
   41.4940   31.8580   36.9780 N   0  0  0  0  0  0  0  0  0  0  0  0
   42.3680   32.8680   37.0960 C   0  0  0  0  0  0  0  0  0  0  0  0
   42.1990   33.7980   38.0790 N   0  0  0  0  0  0  0  0  0  0  0  0
   39.1520   32.5250   39.6930 N   0  0  0  0  0  0  0  0  0  0  0  0
   39.0980   31.7770   40.9410 C   0  0  0  0  0  0  0  0  0  0  0  0
   37.6680   31.2900   41.0090 C   0  0  0  0  0  0  0  0  0  0  0  0
   36.9410   31.9610   39.8670 C   0  0  0  0  0  0  0  0  0  0  0  0
   37.8300   33.1000   39.5230 C   0  0  0  0  0  0  0  0  0  0  0  0
   41.1900   34.8130   39.8760 C   0  0  0  0  0  0  0  0  0  0  0  0
   42.1990   34.7860   40.8540 C   0  0  0  0  0  0  0  0  0  0  0  0
   42.4100   35.7550   41.8400 C   0  0  0  0  0  0  0  0  0  0  0  0
   41.5540   36.8190   41.8480 C   0  0  0  0  0  0  0  0  0  0  0  0
   40.5580   36.9010   40.9260 C   0  0  0  0  0  0  0  0  0  0  0  0
   40.3950   35.9290   39.9840 C   0  0  0  0  0  0  0  0  0  0  0  0
   39.7298   30.8906   37.6964 H   0  0  0  0  0  0  0  0  0  0  0  0
   43.2182   32.9461   36.4024 H   0  0  0  0  0  0  0  0  0  0  0  0
   39.7997   30.9301   40.9208 H   0  0  0  0  0  0  0  0  0  0  0  0
   39.3822   32.3842   41.8131 H   0  0  0  0  0  0  0  0  0  0  0  0
   37.6314   30.1966   40.8947 H   0  0  0  0  0  0  0  0  0  0  0  0
   37.2065   31.5339   41.9773 H   0  0  0  0  0  0  0  0  0  0  0  0
   36.8290   31.2760   39.0136 H   0  0  0  0  0  0  0  0  0  0  0  0
   35.9198   32.2742   40.1297 H   0  0  0  0  0  0  0  0  0  0  0  0
   37.6736   33.9476   40.2065 H   0  0  0  0  0  0  0  0  0  0  0  0
   37.6536   33.5072   38.5165 H   0  0  0  0  0  0  0  0  0  0  0  0
   42.8842   33.9255   40.8429 H   0  0  0  0  0  0  0  0  0  0  0  0
   43.2252   35.6646   42.5729 H   0  0  0  0  0  0  0  0  0  0  0  0
   41.6705   37.6114   42.6020 H   0  0  0  0  0  0  0  0  0  0  0  0
   39.8747   37.7630   40.9403 H   0  0  0  0  0  0  0  0  0  0  0  0
   39.5728   36.0456   39.2626 H   0  0  0  0  0  0  0  0  0  0  0  0
  1 12  1  0
  2  1  1  0
  2  7  1  0
  3  2  2  0
  4  5  2  0
  4  3  1  0
  5  6  1  0
  6  1  2  0
  7  8  1  0
  8  9  1  0
 10  9  1  0
 11  7  1  0
 11 10  1  0
 12 17  1  0
 12 13  2  0
 13 14  1  0
 14 15  2  0
 16 15  1  0
 17 16  2  0
  3 18  1  0
  5 19  1  0
  8 20  1  0
  8 21  1  0
  9 22  1  0
  9 23  1  0
 10 24  1  0
 10 25  1  0
 11 26  1  0
 11 27  1  0
 13 28  1  0
 14 29  1  0
 15 30  1  0
 16 31  1  0
 17 32  1  0
M  ISO  8  18  14  19  14  20  13  21  13  22  13  23  13  24  13  25  13
M  ISO  7  26  13  27  13  28  14  29  14  30  14  31  14  32  14
M  END
>  <minimizedAffinity>  (1) 
-4.86615896

>  <minimizedRMSD>  (1) 
6.20761013

$$$$
