
     RDKit          3D

 37 39  0  0  0  0  0  0  0  0999 V2000
   39.0370   27.2620   40.3550 C   0  0  0  0  0  0  0  0  0  0  0  0
   38.5900   28.4400   40.9480 C   0  0  0  0  0  0  0  0  0  0  0  0
   39.0160   29.6600   40.3630 C   0  0  0  0  0  0  0  0  0  0  0  0
   39.8240   29.5770   39.2680 N   0  0  0  0  0  0  0  0  0  0  0  0
   40.2290   28.4240   38.7300 C   0  0  0  0  0  0  0  0  0  0  0  0
   39.8290   27.2420   39.2820 N   0  0  0  0  0  0  0  0  0  0  0  0
   38.7630   25.9230   40.7380 N   0  0  0  0  0  0  0  0  0  0  0  0
   38.7750   25.0770   41.9140 C   0  0  0  0  0  0  0  0  0  0  0  0
   37.5340   24.1830   41.8140 C   0  0  0  0  0  0  0  0  0  0  0  0
   37.9310   23.0830   40.8290 C   0  0  0  0  0  0  0  0  0  0  0  0
   38.8450   23.7370   39.7850 C   0  0  0  0  0  0  0  0  0  0  0  0
   38.3250   25.1400   39.5710 C   0  0  0  0  0  0  0  0  0  0  0  0
   37.7450   28.4870   42.0530 N   0  0  0  0  0  0  0  0  0  0  0  0
   38.0650   28.9600   43.3900 C   0  0  0  0  0  0  0  0  0  0  0  0
   37.2010   28.1260   44.3050 C   0  0  0  0  0  0  0  0  0  0  0  0
   36.3140   27.3110   43.3930 C   0  0  0  0  0  0  0  0  0  0  0  0
   36.3710   28.1120   42.1250 C   0  0  0  0  0  0  0  0  0  0  0  0
   38.7075   30.6320   40.7754 H   0  0  0  0  0  0  0  0  0  0  0  0
   40.8826   28.4270   37.8452 H   0  0  0  0  0  0  0  0  0  0  0  0
   39.6869   24.4621   41.9314 H   0  0  0  0  0  0  0  0  0  0  0  0
   38.7631   25.6754   42.8369 H   0  0  0  0  0  0  0  0  0  0  0  0
   37.2841   23.7539   42.7956 H   0  0  0  0  0  0  0  0  0  0  0  0
   36.6444   24.7389   41.4830 H   0  0  0  0  0  0  0  0  0  0  0  0
   38.4687   22.2797   41.3539 H   0  0  0  0  0  0  0  0  0  0  0  0
   37.0443   22.6365   40.3552 H   0  0  0  0  0  0  0  0  0  0  0  0
   39.8806   23.7687   40.1544 H   0  0  0  0  0  0  0  0  0  0  0  0
   38.8433   23.1665   38.8445 H   0  0  0  0  0  0  0  0  0  0  0  0
   38.7444   25.5653   38.6473 H   0  0  0  0  0  0  0  0  0  0  0  0
   37.2297   25.1503   39.4697 H   0  0  0  0  0  0  0  0  0  0  0  0
   39.1308   28.8035   43.6127 H   0  0  0  0  0  0  0  0  0  0  0  0
   37.8785   30.0377   43.5074 H   0  0  0  0  0  0  0  0  0  0  0  0
   37.8244   27.4654   44.9255 H   0  0  0  0  0  0  0  0  0  0  0  0
   36.6131   28.7518   44.9926 H   0  0  0  0  0  0  0  0  0  0  0  0
   36.7132   26.2966   43.2457 H   0  0  0  0  0  0  0  0  0  0  0  0
   35.2960   27.1554   43.7795 H   0  0  0  0  0  0  0  0  0  0  0  0
   35.7208   28.9972   42.1854 H   0  0  0  0  0  0  0  0  0  0  0  0
   36.0231   27.5565   41.2416 H   0  0  0  0  0  0  0  0  0  0  0  0
  1  7  1  0
  1  2  1  0
  2 13  1  0
  3  2  2  0
  4  3  1  0
  5  4  2  0
  5  6  1  0
  6  1  2  0
  7  8  1  0
  9  8  1  0
 10  9  1  0
 11 10  1  0
 12 11  1  0
 12  7  1  0
 13 17  1  0
 13 14  1  0
 14 15  1  0
 16 15  1  0
 17 16  1  0
  3 18  1  0
  5 19  1  0
  8 20  1  0
  8 21  1  0
  9 22  1  0
  9 23  1  0
 10 24  1  0
 10 25  1  0
 11 26  1  0
 11 27  1  0
 12 28  1  0
 12 29  1  0
 14 30  1  0
 14 31  1  0
 15 32  1  0
 15 33  1  0
 16 34  1  0
 16 35  1  0
 17 36  1  0
 17 37  1  0
M  ISO  8  18  14  19  14  20  13  21  13  22  13  23  13  24  13  25  13
M  ISO  8  26  13  27  13  28  13  29  13  30  13  31  13  32  13  33  13
M  ISO  4  34  13  35  13  36  13  37  13
M  END
>  <minimizedAffinity>  (1) 
-4.50231457

>  <minimizedRMSD>  (1) 
5.54721928

$$$$
