
     RDKit          3D

 29 31  0  0  0  0  0  0  0  0999 V2000
   37.0650   27.4240   41.2500 C   0  0  0  0  0  0  0  0  0  0  0  0
   38.1680   27.9690   41.9220 C   0  0  0  0  0  0  0  0  0  0  0  0
   38.1510   29.3710   42.1370 C   0  0  0  0  0  0  0  0  0  0  0  0
   37.0840   30.0880   41.6850 N   0  0  0  0  0  0  0  0  0  0  0  0
   36.0460   29.5070   41.0430 C   0  0  0  0  0  0  0  0  0  0  0  0
   36.0460   28.1620   40.8280 N   0  0  0  0  0  0  0  0  0  0  0  0
   37.0190   26.0270   40.9970 N   0  0  0  0  0  0  0  0  0  0  0  0
   36.5170   25.1680   40.1290 N   0  0  0  0  0  0  0  0  0  0  0  0
   36.8450   23.9160   40.4400 C   0  0  0  0  0  0  0  0  0  0  0  0
   37.6180   23.9470   41.5940 C   0  0  0  0  0  0  0  0  0  0  0  0
   37.7110   25.2970   41.9220 C   0  0  0  0  0  0  0  0  0  0  0  0
   39.2590   27.2490   42.3970 N   0  0  0  0  0  0  0  0  0  0  0  0
   40.3400   26.6470   41.6550 C   0  0  0  0  0  0  0  0  0  0  0  0
   40.6890   25.4000   42.4670 C   0  0  0  0  0  0  0  0  0  0  0  0
   39.8970   25.4990   43.7410 C   0  0  0  0  0  0  0  0  0  0  0  0
   39.5370   26.9580   43.7940 C   0  0  0  0  0  0  0  0  0  0  0  0
   38.9820   29.8691   42.6579 H   0  0  0  0  0  0  0  0  0  0  0  0
   35.2018   30.1200   40.6944 H   0  0  0  0  0  0  0  0  0  0  0  0
   36.5547   23.0142   39.8809 H   0  0  0  0  0  0  0  0  0  0  0  0
   38.0590   23.0937   42.1300 H   0  0  0  0  0  0  0  0  0  0  0  0
   38.2535   25.7091   42.7856 H   0  0  0  0  0  0  0  0  0  0  0  0
   40.0150   26.3754   40.6398 H   0  0  0  0  0  0  0  0  0  0  0  0
   41.1969   27.3246   41.5263 H   0  0  0  0  0  0  0  0  0  0  0  0
   40.4088   24.4922   41.9125 H   0  0  0  0  0  0  0  0  0  0  0  0
   41.7688   25.3396   42.6679 H   0  0  0  0  0  0  0  0  0  0  0  0
   38.9960   24.8695   43.6978 H   0  0  0  0  0  0  0  0  0  0  0  0
   40.4502   25.1535   44.6268 H   0  0  0  0  0  0  0  0  0  0  0  0
   40.3750   27.5635   44.1698 H   0  0  0  0  0  0  0  0  0  0  0  0
   38.6999   27.1850   44.4705 H   0  0  0  0  0  0  0  0  0  0  0  0
  1  2  1  0
  2  3  2  0
  2 12  1  0
  4  3  1  0
  5  4  2  0
  6  5  1  0
  6  1  2  0
  7  1  1  0
  7 11  1  0
  8  9  2  0
  8  7  1  0
  9 10  1  0
 10 11  2  0
 12 16  1  0
 13 12  1  0
 13 14  1  0
 14 15  1  0
 15 16  1  0
  3 17  1  0
  5 18  1  0
  9 19  1  0
 10 20  1  0
 11 21  1  0
 13 22  1  0
 13 23  1  0
 14 24  1  0
 14 25  1  0
 15 26  1  0
 15 27  1  0
 16 28  1  0
 16 29  1  0
M  ISO  8  17  14  18  14  19  14  20  14  21  14  22  13  23  13  24  13
M  ISO  5  25  13  26  13  27  13  28  13  29  13
M  END
>  <minimizedAffinity>  (1) 
-4.32818985

>  <minimizedRMSD>  (1) 
4.26889229

$$$$
