
     RDKit          3D

 28 29  0  0  0  0  0  0  0  0999 V2000
   40.3470   27.3150   43.3040 N   0  0  0  0  0  0  0  0  0  0  0  0
   40.8260   28.6090   42.8180 C   0  0  0  0  0  0  0  0  0  0  0  0
   42.3270   28.5240   42.9500 C   0  0  0  0  0  0  0  0  0  0  0  0
   42.6010   27.2570   43.6810 C   0  0  0  0  0  0  0  0  0  0  0  0
   41.2570   26.9300   44.3080 C   0  0  0  0  0  0  0  0  0  0  0  0
   37.9150   27.0300   43.1280 C   0  0  0  0  0  0  0  0  0  0  0  0
   39.2210   26.6190   42.8870 C   0  0  0  0  0  0  0  0  0  0  0  0
   39.3670   25.4050   42.1950 C   0  0  0  0  0  0  0  0  0  0  0  0
   38.2760   24.7020   41.8000 N   0  0  0  0  0  0  0  0  0  0  0  0
   37.0200   25.1610   42.0690 C   0  0  0  0  0  0  0  0  0  0  0  0
   36.8480   26.3300   42.7360 N   0  0  0  0  0  0  0  0  0  0  0  0
   37.4330   28.2910   43.7240 C   0  0  0  0  0  0  0  0  0  0  0  0
   36.5870   28.0390   44.9350 C   0  0  0  0  0  0  0  0  0  0  0  0
   40.4264   29.4286   43.4333 H   0  0  0  0  0  0  0  0  0  0  0  0
   40.5057   28.8153   41.7861 H   0  0  0  0  0  0  0  0  0  0  0  0
   42.7979   28.5018   41.9561 H   0  0  0  0  0  0  0  0  0  0  0  0
   42.7355   29.3947   43.4838 H   0  0  0  0  0  0  0  0  0  0  0  0
   42.9193   26.4624   42.9902 H   0  0  0  0  0  0  0  0  0  0  0  0
   43.4135   27.3470   44.4170 H   0  0  0  0  0  0  0  0  0  0  0  0
   41.0982   27.5078   45.2305 H   0  0  0  0  0  0  0  0  0  0  0  0
   41.1586   25.8758   44.6064 H   0  0  0  0  0  0  0  0  0  0  0  0
   40.3736   25.0216   41.9718 H   0  0  0  0  0  0  0  0  0  0  0  0
   36.1434   24.5814   41.7440 H   0  0  0  0  0  0  0  0  0  0  0  0
   38.2996   28.9030   44.0146 H   0  0  0  0  0  0  0  0  0  0  0  0
   36.8178   28.8127   42.9762 H   0  0  0  0  0  0  0  0  0  0  0  0
   37.1832   28.2166   45.8422 H   0  0  0  0  0  0  0  0  0  0  0  0
   35.7220   28.7185   44.9259 H   0  0  0  0  0  0  0  0  0  0  0  0
   36.2348   26.9969   44.9259 H   0  0  0  0  0  0  0  0  0  0  0  0
  1  5  1  0
  2  3  1  0
  2  1  1  0
  3  4  1  0
  4  5  1  0
  6 12  1  0
  7  6  2  0
  7  1  1  0
  8  7  1  0
  9 10  1  0
  9  8  2  0
 10 11  2  0
 11  6  1  0
 12 13  1  0
  2 14  1  0
  2 15  1  0
  3 16  1  0
  3 17  1  0
  4 18  1  0
  4 19  1  0
  5 20  1  0
  5 21  1  0
  8 22  1  0
 10 23  1  0
 12 24  1  0
 12 25  1  0
 13 26  1  0
 13 27  1  0
 13 28  1  0
M  ISO  8  14  13  15  13  16  13  17  13  18  13  19  13  20  13  21  13
M  ISO  7  22  14  23  14  24   8  25   8  26   8  27   8  28   8
M  END
>  <minimizedAffinity>  (1) 
-3.7119441

>  <minimizedRMSD>  (1) 
3.60175943

$$$$
