
     RDKit          3D

 23 24  0  0  0  0  0  0  0  0999 V2000
   38.3860   27.6040   42.3670 N   0  0  0  0  0  0  0  0  0  0  0  0
   38.4470   27.2060   43.7610 C   0  0  0  0  0  0  0  0  0  0  0  0
   39.8630   26.7120   43.9510 C   0  0  0  0  0  0  0  0  0  0  0  0
   40.5070   26.8150   42.5930 C   0  0  0  0  0  0  0  0  0  0  0  0
   39.3090   26.7500   41.6900 C   0  0  0  0  0  0  0  0  0  0  0  0
   37.9580   29.9550   41.7440 C   0  0  0  0  0  0  0  0  0  0  0  0
   37.5880   28.6050   41.8220 C   0  0  0  0  0  0  0  0  0  0  0  0
   36.3240   28.2940   41.3060 C   0  0  0  0  0  0  0  0  0  0  0  0
   35.5490   29.2750   40.7760 N   0  0  0  0  0  0  0  0  0  0  0  0
   35.9510   30.5530   40.7250 C   0  0  0  0  0  0  0  0  0  0  0  0
   37.1740   30.8960   41.2170 N   0  0  0  0  0  0  0  0  0  0  0  0
   39.5180   30.4880   42.3500 S   0  0  0  0  0  0  0  0  0  0  0  0
   38.2424   28.0630   44.4195 H   0  0  0  0  0  0  0  0  0  0  0  0
   37.6990   26.4390   44.0105 H   0  0  0  0  0  0  0  0  0  0  0  0
   40.3961   27.3415   44.6787 H   0  0  0  0  0  0  0  0  0  0  0  0
   39.8892   25.6833   44.3397 H   0  0  0  0  0  0  0  0  0  0  0  0
   41.0480   27.7655   42.4755 H   0  0  0  0  0  0  0  0  0  0  0  0
   41.2621   26.0403   42.3940 H   0  0  0  0  0  0  0  0  0  0  0  0
   38.9216   25.7235   41.6119 H   0  0  0  0  0  0  0  0  0  0  0  0
   39.5163   27.0515   40.6526 H   0  0  0  0  0  0  0  0  0  0  0  0
   35.9594   27.2565   41.3299 H   0  0  0  0  0  0  0  0  0  0  0  0
   35.2961   31.3211   40.2878 H   0  0  0  0  0  0  0  0  0  0  0  0
   39.5019   30.4825   43.7199 H   0  0  0  0  0  0  0  0  0  0  0  0
  1  2  1  0
  2  3  1  0
  4  3  1  0
  5  1  1  0
  5  4  1  0
  6  7  2  0
  6 12  1  0
  7  1  1  0
  8  7  1  0
  9  8  2  0
 10  9  1  0
 10 11  2  0
 11  6  1  0
  2 13  1  0
  2 14  1  0
  3 15  1  0
  3 16  1  0
  4 17  1  0
  4 18  1  0
  5 19  1  0
  5 20  1  0
  8 21  1  0
 10 22  1  0
 12 23  1  0
M  ISO  8  13  13  14  13  15  13  16  13  17  13  18  13  19  13  20  13
M  ISO  3  21  14  22  14  23  11
M  END
>  <minimizedAffinity>  (1) 
-3.53364229

>  <minimizedRMSD>  (1) 
0.824226797

$$$$
