
     RDKit          3D

 23 24  0  0  0  0  0  0  0  0999 V2000
   38.7310   27.3830   42.1080 N   0  0  0  0  0  0  0  0  0  0  0  0
   38.5900   26.2780   43.0290 C   0  0  0  0  0  0  0  0  0  0  0  0
   39.8040   26.3840   43.9350 C   0  0  0  0  0  0  0  0  0  0  0  0
   40.6760   27.4360   43.3130 C   0  0  0  0  0  0  0  0  0  0  0  0
   40.1370   27.5090   41.8930 C   0  0  0  0  0  0  0  0  0  0  0  0
   37.3080   29.4260   42.0780 C   0  0  0  0  0  0  0  0  0  0  0  0
   37.6970   28.1640   41.5450 C   0  0  0  0  0  0  0  0  0  0  0  0
   37.0160   27.6810   40.4250 C   0  0  0  0  0  0  0  0  0  0  0  0
   36.0220   28.4280   39.8960 N   0  0  0  0  0  0  0  0  0  0  0  0
   35.6670   29.6140   40.4100 C   0  0  0  0  0  0  0  0  0  0  0  0
   36.3110   30.1160   41.5030 N   0  0  0  0  0  0  0  0  0  0  0  0
   37.9870   29.9030   43.1920 O   0  0  0  0  0  0  0  0  0  0  0  0
   37.6610   26.3721   43.6105 H   0  0  0  0  0  0  0  0  0  0  0  0
   38.5346   25.3075   42.5141 H   0  0  0  0  0  0  0  0  0  0  0  0
   39.5021   26.6848   44.9491 H   0  0  0  0  0  0  0  0  0  0  0  0
   40.3286   25.4218   44.0297 H   0  0  0  0  0  0  0  0  0  0  0  0
   40.5665   28.4006   43.8303 H   0  0  0  0  0  0  0  0  0  0  0  0
   41.7499   27.2034   43.3641 H   0  0  0  0  0  0  0  0  0  0  0  0
   40.5232   26.6850   41.2750 H   0  0  0  0  0  0  0  0  0  0  0  0
   40.4252   28.4232   41.3533 H   0  0  0  0  0  0  0  0  0  0  0  0
   37.2840   26.7105   39.9819 H   0  0  0  0  0  0  0  0  0  0  0  0
   34.8501   30.1870   39.9470 H   0  0  0  0  0  0  0  0  0  0  0  0
   37.7398   30.7771   43.5857 H   0  0  0  0  0  0  0  0  0  0  0  0
  1  2  1  0
  2  3  1  0
  4  3  1  0
  5  1  1  0
  5  4  1  0
  6 12  1  0
  7  6  2  0
  7  1  1  0
  8  7  1  0
  9 10  1  0
  9  8  2  0
 10 11  2  0
 11  6  1  0
  2 13  1  0
  2 14  1  0
  3 15  1  0
  3 16  1  0
  4 17  1  0
  4 18  1  0
  5 19  1  0
  5 20  1  0
  8 21  1  0
 10 22  1  0
 12 23  1  0
M  ISO  8  13  13  14  13  15  13  16  13  17  13  18  13  19  13  20  13
M  ISO  3  21  14  22  14  23   3
M  END
>  <minimizedAffinity>  (1) 
-3.45457458

>  <minimizedRMSD>  (1) 
0.479673356

$$$$
