
     RDKit          3D

 24 25  0  0  0  0  0  0  0  0999 V2000
   38.7880   27.3330   42.2560 N   0  0  0  0  0  0  0  0  0  0  0  0
   38.7520   26.4230   43.3550 C   0  0  0  0  0  0  0  0  0  0  0  0
   40.1500   26.4940   43.9590 C   0  0  0  0  0  0  0  0  0  0  0  0
   40.9550   27.3610   43.0300 C   0  0  0  0  0  0  0  0  0  0  0  0
   40.1470   27.2530   41.7600 C   0  0  0  0  0  0  0  0  0  0  0  0
   37.5540   29.4830   42.0860 C   0  0  0  0  0  0  0  0  0  0  0  0
   37.7730   28.1400   41.7360 C   0  0  0  0  0  0  0  0  0  0  0  0
   36.8910   27.5780   40.7830 C   0  0  0  0  0  0  0  0  0  0  0  0
   35.9010   28.3410   40.2660 N   0  0  0  0  0  0  0  0  0  0  0  0
   35.7350   29.6380   40.6410 C   0  0  0  0  0  0  0  0  0  0  0  0
   36.5600   30.1990   41.5450 N   0  0  0  0  0  0  0  0  0  0  0  0
   38.4350   30.0610   43.0440 N   0  0  0  0  0  0  0  0  0  0  0  0
   37.9950   26.7323   44.0907 H   0  0  0  0  0  0  0  0  0  0  0  0
   38.4836   25.4028   43.0433 H   0  0  0  0  0  0  0  0  0  0  0  0
   40.1111   26.9416   44.9631 H   0  0  0  0  0  0  0  0  0  0  0  0
   40.5954   25.4940   44.0668 H   0  0  0  0  0  0  0  0  0  0  0  0
   41.0055   28.3995   43.3893 H   0  0  0  0  0  0  0  0  0  0  0  0
   42.0069   27.0570   42.9246 H   0  0  0  0  0  0  0  0  0  0  0  0
   40.3302   26.2954   41.2506 H   0  0  0  0  0  0  0  0  0  0  0  0
   40.3914   28.0232   41.0136 H   0  0  0  0  0  0  0  0  0  0  0  0
   37.0092   26.5314   40.4658 H   0  0  0  0  0  0  0  0  0  0  0  0
   34.9205   30.2330   40.2023 H   0  0  0  0  0  0  0  0  0  0  0  0
   38.3119   31.0427   43.3305 H   0  0  0  0  0  0  0  0  0  0  0  0
   39.1953   29.4974   43.4504 H   0  0  0  0  0  0  0  0  0  0  0  0
  1  2  1  0
  2  3  1  0
  4  3  1  0
  5  1  1  0
  5  4  1  0
  6 12  1  0
  7  6  2  0
  7  1  1  0
  8  7  1  0
  9 10  1  0
  9  8  2  0
 10 11  2  0
 11  6  1  0
  2 13  1  0
  2 14  1  0
  3 15  1  0
  3 16  1  0
  4 17  1  0
  4 18  1  0
  5 19  1  0
  5 20  1  0
  8 21  1  0
 10 22  1  0
 12 23  1  0
 12 24  1  0
M  ISO  8  13  13  14  13  15  13  16  13  17  13  18  13  19  13  20  13
M  ISO  2  21  14  22  14
M  END
>  <minimizedAffinity>  (1) 
-3.39186597

>  <minimizedRMSD>  (1) 
0.450638831

$$$$
