
     RDKit          3D

 41 43  0  0  1  0  0  0  0  0999 V2000
   37.6920   30.7860   39.9810 C   0  0  0  0  0  0  0  0  0  0  0  0
   38.6730   30.7870   40.9770 C   0  0  0  0  0  0  0  0  0  0  0  0
   39.1340   32.0380   41.4030 C   0  0  0  0  0  0  0  0  0  0  0  0
   38.6420   33.1720   40.8670 N   0  0  0  0  0  0  0  0  0  0  0  0
   37.6830   33.1240   39.8970 C   0  0  0  0  0  0  0  0  0  0  0  0
   37.2080   31.9320   39.4530 N   0  0  0  0  0  0  0  0  0  0  0  0
   37.0490   29.6820   39.3750 N   0  0  0  0  0  0  0  0  0  0  0  0
   36.9920   28.2340   39.4880 C   0  0  0  0  0  0  0  0  0  0  0  0
   35.8020   27.7920   38.7150 C   0  0  0  0  0  0  0  0  0  0  0  0
   35.6020   28.8430   37.6660 C   0  0  0  0  0  0  0  0  0  0  0  0
   36.1330   30.0780   38.2990 C   0  0  0  0  0  0  0  0  0  0  0  0
   39.1890   29.6250   41.5450 N   0  0  0  0  0  0  0  0  0  0  0  0
   40.5940   29.3620   41.8570 C   0  0  0  0  0  0  0  0  0  0  0  0
   40.7320   27.8790   41.7150 C   0  0  0  0  0  0  0  0  0  0  0  0
   39.3690   27.3630   41.4670 C   0  0  0  0  0  0  0  0  0  0  0  0
   38.4640   28.4580   41.9310 C   0  0  1  0  0  0  0  0  0  0  0  0
   38.1810   28.3590   43.3510 N   0  0  0  0  0  0  0  0  0  0  0  0
   36.9580   27.9450   43.9900 C   0  0  0  0  0  0  0  0  0  0  0  0
   36.3820   26.9910   43.3040 N   0  0  0  0  0  0  0  0  0  0  0  0
   36.5290   28.5510   45.1920 N   0  0  0  0  0  0  0  0  0  0  0  0
   35.4920   26.5440   43.5790 H   0  0  0  0  0  0  0  0  0  0  0  0
   39.9065   32.0960   42.1840 H   0  0  0  0  0  0  0  0  0  0  0  0
   37.2914   34.0595   39.4711 H   0  0  0  0  0  0  0  0  0  0  0  0
   37.9045   27.7848   39.0690 H   0  0  0  0  0  0  0  0  0  0  0  0
   36.9188   27.9217   40.5402 H   0  0  0  0  0  0  0  0  0  0  0  0
   35.9865   26.8126   38.2494 H   0  0  0  0  0  0  0  0  0  0  0  0
   34.9153   27.6768   39.3557 H   0  0  0  0  0  0  0  0  0  0  0  0
   34.5354   28.9550   37.4213 H   0  0  0  0  0  0  0  0  0  0  0  0
   36.1043   28.6001   36.7180 H   0  0  0  0  0  0  0  0  0  0  0  0
   36.6732   30.6774   37.5514 H   0  0  0  0  0  0  0  0  0  0  0  0
   35.3085   30.6830   38.7042 H   0  0  0  0  0  0  0  0  0  0  0  0
   41.2548   29.8845   41.1497 H   0  0  0  0  0  0  0  0  0  0  0  0
   40.8758   29.7166   42.8594 H   0  0  0  0  0  0  0  0  0  0  0  0
   41.3920   27.6361   40.8692 H   0  0  0  0  0  0  0  0  0  0  0  0
   41.1750   27.4283   42.6153 H   0  0  0  0  0  0  0  0  0  0  0  0
   39.2184   27.1617   40.3961 H   0  0  0  0  0  0  0  0  0  0  0  0
   39.1795   26.4140   41.9900 H   0  0  0  0  0  0  0  0  0  0  0  0
   37.4546   28.4395   41.4943 H   0  0  0  0  0  0  0  0  0  0  0  0
   38.9527   28.6176   43.9822 H   0  0  0  0  0  0  0  0  0  0  0  0
   35.6525   28.2455   45.6385 H   0  0  0  0  0  0  0  0  0  0  0  0
   37.0927   29.2983   45.6218 H   0  0  0  0  0  0  0  0  0  0  0  0
  1  2  1  0
  2  3  2  0
  2 12  1  0
  4  3  1  0
  5  4  2  0
  6  5  1  0
  6  1  2  0
  7  8  1  0
  7  1  1  0
  9  8  1  0
 10 11  1  0
 10  9  1  0
 11  7  1  0
 12 13  1  0
 12 16  1  0
 14 13  1  0
 15 14  1  0
 15 16  1  0
 16 17  1  0
 17 18  1  0
 18 20  1  0
 19 21  1  0
 19 18  2  0
  3 22  1  0
  5 23  1  0
  8 24  1  0
  8 25  1  0
  9 26  1  0
  9 27  1  0
 10 28  1  0
 10 29  1  0
 11 30  1  0
 11 31  1  0
 13 32  1  0
 13 33  1  0
 14 34  1  0
 14 35  1  0
 15 36  1  0
 15 37  1  0
 16 38  1  6
 17 39  1  0
 20 40  1  0
 20 41  1  0
M  ISO  8  22  14  23  14  24  13  25  13  26  13  27  13  28  13  29  13
M  ISO  8  30  13  31  13  32  13  33  13  34  13  35  13  36  13  37  13
M  ISO  1  38  13
M  END
>  <minimizedAffinity>  (1) 
-5.26273966

>  <minimizedRMSD>  (1) 
2.08274245

$$$$
