
     RDKit          3D

 35 37  0  0  1  0  0  0  0  0999 V2000
   38.2060   29.7110   40.8810 C   0  0  0  0  0  0  0  0  0  0  0  0
   38.9940   29.0010   41.7850 C   0  0  0  0  0  0  0  0  0  0  0  0
   39.9150   29.7340   42.5550 C   0  0  0  0  0  0  0  0  0  0  0  0
   40.0010   31.0670   42.3960 N   0  0  0  0  0  0  0  0  0  0  0  0
   39.2130   31.7310   41.5010 C   0  0  0  0  0  0  0  0  0  0  0  0
   38.3160   31.0530   40.7440 N   0  0  0  0  0  0  0  0  0  0  0  0
   37.2090   29.2320   40.0020 N   0  0  0  0  0  0  0  0  0  0  0  0
   36.5240   27.9960   39.6720 C   0  0  0  0  0  0  0  0  0  0  0  0
   35.3000   28.3810   38.9030 C   0  0  0  0  0  0  0  0  0  0  0  0
   35.6920   29.6440   38.2040 C   0  0  0  0  0  0  0  0  0  0  0  0
   36.6490   30.2750   39.1380 C   0  0  0  0  0  0  0  0  0  0  0  0
   38.8990   27.6220   41.9470 N   0  0  0  0  0  0  0  0  0  0  0  0
   39.4240   26.5840   41.0970 C   0  0  0  0  0  0  0  0  0  0  0  0
   38.4870   25.4300   41.2570 C   0  0  0  0  0  0  0  0  0  0  0  0
   37.5480   25.8270   42.3390 C   0  0  0  0  0  0  0  0  0  0  0  0
   38.2330   26.9420   43.0340 C   0  0  2  0  0  0  0  0  0  0  0  0
   37.0570   28.0760   43.8070 S   0  0  0  0  0  0  0  0  0  0  0  0
   40.5608   29.2205   43.2825 H   0  0  0  0  0  0  0  0  0  0  0  0
   39.3063   32.8217   41.3935 H   0  0  0  0  0  0  0  0  0  0  0  0
   37.1727   27.3544   39.0575 H   0  0  0  0  0  0  0  0  0  0  0  0
   36.2626   27.4316   40.5793 H   0  0  0  0  0  0  0  0  0  0  0  0
   35.0329   27.5992   38.1767 H   0  0  0  0  0  0  0  0  0  0  0  0
   34.4189   28.5112   39.5485 H   0  0  0  0  0  0  0  0  0  0  0  0
   36.1713   29.4260   37.2382 H   0  0  0  0  0  0  0  0  0  0  0  0
   34.8318   30.2893   37.9724 H   0  0  0  0  0  0  0  0  0  0  0  0
   37.4567   30.7604   38.5705 H   0  0  0  0  0  0  0  0  0  0  0  0
   36.1374   31.0352   39.7466 H   0  0  0  0  0  0  0  0  0  0  0  0
   40.4390   26.3028   41.4145 H   0  0  0  0  0  0  0  0  0  0  0  0
   39.4968   26.9104   40.0491 H   0  0  0  0  0  0  0  0  0  0  0  0
   37.9393   25.2470   40.3208 H   0  0  0  0  0  0  0  0  0  0  0  0
   39.0224   24.5009   41.5022 H   0  0  0  0  0  0  0  0  0  0  0  0
   36.5887   26.1622   41.9178 H   0  0  0  0  0  0  0  0  0  0  0  0
   37.3137   24.9927   43.0166 H   0  0  0  0  0  0  0  0  0  0  0  0
   38.8948   26.5912   43.8396 H   0  0  0  0  0  0  0  0  0  0  0  0
   37.1575   27.9791   45.1699 H   0  0  0  0  0  0  0  0  0  0  0  0
  1  2  1  0
  2 12  1  0
  2  3  2  0
  4  3  1  0
  5  4  2  0
  6  1  2  0
  6  5  1  0
  7  1  1  0
  8  7  1  0
  9  8  1  0
 10  9  1  0
 10 11  1  0
 11  7  1  0
 12 16  1  0
 13 14  1  0
 13 12  1  0
 14 15  1  0
 15 16  1  0
 16 17  1  0
  3 18  1  0
  5 19  1  0
  8 20  1  0
  8 21  1  0
  9 22  1  0
  9 23  1  0
 10 24  1  0
 10 25  1  0
 11 26  1  0
 11 27  1  0
 13 28  1  0
 13 29  1  0
 14 30  1  0
 14 31  1  0
 15 32  1  0
 15 33  1  0
 16 34  1  1
 17 35  1  0
M  ISO  8  18  14  19  14  20  13  21  13  22  13  23  13  24  13  25  13
M  ISO  8  26  13  27  13  28  13  29  13  30  13  31  13  32  13  33  13
M  ISO  2  34  13  35  11
M  END
>  <minimizedAffinity>  (1) 
-4.21258259

>  <minimizedRMSD>  (1) 
1.25854921

$$$$
