
     RDKit          3D

 29 31  0  0  0  0  0  0  0  0999 V2000
   37.6620   28.7100   43.8830 C   0  0  0  0  0  0  0  0  0  0  0  0
   37.0160   27.4560   43.8310 C   0  0  0  0  0  0  0  0  0  0  0  0
   36.5140   27.0080   42.6040 C   0  0  0  0  0  0  0  0  0  0  0  0
   36.6730   27.8080   41.5170 N   0  0  0  0  0  0  0  0  0  0  0  0
   37.3020   29.0160   41.6000 C   0  0  0  0  0  0  0  0  0  0  0  0
   37.7830   29.4470   42.7630 N   0  0  0  0  0  0  0  0  0  0  0  0
   37.4090   29.7630   40.3970 N   0  0  0  0  0  0  0  0  0  0  0  0
   36.8630   29.3630   39.2450 C   0  0  0  0  0  0  0  0  0  0  0  0
   37.0580   30.1980   38.1770 C   0  0  0  0  0  0  0  0  0  0  0  0
   37.7570   31.3760   38.2300 C   0  0  0  0  0  0  0  0  0  0  0  0
   37.9280   32.1370   37.2350 O   0  0  0  0  0  0  0  0  0  0  0  0
   38.2910   31.7380   39.4230 N   0  0  0  0  0  0  0  0  0  0  0  0
   38.1110   30.9290   40.4910 C   0  0  0  0  0  0  0  0  0  0  0  0
   38.6280   31.3100   41.5760 O   0  0  0  0  0  0  0  0  0  0  0  0
   39.0440   32.9680   39.5690 C   0  0  0  0  0  0  0  0  0  0  0  0
   40.5340   33.1690   39.2950 C   0  0  0  0  0  0  0  0  0  0  0  0
   40.6250   34.9190   39.7170 S   0  0  0  0  0  0  0  0  0  0  0  0
   38.8010   35.1050   40.1620 C   0  0  0  0  0  0  0  0  0  0  0  0
   38.1570   33.8780   39.9920 N   0  0  0  0  0  0  0  0  0  0  0  0
   36.4990   29.8570   36.8490 C   0  0  0  0  0  0  0  0  0  0  0  0
   38.0653   29.0838   44.8357 H   0  0  0  0  0  0  0  0  0  0  0  0
   36.9092   26.8426   44.7378 H   0  0  0  0  0  0  0  0  0  0  0  0
   36.0053   26.0362   42.5217 H   0  0  0  0  0  0  0  0  0  0  0  0
   36.2945   28.4251   39.1600 H   0  0  0  0  0  0  0  0  0  0  0  0
   41.3071   32.4670   38.9493 H   0  0  0  0  0  0  0  0  0  0  0  0
   38.3204   36.0342   40.5020 H   0  0  0  0  0  0  0  0  0  0  0  0
   35.5665   29.2882   36.9788 H   0  0  0  0  0  0  0  0  0  0  0  0
   36.2899   30.7815   36.2908 H   0  0  0  0  0  0  0  0  0  0  0  0
   37.2253   29.2480   36.2908 H   0  0  0  0  0  0  0  0  0  0  0  0
  2  1  2  0
  3  2  1  0
  4  5  1  0
  4  3  2  0
  5  6  2  0
  6  1  1  0
  7 13  1  0
  7  5  1  0
  8  7  1  0
  9 10  1  0
  9  8  2  0
 10 12  1  0
 11 10  2  0
 12 15  1  0
 12 13  1  0
 13 14  2  0
 15 19  1  0
 16 15  2  0
 16 17  1  0
 17 18  1  0
 19 18  2  0
 20  9  1  0
  1 21  1  0
  2 22  1  0
  3 23  1  0
  8 24  1  0
 16 25  1  0
 18 26  1  0
 20 27  1  0
 20 28  1  0
 20 29  1  0
M  ISO  8  21  14  22  14  23  14  24  14  25  14  26  14  27   8  28   8
M  ISO  1  29   8
M  END
>  <minimizedAffinity>  (1) 
-5.51021433

>  <minimizedRMSD>  (1) 
2.93818831

$$$$
