
     RDKit          3D

 44 47  0  0  1  0  0  0  0  0999 V2000
   38.8210   35.6650   40.1220 C   0  0  0  0  0  0  0  0  0  0  0  0
   40.1790   35.7550   39.7950 C   0  0  0  0  0  0  0  0  0  0  0  0
   40.8220   34.5480   39.4890 C   0  0  0  0  0  0  0  0  0  0  0  0
   40.0720   33.4530   39.5430 N   0  0  0  0  0  0  0  0  0  0  0  0
   38.7960   33.3270   39.8460 C   0  0  0  0  0  0  0  0  0  0  0  0
   38.2110   34.4890   40.1320 N   0  0  0  0  0  0  0  0  0  0  0  0
   37.8840   32.2040   39.9380 C   0  0  0  0  0  0  0  0  0  0  0  0
   37.3640   31.7570   41.0880 N   0  0  0  0  0  0  0  0  0  0  0  0
   36.5270   30.7370   41.2100 C   0  0  0  0  0  0  0  0  0  0  0  0
   36.1320   30.0630   40.1580 N   0  0  0  0  0  0  0  0  0  0  0  0
   36.5760   30.4050   38.9360 C   0  0  0  0  0  0  0  0  0  0  0  0
   36.1600   29.6950   37.8170 C   0  0  0  0  0  0  0  0  0  0  0  0
   36.6000   30.0260   36.5730 C   0  0  0  0  0  0  0  0  0  0  0  0
   37.4940   31.1160   36.4410 C   0  0  0  0  0  0  0  0  0  0  0  0
   37.8620   31.7730   37.5970 C   0  0  0  0  0  0  0  0  0  0  0  0
   37.4430   31.4710   38.8590 C   0  0  0  0  0  0  0  0  0  0  0  0
   42.1070   34.4500   39.1570 O   0  0  0  0  0  0  0  0  0  0  0  0
   43.0590   33.6300   39.8180 C   0  0  2  0  0  0  0  0  0  0  0  0
   43.2040   34.1890   41.2580 C   0  0  0  0  0  0  0  0  0  0  0  0
   44.3880   33.7450   39.1260 C   0  0  0  0  0  0  0  0  0  0  0  0
   44.5340   32.8530   38.0160 N   0  0  0  0  0  0  0  0  0  0  0  0
   43.7060   31.8280   37.7300 C   0  0  0  0  0  0  0  0  0  0  0  0
   43.8840   30.9900   36.6470 C   0  0  0  0  0  0  0  0  0  0  0  0
   44.9770   31.2340   35.8280 C   0  0  0  0  0  0  0  0  0  0  0  0
   45.1920   30.5030   34.8260 O   0  0  0  0  0  0  0  0  0  0  0  0
   45.8320   32.2460   36.0750 N   0  0  0  0  0  0  0  0  0  0  0  0
   45.5800   33.0130   37.1530 C   0  0  0  0  0  0  0  0  0  0  0  0
   46.3840   33.9750   37.3960 O   0  0  0  0  0  0  0  0  0  0  0  0
   38.2571   36.5758   40.3721 H   0  0  0  0  0  0  0  0  0  0  0  0
   40.7109   36.7177   39.7791 H   0  0  0  0  0  0  0  0  0  0  0  0
   36.1592   30.4525   42.2069 H   0  0  0  0  0  0  0  0  0  0  0  0
   35.4639   28.8520   37.9386 H   0  0  0  0  0  0  0  0  0  0  0  0
   36.2688   29.4598   35.6899 H   0  0  0  0  0  0  0  0  0  0  0  0
   37.8789   31.4259   35.4582 H   0  0  0  0  0  0  0  0  0  0  0  0
   38.5576   32.6185   37.4909 H   0  0  0  0  0  0  0  0  0  0  0  0
   42.7401   32.5772   39.8158 H   0  0  0  0  0  0  0  0  0  0  0  0
   42.9966   33.3894   41.9843 H   0  0  0  0  0  0  0  0  0  0  0  0
   44.2285   34.5615   41.4053 H   0  0  0  0  0  0  0  0  0  0  0  0
   42.4897   35.0125   41.4053 H   0  0  0  0  0  0  0  0  0  0  0  0
   44.5021   34.7764   38.7610 H   0  0  0  0  0  0  0  0  0  0  0  0
   45.1598   33.4744   39.8616 H   0  0  0  0  0  0  0  0  0  0  0  0
   42.8459   31.6505   38.3924 H   0  0  0  0  0  0  0  0  0  0  0  0
   43.1880   30.1632   36.4421 H   0  0  0  0  0  0  0  0  0  0  0  0
   46.6430   32.4251   35.4658 H   0  0  0  0  0  0  0  0  0  0  0  0
  1  6  2  0
  2  1  1  0
  3  4  1  0
  3  2  2  0
  4  5  2  0
  5  7  1  0
  5  6  1  0
  7  8  2  0
  8  9  1  0
 10  9  2  0
 11 10  1  0
 12 11  2  0
 13 12  1  0
 14 13  2  0
 14 15  1  0
 15 16  2  0
 16 11  1  0
 16  7  1  0
 17  3  1  0
 17 18  1  0
 18 19  1  0
 20 18  1  0
 21 20  1  0
 22 21  1  0
 23 22  2  0
 24 26  1  0
 24 23  1  0
 25 24  2  0
 26 27  1  0
 27 28  2  0
 27 21  1  0
  1 29  1  0
  2 30  1  0
  9 31  1  0
 12 32  1  0
 13 33  1  0
 14 34  1  0
 15 35  1  0
 18 36  1  1
 19 37  1  0
 19 38  1  0
 19 39  1  0
 20 40  1  0
 20 41  1  0
 22 42  1  0
 23 43  1  0
 26 44  1  0
M  ISO  8  29  14  30  14  31  14  32  14  33  14  34  14  35  14  36   8
M  ISO  8  37   8  38   8  39   8  40   8  41   8  42  14  43  14  44   9
M  END
>  <minimizedAffinity>  (1) 
-6.21937132

>  <minimizedRMSD>  (1) 
1.97551203

$$$$
