
     RDKit          3D

 44 47  0  0  1  0  0  0  0  0999 V2000
   38.9730   35.5830   40.1730 C   0  0  0  0  0  0  0  0  0  0  0  0
   40.3100   35.6220   39.7640 C   0  0  0  0  0  0  0  0  0  0  0  0
   40.8660   34.4040   39.3560 C   0  0  0  0  0  0  0  0  0  0  0  0
   40.0620   33.3450   39.4010 N   0  0  0  0  0  0  0  0  0  0  0  0
   38.8020   33.2690   39.7780 C   0  0  0  0  0  0  0  0  0  0  0  0
   38.3000   34.4450   40.1620 N   0  0  0  0  0  0  0  0  0  0  0  0
   37.8370   32.1890   39.8710 C   0  0  0  0  0  0  0  0  0  0  0  0
   37.2570   31.8010   41.0220 N   0  0  0  0  0  0  0  0  0  0  0  0
   36.3760   30.8250   41.1450 C   0  0  0  0  0  0  0  0  0  0  0  0
   35.9890   30.1340   40.1010 N   0  0  0  0  0  0  0  0  0  0  0  0
   36.4910   30.4180   38.8810 C   0  0  0  0  0  0  0  0  0  0  0  0
   36.0790   29.6890   37.7780 C   0  0  0  0  0  0  0  0  0  0  0  0
   36.5770   29.9650   36.5400 C   0  0  0  0  0  0  0  0  0  0  0  0
   37.5140   31.0030   36.4060 C   0  0  0  0  0  0  0  0  0  0  0  0
   37.8780   31.6870   37.5530 C   0  0  0  0  0  0  0  0  0  0  0  0
   37.4030   31.4410   38.8060 C   0  0  0  0  0  0  0  0  0  0  0  0
   42.1200   34.2570   38.9360 O   0  0  0  0  0  0  0  0  0  0  0  0
   42.9900   33.2030   39.3130 C   0  0  2  0  0  0  0  0  0  0  0  0
   43.5640   33.5610   40.7090 C   0  0  0  0  0  0  0  0  0  0  0  0
   44.1140   33.0710   38.3290 C   0  0  0  0  0  0  0  0  0  0  0  0
   43.8760   31.9860   37.3440 C   0  0  0  0  0  0  0  0  0  0  0  0
   44.8820   31.5920   36.4760 C   0  0  0  0  0  0  0  0  0  0  0  0
   44.7990   30.6060   35.5170 C   0  0  0  0  0  0  0  0  0  0  0  0
   43.5750   29.9740   35.4480 C   0  0  0  0  0  0  0  0  0  0  0  0
   42.5120   30.2960   36.2700 C   0  0  0  0  0  0  0  0  0  0  0  0
   42.6830   31.3050   37.2110 C   0  0  0  0  0  0  0  0  0  0  0  0
   38.4774   36.5067   40.5065 H   0  0  0  0  0  0  0  0  0  0  0  0
   40.8910   36.5560   39.7630 H   0  0  0  0  0  0  0  0  0  0  0  0
   35.9618   30.5891   42.1363 H   0  0  0  0  0  0  0  0  0  0  0  0
   35.3436   28.8804   37.9023 H   0  0  0  0  0  0  0  0  0  0  0  0
   36.2517   29.3864   35.6628 H   0  0  0  0  0  0  0  0  0  0  0  0
   37.9423   31.2624   35.4266 H   0  0  0  0  0  0  0  0  0  0  0  0
   38.6131   32.4979   37.4436 H   0  0  0  0  0  0  0  0  0  0  0  0
   42.4448   32.2479   39.3369 H   0  0  0  0  0  0  0  0  0  0  0  0
   42.9078   33.1517   41.4912 H   0  0  0  0  0  0  0  0  0  0  0  0
   44.5709   33.1305   40.8128 H   0  0  0  0  0  0  0  0  0  0  0  0
   43.6203   34.6546   40.8128 H   0  0  0  0  0  0  0  0  0  0  0  0
   44.2239   34.0223   37.7877 H   0  0  0  0  0  0  0  0  0  0  0  0
   45.0258   32.8211   38.8912 H   0  0  0  0  0  0  0  0  0  0  0  0
   45.8435   32.1195   36.5612 H   0  0  0  0  0  0  0  0  0  0  0  0
   45.6410   30.3440   34.8595 H   0  0  0  0  0  0  0  0  0  0  0  0
   43.4386   29.1759   34.7034 H   0  0  0  0  0  0  0  0  0  0  0  0
   41.5522   29.7660   36.1818 H   0  0  0  0  0  0  0  0  0  0  0  0
   41.8421   31.5685   37.8694 H   0  0  0  0  0  0  0  0  0  0  0  0
  2  1  2  0
  3  4  2  0
  3  2  1  0
  4  5  1  0
  5  7  1  0
  5  6  2  0
  6  1  1  0
  7  8  2  0
  8  9  1  0
 10  9  2  0
 11 10  1  0
 12 11  2  0
 13 12  1  0
 14 13  2  0
 14 15  1  0
 15 16  2  0
 16 11  1  0
 16  7  1  0
 17 18  1  0
 17  3  1  0
 18 19  1  0
 20 18  1  0
 21 20  1  0
 22 21  2  0
 23 22  1  0
 24 23  2  0
 24 25  1  0
 25 26  2  0
 26 21  1  0
  1 27  1  0
  2 28  1  0
  9 29  1  0
 12 30  1  0
 13 31  1  0
 14 32  1  0
 15 33  1  0
 18 34  1  1
 19 35  1  0
 19 36  1  0
 19 37  1  0
 20 38  1  0
 20 39  1  0
 22 40  1  0
 23 41  1  0
 24 42  1  0
 25 43  1  0
 26 44  1  0
M  ISO  8  27  14  28  14  29  14  30  14  31  14  32  14  33  14  34   8
M  ISO  8  35   8  36   8  37   8  38   8  39   8  40  14  41  14  42  14
M  ISO  2  43  14  44  14
M  END
>  <minimizedAffinity>  (1) 
-5.90609074

>  <minimizedRMSD>  (1) 
1.79280102

$$$$
