
     RDKit          3D

 41 44  0  0  1  0  0  0  0  0999 V2000
   39.0880   34.3080   40.6320 C   0  0  0  0  0  0  0  0  0  0  0  0
   40.3650   34.4250   40.0680 C   0  0  0  0  0  0  0  0  0  0  0  0
   41.0790   33.2280   39.9110 C   0  0  0  0  0  0  0  0  0  0  0  0
   40.4680   32.1190   40.3140 N   0  0  0  0  0  0  0  0  0  0  0  0
   39.2650   31.9800   40.8490 C   0  0  0  0  0  0  0  0  0  0  0  0
   38.6080   33.1260   40.9880 N   0  0  0  0  0  0  0  0  0  0  0  0
   38.5050   30.8380   41.3250 C   0  0  0  0  0  0  0  0  0  0  0  0
   38.6920   30.2640   42.5290 N   0  0  0  0  0  0  0  0  0  0  0  0
   38.0210   29.2220   42.9970 C   0  0  0  0  0  0  0  0  0  0  0  0
   37.0790   28.6500   42.2820 N   0  0  0  0  0  0  0  0  0  0  0  0
   36.7900   29.1300   41.0510 C   0  0  0  0  0  0  0  0  0  0  0  0
   35.7970   28.5280   40.2930 C   0  0  0  0  0  0  0  0  0  0  0  0
   35.4910   28.9940   39.0530 C   0  0  0  0  0  0  0  0  0  0  0  0
   36.2060   30.1040   38.5530 C   0  0  0  0  0  0  0  0  0  0  0  0
   37.1820   30.6420   39.3780 C   0  0  0  0  0  0  0  0  0  0  0  0
   37.5200   30.2110   40.6200 C   0  0  0  0  0  0  0  0  0  0  0  0
   42.3030   33.1540   39.3930 O   0  0  0  0  0  0  0  0  0  0  0  0
   43.3500   34.0810   39.6480 C   0  0  2  0  0  0  0  0  0  0  0  0
   44.2930   34.0410   38.4200 C   0  0  0  0  0  0  0  0  0  0  0  0
   44.1150   33.6610   40.8750 C   0  0  0  0  0  0  0  0  0  0  0  0
   44.3000   34.7790   41.7890 N   0  0  0  0  0  0  0  0  0  0  0  0
   43.2200   35.3600   42.3130 N   0  0  0  0  0  0  0  0  0  0  0  0
   43.5770   36.3600   43.1220 C   0  0  0  0  0  0  0  0  0  0  0  0
   44.9570   36.4380   43.1260 C   0  0  0  0  0  0  0  0  0  0  0  0
   45.3690   35.4260   42.2740 C   0  0  0  0  0  0  0  0  0  0  0  0
   38.4759   35.2097   40.7812 H   0  0  0  0  0  0  0  0  0  0  0  0
   40.7825   35.3970   39.7665 H   0  0  0  0  0  0  0  0  0  0  0  0
   38.2558   28.8305   43.9978 H   0  0  0  0  0  0  0  0  0  0  0  0
   35.2509   27.6640   40.6995 H   0  0  0  0  0  0  0  0  0  0  0  0
   34.7031   28.5164   38.4521 H   0  0  0  0  0  0  0  0  0  0  0  0
   35.9988   30.5219   37.5568 H   0  0  0  0  0  0  0  0  0  0  0  0
   37.7390   31.5059   38.9862 H   0  0  0  0  0  0  0  0  0  0  0  0
   42.9484   35.0915   39.8142 H   0  0  0  0  0  0  0  0  0  0  0  0
   45.3378   33.9967   38.7613 H   0  0  0  0  0  0  0  0  0  0  0  0
   44.0674   33.1516   37.8133 H   0  0  0  0  0  0  0  0  0  0  0  0
   44.1435   34.9463   37.8133 H   0  0  0  0  0  0  0  0  0  0  0  0
   43.5575   32.8649   41.3902 H   0  0  0  0  0  0  0  0  0  0  0  0
   45.1057   33.3004   40.5611 H   0  0  0  0  0  0  0  0  0  0  0  0
   42.8920   37.0091   43.6872 H   0  0  0  0  0  0  0  0  0  0  0  0
   45.5883   37.1465   43.6823 H   0  0  0  0  0  0  0  0  0  0  0  0
   46.4156   35.1892   42.0321 H   0  0  0  0  0  0  0  0  0  0  0  0
  1  6  2  0
  2  1  1  0
  3  2  2  0
  3  4  1  0
  4  5  2  0
  5  6  1  0
  5  7  1  0
  7  8  2  0
  8  9  1  0
 10  9  2  0
 11 10  1  0
 12 11  2  0
 13 12  1  0
 14 13  2  0
 14 15  1  0
 15 16  2  0
 16 11  1  0
 16  7  1  0
 17 18  1  0
 17  3  1  0
 18 20  1  0
 19 18  1  0
 20 21  1  0
 21 25  1  0
 21 22  1  0
 22 23  2  0
 23 24  1  0
 25 24  2  0
  1 26  1  0
  2 27  1  0
  9 28  1  0
 12 29  1  0
 13 30  1  0
 14 31  1  0
 15 32  1  0
 18 33  1  1
 19 34  1  0
 19 35  1  0
 19 36  1  0
 20 37  1  0
 20 38  1  0
 23 39  1  0
 24 40  1  0
 25 41  1  0
M  ISO  8  26  14  27  14  28  14  29  14  30  14  31  14  32  14  33   8
M  ISO  8  34   8  35   8  36   8  37   8  38   8  39  14  40  14  41  14
M  END
>  <minimizedAffinity>  (1) 
-5.86918354

>  <minimizedRMSD>  (1) 
2.59333396

$$$$
