
     RDKit          3D

 41 44  0  0  1  0  0  0  0  0999 V2000
   38.9660   35.5470   40.2190 C   0  0  0  0  0  0  0  0  0  0  0  0
   40.2840   35.5990   39.7640 C   0  0  0  0  0  0  0  0  0  0  0  0
   40.8280   34.3890   39.3130 C   0  0  0  0  0  0  0  0  0  0  0  0
   40.0310   33.3280   39.3670 N   0  0  0  0  0  0  0  0  0  0  0  0
   38.7830   33.2490   39.7890 C   0  0  0  0  0  0  0  0  0  0  0  0
   38.2900   34.4050   40.2110 N   0  0  0  0  0  0  0  0  0  0  0  0
   37.8240   32.1610   39.8930 C   0  0  0  0  0  0  0  0  0  0  0  0
   37.2690   31.7600   41.0390 N   0  0  0  0  0  0  0  0  0  0  0  0
   36.3940   30.7750   41.1670 C   0  0  0  0  0  0  0  0  0  0  0  0
   35.9860   30.0810   40.1200 N   0  0  0  0  0  0  0  0  0  0  0  0
   36.4680   30.3800   38.8950 C   0  0  0  0  0  0  0  0  0  0  0  0
   36.0580   29.6690   37.7930 C   0  0  0  0  0  0  0  0  0  0  0  0
   36.5300   29.9510   36.5520 C   0  0  0  0  0  0  0  0  0  0  0  0
   37.4540   30.9920   36.4120 C   0  0  0  0  0  0  0  0  0  0  0  0
   37.8270   31.6690   37.5570 C   0  0  0  0  0  0  0  0  0  0  0  0
   37.3790   31.4180   38.8170 C   0  0  0  0  0  0  0  0  0  0  0  0
   42.0700   34.2570   38.8480 O   0  0  0  0  0  0  0  0  0  0  0  0
   42.9160   33.1460   39.1030 C   0  0  2  0  0  0  0  0  0  0  0  0
   43.7020   33.4700   40.4000 C   0  0  0  0  0  0  0  0  0  0  0  0
   43.8890   32.9750   37.9690 C   0  0  0  0  0  0  0  0  0  0  0  0
   43.5680   31.8300   37.1040 C   0  0  0  0  0  0  0  0  0  0  0  0
   42.4160   31.0760   37.2020 C   0  0  0  0  0  0  0  0  0  0  0  0
   42.4180   30.1050   36.2740 N   0  0  0  0  0  0  0  0  0  0  0  0
   43.5860   30.2530   35.5880 C   0  0  0  0  0  0  0  0  0  0  0  0
   44.2900   31.3080   36.0950 N   0  0  0  0  0  0  0  0  0  0  0  0
   38.4818   36.4630   40.5885 H   0  0  0  0  0  0  0  0  0  0  0  0
   40.8620   36.5349   39.7596 H   0  0  0  0  0  0  0  0  0  0  0  0
   35.9993   30.5299   42.1641 H   0  0  0  0  0  0  0  0  0  0  0  0
   35.3311   28.8531   37.9193 H   0  0  0  0  0  0  0  0  0  0  0  0
   36.1940   29.3748   35.6773 H   0  0  0  0  0  0  0  0  0  0  0  0
   37.8674   31.2609   35.4287 H   0  0  0  0  0  0  0  0  0  0  0  0
   38.5534   32.4866   37.4392 H   0  0  0  0  0  0  0  0  0  0  0  0
   42.3286   32.2216   39.2055 H   0  0  0  0  0  0  0  0  0  0  0  0
   43.0859   33.2160   41.2752 H   0  0  0  0  0  0  0  0  0  0  0  0
   44.6311   32.8815   40.4224 H   0  0  0  0  0  0  0  0  0  0  0  0
   43.9465   34.5422   40.4224 H   0  0  0  0  0  0  0  0  0  0  0  0
   43.8792   33.8896   37.3579 H   0  0  0  0  0  0  0  0  0  0  0  0
   44.8788   32.7865   38.4104 H   0  0  0  0  0  0  0  0  0  0  0  0
   41.6127   31.2457   37.9340 H   0  0  0  0  0  0  0  0  0  0  0  0
   43.9129   29.6181   34.7514 H   0  0  0  0  0  0  0  0  0  0  0  0
   45.2065   31.6431   35.7653 H   0  0  0  0  0  0  0  0  0  0  0  0
  2  1  2  0
  3  4  2  0
  3  2  1  0
  4  5  1  0
  5  7  1  0
  5  6  2  0
  6  1  1  0
  7  8  2  0
  8  9  1  0
 10  9  2  0
 11 10  1  0
 12 11  2  0
 13 12  1  0
 14 13  2  0
 14 15  1  0
 15 16  2  0
 16 11  1  0
 16  7  1  0
 17 18  1  0
 17  3  1  0
 18 19  1  0
 20 18  1  0
 21 22  2  0
 21 20  1  0
 23 22  1  0
 24 25  1  0
 24 23  2  0
 25 21  1  0
  1 26  1  0
  2 27  1  0
  9 28  1  0
 12 29  1  0
 13 30  1  0
 14 31  1  0
 15 32  1  0
 18 33  1  1
 19 34  1  0
 19 35  1  0
 19 36  1  0
 20 37  1  0
 20 38  1  0
 22 39  1  0
 24 40  1  0
 25 41  1  0
M  ISO  8  26  14  27  14  28  14  29  14  30  14  31  14  32  14  33   8
M  ISO  8  34   8  35   8  36   8  37   8  38   8  39  14  40  14  41   9
M  END
>  <minimizedAffinity>  (1) 
-5.74953508

>  <minimizedRMSD>  (1) 
1.73356164

$$$$
