
     RDKit          3D

 40 43  0  0  1  0  0  0  0  0999 V2000
   38.9850   35.5250   40.2280 C   0  0  0  0  0  0  0  0  0  0  0  0
   40.3030   35.5700   39.7650 C   0  0  0  0  0  0  0  0  0  0  0  0
   40.8380   34.3620   39.3000 C   0  0  0  0  0  0  0  0  0  0  0  0
   40.0340   33.3050   39.3490 N   0  0  0  0  0  0  0  0  0  0  0  0
   38.7850   33.2320   39.7810 C   0  0  0  0  0  0  0  0  0  0  0  0
   38.3040   34.3870   40.2150 N   0  0  0  0  0  0  0  0  0  0  0  0
   37.8220   32.1470   39.8820 C   0  0  0  0  0  0  0  0  0  0  0  0
   37.2680   31.7540   41.0420 N   0  0  0  0  0  0  0  0  0  0  0  0
   36.3850   30.7640   41.1760 C   0  0  0  0  0  0  0  0  0  0  0  0
   35.9800   30.0790   40.1290 N   0  0  0  0  0  0  0  0  0  0  0  0
   36.4630   30.3770   38.9030 C   0  0  0  0  0  0  0  0  0  0  0  0
   36.0390   29.6590   37.8010 C   0  0  0  0  0  0  0  0  0  0  0  0
   36.5030   29.9370   36.5610 C   0  0  0  0  0  0  0  0  0  0  0  0
   37.4400   30.9840   36.4150 C   0  0  0  0  0  0  0  0  0  0  0  0
   37.8170   31.6560   37.5600 C   0  0  0  0  0  0  0  0  0  0  0  0
   37.3710   31.4030   38.8200 C   0  0  0  0  0  0  0  0  0  0  0  0
   42.0730   34.2310   38.8280 O   0  0  0  0  0  0  0  0  0  0  0  0
   42.9200   33.1160   39.0640 C   0  0  2  0  0  0  0  0  0  0  0  0
   43.5160   33.2950   40.4810 C   0  0  0  0  0  0  0  0  0  0  0  0
   44.0440   33.0940   38.0770 C   0  0  0  0  0  0  0  0  0  0  0  0
   43.9620   31.9610   37.1330 C   0  0  0  0  0  0  0  0  0  0  0  0
   42.7540   31.2940   36.8800 C   0  0  0  0  0  0  0  0  0  0  0  0
   43.2790   29.9780   35.6170 S   0  0  0  0  0  0  0  0  0  0  0  0
   45.0530   30.6510   35.7280 C   0  0  0  0  0  0  0  0  0  0  0  0
   44.9850   31.4920   36.4640 N   0  0  0  0  0  0  0  0  0  0  0  0
   38.5084   36.4413   40.6064 H   0  0  0  0  0  0  0  0  0  0  0  0
   40.8874   36.5019   39.7658 H   0  0  0  0  0  0  0  0  0  0  0  0
   35.9910   30.5176   42.1730 H   0  0  0  0  0  0  0  0  0  0  0  0
   35.3103   28.8459   37.9346 H   0  0  0  0  0  0  0  0  0  0  0  0
   36.1593   29.3622   35.6884 H   0  0  0  0  0  0  0  0  0  0  0  0
   37.8516   31.2522   35.4308 H   0  0  0  0  0  0  0  0  0  0  0  0
   38.5456   32.4717   37.4429 H   0  0  0  0  0  0  0  0  0  0  0  0
   42.3498   32.1801   38.9693 H   0  0  0  0  0  0  0  0  0  0  0  0
   42.7478   33.0643   41.2337 H   0  0  0  0  0  0  0  0  0  0  0  0
   44.3703   32.6138   40.6082 H   0  0  0  0  0  0  0  0  0  0  0  0
   43.8536   34.3342   40.6082 H   0  0  0  0  0  0  0  0  0  0  0  0
   44.0237   34.0314   37.5019 H   0  0  0  0  0  0  0  0  0  0  0  0
   44.9787   32.9809   38.6458 H   0  0  0  0  0  0  0  0  0  0  0  0
   41.7575   31.4849   37.3049 H   0  0  0  0  0  0  0  0  0  0  0  0
   45.9445   30.2950   35.1909 H   0  0  0  0  0  0  0  0  0  0  0  0
  2  1  2  0
  3  4  2  0
  3  2  1  0
  4  5  1  0
  5  7  1  0
  5  6  2  0
  6  1  1  0
  7  8  2  0
  8  9  1  0
 10  9  2  0
 11 10  1  0
 12 11  2  0
 13 12  1  0
 14 13  2  0
 14 15  1  0
 15 16  2  0
 16 11  1  0
 16  7  1  0
 17 18  1  0
 17  3  1  0
 18 19  1  0
 20 18  1  0
 21 20  1  0
 22 21  2  0
 23 24  1  0
 23 22  1  0
 24 25  2  0
 25 21  1  0
  1 26  1  0
  2 27  1  0
  9 28  1  0
 12 29  1  0
 13 30  1  0
 14 31  1  0
 15 32  1  0
 18 33  1  1
 19 34  1  0
 19 35  1  0
 19 36  1  0
 20 37  1  0
 20 38  1  0
 22 39  1  0
 24 40  1  0
M  ISO  8  26  14  27  14  28  14  29  14  30  14  31  14  32  14  33   8
M  ISO  7  34   8  35   8  36   8  37   8  38   8  39  14  40  14
M  END
>  <minimizedAffinity>  (1) 
-5.64578247

>  <minimizedRMSD>  (1) 
1.76862359

$$$$
