
     RDKit          3D

 32 33  0  0  0  0  0  0  0  0999 V2000
   38.7610   27.6360   43.2640 C   0  0  0  0  0  0  0  0  0  0  0  0
   37.4180   27.2220   43.1970 C   0  0  0  0  0  0  0  0  0  0  0  0
   36.4890   28.0140   42.5090 C   0  0  0  0  0  0  0  0  0  0  0  0
   36.9490   29.1550   41.9360 N   0  0  0  0  0  0  0  0  0  0  0  0
   38.2460   29.5340   42.0110 C   0  0  0  0  0  0  0  0  0  0  0  0
   39.1400   28.7840   42.6670 N   0  0  0  0  0  0  0  0  0  0  0  0
   38.5950   30.7600   41.3620 N   0  0  0  0  0  0  0  0  0  0  0  0
   37.6830   31.5470   40.7840 C   0  0  0  0  0  0  0  0  0  0  0  0
   38.1930   32.6850   40.2070 C   0  0  0  0  0  0  0  0  0  0  0  0
   39.5240   33.0320   40.1990 C   0  0  0  0  0  0  0  0  0  0  0  0
   39.9270   34.0850   39.6550 O   0  0  0  0  0  0  0  0  0  0  0  0
   40.3950   32.1920   40.8020 N   0  0  0  0  0  0  0  0  0  0  0  0
   39.9080   31.0610   41.3770 C   0  0  0  0  0  0  0  0  0  0  0  0
   40.7750   30.3110   41.9290 O   0  0  0  0  0  0  0  0  0  0  0  0
   37.2630   33.6370   39.5310 C   0  0  0  0  0  0  0  0  0  0  0  0
   41.7930   32.4900   40.8300 C   0  0  0  0  0  0  0  0  0  0  0  0
   42.4510   32.3680   42.1670 C   0  0  0  0  0  0  0  0  0  0  0  0
   42.4850   31.6920   39.7430 C   0  0  0  0  0  0  0  0  0  0  0  0
   39.5001   27.0245   43.8022 H   0  0  0  0  0  0  0  0  0  0  0  0
   37.1004   26.2860   43.6798 H   0  0  0  0  0  0  0  0  0  0  0  0
   35.4307   27.7229   42.4364 H   0  0  0  0  0  0  0  0  0  0  0  0
   36.6104   31.3035   40.7711 H   0  0  0  0  0  0  0  0  0  0  0  0
   36.7064   34.2068   40.2896 H   0  0  0  0  0  0  0  0  0  0  0  0
   37.8411   34.3305   38.9026 H   0  0  0  0  0  0  0  0  0  0  0  0
   36.5562   33.0753   38.9026 H   0  0  0  0  0  0  0  0  0  0  0  0
   41.8999   33.5650   40.6227 H   0  0  0  0  0  0  0  0  0  0  0  0
   41.7005   32.5071   42.9591 H   0  0  0  0  0  0  0  0  0  0  0  0
   42.9046   31.3705   42.2628 H   0  0  0  0  0  0  0  0  0  0  0  0
   43.2320   33.1366   42.2628 H   0  0  0  0  0  0  0  0  0  0  0  0
   43.1397   30.9370   40.2028 H   0  0  0  0  0  0  0  0  0  0  0  0
   41.7302   31.1915   39.1187 H   0  0  0  0  0  0  0  0  0  0  0  0
   43.0873   32.3683   39.1187 H   0  0  0  0  0  0  0  0  0  0  0  0
  2  1  2  0
  3  2  1  0
  4  5  1  0
  4  3  2  0
  5  6  2  0
  6  1  1  0
  7 13  1  0
  7  5  1  0
  8  7  1  0
  9  8  2  0
 10  9  1  0
 10 12  1  0
 11 10  2  0
 12 16  1  0
 12 13  1  0
 13 14  2  0
 15  9  1  0
 16 17  1  0
 18 16  1  0
  1 19  1  0
  2 20  1  0
  3 21  1  0
  8 22  1  0
 15 23  1  0
 15 24  1  0
 15 25  1  0
 16 26  1  0
 17 27  1  0
 17 28  1  0
 17 29  1  0
 18 30  1  0
 18 31  1  0
 18 32  1  0
M  ISO  8  19  14  20  14  21  14  22  14  23   8  24   8  25   8  26   8
M  ISO  6  27   8  28   8  29   8  30   8  31   8  32   8
M  END
>  <minimizedAffinity>  (1) 
-4.77888393

>  <minimizedRMSD>  (1) 
0.831422687

$$$$
