
     RDKit          3D

 47 51  0  0  1  0  0  0  0  0999 V2000
   38.9440   35.6000   40.1540 C   0  0  0  0  0  0  0  0  0  0  0  0
   40.2850   35.9860   40.3150 C   0  0  0  0  0  0  0  0  0  0  0  0
   41.2070   34.9510   40.5860 C   0  0  0  0  0  0  0  0  0  0  0  0
   40.7070   33.7330   40.6580 N   0  0  0  0  0  0  0  0  0  0  0  0
   39.4660   33.3290   40.5150 C   0  0  0  0  0  0  0  0  0  0  0  0
   38.6110   34.3180   40.2600 N   0  0  0  0  0  0  0  0  0  0  0  0
   38.8160   32.0310   40.5770 C   0  0  0  0  0  0  0  0  0  0  0  0
   38.7320   31.2910   41.7040 N   0  0  0  0  0  0  0  0  0  0  0  0
   38.1510   30.1080   41.7980 C   0  0  0  0  0  0  0  0  0  0  0  0
   37.5840   29.5410   40.7440 N   0  0  0  0  0  0  0  0  0  0  0  0
   37.6010   30.1820   39.5500 C   0  0  0  0  0  0  0  0  0  0  0  0
   37.0150   29.6030   38.4450 C   0  0  0  0  0  0  0  0  0  0  0  0
   37.0140   30.2150   37.2400 C   0  0  0  0  0  0  0  0  0  0  0  0
   37.6360   31.4830   37.1360 C   0  0  0  0  0  0  0  0  0  0  0  0
   38.2010   32.0040   38.2780 C   0  0  0  0  0  0  0  0  0  0  0  0
   38.2180   31.4160   39.4930 C   0  0  0  0  0  0  0  0  0  0  0  0
   42.4870   35.2090   40.7580 O   0  0  0  0  0  0  0  0  0  0  0  0
   43.2080   35.0320   41.9610 C   0  0  2  0  0  0  0  0  0  0  0  0
   42.9460   36.3710   42.7580 C   0  0  0  0  0  0  0  0  0  0  0  0
   44.6650   34.8850   41.7450 C   0  0  0  0  0  0  0  0  0  0  0  0
   45.2320   34.3080   42.9550 N   0  0  0  0  0  0  0  0  0  0  0  0
   46.4920   34.5930   43.4130 C   0  0  0  0  0  0  0  0  0  0  0  0
   46.7010   33.8860   44.5620 N   0  0  0  0  0  0  0  0  0  0  0  0
   45.5670   33.1780   44.7900 C   0  0  0  0  0  0  0  0  0  0  0  0
   44.6910   33.4550   43.7960 N   0  0  0  0  0  0  0  0  0  0  0  0
   45.3570   32.2750   45.9280 C   0  0  0  0  0  0  0  0  0  0  0  0
   46.3570   31.7240   46.7000 C   0  0  0  0  0  0  0  0  0  0  0  0
   45.7400   30.9670   47.6230 N   0  0  0  0  0  0  0  0  0  0  0  0
   44.4010   31.0850   47.3810 C   0  0  0  0  0  0  0  0  0  0  0  0
   44.1390   31.8840   46.3430 N   0  0  0  0  0  0  0  0  0  0  0  0
   38.1732   36.3554   39.9412 H   0  0  0  0  0  0  0  0  0  0  0  0
   40.5998   37.0369   40.2344 H   0  0  0  0  0  0  0  0  0  0  0  0
   38.1381   29.5862   42.7663 H   0  0  0  0  0  0  0  0  0  0  0  0
   36.5361   28.6180   38.5464 H   0  0  0  0  0  0  0  0  0  0  0  0
   36.5437   29.7419   36.3654 H   0  0  0  0  0  0  0  0  0  0  0  0
   37.6664   32.0292   36.1817 H   0  0  0  0  0  0  0  0  0  0  0  0
   38.6825   32.9893   38.1927 H   0  0  0  0  0  0  0  0  0  0  0  0
   42.8845   34.1162   42.4775 H   0  0  0  0  0  0  0  0  0  0  0  0
   42.9857   36.1683   43.8384 H   0  0  0  0  0  0  0  0  0  0  0  0
   43.7164   37.1109   42.4952 H   0  0  0  0  0  0  0  0  0  0  0  0
   41.9535   36.7659   42.4952 H   0  0  0  0  0  0  0  0  0  0  0  0
   44.8523   34.2203   40.8888 H   0  0  0  0  0  0  0  0  0  0  0  0
   45.1246   35.8609   41.5297 H   0  0  0  0  0  0  0  0  0  0  0  0
   47.2117   35.2748   42.9363 H   0  0  0  0  0  0  0  0  0  0  0  0
   47.4406   31.8736   46.5841 H   0  0  0  0  0  0  0  0  0  0  0  0
   43.6253   30.5788   47.9743 H   0  0  0  0  0  0  0  0  0  0  0  0
   43.2209   32.1401   45.9527 H   0  0  0  0  0  0  0  0  0  0  0  0
  1  6  2  0
  1  2  1  0
  2  3  2  0
  3  4  1  0
  3 17  1  0
  5  7  1  0
  5  4  2  0
  6  5  1  0
  7  8  2  0
  8  9  1  0
 10  9  2  0
 11 10  1  0
 12 11  2  0
 13 12  1  0
 14 13  2  0
 14 15  1  0
 15 16  2  0
 16 11  1  0
 16  7  1  0
 17 18  1  0
 18 19  1  0
 20 18  1  0
 20 21  1  0
 21 22  1  0
 21 25  1  0
 22 23  2  0
 23 24  1  0
 24 26  1  0
 25 24  2  0
 26 30  1  0
 26 27  2  0
 27 28  1  0
 29 28  2  0
 30 29  1  0
  1 31  1  0
  2 32  1  0
  9 33  1  0
 12 34  1  0
 13 35  1  0
 14 36  1  0
 15 37  1  0
 18 38  1  1
 19 39  1  0
 19 40  1  0
 19 41  1  0
 20 42  1  0
 20 43  1  0
 22 44  1  0
 27 45  1  0
 29 46  1  0
 30 47  1  0
M  ISO  8  31  14  32  14  33  14  34  14  35  14  36  14  37  14  38   8
M  ISO  8  39   8  40   8  41   8  42   8  43   8  44  14  45  14  46  14
M  ISO  1  47   9
M  END
>  <minimizedAffinity>  (1) 
-6.85229206

>  <minimizedRMSD>  (1) 
0.404011875

$$$$
