
     RDKit          3D

 43 46  0  0  1  0  0  0  0  0999 V2000
   38.7850   35.5140   40.1370 C   0  0  0  0  0  0  0  0  0  0  0  0
   40.1330   35.8770   40.2740 C   0  0  0  0  0  0  0  0  0  0  0  0
   41.0460   34.8260   40.5050 C   0  0  0  0  0  0  0  0  0  0  0  0
   40.5320   33.6130   40.5670 N   0  0  0  0  0  0  0  0  0  0  0  0
   39.2870   33.2250   40.4450 C   0  0  0  0  0  0  0  0  0  0  0  0
   38.4370   34.2330   40.2270 N   0  0  0  0  0  0  0  0  0  0  0  0
   38.6180   31.9380   40.4990 C   0  0  0  0  0  0  0  0  0  0  0  0
   38.4820   31.2140   41.6300 N   0  0  0  0  0  0  0  0  0  0  0  0
   37.8800   30.0370   41.7160 C   0  0  0  0  0  0  0  0  0  0  0  0
   37.3480   29.4700   40.6520 N   0  0  0  0  0  0  0  0  0  0  0  0
   37.4160   30.0950   39.4480 C   0  0  0  0  0  0  0  0  0  0  0  0
   36.8600   29.5080   38.3290 C   0  0  0  0  0  0  0  0  0  0  0  0
   36.9140   30.1110   37.1160 C   0  0  0  0  0  0  0  0  0  0  0  0
   37.5570   31.3670   37.0230 C   0  0  0  0  0  0  0  0  0  0  0  0
   38.0870   31.8910   38.1800 C   0  0  0  0  0  0  0  0  0  0  0  0
   38.0510   31.3160   39.4060 C   0  0  0  0  0  0  0  0  0  0  0  0
   42.3340   35.0670   40.6520 O   0  0  0  0  0  0  0  0  0  0  0  0
   43.0740   34.8900   41.8410 C   0  0  2  0  0  0  0  0  0  0  0  0
   42.9000   36.2670   42.5990 C   0  0  0  0  0  0  0  0  0  0  0  0
   44.5180   34.6680   41.5940 C   0  0  0  0  0  0  0  0  0  0  0  0
   45.1060   34.1940   42.8420 N   0  0  0  0  0  0  0  0  0  0  0  0
   46.2560   34.6700   43.3840 C   0  0  0  0  0  0  0  0  0  0  0  0
   46.5210   34.0230   44.5350 N   0  0  0  0  0  0  0  0  0  0  0  0
   45.5070   33.1270   44.7040 C   0  0  0  0  0  0  0  0  0  0  0  0
   44.6590   33.2500   43.6620 N   0  0  0  0  0  0  0  0  0  0  0  0
   45.3480   32.1660   45.8450 C   0  0  0  0  0  0  0  0  0  0  0  0
   38.0203   36.2838   39.9563 H   0  0  0  0  0  0  0  0  0  0  0  0
   40.4609   36.9247   40.2051 H   0  0  0  0  0  0  0  0  0  0  0  0
   37.8235   29.5262   42.6886 H   0  0  0  0  0  0  0  0  0  0  0  0
   36.3631   28.5312   38.4235 H   0  0  0  0  0  0  0  0  0  0  0  0
   36.4699   29.6363   36.2286 H   0  0  0  0  0  0  0  0  0  0  0  0
   37.6305   31.9031   36.0653 H   0  0  0  0  0  0  0  0  0  0  0  0
   38.5865   32.8679   38.1019 H   0  0  0  0  0  0  0  0  0  0  0  0
   42.7191   34.0074   42.3934 H   0  0  0  0  0  0  0  0  0  0  0  0
   42.9220   36.0931   43.6849 H   0  0  0  0  0  0  0  0  0  0  0  0
   43.7196   36.9454   42.3196 H   0  0  0  0  0  0  0  0  0  0  0  0
   41.9374   36.7203   42.3196 H   0  0  0  0  0  0  0  0  0  0  0  0
   44.6529   33.9140   40.8046 H   0  0  0  0  0  0  0  0  0  0  0  0
   45.0034   35.5986   41.2647 H   0  0  0  0  0  0  0  0  0  0  0  0
   46.8784   35.4654   42.9481 H   0  0  0  0  0  0  0  0  0  0  0  0
   45.4379   32.7093   46.7972 H   0  0  0  0  0  0  0  0  0  0  0  0
   44.3587   31.6886   45.7872 H   0  0  0  0  0  0  0  0  0  0  0  0
   46.1309   31.3954   45.7872 H   0  0  0  0  0  0  0  0  0  0  0  0
  1  6  2  0
  1  2  1  0
  2  3  2  0
  3  4  1  0
  3 17  1  0
  5  7  1  0
  5  4  2  0
  6  5  1  0
  7  8  2  0
  8  9  1  0
 10  9  2  0
 11 10  1  0
 12 11  2  0
 13 12  1  0
 14 13  2  0
 14 15  1  0
 15 16  2  0
 16 11  1  0
 16  7  1  0
 17 18  1  0
 18 19  1  0
 20 18  1  0
 20 21  1  0
 21 22  1  0
 21 25  1  0
 22 23  2  0
 23 24  1  0
 24 26  1  0
 25 24  2  0
  1 27  1  0
  2 28  1  0
  9 29  1  0
 12 30  1  0
 13 31  1  0
 14 32  1  0
 15 33  1  0
 18 34  1  1
 19 35  1  0
 19 36  1  0
 19 37  1  0
 20 38  1  0
 20 39  1  0
 22 40  1  0
 26 41  1  0
 26 42  1  0
 26 43  1  0
M  ISO  8  27  14  28  14  29  14  30  14  31  14  32  14  33  14  34   8
M  ISO  8  35   8  36   8  37   8  38   8  39   8  40  14  41   8  42   8
M  ISO  1  43   8
M  END
>  <minimizedAffinity>  (1) 
-6.014081

>  <minimizedRMSD>  (1) 
0.0193491112

$$$$
