
     RDKit          3D

 41 44  0  0  1  0  0  0  0  0999 V2000
   38.7640   35.5160   40.1300 C   0  0  0  0  0  0  0  0  0  0  0  0
   40.1090   35.8890   40.2620 C   0  0  0  0  0  0  0  0  0  0  0  0
   41.0320   34.8450   40.4910 C   0  0  0  0  0  0  0  0  0  0  0  0
   40.5260   33.6290   40.5550 N   0  0  0  0  0  0  0  0  0  0  0  0
   39.2780   33.2370   40.4370 C   0  0  0  0  0  0  0  0  0  0  0  0
   38.4250   34.2340   40.2230 N   0  0  0  0  0  0  0  0  0  0  0  0
   38.6180   31.9450   40.4940 C   0  0  0  0  0  0  0  0  0  0  0  0
   38.4900   31.2190   41.6260 N   0  0  0  0  0  0  0  0  0  0  0  0
   37.8980   30.0430   41.7170 C   0  0  0  0  0  0  0  0  0  0  0  0
   37.3640   29.4670   40.6520 N   0  0  0  0  0  0  0  0  0  0  0  0
   37.4240   30.0920   39.4510 C   0  0  0  0  0  0  0  0  0  0  0  0
   36.8690   29.4980   38.3340 C   0  0  0  0  0  0  0  0  0  0  0  0
   36.9170   30.1010   37.1200 C   0  0  0  0  0  0  0  0  0  0  0  0
   37.5510   31.3630   37.0210 C   0  0  0  0  0  0  0  0  0  0  0  0
   38.0810   31.8920   38.1780 C   0  0  0  0  0  0  0  0  0  0  0  0
   38.0520   31.3170   39.4050 C   0  0  0  0  0  0  0  0  0  0  0  0
   42.3210   35.0890   40.6330 O   0  0  0  0  0  0  0  0  0  0  0  0
   43.0570   34.9190   41.8320 C   0  0  2  0  0  0  0  0  0  0  0  0
   42.8660   36.2900   42.5870 C   0  0  0  0  0  0  0  0  0  0  0  0
   44.5070   34.7190   41.5780 C   0  0  0  0  0  0  0  0  0  0  0  0
   45.0990   34.2290   42.8170 N   0  0  0  0  0  0  0  0  0  0  0  0
   46.2540   34.6990   43.3610 C   0  0  0  0  0  0  0  0  0  0  0  0
   46.5260   34.0400   44.5030 N   0  0  0  0  0  0  0  0  0  0  0  0
   45.5080   33.1380   44.6630 C   0  0  0  0  0  0  0  0  0  0  0  0
   44.6540   33.2750   43.6230 N   0  0  0  0  0  0  0  0  0  0  0  0
   45.1750   32.1600   45.6130 O   0  0  0  0  0  0  0  0  0  0  0  0
   37.9934   36.2801   39.9504 H   0  0  0  0  0  0  0  0  0  0  0  0
   40.4284   36.9392   40.1910 H   0  0  0  0  0  0  0  0  0  0  0  0
   37.8478   29.5348   42.6913 H   0  0  0  0  0  0  0  0  0  0  0  0
   36.3791   28.5179   38.4309 H   0  0  0  0  0  0  0  0  0  0  0  0
   36.4744   29.6215   36.2345 H   0  0  0  0  0  0  0  0  0  0  0  0
   37.6177   31.8981   36.0622 H   0  0  0  0  0  0  0  0  0  0  0  0
   38.5735   32.8723   38.0982 H   0  0  0  0  0  0  0  0  0  0  0  0
   42.7103   34.0356   42.3882 H   0  0  0  0  0  0  0  0  0  0  0  0
   42.8901   36.1170   43.6730 H   0  0  0  0  0  0  0  0  0  0  0  0
   43.6769   36.9787   42.3073 H   0  0  0  0  0  0  0  0  0  0  0  0
   41.8978   36.7308   42.3073 H   0  0  0  0  0  0  0  0  0  0  0  0
   44.6505   33.9816   40.7745 H   0  0  0  0  0  0  0  0  0  0  0  0
   44.9816   35.6605   41.2645 H   0  0  0  0  0  0  0  0  0  0  0  0
   46.8742   35.4994   42.9312 H   0  0  0  0  0  0  0  0  0  0  0  0
   44.3545   31.6180   45.4987 H   0  0  0  0  0  0  0  0  0  0  0  0
  1  6  2  0
  1  2  1  0
  2  3  2  0
  3  4  1  0
  3 17  1  0
  5  7  1  0
  5  4  2  0
  6  5  1  0
  7  8  2  0
  8  9  1  0
 10  9  2  0
 11 10  1  0
 12 11  2  0
 13 12  1  0
 14 13  2  0
 14 15  1  0
 15 16  2  0
 16 11  1  0
 16  7  1  0
 17 18  1  0
 18 19  1  0
 20 18  1  0
 20 21  1  0
 21 22  1  0
 21 25  1  0
 22 23  2  0
 23 24  1  0
 24 26  1  0
 25 24  2  0
  1 27  1  0
  2 28  1  0
  9 29  1  0
 12 30  1  0
 13 31  1  0
 14 32  1  0
 15 33  1  0
 18 34  1  1
 19 35  1  0
 19 36  1  0
 19 37  1  0
 20 38  1  0
 20 39  1  0
 22 40  1  0
 26 41  1  0
M  ISO  8  27  14  28  14  29  14  30  14  31  14  32  14  33  14  34   8
M  ISO  7  35   8  36   8  37   8  38   8  39   8  40  14  41   3
M  END
>  <minimizedAffinity>  (1) 
-5.99652767

>  <minimizedRMSD>  (1) 
0.0209700167

$$$$
