
     RDKit          3D

 42 45  0  0  1  0  0  0  0  0999 V2000
   38.7850   35.5170   40.1360 C   0  0  0  0  0  0  0  0  0  0  0  0
   40.1350   35.8850   40.2750 C   0  0  0  0  0  0  0  0  0  0  0  0
   41.0500   34.8330   40.5080 C   0  0  0  0  0  0  0  0  0  0  0  0
   40.5350   33.6200   40.5700 N   0  0  0  0  0  0  0  0  0  0  0  0
   39.2920   33.2290   40.4470 C   0  0  0  0  0  0  0  0  0  0  0  0
   38.4410   34.2350   40.2270 N   0  0  0  0  0  0  0  0  0  0  0  0
   38.6280   31.9400   40.5010 C   0  0  0  0  0  0  0  0  0  0  0  0
   38.4960   31.2150   41.6320 N   0  0  0  0  0  0  0  0  0  0  0  0
   37.8960   30.0370   41.7190 C   0  0  0  0  0  0  0  0  0  0  0  0
   37.3630   29.4690   40.6550 N   0  0  0  0  0  0  0  0  0  0  0  0
   37.4260   30.0930   39.4570 C   0  0  0  0  0  0  0  0  0  0  0  0
   36.8690   29.5060   38.3340 C   0  0  0  0  0  0  0  0  0  0  0  0
   36.9200   30.1120   37.1220 C   0  0  0  0  0  0  0  0  0  0  0  0
   37.5590   31.3680   37.0270 C   0  0  0  0  0  0  0  0  0  0  0  0
   38.0910   31.8940   38.1830 C   0  0  0  0  0  0  0  0  0  0  0  0
   38.0590   31.3160   39.4090 C   0  0  0  0  0  0  0  0  0  0  0  0
   42.3360   35.0730   40.6570 O   0  0  0  0  0  0  0  0  0  0  0  0
   43.0730   34.9020   41.8500 C   0  0  2  0  0  0  0  0  0  0  0  0
   42.8890   36.2770   42.6090 C   0  0  0  0  0  0  0  0  0  0  0  0
   44.5200   34.6910   41.6030 C   0  0  0  0  0  0  0  0  0  0  0  0
   45.1050   34.2000   42.8460 N   0  0  0  0  0  0  0  0  0  0  0  0
   46.2460   34.6860   43.4050 C   0  0  0  0  0  0  0  0  0  0  0  0
   46.5150   34.0230   44.5450 N   0  0  0  0  0  0  0  0  0  0  0  0
   45.5130   33.1050   44.6910 C   0  0  0  0  0  0  0  0  0  0  0  0
   44.6700   33.2390   43.6400 N   0  0  0  0  0  0  0  0  0  0  0  0
   45.3030   32.1110   45.7630 C   0  0  0  0  0  0  0  0  0  0  0  0
   44.4610   32.2480   46.6860 O   0  0  0  0  0  0  0  0  0  0  0  0
   38.0182   36.2842   39.9532 H   0  0  0  0  0  0  0  0  0  0  0  0
   40.4610   36.9333   40.2062 H   0  0  0  0  0  0  0  0  0  0  0  0
   37.8417   29.5260   42.6916 H   0  0  0  0  0  0  0  0  0  0  0  0
   36.3747   28.5277   38.4266 H   0  0  0  0  0  0  0  0  0  0  0  0
   36.4749   29.6373   36.2351 H   0  0  0  0  0  0  0  0  0  0  0  0
   37.6288   31.9039   36.0689 H   0  0  0  0  0  0  0  0  0  0  0  0
   38.5873   32.8725   38.1046 H   0  0  0  0  0  0  0  0  0  0  0  0
   42.7214   34.0186   42.4031 H   0  0  0  0  0  0  0  0  0  0  0  0
   42.9124   36.1024   43.6948 H   0  0  0  0  0  0  0  0  0  0  0  0
   43.7035   36.9616   42.3301 H   0  0  0  0  0  0  0  0  0  0  0  0
   41.9231   36.7234   42.3301 H   0  0  0  0  0  0  0  0  0  0  0  0
   44.6611   33.9503   40.8021 H   0  0  0  0  0  0  0  0  0  0  0  0
   45.0023   35.6285   41.2891 H   0  0  0  0  0  0  0  0  0  0  0  0
   46.8576   35.4995   42.9876 H   0  0  0  0  0  0  0  0  0  0  0  0
   45.9183   31.1992   45.7530 H   0  0  0  0  0  0  0  0  0  0  0  0
  1  6  2  0
  1  2  1  0
  2  3  2  0
  3  4  1  0
  3 17  1  0
  5  7  1  0
  5  4  2  0
  6  5  1  0
  7  8  2  0
  8  9  1  0
 10  9  2  0
 11 10  1  0
 12 11  2  0
 13 12  1  0
 14 13  2  0
 14 15  1  0
 15 16  2  0
 16 11  1  0
 16  7  1  0
 17 18  1  0
 18 19  1  0
 20 18  1  0
 20 21  1  0
 21 22  1  0
 21 25  1  0
 22 23  2  0
 23 24  1  0
 24 26  1  0
 25 24  2  0
 26 27  2  0
  1 28  1  0
  2 29  1  0
  9 30  1  0
 12 31  1  0
 13 32  1  0
 14 33  1  0
 15 34  1  0
 18 35  1  1
 19 36  1  0
 19 37  1  0
 19 38  1  0
 20 39  1  0
 20 40  1  0
 22 41  1  0
 26 42  1  0
M  ISO  8  28  14  29  14  30  14  31  14  32  14  33  14  34  14  35   8
M  ISO  7  36   8  37   8  38   8  39   8  40   8  41  14  42   6
M  END
>  <minimizedAffinity>  (1) 
-5.99565458

>  <minimizedRMSD>  (1) 
0.0124536548

$$$$
