
     RDKit          3D

 36 39  0  0  0  0  0  0  0  0999 V2000
   38.6710   27.3170   43.8150 C   0  0  0  0  0  0  0  0  0  0  0  0
   39.1010   26.3450   42.9150 C   0  0  0  0  0  0  0  0  0  0  0  0
   39.0550   26.6620   41.5470 C   0  0  0  0  0  0  0  0  0  0  0  0
   38.5970   27.8860   41.1780 N   0  0  0  0  0  0  0  0  0  0  0  0
   38.1850   28.8070   42.0920 C   0  0  0  0  0  0  0  0  0  0  0  0
   38.2270   28.5090   43.4100 N   0  0  0  0  0  0  0  0  0  0  0  0
   37.7500   30.0070   41.4720 N   0  0  0  0  0  0  0  0  0  0  0  0
   36.4440   30.2010   41.1440 C   0  0  0  0  0  0  0  0  0  0  0  0
   36.2840   31.4030   40.5740 N   0  0  0  0  0  0  0  0  0  0  0  0
   37.4780   31.9930   40.5290 C   0  0  0  0  0  0  0  0  0  0  0  0
   37.9680   33.2130   40.0710 C   0  0  0  0  0  0  0  0  0  0  0  0
   39.2850   33.4890   40.1900 N   0  0  0  0  0  0  0  0  0  0  0  0
   40.1400   32.6210   40.7390 C   0  0  0  0  0  0  0  0  0  0  0  0
   39.6920   31.4120   41.2000 N   0  0  0  0  0  0  0  0  0  0  0  0
   38.3790   31.1080   41.0940 C   0  0  0  0  0  0  0  0  0  0  0  0
   36.9790   34.0610   39.5090 N   0  0  0  0  0  0  0  0  0  0  0  0
   41.5670   32.9020   40.8760 C   0  0  0  0  0  0  0  0  0  0  0  0
   42.4290   32.3430   39.7650 C   0  0  0  0  0  0  0  0  0  0  0  0
   43.7390   33.0760   39.9880 C   0  0  0  0  0  0  0  0  0  0  0  0
   43.4090   34.3040   40.8310 C   0  0  0  0  0  0  0  0  0  0  0  0
   41.8800   34.3950   40.7200 C   0  0  0  0  0  0  0  0  0  0  0  0
   38.6981   27.0958   44.8922 H   0  0  0  0  0  0  0  0  0  0  0  0
   39.4630   25.3660   43.2621 H   0  0  0  0  0  0  0  0  0  0  0  0
   39.3832   25.9339   40.7906 H   0  0  0  0  0  0  0  0  0  0  0  0
   35.6361   29.4758   41.3212 H   0  0  0  0  0  0  0  0  0  0  0  0
   35.9978   33.7506   39.4673 H   0  0  0  0  0  0  0  0  0  0  0  0
   37.2423   34.9870   39.1428 H   0  0  0  0  0  0  0  0  0  0  0  0
   41.7824   32.4651   41.8622 H   0  0  0  0  0  0  0  0  0  0  0  0
   42.0055   32.5720   38.7760 H   0  0  0  0  0  0  0  0  0  0  0  0
   42.5235   31.2472   39.7836 H   0  0  0  0  0  0  0  0  0  0  0  0
   44.4508   32.4288   40.5214 H   0  0  0  0  0  0  0  0  0  0  0  0
   44.2030   33.3619   39.0325 H   0  0  0  0  0  0  0  0  0  0  0  0
   43.7223   34.1626   41.8759 H   0  0  0  0  0  0  0  0  0  0  0  0
   43.9243   35.2149   40.4923 H   0  0  0  0  0  0  0  0  0  0  0  0
   41.4388   34.9999   41.5259 H   0  0  0  0  0  0  0  0  0  0  0  0
   41.4892   34.8785   39.8125 H   0  0  0  0  0  0  0  0  0  0  0  0
  2  1  2  0
  3  2  1  0
  4  3  2  0
  4  5  1  0
  5  6  2  0
  6  1  1  0
  7  5  1  0
  8  7  1  0
  9  8  2  0
 10  9  1  0
 10 15  2  0
 11 12  2  0
 11 10  1  0
 12 13  1  0
 13 17  1  0
 13 14  2  0
 15 14  1  0
 15  7  1  0
 16 11  1  0
 18 19  1  0
 18 17  1  0
 19 20  1  0
 21 20  1  0
 21 17  1  0
  1 22  1  0
  2 23  1  0
  3 24  1  0
  8 25  1  0
 16 26  1  0
 16 27  1  0
 17 28  1  0
 18 29  1  0
 18 30  1  0
 19 31  1  0
 19 32  1  0
 20 33  1  0
 20 34  1  0
 21 35  1  0
 21 36  1  0
M  ISO  8  22  14  23  14  24  14  25  14  28  13  29  13  30  13  31  13
M  ISO  5  32  13  33  13  34  13  35  13  36  13
M  END
>  <minimizedAffinity>  (1) 
-5.89487171

>  <minimizedRMSD>  (1) 
1.25364614

$$$$
