
     RDKit          3D

 29 32  0  0  0  0  0  0  0  0999 V2000
   38.6530   27.3280   43.8310 C   0  0  0  0  0  0  0  0  0  0  0  0
   39.1300   26.3610   42.9190 C   0  0  0  0  0  0  0  0  0  0  0  0
   39.1240   26.6750   41.5450 C   0  0  0  0  0  0  0  0  0  0  0  0
   38.6550   27.9000   41.1900 N   0  0  0  0  0  0  0  0  0  0  0  0
   38.1980   28.8140   42.1010 C   0  0  0  0  0  0  0  0  0  0  0  0
   38.2050   28.5130   43.4080 N   0  0  0  0  0  0  0  0  0  0  0  0
   37.7640   30.0080   41.4730 N   0  0  0  0  0  0  0  0  0  0  0  0
   36.4500   30.1760   41.1140 C   0  0  0  0  0  0  0  0  0  0  0  0
   36.2820   31.3810   40.5360 N   0  0  0  0  0  0  0  0  0  0  0  0
   37.4880   31.9870   40.5220 C   0  0  0  0  0  0  0  0  0  0  0  0
   37.9520   33.2130   40.0690 C   0  0  0  0  0  0  0  0  0  0  0  0
   39.2590   33.4970   40.2190 N   0  0  0  0  0  0  0  0  0  0  0  0
   40.1260   32.6530   40.7870 C   0  0  0  0  0  0  0  0  0  0  0  0
   39.6840   31.4400   41.2400 N   0  0  0  0  0  0  0  0  0  0  0  0
   38.3810   31.1230   41.1040 C   0  0  0  0  0  0  0  0  0  0  0  0
   36.9780   34.0530   39.5030 N   0  0  0  0  0  0  0  0  0  0  0  0
   41.5410   32.9640   40.9480 C   0  0  0  0  0  0  0  0  0  0  0  0
   42.2320   33.8720   40.1190 C   0  0  0  0  0  0  0  0  0  0  0  0
   43.9850   33.8160   40.8510 S   0  0  0  0  0  0  0  0  0  0  0  0
   43.3810   32.5560   42.1380 C   0  0  0  0  0  0  0  0  0  0  0  0
   42.2660   32.4070   41.8940 N   0  0  0  0  0  0  0  0  0  0  0  0
   38.6504   27.1015   44.9074 H   0  0  0  0  0  0  0  0  0  0  0  0
   39.4974   25.3863   43.2724 H   0  0  0  0  0  0  0  0  0  0  0  0
   39.4838   25.9586   40.7918 H   0  0  0  0  0  0  0  0  0  0  0  0
   35.6521   29.4360   41.2745 H   0  0  0  0  0  0  0  0  0  0  0  0
   36.0003   33.7358   39.4360 H   0  0  0  0  0  0  0  0  0  0  0  0
   37.2417   34.9859   39.1551 H   0  0  0  0  0  0  0  0  0  0  0  0
   41.8544   34.4599   39.2694 H   0  0  0  0  0  0  0  0  0  0  0  0
   43.9655   32.0765   42.9370 H   0  0  0  0  0  0  0  0  0  0  0  0
  2  1  2  0
  3  2  1  0
  4  3  2  0
  4  5  1  0
  5  6  2  0
  6  1  1  0
  7  5  1  0
  8  7  1  0
  9  8  2  0
 10  9  1  0
 10 15  2  0
 11 12  2  0
 11 10  1  0
 12 13  1  0
 13 17  1  0
 13 14  2  0
 15 14  1  0
 15  7  1  0
 16 11  1  0
 17 21  1  0
 18 19  1  0
 18 17  2  0
 19 20  1  0
 21 20  2  0
  1 22  1  0
  2 23  1  0
  3 24  1  0
  8 25  1  0
 16 26  1  0
 16 27  1  0
 18 28  1  0
 20 29  1  0
M  ISO  6  22  14  23  14  24  14  25  14  28  14  29  14
M  END
>  <minimizedAffinity>  (1) 
-5.83790302

>  <minimizedRMSD>  (1) 
1.24317181

$$$$
