
     RDKit          3D

 28 31  0  0  0  0  0  0  0  0999 V2000
   38.8850   27.1880   43.8130 C   0  0  0  0  0  0  0  0  0  0  0  0
   39.3410   26.2480   42.8850 C   0  0  0  0  0  0  0  0  0  0  0  0
   39.2490   26.5800   41.5190 C   0  0  0  0  0  0  0  0  0  0  0  0
   38.7250   27.7910   41.1970 N   0  0  0  0  0  0  0  0  0  0  0  0
   38.2950   28.6720   42.1270 C   0  0  0  0  0  0  0  0  0  0  0  0
   38.3740   28.3720   43.4500 N   0  0  0  0  0  0  0  0  0  0  0  0
   37.7890   29.8680   41.5220 N   0  0  0  0  0  0  0  0  0  0  0  0
   36.4670   29.9910   41.2200 C   0  0  0  0  0  0  0  0  0  0  0  0
   36.2350   31.1960   40.6610 N   0  0  0  0  0  0  0  0  0  0  0  0
   37.4060   31.8420   40.6070 C   0  0  0  0  0  0  0  0  0  0  0  0
   37.8290   33.0960   40.1530 C   0  0  0  0  0  0  0  0  0  0  0  0
   39.1290   33.4350   40.2540 N   0  0  0  0  0  0  0  0  0  0  0  0
   40.0350   32.5940   40.7840 C   0  0  0  0  0  0  0  0  0  0  0  0
   39.6650   31.3590   41.2400 N   0  0  0  0  0  0  0  0  0  0  0  0
   38.3590   31.0000   41.1470 C   0  0  0  0  0  0  0  0  0  0  0  0
   36.7980   33.8850   39.6130 N   0  0  0  0  0  0  0  0  0  0  0  0
   41.4410   32.9700   40.8890 C   0  0  0  0  0  0  0  0  0  0  0  0
   42.4720   32.6400   41.6910 N   0  0  0  0  0  0  0  0  0  0  0  0
   43.5350   33.2950   41.3270 O   0  0  0  0  0  0  0  0  0  0  0  0
   43.2810   34.0720   40.2980 C   0  0  0  0  0  0  0  0  0  0  0  0
   41.9800   33.8740   40.0210 N   0  0  0  0  0  0  0  0  0  0  0  0
   38.9481   26.9461   44.8842 H   0  0  0  0  0  0  0  0  0  0  0  0
   39.7571   25.2829   43.2096 H   0  0  0  0  0  0  0  0  0  0  0  0
   39.5899   25.8823   40.7398 H   0  0  0  0  0  0  0  0  0  0  0  0
   35.7023   29.2221   41.4045 H   0  0  0  0  0  0  0  0  0  0  0  0
   35.8337   33.5240   39.5857 H   0  0  0  0  0  0  0  0  0  0  0  0
   37.0071   34.8239   39.2447 H   0  0  0  0  0  0  0  0  0  0  0  0
   43.9815   34.7403   39.7758 H   0  0  0  0  0  0  0  0  0  0  0  0
  2  1  2  0
  3  2  1  0
  4  3  2  0
  4  5  1  0
  5  6  2  0
  6  1  1  0
  7  5  1  0
  8  7  1  0
  9  8  2  0
 10  9  1  0
 10 15  2  0
 11 12  2  0
 11 10  1  0
 12 13  1  0
 13 17  1  0
 13 14  2  0
 15 14  1  0
 15  7  1  0
 16 11  1  0
 17 18  2  0
 19 18  1  0
 20 19  1  0
 21 20  2  0
 21 17  1  0
  1 22  1  0
  2 23  1  0
  3 24  1  0
  8 25  1  0
 16 26  1  0
 16 27  1  0
 20 28  1  0
M  ISO  5  22  14  23  14  24  14  25  14  28  14
M  END
>  <minimizedAffinity>  (1) 
-5.81213474

>  <minimizedRMSD>  (1) 
1.12496471

$$$$
