
     RDKit          3D

 26 28  0  0  0  0  0  0  0  0999 V2000
   38.6210   27.2600   43.8470 C   0  0  0  0  0  0  0  0  0  0  0  0
   39.0660   26.2860   42.9260 C   0  0  0  0  0  0  0  0  0  0  0  0
   39.0500   26.6290   41.5790 C   0  0  0  0  0  0  0  0  0  0  0  0
   38.6160   27.8630   41.2110 N   0  0  0  0  0  0  0  0  0  0  0  0
   38.1960   28.7770   42.1280 C   0  0  0  0  0  0  0  0  0  0  0  0
   38.2080   28.4510   43.4290 N   0  0  0  0  0  0  0  0  0  0  0  0
   37.7890   29.9940   41.5080 N   0  0  0  0  0  0  0  0  0  0  0  0
   36.4900   30.2000   41.1510 C   0  0  0  0  0  0  0  0  0  0  0  0
   36.3530   31.4060   40.5880 N   0  0  0  0  0  0  0  0  0  0  0  0
   37.5620   31.9860   40.5770 C   0  0  0  0  0  0  0  0  0  0  0  0
   38.0760   33.2090   40.1370 C   0  0  0  0  0  0  0  0  0  0  0  0
   39.3910   33.4740   40.2870 N   0  0  0  0  0  0  0  0  0  0  0  0
   40.2230   32.5720   40.8570 C   0  0  0  0  0  0  0  0  0  0  0  0
   39.7600   31.3710   41.2960 N   0  0  0  0  0  0  0  0  0  0  0  0
   38.4440   31.0930   41.1520 C   0  0  0  0  0  0  0  0  0  0  0  0
   37.1180   34.0620   39.5630 N   0  0  0  0  0  0  0  0  0  0  0  0
   41.6440   32.8510   41.0220 C   0  0  0  0  0  0  0  0  0  0  0  0
   42.4360   32.8870   40.0350 O   0  0  0  0  0  0  0  0  0  0  0  0
   42.2050   33.0910   42.2590 O   0  0  0  0  0  0  0  0  0  0  0  0
   38.6165   27.0295   44.9226 H   0  0  0  0  0  0  0  0  0  0  0  0
   39.4111   25.2967   43.2609 H   0  0  0  0  0  0  0  0  0  0  0  0
   39.3854   25.9086   40.8184 H   0  0  0  0  0  0  0  0  0  0  0  0
   35.6729   29.4795   41.3035 H   0  0  0  0  0  0  0  0  0  0  0  0
   36.1350   33.7616   39.4963 H   0  0  0  0  0  0  0  0  0  0  0  0
   37.3988   34.9876   39.2090 H   0  0  0  0  0  0  0  0  0  0  0  0
   43.1743   33.2773   42.3352 H   0  0  0  0  0  0  0  0  0  0  0  0
  2  1  2  0
  3  2  1  0
  4  3  2  0
  4  5  1  0
  5  6  2  0
  6  1  1  0
  7  5  1  0
  8  7  1  0
  9  8  2  0
 10  9  1  0
 10 15  2  0
 11 12  2  0
 11 10  1  0
 12 13  1  0
 13 17  1  0
 13 14  2  0
 15 14  1  0
 15  7  1  0
 16 11  1  0
 17 19  1  0
 18 17  2  0
  1 20  1  0
  2 21  1  0
  3 22  1  0
  8 23  1  0
 16 24  1  0
 16 25  1  0
 19 26  1  0
M  ISO  5  20  14  21  14  22  14  23  14  26   3
M  END
>  <minimizedAffinity>  (1) 
-5.67982101

>  <minimizedRMSD>  (1) 
1.252424

$$$$
