
     RDKit          3D

 24 26  0  0  0  0  0  0  0  0999 V2000
   39.7450   26.2140   43.9170 C   0  0  0  0  0  0  0  0  0  0  0  0
   40.1480   25.3410   42.8930 C   0  0  0  0  0  0  0  0  0  0  0  0
   39.8920   25.7120   41.5700 C   0  0  0  0  0  0  0  0  0  0  0  0
   39.2710   26.8970   41.3600 N   0  0  0  0  0  0  0  0  0  0  0  0
   38.8940   27.7230   42.3560 C   0  0  0  0  0  0  0  0  0  0  0  0
   39.1340   27.3750   43.6390 N   0  0  0  0  0  0  0  0  0  0  0  0
   38.2630   28.9010   41.8690 N   0  0  0  0  0  0  0  0  0  0  0  0
   36.9060   28.9770   41.7430 C   0  0  0  0  0  0  0  0  0  0  0  0
   36.5490   30.1790   41.2660 N   0  0  0  0  0  0  0  0  0  0  0  0
   37.6690   30.8860   41.0820 C   0  0  0  0  0  0  0  0  0  0  0  0
   37.9650   32.1680   40.6220 C   0  0  0  0  0  0  0  0  0  0  0  0
   39.2620   32.5680   40.5650 N   0  0  0  0  0  0  0  0  0  0  0  0
   40.2580   31.7570   40.9400 C   0  0  0  0  0  0  0  0  0  0  0  0
   40.0040   30.4990   41.3940 N   0  0  0  0  0  0  0  0  0  0  0  0
   38.7230   30.0760   41.4610 C   0  0  0  0  0  0  0  0  0  0  0  0
   36.8430   32.9340   40.2540 N   0  0  0  0  0  0  0  0  0  0  0  0
   41.9220   32.3930   40.8210 S   0  0  0  0  0  0  0  0  0  0  0  0
   39.9339   25.9405   44.9656 H   0  0  0  0  0  0  0  0  0  0  0  0
   40.6514   24.3911   43.1260 H   0  0  0  0  0  0  0  0  0  0  0  0
   40.1843   25.0649   40.7298 H   0  0  0  0  0  0  0  0  0  0  0  0
   36.2051   28.1680   41.9964 H   0  0  0  0  0  0  0  0  0  0  0  0
   36.9677   33.8941   39.9025 H   0  0  0  0  0  0  0  0  0  0  0  0
   35.8972   32.5344   40.3362 H   0  0  0  0  0  0  0  0  0  0  0  0
   42.4280   32.5864   42.0793 H   0  0  0  0  0  0  0  0  0  0  0  0
  2  1  2  0
  3  2  1  0
  4  3  2  0
  4  5  1  0
  5  6  2  0
  6  1  1  0
  7  5  1  0
  8  7  1  0
  9  8  2  0
 10  9  1  0
 10 15  2  0
 11 10  1  0
 12 11  2  0
 12 13  1  0
 13 14  2  0
 14 15  1  0
 15  7  1  0
 16 11  1  0
 17 13  1  0
  1 18  1  0
  2 19  1  0
  3 20  1  0
  8 21  1  0
 16 22  1  0
 16 23  1  0
 17 24  1  0
M  ISO  5  18  14  19  14  20  14  21  14  24  11
M  END
>  <minimizedAffinity>  (1) 
-5.05938721

>  <minimizedRMSD>  (1) 
0.123792499

$$$$
