
     RDKit          3D

 11 11  0  0  0  0  0  0  0  0999 V2000
   38.3410   29.2070   43.1700 C   0  0  0  0  0  0  0  0  0  0  0  0
   37.8820   27.9450   43.6190 C   0  0  0  0  0  0  0  0  0  0  0  0
   36.7750   27.3900   42.9470 C   0  0  0  0  0  0  0  0  0  0  0  0
   36.2220   28.0940   41.9200 N   0  0  0  0  0  0  0  0  0  0  0  0
   36.6920   29.2910   41.5290 C   0  0  0  0  0  0  0  0  0  0  0  0
   37.7520   29.8540   42.1490 N   0  0  0  0  0  0  0  0  0  0  0  0
   35.9420   29.7760   40.4670 O   0  0  0  0  0  0  0  0  0  0  0  0
   39.2036   29.6711   43.6705 H   0  0  0  0  0  0  0  0  0  0  0  0
   38.3681   27.4212   44.4553 H   0  0  0  0  0  0  0  0  0  0  0  0
   36.3673   26.4125   43.2442 H   0  0  0  0  0  0  0  0  0  0  0  0
   36.1641   30.6524   40.0636 H   0  0  0  0  0  0  0  0  0  0  0  0
  1  2  2  0
  3  2  1  0
  4  3  2  0
  5  4  1  0
  5  6  2  0
  6  1  1  0
  7  5  1  0
  1  8  1  0
  2  9  1  0
  3 10  1  0
  7 11  1  0
M  ISO  4   8  14   9  14  10  14  11   3
M  END
>  <minimizedAffinity>  (1) 
-2.55880785

>  <minimizedRMSD>  (1) 
0.24098438

$$$$
