
     RDKit          3D

 18 19  0  0  0  0  0  0  0  0999 V2000
   38.7060   28.7200   43.0870 C   0  0  0  0  0  0  0  0  0  0  0  0
   38.0270   27.4760   43.0240 C   0  0  0  0  0  0  0  0  0  0  0  0
   36.8030   27.4480   42.3480 C   0  0  0  0  0  0  0  0  0  0  0  0
   36.3410   28.6080   41.7940 N   0  0  0  0  0  0  0  0  0  0  0  0
   37.0220   29.7730   41.8780 C   0  0  0  0  0  0  0  0  0  0  0  0
   38.2030   29.8260   42.5240 N   0  0  0  0  0  0  0  0  0  0  0  0
   36.3320   30.7810   41.2350 O   0  0  0  0  0  0  0  0  0  0  0  0
   36.8760   31.5900   40.2570 C   0  0  0  0  0  0  0  0  0  0  0  0
   36.9090   31.0120   38.9830 C   0  0  0  0  0  0  0  0  0  0  0  0
   37.4790   31.9350   38.1150 C   0  0  0  0  0  0  0  0  0  0  0  0
   37.7680   33.0280   38.8720 N   0  0  0  0  0  0  0  0  0  0  0  0
   37.4100   32.8160   40.1310 N   0  0  0  0  0  0  0  0  0  0  0  0
   39.6709   28.7776   43.6120 H   0  0  0  0  0  0  0  0  0  0  0  0
   38.4459   26.5708   43.4877 H   0  0  0  0  0  0  0  0  0  0  0  0
   36.2265   26.5149   42.2645 H   0  0  0  0  0  0  0  0  0  0  0  0
   36.5485   30.0075   38.7167 H   0  0  0  0  0  0  0  0  0  0  0  0
   37.6595   31.8082   37.0373 H   0  0  0  0  0  0  0  0  0  0  0  0
   38.2013   33.8931   38.5189 H   0  0  0  0  0  0  0  0  0  0  0  0
  2  1  2  0
  3  2  1  0
  4  5  1  0
  4  3  2  0
  5  6  2  0
  6  1  1  0
  7  5  1  0
  8  7  1  0
  9  8  1  0
 10 11  1  0
 10  9  2  0
 11 12  1  0
 12  8  2  0
  1 13  1  0
  2 14  1  0
  3 15  1  0
  9 16  1  0
 10 17  1  0
 11 18  1  0
M  ISO  6  13  14  14  14  15  14  16  14  17  14  18   9
M  END
>  <minimizedAffinity>  (1) 
-3.96552181

>  <minimizedRMSD>  (1) 
1.12142563

$$$$
