
     RDKit          3D

 14 14  0  0  0  0  0  0  0  0999 V2000
   38.5840   28.8070   43.1020 C   0  0  0  0  0  0  0  0  0  0  0  0
   37.8940   27.5700   42.9670 C   0  0  0  0  0  0  0  0  0  0  0  0
   36.7320   27.5660   42.1870 C   0  0  0  0  0  0  0  0  0  0  0  0
   36.3230   28.7160   41.6050 N   0  0  0  0  0  0  0  0  0  0  0  0
   37.0030   29.8750   41.7540 C   0  0  0  0  0  0  0  0  0  0  0  0
   38.1230   29.9240   42.4940 N   0  0  0  0  0  0  0  0  0  0  0  0
   36.3790   30.8960   41.0630 O   0  0  0  0  0  0  0  0  0  0  0  0
   36.7360   31.0800   39.7060 C   0  0  0  0  0  0  0  0  0  0  0  0
   35.9330   30.3170   38.8580 F   0  0  0  0  0  0  0  0  0  0  0  0
   38.0290   30.6110   39.4830 F   0  0  0  0  0  0  0  0  0  0  0  0
   36.7480   32.4040   39.4010 F   0  0  0  0  0  0  0  0  0  0  0  0
   39.5015   28.8555   43.7068 H   0  0  0  0  0  0  0  0  0  0  0  0
   38.2589   26.6545   43.4556 H   0  0  0  0  0  0  0  0  0  0  0  0
   36.1579   26.6379   42.0489 H   0  0  0  0  0  0  0  0  0  0  0  0
  2  1  2  0
  3  2  1  0
  4  5  1  0
  4  3  2  0
  5  6  2  0
  6  1  1  0
  7  5  1  0
  8  7  1  0
  9  8  1  0
 10  8  1  0
 11  8  1  0
  1 12  1  0
  2 13  1  0
  3 14  1  0
M  ISO  3  12  14  13  14  14  14
M  END
>  <minimizedAffinity>  (1) 
-3.38632464

>  <minimizedRMSD>  (1) 
1.31204796

$$$$
