
     RDKit          3D

 27 29  0  0  0  0  0  0  0  0999 V2000
   36.6320   30.7080   40.2520 C   0  0  0  0  0  0  0  0  0  0  0  0
   36.6670   30.8430   38.8910 N   0  0  0  0  0  0  0  0  0  0  0  0
   37.4310   31.8620   38.5960 O   0  0  0  0  0  0  0  0  0  0  0  0
   37.8790   32.3730   39.7130 C   0  0  0  0  0  0  0  0  0  0  0  0
   37.4010   31.6770   40.7700 N   0  0  0  0  0  0  0  0  0  0  0  0
   38.7470   33.5040   39.7520 N   0  0  0  0  0  0  0  0  0  0  0  0
   38.2680   34.6960   40.1510 C   0  0  0  0  0  0  0  0  0  0  0  0
   39.1420   35.7640   40.1730 C   0  0  0  0  0  0  0  0  0  0  0  0
   40.4400   35.5060   39.7810 C   0  0  0  0  0  0  0  0  0  0  0  0
   41.3650   36.5870   39.7950 N   0  0  0  0  0  0  0  0  0  0  0  0
   40.8960   34.2830   39.3830 N   0  0  0  0  0  0  0  0  0  0  0  0
   40.0100   33.2450   39.3690 C   0  0  0  0  0  0  0  0  0  0  0  0
   40.3990   32.1150   39.0090 O   0  0  0  0  0  0  0  0  0  0  0  0
   35.9600   29.7750   41.0330 O   0  0  0  0  0  0  0  0  0  0  0  0
   37.9550   28.0480   43.5320 C   0  0  0  0  0  0  0  0  0  0  0  0
   38.0070   26.7640   42.9440 C   0  0  0  0  0  0  0  0  0  0  0  0
   37.3360   26.6070   41.7180 C   0  0  0  0  0  0  0  0  0  0  0  0
   36.6840   27.6740   41.1640 N   0  0  0  0  0  0  0  0  0  0  0  0
   36.6740   28.8720   41.7800 C   0  0  0  0  0  0  0  0  0  0  0  0
   37.3080   29.0620   42.9600 N   0  0  0  0  0  0  0  0  0  0  0  0
   37.2160   34.8154   40.4495 H   0  0  0  0  0  0  0  0  0  0  0  0
   38.8209   36.7683   40.4865 H   0  0  0  0  0  0  0  0  0  0  0  0
   42.3423   36.4323   39.5090 H   0  0  0  0  0  0  0  0  0  0  0  0
   41.0573   37.5243   40.0911 H   0  0  0  0  0  0  0  0  0  0  0  0
   38.4649   28.2152   44.4922 H   0  0  0  0  0  0  0  0  0  0  0  0
   38.5443   25.9307   43.4204 H   0  0  0  0  0  0  0  0  0  0  0  0
   37.3356   25.6324   41.2080 H   0  0  0  0  0  0  0  0  0  0  0  0
  1  5  1  0
  1 14  1  0
  2  1  2  0
  3  2  1  0
  3  4  1  0
  4  6  1  0
  4  5  2  0
  6  7  1  0
  7  8  2  0
  9 10  1  0
  9  8  1  0
 11  9  2  0
 12 11  1  0
 12  6  1  0
 13 12  2  0
 14 19  1  0
 16 15  2  0
 17 16  1  0
 18 17  2  0
 18 19  1  0
 19 20  2  0
 20 15  1  0
  7 21  1  0
  8 22  1  0
 10 23  1  0
 10 24  1  0
 15 25  1  0
 16 26  1  0
 17 27  1  0
M  ISO  5  21  14  22  14  25  14  26  14  27  14
M  END
>  <minimizedAffinity>  (1) 
-5.95959473

>  <minimizedRMSD>  (1) 
1.32323289

$$$$
