
     RDKit          3D

 23 24  0  0  0  0  0  0  0  0999 V2000
   36.5650   30.8780   40.4590 C   0  0  0  0  0  0  0  0  0  0  0  0
   36.5040   30.6770   39.1200 N   0  0  0  0  0  0  0  0  0  0  0  0
   36.9780   31.7350   38.4990 O   0  0  0  0  0  0  0  0  0  0  0  0
   37.3330   32.5900   39.4410 C   0  0  0  0  0  0  0  0  0  0  0  0
   37.0960   32.1020   40.6660 N   0  0  0  0  0  0  0  0  0  0  0  0
   37.8960   33.8660   39.1600 N   0  0  0  0  0  0  0  0  0  0  0  0
   38.5330   34.5800   40.1900 C   0  0  0  0  0  0  0  0  0  0  0  0
   38.7580   34.1160   41.3660 N   0  0  0  0  0  0  0  0  0  0  0  0
   38.9580   35.9080   39.9130 N   0  0  0  0  0  0  0  0  0  0  0  0
   39.2300   34.6570   42.1140 H   0  0  0  0  0  0  0  0  0  0  0  0
   36.1830   30.0510   41.5190 O   0  0  0  0  0  0  0  0  0  0  0  0
   39.1850   28.5880   42.9920 C   0  0  0  0  0  0  0  0  0  0  0  0
   38.6830   27.2990   43.2880 C   0  0  0  0  0  0  0  0  0  0  0  0
   37.3410   27.0390   42.9530 C   0  0  0  0  0  0  0  0  0  0  0  0
   36.6090   28.0330   42.3690 N   0  0  0  0  0  0  0  0  0  0  0  0
   37.1290   29.2300   42.1110 C   0  0  0  0  0  0  0  0  0  0  0  0
   38.4200   29.5230   42.4170 N   0  0  0  0  0  0  0  0  0  0  0  0
   37.8375   34.2628   38.2113 H   0  0  0  0  0  0  0  0  0  0  0  0
   39.4282   36.4612   40.6436 H   0  0  0  0  0  0  0  0  0  0  0  0
   38.7957   36.3170   38.9817 H   0  0  0  0  0  0  0  0  0  0  0  0
   40.2295   28.8274   43.2406 H   0  0  0  0  0  0  0  0  0  0  0  0
   39.3149   26.5323   43.7601 H   0  0  0  0  0  0  0  0  0  0  0  0
   36.8913   26.0561   43.1572 H   0  0  0  0  0  0  0  0  0  0  0  0
  1  5  1  0
  1 11  1  0
  2  1  2  0
  3  2  1  0
  3  4  1  0
  4  5  2  0
  6  4  1  0
  6  7  1  0
  7  8  2  0
  8 10  1  0
  9  7  1  0
 11 16  1  0
 12 13  2  0
 14 13  1  0
 15 14  2  0
 16 15  1  0
 16 17  2  0
 17 12  1  0
  6 18  1  0
  9 19  1  0
  9 20  1  0
 12 21  1  0
 13 22  1  0
 14 23  1  0
M  ISO  3  21  14  22  14  23  14
M  END
>  <minimizedAffinity>  (1) 
-5.69459105

>  <minimizedRMSD>  (1) 
0.455872625

$$$$
