
     RDKit          3D

 23 25  0  0  0  0  0  0  0  0999 V2000
   36.1620   30.4070   41.1470 O   0  0  0  0  0  0  0  0  0  0  0  0
   38.4460   28.5020   43.2380 C   0  0  0  0  0  0  0  0  0  0  0  0
   38.0000   27.2000   42.9380 C   0  0  0  0  0  0  0  0  0  0  0  0
   36.9300   27.0790   42.0240 C   0  0  0  0  0  0  0  0  0  0  0  0
   36.3960   28.2270   41.4900 N   0  0  0  0  0  0  0  0  0  0  0  0
   36.8600   29.4300   41.8120 C   0  0  0  0  0  0  0  0  0  0  0  0
   37.8860   29.5770   42.6860 N   0  0  0  0  0  0  0  0  0  0  0  0
   36.8360   31.3250   40.3410 C   0  0  0  0  0  0  0  0  0  0  0  0
   36.8530   31.4510   38.9930 N   0  0  0  0  0  0  0  0  0  0  0  0
   37.6330   32.4670   38.6840 O   0  0  0  0  0  0  0  0  0  0  0  0
   38.0890   32.9600   39.7970 C   0  0  0  0  0  0  0  0  0  0  0  0
   37.6190   32.2820   40.8460 N   0  0  0  0  0  0  0  0  0  0  0  0
   38.9870   34.0970   39.8550 C   0  0  0  0  0  0  0  0  0  0  0  0
   38.7460   35.3850   40.1490 C   0  0  0  0  0  0  0  0  0  0  0  0
   39.7380   36.2980   40.1450 C   0  0  0  0  0  0  0  0  0  0  0  0
   41.0220   35.8130   39.8180 C   0  0  0  0  0  0  0  0  0  0  0  0
   40.7380   33.9840   39.5160 S   0  0  0  0  0  0  0  0  0  0  0  0
   39.2776   28.6342   43.9458 H   0  0  0  0  0  0  0  0  0  0  0  0
   38.4654   26.3149   43.3962 H   0  0  0  0  0  0  0  0  0  0  0  0
   36.5342   26.0909   41.7467 H   0  0  0  0  0  0  0  0  0  0  0  0
   37.7219   35.7004   40.3973 H   0  0  0  0  0  0  0  0  0  0  0  0
   39.5573   37.3568   40.3823 H   0  0  0  0  0  0  0  0  0  0  0  0
   41.9658   36.3745   39.7551 H   0  0  0  0  0  0  0  0  0  0  0  0
  1  6  1  0
  3  2  2  0
  4  3  1  0
  5  6  1  0
  5  4  2  0
  6  7  2  0
  7  2  1  0
  8 12  1  0
  8  1  1  0
  9  8  2  0
 10  9  1  0
 10 11  1  0
 11 13  1  0
 11 12  2  0
 13 14  2  0
 15 14  1  0
 16 15  2  0
 17 16  1  0
 17 13  1  0
  2 18  1  0
  3 19  1  0
  4 20  1  0
 14 21  1  0
 15 22  1  0
 16 23  1  0
M  ISO  6  18  14  19  14  20  14  21  14  22  14  23  14
M  END
>  <minimizedAffinity>  (1) 
-5.03306818

>  <minimizedRMSD>  (1) 
1.21829641

$$$$
