
     RDKit          3D

 30 32  0  0  1  0  0  0  0  0999 V2000
   38.5040   28.5350   43.0260 C   0  0  0  0  0  0  0  0  0  0  0  0
   39.3240   29.5030   42.5630 N   0  0  0  0  0  0  0  0  0  0  0  0
   38.6160   30.3470   41.8450 O   0  0  0  0  0  0  0  0  0  0  0  0
   37.3690   29.9320   41.8450 C   0  0  0  0  0  0  0  0  0  0  0  0
   37.2760   28.8060   42.5740 N   0  0  0  0  0  0  0  0  0  0  0  0
   36.2950   30.6710   41.1150 C   0  0  1  0  0  0  0  0  0  0  0  0
   36.8040   31.7630   40.2550 C   0  0  0  0  0  0  0  0  0  0  0  0
   37.0660   31.4250   38.8260 C   0  0  0  0  0  0  0  0  0  0  0  0
   37.1020   29.9970   38.4430 C   0  0  0  0  0  0  0  0  0  0  0  0
   36.1950   29.0770   39.1970 C   0  0  0  0  0  0  0  0  0  0  0  0
   35.4320   29.7510   40.3020 C   0  0  0  0  0  0  0  0  0  0  0  0
   38.7760   27.4260   43.8240 O   0  0  0  0  0  0  0  0  0  0  0  0
   42.2160   26.2710   44.1010 C   0  0  0  0  0  0  0  0  0  0  0  0
   42.1850   25.2320   43.1500 C   0  0  0  0  0  0  0  0  0  0  0  0
   40.9660   25.0100   42.4800 C   0  0  0  0  0  0  0  0  0  0  0  0
   39.9060   25.8050   42.7930 N   0  0  0  0  0  0  0  0  0  0  0  0
   39.9880   26.7770   43.7020 C   0  0  0  0  0  0  0  0  0  0  0  0
   41.1360   27.0150   44.3590 N   0  0  0  0  0  0  0  0  0  0  0  0
   35.6864   31.1327   41.9065 H   0  0  0  0  0  0  0  0  0  0  0  0
   36.9804   32.7742   40.6504 H   0  0  0  0  0  0  0  0  0  0  0  0
   37.2278   32.2154   38.0783 H   0  0  0  0  0  0  0  0  0  0  0  0
   36.8342   29.9305   37.3782 H   0  0  0  0  0  0  0  0  0  0  0  0
   38.1211   29.6588   38.6820 H   0  0  0  0  0  0  0  0  0  0  0  0
   35.4720   28.6453   38.4892 H   0  0  0  0  0  0  0  0  0  0  0  0
   36.8314   28.3124   39.6664 H   0  0  0  0  0  0  0  0  0  0  0  0
   34.6118   30.3353   39.8595 H   0  0  0  0  0  0  0  0  0  0  0  0
   35.0520   28.9671   40.9736 H   0  0  0  0  0  0  0  0  0  0  0  0
   43.1508   26.4747   44.6438 H   0  0  0  0  0  0  0  0  0  0  0  0
   43.0747   24.6203   42.9397 H   0  0  0  0  0  0  0  0  0  0  0  0
   40.8730   24.2159   41.7245 H   0  0  0  0  0  0  0  0  0  0  0  0
  1 12  1  0
  2  1  2  0
  3  2  1  0
  4  3  1  0
  4  5  2  0
  5  1  1  0
  6  4  1  0
  7  6  1  0
  8  7  2  0
  9  8  1  0
  9 10  1  0
 10 11  1  0
 11  6  1  0
 13 18  2  0
 14 13  1  0
 15 16  1  0
 15 14  2  0
 16 17  2  0
 17 12  1  0
 17 18  1  0
  6 19  1  1
  7 20  1  0
  8 21  1  0
  9 22  1  0
  9 23  1  0
 10 24  1  0
 10 25  1  0
 11 26  1  0
 11 27  1  0
 13 28  1  0
 14 29  1  0
 15 30  1  0
M  ISO  8  19  13  20  13  21  13  22  13  23  13  24  13  25  13  26  13
M  ISO  4  27  13  28  14  29  14  30  14
M  END
>  <minimizedAffinity>  (1) 
-5.03027391

>  <minimizedRMSD>  (1) 
4.72846842

$$$$
