
     RDKit          3D

 31 33  0  0  0  0  0  0  0  0999 V2000
   37.0770   31.5820   40.5000 C   0  0  0  0  0  0  0  0  0  0  0  0
   36.9190   31.5800   39.1470 N   0  0  0  0  0  0  0  0  0  0  0  0
   37.7290   32.4760   38.6330 O   0  0  0  0  0  0  0  0  0  0  0  0
   38.3790   33.0270   39.6210 C   0  0  0  0  0  0  0  0  0  0  0  0
   38.0110   32.5080   40.7980 N   0  0  0  0  0  0  0  0  0  0  0  0
   39.3640   34.0520   39.5420 N   0  0  0  0  0  0  0  0  0  0  0  0
   40.7310   33.8540   39.0950 C   0  0  0  0  0  0  0  0  0  0  0  0
   41.6620   34.9100   39.5780 C   0  0  0  0  0  0  0  0  0  0  0  0
   41.3530   35.4840   40.9180 C   0  0  0  0  0  0  0  0  0  0  0  0
   39.8800   35.6120   41.2240 C   0  0  0  0  0  0  0  0  0  0  0  0
   39.1360   35.4410   39.9020 C   0  0  0  0  0  0  0  0  0  0  0  0
   36.4410   30.8120   41.4640 O   0  0  0  0  0  0  0  0  0  0  0  0
   38.6480   28.4880   43.1880 C   0  0  0  0  0  0  0  0  0  0  0  0
   38.0120   27.2770   42.8450 C   0  0  0  0  0  0  0  0  0  0  0  0
   36.8540   27.3580   42.0330 C   0  0  0  0  0  0  0  0  0  0  0  0
   36.4320   28.5920   41.6390 N   0  0  0  0  0  0  0  0  0  0  0  0
   37.0680   29.7100   41.9900 C   0  0  0  0  0  0  0  0  0  0  0  0
   38.1790   29.6660   42.7660 N   0  0  0  0  0  0  0  0  0  0  0  0
   41.0832   32.8803   39.4663 H   0  0  0  0  0  0  0  0  0  0  0  0
   40.7264   33.8985   37.9959 H   0  0  0  0  0  0  0  0  0  0  0  0
   42.6716   34.4755   39.6217 H   0  0  0  0  0  0  0  0  0  0  0  0
   41.5636   35.7430   38.8664 H   0  0  0  0  0  0  0  0  0  0  0  0
   41.8067   34.8353   41.6818 H   0  0  0  0  0  0  0  0  0  0  0  0
   41.7612   36.5054   40.9206 H   0  0  0  0  0  0  0  0  0  0  0  0
   39.5721   34.8312   41.9351 H   0  0  0  0  0  0  0  0  0  0  0  0
   39.6557   36.5882   41.6786 H   0  0  0  0  0  0  0  0  0  0  0  0
   39.5442   36.1150   39.1345 H   0  0  0  0  0  0  0  0  0  0  0  0
   38.0666   35.6846   39.9857 H   0  0  0  0  0  0  0  0  0  0  0  0
   39.5502   28.4624   43.8169 H   0  0  0  0  0  0  0  0  0  0  0  0
   38.3995   26.3084   43.1939 H   0  0  0  0  0  0  0  0  0  0  0  0
   36.3112   26.4507   41.7294 H   0  0  0  0  0  0  0  0  0  0  0  0
  1  5  1  0
  1 12  1  0
  2  1  2  0
  3  2  1  0
  3  4  1  0
  4  5  2  0
  6  4  1  0
  6 11  1  0
  7  6  1  0
  7  8  1  0
  8  9  1  0
  9 10  1  0
 11 10  1  0
 12 17  1  0
 14 13  2  0
 15 14  1  0
 16 17  1  0
 16 15  2  0
 17 18  2  0
 18 13  1  0
  7 19  1  0
  7 20  1  0
  8 21  1  0
  8 22  1  0
  9 23  1  0
  9 24  1  0
 10 25  1  0
 10 26  1  0
 11 27  1  0
 11 28  1  0
 13 29  1  0
 14 30  1  0
 15 31  1  0
M  ISO  8  19  13  20  13  21  13  22  13  23  13  24  13  25  13  26  13
M  ISO  5  27  13  28  13  29  14  30  14  31  14
M  END
>  <minimizedAffinity>  (1) 
-4.97812557

>  <minimizedRMSD>  (1) 
1.37507296

$$$$
