
     RDKit          3D

 26 28  0  0  0  0  0  0  0  0999 V2000
   38.7070   31.7280   40.1550 C   0  0  0  0  0  0  0  0  0  0  0  0
   39.4930   30.9350   39.3580 N   0  0  0  0  0  0  0  0  0  0  0  0
   38.6990   30.1680   38.6240 O   0  0  0  0  0  0  0  0  0  0  0  0
   37.4750   30.4680   38.9470 C   0  0  0  0  0  0  0  0  0  0  0  0
   37.4280   31.4230   39.8830 N   0  0  0  0  0  0  0  0  0  0  0  0
   36.2930   29.8410   38.3580 C   0  0  0  0  0  0  0  0  0  0  0  0
   36.1860   29.6160   37.0010 C   0  0  0  0  0  0  0  0  0  0  0  0
   35.0540   29.0190   36.4660 C   0  0  0  0  0  0  0  0  0  0  0  0
   34.0000   28.6340   37.2880 C   0  0  0  0  0  0  0  0  0  0  0  0
   34.0820   28.8490   38.6660 C   0  0  0  0  0  0  0  0  0  0  0  0
   35.2190   29.4380   39.1270 C   0  0  0  0  0  0  0  0  0  0  0  0
   39.0730   32.6910   41.0910 O   0  0  0  0  0  0  0  0  0  0  0  0
   39.1980   36.1690   39.9960 C   0  0  0  0  0  0  0  0  0  0  0  0
   40.5920   36.2900   39.8130 C   0  0  0  0  0  0  0  0  0  0  0  0
   41.3900   35.1440   40.0870 C   0  0  0  0  0  0  0  0  0  0  0  0
   40.7580   34.0090   40.5060 N   0  0  0  0  0  0  0  0  0  0  0  0
   39.4390   33.9500   40.6620 C   0  0  0  0  0  0  0  0  0  0  0  0
   38.6460   35.0170   40.4120 N   0  0  0  0  0  0  0  0  0  0  0  0
   37.0090   29.9139   36.3347 H   0  0  0  0  0  0  0  0  0  0  0  0
   34.9892   28.8484   35.3812 H   0  0  0  0  0  0  0  0  0  0  0  0
   33.1057   28.1622   36.8549 H   0  0  0  0  0  0  0  0  0  0  0  0
   33.2675   28.5566   39.3451 H   0  0  0  0  0  0  0  0  0  0  0  0
   35.2889   29.6087   40.2114 H   0  0  0  0  0  0  0  0  0  0  0  0
   38.5505   37.0350   39.7940 H   0  0  0  0  0  0  0  0  0  0  0  0
   41.0440   37.2331   39.4720 H   0  0  0  0  0  0  0  0  0  0  0  0
   42.4828   35.1720   39.9649 H   0  0  0  0  0  0  0  0  0  0  0  0
  1 12  1  0
  2  1  2  0
  3  4  1  0
  3  2  1  0
  4  5  2  0
  5  1  1  0
  6  4  1  0
  6 11  1  0
  7  6  2  0
  8  7  1  0
  8  9  2  0
  9 10  1  0
 10 11  2  0
 13 18  2  0
 14 13  1  0
 14 15  2  0
 15 16  1  0
 16 17  2  0
 17 12  1  0
 18 17  1  0
  7 19  1  0
  8 20  1  0
  9 21  1  0
 10 22  1  0
 11 23  1  0
 13 24  1  0
 14 25  1  0
 15 26  1  0
M  ISO  8  19  14  20  14  21  14  22  14  23  14  24  14  25  14  26  14
M  END
>  <minimizedAffinity>  (1) 
-4.81463242

>  <minimizedRMSD>  (1) 
6.35609055

$$$$
