
     RDKit          3D

 18 19  0  0  0  0  0  0  0  0999 V2000
   38.6840   28.8550   43.1020 C   0  0  0  0  0  0  0  0  0  0  0  0
   38.2130   27.5590   43.3540 C   0  0  0  0  0  0  0  0  0  0  0  0
   36.9760   27.2010   42.7690 C   0  0  0  0  0  0  0  0  0  0  0  0
   36.3120   28.1270   41.9960 N   0  0  0  0  0  0  0  0  0  0  0  0
   36.8230   29.3460   41.7980 C   0  0  0  0  0  0  0  0  0  0  0  0
   38.0060   29.7140   42.3480 N   0  0  0  0  0  0  0  0  0  0  0  0
   35.9830   30.0780   41.0020 O   0  0  0  0  0  0  0  0  0  0  0  0
   36.5090   30.9840   40.0830 C   0  0  0  0  0  0  0  0  0  0  0  0
   36.7410   30.8260   38.7480 N   0  0  0  0  0  0  0  0  0  0  0  0
   37.2480   31.9550   38.2840 O   0  0  0  0  0  0  0  0  0  0  0  0
   37.3310   32.7940   39.2920 C   0  0  0  0  0  0  0  0  0  0  0  0
   36.8810   32.2280   40.4260 N   0  0  0  0  0  0  0  0  0  0  0  0
   37.8120   34.1520   39.3290 N   0  0  0  0  0  0  0  0  0  0  0  0
   39.6422   29.1700   43.5409 H   0  0  0  0  0  0  0  0  0  0  0  0
   38.7797   26.8525   43.9783 H   0  0  0  0  0  0  0  0  0  0  0  0
   36.5513   26.1990   42.9290 H   0  0  0  0  0  0  0  0  0  0  0  0
   37.8078   34.6758   40.2158 H   0  0  0  0  0  0  0  0  0  0  0  0
   38.1599   34.5987   38.4686 H   0  0  0  0  0  0  0  0  0  0  0  0
  1  2  2  0
  3  2  1  0
  4  3  2  0
  5  4  1  0
  5  6  2  0
  6  1  1  0
  7  5  1  0
  8 12  1  0
  8  7  1  0
  9  8  2  0
 10  9  1  0
 10 11  1  0
 11 13  1  0
 11 12  2  0
  1 14  1  0
  2 15  1  0
  3 16  1  0
 13 17  1  0
 13 18  1  0
M  ISO  3  14  14  15  14  16  14
M  END
>  <minimizedAffinity>  (1) 
-4.15531778

>  <minimizedRMSD>  (1) 
0.207877859

$$$$
