
     RDKit          3D

 37 41  0  0  0  0  0  0  0  0999 V2000
   39.0450   28.5490   43.1510 C   0  0  0  0  0  0  0  0  0  0  0  0
   38.6770   27.3220   42.5720 C   0  0  0  0  0  0  0  0  0  0  0  0
   37.6040   27.2900   41.6470 C   0  0  0  0  0  0  0  0  0  0  0  0
   37.0480   28.4800   41.4290 N   0  0  0  0  0  0  0  0  0  0  0  0
   37.3870   29.6330   41.9670 C   0  0  0  0  0  0  0  0  0  0  0  0
   38.3930   29.6670   42.8350 N   0  0  0  0  0  0  0  0  0  0  0  0
   37.3230   25.9840   41.1260 C   0  0  0  0  0  0  0  0  0  0  0  0
   37.6940   24.8630   41.7720 N   0  0  0  0  0  0  0  0  0  0  0  0
   37.4750   23.6200   41.3590 C   0  0  0  0  0  0  0  0  0  0  0  0
   36.8240   23.3750   40.1950 N   0  0  0  0  0  0  0  0  0  0  0  0
   36.3990   24.4300   39.4530 C   0  0  0  0  0  0  0  0  0  0  0  0
   35.7410   24.2090   38.2760 C   0  0  0  0  0  0  0  0  0  0  0  0
   35.3030   25.2650   37.5080 C   0  0  0  0  0  0  0  0  0  0  0  0
   35.5580   26.5400   37.9830 C   0  0  0  0  0  0  0  0  0  0  0  0
   36.2210   26.7010   39.1690 C   0  0  0  0  0  0  0  0  0  0  0  0
   36.6730   25.6690   39.9610 C   0  0  0  0  0  0  0  0  0  0  0  0
   36.5780   30.6520   41.4910 O   0  0  0  0  0  0  0  0  0  0  0  0
   37.1200   31.6050   40.6300 C   0  0  0  0  0  0  0  0  0  0  0  0
   36.8240   31.8430   39.3340 N   0  0  0  0  0  0  0  0  0  0  0  0
   37.5740   32.8320   38.9040 O   0  0  0  0  0  0  0  0  0  0  0  0
   38.3250   33.2120   39.9020 C   0  0  0  0  0  0  0  0  0  0  0  0
   38.0710   32.4770   40.9790 N   0  0  0  0  0  0  0  0  0  0  0  0
   39.3010   34.2940   39.8240 C   0  0  0  0  0  0  0  0  0  0  0  0
   39.0760   35.6230   40.1920 C   0  0  0  0  0  0  0  0  0  0  0  0
   40.2350   36.3550   39.9770 C   0  0  0  0  0  0  0  0  0  0  0  0
   41.1370   35.4060   39.4740 C   0  0  0  0  0  0  0  0  0  0  0  0
   40.5380   34.2580   39.4140 O   0  0  0  0  0  0  0  0  0  0  0  0
   39.8769   28.5863   43.8698 H   0  0  0  0  0  0  0  0  0  0  0  0
   39.2149   26.3988   42.8336 H   0  0  0  0  0  0  0  0  0  0  0  0
   37.8271   22.7762   41.9706 H   0  0  0  0  0  0  0  0  0  0  0  0
   35.5594   23.1779   37.9387 H   0  0  0  0  0  0  0  0  0  0  0  0
   34.7732   25.1022   36.5578 H   0  0  0  0  0  0  0  0  0  0  0  0
   35.2292   27.4194   37.4098 H   0  0  0  0  0  0  0  0  0  0  0  0
   36.4063   27.7287   39.5148 H   0  0  0  0  0  0  0  0  0  0  0  0
   38.1317   36.0245   40.5885 H   0  0  0  0  0  0  0  0  0  0  0  0
   40.4060   37.4264   40.1582 H   0  0  0  0  0  0  0  0  0  0  0  0
   42.1784   35.6029   39.1797 H   0  0  0  0  0  0  0  0  0  0  0  0
  2  1  2  0
  3  2  1  0
  4  3  2  0
  4  5  1  0
  5  6  2  0
  6  1  1  0
  7  3  1  0
  7  8  2  0
  9  8  1  0
 10  9  2  0
 11 16  2  0
 11 10  1  0
 12 11  1  0
 13 14  1  0
 13 12  2  0
 14 15  2  0
 15 16  1  0
 16  7  1  0
 17  5  1  0
 18 22  1  0
 18 17  1  0
 19 18  2  0
 20 19  1  0
 20 21  1  0
 21 22  2  0
 23 21  1  0
 23 24  2  0
 25 24  1  0
 26 25  2  0
 27 26  1  0
 27 23  1  0
  1 28  1  0
  2 29  1  0
  9 30  1  0
 12 31  1  0
 13 32  1  0
 14 33  1  0
 15 34  1  0
 24 35  1  0
 25 36  1  0
 26 37  1  0
M  ISO  8  28  14  29  14  30  14  31  14  32  14  33  14  34  14  35  14
M  ISO  2  36  14  37  14
M  END
>  <minimizedAffinity>  (1) 
-6.53693724

>  <minimizedRMSD>  (1) 
0.906172991

$$$$
