
     RDKit          3D

 33 36  0  0  0  0  0  0  0  0999 V2000
   38.6360   28.4450   43.2430 C   0  0  0  0  0  0  0  0  0  0  0  0
   38.3070   27.2310   42.6120 C   0  0  0  0  0  0  0  0  0  0  0  0
   37.3420   27.2350   41.5900 C   0  0  0  0  0  0  0  0  0  0  0  0
   36.7780   28.4230   41.2700 N   0  0  0  0  0  0  0  0  0  0  0  0
   37.1100   29.5680   41.8890 C   0  0  0  0  0  0  0  0  0  0  0  0
   38.0240   29.5690   42.8580 N   0  0  0  0  0  0  0  0  0  0  0  0
   36.9390   26.0250   40.8810 C   0  0  0  0  0  0  0  0  0  0  0  0
   36.5260   26.1970   39.5760 C   0  0  0  0  0  0  0  0  0  0  0  0
   36.1260   25.1070   38.8270 C   0  0  0  0  0  0  0  0  0  0  0  0
   36.1550   23.8640   39.4220 C   0  0  0  0  0  0  0  0  0  0  0  0
   36.5660   23.6670   40.7350 C   0  0  0  0  0  0  0  0  0  0  0  0
   36.9620   24.7920   41.4570 C   0  0  0  0  0  0  0  0  0  0  0  0
   36.4020   30.6380   41.3900 O   0  0  0  0  0  0  0  0  0  0  0  0
   37.0020   31.5200   40.5140 C   0  0  0  0  0  0  0  0  0  0  0  0
   36.8410   31.7020   39.1800 N   0  0  0  0  0  0  0  0  0  0  0  0
   37.6350   32.6670   38.7780 O   0  0  0  0  0  0  0  0  0  0  0  0
   38.2880   33.0940   39.8280 C   0  0  0  0  0  0  0  0  0  0  0  0
   37.9180   32.4050   40.9170 N   0  0  0  0  0  0  0  0  0  0  0  0
   39.2760   34.1720   39.7930 C   0  0  0  0  0  0  0  0  0  0  0  0
   39.0610   35.4920   40.1980 C   0  0  0  0  0  0  0  0  0  0  0  0
   40.2200   36.2170   40.0200 C   0  0  0  0  0  0  0  0  0  0  0  0
   41.1140   35.2970   39.5050 C   0  0  0  0  0  0  0  0  0  0  0  0
   40.5080   34.1490   39.4020 O   0  0  0  0  0  0  0  0  0  0  0  0
   39.3889   28.4686   44.0446 H   0  0  0  0  0  0  0  0  0  0  0  0
   38.7973   26.2937   42.9138 H   0  0  0  0  0  0  0  0  0  0  0  0
   36.5151   27.2030   39.1313 H   0  0  0  0  0  0  0  0  0  0  0  0
   35.7938   25.2278   37.7853 H   0  0  0  0  0  0  0  0  0  0  0  0
   35.8394   22.9906   38.8325 H   0  0  0  0  0  0  0  0  0  0  0  0
   36.5783   22.6639   41.1863 H   0  0  0  0  0  0  0  0  0  0  0  0
   37.2954   24.6824   42.4995 H   0  0  0  0  0  0  0  0  0  0  0  0
   38.1159   35.8899   40.5961 H   0  0  0  0  0  0  0  0  0  0  0  0
   40.3933   37.2813   40.2375 H   0  0  0  0  0  0  0  0  0  0  0  0
   42.1593   35.5001   39.2292 H   0  0  0  0  0  0  0  0  0  0  0  0
  2  1  2  0
  3  2  1  0
  4  3  2  0
  4  5  1  0
  5  6  2  0
  6  1  1  0
  7 12  1  0
  7  3  1  0
  8  7  2  0
  9 10  2  0
  9  8  1  0
 10 11  1  0
 11 12  2  0
 13  5  1  0
 14 18  1  0
 14 13  1  0
 15 14  2  0
 16 15  1  0
 16 17  1  0
 17 18  2  0
 19 17  1  0
 19 20  2  0
 21 20  1  0
 22 21  2  0
 23 22  1  0
 23 19  1  0
  1 24  1  0
  2 25  1  0
  8 26  1  0
  9 27  1  0
 10 28  1  0
 11 29  1  0
 12 30  1  0
 20 31  1  0
 21 32  1  0
 22 33  1  0
M  ISO  8  24  14  25  14  26  14  27  14  28  14  29  14  30  14  31  14
M  ISO  2  32  14  33  14
M  END
>  <minimizedAffinity>  (1) 
-6.30397511

>  <minimizedRMSD>  (1) 
0.831076026

$$$$
