
     RDKit          3D

 33 36  0  0  0  0  0  0  0  0999 V2000
   43.7600   32.4410   41.0230 C   0  0  0  0  0  0  0  0  0  0  0  0
   44.3040   33.4480   41.8440 C   0  0  0  0  0  0  0  0  0  0  0  0
   43.7600   34.7420   41.7790 C   0  0  0  0  0  0  0  0  0  0  0  0
   42.7370   34.9020   40.9090 N   0  0  0  0  0  0  0  0  0  0  0  0
   42.2380   33.9450   40.1460 C   0  0  0  0  0  0  0  0  0  0  0  0
   42.7510   32.7190   40.2050 N   0  0  0  0  0  0  0  0  0  0  0  0
   44.2770   35.8310   42.6020 C   0  0  0  0  0  0  0  0  0  0  0  0
   45.5730   36.2480   42.5870 C   0  0  0  0  0  0  0  0  0  0  0  0
   46.0470   37.2930   43.3840 C   0  0  0  0  0  0  0  0  0  0  0  0
   45.1360   37.9210   44.2210 C   0  0  0  0  0  0  0  0  0  0  0  0
   43.8090   37.5060   44.2450 C   0  0  0  0  0  0  0  0  0  0  0  0
   43.3780   36.4610   43.4360 C   0  0  0  0  0  0  0  0  0  0  0  0
   41.1980   34.4370   39.3710 O   0  0  0  0  0  0  0  0  0  0  0  0
   39.8990   34.0780   39.6820 C   0  0  0  0  0  0  0  0  0  0  0  0
   38.8780   34.8430   40.1690 N   0  0  0  0  0  0  0  0  0  0  0  0
   37.8190   34.0880   40.3170 O   0  0  0  0  0  0  0  0  0  0  0  0
   38.1450   32.8630   39.9370 C   0  0  0  0  0  0  0  0  0  0  0  0
   39.4210   32.8370   39.5430 N   0  0  0  0  0  0  0  0  0  0  0  0
   37.2250   31.7360   39.9560 C   0  0  0  0  0  0  0  0  0  0  0  0
   36.8880   30.9350   38.8690 C   0  0  0  0  0  0  0  0  0  0  0  0
   35.9880   29.9750   39.2900 C   0  0  0  0  0  0  0  0  0  0  0  0
   35.8090   30.2370   40.6440 C   0  0  0  0  0  0  0  0  0  0  0  0
   36.5440   31.2560   40.9640 O   0  0  0  0  0  0  0  0  0  0  0  0
   44.1718   31.4216   41.0593 H   0  0  0  0  0  0  0  0  0  0  0  0
   45.1397   33.2255   42.5238 H   0  0  0  0  0  0  0  0  0  0  0  0
   46.2800   35.7383   41.9159 H   0  0  0  0  0  0  0  0  0  0  0  0
   47.1011   37.6056   43.3493 H   0  0  0  0  0  0  0  0  0  0  0  0
   45.4640   38.7488   44.8669 H   0  0  0  0  0  0  0  0  0  0  0  0
   43.0930   38.0098   44.9110 H   0  0  0  0  0  0  0  0  0  0  0  0
   42.3265   36.1388   43.4611 H   0  0  0  0  0  0  0  0  0  0  0  0
   37.2739   31.0475   37.8451 H   0  0  0  0  0  0  0  0  0  0  0  0
   35.5187   29.1819   38.6894 H   0  0  0  0  0  0  0  0  0  0  0  0
   35.1551   29.6753   41.3273 H   0  0  0  0  0  0  0  0  0  0  0  0
  1  2  2  0
  3  2  1  0
  3  7  1  0
  4  3  2  0
  5  6  2  0
  5  4  1  0
  6  1  1  0
  7 12  1  0
  8  7  2  0
  8  9  1  0
  9 10  2  0
 10 11  1  0
 12 11  2  0
 13 14  1  0
 13  5  1  0
 14 15  2  0
 15 16  1  0
 17 19  1  0
 17 16  1  0
 18 14  1  0
 18 17  2  0
 19 23  1  0
 20 21  1  0
 20 19  2  0
 21 22  2  0
 22 23  1  0
  1 24  1  0
  2 25  1  0
  8 26  1  0
  9 27  1  0
 10 28  1  0
 11 29  1  0
 12 30  1  0
 20 31  1  0
 21 32  1  0
 22 33  1  0
M  ISO  8  24  14  25  14  26  14  27  14  28  14  29  14  30  14  31  14
M  ISO  2  32  14  33  14
M  END
>  <minimizedAffinity>  (1) 
-6.29744196

>  <minimizedRMSD>  (1) 
9.50661564

$$$$
