
     RDKit          3D

 39 42  0  0  0  0  0  0  0  0999 V2000
   36.4110   30.6320   41.4050 O   0  0  0  0  0  0  0  0  0  0  0  0
   38.6840   28.4970   43.2490 C   0  0  0  0  0  0  0  0  0  0  0  0
   38.2470   27.2410   42.7820 C   0  0  0  0  0  0  0  0  0  0  0  0
   37.1780   27.2290   41.8450 C   0  0  0  0  0  0  0  0  0  0  0  0
   36.6430   28.4110   41.4580 N   0  0  0  0  0  0  0  0  0  0  0  0
   37.1000   29.5780   41.9360 C   0  0  0  0  0  0  0  0  0  0  0  0
   38.1040   29.6250   42.8180 N   0  0  0  0  0  0  0  0  0  0  0  0
   36.6820   25.9040   41.3230 C   0  0  0  0  0  0  0  0  0  0  0  0
   37.1490   25.8030   39.8920 C   0  0  0  0  0  0  0  0  0  0  0  0
   36.5830   24.5390   39.2510 C   0  0  0  0  0  0  0  0  0  0  0  0
   36.5950   23.4210   40.2680 C   0  0  0  0  0  0  0  0  0  0  0  0
   37.7070   23.6290   41.2670 C   0  0  0  0  0  0  0  0  0  0  0  0
   37.4230   24.8460   42.1120 C   0  0  0  0  0  0  0  0  0  0  0  0
   37.0230   31.5050   40.5110 C   0  0  0  0  0  0  0  0  0  0  0  0
   36.8930   31.6590   39.1680 N   0  0  0  0  0  0  0  0  0  0  0  0
   37.6870   32.6200   38.7800 O   0  0  0  0  0  0  0  0  0  0  0  0
   38.3160   33.0770   39.8510 C   0  0  0  0  0  0  0  0  0  0  0  0
   37.9280   32.4110   40.9290 N   0  0  0  0  0  0  0  0  0  0  0  0
   39.2890   34.1610   39.8020 C   0  0  0  0  0  0  0  0  0  0  0  0
   39.0560   35.4740   40.2080 C   0  0  0  0  0  0  0  0  0  0  0  0
   40.2060   36.2120   40.0140 C   0  0  0  0  0  0  0  0  0  0  0  0
   41.1130   35.2930   39.4850 C   0  0  0  0  0  0  0  0  0  0  0  0
   40.5150   34.1420   39.3940 O   0  0  0  0  0  0  0  0  0  0  0  0
   39.5092   28.5515   43.9743 H   0  0  0  0  0  0  0  0  0  0  0  0
   38.7144   26.3075   43.1287 H   0  0  0  0  0  0  0  0  0  0  0  0
   35.5902   25.7949   41.4015 H   0  0  0  0  0  0  0  0  0  0  0  0
   36.8017   26.6835   39.3316 H   0  0  0  0  0  0  0  0  0  0  0  0
   38.2480   25.7598   39.8710 H   0  0  0  0  0  0  0  0  0  0  0  0
   35.5506   24.7245   38.9197 H   0  0  0  0  0  0  0  0  0  0  0  0
   37.1968   24.2569   38.3828 H   0  0  0  0  0  0  0  0  0  0  0  0
   35.6310   23.4026   40.7976 H   0  0  0  0  0  0  0  0  0  0  0  0
   36.7585   22.4665   39.7463 H   0  0  0  0  0  0  0  0  0  0  0  0
   37.7828   22.7445   41.9166 H   0  0  0  0  0  0  0  0  0  0  0  0
   38.6534   23.7784   40.7267 H   0  0  0  0  0  0  0  0  0  0  0  0
   38.3758   25.2657   42.4670 H   0  0  0  0  0  0  0  0  0  0  0  0
   36.7920   24.5401   42.9595 H   0  0  0  0  0  0  0  0  0  0  0  0
   38.1100   35.8591   40.6164 H   0  0  0  0  0  0  0  0  0  0  0  0
   40.3698   37.2786   40.2272 H   0  0  0  0  0  0  0  0  0  0  0  0
   42.1528   35.5053   39.1954 H   0  0  0  0  0  0  0  0  0  0  0  0
  1  6  1  0
  3  2  2  0
  4  3  1  0
  5  4  2  0
  5  6  1  0
  6  7  2  0
  7  2  1  0
  8  4  1  0
  8 13  1  0
  9  8  1  0
 10  9  1  0
 10 11  1  0
 11 12  1  0
 12 13  1  0
 14 18  1  0
 14  1  1  0
 15 14  2  0
 16 15  1  0
 16 17  1  0
 17 18  2  0
 19 17  1  0
 19 20  2  0
 21 20  1  0
 22 21  2  0
 23 22  1  0
 23 19  1  0
  2 24  1  0
  3 25  1  0
  8 26  1  0
  9 27  1  0
  9 28  1  0
 10 29  1  0
 10 30  1  0
 11 31  1  0
 11 32  1  0
 12 33  1  0
 12 34  1  0
 13 35  1  0
 13 36  1  0
 20 37  1  0
 21 38  1  0
 22 39  1  0
M  ISO  8  24  14  25  14  26  13  27  13  28  13  29  13  30  13  31  13
M  ISO  8  32  13  33  13  34  13  35  13  36  13  37  14  38  14  39  14
M  END
>  <minimizedAffinity>  (1) 
-6.25882435

>  <minimizedRMSD>  (1) 
0.420265615

$$$$
