
     RDKit          3D

 30 33  0  0  0  0  0  0  0  0999 V2000
   38.5030   28.3880   43.2750 C   0  0  0  0  0  0  0  0  0  0  0  0
   38.1950   27.1590   42.6610 C   0  0  0  0  0  0  0  0  0  0  0  0
   37.2540   27.1820   41.6190 C   0  0  0  0  0  0  0  0  0  0  0  0
   36.6870   28.3790   41.2530 N   0  0  0  0  0  0  0  0  0  0  0  0
   37.0340   29.5110   41.8890 C   0  0  0  0  0  0  0  0  0  0  0  0
   37.9280   29.5280   42.8880 N   0  0  0  0  0  0  0  0  0  0  0  0
   36.9040   25.9550   40.9580 N   0  0  0  0  0  0  0  0  0  0  0  0
   36.4590   25.8210   39.7120 N   0  0  0  0  0  0  0  0  0  0  0  0
   36.2370   24.5320   39.4370 C   0  0  0  0  0  0  0  0  0  0  0  0
   36.5670   23.8240   40.5880 C   0  0  0  0  0  0  0  0  0  0  0  0
   36.9890   24.7420   41.5430 C   0  0  0  0  0  0  0  0  0  0  0  0
   36.3420   30.5880   41.3580 O   0  0  0  0  0  0  0  0  0  0  0  0
   36.9850   31.4570   40.4960 C   0  0  0  0  0  0  0  0  0  0  0  0
   36.8890   31.6130   39.1380 N   0  0  0  0  0  0  0  0  0  0  0  0
   37.6970   32.5700   38.7620 O   0  0  0  0  0  0  0  0  0  0  0  0
   38.3050   33.0260   39.8480 C   0  0  0  0  0  0  0  0  0  0  0  0
   37.8800   32.3570   40.9100 N   0  0  0  0  0  0  0  0  0  0  0  0
   39.2830   34.1040   39.8140 C   0  0  0  0  0  0  0  0  0  0  0  0
   39.0380   35.4260   40.2150 C   0  0  0  0  0  0  0  0  0  0  0  0
   40.2010   36.1500   40.0360 C   0  0  0  0  0  0  0  0  0  0  0  0
   41.1170   35.2220   39.5270 C   0  0  0  0  0  0  0  0  0  0  0  0
   40.5280   34.0660   39.4240 O   0  0  0  0  0  0  0  0  0  0  0  0
   39.2364   28.4088   44.0946 H   0  0  0  0  0  0  0  0  0  0  0  0
   38.6710   26.2213   42.9836 H   0  0  0  0  0  0  0  0  0  0  0  0
   35.8670   24.1142   38.4891 H   0  0  0  0  0  0  0  0  0  0  0  0
   36.5052   22.7336   40.7190 H   0  0  0  0  0  0  0  0  0  0  0  0
   37.3242   24.5238   42.5677 H   0  0  0  0  0  0  0  0  0  0  0  0
   38.0864   35.8175   40.6039 H   0  0  0  0  0  0  0  0  0  0  0  0
   40.3694   37.2165   40.2463 H   0  0  0  0  0  0  0  0  0  0  0  0
   42.1623   35.4347   39.2584 H   0  0  0  0  0  0  0  0  0  0  0  0
  2  1  2  0
  3  2  1  0
  4  3  2  0
  4  5  1  0
  5  6  2  0
  6  1  1  0
  7 11  1  0
  7  3  1  0
  8  7  1  0
  9  8  2  0
  9 10  1  0
 10 11  2  0
 12  5  1  0
 13 17  1  0
 13 12  1  0
 14 13  2  0
 15 14  1  0
 15 16  1  0
 16 17  2  0
 18 16  1  0
 18 19  2  0
 20 19  1  0
 21 20  2  0
 22 21  1  0
 22 18  1  0
  1 23  1  0
  2 24  1  0
  9 25  1  0
 10 26  1  0
 11 27  1  0
 19 28  1  0
 20 29  1  0
 21 30  1  0
M  ISO  8  23  14  24  14  25  14  26  14  27  14  28  14  29  14  30  14
M  END
>  <minimizedAffinity>  (1) 
-6.12431622

>  <minimizedRMSD>  (1) 
0.661010087

$$$$
