
     RDKit          3D

 53 57  0  0  0  0  0  0  0  0999 V2000
   37.5570   28.6200   43.8790 C   0  0  0  0  0  0  0  0  0  0  0  0
   37.1510   27.2740   43.8310 C   0  0  0  0  0  0  0  0  0  0  0  0
   36.8460   26.7320   42.5890 C   0  0  0  0  0  0  0  0  0  0  0  0
   36.9570   27.5300   41.4900 N   0  0  0  0  0  0  0  0  0  0  0  0
   37.3480   28.8170   41.5630 C   0  0  0  0  0  0  0  0  0  0  0  0
   37.6500   29.3690   42.7570 N   0  0  0  0  0  0  0  0  0  0  0  0
   37.4270   29.5520   40.3540 N   0  0  0  0  0  0  0  0  0  0  0  0
   37.1400   28.9950   39.1630 C   0  0  0  0  0  0  0  0  0  0  0  0
   37.2650   29.8380   38.0840 C   0  0  0  0  0  0  0  0  0  0  0  0
   37.6500   31.1570   38.1680 C   0  0  0  0  0  0  0  0  0  0  0  0
   37.7630   31.9270   37.1670 O   0  0  0  0  0  0  0  0  0  0  0  0
   37.9260   31.6650   39.3920 N   0  0  0  0  0  0  0  0  0  0  0  0
   37.8110   30.8510   40.4890 C   0  0  0  0  0  0  0  0  0  0  0  0
   38.0800   31.3780   41.6040 O   0  0  0  0  0  0  0  0  0  0  0  0
   38.3380   33.0290   39.5840 C   0  0  0  0  0  0  0  0  0  0  0  0
   37.6730   34.2320   39.7340 C   0  0  0  0  0  0  0  0  0  0  0  0
   38.5920   35.2140   39.8840 N   0  0  0  0  0  0  0  0  0  0  0  0
   39.8170   34.6600   39.8330 C   0  0  0  0  0  0  0  0  0  0  0  0
   41.0690   35.2480   39.9350 C   0  0  0  0  0  0  0  0  0  0  0  0
   42.2350   34.5090   39.8560 C   0  0  0  0  0  0  0  0  0  0  0  0
   42.1040   33.1500   39.6700 C   0  0  0  0  0  0  0  0  0  0  0  0
   40.8730   32.5740   39.5700 C   0  0  0  0  0  0  0  0  0  0  0  0
   39.6920   33.3040   39.6470 C   0  0  0  0  0  0  0  0  0  0  0  0
   36.9870   29.3760   36.7160 C   0  0  0  0  0  0  0  0  0  0  0  0
   35.5520   29.2570   36.3480 C   0  0  0  0  0  0  0  0  0  0  0  0
   34.5990   29.1510   37.5050 C   0  0  0  0  0  0  0  0  0  0  0  0
   33.3260   28.5280   36.9150 C   0  0  0  0  0  0  0  0  0  0  0  0
   33.6070   27.0370   36.8320 C   0  0  0  0  0  0  0  0  0  0  0  0
   34.8880   26.8400   36.0720 C   0  0  0  0  0  0  0  0  0  0  0  0
   35.3970   28.0920   35.4050 C   0  0  0  0  0  0  0  0  0  0  0  0
   37.8042   29.0731   44.8504 H   0  0  0  0  0  0  0  0  0  0  0  0
   37.0774   26.6702   44.7475 H   0  0  0  0  0  0  0  0  0  0  0  0
   36.5229   25.6847   42.4949 H   0  0  0  0  0  0  0  0  0  0  0  0
   36.8290   27.9449   39.0605 H   0  0  0  0  0  0  0  0  0  0  0  0
   36.5814   34.3679   39.7318 H   0  0  0  0  0  0  0  0  0  0  0  0
   38.3883   36.2151   40.0149 H   0  0  0  0  0  0  0  0  0  0  0  0
   41.1365   36.3359   40.0833 H   0  0  0  0  0  0  0  0  0  0  0  0
   43.2233   34.9849   39.9380 H   0  0  0  0  0  0  0  0  0  0  0  0
   43.0045   32.5220   39.6014 H   0  0  0  0  0  0  0  0  0  0  0  0
   40.8110   31.4857   39.4221 H   0  0  0  0  0  0  0  0  0  0  0  0
   37.4555   30.0865   36.0190 H   0  0  0  0  0  0  0  0  0  0  0  0
   37.3936   28.3555   36.6590 H   0  0  0  0  0  0  0  0  0  0  0  0
   35.2690   30.2028   35.8628 H   0  0  0  0  0  0  0  0  0  0  0  0
   35.0164   28.5056   38.2919 H   0  0  0  0  0  0  0  0  0  0  0  0
   34.4035   30.1284   37.9703 H   0  0  0  0  0  0  0  0  0  0  0  0
   32.4638   28.7212   37.5702 H   0  0  0  0  0  0  0  0  0  0  0  0
   33.0810   28.9533   35.9306 H   0  0  0  0  0  0  0  0  0  0  0  0
   33.7078   26.6205   37.8451 H   0  0  0  0  0  0  0  0  0  0  0  0
   32.7798   26.5233   36.3202 H   0  0  0  0  0  0  0  0  0  0  0  0
   35.6565   26.4837   36.7737 H   0  0  0  0  0  0  0  0  0  0  0  0
   34.6786   26.1133   35.2732 H   0  0  0  0  0  0  0  0  0  0  0  0
   36.3779   27.8736   34.9577 H   0  0  0  0  0  0  0  0  0  0  0  0
   34.6497   28.3833   34.6522 H   0  0  0  0  0  0  0  0  0  0  0  0
  2  1  2  0
  3  2  1  0
  4  5  1  0
  4  3  2  0
  5  6  2  0
  6  1  1  0
  7 13  1  0
  7  5  1  0
  8  7  1  0
  9 10  1  0
  9  8  2  0
 10 12  1  0
 11 10  2  0
 12 15  1  0
 12 13  1  0
 13 14  2  0
 15 23  1  0
 15 16  2  0
 16 17  1  0
 18 17  1  0
 18 19  2  0
 20 19  1  0
 21 20  2  0
 22 23  2  0
 22 21  1  0
 23 18  1  0
 24  9  1  0
 25 24  1  0
 25 26  1  0
 27 26  1  0
 28 27  1  0
 29 28  1  0
 30 29  1  0
 30 25  1  0
  1 31  1  0
  2 32  1  0
  3 33  1  0
  8 34  1  0
 16 35  1  0
 17 36  1  0
 19 37  1  0
 20 38  1  0
 21 39  1  0
 22 40  1  0
 24 41  1  0
 24 42  1  0
 25 43  1  0
 26 44  1  0
 26 45  1  0
 27 46  1  0
 27 47  1  0
 28 48  1  0
 28 49  1  0
 29 50  1  0
 29 51  1  0
 30 52  1  0
 30 53  1  0
M  ISO  8  31  14  32  14  33  14  34  14  35  14  36   9  37  14  38  14
M  ISO  8  39  14  40  14  41   8  42   8  43  13  44  13  45  13  46  13
M  ISO  7  47  13  48  13  49  13  50  13  51  13  52  13  53  13
M  END
>  <minimizedAffinity>  (1) 
-6.96690083

>  <minimizedRMSD>  (1) 
0.719617546

$$$$
