
     RDKit          3D

 30 33  0  0  0  0  0  0  0  0999 V2000
   36.3710   30.5180   41.3460 O   0  0  0  0  0  0  0  0  0  0  0  0
   38.6840   28.4930   43.2820 C   0  0  0  0  0  0  0  0  0  0  0  0
   38.3640   27.2200   42.7770 C   0  0  0  0  0  0  0  0  0  0  0  0
   37.3490   27.1470   41.7810 C   0  0  0  0  0  0  0  0  0  0  0  0
   36.7770   28.3210   41.4050 N   0  0  0  0  0  0  0  0  0  0  0  0
   37.1030   29.5030   41.9020 C   0  0  0  0  0  0  0  0  0  0  0  0
   38.0640   29.5810   42.8470 N   0  0  0  0  0  0  0  0  0  0  0  0
   36.9900   25.8780   41.2380 N   0  0  0  0  0  0  0  0  0  0  0  0
   36.6540   25.9180   39.9160 C   0  0  0  0  0  0  0  0  0  0  0  0
   36.3360   24.6030   39.5600 C   0  0  0  0  0  0  0  0  0  0  0  0
   36.4810   23.8350   40.6320 N   0  0  0  0  0  0  0  0  0  0  0  0
   36.8800   24.5910   41.6720 C   0  0  0  0  0  0  0  0  0  0  0  0
   36.9780   31.4120   40.4760 C   0  0  0  0  0  0  0  0  0  0  0  0
   36.8470   31.5820   39.1330 N   0  0  0  0  0  0  0  0  0  0  0  0
   37.6320   32.5610   38.7560 O   0  0  0  0  0  0  0  0  0  0  0  0
   38.2550   33.0110   39.8310 C   0  0  0  0  0  0  0  0  0  0  0  0
   37.8760   32.3230   40.9180 N   0  0  0  0  0  0  0  0  0  0  0  0
   39.2190   34.1070   39.8050 C   0  0  0  0  0  0  0  0  0  0  0  0
   38.9480   35.4240   40.1920 C   0  0  0  0  0  0  0  0  0  0  0  0
   40.0820   36.1790   40.0370 C   0  0  0  0  0  0  0  0  0  0  0  0
   41.0260   35.2740   39.5500 C   0  0  0  0  0  0  0  0  0  0  0  0
   40.4590   34.1060   39.4430 O   0  0  0  0  0  0  0  0  0  0  0  0
   39.4634   28.5876   44.0524 H   0  0  0  0  0  0  0  0  0  0  0  0
   38.8775   26.3164   43.1372 H   0  0  0  0  0  0  0  0  0  0  0  0
   36.6367   26.8034   39.2635 H   0  0  0  0  0  0  0  0  0  0  0  0
   36.0200   24.2640   38.5624 H   0  0  0  0  0  0  0  0  0  0  0  0
   37.0817   24.2329   42.6923 H   0  0  0  0  0  0  0  0  0  0  0  0
   37.9803   35.7943   40.5614 H   0  0  0  0  0  0  0  0  0  0  0  0
   40.2165   37.2502   40.2478 H   0  0  0  0  0  0  0  0  0  0  0  0
   42.0713   35.5072   39.2991 H   0  0  0  0  0  0  0  0  0  0  0  0
  1  6  1  0
  3  2  2  0
  4  3  1  0
  5  4  2  0
  5  6  1  0
  6  7  2  0
  7  2  1  0
  8 12  1  0
  8  4  1  0
  9  8  1  0
 10  9  2  0
 10 11  1  0
 11 12  2  0
 13 17  1  0
 13  1  1  0
 14 13  2  0
 15 14  1  0
 15 16  1  0
 16 17  2  0
 18 16  1  0
 18 19  2  0
 20 19  1  0
 21 20  2  0
 22 21  1  0
 22 18  1  0
  2 23  1  0
  3 24  1  0
  9 25  1  0
 10 26  1  0
 12 27  1  0
 19 28  1  0
 20 29  1  0
 21 30  1  0
M  ISO  8  23  14  24  14  25  14  26  14  27  14  28  14  29  14  30  14
M  END
>  <minimizedAffinity>  (1) 
-6.055758

>  <minimizedRMSD>  (1) 
0.603082001

$$$$
