
     RDKit          3D

 30 33  0  0  0  0  0  0  0  0999 V2000
   39.8770   28.8100   43.0560 C   0  0  0  0  0  0  0  0  0  0  0  0
   39.5730   27.4540   42.8390 C   0  0  0  0  0  0  0  0  0  0  0  0
   38.3500   27.1500   42.1890 C   0  0  0  0  0  0  0  0  0  0  0  0
   37.5480   28.1770   41.8170 N   0  0  0  0  0  0  0  0  0  0  0  0
   37.8820   29.4540   42.0460 C   0  0  0  0  0  0  0  0  0  0  0  0
   39.0290   29.7760   42.6570 N   0  0  0  0  0  0  0  0  0  0  0  0
   37.9540   25.7550   41.9210 C   0  0  0  0  0  0  0  0  0  0  0  0
   36.9180   25.4280   41.0720 C   0  0  0  0  0  0  0  0  0  0  0  0
   36.8430   24.0520   41.0720 C   0  0  0  0  0  0  0  0  0  0  0  0
   37.8080   23.5690   41.8980 N   0  0  0  0  0  0  0  0  0  0  0  0
   38.4760   24.6170   42.4090 N   0  0  0  0  0  0  0  0  0  0  0  0
   36.9320   30.3250   41.5890 O   0  0  0  0  0  0  0  0  0  0  0  0
   37.2700   31.3610   40.7300 C   0  0  0  0  0  0  0  0  0  0  0  0
   36.7750   31.7290   39.5180 N   0  0  0  0  0  0  0  0  0  0  0  0
   37.4290   32.7810   39.1020 O   0  0  0  0  0  0  0  0  0  0  0  0
   38.3210   33.0830   40.0150 C   0  0  0  0  0  0  0  0  0  0  0  0
   38.2520   32.2290   41.0340 N   0  0  0  0  0  0  0  0  0  0  0  0
   39.2450   34.2070   39.9000 C   0  0  0  0  0  0  0  0  0  0  0  0
   38.9640   35.5350   40.2170 C   0  0  0  0  0  0  0  0  0  0  0  0
   40.0820   36.3060   39.9770 C   0  0  0  0  0  0  0  0  0  0  0  0
   41.0270   35.3890   39.5110 C   0  0  0  0  0  0  0  0  0  0  0  0
   40.4760   34.2210   39.4960 O   0  0  0  0  0  0  0  0  0  0  0  0
   40.8173   29.0838   43.5569 H   0  0  0  0  0  0  0  0  0  0  0  0
   40.2596   26.6576   43.1621 H   0  0  0  0  0  0  0  0  0  0  0  0
   36.2801   26.1248   40.5084 H   0  0  0  0  0  0  0  0  0  0  0  0
   36.1239   23.4471   40.5003 H   0  0  0  0  0  0  0  0  0  0  0  0
   37.9943   22.5757   42.0971 H   0  0  0  0  0  0  0  0  0  0  0  0
   38.0024   35.9090   40.5984 H   0  0  0  0  0  0  0  0  0  0  0  0
   40.2016   37.3902   40.1193 H   0  0  0  0  0  0  0  0  0  0  0  0
   42.0592   35.6209   39.2097 H   0  0  0  0  0  0  0  0  0  0  0  0
  2  1  2  0
  3  2  1  0
  4  5  1  0
  4  3  2  0
  5  6  2  0
  6  1  1  0
  7  3  1  0
  7 11  2  0
  8  9  2  0
  8  7  1  0
  9 10  1  0
 10 11  1  0
 12  5  1  0
 13 17  1  0
 13 12  1  0
 14 13  2  0
 15 14  1  0
 15 16  1  0
 16 17  2  0
 18 16  1  0
 18 19  2  0
 20 19  1  0
 21 20  2  0
 22 21  1  0
 22 18  1  0
  1 23  1  0
  2 24  1  0
  8 25  1  0
  9 26  1  0
 10 27  1  0
 19 28  1  0
 20 29  1  0
 21 30  1  0
M  ISO  8  23  14  24  14  25  14  26  14  27   9  28  14  29  14  30  14
M  END
>  <minimizedAffinity>  (1) 
-5.88319969

>  <minimizedRMSD>  (1) 
1.16628671

$$$$
