
     RDKit          3D

 32 34  0  0  0  0  0  0  0  0999 V2000
   36.9910   31.4540   40.4980 C   0  0  0  0  0  0  0  0  0  0  0  0
   36.8330   31.6480   39.1530 N   0  0  0  0  0  0  0  0  0  0  0  0
   37.6220   32.6200   38.7770 O   0  0  0  0  0  0  0  0  0  0  0  0
   38.2730   33.0430   39.8520 C   0  0  0  0  0  0  0  0  0  0  0  0
   37.9000   32.3420   40.9140 N   0  0  0  0  0  0  0  0  0  0  0  0
   39.2450   34.1220   39.8230 C   0  0  0  0  0  0  0  0  0  0  0  0
   39.0240   35.4370   40.2120 C   0  0  0  0  0  0  0  0  0  0  0  0
   40.1880   36.1540   40.0360 C   0  0  0  0  0  0  0  0  0  0  0  0
   41.0940   35.2390   39.5360 C   0  0  0  0  0  0  0  0  0  0  0  0
   40.4860   34.0880   39.4380 O   0  0  0  0  0  0  0  0  0  0  0  0
   36.3920   30.5560   41.3680 O   0  0  0  0  0  0  0  0  0  0  0  0
   38.6520   28.4490   43.2590 C   0  0  0  0  0  0  0  0  0  0  0  0
   38.3260   27.2010   42.6970 C   0  0  0  0  0  0  0  0  0  0  0  0
   37.3280   27.1810   41.6850 C   0  0  0  0  0  0  0  0  0  0  0  0
   36.7510   28.3490   41.3200 N   0  0  0  0  0  0  0  0  0  0  0  0
   37.1020   29.5130   41.8910 C   0  0  0  0  0  0  0  0  0  0  0  0
   38.0420   29.5660   42.8510 N   0  0  0  0  0  0  0  0  0  0  0  0
   36.9200   25.8880   41.0320 C   0  0  0  0  0  0  0  0  0  0  0  0
   36.9810   24.7510   42.0370 C   0  0  0  0  0  0  0  0  0  0  0  0
   37.8140   25.6500   39.8340 C   0  0  0  0  0  0  0  0  0  0  0  0
   38.0758   35.8400   40.5973 H   0  0  0  0  0  0  0  0  0  0  0  0
   40.3580   37.2201   40.2472 H   0  0  0  0  0  0  0  0  0  0  0  0
   42.1411   35.4437   39.2682 H   0  0  0  0  0  0  0  0  0  0  0  0
   39.4195   28.5061   44.0450 H   0  0  0  0  0  0  0  0  0  0  0  0
   38.8237   26.2774   43.0276 H   0  0  0  0  0  0  0  0  0  0  0  0
   35.8789   25.9419   40.6809 H   0  0  0  0  0  0  0  0  0  0  0  0
   36.9590   25.1618   43.0572 H   0  0  0  0  0  0  0  0  0  0  0  0
   36.1173   24.0857   41.8909 H   0  0  0  0  0  0  0  0  0  0  0  0
   37.9110   24.1820   41.8909 H   0  0  0  0  0  0  0  0  0  0  0  0
   38.8238   25.3812   40.1777 H   0  0  0  0  0  0  0  0  0  0  0  0
   37.4029   24.8300   39.2269 H   0  0  0  0  0  0  0  0  0  0  0  0
   37.8650   26.5658   39.2269 H   0  0  0  0  0  0  0  0  0  0  0  0
  1  5  1  0
  1 11  1  0
  2  1  2  0
  3  2  1  0
  3  4  1  0
  4  5  2  0
  6  4  1  0
  6  7  2  0
  8  7  1  0
  9  8  2  0
 10  9  1  0
 10  6  1  0
 11 16  1  0
 13 12  2  0
 14 13  1  0
 15 14  2  0
 15 16  1  0
 16 17  2  0
 17 12  1  0
 18 14  1  0
 18 19  1  0
 20 18  1  0
  7 21  1  0
  8 22  1  0
  9 23  1  0
 12 24  1  0
 13 25  1  0
 18 26  1  0
 19 27  1  0
 19 28  1  0
 19 29  1  0
 20 30  1  0
 20 31  1  0
 20 32  1  0
M  ISO  8  21  14  22  14  23  14  24  14  25  14  26   8  27   8  28   8
M  ISO  4  29   8  30   8  31   8  32   8
M  END
>  <minimizedAffinity>  (1) 
-5.60481215

>  <minimizedRMSD>  (1) 
0.724510908

$$$$
