
     RDKit          3D

 25 27  0  0  0  0  0  0  0  0999 V2000
   36.9640   31.4610   40.4710 C   0  0  0  0  0  0  0  0  0  0  0  0
   36.8700   31.6050   39.1290 N   0  0  0  0  0  0  0  0  0  0  0  0
   37.6850   32.5640   38.7480 O   0  0  0  0  0  0  0  0  0  0  0  0
   38.2820   33.0160   39.8270 C   0  0  0  0  0  0  0  0  0  0  0  0
   37.8620   32.3600   40.9060 N   0  0  0  0  0  0  0  0  0  0  0  0
   39.2640   34.0930   39.8080 C   0  0  0  0  0  0  0  0  0  0  0  0
   39.0470   35.4150   40.2230 C   0  0  0  0  0  0  0  0  0  0  0  0
   40.2100   36.1360   40.0550 C   0  0  0  0  0  0  0  0  0  0  0  0
   41.1160   35.2120   39.5330 C   0  0  0  0  0  0  0  0  0  0  0  0
   40.4950   34.0880   39.4270 O   0  0  0  0  0  0  0  0  0  0  0  0
   36.3220   30.5980   41.3620 O   0  0  0  0  0  0  0  0  0  0  0  0
   38.4030   28.3060   43.2580 C   0  0  0  0  0  0  0  0  0  0  0  0
   38.1300   27.1110   42.5620 C   0  0  0  0  0  0  0  0  0  0  0  0
   37.2230   27.1960   41.4650 C   0  0  0  0  0  0  0  0  0  0  0  0
   36.6940   28.4150   41.1720 N   0  0  0  0  0  0  0  0  0  0  0  0
   36.9850   29.5100   41.8570 C   0  0  0  0  0  0  0  0  0  0  0  0
   37.8340   29.4530   42.8950 N   0  0  0  0  0  0  0  0  0  0  0  0
   36.9180   25.9960   40.7280 N   0  0  0  0  0  0  0  0  0  0  0  0
   38.1009   35.8127   40.6189 H   0  0  0  0  0  0  0  0  0  0  0  0
   40.3842   37.1983   40.2811 H   0  0  0  0  0  0  0  0  0  0  0  0
   42.1643   35.4067   39.2626 H   0  0  0  0  0  0  0  0  0  0  0  0
   39.0955   28.2903   44.1125 H   0  0  0  0  0  0  0  0  0  0  0  0
   38.5951   26.1572   42.8517 H   0  0  0  0  0  0  0  0  0  0  0  0
   36.2657   26.0325   39.9317 H   0  0  0  0  0  0  0  0  0  0  0  0
   37.3523   25.1017   40.9975 H   0  0  0  0  0  0  0  0  0  0  0  0
  1  5  1  0
  1 11  1  0
  2  1  2  0
  3  2  1  0
  3  4  1  0
  4  5  2  0
  6  4  1  0
  6  7  2  0
  8  7  1  0
  9  8  2  0
 10  9  1  0
 10  6  1  0
 11 16  1  0
 13 12  2  0
 14 13  1  0
 15 14  2  0
 15 16  1  0
 16 17  2  0
 17 12  1  0
 18 14  1  0
  7 19  1  0
  8 20  1  0
  9 21  1  0
 12 22  1  0
 13 23  1  0
 18 24  1  0
 18 25  1  0
M  ISO  5  19  14  20  14  21  14  22  14  23  14
M  END
>  <minimizedAffinity>  (1) 
-5.16636038

>  <minimizedRMSD>  (1) 
0.396093369

$$$$
