
     RDKit          3D

 37 40  0  0  0  0  0  0  0  0999 V2000
   38.4390   28.3520   43.2580 C   0  0  0  0  0  0  0  0  0  0  0  0
   38.1550   27.1560   42.5540 C   0  0  0  0  0  0  0  0  0  0  0  0
   37.2620   27.2390   41.4880 C   0  0  0  0  0  0  0  0  0  0  0  0
   36.7140   28.4420   41.1810 N   0  0  0  0  0  0  0  0  0  0  0  0
   37.0050   29.5460   41.8640 C   0  0  0  0  0  0  0  0  0  0  0  0
   37.8730   29.5030   42.9100 N   0  0  0  0  0  0  0  0  0  0  0  0
   37.0050   25.9880   40.8010 C   0  0  0  0  0  0  0  0  0  0  0  0
   37.0470   24.7650   41.6850 C   0  0  0  0  0  0  0  0  0  0  0  0
   36.9350   23.6020   40.7300 C   0  0  0  0  0  0  0  0  0  0  0  0
   35.8830   23.4290   39.8540 C   0  0  0  0  0  0  0  0  0  0  0  0
   35.8580   22.3350   39.0120 C   0  0  0  0  0  0  0  0  0  0  0  0
   36.8580   21.4060   39.0210 N   0  0  0  0  0  0  0  0  0  0  0  0
   37.8920   21.5910   39.8930 C   0  0  0  0  0  0  0  0  0  0  0  0
   37.9060   22.6590   40.7070 N   0  0  0  0  0  0  0  0  0  0  0  0
   36.3370   30.6290   41.3740 O   0  0  0  0  0  0  0  0  0  0  0  0
   36.9810   31.5040   40.5000 C   0  0  0  0  0  0  0  0  0  0  0  0
   36.8690   31.6560   39.1440 N   0  0  0  0  0  0  0  0  0  0  0  0
   37.6800   32.6150   38.7620 O   0  0  0  0  0  0  0  0  0  0  0  0
   38.2960   33.0660   39.8470 C   0  0  0  0  0  0  0  0  0  0  0  0
   37.8810   32.4000   40.9180 N   0  0  0  0  0  0  0  0  0  0  0  0
   39.2740   34.1380   39.8140 C   0  0  0  0  0  0  0  0  0  0  0  0
   39.0730   35.4540   40.2100 C   0  0  0  0  0  0  0  0  0  0  0  0
   40.2270   36.1670   40.0310 C   0  0  0  0  0  0  0  0  0  0  0  0
   41.1360   35.2450   39.5130 C   0  0  0  0  0  0  0  0  0  0  0  0
   40.5200   34.1010   39.4150 O   0  0  0  0  0  0  0  0  0  0  0  0
   39.1391   28.3277   44.1061 H   0  0  0  0  0  0  0  0  0  0  0  0
   38.6207   26.2006   42.8375 H   0  0  0  0  0  0  0  0  0  0  0  0
   36.0062   26.0466   40.3438 H   0  0  0  0  0  0  0  0  0  0  0  0
   37.8113   25.8666   40.0627 H   0  0  0  0  0  0  0  0  0  0  0  0
   37.9946   24.7205   42.2418 H   0  0  0  0  0  0  0  0  0  0  0  0
   36.2447   24.7660   42.4375 H   0  0  0  0  0  0  0  0  0  0  0  0
   35.0640   24.1629   39.8265 H   0  0  0  0  0  0  0  0  0  0  0  0
   35.0134   22.2093   38.3185 H   0  0  0  0  0  0  0  0  0  0  0  0
   38.7160   20.8632   39.9290 H   0  0  0  0  0  0  0  0  0  0  0  0
   38.1309   35.8605   40.6065 H   0  0  0  0  0  0  0  0  0  0  0  0
   40.3995   37.2316   40.2477 H   0  0  0  0  0  0  0  0  0  0  0  0
   42.1817   35.4466   39.2375 H   0  0  0  0  0  0  0  0  0  0  0  0
  2  1  2  0
  3  2  1  0
  4  3  2  0
  4  5  1  0
  5  6  2  0
  6  1  1  0
  7  3  1  0
  7  8  1  0
  9  8  1  0
 10  9  2  0
 11 12  2  0
 11 10  1  0
 12 13  1  0
 13 14  2  0
 14  9  1  0
 15  5  1  0
 16 20  1  0
 16 15  1  0
 17 16  2  0
 18 17  1  0
 18 19  1  0
 19 20  2  0
 21 19  1  0
 21 22  2  0
 23 22  1  0
 24 23  2  0
 25 24  1  0
 25 21  1  0
  1 26  1  0
  2 27  1  0
  7 28  1  0
  7 29  1  0
  8 30  1  0
  8 31  1  0
 10 32  1  0
 11 33  1  0
 13 34  1  0
 22 35  1  0
 23 36  1  0
 24 37  1  0
M  ISO  8  26  14  27  14  28   8  29   8  30   8  31   8  32  14  33  14
M  ISO  4  34  14  35  14  36  14  37  14
M  END
>  <minimizedAffinity>  (1) 
-5.93132734

>  <minimizedRMSD>  (1) 
0.348824233

$$$$
