
     RDKit          3D

 36 39  0  0  0  0  0  0  0  0999 V2000
   38.4480   28.3580   43.2570 C   0  0  0  0  0  0  0  0  0  0  0  0
   38.1660   27.1430   42.5970 C   0  0  0  0  0  0  0  0  0  0  0  0
   37.2560   27.2210   41.5390 C   0  0  0  0  0  0  0  0  0  0  0  0
   36.7110   28.4250   41.2160 N   0  0  0  0  0  0  0  0  0  0  0  0
   37.0170   29.5350   41.8750 C   0  0  0  0  0  0  0  0  0  0  0  0
   37.8880   29.5060   42.9010 N   0  0  0  0  0  0  0  0  0  0  0  0
   36.9570   25.9590   40.8460 C   0  0  0  0  0  0  0  0  0  0  0  0
   37.0440   24.7570   41.7290 C   0  0  0  0  0  0  0  0  0  0  0  0
   37.1130   23.5670   40.8090 C   0  0  0  0  0  0  0  0  0  0  0  0
   36.1900   23.2710   39.8240 C   0  0  0  0  0  0  0  0  0  0  0  0
   36.5960   22.1070   39.1970 C   0  0  0  0  0  0  0  0  0  0  0  0
   37.7670   21.7450   39.8440 C   0  0  0  0  0  0  0  0  0  0  0  0
   38.0350   22.6240   40.7790 O   0  0  0  0  0  0  0  0  0  0  0  0
   36.3500   30.6180   41.3770 O   0  0  0  0  0  0  0  0  0  0  0  0
   36.9950   31.5010   40.5100 C   0  0  0  0  0  0  0  0  0  0  0  0
   36.8720   31.6530   39.1570 N   0  0  0  0  0  0  0  0  0  0  0  0
   37.6840   32.6180   38.7730 O   0  0  0  0  0  0  0  0  0  0  0  0
   38.3050   33.0630   39.8620 C   0  0  0  0  0  0  0  0  0  0  0  0
   37.8970   32.3930   40.9330 N   0  0  0  0  0  0  0  0  0  0  0  0
   39.2840   34.1360   39.8200 C   0  0  0  0  0  0  0  0  0  0  0  0
   39.0780   35.4510   40.2120 C   0  0  0  0  0  0  0  0  0  0  0  0
   40.2190   36.1690   40.0300 C   0  0  0  0  0  0  0  0  0  0  0  0
   41.1280   35.2450   39.5120 C   0  0  0  0  0  0  0  0  0  0  0  0
   40.5230   34.0930   39.4170 O   0  0  0  0  0  0  0  0  0  0  0  0
   39.1580   28.3526   44.0971 H   0  0  0  0  0  0  0  0  0  0  0  0
   38.6334   26.1934   42.8966 H   0  0  0  0  0  0  0  0  0  0  0  0
   35.9367   26.0188   40.4394 H   0  0  0  0  0  0  0  0  0  0  0  0
   37.7147   25.8361   40.0580 H   0  0  0  0  0  0  0  0  0  0  0  0
   37.9467   24.8081   42.3555 H   0  0  0  0  0  0  0  0  0  0  0  0
   36.1792   24.6921   42.4057 H   0  0  0  0  0  0  0  0  0  0  0  0
   35.2915   23.8574   39.5816 H   0  0  0  0  0  0  0  0  0  0  0  0
   36.0987   21.5835   38.3671 H   0  0  0  0  0  0  0  0  0  0  0  0
   38.3759   20.8593   39.6098 H   0  0  0  0  0  0  0  0  0  0  0  0
   38.1343   35.8524   40.6099 H   0  0  0  0  0  0  0  0  0  0  0  0
   40.3870   37.2351   40.2426 H   0  0  0  0  0  0  0  0  0  0  0  0
   42.1717   35.4519   39.2328 H   0  0  0  0  0  0  0  0  0  0  0  0
  2  1  2  0
  3  2  1  0
  4  3  2  0
  4  5  1  0
  5  6  2  0
  6  1  1  0
  7  3  1  0
  7  8  1  0
  9  8  1  0
 10  9  2  0
 11 10  1  0
 11 12  2  0
 12 13  1  0
 13  9  1  0
 14  5  1  0
 15 19  1  0
 15 14  1  0
 16 15  2  0
 17 16  1  0
 17 18  1  0
 18 19  2  0
 20 18  1  0
 20 21  2  0
 22 21  1  0
 23 22  2  0
 24 23  1  0
 24 20  1  0
  1 25  1  0
  2 26  1  0
  7 27  1  0
  7 28  1  0
  8 29  1  0
  8 30  1  0
 10 31  1  0
 11 32  1  0
 12 33  1  0
 21 34  1  0
 22 35  1  0
 23 36  1  0
M  ISO  8  25  14  26  14  27   8  28   8  29   8  30   8  31  14  32  14
M  ISO  4  33  14  34  14  35  14  36  14
M  END
>  <minimizedAffinity>  (1) 
-5.83074999

>  <minimizedRMSD>  (1) 
0.554588914

$$$$
