
     RDKit          3D

 42 45  0  0  0  0  0  0  0  0999 V2000
   38.2370   28.1870   43.1490 C   0  0  0  0  0  0  0  0  0  0  0  0
   37.9620   27.0640   42.3150 C   0  0  0  0  0  0  0  0  0  0  0  0
   37.1340   27.2670   41.2120 C   0  0  0  0  0  0  0  0  0  0  0  0
   36.6540   28.5100   41.0100 N   0  0  0  0  0  0  0  0  0  0  0  0
   36.9140   29.5430   41.7890 C   0  0  0  0  0  0  0  0  0  0  0  0
   37.7140   29.3900   42.8740 N   0  0  0  0  0  0  0  0  0  0  0  0
   36.9140   26.0650   40.4250 C   0  0  0  0  0  0  0  0  0  0  0  0
   37.9000   24.9740   40.6890 C   0  0  0  0  0  0  0  0  0  0  0  0
   37.2500   23.6490   40.9680 C   0  0  0  0  0  0  0  0  0  0  0  0
   35.9320   23.6490   40.1830 C   0  0  0  0  0  0  0  0  0  0  0  0
   36.2590   23.0000   38.8530 C   0  0  0  0  0  0  0  0  0  0  0  0
   37.4110   22.0860   39.1280 C   0  0  0  0  0  0  0  0  0  0  0  0
   37.9860   22.4570   40.4720 C   0  0  0  0  0  0  0  0  0  0  0  0
   36.3000   30.6820   41.3570 O   0  0  0  0  0  0  0  0  0  0  0  0
   36.9680   31.5520   40.5020 C   0  0  0  0  0  0  0  0  0  0  0  0
   36.8680   31.6770   39.1450 N   0  0  0  0  0  0  0  0  0  0  0  0
   37.6880   32.6310   38.7570 O   0  0  0  0  0  0  0  0  0  0  0  0
   38.2930   33.0990   39.8480 C   0  0  0  0  0  0  0  0  0  0  0  0
   37.8670   32.4510   40.9300 N   0  0  0  0  0  0  0  0  0  0  0  0
   39.2730   34.1660   39.8110 C   0  0  0  0  0  0  0  0  0  0  0  0
   39.0960   35.4770   40.2080 C   0  0  0  0  0  0  0  0  0  0  0  0
   40.2500   36.1870   40.0230 C   0  0  0  0  0  0  0  0  0  0  0  0
   41.1410   35.2590   39.4970 C   0  0  0  0  0  0  0  0  0  0  0  0
   40.5200   34.1210   39.4010 O   0  0  0  0  0  0  0  0  0  0  0  0
   38.8861   28.0647   44.0286 H   0  0  0  0  0  0  0  0  0  0  0  0
   38.3876   26.0735   42.5338 H   0  0  0  0  0  0  0  0  0  0  0  0
   36.9731   26.3338   39.3600 H   0  0  0  0  0  0  0  0  0  0  0  0
   35.9258   25.6753   40.7106 H   0  0  0  0  0  0  0  0  0  0  0  0
   38.5488   24.8672   39.8071 H   0  0  0  0  0  0  0  0  0  0  0  0
   38.4696   25.2561   41.5868 H   0  0  0  0  0  0  0  0  0  0  0  0
   37.1769   23.5640   42.0623 H   0  0  0  0  0  0  0  0  0  0  0  0
   35.1654   23.0683   40.7170 H   0  0  0  0  0  0  0  0  0  0  0  0
   35.5303   24.6651   40.0559 H   0  0  0  0  0  0  0  0  0  0  0  0
   36.5413   23.7624   38.1121 H   0  0  0  0  0  0  0  0  0  0  0  0
   35.3960   22.4569   38.4403 H   0  0  0  0  0  0  0  0  0  0  0  0
   37.0643   21.0422   39.1450 H   0  0  0  0  0  0  0  0  0  0  0  0
   38.1754   22.1858   38.3433 H   0  0  0  0  0  0  0  0  0  0  0  0
   37.8616   21.6209   41.1759 H   0  0  0  0  0  0  0  0  0  0  0  0
   39.0598   22.6784   40.3825 H   0  0  0  0  0  0  0  0  0  0  0  0
   38.1612   35.8905   40.6145 H   0  0  0  0  0  0  0  0  0  0  0  0
   40.4316   37.2498   40.2408 H   0  0  0  0  0  0  0  0  0  0  0  0
   42.1857   35.4530   39.2126 H   0  0  0  0  0  0  0  0  0  0  0  0
  2  1  2  0
  3  2  1  0
  4  3  2  0
  4  5  1  0
  5  6  2  0
  6  1  1  0
  7  8  1  0
  7  3  1  0
  8  9  1  0
 10  9  1  0
 11 12  1  0
 11 10  1  0
 12 13  1  0
 13  9  1  0
 14  5  1  0
 15 19  1  0
 15 14  1  0
 16 15  2  0
 17 16  1  0
 17 18  1  0
 18 19  2  0
 20 18  1  0
 20 21  2  0
 22 21  1  0
 23 22  2  0
 24 23  1  0
 24 20  1  0
  1 25  1  0
  2 26  1  0
  7 27  1  0
  7 28  1  0
  8 29  1  0
  8 30  1  0
  9 31  1  0
 10 32  1  0
 10 33  1  0
 11 34  1  0
 11 35  1  0
 12 36  1  0
 12 37  1  0
 13 38  1  0
 13 39  1  0
 21 40  1  0
 22 41  1  0
 23 42  1  0
M  ISO  8  25  14  26  14  27   8  28   8  29   8  30   8  31  13  32  13
M  ISO  8  33  13  34  13  35  13  36  13  37  13  38  13  39  13  40  14
M  ISO  2  41  14  42  14
M  END
>  <minimizedAffinity>  (1) 
-5.77970362

>  <minimizedRMSD>  (1) 
0.9212237

$$$$
