
     RDKit          3D

 52 56  0  0  0  0  0  0  0  0999 V2000
   37.4700   28.6220   43.8860 C   0  0  0  0  0  0  0  0  0  0  0  0
   37.1130   27.2510   43.8210 C   0  0  0  0  0  0  0  0  0  0  0  0
   36.9450   26.6720   42.5560 C   0  0  0  0  0  0  0  0  0  0  0  0
   37.1390   27.4710   41.4710 N   0  0  0  0  0  0  0  0  0  0  0  0
   37.4740   28.7630   41.5540 C   0  0  0  0  0  0  0  0  0  0  0  0
   37.6410   29.3440   42.7650 N   0  0  0  0  0  0  0  0  0  0  0  0
   37.6410   29.4830   40.3400 N   0  0  0  0  0  0  0  0  0  0  0  0
   37.4970   28.9070   39.1440 C   0  0  0  0  0  0  0  0  0  0  0  0
   37.6850   29.7210   38.0680 C   0  0  0  0  0  0  0  0  0  0  0  0
   38.0060   31.0640   38.1600 C   0  0  0  0  0  0  0  0  0  0  0  0
   38.1800   31.8190   37.1600 O   0  0  0  0  0  0  0  0  0  0  0  0
   38.1420   31.6060   39.3830 N   0  0  0  0  0  0  0  0  0  0  0  0
   37.9560   30.8000   40.4870 C   0  0  0  0  0  0  0  0  0  0  0  0
   38.0920   31.3490   41.6130 O   0  0  0  0  0  0  0  0  0  0  0  0
   38.4740   32.9860   39.5900 C   0  0  0  0  0  0  0  0  0  0  0  0
   37.7470   34.1490   39.7050 C   0  0  0  0  0  0  0  0  0  0  0  0
   38.6170   35.1740   39.8960 N   0  0  0  0  0  0  0  0  0  0  0  0
   39.8720   34.6830   39.9030 C   0  0  0  0  0  0  0  0  0  0  0  0
   41.0800   35.3350   40.0640 C   0  0  0  0  0  0  0  0  0  0  0  0
   42.2910   34.6310   40.0400 C   0  0  0  0  0  0  0  0  0  0  0  0
   42.2410   33.2800   39.8530 C   0  0  0  0  0  0  0  0  0  0  0  0
   41.0330   32.6480   39.6950 C   0  0  0  0  0  0  0  0  0  0  0  0
   39.8190   33.3190   39.7150 C   0  0  0  0  0  0  0  0  0  0  0  0
   37.5620   29.2300   36.6830 C   0  0  0  0  0  0  0  0  0  0  0  0
   36.2930   29.6200   36.1240 N   0  0  0  0  0  0  0  0  0  0  0  0
   36.2510   29.5870   34.6990 C   0  0  0  0  0  0  0  0  0  0  0  0
   35.6600   28.3400   34.0930 C   0  0  0  0  0  0  0  0  0  0  0  0
   34.2970   28.0140   34.6550 C   0  0  0  0  0  0  0  0  0  0  0  0
   33.9840   28.7500   35.9260 C   0  0  0  0  0  0  0  0  0  0  0  0
   35.1680   29.0380   36.7840 C   0  0  0  0  0  0  0  0  0  0  0  0
   37.6088   29.1009   44.8665 H   0  0  0  0  0  0  0  0  0  0  0  0
   36.9720   26.6591   44.7374 H   0  0  0  0  0  0  0  0  0  0  0  0
   36.6673   25.6135   42.4441 H   0  0  0  0  0  0  0  0  0  0  0  0
   37.2426   27.8424   39.0345 H   0  0  0  0  0  0  0  0  0  0  0  0
   36.6516   34.2335   39.6515 H   0  0  0  0  0  0  0  0  0  0  0  0
   38.3599   36.1642   40.0158 H   0  0  0  0  0  0  0  0  0  0  0  0
   41.0907   36.4247   40.2135 H   0  0  0  0  0  0  0  0  0  0  0  0
   43.2520   35.1508   40.1679 H   0  0  0  0  0  0  0  0  0  0  0  0
   43.1725   32.6954   39.8288 H   0  0  0  0  0  0  0  0  0  0  0  0
   41.0272   31.5582   39.5455 H   0  0  0  0  0  0  0  0  0  0  0  0
   38.3729   29.6559   36.0739 H   0  0  0  0  0  0  0  0  0  0  0  0
   37.6289   28.1320   36.6859 H   0  0  0  0  0  0  0  0  0  0  0  0
   35.6529   30.4450   34.3582 H   0  0  0  0  0  0  0  0  0  0  0  0
   37.2992   29.6151   34.3666 H   0  0  0  0  0  0  0  0  0  0  0  0
   36.3357   27.4956   34.2942 H   0  0  0  0  0  0  0  0  0  0  0  0
   35.5430   28.5161   33.0135 H   0  0  0  0  0  0  0  0  0  0  0  0
   33.5380   28.2774   33.9037 H   0  0  0  0  0  0  0  0  0  0  0  0
   34.2922   26.9399   34.8923 H   0  0  0  0  0  0  0  0  0  0  0  0
   33.5116   29.7073   35.6607 H   0  0  0  0  0  0  0  0  0  0  0  0
   33.3262   28.0923   36.5131 H   0  0  0  0  0  0  0  0  0  0  0  0
   35.4958   28.0895   37.2346 H   0  0  0  0  0  0  0  0  0  0  0  0
   34.8303   29.7896   37.5127 H   0  0  0  0  0  0  0  0  0  0  0  0
  2  1  2  0
  3  2  1  0
  4  5  1  0
  4  3  2  0
  5  6  2  0
  6  1  1  0
  7 13  1  0
  7  5  1  0
  8  7  1  0
  9 10  1  0
  9  8  2  0
 10 12  1  0
 11 10  2  0
 12 15  1  0
 12 13  1  0
 13 14  2  0
 15 16  2  0
 15 23  1  0
 16 17  1  0
 17 18  1  0
 18 19  2  0
 20 19  1  0
 21 20  2  0
 22 23  2  0
 22 21  1  0
 23 18  1  0
 24  9  1  0
 25 24  1  0
 25 30  1  0
 26 25  1  0
 27 28  1  0
 27 26  1  0
 28 29  1  0
 29 30  1  0
  1 31  1  0
  2 32  1  0
  3 33  1  0
  8 34  1  0
 16 35  1  0
 17 36  1  0
 19 37  1  0
 20 38  1  0
 21 39  1  0
 22 40  1  0
 24 41  1  0
 24 42  1  0
 26 43  1  0
 26 44  1  0
 27 45  1  0
 27 46  1  0
 28 47  1  0
 28 48  1  0
 29 49  1  0
 29 50  1  0
 30 51  1  0
 30 52  1  0
M  ISO  8  31  14  32  14  33  14  34  14  35  14  36   9  37  14  38  14
M  ISO  8  39  14  40  14  41   8  42   8  43  13  44  13  45  13  46  13
M  ISO  6  47  13  48  13  49  13  50  13  51  13  52  13
M  END
>  <minimizedAffinity>  (1) 
-6.70619917

>  <minimizedRMSD>  (1) 
0.669537485

$$$$
