
     RDKit          3D

 40 43  0  0  0  0  0  0  0  0999 V2000
   36.9330   31.4540   40.3670 C   0  0  0  0  0  0  0  0  0  0  0  0
   37.0000   31.7680   39.0220 N   0  0  0  0  0  0  0  0  0  0  0  0
   37.8750   32.7300   38.8640 O   0  0  0  0  0  0  0  0  0  0  0  0
   38.3520   33.0250   40.0390 C   0  0  0  0  0  0  0  0  0  0  0  0
   37.7950   32.2590   40.9900 N   0  0  0  0  0  0  0  0  0  0  0  0
   39.3560   34.0510   40.2820 C   0  0  0  0  0  0  0  0  0  0  0  0
   39.2510   35.4090   40.1070 C   0  0  0  0  0  0  0  0  0  0  0  0
   40.4220   36.0340   40.4510 C   0  0  0  0  0  0  0  0  0  0  0  0
   41.2450   34.9900   40.8430 C   0  0  0  0  0  0  0  0  0  0  0  0
   40.5880   33.9020   40.7250 O   0  0  0  0  0  0  0  0  0  0  0  0
   42.6240   35.1190   41.3090 C   0  0  0  0  0  0  0  0  0  0  0  0
   42.9070   35.9650   42.3600 C   0  0  0  0  0  0  0  0  0  0  0  0
   44.1910   36.1220   42.8350 C   0  0  0  0  0  0  0  0  0  0  0  0
   45.2460   35.4290   42.2660 C   0  0  0  0  0  0  0  0  0  0  0  0
   44.9150   34.5820   41.2020 C   0  0  0  0  0  0  0  0  0  0  0  0
   43.6390   34.4050   40.7060 C   0  0  0  0  0  0  0  0  0  0  0  0
   36.1550   30.5040   41.0410 O   0  0  0  0  0  0  0  0  0  0  0  0
   38.0420   28.2750   43.2170 C   0  0  0  0  0  0  0  0  0  0  0  0
   37.8340   27.0620   42.4850 C   0  0  0  0  0  0  0  0  0  0  0  0
   37.0770   27.1200   41.3310 C   0  0  0  0  0  0  0  0  0  0  0  0
   36.5780   28.3180   40.9610 N   0  0  0  0  0  0  0  0  0  0  0  0
   36.7670   29.4390   41.6340 C   0  0  0  0  0  0  0  0  0  0  0  0
   37.5080   29.4320   42.7800 N   0  0  0  0  0  0  0  0  0  0  0  0
   36.9480   25.8310   40.6950 C   0  0  0  0  0  0  0  0  0  0  0  0
   36.9880   24.6530   41.5730 C   0  0  0  0  0  0  0  0  0  0  0  0
   37.8250   23.2370   40.7720 S   0  0  0  0  0  0  0  0  0  0  0  0
   38.3509   35.9247   39.7410 H   0  0  0  0  0  0  0  0  0  0  0  0
   40.6533   37.1090   40.4226 H   0  0  0  0  0  0  0  0  0  0  0  0
   42.0880   36.5284   42.8309 H   0  0  0  0  0  0  0  0  0  0  0  0
   44.3799   36.8057   43.6758 H   0  0  0  0  0  0  0  0  0  0  0  0
   46.2793   35.5373   42.6274 H   0  0  0  0  0  0  0  0  0  0  0  0
   45.7303   34.0167   40.7269 H   0  0  0  0  0  0  0  0  0  0  0  0
   43.4399   33.7236   39.8657 H   0  0  0  0  0  0  0  0  0  0  0  0
   38.6403   28.2620   44.1400 H   0  0  0  0  0  0  0  0  0  0  0  0
   38.2648   26.1111   42.8318 H   0  0  0  0  0  0  0  0  0  0  0  0
   35.9854   25.8171   40.1628 H   0  0  0  0  0  0  0  0  0  0  0  0
   37.8330   25.7387   40.0483 H   0  0  0  0  0  0  0  0  0  0  0  0
   37.5310   24.9133   42.4936 H   0  0  0  0  0  0  0  0  0  0  0  0
   35.9522   24.3568   41.7953 H   0  0  0  0  0  0  0  0  0  0  0  0
   38.3217   22.3967   41.7333 H   0  0  0  0  0  0  0  0  0  0  0  0
  1  5  1  0
  1 17  1  0
  2  1  2  0
  3  2  1  0
  3  4  1  0
  4  6  1  0
  4  5  2  0
  6 10  1  0
  7  6  2  0
  7  8  1  0
  8  9  2  0
  9 11  1  0
 10  9  1  0
 11 12  2  0
 12 13  1  0
 14 13  2  0
 15 14  1  0
 16 15  2  0
 16 11  1  0
 17 22  1  0
 19 18  2  0
 20 19  1  0
 21 20  2  0
 21 22  1  0
 22 23  2  0
 23 18  1  0
 24 20  1  0
 24 25  1  0
 26 25  1  0
  7 27  1  0
  8 28  1  0
 12 29  1  0
 13 30  1  0
 14 31  1  0
 15 32  1  0
 16 33  1  0
 18 34  1  0
 19 35  1  0
 24 36  1  0
 24 37  1  0
 25 38  1  0
 25 39  1  0
 26 40  1  0
M  ISO  8  27  14  28  14  29  14  30  14  31  14  32  14  33  14  34  14
M  ISO  6  35  14  36   8  37   8  38   8  39   8  40  11
M  END
>  <minimizedAffinity>  (1) 
-6.39262342

>  <minimizedRMSD>  (1) 
1.47333407

$$$$
