
     RDKit          3D

 37 40  0  0  0  0  0  0  0  0999 V2000
   36.2800   30.5060   41.3880 O   0  0  0  0  0  0  0  0  0  0  0  0
   38.1140   28.1120   43.4270 C   0  0  0  0  0  0  0  0  0  0  0  0
   37.8770   26.9520   42.6280 C   0  0  0  0  0  0  0  0  0  0  0  0
   37.1210   27.0890   41.4790 C   0  0  0  0  0  0  0  0  0  0  0  0
   36.6510   28.3210   41.1830 N   0  0  0  0  0  0  0  0  0  0  0  0
   36.8680   29.3960   41.9190 C   0  0  0  0  0  0  0  0  0  0  0  0
   37.6040   29.3080   43.0550 N   0  0  0  0  0  0  0  0  0  0  0  0
   36.9590   25.8420   40.7710 C   0  0  0  0  0  0  0  0  0  0  0  0
   36.9590   24.6160   41.5820 C   0  0  0  0  0  0  0  0  0  0  0  0
   37.8330   23.2460   40.7440 S   0  0  0  0  0  0  0  0  0  0  0  0
   37.0260   31.3370   40.5410 C   0  0  0  0  0  0  0  0  0  0  0  0
   36.8180   31.6630   39.2160 N   0  0  0  0  0  0  0  0  0  0  0  0
   37.7800   32.4780   38.8380 O   0  0  0  0  0  0  0  0  0  0  0  0
   38.5670   32.6640   39.8740 C   0  0  0  0  0  0  0  0  0  0  0  0
   38.1320   31.9790   40.9290 N   0  0  0  0  0  0  0  0  0  0  0  0
   39.7490   33.5110   39.8440 C   0  0  0  0  0  0  0  0  0  0  0  0
   39.7960   34.8890   39.9920 C   0  0  0  0  0  0  0  0  0  0  0  0
   41.1060   35.3160   39.9030 C   0  0  0  0  0  0  0  0  0  0  0  0
   41.8320   34.1560   39.6980 C   0  0  0  0  0  0  0  0  0  0  0  0
   41.0080   33.1610   39.6740 O   0  0  0  0  0  0  0  0  0  0  0  0
   43.2420   34.1490   39.5500 N   0  0  0  0  0  0  0  0  0  0  0  0
   44.1050   34.1950   40.5790 C   0  0  0  0  0  0  0  0  0  0  0  0
   45.3960   34.1710   40.0750 C   0  0  0  0  0  0  0  0  0  0  0  0
   45.2620   34.1100   38.7330 N   0  0  0  0  0  0  0  0  0  0  0  0
   43.9630   34.0960   38.3920 C   0  0  0  0  0  0  0  0  0  0  0  0
   38.7124   28.0324   44.3465 H   0  0  0  0  0  0  0  0  0  0  0  0
   38.2861   25.9735   42.9199 H   0  0  0  0  0  0  0  0  0  0  0  0
   36.0000   25.8861   40.2340 H   0  0  0  0  0  0  0  0  0  0  0  0
   37.8452   25.7602   40.1245 H   0  0  0  0  0  0  0  0  0  0  0  0
   37.4580   24.8232   42.5402 H   0  0  0  0  0  0  0  0  0  0  0  0
   35.9141   24.3097   41.7379 H   0  0  0  0  0  0  0  0  0  0  0  0
   38.3697   22.4047   41.6827 H   0  0  0  0  0  0  0  0  0  0  0  0
   38.9249   35.5407   40.1550 H   0  0  0  0  0  0  0  0  0  0  0  0
   41.4864   36.3454   39.9781 H   0  0  0  0  0  0  0  0  0  0  0  0
   43.8324   34.2436   41.6436 H   0  0  0  0  0  0  0  0  0  0  0  0
   46.3341   34.1964   40.6488 H   0  0  0  0  0  0  0  0  0  0  0  0
   43.5563   34.0504   37.3710 H   0  0  0  0  0  0  0  0  0  0  0  0
  1  6  1  0
  3  2  2  0
  4  3  1  0
  5  4  2  0
  5  6  1  0
  6  7  2  0
  7  2  1  0
  8  4  1  0
  8  9  1  0
 10  9  1  0
 11 15  1  0
 11  1  1  0
 12 11  2  0
 13 12  1  0
 13 14  1  0
 14 15  2  0
 16 14  1  0
 16 17  2  0
 18 17  1  0
 19 18  2  0
 20 19  1  0
 20 16  1  0
 21 19  1  0
 21 22  1  0
 23 22  2  0
 24 23  1  0
 25 24  2  0
 25 21  1  0
  2 26  1  0
  3 27  1  0
  8 28  1  0
  8 29  1  0
  9 30  1  0
  9 31  1  0
 10 32  1  0
 17 33  1  0
 18 34  1  0
 22 35  1  0
 23 36  1  0
 25 37  1  0
M  ISO  8  26  14  27  14  28   8  29   8  30   8  31   8  32  11  33  14
M  ISO  4  34  14  35  14  36  14  37  14
M  END
>  <minimizedAffinity>  (1) 
-5.56199026

>  <minimizedRMSD>  (1) 
1.01911831

$$$$
