
     RDKit          3D

 43 47  0  0  0  0  0  0  0  0999 V2000
   37.5890   28.6200   43.8820 C   0  0  0  0  0  0  0  0  0  0  0  0
   37.1550   27.2920   43.8310 C   0  0  0  0  0  0  0  0  0  0  0  0
   36.7900   26.7590   42.6070 C   0  0  0  0  0  0  0  0  0  0  0  0
   36.8740   27.5640   41.4980 N   0  0  0  0  0  0  0  0  0  0  0  0
   37.2980   28.8440   41.5760 C   0  0  0  0  0  0  0  0  0  0  0  0
   37.6540   29.3730   42.7610 N   0  0  0  0  0  0  0  0  0  0  0  0
   37.3490   29.5880   40.3700 N   0  0  0  0  0  0  0  0  0  0  0  0
   37.0060   29.0460   39.1890 C   0  0  0  0  0  0  0  0  0  0  0  0
   37.1120   29.8940   38.1130 C   0  0  0  0  0  0  0  0  0  0  0  0
   37.5290   31.2020   38.1710 C   0  0  0  0  0  0  0  0  0  0  0  0
   37.6210   31.9700   37.1820 O   0  0  0  0  0  0  0  0  0  0  0  0
   37.8610   31.6920   39.3940 N   0  0  0  0  0  0  0  0  0  0  0  0
   37.7680   30.8790   40.4850 C   0  0  0  0  0  0  0  0  0  0  0  0
   38.0890   31.3790   41.6040 O   0  0  0  0  0  0  0  0  0  0  0  0
   38.3120   33.0500   39.5830 C   0  0  0  0  0  0  0  0  0  0  0  0
   37.6690   34.2700   39.7410 C   0  0  0  0  0  0  0  0  0  0  0  0
   38.6170   35.2230   39.8830 N   0  0  0  0  0  0  0  0  0  0  0  0
   39.8370   34.6430   39.8200 C   0  0  0  0  0  0  0  0  0  0  0  0
   41.0980   35.1980   39.9120 C   0  0  0  0  0  0  0  0  0  0  0  0
   42.2510   34.4160   39.8210 C   0  0  0  0  0  0  0  0  0  0  0  0
   42.0870   33.0620   39.6360 C   0  0  0  0  0  0  0  0  0  0  0  0
   40.8230   32.5320   39.5470 C   0  0  0  0  0  0  0  0  0  0  0  0
   39.6730   33.2770   39.6330 C   0  0  0  0  0  0  0  0  0  0  0  0
   36.7720   29.4370   36.7540 C   0  0  0  0  0  0  0  0  0  0  0  0
   35.4810   28.6560   36.7470 C   0  0  0  0  0  0  0  0  0  0  0  0
   35.5040   27.2630   36.3670 C   0  0  0  0  0  0  0  0  0  0  0  0
   33.7550   26.8010   36.5180 S   0  0  0  0  0  0  0  0  0  0  0  0
   33.2720   28.5720   37.0740 C   0  0  0  0  0  0  0  0  0  0  0  0
   34.3550   29.2470   37.0860 N   0  0  0  0  0  0  0  0  0  0  0  0
   37.8816   29.0583   44.8475 H   0  0  0  0  0  0  0  0  0  0  0  0
   37.1046   26.6828   44.7455 H   0  0  0  0  0  0  0  0  0  0  0  0
   36.4421   25.7187   42.5249 H   0  0  0  0  0  0  0  0  0  0  0  0
   36.6667   28.0042   39.0913 H   0  0  0  0  0  0  0  0  0  0  0  0
   36.5811   34.4324   39.7492 H   0  0  0  0  0  0  0  0  0  0  0  0
   38.4389   36.2285   40.0175 H   0  0  0  0  0  0  0  0  0  0  0  0
   41.1966   36.2834   40.0607 H   0  0  0  0  0  0  0  0  0  0  0  0
   43.2525   34.8650   39.8944 H   0  0  0  0  0  0  0  0  0  0  0  0
   42.9664   32.4057   39.5596 H   0  0  0  0  0  0  0  0  0  0  0  0
   40.7264   31.4464   39.3980 H   0  0  0  0  0  0  0  0  0  0  0  0
   36.6648   30.3130   36.0974 H   0  0  0  0  0  0  0  0  0  0  0  0
   37.5782   28.7798   36.3961 H   0  0  0  0  0  0  0  0  0  0  0  0
   36.3602   26.6422   36.0643 H   0  0  0  0  0  0  0  0  0  0  0  0
   32.2651   28.9329   37.3306 H   0  0  0  0  0  0  0  0  0  0  0  0
  2  1  2  0
  3  2  1  0
  4  5  1  0
  4  3  2  0
  5  6  2  0
  6  1  1  0
  7 13  1  0
  7  5  1  0
  8  7  1  0
  9 10  1  0
  9  8  2  0
 10 12  1  0
 11 10  2  0
 12 15  1  0
 12 13  1  0
 13 14  2  0
 15 23  1  0
 15 16  2  0
 16 17  1  0
 18 17  1  0
 18 19  2  0
 20 19  1  0
 21 20  2  0
 22 23  2  0
 22 21  1  0
 23 18  1  0
 24  9  1  0
 25 24  1  0
 25 29  1  0
 26 27  1  0
 26 25  2  0
 27 28  1  0
 28 29  2  0
  1 30  1  0
  2 31  1  0
  3 32  1  0
  8 33  1  0
 16 34  1  0
 17 35  1  0
 19 36  1  0
 20 37  1  0
 21 38  1  0
 22 39  1  0
 24 40  1  0
 24 41  1  0
 26 42  1  0
 28 43  1  0
M  ISO  8  30  14  31  14  32  14  33  14  34  14  35   9  36  14  37  14
M  ISO  6  38  14  39  14  40   8  41   8  42  14  43  14
M  END
>  <minimizedAffinity>  (1) 
-6.52483177

>  <minimizedRMSD>  (1) 
0.795398116

$$$$
