
     RDKit          3D

 30 32  0  0  1  0  0  0  0  0999 V2000
   37.0750   30.1480   39.3930 C   0  0  2  0  0  0  0  0  0  0  0  0
   36.2070   30.1570   38.1670 C   0  0  0  0  0  0  0  0  0  0  0  0
   35.2270   29.0320   38.4140 C   0  0  0  0  0  0  0  0  0  0  0  0
   35.2810   28.7410   39.8710 C   0  0  0  0  0  0  0  0  0  0  0  0
   36.1140   29.8740   40.4920 C   0  0  1  0  0  0  0  0  0  0  0  0
   37.3910   32.5810   40.0620 C   0  0  0  0  0  0  0  0  0  0  0  0
   37.8550   31.3520   39.5790 C   0  0  0  0  0  0  0  0  0  0  0  0
   39.1990   31.2520   39.2260 C   0  0  0  0  0  0  0  0  0  0  0  0
   40.0060   32.3540   39.3640 N   0  0  0  0  0  0  0  0  0  0  0  0
   39.5210   33.5430   39.8380 C   0  0  0  0  0  0  0  0  0  0  0  0
   38.2000   33.6370   40.1850 N   0  0  0  0  0  0  0  0  0  0  0  0
   36.7220   29.1830   41.6700 C   0  0  0  0  0  0  0  0  0  0  0  0
   36.4910   27.8900   42.1050 C   0  0  0  0  0  0  0  0  0  0  0  0
   37.3120   27.7810   43.2260 C   0  0  0  0  0  0  0  0  0  0  0  0
   37.9590   28.9720   43.3890 C   0  0  0  0  0  0  0  0  0  0  0  0
   37.5990   29.8270   42.4380 O   0  0  0  0  0  0  0  0  0  0  0  0
   37.8698   29.3900   39.3324 H   0  0  0  0  0  0  0  0  0  0  0  0
   36.8034   29.9663   37.2626 H   0  0  0  0  0  0  0  0  0  0  0  0
   35.7119   31.1254   38.0020 H   0  0  0  0  0  0  0  0  0  0  0  0
   34.2117   29.3415   38.1252 H   0  0  0  0  0  0  0  0  0  0  0  0
   35.4829   28.1424   37.8198 H   0  0  0  0  0  0  0  0  0  0  0  0
   34.2673   28.7321   40.2980 H   0  0  0  0  0  0  0  0  0  0  0  0
   35.7248   27.7546   40.0714 H   0  0  0  0  0  0  0  0  0  0  0  0
   35.6413   30.8113   40.8207 H   0  0  0  0  0  0  0  0  0  0  0  0
   36.3333   32.6799   40.3476 H   0  0  0  0  0  0  0  0  0  0  0  0
   39.6071   30.3051   38.8428 H   0  0  0  0  0  0  0  0  0  0  0  0
   40.1856   34.4137   39.9390 H   0  0  0  0  0  0  0  0  0  0  0  0
   35.8219   27.1322   41.6714 H   0  0  0  0  0  0  0  0  0  0  0  0
   37.4196   26.8928   43.8659 H   0  0  0  0  0  0  0  0  0  0  0  0
   38.6763   29.1924   44.1933 H   0  0  0  0  0  0  0  0  0  0  0  0
  1  7  1  0
  1  5  1  0
  2  3  1  0
  2  1  1  0
  3  4  1  0
  4  5  1  0
  5 12  1  0
  6 11  2  0
  7  6  1  0
  8  9  1  0
  8  7  2  0
  9 10  2  0
 10 11  1  0
 12 13  2  0
 12 16  1  0
 13 14  1  0
 14 15  2  0
 16 15  1  0
  1 17  1  6
  2 18  1  0
  2 19  1  0
  3 20  1  0
  3 21  1  0
  4 22  1  0
  4 23  1  0
  5 24  1  1
  6 25  1  0
  8 26  1  0
 10 27  1  0
 13 28  1  0
 14 29  1  0
 15 30  1  0
M  ISO  8  17  13  18  13  19  13  20  13  21  13  22  13  23  13  24  13
M  ISO  6  25  14  26  14  27  14  28  14  29  14  30  14
M  END
>  <minimizedAffinity>  (1) 
-4.85384226

>  <minimizedRMSD>  (1) 
5.40918255

$$$$
