
     RDKit          3D

 44 48  0  0  0  0  0  0  0  0999 V2000
   37.5820   28.6210   43.8760 C   0  0  0  0  0  0  0  0  0  0  0  0
   37.1490   27.2930   43.8290 C   0  0  0  0  0  0  0  0  0  0  0  0
   36.7870   26.7560   42.5970 C   0  0  0  0  0  0  0  0  0  0  0  0
   36.8780   27.5590   41.5040 N   0  0  0  0  0  0  0  0  0  0  0  0
   37.2950   28.8310   41.5620 C   0  0  0  0  0  0  0  0  0  0  0  0
   37.6500   29.3710   42.7460 N   0  0  0  0  0  0  0  0  0  0  0  0
   37.3490   29.5750   40.3570 N   0  0  0  0  0  0  0  0  0  0  0  0
   37.0170   29.0400   39.1740 C   0  0  0  0  0  0  0  0  0  0  0  0
   37.1200   29.8800   38.1040 C   0  0  0  0  0  0  0  0  0  0  0  0
   37.5310   31.2000   38.1730 C   0  0  0  0  0  0  0  0  0  0  0  0
   37.6230   31.9700   37.1790 O   0  0  0  0  0  0  0  0  0  0  0  0
   37.8520   31.6880   39.3870 N   0  0  0  0  0  0  0  0  0  0  0  0
   37.7620   30.8780   40.4830 C   0  0  0  0  0  0  0  0  0  0  0  0
   38.0740   31.3810   41.5950 O   0  0  0  0  0  0  0  0  0  0  0  0
   38.2920   33.0440   39.5770 C   0  0  0  0  0  0  0  0  0  0  0  0
   37.6700   34.2620   39.7340 C   0  0  0  0  0  0  0  0  0  0  0  0
   38.6080   35.2220   39.8780 N   0  0  0  0  0  0  0  0  0  0  0  0
   39.8390   34.6350   39.8160 C   0  0  0  0  0  0  0  0  0  0  0  0
   41.0850   35.2000   39.9090 C   0  0  0  0  0  0  0  0  0  0  0  0
   42.2350   34.4280   39.8210 C   0  0  0  0  0  0  0  0  0  0  0  0
   42.0780   33.0720   39.6350 C   0  0  0  0  0  0  0  0  0  0  0  0
   40.8230   32.5320   39.5440 C   0  0  0  0  0  0  0  0  0  0  0  0
   39.6560   33.2840   39.6290 C   0  0  0  0  0  0  0  0  0  0  0  0
   36.7880   29.4310   36.7410 C   0  0  0  0  0  0  0  0  0  0  0  0
   35.5520   28.6750   36.6800 N   0  0  0  0  0  0  0  0  0  0  0  0
   35.5470   27.3650   36.4000 N   0  0  0  0  0  0  0  0  0  0  0  0
   34.2790   26.9150   36.4080 C   0  0  0  0  0  0  0  0  0  0  0  0
   33.4410   27.9710   36.7020 C   0  0  0  0  0  0  0  0  0  0  0  0
   34.2740   29.0530   36.8650 C   0  0  0  0  0  0  0  0  0  0  0  0
   37.8713   29.0642   44.8403 H   0  0  0  0  0  0  0  0  0  0  0  0
   37.0955   26.6860   44.7448 H   0  0  0  0  0  0  0  0  0  0  0  0
   36.4388   25.7162   42.5107 H   0  0  0  0  0  0  0  0  0  0  0  0
   36.6846   27.9963   39.0728 H   0  0  0  0  0  0  0  0  0  0  0  0
   36.5824   34.4267   39.7410 H   0  0  0  0  0  0  0  0  0  0  0  0
   38.4259   36.2269   40.0119 H   0  0  0  0  0  0  0  0  0  0  0  0
   41.1748   36.2864   40.0562 H   0  0  0  0  0  0  0  0  0  0  0  0
   43.2342   34.8817   39.8969 H   0  0  0  0  0  0  0  0  0  0  0  0
   42.9622   32.4221   39.5595 H   0  0  0  0  0  0  0  0  0  0  0  0
   40.7329   31.4458   39.3958 H   0  0  0  0  0  0  0  0  0  0  0  0
   36.6904   30.3155   36.0943 H   0  0  0  0  0  0  0  0  0  0  0  0
   37.5979   28.7660   36.4067 H   0  0  0  0  0  0  0  0  0  0  0  0
   33.9635   25.8794   36.2130 H   0  0  0  0  0  0  0  0  0  0  0  0
   32.3445   27.9516   36.7875 H   0  0  0  0  0  0  0  0  0  0  0  0
   33.9450   30.0737   37.1098 H   0  0  0  0  0  0  0  0  0  0  0  0
  2  1  2  0
  3  2  1  0
  4  5  1  0
  4  3  2  0
  5  6  2  0
  6  1  1  0
  7 13  1  0
  7  5  1  0
  8  7  1  0
  9 10  1  0
  9  8  2  0
 10 12  1  0
 11 10  2  0
 12 15  1  0
 12 13  1  0
 13 14  2  0
 15 23  1  0
 15 16  2  0
 16 17  1  0
 18 17  1  0
 18 19  2  0
 20 19  1  0
 21 20  2  0
 22 23  2  0
 22 21  1  0
 23 18  1  0
 24  9  1  0
 25 24  1  0
 25 29  1  0
 26 27  2  0
 26 25  1  0
 27 28  1  0
 28 29  2  0
  1 30  1  0
  2 31  1  0
  3 32  1  0
  8 33  1  0
 16 34  1  0
 17 35  1  0
 19 36  1  0
 20 37  1  0
 21 38  1  0
 22 39  1  0
 24 40  1  0
 24 41  1  0
 27 42  1  0
 28 43  1  0
 29 44  1  0
M  ISO  8  30  14  31  14  32  14  33  14  34  14  35   9  36  14  37  14
M  ISO  7  38  14  39  14  40   8  41   8  42  14  43  14  44  14
M  END
>  <minimizedAffinity>  (1) 
-6.45905256

>  <minimizedRMSD>  (1) 
0.807341397

$$$$
