
     RDKit          3D

 36 38  0  0  1  0  0  0  0  0999 V2000
   36.7820   29.1180   41.6170 C   0  0  2  0  0  0  0  0  0  0  0  0
   38.2210   29.2680   41.8160 C   0  0  0  0  0  0  0  0  0  0  0  0
   38.3900   28.7770   43.2660 C   0  0  0  0  0  0  0  0  0  0  0  0
   37.0840   28.0750   43.6240 C   0  0  0  0  0  0  0  0  0  0  0  0
   36.4860   27.7640   42.2440 C   0  0  2  0  0  0  0  0  0  0  0  0
   37.0240   29.5150   39.1350 C   0  0  0  0  0  0  0  0  0  0  0  0
   36.2440   29.2210   40.2820 C   0  0  0  0  0  0  0  0  0  0  0  0
   34.8710   29.0080   40.1220 C   0  0  0  0  0  0  0  0  0  0  0  0
   34.3630   29.0970   38.8670 N   0  0  0  0  0  0  0  0  0  0  0  0
   35.1220   29.3810   37.7650 C   0  0  0  0  0  0  0  0  0  0  0  0
   36.4680   29.5900   37.9180 N   0  0  0  0  0  0  0  0  0  0  0  0
   37.3470   26.6560   41.7340 C   0  0  0  0  0  0  0  0  0  0  0  0
   36.9940   26.0550   40.4330 C   0  0  0  0  0  0  0  0  0  0  0  0
   37.6500   24.6680   40.5560 C   0  0  0  0  0  0  0  0  0  0  0  0
   37.1230   24.2440   41.8980 C   0  0  0  0  0  0  0  0  0  0  0  0
   37.1750   25.5010   42.7030 C   0  0  0  0  0  0  0  0  0  0  0  0
   36.2772   29.9829   42.0721 H   0  0  0  0  0  0  0  0  0  0  0  0
   38.7902   28.6428   41.1123 H   0  0  0  0  0  0  0  0  0  0  0  0
   38.5907   30.2898   41.6452 H   0  0  0  0  0  0  0  0  0  0  0  0
   39.2337   28.0748   43.3364 H   0  0  0  0  0  0  0  0  0  0  0  0
   38.6024   29.6099   43.9525 H   0  0  0  0  0  0  0  0  0  0  0  0
   37.2714   27.1526   44.1933 H   0  0  0  0  0  0  0  0  0  0  0  0
   36.4224   28.6780   44.2633 H   0  0  0  0  0  0  0  0  0  0  0  0
   35.4404   27.4483   42.1136 H   0  0  0  0  0  0  0  0  0  0  0  0
   38.1051   29.6846   39.2461 H   0  0  0  0  0  0  0  0  0  0  0  0
   34.2262   28.7766   40.9826 H   0  0  0  0  0  0  0  0  0  0  0  0
   34.6583   29.4409   36.7693 H   0  0  0  0  0  0  0  0  0  0  0  0
   38.3422   27.1125   41.6283 H   0  0  0  0  0  0  0  0  0  0  0  0
   37.4181   26.6286   39.5957 H   0  0  0  0  0  0  0  0  0  0  0  0
   35.9138   26.0267   40.2272 H   0  0  0  0  0  0  0  0  0  0  0  0
   37.3207   23.9890   39.7557 H   0  0  0  0  0  0  0  0  0  0  0  0
   38.7465   24.6663   40.4689 H   0  0  0  0  0  0  0  0  0  0  0  0
   36.0912   23.8715   41.8160 H   0  0  0  0  0  0  0  0  0  0  0  0
   37.7010   23.4226   42.3464 H   0  0  0  0  0  0  0  0  0  0  0  0
   38.0252   25.4657   43.4001 H   0  0  0  0  0  0  0  0  0  0  0  0
   36.2537   25.6227   43.2915 H   0  0  0  0  0  0  0  0  0  0  0  0
  1  2  1  0
  1  5  1  0
  2  3  1  0
  3  4  1  0
  5  4  1  0
  6  7  2  0
  7  1  1  0
  8  7  1  0
  9  8  2  0
 10 11  2  0
 10  9  1  0
 11  6  1  0
 12  5  1  0
 12 16  1  0
 13 14  1  0
 13 12  1  0
 14 15  1  0
 15 16  1  0
  1 17  1  1
  2 18  1  0
  2 19  1  0
  3 20  1  0
  3 21  1  0
  4 22  1  0
  4 23  1  0
  5 24  1  1
  6 25  1  0
  8 26  1  0
 10 27  1  0
 12 28  1  0
 13 29  1  0
 13 30  1  0
 14 31  1  0
 14 32  1  0
 15 33  1  0
 15 34  1  0
 16 35  1  0
 16 36  1  0
M  ISO  8  17  13  18  13  19  13  20  13  21  13  22  13  23  13  24  13
M  ISO  8  25  14  26  14  27  14  28  13  29  13  30  13  31  13  32  13
M  ISO  4  33  13  34  13  35  13  36  13
M  END
>  <minimizedAffinity>  (1) 
-4.71985435

>  <minimizedRMSD>  (1) 
3.6894505

$$$$
