
     RDKit          3D

 35 37  0  0  1  0  0  0  0  0999 V2000
   38.4470   26.9180   43.0210 C   0  0  2  0  0  0  0  0  0  0  0  0
   39.7050   27.1950   43.7640 C   0  0  0  0  0  0  0  0  0  0  0  0
   40.3680   25.8260   43.8700 C   0  0  0  0  0  0  0  0  0  0  0  0
   39.5260   24.9100   43.0260 C   0  0  0  0  0  0  0  0  0  0  0  0
   38.9410   25.9200   41.9910 C   0  0  1  0  0  0  0  0  0  0  0  0
   38.4720   29.3230   42.1350 C   0  0  0  0  0  0  0  0  0  0  0  0
   37.8360   28.0910   42.3810 C   0  0  0  0  0  0  0  0  0  0  0  0
   36.5080   27.9670   41.9710 C   0  0  0  0  0  0  0  0  0  0  0  0
   35.8970   29.0070   41.3700 N   0  0  0  0  0  0  0  0  0  0  0  0
   36.5410   30.1920   41.1440 C   0  0  0  0  0  0  0  0  0  0  0  0
   37.8430   30.3320   41.5390 N   0  0  0  0  0  0  0  0  0  0  0  0
   37.9730   25.2950   41.1870 N   0  0  0  0  0  0  0  0  0  0  0  0
   37.0260   24.4240   41.8270 C   0  0  0  0  0  0  0  0  0  0  0  0
   36.4210   23.7490   40.5790 C   0  0  0  0  0  0  0  0  0  0  0  0
   37.7270   23.3160   39.8980 C   0  0  0  0  0  0  0  0  0  0  0  0
   38.5760   24.5750   40.1130 C   0  0  0  0  0  0  0  0  0  0  0  0
   37.6380   26.5683   43.6792 H   0  0  0  0  0  0  0  0  0  0  0  0
   40.3427   27.8982   43.2082 H   0  0  0  0  0  0  0  0  0  0  0  0
   39.5283   27.6613   44.7445 H   0  0  0  0  0  0  0  0  0  0  0  0
   41.3978   25.8660   43.4853 H   0  0  0  0  0  0  0  0  0  0  0  0
   40.4304   25.4806   44.9125 H   0  0  0  0  0  0  0  0  0  0  0  0
   40.1358   24.1364   42.5364 H   0  0  0  0  0  0  0  0  0  0  0  0
   38.7684   24.3429   43.5867 H   0  0  0  0  0  0  0  0  0  0  0  0
   39.5857   26.3578   41.2146 H   0  0  0  0  0  0  0  0  0  0  0  0
   39.5193   29.4547   42.4447 H   0  0  0  0  0  0  0  0  0  0  0  0
   35.9631   27.0260   42.1373 H   0  0  0  0  0  0  0  0  0  0  0  0
   36.0175   31.0237   40.6498 H   0  0  0  0  0  0  0  0  0  0  0  0
   37.5189   23.6968   42.4890 H   0  0  0  0  0  0  0  0  0  0  0  0
   36.3020   24.9229   42.4880 H   0  0  0  0  0  0  0  0  0  0  0  0
   35.7851   22.8901   40.8397 H   0  0  0  0  0  0  0  0  0  0  0  0
   35.7523   24.3779   39.9730 H   0  0  0  0  0  0  0  0  0  0  0  0
   37.5779   23.1029   38.8292 H   0  0  0  0  0  0  0  0  0  0  0  0
   38.1681   22.3891   40.2934 H   0  0  0  0  0  0  0  0  0  0  0  0
   39.6077   24.2969   40.3745 H   0  0  0  0  0  0  0  0  0  0  0  0
   38.6172   25.1863   39.1995 H   0  0  0  0  0  0  0  0  0  0  0  0
  1  2  1  0
  2  3  1  0
  4  3  1  0
  5  1  1  0
  5  4  1  0
  6  7  2  0
  7  1  1  0
  8  7  1  0
  9  8  2  0
 10  9  1  0
 10 11  2  0
 11  6  1  0
 12 13  1  0
 12  5  1  0
 14 13  1  0
 15 16  1  0
 15 14  1  0
 16 12  1  0
  1 17  1  1
  2 18  1  0
  2 19  1  0
  3 20  1  0
  3 21  1  0
  4 22  1  0
  4 23  1  0
  5 24  1  6
  6 25  1  0
  8 26  1  0
 10 27  1  0
 13 28  1  0
 13 29  1  0
 14 30  1  0
 14 31  1  0
 15 32  1  0
 15 33  1  0
 16 34  1  0
 16 35  1  0
M  ISO  8  17  13  18  13  19  13  20  13  21  13  22  13  23  13  24  13
M  ISO  8  25  14  26  14  27  14  28  13  29  13  30  13  31  13  32  13
M  ISO  3  33  13  34  13  35  13
M  END
>  <minimizedAffinity>  (1) 
-4.55741835

>  <minimizedRMSD>  (1) 
0.945074379

$$$$
