
     RDKit          3D

 44 48  0  0  0  0  0  0  0  0999 V2000
   37.4360   28.5540   43.8520 C   0  0  0  0  0  0  0  0  0  0  0  0
   37.1180   27.1950   43.7870 C   0  0  0  0  0  0  0  0  0  0  0  0
   36.9920   26.6190   42.5260 C   0  0  0  0  0  0  0  0  0  0  0  0
   37.1810   27.3980   41.4340 N   0  0  0  0  0  0  0  0  0  0  0  0
   37.4880   28.7090   41.5250 C   0  0  0  0  0  0  0  0  0  0  0  0
   37.6180   29.3000   42.7350 N   0  0  0  0  0  0  0  0  0  0  0  0
   37.6660   29.4310   40.3110 N   0  0  0  0  0  0  0  0  0  0  0  0
   37.5530   28.8440   39.1120 C   0  0  0  0  0  0  0  0  0  0  0  0
   37.7530   29.6740   38.0430 C   0  0  0  0  0  0  0  0  0  0  0  0
   38.0520   31.0200   38.1300 C   0  0  0  0  0  0  0  0  0  0  0  0
   38.2340   31.7710   37.1520 O   0  0  0  0  0  0  0  0  0  0  0  0
   38.1550   31.5600   39.3670 N   0  0  0  0  0  0  0  0  0  0  0  0
   37.9580   30.7510   40.4620 C   0  0  0  0  0  0  0  0  0  0  0  0
   38.0660   31.3050   41.6010 O   0  0  0  0  0  0  0  0  0  0  0  0
   38.4650   32.9440   39.5800 C   0  0  0  0  0  0  0  0  0  0  0  0
   37.7270   34.1000   39.6930 C   0  0  0  0  0  0  0  0  0  0  0  0
   38.5850   35.1350   39.8910 N   0  0  0  0  0  0  0  0  0  0  0  0
   39.8540   34.6610   39.9070 C   0  0  0  0  0  0  0  0  0  0  0  0
   41.0560   35.3170   40.0730 C   0  0  0  0  0  0  0  0  0  0  0  0
   42.2590   34.6440   40.0560 C   0  0  0  0  0  0  0  0  0  0  0  0
   42.2280   33.2840   39.8660 C   0  0  0  0  0  0  0  0  0  0  0  0
   41.0220   32.6460   39.7020 C   0  0  0  0  0  0  0  0  0  0  0  0
   39.8100   33.2870   39.7130 C   0  0  0  0  0  0  0  0  0  0  0  0
   37.6640   29.1650   36.6670 C   0  0  0  0  0  0  0  0  0  0  0  0
   36.3640   29.2080   36.0780 N   0  0  0  0  0  0  0  0  0  0  0  0
   35.1490   28.7480   36.4220 C   0  0  0  0  0  0  0  0  0  0  0  0
   34.1650   29.0340   35.5070 C   0  0  0  0  0  0  0  0  0  0  0  0
   34.8100   29.7060   34.5500 N   0  0  0  0  0  0  0  0  0  0  0  0
   36.1180   29.8170   34.8770 C   0  0  0  0  0  0  0  0  0  0  0  0
   37.5416   29.0319   44.8371 H   0  0  0  0  0  0  0  0  0  0  0  0
   36.9722   26.6006   44.7010 H   0  0  0  0  0  0  0  0  0  0  0  0
   36.7440   25.5527   42.4184 H   0  0  0  0  0  0  0  0  0  0  0  0
   37.3173   27.7758   38.9959 H   0  0  0  0  0  0  0  0  0  0  0  0
   36.6311   34.1736   39.6333 H   0  0  0  0  0  0  0  0  0  0  0  0
   38.3140   36.1216   40.0098 H   0  0  0  0  0  0  0  0  0  0  0  0
   41.0546   36.4067   40.2230 H   0  0  0  0  0  0  0  0  0  0  0  0
   43.2113   35.1780   40.1900 H   0  0  0  0  0  0  0  0  0  0  0  0
   43.1648   32.7079   39.8452 H   0  0  0  0  0  0  0  0  0  0  0  0
   41.0294   31.5562   39.5530 H   0  0  0  0  0  0  0  0  0  0  0  0
   38.3402   29.7644   36.0397 H   0  0  0  0  0  0  0  0  0  0  0  0
   37.9358   28.1005   36.7209 H   0  0  0  0  0  0  0  0  0  0  0  0
   34.9595   28.1926   37.3524 H   0  0  0  0  0  0  0  0  0  0  0  0
   33.0977   28.7715   35.5520 H   0  0  0  0  0  0  0  0  0  0  0  0
   36.8770   30.3251   34.2641 H   0  0  0  0  0  0  0  0  0  0  0  0
  2  1  2  0
  3  2  1  0
  4  5  1  0
  4  3  2  0
  5  6  2  0
  6  1  1  0
  7 13  1  0
  7  5  1  0
  8  7  1  0
  9 10  1  0
  9  8  2  0
 10 12  1  0
 11 10  2  0
 12 15  1  0
 12 13  1  0
 13 14  2  0
 15 16  2  0
 15 23  1  0
 16 17  1  0
 17 18  1  0
 18 19  2  0
 20 19  1  0
 21 20  2  0
 22 23  2  0
 22 21  1  0
 23 18  1  0
 24  9  1  0
 25 26  1  0
 25 24  1  0
 27 26  2  0
 28 29  2  0
 28 27  1  0
 29 25  1  0
  1 30  1  0
  2 31  1  0
  3 32  1  0
  8 33  1  0
 16 34  1  0
 17 35  1  0
 19 36  1  0
 20 37  1  0
 21 38  1  0
 22 39  1  0
 24 40  1  0
 24 41  1  0
 26 42  1  0
 27 43  1  0
 29 44  1  0
M  ISO  8  30  14  31  14  32  14  33  14  34  14  35   9  36  14  37  14
M  ISO  7  38  14  39  14  40   8  41   8  42  14  43  14  44  14
M  END
>  <minimizedAffinity>  (1) 
-6.45024586

>  <minimizedRMSD>  (1) 
0.727916598

$$$$
