
     RDKit          3D

 35 36  0  0  1  0  0  0  0  0999 V2000
   38.4330   27.4860   42.9460 C   0  0  2  0  0  0  0  0  0  0  0  0
   39.8000   27.8370   43.3120 C   0  0  0  0  0  0  0  0  0  0  0  0
   40.2450   26.5340   43.9690 C   0  0  0  0  0  0  0  0  0  0  0  0
   39.4210   25.4380   43.3260 C   0  0  0  0  0  0  0  0  0  0  0  0
   38.5160   26.1420   42.3230 C   0  0  2  0  0  0  0  0  0  0  0  0
   38.0690   29.7570   41.8950 C   0  0  0  0  0  0  0  0  0  0  0  0
   37.6370   28.4360   42.2140 C   0  0  0  0  0  0  0  0  0  0  0  0
   36.3470   28.0020   41.7950 C   0  0  0  0  0  0  0  0  0  0  0  0
   35.5990   28.8890   41.1100 N   0  0  0  0  0  0  0  0  0  0  0  0
   36.0310   30.1530   40.8120 C   0  0  0  0  0  0  0  0  0  0  0  0
   37.2720   30.5690   41.2160 N   0  0  0  0  0  0  0  0  0  0  0  0
   39.0130   25.9540   40.9580 C   0  0  0  0  0  0  0  0  0  0  0  0
   39.8000   27.2080   40.5940 C   0  0  0  0  0  0  0  0  0  0  0  0
   37.9640   25.8530   39.8680 C   0  0  0  0  0  0  0  0  0  0  0  0
   39.9720   24.8210   40.7340 C   0  0  0  0  0  0  0  0  0  0  0  0
   37.8333   27.4930   43.8681 H   0  0  0  0  0  0  0  0  0  0  0  0
   40.4097   28.0770   42.4285 H   0  0  0  0  0  0  0  0  0  0  0  0
   39.8933   28.7301   43.9473 H   0  0  0  0  0  0  0  0  0  0  0  0
   41.3164   26.3619   43.7890 H   0  0  0  0  0  0  0  0  0  0  0  0
   40.0971   26.5619   45.0587 H   0  0  0  0  0  0  0  0  0  0  0  0
   40.0744   24.7166   42.8135 H   0  0  0  0  0  0  0  0  0  0  0  0
   38.8415   24.8735   44.0713 H   0  0  0  0  0  0  0  0  0  0  0  0
   37.4934   25.7744   42.1523 H   0  0  0  0  0  0  0  0  0  0  0  0
   39.0640   30.1019   42.2127 H   0  0  0  0  0  0  0  0  0  0  0  0
   35.9786   26.9903   42.0200 H   0  0  0  0  0  0  0  0  0  0  0  0
   35.3802   30.8364   40.2468 H   0  0  0  0  0  0  0  0  0  0  0  0
   40.1209   27.7193   41.5136 H   0  0  0  0  0  0  0  0  0  0  0  0
   40.6842   26.9273   40.0029 H   0  0  0  0  0  0  0  0  0  0  0  0
   39.1627   27.8822   40.0029 H   0  0  0  0  0  0  0  0  0  0  0  0
   36.9681   25.7571   40.3253 H   0  0  0  0  0  0  0  0  0  0  0  0
   37.9953   26.7583   39.2440 H   0  0  0  0  0  0  0  0  0  0  0  0
   38.1675   24.9703   39.2440 H   0  0  0  0  0  0  0  0  0  0  0  0
   40.3062   24.4261   41.7048 H   0  0  0  0  0  0  0  0  0  0  0  0
   39.4707   24.0231   40.1665 H   0  0  0  0  0  0  0  0  0  0  0  0
   40.8418   25.1836   40.1665 H   0  0  0  0  0  0  0  0  0  0  0  0
  1  2  1  0
  2  3  1  0
  4  3  1  0
  5  1  1  0
  5  4  1  0
  6  7  2  0
  7  1  1  0
  8  7  1  0
  9  8  2  0
 10  9  1  0
 10 11  2  0
 11  6  1  0
 12  5  1  0
 13 12  1  0
 14 12  1  0
 15 12  1  0
  1 16  1  1
  2 17  1  0
  2 18  1  0
  3 19  1  0
  3 20  1  0
  4 21  1  0
  4 22  1  0
  5 23  1  6
  6 24  1  0
  8 25  1  0
 10 26  1  0
 13 27  1  0
 13 28  1  0
 13 29  1  0
 14 30  1  0
 14 31  1  0
 14 32  1  0
 15 33  1  0
 15 34  1  0
 15 35  1  0
M  ISO  8  16  13  17  13  18  13  19  13  20  13  21  13  22  13  23  13
M  ISO  8  24  14  25  14  26  14  27   8  28   8  29   8  30   8  31   8
M  ISO  4  32   8  33   8  34   8  35   8
M  END
>  <minimizedAffinity>  (1) 
-4.15406847

>  <minimizedRMSD>  (1) 
0.546386302

$$$$
