
     RDKit          3D

 30 32  0  0  1  0  0  0  0  0999 V2000
   38.6450   26.9940   43.2160 C   0  0  2  0  0  0  0  0  0  0  0  0
   39.9730   27.2890   43.7250 C   0  0  0  0  0  0  0  0  0  0  0  0
   40.6580   25.9270   43.8530 C   0  0  0  0  0  0  0  0  0  0  0  0
   39.6620   24.9040   43.3210 C   0  0  0  0  0  0  0  0  0  0  0  0
   38.8020   25.7500   42.3960 C   0  0  2  0  0  0  0  0  0  0  0  0
   38.4010   29.3210   42.3020 C   0  0  0  0  0  0  0  0  0  0  0  0
   37.9010   28.0130   42.5190 C   0  0  0  0  0  0  0  0  0  0  0  0
   36.6240   27.7190   42.0410 C   0  0  0  0  0  0  0  0  0  0  0  0
   35.9290   28.6980   41.3960 N   0  0  0  0  0  0  0  0  0  0  0  0
   36.4380   29.9500   41.2030 C   0  0  0  0  0  0  0  0  0  0  0  0
   37.6910   30.2500   41.6670 N   0  0  0  0  0  0  0  0  0  0  0  0
   39.3290   25.8890   41.0960 N   0  0  0  0  0  0  0  0  0  0  0  0
   40.3890   26.5140   40.5900 C   0  0  0  0  0  0  0  0  0  0  0  0
   40.4750   26.3470   39.2280 C   0  0  0  0  0  0  0  0  0  0  0  0
   39.4110   25.5880   38.9400 N   0  0  0  0  0  0  0  0  0  0  0  0
   38.7040   25.2970   40.0440 C   0  0  0  0  0  0  0  0  0  0  0  0
   37.9940   26.8908   44.0967 H   0  0  0  0  0  0  0  0  0  0  0  0
   40.5220   27.9337   43.0229 H   0  0  0  0  0  0  0  0  0  0  0  0
   39.9385   27.8265   44.6841 H   0  0  0  0  0  0  0  0  0  0  0  0
   41.5822   25.9065   43.2568 H   0  0  0  0  0  0  0  0  0  0  0  0
   40.9373   25.7130   44.8952 H   0  0  0  0  0  0  0  0  0  0  0  0
   40.1712   24.1003   42.7690 H   0  0  0  0  0  0  0  0  0  0  0  0
   39.0920   24.3895   44.1086 H   0  0  0  0  0  0  0  0  0  0  0  0
   37.8287   25.3158   42.1237 H   0  0  0  0  0  0  0  0  0  0  0  0
   39.4060   29.5759   42.6694 H   0  0  0  0  0  0  0  0  0  0  0  0
   36.1875   26.7191   42.1815 H   0  0  0  0  0  0  0  0  0  0  0  0
   35.8451   30.7133   40.6778 H   0  0  0  0  0  0  0  0  0  0  0  0
   41.1081   27.0931   41.1879 H   0  0  0  0  0  0  0  0  0  0  0  0
   41.2363   26.7426   38.5396 H   0  0  0  0  0  0  0  0  0  0  0  0
   37.7872   24.6908   40.0888 H   0  0  0  0  0  0  0  0  0  0  0  0
  1  2  1  0
  2  3  1  0
  4  3  1  0
  5  1  1  0
  5  4  1  0
  6  7  2  0
  7  1  1  0
  8  7  1  0
  9  8  2  0
 10  9  1  0
 10 11  2  0
 11  6  1  0
 12  5  1  0
 13 12  1  0
 14 13  2  0
 15 14  1  0
 15 16  2  0
 16 12  1  0
  1 17  1  1
  2 18  1  0
  2 19  1  0
  3 20  1  0
  3 21  1  0
  4 22  1  0
  4 23  1  0
  5 24  1  6
  6 25  1  0
  8 26  1  0
 10 27  1  0
 13 28  1  0
 14 29  1  0
 16 30  1  0
M  ISO  8  17  13  18  13  19  13  20  13  21  13  22  13  23  13  24  13
M  ISO  6  25  14  26  14  27  14  28  14  29  14  30  14
M  END
>  <minimizedAffinity>  (1) 
-4.06427193

>  <minimizedRMSD>  (1) 
0.518402576

$$$$
