
     RDKit          3D

 39 42  0  0  0  0  0  0  0  0999 V2000
   37.5780   28.5920   43.7970 C   0  0  0  0  0  0  0  0  0  0  0  0
   37.1310   27.2650   43.7400 C   0  0  0  0  0  0  0  0  0  0  0  0
   36.7680   26.7530   42.5030 C   0  0  0  0  0  0  0  0  0  0  0  0
   36.8700   27.5740   41.4240 N   0  0  0  0  0  0  0  0  0  0  0  0
   37.3020   28.8400   41.5030 C   0  0  0  0  0  0  0  0  0  0  0  0
   37.6580   29.3590   42.6850 N   0  0  0  0  0  0  0  0  0  0  0  0
   37.3610   29.5950   40.2930 N   0  0  0  0  0  0  0  0  0  0  0  0
   37.0080   29.0670   39.1130 C   0  0  0  0  0  0  0  0  0  0  0  0
   37.1240   29.9250   38.0540 C   0  0  0  0  0  0  0  0  0  0  0  0
   37.5590   31.2290   38.1270 C   0  0  0  0  0  0  0  0  0  0  0  0
   37.6610   32.0070   37.1450 O   0  0  0  0  0  0  0  0  0  0  0  0
   37.9020   31.7050   39.3500 N   0  0  0  0  0  0  0  0  0  0  0  0
   37.7990   30.8750   40.4390 C   0  0  0  0  0  0  0  0  0  0  0  0
   38.1300   31.3690   41.5550 O   0  0  0  0  0  0  0  0  0  0  0  0
   38.3700   33.0530   39.5520 C   0  0  0  0  0  0  0  0  0  0  0  0
   37.7670   34.2680   39.7720 C   0  0  0  0  0  0  0  0  0  0  0  0
   38.7340   35.2080   39.8900 N   0  0  0  0  0  0  0  0  0  0  0  0
   39.9390   34.6140   39.7490 C   0  0  0  0  0  0  0  0  0  0  0  0
   41.2110   35.1500   39.7900 C   0  0  0  0  0  0  0  0  0  0  0  0
   42.3490   34.3630   39.6200 C   0  0  0  0  0  0  0  0  0  0  0  0
   42.1540   33.0250   39.4100 C   0  0  0  0  0  0  0  0  0  0  0  0
   40.8830   32.5070   39.3720 C   0  0  0  0  0  0  0  0  0  0  0  0
   39.7380   33.2690   39.5370 C   0  0  0  0  0  0  0  0  0  0  0  0
   36.7700   29.4790   36.6930 C   0  0  0  0  0  0  0  0  0  0  0  0
   37.8470   29.1420   35.8660 N   0  0  0  0  0  0  0  0  0  0  0  0
   37.8704   29.0197   44.7674 H   0  0  0  0  0  0  0  0  0  0  0  0
   37.0699   26.6481   44.6487 H   0  0  0  0  0  0  0  0  0  0  0  0
   36.4099   25.7182   42.3986 H   0  0  0  0  0  0  0  0  0  0  0  0
   36.6547   28.0309   39.0051 H   0  0  0  0  0  0  0  0  0  0  0  0
   36.6837   34.4463   39.8405 H   0  0  0  0  0  0  0  0  0  0  0  0
   38.5767   36.2117   40.0595 H   0  0  0  0  0  0  0  0  0  0  0  0
   41.3298   36.2300   39.9619 H   0  0  0  0  0  0  0  0  0  0  0  0
   43.3587   34.7982   39.6532 H   0  0  0  0  0  0  0  0  0  0  0  0
   43.0199   32.3610   39.2709 H   0  0  0  0  0  0  0  0  0  0  0  0
   40.7675   31.4265   39.2010 H   0  0  0  0  0  0  0  0  0  0  0  0
   36.1242   28.5933   36.7848 H   0  0  0  0  0  0  0  0  0  0  0  0
   36.2810   30.3395   36.2130 H   0  0  0  0  0  0  0  0  0  0  0  0
   38.6591   28.8879   36.4463 H   0  0  0  0  0  0  0  0  0  0  0  0
   37.5862   28.3424   35.2714 H   0  0  0  0  0  0  0  0  0  0  0  0
  2  1  2  0
  3  2  1  0
  4  5  1  0
  4  3  2  0
  5  6  2  0
  6  1  1  0
  7 13  1  0
  7  5  1  0
  8  7  1  0
  9 10  1  0
  9  8  2  0
 10 12  1  0
 11 10  2  0
 12 15  1  0
 12 13  1  0
 13 14  2  0
 15 16  2  0
 16 17  1  0
 18 19  2  0
 18 17  1  0
 20 19  1  0
 21 20  2  0
 22 21  1  0
 22 23  2  0
 23 15  1  0
 23 18  1  0
 24  9  1  0
 25 24  1  0
  1 26  1  0
  2 27  1  0
  3 28  1  0
  8 29  1  0
 16 30  1  0
 17 31  1  0
 19 32  1  0
 20 33  1  0
 21 34  1  0
 22 35  1  0
 24 36  1  0
 24 37  1  0
 25 38  1  0
 25 39  1  0
M  ISO  8  26  14  27  14  28  14  29  14  30  14  31   9  32  14  33  14
M  ISO  6  34  14  35  14  36   8  37   8  38   5  39   5
M  END
>  <minimizedAffinity>  (1) 
-6.43981934

>  <minimizedRMSD>  (1) 
0.336787969

$$$$
