
     RDKit          3D

 32 33  0  0  1  0  0  0  0  0999 V2000
   38.7070   27.0650   43.1320 C   0  0  2  0  0  0  0  0  0  0  0  0
   40.0580   27.3640   43.5510 C   0  0  0  0  0  0  0  0  0  0  0  0
   40.6130   25.9880   43.9200 C   0  0  0  0  0  0  0  0  0  0  0  0
   39.6740   24.9720   43.3110 C   0  0  0  0  0  0  0  0  0  0  0  0
   38.7590   25.7800   42.3930 C   0  0  2  0  0  0  0  0  0  0  0  0
   38.4290   29.4120   42.1820 C   0  0  0  0  0  0  0  0  0  0  0  0
   37.9450   28.0900   42.4530 C   0  0  0  0  0  0  0  0  0  0  0  0
   36.6290   27.7360   42.0390 C   0  0  0  0  0  0  0  0  0  0  0  0
   35.9160   28.6950   41.4070 N   0  0  0  0  0  0  0  0  0  0  0  0
   36.3950   29.9380   41.1630 C   0  0  0  0  0  0  0  0  0  0  0  0
   37.6550   30.2770   41.5580 N   0  0  0  0  0  0  0  0  0  0  0  0
   39.2410   25.7280   41.0230 C   0  0  0  0  0  0  0  0  0  0  0  0
   39.7970   26.9260   40.3800 C   0  0  0  0  0  0  0  0  0  0  0  0
   38.1510   25.2060   40.1000 C   0  0  0  0  0  0  0  0  0  0  0  0
   38.1066   26.9984   44.0513 H   0  0  0  0  0  0  0  0  0  0  0  0
   40.6355   27.8170   42.7317 H   0  0  0  0  0  0  0  0  0  0  0  0
   40.1065   28.0881   44.3776 H   0  0  0  0  0  0  0  0  0  0  0  0
   41.6260   25.8638   43.5096 H   0  0  0  0  0  0  0  0  0  0  0  0
   40.6809   25.8648   45.0110 H   0  0  0  0  0  0  0  0  0  0  0  0
   40.2363   24.2227   42.7344 H   0  0  0  0  0  0  0  0  0  0  0  0
   39.1086   24.4207   44.0768 H   0  0  0  0  0  0  0  0  0  0  0  0
   37.7305   25.4338   42.2132 H   0  0  0  0  0  0  0  0  0  0  0  0
   39.4429   29.7033   42.4938 H   0  0  0  0  0  0  0  0  0  0  0  0
   36.2143   26.7341   42.2239 H   0  0  0  0  0  0  0  0  0  0  0  0
   35.7656   30.6763   40.6446 H   0  0  0  0  0  0  0  0  0  0  0  0
   40.1111   25.0681   41.1554 H   0  0  0  0  0  0  0  0  0  0  0  0
   40.1269   27.6368   41.1520 H   0  0  0  0  0  0  0  0  0  0  0  0
   40.6549   26.6410   39.7533 H   0  0  0  0  0  0  0  0  0  0  0  0
   39.0255   27.3972   39.7533 H   0  0  0  0  0  0  0  0  0  0  0  0
   37.3205   24.8083   40.7017 H   0  0  0  0  0  0  0  0  0  0  0  0
   37.7841   26.0261   39.4653 H   0  0  0  0  0  0  0  0  0  0  0  0
   38.5600   24.4060   39.4653 H   0  0  0  0  0  0  0  0  0  0  0  0
  1  2  1  0
  2  3  1  0
  4  3  1  0
  5  1  1  0
  5  4  1  0
  6  7  2  0
  7  1  1  0
  8  7  1  0
  9  8  2  0
 10  9  1  0
 10 11  2  0
 11  6  1  0
 12  5  1  0
 13 12  1  0
 14 12  1  0
  1 15  1  1
  2 16  1  0
  2 17  1  0
  3 18  1  0
  3 19  1  0
  4 20  1  0
  4 21  1  0
  5 22  1  6
  6 23  1  0
  8 24  1  0
 10 25  1  0
 12 26  1  0
 13 27  1  0
 13 28  1  0
 13 29  1  0
 14 30  1  0
 14 31  1  0
 14 32  1  0
M  ISO  8  15  13  16  13  17  13  18  13  19  13  20  13  21  13  22  13
M  ISO  8  23  14  24  14  25  14  26   8  27   8  28   8  29   8  30   8
M  ISO  2  31   8  32   8
M  END
>  <minimizedAffinity>  (1) 
-3.95665002

>  <minimizedRMSD>  (1) 
0.223814115

$$$$
