
     RDKit          3D

 28 30  0  0  1  0  0  0  0  0999 V2000
   38.2570   26.8640   42.8180 C   0  0  2  0  0  0  0  0  0  0  0  0
   39.3910   26.9900   43.7670 C   0  0  0  0  0  0  0  0  0  0  0  0
   40.0250   25.6210   43.7920 C   0  0  0  0  0  0  0  0  0  0  0  0
   39.4770   24.8840   42.6220 C   0  0  0  0  0  0  0  0  0  0  0  0
   38.7840   25.9440   41.7540 C   0  0  1  0  0  0  0  0  0  0  0  0
   38.5170   29.3130   42.1560 C   0  0  0  0  0  0  0  0  0  0  0  0
   37.7700   28.1220   42.2730 C   0  0  0  0  0  0  0  0  0  0  0  0
   36.4470   28.1370   41.8350 C   0  0  0  0  0  0  0  0  0  0  0  0
   35.9330   29.2990   41.3160 N   0  0  0  0  0  0  0  0  0  0  0  0
   36.6860   30.4380   41.2170 C   0  0  0  0  0  0  0  0  0  0  0  0
   37.9880   30.4250   41.6470 N   0  0  0  0  0  0  0  0  0  0  0  0
   37.7260   25.1430   41.0760 C   0  0  0  0  0  0  0  0  0  0  0  0
   36.8300   24.4130   41.7570 N   0  0  0  0  0  0  0  0  0  0  0  0
   36.0580   23.8310   40.8600 O   0  0  0  0  0  0  0  0  0  0  0  0
   36.4660   24.1950   39.6490 C   0  0  0  0  0  0  0  0  0  0  0  0
   37.5170   25.0200   39.7330 N   0  0  0  0  0  0  0  0  0  0  0  0
   37.3617   26.4772   43.3269 H   0  0  0  0  0  0  0  0  0  0  0  0
   40.1101   27.7439   43.4140 H   0  0  0  0  0  0  0  0  0  0  0  0
   39.0633   27.3147   44.7656 H   0  0  0  0  0  0  0  0  0  0  0  0
   41.1186   25.7065   43.7098 H   0  0  0  0  0  0  0  0  0  0  0  0
   39.8046   25.0962   44.7333 H   0  0  0  0  0  0  0  0  0  0  0  0
   40.2882   24.3980   42.0601 H   0  0  0  0  0  0  0  0  0  0  0  0
   38.7797   24.0912   42.9306 H   0  0  0  0  0  0  0  0  0  0  0  0
   39.3465   26.5120   40.9984 H   0  0  0  0  0  0  0  0  0  0  0  0
   39.5638   29.3240   42.4939 H   0  0  0  0  0  0  0  0  0  0  0  0
   35.8250   27.2324   41.9041 H   0  0  0  0  0  0  0  0  0  0  0  0
   36.2502   31.3560   40.7960 H   0  0  0  0  0  0  0  0  0  0  0  0
   36.0039   23.8641   38.7072 H   0  0  0  0  0  0  0  0  0  0  0  0
  1  2  1  0
  2  3  1  0
  4  3  1  0
  5  4  1  0
  5  1  1  0
  6  7  2  0
  7  1  1  0
  8  7  1  0
  9  8  2  0
 10  9  1  0
 10 11  2  0
 11  6  1  0
 12  5  1  0
 12 13  2  0
 14 13  1  0
 15 16  2  0
 15 14  1  0
 16 12  1  0
  1 17  1  1
  2 18  1  0
  2 19  1  0
  3 20  1  0
  3 21  1  0
  4 22  1  0
  4 23  1  0
  5 24  1  6
  6 25  1  0
  8 26  1  0
 10 27  1  0
 15 28  1  0
M  ISO  8  17  13  18  13  19  13  20  13  21  13  22  13  23  13  24  13
M  ISO  4  25  14  26  14  27  14  28  14
M  END
>  <minimizedAffinity>  (1) 
-4.45030403

>  <minimizedRMSD>  (1) 
1.33851278

$$$$
