
     RDKit          3D

 38 41  0  0  1  0  0  0  0  0999 V2000
   38.0040   27.3920   42.7560 C   0  0  2  0  0  0  0  0  0  0  0  0
   39.1240   27.6920   43.6580 C   0  0  0  0  0  0  0  0  0  0  0  0
   39.8240   26.3620   43.8610 C   0  0  0  0  0  0  0  0  0  0  0  0
   39.3360   25.4730   42.7630 C   0  0  0  0  0  0  0  0  0  0  0  0
   38.5790   26.3780   41.7880 C   0  0  1  0  0  0  0  0  0  0  0  0
   38.0460   29.7890   41.9120 C   0  0  0  0  0  0  0  0  0  0  0  0
   37.4090   28.5290   42.0750 C   0  0  0  0  0  0  0  0  0  0  0  0
   36.1410   28.3590   41.5480 C   0  0  0  0  0  0  0  0  0  0  0  0
   35.5550   29.4200   40.8930 N   0  0  0  0  0  0  0  0  0  0  0  0
   36.1990   30.6290   40.7520 C   0  0  0  0  0  0  0  0  0  0  0  0
   37.4640   30.8020   41.2760 N   0  0  0  0  0  0  0  0  0  0  0  0
   37.5610   25.4390   41.2320 C   0  0  0  0  0  0  0  0  0  0  0  0
   36.9530   24.5000   41.9770 N   0  0  0  0  0  0  0  0  0  0  0  0
   36.1290   23.8520   41.1830 O   0  0  0  0  0  0  0  0  0  0  0  0
   36.2130   24.3660   39.9710 C   0  0  0  0  0  0  0  0  0  0  0  0
   37.1030   25.3670   39.9610 N   0  0  0  0  0  0  0  0  0  0  0  0
   35.4420   23.9000   38.8230 C   0  0  0  0  0  0  0  0  0  0  0  0
   34.7880   22.6850   38.8640 C   0  0  0  0  0  0  0  0  0  0  0  0
   34.0540   22.2510   37.7580 C   0  0  0  0  0  0  0  0  0  0  0  0
   33.9930   23.0640   36.6200 C   0  0  0  0  0  0  0  0  0  0  0  0
   34.6420   24.2830   36.5620 C   0  0  0  0  0  0  0  0  0  0  0  0
   35.3570   24.6700   37.6820 C   0  0  0  0  0  0  0  0  0  0  0  0
   37.1457   27.0197   43.3345 H   0  0  0  0  0  0  0  0  0  0  0  0
   39.8061   28.4230   43.1992 H   0  0  0  0  0  0  0  0  0  0  0  0
   38.7862   28.1329   44.6075 H   0  0  0  0  0  0  0  0  0  0  0  0
   40.9146   26.4891   43.7947 H   0  0  0  0  0  0  0  0  0  0  0  0
   39.6069   25.9374   44.8523 H   0  0  0  0  0  0  0  0  0  0  0  0
   40.1851   24.9915   42.2559 H   0  0  0  0  0  0  0  0  0  0  0  0
   38.6898   24.6722   43.1519 H   0  0  0  0  0  0  0  0  0  0  0  0
   39.0985   26.8831   40.9604 H   0  0  0  0  0  0  0  0  0  0  0  0
   39.0551   29.9314   42.3261 H   0  0  0  0  0  0  0  0  0  0  0  0
   35.6132   27.3993   41.6496 H   0  0  0  0  0  0  0  0  0  0  0  0
   35.7053   31.4567   40.2218 H   0  0  0  0  0  0  0  0  0  0  0  0
   34.8449   22.0593   39.7669 H   0  0  0  0  0  0  0  0  0  0  0  0
   33.5310   21.2836   37.7807 H   0  0  0  0  0  0  0  0  0  0  0  0
   33.4134   22.7238   35.7492 H   0  0  0  0  0  0  0  0  0  0  0  0
   34.5924   24.9177   35.6650 H   0  0  0  0  0  0  0  0  0  0  0  0
   35.8818   25.6365   37.6612 H   0  0  0  0  0  0  0  0  0  0  0  0
  1  2  1  0
  2  3  1  0
  4  3  1  0
  5  1  1  0
  5  4  1  0
  6  7  2  0
  7  1  1  0
  8  7  1  0
  9  8  2  0
 10  9  1  0
 10 11  2  0
 11  6  1  0
 12  5  1  0
 12 13  2  0
 14 13  1  0
 15 14  1  0
 16 15  2  0
 16 12  1  0
 17 18  2  0
 17 15  1  0
 19 18  1  0
 20 19  2  0
 21 20  1  0
 21 22  2  0
 22 17  1  0
  1 23  1  1
  2 24  1  0
  2 25  1  0
  3 26  1  0
  3 27  1  0
  4 28  1  0
  4 29  1  0
  5 30  1  6
  6 31  1  0
  8 32  1  0
 10 33  1  0
 18 34  1  0
 19 35  1  0
 20 36  1  0
 21 37  1  0
 22 38  1  0
M  ISO  8  23  13  24  13  25  13  26  13  27  13  28  13  29  13  30  13
M  ISO  8  31  14  32  14  33  14  34  14  35  14  36  14  37  14  38  14
M  END
>  <minimizedAffinity>  (1) 
-5.10329771

>  <minimizedRMSD>  (1) 
0.685926139

$$$$
