
     RDKit          3D

 38 41  0  0  1  0  0  0  0  0999 V2000
   37.9840   27.3860   42.7630 C   0  0  2  0  0  0  0  0  0  0  0  0
   39.0900   27.6780   43.6830 C   0  0  0  0  0  0  0  0  0  0  0  0
   39.8170   26.3550   43.8560 C   0  0  0  0  0  0  0  0  0  0  0  0
   39.3100   25.4640   42.7740 C   0  0  0  0  0  0  0  0  0  0  0  0
   38.5690   26.3770   41.7930 C   0  0  1  0  0  0  0  0  0  0  0  0
   38.0350   29.7850   41.9180 C   0  0  0  0  0  0  0  0  0  0  0  0
   37.3970   28.5240   42.0780 C   0  0  0  0  0  0  0  0  0  0  0  0
   36.1320   28.3610   41.5430 C   0  0  0  0  0  0  0  0  0  0  0  0
   35.5550   29.4230   40.8840 N   0  0  0  0  0  0  0  0  0  0  0  0
   36.2010   30.6320   40.7470 C   0  0  0  0  0  0  0  0  0  0  0  0
   37.4620   30.7990   41.2790 N   0  0  0  0  0  0  0  0  0  0  0  0
   37.5600   25.4440   41.2200 C   0  0  0  0  0  0  0  0  0  0  0  0
   36.9390   24.5050   41.9600 N   0  0  0  0  0  0  0  0  0  0  0  0
   36.1270   23.8530   41.1590 O   0  0  0  0  0  0  0  0  0  0  0  0
   36.2280   24.3610   39.9450 C   0  0  0  0  0  0  0  0  0  0  0  0
   37.1210   25.3670   39.9400 N   0  0  0  0  0  0  0  0  0  0  0  0
   35.4470   23.8570   38.7950 C   0  0  0  0  0  0  0  0  0  0  0  0
   35.5540   24.5480   37.6060 C   0  0  0  0  0  0  0  0  0  0  0  0
   34.8290   24.0920   36.5070 C   0  0  0  0  0  0  0  0  0  0  0  0
   34.0510   22.9830   36.6770 C   0  0  0  0  0  0  0  0  0  0  0  0
   33.9180   22.2610   37.8590 C   0  0  0  0  0  0  0  0  0  0  0  0
   34.6550   22.7370   38.9480 C   0  0  0  0  0  0  0  0  0  0  0  0
   37.1201   27.0128   43.3325 H   0  0  0  0  0  0  0  0  0  0  0  0
   39.7618   28.4349   43.2521 H   0  0  0  0  0  0  0  0  0  0  0  0
   38.7340   28.0824   44.6420 H   0  0  0  0  0  0  0  0  0  0  0  0
   40.9028   26.4993   43.7551 H   0  0  0  0  0  0  0  0  0  0  0  0
   39.6369   25.9231   44.8515 H   0  0  0  0  0  0  0  0  0  0  0  0
   40.1474   24.9596   42.2696 H   0  0  0  0  0  0  0  0  0  0  0  0
   38.6507   24.6788   43.1725 H   0  0  0  0  0  0  0  0  0  0  0  0
   39.0986   26.8868   40.9747 H   0  0  0  0  0  0  0  0  0  0  0  0
   39.0412   29.9261   42.3394 H   0  0  0  0  0  0  0  0  0  0  0  0
   35.5988   27.4040   41.6419 H   0  0  0  0  0  0  0  0  0  0  0  0
   35.7124   31.4615   40.2149 H   0  0  0  0  0  0  0  0  0  0  0  0
   36.1962   25.4376   37.5273 H   0  0  0  0  0  0  0  0  0  0  0  0
   34.8816   24.6073   35.5366 H   0  0  0  0  0  0  0  0  0  0  0  0
   33.4806   22.6302   35.8051 H   0  0  0  0  0  0  0  0  0  0  0  0
   33.2740   21.3722   37.9322 H   0  0  0  0  0  0  0  0  0  0  0  0
   34.6039   22.2228   39.9191 H   0  0  0  0  0  0  0  0  0  0  0  0
  1  2  1  0
  2  3  1  0
  4  3  1  0
  5  1  1  0
  5  4  1  0
  6  7  2  0
  7  1  1  0
  8  7  1  0
  9  8  2  0
 10  9  1  0
 10 11  2  0
 11  6  1  0
 12  5  1  0
 12 13  2  0
 14 13  1  0
 15 14  1  0
 16 15  2  0
 16 12  1  0
 17 22  1  0
 17 15  1  0
 18 17  2  0
 19 20  2  0
 19 18  1  0
 20 21  1  0
 21 22  2  0
  1 23  1  1
  2 24  1  0
  2 25  1  0
  3 26  1  0
  3 27  1  0
  4 28  1  0
  4 29  1  0
  5 30  1  6
  6 31  1  0
  8 32  1  0
 10 33  1  0
 18 34  1  0
 19 35  1  0
 20 36  1  0
 21 37  1  0
 22 38  1  0
M  ISO  8  23  13  24  13  25  13  26  13  27  13  28  13  29  13  30  13
M  ISO  8  31  14  32  14  33  14  34  14  35  14  36  14  37  14  38  14
M  END
>  <minimizedAffinity>  (1) 
-5.0995841

>  <minimizedRMSD>  (1) 
0.609698892

$$$$
