
     RDKit          3D

 40 42  0  0  1  0  0  0  0  0999 V2000
   37.9600   27.3460   42.7550 C   0  0  2  0  0  0  0  0  0  0  0  0
   39.0290   27.6220   43.7190 C   0  0  0  0  0  0  0  0  0  0  0  0
   39.7730   26.3060   43.8670 C   0  0  0  0  0  0  0  0  0  0  0  0
   39.3040   25.4330   42.7540 C   0  0  0  0  0  0  0  0  0  0  0  0
   38.5720   26.3590   41.7850 C   0  0  1  0  0  0  0  0  0  0  0  0
   38.0370   29.7580   41.9490 C   0  0  0  0  0  0  0  0  0  0  0  0
   37.3950   28.5000   42.0860 C   0  0  0  0  0  0  0  0  0  0  0  0
   36.1220   28.3460   41.5270 C   0  0  0  0  0  0  0  0  0  0  0  0
   35.5490   29.4170   40.8730 N   0  0  0  0  0  0  0  0  0  0  0  0
   36.2030   30.6250   40.7590 C   0  0  0  0  0  0  0  0  0  0  0  0
   37.4610   30.7780   41.3100 N   0  0  0  0  0  0  0  0  0  0  0  0
   37.5730   25.4250   41.1740 C   0  0  0  0  0  0  0  0  0  0  0  0
   36.8800   24.5240   41.8990 N   0  0  0  0  0  0  0  0  0  0  0  0
   36.0950   23.8890   41.0520 O   0  0  0  0  0  0  0  0  0  0  0  0
   36.2940   24.3770   39.8420 C   0  0  0  0  0  0  0  0  0  0  0  0
   37.2080   25.3390   39.8620 N   0  0  0  0  0  0  0  0  0  0  0  0
   35.5790   23.9010   38.6260 C   0  0  0  0  0  0  0  0  0  0  0  0
   36.5110   23.0720   37.7410 C   0  0  0  0  0  0  0  0  0  0  0  0
   34.4190   22.9950   38.9470 C   0  0  0  0  0  0  0  0  0  0  0  0
   35.1160   25.0610   37.7560 C   0  0  0  0  0  0  0  0  0  0  0  0
   37.0788   26.9519   43.2824 H   0  0  0  0  0  0  0  0  0  0  0  0
   39.7007   28.4053   43.3379 H   0  0  0  0  0  0  0  0  0  0  0  0
   38.6357   27.9851   44.6800 H   0  0  0  0  0  0  0  0  0  0  0  0
   40.8578   26.4711   43.7904 H   0  0  0  0  0  0  0  0  0  0  0  0
   39.5783   25.8445   44.8464 H   0  0  0  0  0  0  0  0  0  0  0  0
   40.1595   24.9542   42.2551 H   0  0  0  0  0  0  0  0  0  0  0  0
   38.6505   24.6263   43.1176 H   0  0  0  0  0  0  0  0  0  0  0  0
   39.1153   26.8890   40.9888 H   0  0  0  0  0  0  0  0  0  0  0  0
   39.0386   29.8964   42.3822 H   0  0  0  0  0  0  0  0  0  0  0  0
   35.5874   27.3880   41.6075 H   0  0  0  0  0  0  0  0  0  0  0  0
   35.7254   31.4639   40.2315 H   0  0  0  0  0  0  0  0  0  0  0  0
   37.1828   22.4744   38.3747 H   0  0  0  0  0  0  0  0  0  0  0  0
   35.9133   22.4016   37.1059 H   0  0  0  0  0  0  0  0  0  0  0  0
   37.1072   23.7438   37.1059 H   0  0  0  0  0  0  0  0  0  0  0  0
   34.3108   22.9105   40.0384 H   0  0  0  0  0  0  0  0  0  0  0  0
   33.4967   23.4143   38.5185 H   0  0  0  0  0  0  0  0  0  0  0  0
   34.6024   21.9986   38.5185 H   0  0  0  0  0  0  0  0  0  0  0  0
   34.7847   25.8910   38.3974 H   0  0  0  0  0  0  0  0  0  0  0  0
   35.9485   25.3981   37.1209 H   0  0  0  0  0  0  0  0  0  0  0  0
   34.2802   24.7322   37.1209 H   0  0  0  0  0  0  0  0  0  0  0  0
  1  2  1  0
  2  3  1  0
  4  3  1  0
  5  4  1  0
  5  1  1  0
  6  7  2  0
  7  1  1  0
  8  7  1  0
  9  8  2  0
 10  9  1  0
 10 11  2  0
 11  6  1  0
 12  5  1  0
 12 13  2  0
 14 13  1  0
 15 16  2  0
 15 14  1  0
 16 12  1  0
 17 19  1  0
 17 15  1  0
 18 17  1  0
 20 17  1  0
  1 21  1  1
  2 22  1  0
  2 23  1  0
  3 24  1  0
  3 25  1  0
  4 26  1  0
  4 27  1  0
  5 28  1  6
  6 29  1  0
  8 30  1  0
 10 31  1  0
 18 32  1  0
 18 33  1  0
 18 34  1  0
 19 35  1  0
 19 36  1  0
 19 37  1  0
 20 38  1  0
 20 39  1  0
 20 40  1  0
M  ISO  8  21  13  22  13  23  13  24  13  25  13  26  13  27  13  28  13
M  ISO  8  29  14  30  14  31  14  32   8  33   8  34   8  35   8  36   8
M  ISO  4  37   8  38   8  39   8  40   8
M  END
>  <minimizedAffinity>  (1) 
-5.00651169

>  <minimizedRMSD>  (1) 
0.67927748

$$$$
