
     RDKit          3D

 36 39  0  0  1  0  0  0  0  0999 V2000
   37.9540   27.3600   42.7550 C   0  0  2  0  0  0  0  0  0  0  0  0
   39.0210   27.6340   43.7180 C   0  0  0  0  0  0  0  0  0  0  0  0
   39.7760   26.3260   43.8590 C   0  0  0  0  0  0  0  0  0  0  0  0
   39.3050   25.4460   42.7440 C   0  0  0  0  0  0  0  0  0  0  0  0
   38.5560   26.3650   41.7810 C   0  0  1  0  0  0  0  0  0  0  0  0
   38.0240   29.7670   41.9360 C   0  0  0  0  0  0  0  0  0  0  0  0
   37.3800   28.5070   42.0780 C   0  0  0  0  0  0  0  0  0  0  0  0
   36.1160   28.3500   41.5230 C   0  0  0  0  0  0  0  0  0  0  0  0
   35.5450   29.4230   40.8650 N   0  0  0  0  0  0  0  0  0  0  0  0
   36.2000   30.6260   40.7490 C   0  0  0  0  0  0  0  0  0  0  0  0
   37.4540   30.7860   41.2970 N   0  0  0  0  0  0  0  0  0  0  0  0
   37.5540   25.4310   41.1940 C   0  0  0  0  0  0  0  0  0  0  0  0
   36.8860   24.5190   41.9220 N   0  0  0  0  0  0  0  0  0  0  0  0
   36.0930   23.8720   41.0920 O   0  0  0  0  0  0  0  0  0  0  0  0
   36.2610   24.3630   39.8790 C   0  0  0  0  0  0  0  0  0  0  0  0
   37.1640   25.3390   39.8950 N   0  0  0  0  0  0  0  0  0  0  0  0
   35.5230   23.8600   38.7190 C   0  0  0  0  0  0  0  0  0  0  0  0
   34.4750   22.9740   38.9120 C   0  0  0  0  0  0  0  0  0  0  0  0
   33.8310   22.5460   37.7680 C   0  0  0  0  0  0  0  0  0  0  0  0
   34.1890   22.9590   36.5190 N   0  0  0  0  0  0  0  0  0  0  0  0
   35.2260   23.8320   36.3760 C   0  0  0  0  0  0  0  0  0  0  0  0
   35.8860   24.2760   37.4710 N   0  0  0  0  0  0  0  0  0  0  0  0
   37.0777   26.9734   43.2959 H   0  0  0  0  0  0  0  0  0  0  0  0
   39.6865   28.4248   43.3415 H   0  0  0  0  0  0  0  0  0  0  0  0
   38.6242   27.9853   44.6819 H   0  0  0  0  0  0  0  0  0  0  0  0
   40.8588   26.5004   43.7749 H   0  0  0  0  0  0  0  0  0  0  0  0
   39.5917   25.8620   44.8392 H   0  0  0  0  0  0  0  0  0  0  0  0
   40.1614   24.9763   42.2381 H   0  0  0  0  0  0  0  0  0  0  0  0
   38.6622   24.6328   43.1122 H   0  0  0  0  0  0  0  0  0  0  0  0
   39.0875   26.8907   40.9741 H   0  0  0  0  0  0  0  0  0  0  0  0
   39.0261   29.9039   42.3685 H   0  0  0  0  0  0  0  0  0  0  0  0
   35.5812   27.3923   41.6055 H   0  0  0  0  0  0  0  0  0  0  0  0
   35.7222   31.4623   40.2178 H   0  0  0  0  0  0  0  0  0  0  0  0
   34.1750   22.6330   39.9139 H   0  0  0  0  0  0  0  0  0  0  0  0
   32.9926   21.8411   37.8688 H   0  0  0  0  0  0  0  0  0  0  0  0
   35.5253   24.1744   35.3744 H   0  0  0  0  0  0  0  0  0  0  0  0
  1  2  1  0
  2  3  1  0
  4  3  1  0
  5  4  1  0
  5  1  1  0
  6  7  2  0
  7  1  1  0
  8  7  1  0
  9  8  2  0
 10  9  1  0
 10 11  2  0
 11  6  1  0
 12  5  1  0
 12 13  2  0
 14 13  1  0
 15 16  2  0
 15 14  1  0
 16 12  1  0
 17 18  2  0
 17 15  1  0
 19 18  1  0
 20 19  2  0
 21 20  1  0
 21 22  2  0
 22 17  1  0
  1 23  1  1
  2 24  1  0
  2 25  1  0
  3 26  1  0
  3 27  1  0
  4 28  1  0
  4 29  1  0
  5 30  1  6
  6 31  1  0
  8 32  1  0
 10 33  1  0
 18 34  1  0
 19 35  1  0
 21 36  1  0
M  ISO  8  23  13  24  13  25  13  26  13  27  13  28  13  29  13  30  13
M  ISO  6  31  14  32  14  33  14  34  14  35  14  36  14
M  END
>  <minimizedAffinity>  (1) 
-4.95442724

>  <minimizedRMSD>  (1) 
0.554060757

$$$$
