
     RDKit          3D

 37 39  0  0  1  0  0  0  0  0999 V2000
   37.9360   27.3640   42.7510 C   0  0  2  0  0  0  0  0  0  0  0  0
   38.9960   27.6480   43.7180 C   0  0  0  0  0  0  0  0  0  0  0  0
   39.7740   26.3510   43.8580 C   0  0  0  0  0  0  0  0  0  0  0  0
   39.2850   25.4550   42.7690 C   0  0  0  0  0  0  0  0  0  0  0  0
   38.5530   26.3680   41.7850 C   0  0  1  0  0  0  0  0  0  0  0  0
   37.9920   29.7700   41.9330 C   0  0  0  0  0  0  0  0  0  0  0  0
   37.3550   28.5040   42.0650 C   0  0  0  0  0  0  0  0  0  0  0  0
   36.0980   28.3280   41.4980 C   0  0  0  0  0  0  0  0  0  0  0  0
   35.5310   29.3930   40.8340 N   0  0  0  0  0  0  0  0  0  0  0  0
   36.1670   30.6050   40.7220 C   0  0  0  0  0  0  0  0  0  0  0  0
   37.4020   30.7720   41.2810 N   0  0  0  0  0  0  0  0  0  0  0  0
   37.5670   25.4260   41.1840 C   0  0  0  0  0  0  0  0  0  0  0  0
   36.8570   24.5490   41.9290 N   0  0  0  0  0  0  0  0  0  0  0  0
   36.0920   23.8760   41.0960 O   0  0  0  0  0  0  0  0  0  0  0  0
   36.3140   24.3160   39.8730 C   0  0  0  0  0  0  0  0  0  0  0  0
   37.2260   25.2830   39.8790 N   0  0  0  0  0  0  0  0  0  0  0  0
   35.5760   23.7210   38.7390 C   0  0  0  0  0  0  0  0  0  0  0  0
   35.0350   24.7720   37.7920 C   0  0  0  0  0  0  0  0  0  0  0  0
   34.4170   22.8470   39.1790 C   0  0  0  0  0  0  0  0  0  0  0  0
   37.0584   26.9755   43.2884 H   0  0  0  0  0  0  0  0  0  0  0  0
   39.6501   28.4508   43.3470 H   0  0  0  0  0  0  0  0  0  0  0  0
   38.5893   27.9867   44.6823 H   0  0  0  0  0  0  0  0  0  0  0  0
   40.8519   26.5381   43.7432 H   0  0  0  0  0  0  0  0  0  0  0  0
   39.6241   25.8976   44.8489 H   0  0  0  0  0  0  0  0  0  0  0  0
   40.1306   24.9556   42.2736 H   0  0  0  0  0  0  0  0  0  0  0  0
   38.6273   24.6633   43.1571 H   0  0  0  0  0  0  0  0  0  0  0  0
   39.0923   26.8928   40.9827 H   0  0  0  0  0  0  0  0  0  0  0  0
   38.9870   29.9241   42.3760 H   0  0  0  0  0  0  0  0  0  0  0  0
   35.5713   27.3656   41.5774 H   0  0  0  0  0  0  0  0  0  0  0  0
   35.6851   31.4357   40.1857 H   0  0  0  0  0  0  0  0  0  0  0  0
   36.3206   23.0981   38.2217 H   0  0  0  0  0  0  0  0  0  0  0  0
   34.6073   25.6030   38.3721 H   0  0  0  0  0  0  0  0  0  0  0  0
   35.8510   25.1492   37.1581 H   0  0  0  0  0  0  0  0  0  0  0  0
   34.2539   24.3271   37.1581 H   0  0  0  0  0  0  0  0  0  0  0  0
   34.3770   22.8169   40.2779 H   0  0  0  0  0  0  0  0  0  0  0  0
   33.4760   23.2623   38.7891 H   0  0  0  0  0  0  0  0  0  0  0  0
   34.5575   21.8281   38.7891 H   0  0  0  0  0  0  0  0  0  0  0  0
  1  2  1  0
  2  3  1  0
  4  3  1  0
  5  1  1  0
  5  4  1  0
  6  7  2  0
  7  1  1  0
  8  7  1  0
  9  8  2  0
 10  9  1  0
 10 11  2  0
 11  6  1  0
 12  5  1  0
 12 13  2  0
 14 13  1  0
 15 16  2  0
 15 14  1  0
 16 12  1  0
 17 19  1  0
 17 15  1  0
 18 17  1  0
  1 20  1  1
  2 21  1  0
  2 22  1  0
  3 23  1  0
  3 24  1  0
  4 25  1  0
  4 26  1  0
  5 27  1  6
  6 28  1  0
  8 29  1  0
 10 30  1  0
 17 31  1  0
 18 32  1  0
 18 33  1  0
 18 34  1  0
 19 35  1  0
 19 36  1  0
 19 37  1  0
M  ISO  8  20  13  21  13  22  13  23  13  24  13  25  13  26  13  27  13
M  ISO  8  28  14  29  14  30  14  31   8  32   8  33   8  34   8  35   8
M  ISO  2  36   8  37   8
M  END
>  <minimizedAffinity>  (1) 
-4.92482424

>  <minimizedRMSD>  (1) 
0.720479608

$$$$
