
     RDKit          3D

 43 47  0  0  0  0  0  0  0  0999 V2000
   37.5440   28.6650   43.8380 C   0  0  0  0  0  0  0  0  0  0  0  0
   37.0680   27.3480   43.7900 C   0  0  0  0  0  0  0  0  0  0  0  0
   36.6900   26.8400   42.5530 C   0  0  0  0  0  0  0  0  0  0  0  0
   36.8020   27.6480   41.4630 N   0  0  0  0  0  0  0  0  0  0  0  0
   37.2630   28.9130   41.5400 C   0  0  0  0  0  0  0  0  0  0  0  0
   37.6340   29.4250   42.7230 N   0  0  0  0  0  0  0  0  0  0  0  0
   37.3330   29.6520   40.3250 N   0  0  0  0  0  0  0  0  0  0  0  0
   36.9760   29.1320   39.1380 C   0  0  0  0  0  0  0  0  0  0  0  0
   37.1110   29.9840   38.0720 C   0  0  0  0  0  0  0  0  0  0  0  0
   37.5720   31.2820   38.1460 C   0  0  0  0  0  0  0  0  0  0  0  0
   37.6870   32.0400   37.1600 O   0  0  0  0  0  0  0  0  0  0  0  0
   37.9180   31.7520   39.3720 N   0  0  0  0  0  0  0  0  0  0  0  0
   37.7960   30.9320   40.4550 C   0  0  0  0  0  0  0  0  0  0  0  0
   38.1300   31.4140   41.5750 O   0  0  0  0  0  0  0  0  0  0  0  0
   38.4090   33.0850   39.5650 C   0  0  0  0  0  0  0  0  0  0  0  0
   37.8110   34.3160   39.7820 C   0  0  0  0  0  0  0  0  0  0  0  0
   38.7750   35.2460   39.8940 N   0  0  0  0  0  0  0  0  0  0  0  0
   39.9930   34.6410   39.7530 C   0  0  0  0  0  0  0  0  0  0  0  0
   41.2560   35.1690   39.7890 C   0  0  0  0  0  0  0  0  0  0  0  0
   42.3820   34.3610   39.6200 C   0  0  0  0  0  0  0  0  0  0  0  0
   42.1770   33.0210   39.4160 C   0  0  0  0  0  0  0  0  0  0  0  0
   40.9020   32.5130   39.3830 C   0  0  0  0  0  0  0  0  0  0  0  0
   39.7820   33.2880   39.5470 C   0  0  0  0  0  0  0  0  0  0  0  0
   36.7470   29.5310   36.7240 C   0  0  0  0  0  0  0  0  0  0  0  0
   37.1050   28.1820   36.4070 N   0  0  0  0  0  0  0  0  0  0  0  0
   38.3700   27.7040   36.2400 C   0  0  0  0  0  0  0  0  0  0  0  0
   38.2720   26.3960   35.9580 N   0  0  0  0  0  0  0  0  0  0  0  0
   36.9660   26.0250   35.9410 C   0  0  0  0  0  0  0  0  0  0  0  0
   36.2860   27.1420   36.2190 N   0  0  0  0  0  0  0  0  0  0  0  0
   37.8515   29.0904   44.8047 H   0  0  0  0  0  0  0  0  0  0  0  0
   36.9959   26.7364   44.7014 H   0  0  0  0  0  0  0  0  0  0  0  0
   36.3103   25.8121   42.4570 H   0  0  0  0  0  0  0  0  0  0  0  0
   36.6042   28.1024   39.0300 H   0  0  0  0  0  0  0  0  0  0  0  0
   36.7289   34.5011   39.8510 H   0  0  0  0  0  0  0  0  0  0  0  0
   38.6212   36.2510   40.0592 H   0  0  0  0  0  0  0  0  0  0  0  0
   41.3857   36.2488   39.9540 H   0  0  0  0  0  0  0  0  0  0  0  0
   43.3969   34.7843   39.6495 H   0  0  0  0  0  0  0  0  0  0  0  0
   43.0377   32.3500   39.2782 H   0  0  0  0  0  0  0  0  0  0  0  0
   40.7723   31.4333   39.2172 H   0  0  0  0  0  0  0  0  0  0  0  0
   35.6562   29.6253   36.6184 H   0  0  0  0  0  0  0  0  0  0  0  0
   37.3177   30.1648   36.0293 H   0  0  0  0  0  0  0  0  0  0  0  0
   39.3010   28.2842   36.3215 H   0  0  0  0  0  0  0  0  0  0  0  0
   36.5566   25.0236   35.7419 H   0  0  0  0  0  0  0  0  0  0  0  0
  2  1  2  0
  3  2  1  0
  4  5  1  0
  4  3  2  0
  5  6  2  0
  6  1  1  0
  7 13  1  0
  7  5  1  0
  8  7  1  0
  9 10  1  0
  9  8  2  0
 10 12  1  0
 11 10  2  0
 12 15  1  0
 12 13  1  0
 13 14  2  0
 15 16  2  0
 16 17  1  0
 18 19  2  0
 18 17  1  0
 20 19  1  0
 21 20  2  0
 22 21  1  0
 22 23  2  0
 23 15  1  0
 23 18  1  0
 24  9  1  0
 25 24  1  0
 26 25  1  0
 27 26  2  0
 28 27  1  0
 28 29  2  0
 29 25  1  0
  1 30  1  0
  2 31  1  0
  3 32  1  0
  8 33  1  0
 16 34  1  0
 17 35  1  0
 19 36  1  0
 20 37  1  0
 21 38  1  0
 22 39  1  0
 24 40  1  0
 24 41  1  0
 26 42  1  0
 28 43  1  0
M  ISO  8  30  14  31  14  32  14  33  14  34  14  35   9  36  14  37  14
M  ISO  6  38  14  39  14  40   8  41   8  42  14  43  14
M  END
>  <minimizedAffinity>  (1) 
-6.39037371

>  <minimizedRMSD>  (1) 
1.13383818

$$$$
