
     RDKit          3D

 34 36  0  0  1  0  0  0  0  0999 V2000
   37.9520   27.3630   42.7440 C   0  0  2  0  0  0  0  0  0  0  0  0
   39.0310   27.6480   43.6970 C   0  0  0  0  0  0  0  0  0  0  0  0
   39.7730   26.3330   43.8590 C   0  0  0  0  0  0  0  0  0  0  0  0
   39.2940   25.4480   42.7530 C   0  0  0  0  0  0  0  0  0  0  0  0
   38.5580   26.3660   41.7770 C   0  0  1  0  0  0  0  0  0  0  0  0
   38.0120   29.7710   41.9310 C   0  0  0  0  0  0  0  0  0  0  0  0
   37.3700   28.5090   42.0640 C   0  0  0  0  0  0  0  0  0  0  0  0
   36.1120   28.3410   41.5100 C   0  0  0  0  0  0  0  0  0  0  0  0
   35.5390   29.4090   40.8520 N   0  0  0  0  0  0  0  0  0  0  0  0
   36.1840   30.6190   40.7380 C   0  0  0  0  0  0  0  0  0  0  0  0
   37.4330   30.7850   41.2890 N   0  0  0  0  0  0  0  0  0  0  0  0
   37.5640   25.4320   41.1760 C   0  0  0  0  0  0  0  0  0  0  0  0
   36.8680   24.5420   41.9160 N   0  0  0  0  0  0  0  0  0  0  0  0
   36.0920   23.8800   41.0870 O   0  0  0  0  0  0  0  0  0  0  0  0
   36.2920   24.3380   39.8660 C   0  0  0  0  0  0  0  0  0  0  0  0
   37.2020   25.3060   39.8790 N   0  0  0  0  0  0  0  0  0  0  0  0
   35.6050   23.8550   38.6210 C   0  0  0  0  0  0  0  0  0  0  0  0
   34.4330   22.9590   38.9750 C   0  0  0  0  0  0  0  0  0  0  0  0
   37.0770   26.9768   43.2874 H   0  0  0  0  0  0  0  0  0  0  0  0
   39.7022   28.4238   43.2999 H   0  0  0  0  0  0  0  0  0  0  0  0
   38.6453   28.0246   44.6559 H   0  0  0  0  0  0  0  0  0  0  0  0
   40.8580   26.4941   43.7764 H   0  0  0  0  0  0  0  0  0  0  0  0
   39.5832   25.8831   44.8447 H   0  0  0  0  0  0  0  0  0  0  0  0
   40.1458   24.9623   42.2544 H   0  0  0  0  0  0  0  0  0  0  0  0
   38.6400   24.6472   43.1285 H   0  0  0  0  0  0  0  0  0  0  0  0
   39.0966   26.8897   40.9735 H   0  0  0  0  0  0  0  0  0  0  0  0
   39.0110   29.9136   42.3688 H   0  0  0  0  0  0  0  0  0  0  0  0
   35.5832   27.3800   41.5927 H   0  0  0  0  0  0  0  0  0  0  0  0
   35.7012   31.4525   40.2068 H   0  0  0  0  0  0  0  0  0  0  0  0
   36.3218   23.2885   38.0085 H   0  0  0  0  0  0  0  0  0  0  0  0
   35.2316   24.7246   38.0603 H   0  0  0  0  0  0  0  0  0  0  0  0
   34.3420   22.8894   40.0690 H   0  0  0  0  0  0  0  0  0  0  0  0
   33.5081   23.3825   38.5563 H   0  0  0  0  0  0  0  0  0  0  0  0
   34.5991   21.9554   38.5563 H   0  0  0  0  0  0  0  0  0  0  0  0
  1  2  1  0
  2  3  1  0
  4  3  1  0
  5  1  1  0
  5  4  1  0
  6  7  2  0
  7  1  1  0
  8  7  1  0
  9  8  2  0
 10  9  1  0
 10 11  2  0
 11  6  1  0
 12  5  1  0
 12 13  2  0
 14 13  1  0
 15 16  2  0
 15 14  1  0
 16 12  1  0
 17 18  1  0
 17 15  1  0
  1 19  1  1
  2 20  1  0
  2 21  1  0
  3 22  1  0
  3 23  1  0
  4 24  1  0
  4 25  1  0
  5 26  1  6
  6 27  1  0
  8 28  1  0
 10 29  1  0
 17 30  1  0
 17 31  1  0
 18 32  1  0
 18 33  1  0
 18 34  1  0
M  ISO  8  19  13  20  13  21  13  22  13  23  13  24  13  25  13  26  13
M  ISO  8  27  14  28  14  29  14  30   8  31   8  32   8  33   8  34   8
M  END
>  <minimizedAffinity>  (1) 
-4.73371458

>  <minimizedRMSD>  (1) 
0.692434311

$$$$
