
     RDKit          3D

 30 32  0  0  1  0  0  0  0  0999 V2000
   37.9520   27.3440   42.7430 C   0  0  2  0  0  0  0  0  0  0  0  0
   39.0420   27.6210   43.6870 C   0  0  0  0  0  0  0  0  0  0  0  0
   39.7510   26.2920   43.8680 C   0  0  0  0  0  0  0  0  0  0  0  0
   39.2880   25.4270   42.7380 C   0  0  0  0  0  0  0  0  0  0  0  0
   38.5640   26.3590   41.7640 C   0  0  1  0  0  0  0  0  0  0  0  0
   38.0180   29.7560   41.9410 C   0  0  0  0  0  0  0  0  0  0  0  0
   37.3750   28.4970   42.0700 C   0  0  0  0  0  0  0  0  0  0  0  0
   36.1180   28.3420   41.5140 C   0  0  0  0  0  0  0  0  0  0  0  0
   35.5490   29.4130   40.8670 N   0  0  0  0  0  0  0  0  0  0  0  0
   36.1940   30.6230   40.7570 C   0  0  0  0  0  0  0  0  0  0  0  0
   37.4460   30.7780   41.3090 N   0  0  0  0  0  0  0  0  0  0  0  0
   37.5730   25.4330   41.1470 C   0  0  0  0  0  0  0  0  0  0  0  0
   36.8670   24.5380   41.8720 N   0  0  0  0  0  0  0  0  0  0  0  0
   36.1000   23.8830   41.0290 O   0  0  0  0  0  0  0  0  0  0  0  0
   36.3110   24.3490   39.8150 C   0  0  0  0  0  0  0  0  0  0  0  0
   37.2210   25.3160   39.8460 N   0  0  0  0  0  0  0  0  0  0  0  0
   35.6520   23.8800   38.6230 N   0  0  0  0  0  0  0  0  0  0  0  0
   37.0776   26.9559   43.2859 H   0  0  0  0  0  0  0  0  0  0  0  0
   39.7299   28.3732   43.2735 H   0  0  0  0  0  0  0  0  0  0  0  0
   38.6706   28.0247   44.6405 H   0  0  0  0  0  0  0  0  0  0  0  0
   40.8414   26.4301   43.8231 H   0  0  0  0  0  0  0  0  0  0  0  0
   39.5221   25.8402   44.8445 H   0  0  0  0  0  0  0  0  0  0  0  0
   40.1477   24.9507   42.2440 H   0  0  0  0  0  0  0  0  0  0  0  0
   38.6278   24.6212   43.0912 H   0  0  0  0  0  0  0  0  0  0  0  0
   39.1087   26.8911   40.9701 H   0  0  0  0  0  0  0  0  0  0  0  0
   39.0191   29.8909   42.3765 H   0  0  0  0  0  0  0  0  0  0  0  0
   35.5853   27.3825   41.5880 H   0  0  0  0  0  0  0  0  0  0  0  0
   35.7129   31.4612   40.2316 H   0  0  0  0  0  0  0  0  0  0  0  0
   34.9557   23.1234   38.6833 H   0  0  0  0  0  0  0  0  0  0  0  0
   35.8771   24.3012   37.7104 H   0  0  0  0  0  0  0  0  0  0  0  0
  1  2  1  0
  2  3  1  0
  4  3  1  0
  5  4  1  0
  5  1  1  0
  6  7  2  0
  7  1  1  0
  8  7  1  0
  9  8  2  0
 10  9  1  0
 10 11  2  0
 11  6  1  0
 12  5  1  0
 12 13  2  0
 14 13  1  0
 15 16  2  0
 15 14  1  0
 16 12  1  0
 17 15  1  0
  1 18  1  1
  2 19  1  0
  2 20  1  0
  3 21  1  0
  3 22  1  0
  4 23  1  0
  4 24  1  0
  5 25  1  6
  6 26  1  0
  8 27  1  0
 10 28  1  0
 17 29  1  0
 17 30  1  0
M  ISO  8  18  13  19  13  20  13  21  13  22  13  23  13  24  13  25  13
M  ISO  3  26  14  27  14  28  14
M  END
>  <minimizedAffinity>  (1) 
-4.67305708

>  <minimizedRMSD>  (1) 
0.540558159

$$$$
