
     RDKit          3D

 50 54  0  0  0  0  0  0  0  0999 V2000
   37.6930   28.7240   43.9580 C   0  0  0  0  0  0  0  0  0  0  0  0
   37.0750   27.4600   43.9650 C   0  0  0  0  0  0  0  0  0  0  0  0
   36.5260   26.9850   42.7690 C   0  0  0  0  0  0  0  0  0  0  0  0
   36.6200   27.7780   41.6630 N   0  0  0  0  0  0  0  0  0  0  0  0
   37.2170   28.9800   41.6890 C   0  0  0  0  0  0  0  0  0  0  0  0
   37.7520   29.4540   42.8300 N   0  0  0  0  0  0  0  0  0  0  0  0
   37.2580   29.7170   40.4710 N   0  0  0  0  0  0  0  0  0  0  0  0
   36.7390   29.2410   39.3430 C   0  0  0  0  0  0  0  0  0  0  0  0
   36.8630   30.0770   38.2550 C   0  0  0  0  0  0  0  0  0  0  0  0
   37.4580   31.3100   38.2580 C   0  0  0  0  0  0  0  0  0  0  0  0
   37.5670   32.0640   37.2660 O   0  0  0  0  0  0  0  0  0  0  0  0
   37.9680   31.7410   39.4390 N   0  0  0  0  0  0  0  0  0  0  0  0
   37.8640   30.9360   40.5470 C   0  0  0  0  0  0  0  0  0  0  0  0
   38.3550   31.3830   41.6230 O   0  0  0  0  0  0  0  0  0  0  0  0
   38.6200   33.0200   39.5780 C   0  0  0  0  0  0  0  0  0  0  0  0
   38.1870   34.2970   39.9070 C   0  0  0  0  0  0  0  0  0  0  0  0
   39.2620   35.1180   39.8810 N   0  0  0  0  0  0  0  0  0  0  0  0
   40.3590   34.3970   39.5440 C   0  0  0  0  0  0  0  0  0  0  0  0
   41.6740   34.7910   39.3900 C   0  0  0  0  0  0  0  0  0  0  0  0
   42.6710   33.8760   39.0330 C   0  0  0  0  0  0  0  0  0  0  0  0
   42.2900   32.5830   38.8440 C   0  0  0  0  0  0  0  0  0  0  0  0
   40.9830   32.2010   38.9990 C   0  0  0  0  0  0  0  0  0  0  0  0
   39.9840   33.0750   39.3480 C   0  0  0  0  0  0  0  0  0  0  0  0
   36.3210   29.6770   36.9270 C   0  0  0  0  0  0  0  0  0  0  0  0
   37.2170   28.9330   36.1100 N   0  0  0  0  0  0  0  0  0  0  0  0
   36.5170   28.0430   35.2490 C   0  0  0  0  0  0  0  0  0  0  0  0
   36.8320   26.5960   35.3880 C   0  0  0  0  0  0  0  0  0  0  0  0
   38.0800   26.2920   35.8730 O   0  0  0  0  0  0  0  0  0  0  0  0
   38.1860   26.9250   37.1320 C   0  0  0  0  0  0  0  0  0  0  0  0
   38.3340   28.3940   36.8090 C   0  0  0  0  0  0  0  0  0  0  0  0
   38.1328   29.1195   44.8854 H   0  0  0  0  0  0  0  0  0  0  0  0
   37.0248   26.8612   44.8863 H   0  0  0  0  0  0  0  0  0  0  0  0
   36.0337   26.0024   42.7220 H   0  0  0  0  0  0  0  0  0  0  0  0
   36.2495   28.2577   39.2833 H   0  0  0  0  0  0  0  0  0  0  0  0
   37.1539   34.5894   40.1462 H   0  0  0  0  0  0  0  0  0  0  0  0
   39.2489   36.1276   40.0844 H   0  0  0  0  0  0  0  0  0  0  0  0
   41.9430   35.8453   39.5512 H   0  0  0  0  0  0  0  0  0  0  0  0
   43.7185   34.1886   38.9103 H   0  0  0  0  0  0  0  0  0  0  0  0
   43.0433   31.8326   38.5623 H   0  0  0  0  0  0  0  0  0  0  0  0
   40.7225   31.1448   38.8361 H   0  0  0  0  0  0  0  0  0  0  0  0
   35.4238   29.0633   37.0957 H   0  0  0  0  0  0  0  0  0  0  0  0
   36.1159   30.6120   36.3850 H   0  0  0  0  0  0  0  0  0  0  0  0
   36.7418   28.3354   34.2127 H   0  0  0  0  0  0  0  0  0  0  0  0
   35.4584   28.1378   35.5326 H   0  0  0  0  0  0  0  0  0  0  0  0
   36.0901   26.1548   36.0699 H   0  0  0  0  0  0  0  0  0  0  0  0
   36.8056   26.1891   34.3664 H   0  0  0  0  0  0  0  0  0  0  0  0
   37.2815   26.7487   37.7326 H   0  0  0  0  0  0  0  0  0  0  0  0
   39.0308   26.5406   37.7223 H   0  0  0  0  0  0  0  0  0  0  0  0
   39.2316   28.5258   36.1870 H   0  0  0  0  0  0  0  0  0  0  0  0
   38.4095   28.9316   37.7657 H   0  0  0  0  0  0  0  0  0  0  0  0
  1  2  2  0
  3  2  1  0
  4  5  1  0
  4  3  2  0
  5  6  2  0
  6  1  1  0
  7 13  1  0
  7  5  1  0
  8  7  1  0
  9 10  1  0
  9  8  2  0
 10 12  1  0
 11 10  2  0
 12 15  1  0
 12 13  1  0
 13 14  2  0
 15 16  2  0
 17 16  1  0
 18 17  1  0
 19 18  2  0
 20 19  1  0
 21 22  1  0
 21 20  2  0
 22 23  2  0
 23 18  1  0
 23 15  1  0
 24  9  1  0
 25 30  1  0
 25 24  1  0
 26 27  1  0
 26 25  1  0
 27 28  1  0
 28 29  1  0
 30 29  1  0
  1 31  1  0
  2 32  1  0
  3 33  1  0
  8 34  1  0
 16 35  1  0
 17 36  1  0
 19 37  1  0
 20 38  1  0
 21 39  1  0
 22 40  1  0
 24 41  1  0
 24 42  1  0
 26 43  1  0
 26 44  1  0
 27 45  1  0
 27 46  1  0
 29 47  1  0
 29 48  1  0
 30 49  1  0
 30 50  1  0
M  ISO  8  31  14  32  14  33  14  34  14  35  14  36   9  37  14  38  14
M  ISO  8  39  14  40  14  41   8  42   8  43  13  44  13  45  13  46  13
M  ISO  4  47  13  48  13  49  13  50  13
M  END
>  <minimizedAffinity>  (1) 
-6.38283587

>  <minimizedRMSD>  (1) 
0.811169326

$$$$
