
     RDKit          3D

 38 41  0  0  1  0  0  0  0  0999 V2000
   38.4670   26.9560   42.8300 C   0  0  2  0  0  0  0  0  0  0  0  0
   39.5600   27.0080   43.7860 C   0  0  0  0  0  0  0  0  0  0  0  0
   40.1140   25.5870   43.8340 C   0  0  0  0  0  0  0  0  0  0  0  0
   39.5210   24.8670   42.6570 C   0  0  0  0  0  0  0  0  0  0  0  0
   38.9230   25.9440   41.7720 C   0  0  1  0  0  0  0  0  0  0  0  0
   38.9640   29.2560   41.8650 C   0  0  0  0  0  0  0  0  0  0  0  0
   38.0480   28.2140   42.2200 C   0  0  0  0  0  0  0  0  0  0  0  0
   36.7020   28.3830   41.9760 C   0  0  0  0  0  0  0  0  0  0  0  0
   36.3020   29.5690   41.3930 N   0  0  0  0  0  0  0  0  0  0  0  0
   37.2050   30.5610   41.0600 C   0  0  0  0  0  0  0  0  0  0  0  0
   38.5420   30.3890   41.3050 N   0  0  0  0  0  0  0  0  0  0  0  0
   36.7670   31.8340   40.4350 C   0  0  0  0  0  0  0  0  0  0  0  0
   37.8320   32.8770   40.1410 C   0  0  0  0  0  0  0  0  0  0  0  0
   37.1870   32.1050   39.0330 C   0  0  0  0  0  0  0  0  0  0  0  0
   37.7930   25.2170   41.1210 C   0  0  0  0  0  0  0  0  0  0  0  0
   37.0230   24.3320   41.8030 N   0  0  0  0  0  0  0  0  0  0  0  0
   36.1250   23.8700   40.9580 O   0  0  0  0  0  0  0  0  0  0  0  0
   36.3170   24.4380   39.7940 C   0  0  0  0  0  0  0  0  0  0  0  0
   37.3490   25.2840   39.8570 N   0  0  0  0  0  0  0  0  0  0  0  0
   35.4470   24.1170   38.6120 C   0  0  0  0  0  0  0  0  0  0  0  0
   34.3590   23.3880   39.0400 F   0  0  0  0  0  0  0  0  0  0  0  0
   35.0240   25.2840   37.9950 F   0  0  0  0  0  0  0  0  0  0  0  0
   36.1580   23.3500   37.6930 F   0  0  0  0  0  0  0  0  0  0  0  0
   37.5521   26.6707   43.3699 H   0  0  0  0  0  0  0  0  0  0  0  0
   40.3342   27.7132   43.4494 H   0  0  0  0  0  0  0  0  0  0  0  0
   39.2261   27.3539   44.7754 H   0  0  0  0  0  0  0  0  0  0  0  0
   41.2113   25.6026   43.7583 H   0  0  0  0  0  0  0  0  0  0  0  0
   39.8575   25.0882   44.7802 H   0  0  0  0  0  0  0  0  0  0  0  0
   40.3013   24.3141   42.1134 H   0  0  0  0  0  0  0  0  0  0  0  0
   38.7633   24.1339   42.9707 H   0  0  0  0  0  0  0  0  0  0  0  0
   39.5311   26.4388   41.0004 H   0  0  0  0  0  0  0  0  0  0  0  0
   40.0380   29.1182   42.0586 H   0  0  0  0  0  0  0  0  0  0  0  0
   35.9730   27.6015   42.2363 H   0  0  0  0  0  0  0  0  0  0  0  0
   35.8068   31.8258   40.9716 H   0  0  0  0  0  0  0  0  0  0  0  0
   37.6091   33.9462   40.2719 H   0  0  0  0  0  0  0  0  0  0  0  0
   38.8656   33.0554   40.4724 H   0  0  0  0  0  0  0  0  0  0  0  0
   36.4959   32.6121   38.3436 H   0  0  0  0  0  0  0  0  0  0  0  0
   37.5622   31.4830   38.2069 H   0  0  0  0  0  0  0  0  0  0  0  0
  1  2  1  0
  2  3  1  0
  4  3  1  0
  5  4  1  0
  5  1  1  0
  6  7  2  0
  7  1  1  0
  8  7  1  0
  9  8  2  0
 10 11  2  0
 10  9  1  0
 11  6  1  0
 12 10  1  0
 13 12  1  0
 14 13  1  0
 14 12  1  0
 15  5  1  0
 15 16  2  0
 17 16  1  0
 18 19  2  0
 18 17  1  0
 19 15  1  0
 20 21  1  0
 20 18  1  0
 22 20  1  0
 23 20  1  0
  1 24  1  1
  2 25  1  0
  2 26  1  0
  3 27  1  0
  3 28  1  0
  4 29  1  0
  4 30  1  0
  5 31  1  6
  6 32  1  0
  8 33  1  0
 12 34  1  0
 13 35  1  0
 13 36  1  0
 14 37  1  0
 14 38  1  0
M  ISO  8  24  13  25  13  26  13  27  13  28  13  29  13  30  13  31  13
M  ISO  7  32  14  33  14  34  13  35  13  36  13  37  13  38  13
M  END
>  <minimizedAffinity>  (1) 
-5.47136116

>  <minimizedRMSD>  (1) 
0.773792505

$$$$
