
     RDKit          3D

 33 36  0  0  0  0  0  0  0  0999 V2000
   34.8480   28.6580   37.2150 C   0  0  0  0  0  0  0  0  0  0  0  0
   34.8830   27.9130   38.3860 C   0  0  0  0  0  0  0  0  0  0  0  0
   36.2070   27.6870   38.6410 C   0  0  0  0  0  0  0  0  0  0  0  0
   36.9290   28.2530   37.6900 N   0  0  0  0  0  0  0  0  0  0  0  0
   36.1120   28.8410   36.8300 N   0  0  0  0  0  0  0  0  0  0  0  0
   36.5700   26.9790   39.8540 C   0  0  0  0  0  0  0  0  0  0  0  0
   36.5500   25.5760   39.8640 C   0  0  0  0  0  0  0  0  0  0  0  0
   36.8540   24.7830   40.9330 C   0  0  0  0  0  0  0  0  0  0  0  0
   37.2140   25.3420   42.1240 C   0  0  0  0  0  0  0  0  0  0  0  0
   37.2500   26.7120   42.1810 C   0  0  0  0  0  0  0  0  0  0  0  0
   37.5830   27.2780   43.3920 C   0  0  0  0  0  0  0  0  0  0  0  0
   37.6160   28.6450   43.5660 C   0  0  0  0  0  0  0  0  0  0  0  0
   37.2920   29.4240   42.4480 C   0  0  0  0  0  0  0  0  0  0  0  0
   36.9720   28.8010   41.2780 C   0  0  0  0  0  0  0  0  0  0  0  0
   36.9330   27.4540   41.0690 C   0  0  0  0  0  0  0  0  0  0  0  0
   33.5100   29.2980   35.2150 C   0  0  0  0  0  0  0  0  0  0  0  0
   33.6000   29.0990   36.5980 C   0  0  0  0  0  0  0  0  0  0  0  0
   32.4910   29.3220   37.3900 C   0  0  0  0  0  0  0  0  0  0  0  0
   31.3380   29.7360   36.7700 N   0  0  0  0  0  0  0  0  0  0  0  0
   31.2870   29.9210   35.4110 C   0  0  0  0  0  0  0  0  0  0  0  0
   32.3720   29.7000   34.6420 N   0  0  0  0  0  0  0  0  0  0  0  0
   34.0241   27.5749   38.9842 H   0  0  0  0  0  0  0  0  0  0  0  0
   37.9570   28.2391   37.6280 H   0  0  0  0  0  0  0  0  0  0  0  0
   36.2646   25.0712   38.9293 H   0  0  0  0  0  0  0  0  0  0  0  0
   36.8084   23.6885   40.8334 H   0  0  0  0  0  0  0  0  0  0  0  0
   37.4639   24.7229   42.9982 H   0  0  0  0  0  0  0  0  0  0  0  0
   37.8286   26.6230   44.2409 H   0  0  0  0  0  0  0  0  0  0  0  0
   37.8826   29.0998   44.5314 H   0  0  0  0  0  0  0  0  0  0  0  0
   37.2956   30.5221   42.5128 H   0  0  0  0  0  0  0  0  0  0  0  0
   36.7218   29.4455   40.4224 H   0  0  0  0  0  0  0  0  0  0  0  0
   34.3952   29.1195   34.5868 H   0  0  0  0  0  0  0  0  0  0  0  0
   32.5299   29.1732   38.4792 H   0  0  0  0  0  0  0  0  0  0  0  0
   30.3487   30.2539   34.9432 H   0  0  0  0  0  0  0  0  0  0  0  0
  1  2  1  0
  2  3  2  0
  3  6  1  0
  4  3  1  0
  5  1  2  0
  5  4  1  0
  6  7  2  0
  6 15  1  0
  7  8  1  0
  8  9  2  0
  9 10  1  0
 10 11  2  0
 11 12  1  0
 13 12  2  0
 14 13  1  0
 15 14  2  0
 15 10  1  0
 16 17  2  0
 17  1  1  0
 17 18  1  0
 19 18  2  0
 20 19  1  0
 21 16  1  0
 21 20  2  0
  2 22  1  0
  4 23  1  0
  7 24  1  0
  8 25  1  0
  9 26  1  0
 11 27  1  0
 12 28  1  0
 13 29  1  0
 14 30  1  0
 16 31  1  0
 18 32  1  0
 20 33  1  0
M  ISO  8  22  14  23   9  24  14  25  14  26  14  27  14  28  14  29  14
M  ISO  4  30  14  31  14  32  14  33  14
M  END
>  <minimizedAffinity>  (1) 
-5.35444403

>  <minimizedRMSD>  (1) 
6.32517385

$$$$
