
     RDKit          3D

 40 42  0  0  1  0  0  0  0  0999 V2000
   39.5710   27.1900   42.4360 C   0  0  2  0  0  0  0  0  0  0  0  0
   40.7250   27.3390   43.2780 C   0  0  0  0  0  0  0  0  0  0  0  0
   40.9310   25.9620   43.9320 C   0  0  0  0  0  0  0  0  0  0  0  0
   40.1710   24.9870   43.0670 C   0  0  0  0  0  0  0  0  0  0  0  0
   39.7490   25.7410   41.8310 C   0  0  1  0  0  0  0  0  0  0  0  0
   40.5260   28.6330   40.5500 C   0  0  0  0  0  0  0  0  0  0  0  0
   39.4060   28.1450   41.3280 C   0  0  0  0  0  0  0  0  0  0  0  0
   38.1300   28.5840   41.0710 C   0  0  0  0  0  0  0  0  0  0  0  0
   37.9860   29.4850   40.0530 N   0  0  0  0  0  0  0  0  0  0  0  0
   39.0610   29.9570   39.3000 C   0  0  0  0  0  0  0  0  0  0  0  0
   40.3540   29.5120   39.5700 N   0  0  0  0  0  0  0  0  0  0  0  0
   38.7760   30.9000   38.2630 N   0  0  0  0  0  0  0  0  0  0  0  0
   36.9430   28.2970   41.7750 N   0  0  0  0  0  0  0  0  0  0  0  0
   36.8180   28.3680   43.1910 C   0  0  0  0  0  0  0  0  0  0  0  0
   37.4380   29.2970   43.8330 N   0  0  0  0  0  0  0  0  0  0  0  0
   36.0190   27.4600   43.9840 N   0  0  0  0  0  0  0  0  0  0  0  0
   38.0430   30.0310   43.4290 H   0  0  0  0  0  0  0  0  0  0  0  0
   38.4410   25.1050   41.5050 C   0  0  0  0  0  0  0  0  0  0  0  0
   37.4160   25.0350   42.4030 N   0  0  0  0  0  0  0  0  0  0  0  0
   36.4140   24.4280   41.8150 O   0  0  0  0  0  0  0  0  0  0  0  0
   36.7670   24.1200   40.6040 C   0  0  0  0  0  0  0  0  0  0  0  0
   38.0130   24.5260   40.3870 N   0  0  0  0  0  0  0  0  0  0  0  0
   35.8240   23.4080   39.6750 C   0  0  0  0  0  0  0  0  0  0  0  0
   34.6250   23.2190   40.2950 F   0  0  0  0  0  0  0  0  0  0  0  0
   35.6510   24.1400   38.5160 F   0  0  0  0  0  0  0  0  0  0  0  0
   36.3520   22.1530   39.3420 F   0  0  0  0  0  0  0  0  0  0  0  0
   38.6754   27.3732   43.0479 H   0  0  0  0  0  0  0  0  0  0  0  0
   41.6052   27.6169   42.6797 H   0  0  0  0  0  0  0  0  0  0  0  0
   40.5862   28.1322   44.0274 H   0  0  0  0  0  0  0  0  0  0  0  0
   41.9999   25.7034   43.9549 H   0  0  0  0  0  0  0  0  0  0  0  0
   40.5753   25.9473   44.9728 H   0  0  0  0  0  0  0  0  0  0  0  0
   40.8174   24.1404   42.7923 H   0  0  0  0  0  0  0  0  0  0  0  0
   39.2983   24.5821   43.6004 H   0  0  0  0  0  0  0  0  0  0  0  0
   40.3930   25.7498   40.9392 H   0  0  0  0  0  0  0  0  0  0  0  0
   41.5389   28.2682   40.7755 H   0  0  0  0  0  0  0  0  0  0  0  0
   37.8062   31.2037   38.0953 H   0  0  0  0  0  0  0  0  0  0  0  0
   39.5406   31.2754   37.6839 H   0  0  0  0  0  0  0  0  0  0  0  0
   36.1142   28.0185   41.2306 H   0  0  0  0  0  0  0  0  0  0  0  0
   35.9752   27.5717   45.0070 H   0  0  0  0  0  0  0  0  0  0  0  0
   35.4938   26.7016   43.5258 H   0  0  0  0  0  0  0  0  0  0  0  0
  1  2  1  0
  2  3  1  0
  4  3  1  0
  5  1  1  0
  5  4  1  0
  6  7  2  0
  7  1  1  0
  8  7  1  0
  8 13  1  0
  9  8  2  0
 10 11  2  0
 10  9  1  0
 11  6  1  0
 12 10  1  0
 13 14  1  0
 14 15  2  0
 14 16  1  0
 17 15  1  0
 18  5  1  0
 18 19  2  0
 20 19  1  0
 21 20  1  0
 22 21  2  0
 22 18  1  0
 23 24  1  0
 23 21  1  0
 25 23  1  0
 26 23  1  0
  1 27  1  1
  2 28  1  0
  2 29  1  0
  3 30  1  0
  3 31  1  0
  4 32  1  0
  4 33  1  0
  5 34  1  6
  6 35  1  0
 12 36  1  0
 12 37  1  0
 13 38  1  0
 16 39  1  0
 16 40  1  0
M  ISO  8  27  13  28  13  29  13  30  13  31  13  32  13  33  13  34  13
M  ISO  1  35  14
M  END
>  <minimizedAffinity>  (1) 
-5.86821604

>  <minimizedRMSD>  (1) 
1.97241533

$$$$
