
     RDKit          3D

 39 41  0  0  1  0  0  0  0  0999 V2000
   39.3340   27.0590   42.9590 C   0  0  2  0  0  0  0  0  0  0  0  0
   40.5520   27.3380   43.6740 C   0  0  0  0  0  0  0  0  0  0  0  0
   41.3360   26.0090   43.6730 C   0  0  0  0  0  0  0  0  0  0  0  0
   40.7210   25.1840   42.5640 C   0  0  0  0  0  0  0  0  0  0  0  0
   39.7970   26.0920   41.8040 C   0  0  1  0  0  0  0  0  0  0  0  0
   39.2460   29.1670   41.5030 C   0  0  0  0  0  0  0  0  0  0  0  0
   38.6210   28.1930   42.3720 C   0  0  0  0  0  0  0  0  0  0  0  0
   37.2880   28.3130   42.7230 C   0  0  0  0  0  0  0  0  0  0  0  0
   36.6040   29.3860   42.2030 N   0  0  0  0  0  0  0  0  0  0  0  0
   37.2150   30.3270   41.3600 C   0  0  0  0  0  0  0  0  0  0  0  0
   38.5690   30.1990   41.0140 N   0  0  0  0  0  0  0  0  0  0  0  0
   36.4250   31.4040   40.8750 N   0  0  0  0  0  0  0  0  0  0  0  0
   36.4250   27.5410   43.6340 C   0  0  0  0  0  0  0  0  0  0  0  0
   36.4620   28.0990   45.0810 C   0  0  0  0  0  0  0  0  0  0  0  0
   38.7150   25.1520   41.3870 C   0  0  0  0  0  0  0  0  0  0  0  0
   38.4960   23.9640   42.0260 N   0  0  0  0  0  0  0  0  0  0  0  0
   37.4870   23.3760   41.4400 O   0  0  0  0  0  0  0  0  0  0  0  0
   37.0640   24.1490   40.4610 C   0  0  0  0  0  0  0  0  0  0  0  0
   37.8110   25.2550   40.4090 N   0  0  0  0  0  0  0  0  0  0  0  0
   35.9080   23.7400   39.6090 C   0  0  0  0  0  0  0  0  0  0  0  0
   34.8590   23.3450   40.3920 F   0  0  0  0  0  0  0  0  0  0  0  0
   35.5080   24.7990   38.8040 F   0  0  0  0  0  0  0  0  0  0  0  0
   36.2750   22.6780   38.7930 F   0  0  0  0  0  0  0  0  0  0  0  0
   38.6011   26.6595   43.6754 H   0  0  0  0  0  0  0  0  0  0  0  0
   41.1268   28.1252   43.1641 H   0  0  0  0  0  0  0  0  0  0  0  0
   40.3559   27.6986   44.6946 H   0  0  0  0  0  0  0  0  0  0  0  0
   42.4022   26.1907   43.4723 H   0  0  0  0  0  0  0  0  0  0  0  0
   41.2779   25.4977   44.6452 H   0  0  0  0  0  0  0  0  0  0  0  0
   41.5075   24.8009   41.8972 H   0  0  0  0  0  0  0  0  0  0  0  0
   40.1756   24.3205   42.9725 H   0  0  0  0  0  0  0  0  0  0  0  0
   40.1632   26.6553   40.9331 H   0  0  0  0  0  0  0  0  0  0  0  0
   40.3079   29.0494   41.2413 H   0  0  0  0  0  0  0  0  0  0  0  0
   36.8439   32.1113   40.2544 H   0  0  0  0  0  0  0  0  0  0  0  0
   35.4335   31.4774   41.1441 H   0  0  0  0  0  0  0  0  0  0  0  0
   35.3901   27.5828   43.2635 H   0  0  0  0  0  0  0  0  0  0  0  0
   36.7969   26.5061   43.6591 H   0  0  0  0  0  0  0  0  0  0  0  0
   36.4067   27.2656   45.7969 H   0  0  0  0  0  0  0  0  0  0  0  0
   37.3989   28.6541   45.2361 H   0  0  0  0  0  0  0  0  0  0  0  0
   35.6066   28.7729   45.2361 H   0  0  0  0  0  0  0  0  0  0  0  0
  1  2  1  0
  3  2  1  0
  4  3  1  0
  5  4  1  0
  5  1  1  0
  6  7  2  0
  7  8  1  0
  7  1  1  0
  8 13  1  0
  9  8  2  0
 10  9  1  0
 11 10  2  0
 11  6  1  0
 12 10  1  0
 13 14  1  0
 15  5  1  0
 15 16  2  0
 17 16  1  0
 18 17  1  0
 19 18  2  0
 19 15  1  0
 20 21  1  0
 20 18  1  0
 22 20  1  0
 23 20  1  0
  1 24  1  1
  2 25  1  0
  2 26  1  0
  3 27  1  0
  3 28  1  0
  4 29  1  0
  4 30  1  0
  5 31  1  6
  6 32  1  0
 12 33  1  0
 12 34  1  0
 13 35  1  0
 13 36  1  0
 14 37  1  0
 14 38  1  0
 14 39  1  0
M  ISO  8  24  13  25  13  26  13  27  13  28  13  29  13  30  13  31  13
M  ISO  6  32  14  35   8  36   8  37   8  38   8  39   8
M  END
>  <minimizedAffinity>  (1) 
-5.84250116

>  <minimizedRMSD>  (1) 
1.22426391

$$$$
