
     RDKit          3D

 43 46  0  0  1  0  0  0  0  0999 V2000
   39.4960   27.8150   42.4740 C   0  0  2  0  0  0  0  0  0  0  0  0
   40.7620   28.0750   43.1080 C   0  0  0  0  0  0  0  0  0  0  0  0
   41.5190   26.7370   43.0780 C   0  0  0  0  0  0  0  0  0  0  0  0
   40.8440   25.9250   41.9830 C   0  0  0  0  0  0  0  0  0  0  0  0
   39.8990   26.8440   41.2910 C   0  0  1  0  0  0  0  0  0  0  0  0
   39.4430   30.1080   41.3860 C   0  0  0  0  0  0  0  0  0  0  0  0
   38.7560   28.9560   41.9550 C   0  0  0  0  0  0  0  0  0  0  0  0
   37.3970   28.9420   42.0150 C   0  0  0  0  0  0  0  0  0  0  0  0
   36.7390   30.0460   41.5210 N   0  0  0  0  0  0  0  0  0  0  0  0
   37.3890   31.1380   40.9820 C   0  0  0  0  0  0  0  0  0  0  0  0
   38.7770   31.1630   40.9150 N   0  0  0  0  0  0  0  0  0  0  0  0
   36.6040   32.2310   40.5010 N   0  0  0  0  0  0  0  0  0  0  0  0
   36.5380   27.9240   42.5370 C   0  0  0  0  0  0  0  0  0  0  0  0
   36.8270   27.4790   43.9610 C   0  0  0  0  0  0  0  0  0  0  0  0
   37.0480   28.4510   45.0500 C   0  0  0  0  0  0  0  0  0  0  0  0
   35.7510   27.7370   45.0190 C   0  0  0  0  0  0  0  0  0  0  0  0
   38.7790   25.9380   40.8990 C   0  0  0  0  0  0  0  0  0  0  0  0
   38.3850   24.9010   41.7090 N   0  0  0  0  0  0  0  0  0  0  0  0
   37.3830   24.2980   41.1050 O   0  0  0  0  0  0  0  0  0  0  0  0
   37.1560   24.9180   39.9740 C   0  0  0  0  0  0  0  0  0  0  0  0
   38.0060   25.9440   39.8160 N   0  0  0  0  0  0  0  0  0  0  0  0
   36.0630   24.4640   39.0470 C   0  0  0  0  0  0  0  0  0  0  0  0
   35.1550   23.7160   39.7510 F   0  0  0  0  0  0  0  0  0  0  0  0
   35.4200   25.5540   38.4870 F   0  0  0  0  0  0  0  0  0  0  0  0
   36.5870   23.6640   38.0450 F   0  0  0  0  0  0  0  0  0  0  0  0
   38.7917   27.4200   43.2210 H   0  0  0  0  0  0  0  0  0  0  0  0
   41.3190   28.8443   42.5531 H   0  0  0  0  0  0  0  0  0  0  0  0
   40.6351   28.4491   44.1346 H   0  0  0  0  0  0  0  0  0  0  0  0
   42.5806   26.8991   42.8400 H   0  0  0  0  0  0  0  0  0  0  0  0
   41.4882   26.2238   44.0505 H   0  0  0  0  0  0  0  0  0  0  0  0
   41.5948   25.5479   41.2729 H   0  0  0  0  0  0  0  0  0  0  0  0
   40.3157   25.0562   42.4027 H   0  0  0  0  0  0  0  0  0  0  0  0
   40.2416   27.4093   40.4118 H   0  0  0  0  0  0  0  0  0  0  0  0
   40.5422   30.1075   41.3437 H   0  0  0  0  0  0  0  0  0  0  0  0
   37.0658   33.0571   40.0945 H   0  0  0  0  0  0  0  0  0  0  0  0
   35.5765   32.1927   40.5608 H   0  0  0  0  0  0  0  0  0  0  0  0
   35.5063   28.3044   42.5054 H   0  0  0  0  0  0  0  0  0  0  0  0
   36.7086   27.0383   41.9074 H   0  0  0  0  0  0  0  0  0  0  0  0
   37.3983   26.6183   43.5831 H   0  0  0  0  0  0  0  0  0  0  0  0
   37.7752   28.2225   45.8430 H   0  0  0  0  0  0  0  0  0  0  0  0
   37.3349   29.5125   45.0796 H   0  0  0  0  0  0  0  0  0  0  0  0
   34.8293   28.2746   44.7516 H   0  0  0  0  0  0  0  0  0  0  0  0
   35.1786   27.1170   45.7246 H   0  0  0  0  0  0  0  0  0  0  0  0
  1  2  1  0
  3  2  1  0
  4  3  1  0
  5  4  1  0
  5  1  1  0
  6  7  2  0
  7  8  1  0
  7  1  1  0
  8 13  1  0
  9  8  2  0
 10  9  1  0
 11 10  2  0
 11  6  1  0
 12 10  1  0
 13 14  1  0
 14 16  1  0
 14 15  1  0
 16 15  1  0
 17  5  1  0
 17 18  2  0
 19 18  1  0
 20 19  1  0
 21 20  2  0
 21 17  1  0
 22 23  1  0
 22 20  1  0
 24 22  1  0
 25 22  1  0
  1 26  1  1
  2 27  1  0
  2 28  1  0
  3 29  1  0
  3 30  1  0
  4 31  1  0
  4 32  1  0
  5 33  1  6
  6 34  1  0
 12 35  1  0
 12 36  1  0
 13 37  1  0
 13 38  1  0
 14 39  1  0
 15 40  1  0
 15 41  1  0
 16 42  1  0
 16 43  1  0
M  ISO  8  26  13  27  13  28  13  29  13  30  13  31  13  32  13  33  13
M  ISO  8  34  14  37   8  38   8  39  13  40  13  41  13  42  13  43  13
M  END
>  <minimizedAffinity>  (1) 
-5.37398005

>  <minimizedRMSD>  (1) 
1.02000332

$$$$
