
     RDKit          3D

 27 29  0  0  0  0  0  0  0  0999 V2000
   37.5680   28.8510   41.6330 C   0  0  0  0  0  0  0  0  0  0  0  0
   37.9030   27.8040   40.7740 C   0  0  0  0  0  0  0  0  0  0  0  0
   37.4590   26.6840   41.4570 C   0  0  0  0  0  0  0  0  0  0  0  0
   36.9030   27.0220   42.6290 N   0  0  0  0  0  0  0  0  0  0  0  0
   36.9670   28.3480   42.7410 N   0  0  0  0  0  0  0  0  0  0  0  0
   39.0850   30.8470   41.6560 C   0  0  0  0  0  0  0  0  0  0  0  0
   37.8550   30.2450   41.3120 C   0  0  0  0  0  0  0  0  0  0  0  0
   36.9080   31.0070   40.6540 C   0  0  0  0  0  0  0  0  0  0  0  0
   37.2070   32.3150   40.3660 N   0  0  0  0  0  0  0  0  0  0  0  0
   38.3940   32.8600   40.7100 C   0  0  0  0  0  0  0  0  0  0  0  0
   39.3310   32.1290   41.3540 N   0  0  0  0  0  0  0  0  0  0  0  0
   37.5020   25.3000   41.1220 N   0  0  0  0  0  0  0  0  0  0  0  0
   36.7910   24.7780   40.1020 C   0  0  0  0  0  0  0  0  0  0  0  0
   36.8410   23.4250   39.7860 C   0  0  0  0  0  0  0  0  0  0  0  0
   37.6730   22.6880   40.6040 C   0  0  0  0  0  0  0  0  0  0  0  0
   37.7670   21.4360   40.3690 O   0  0  0  0  0  0  0  0  0  0  0  0
   38.3890   23.1950   41.6260 N   0  0  0  0  0  0  0  0  0  0  0  0
   38.2950   24.5210   41.8820 C   0  0  0  0  0  0  0  0  0  0  0  0
   39.0030   24.8900   42.8560 O   0  0  0  0  0  0  0  0  0  0  0  0
   38.3988   27.8555   39.7934 H   0  0  0  0  0  0  0  0  0  0  0  0
   36.4988   26.3730   43.3191 H   0  0  0  0  0  0  0  0  0  0  0  0
   39.8513   30.2558   42.1788 H   0  0  0  0  0  0  0  0  0  0  0  0
   35.9376   30.5752   40.3679 H   0  0  0  0  0  0  0  0  0  0  0  0
   38.6007   33.9118   40.4630 H   0  0  0  0  0  0  0  0  0  0  0  0
   36.1522   25.4427   39.5019 H   0  0  0  0  0  0  0  0  0  0  0  0
   36.2685   22.9816   38.9580 H   0  0  0  0  0  0  0  0  0  0  0  0
   38.9933   22.5886   42.1988 H   0  0  0  0  0  0  0  0  0  0  0  0
  1  5  2  0
  2  3  2  0
  2  1  1  0
  3  4  1  0
  4  5  1  0
  7  1  1  0
  7  6  2  0
  8  7  1  0
  9  8  2  0
  9 10  1  0
 10 11  2  0
 11  6  1  0
 12  3  1  0
 12 18  1  0
 13 12  1  0
 14 13  2  0
 14 15  1  0
 15 17  1  0
 16 15  2  0
 17 18  1  0
 18 19  2  0
  2 20  1  0
  4 21  1  0
  6 22  1  0
  8 23  1  0
 10 24  1  0
 13 25  1  0
 14 26  1  0
 17 27  1  0
M  ISO  8  20  14  21   9  22  14  23  14  24  14  25  14  26  14  27   9
M  END
>  <minimizedAffinity>  (1) 
-4.87789202

>  <minimizedRMSD>  (1) 
2.53317142

$$$$
