
     RDKit          3D

 30 32  0  0  0  0  0  0  0  0999 V2000
   37.0940   28.8500   40.6200 C   0  0  0  0  0  0  0  0  0  0  0  0
   37.3570   27.7080   39.8710 C   0  0  0  0  0  0  0  0  0  0  0  0
   37.1810   26.6740   40.7550 C   0  0  0  0  0  0  0  0  0  0  0  0
   36.8320   27.1430   41.9740 N   0  0  0  0  0  0  0  0  0  0  0  0
   36.7820   28.4700   41.8810 N   0  0  0  0  0  0  0  0  0  0  0  0
   37.3000   25.2660   40.6010 N   0  0  0  0  0  0  0  0  0  0  0  0
   36.5550   24.5370   39.7670 C   0  0  0  0  0  0  0  0  0  0  0  0
   36.7490   23.1630   39.6880 C   0  0  0  0  0  0  0  0  0  0  0  0
   35.9420   22.3150   38.7750 C   0  0  0  0  0  0  0  0  0  0  0  0
   37.7030   22.5300   40.4600 C   0  0  0  0  0  0  0  0  0  0  0  0
   37.9220   21.2780   40.4260 O   0  0  0  0  0  0  0  0  0  0  0  0
   38.4470   23.2940   41.2980 N   0  0  0  0  0  0  0  0  0  0  0  0
   38.2220   24.6390   41.3430 C   0  0  0  0  0  0  0  0  0  0  0  0
   38.9620   25.2440   42.1480 O   0  0  0  0  0  0  0  0  0  0  0  0
   37.2920   31.3330   40.8950 C   0  0  0  0  0  0  0  0  0  0  0  0
   37.1610   30.1990   40.0820 C   0  0  0  0  0  0  0  0  0  0  0  0
   37.0930   30.3850   38.7130 C   0  0  0  0  0  0  0  0  0  0  0  0
   37.1570   31.6630   38.2040 N   0  0  0  0  0  0  0  0  0  0  0  0
   37.2850   32.7300   39.0470 C   0  0  0  0  0  0  0  0  0  0  0  0
   37.3520   32.5690   40.3860 N   0  0  0  0  0  0  0  0  0  0  0  0
   37.6416   27.6476   38.8102 H   0  0  0  0  0  0  0  0  0  0  0  0
   36.6410   26.5802   42.8152 H   0  0  0  0  0  0  0  0  0  0  0  0
   35.7895   25.0225   39.1439 H   0  0  0  0  0  0  0  0  0  0  0  0
   35.3030   21.6435   39.3673 H   0  0  0  0  0  0  0  0  0  0  0  0
   35.3119   22.9557   38.1406 H   0  0  0  0  0  0  0  0  0  0  0  0
   36.6131   21.7174   38.1406 H   0  0  0  0  0  0  0  0  0  0  0  0
   39.1712   22.8652   41.8917 H   0  0  0  0  0  0  0  0  0  0  0  0
   37.3472   31.2029   41.9859 H   0  0  0  0  0  0  0  0  0  0  0  0
   36.9890   29.5221   38.0387 H   0  0  0  0  0  0  0  0  0  0  0  0
   37.3347   33.7447   38.6251 H   0  0  0  0  0  0  0  0  0  0  0  0
  1  5  2  0
  2  1  1  0
  2  3  2  0
  3  4  1  0
  5  4  1  0
  6  3  1  0
  6 13  1  0
  7  6  1  0
  8  7  2  0
  8 10  1  0
  9  8  1  0
 10 12  1  0
 11 10  2  0
 12 13  1  0
 13 14  2  0
 16  1  1  0
 16 15  2  0
 17 16  1  0
 18 17  2  0
 18 19  1  0
 19 20  2  0
 20 15  1  0
  2 21  1  0
  4 22  1  0
  7 23  1  0
  9 24  1  0
  9 25  1  0
  9 26  1  0
 12 27  1  0
 15 28  1  0
 17 29  1  0
 19 30  1  0
M  ISO  8  21  14  22   9  23  14  24   8  25   8  26   8  27   9  28  14
M  ISO  2  29  14  30  14
M  END
>  <minimizedAffinity>  (1) 
-4.67727518

>  <minimizedRMSD>  (1) 
2.55771208

$$$$
