
     RDKit          3D

 44 48  0  0  0  0  0  0  0  0999 V2000
   37.5670   27.9790   41.2590 C   0  0  0  0  0  0  0  0  0  0  0  0
   36.7370   29.0210   40.8810 C   0  0  0  0  0  0  0  0  0  0  0  0
   37.3650   30.1560   41.1710 N   0  0  0  0  0  0  0  0  0  0  0  0
   38.5770   29.9330   41.7260 C   0  0  0  0  0  0  0  0  0  0  0  0
   39.5270   30.8320   42.1640 C   0  0  0  0  0  0  0  0  0  0  0  0
   40.6940   30.3040   42.6960 C   0  0  0  0  0  0  0  0  0  0  0  0
   40.8840   28.9190   42.7810 C   0  0  0  0  0  0  0  0  0  0  0  0
   39.9270   28.0370   42.3410 C   0  0  0  0  0  0  0  0  0  0  0  0
   38.7430   28.5490   41.7990 C   0  0  0  0  0  0  0  0  0  0  0  0
   36.9150   24.5160   42.2150 C   0  0  0  0  0  0  0  0  0  0  0  0
   36.8450   23.8510   40.9490 C   0  0  0  0  0  0  0  0  0  0  0  0
   37.0260   24.6240   39.7910 C   0  0  0  0  0  0  0  0  0  0  0  0
   37.2540   25.9430   39.9490 N   0  0  0  0  0  0  0  0  0  0  0  0
   37.3170   26.5480   41.1420 C   0  0  0  0  0  0  0  0  0  0  0  0
   37.1480   25.8350   42.2760 N   0  0  0  0  0  0  0  0  0  0  0  0
   36.7590   31.4510   40.8970 C   0  0  0  0  0  0  0  0  0  0  0  0
   36.9580   31.9030   39.4910 C   0  0  0  0  0  0  0  0  0  0  0  0
   38.3340   32.1620   39.0820 C   0  0  0  0  0  0  0  0  0  0  0  0
   38.9850   31.2390   38.3170 N   0  0  0  0  0  0  0  0  0  0  0  0
   40.2570   31.3900   37.9100 C   0  0  0  0  0  0  0  0  0  0  0  0
   41.0150   32.4610   38.2150 N   0  0  0  0  0  0  0  0  0  0  0  0
   40.4210   33.4030   38.9690 C   0  0  0  0  0  0  0  0  0  0  0  0
   41.1260   34.5320   39.3190 C   0  0  0  0  0  0  0  0  0  0  0  0
   40.5170   35.5160   40.0960 C   0  0  0  0  0  0  0  0  0  0  0  0
   39.1950   35.3670   40.5230 C   0  0  0  0  0  0  0  0  0  0  0  0
   38.5260   34.2350   40.1560 C   0  0  0  0  0  0  0  0  0  0  0  0
   39.1160   33.2540   39.3880 C   0  0  0  0  0  0  0  0  0  0  0  0
   35.7407   28.9267   40.4245 H   0  0  0  0  0  0  0  0  0  0  0  0
   39.3664   31.9180   42.0946 H   0  0  0  0  0  0  0  0  0  0  0  0
   41.4813   30.9825   43.0562 H   0  0  0  0  0  0  0  0  0  0  0  0
   41.8193   28.5292   43.2091 H   0  0  0  0  0  0  0  0  0  0  0  0
   40.0881   26.9513   42.4133 H   0  0  0  0  0  0  0  0  0  0  0  0
   36.7768   23.9416   43.1429 H   0  0  0  0  0  0  0  0  0  0  0  0
   36.6555   22.7693   40.8856 H   0  0  0  0  0  0  0  0  0  0  0  0
   36.9833   24.1693   38.7903 H   0  0  0  0  0  0  0  0  0  0  0  0
   35.6788   31.3806   41.0927 H   0  0  0  0  0  0  0  0  0  0  0  0
   37.2486   32.1876   41.5511 H   0  0  0  0  0  0  0  0  0  0  0  0
   36.5528   31.1240   38.8284 H   0  0  0  0  0  0  0  0  0  0  0  0
   36.4444   32.8732   39.4203 H   0  0  0  0  0  0  0  0  0  0  0  0
   40.7035   30.5955   37.2941 H   0  0  0  0  0  0  0  0  0  0  0  0
   42.1670   34.6574   38.9865 H   0  0  0  0  0  0  0  0  0  0  0  0
   41.0820   36.4175   40.3754 H   0  0  0  0  0  0  0  0  0  0  0  0
   38.7077   36.1390   41.1367 H   0  0  0  0  0  0  0  0  0  0  0  0
   37.4843   34.1016   40.4831 H   0  0  0  0  0  0  0  0  0  0  0  0
  1  9  1  0
  2  3  1  0
  2  1  2  0
  3  4  1  0
  4  9  2  0
  4  5  1  0
  5  6  2  0
  6  7  1  0
  8  7  2  0
  9  8  1  0
 10 15  2  0
 11 10  1  0
 12 13  1  0
 12 11  2  0
 13 14  2  0
 14  1  1  0
 14 15  1  0
 16  3  1  0
 17 16  1  0
 18 27  1  0
 18 17  1  0
 19 18  2  0
 20 21  2  0
 20 19  1  0
 21 22  1  0
 22 23  1  0
 22 27  2  0
 23 24  2  0
 24 25  1  0
 26 25  2  0
 27 26  1  0
  2 28  1  0
  5 29  1  0
  6 30  1  0
  7 31  1  0
  8 32  1  0
 10 33  1  0
 11 34  1  0
 12 35  1  0
 16 36  1  0
 16 37  1  0
 17 38  1  0
 17 39  1  0
 20 40  1  0
 23 41  1  0
 24 42  1  0
 25 43  1  0
 26 44  1  0
M  ISO  8  28  14  29  14  30  14  31  14  32  14  33  14  34  14  35  14
M  ISO  8  36   8  37   8  38   8  39   8  40  14  41  14  42  14  43  14
M  ISO  1  44  14
M  END
>  <minimizedAffinity>  (1) 
-6.35786724

>  <minimizedRMSD>  (1) 
3.70876837

$$$$
