
     RDKit          3D

 43 46  0  0  0  0  0  0  0  0999 V2000
   37.5730   28.2010   41.3840 C   0  0  0  0  0  0  0  0  0  0  0  0
   36.3380   27.9420   40.7930 C   0  0  0  0  0  0  0  0  0  0  0  0
   35.8940   29.0900   40.2720 N   0  0  0  0  0  0  0  0  0  0  0  0
   36.7640   30.0960   40.4830 C   0  0  0  0  0  0  0  0  0  0  0  0
   36.6730   31.4180   40.1050 C   0  0  0  0  0  0  0  0  0  0  0  0
   37.7390   32.2530   40.4610 C   0  0  0  0  0  0  0  0  0  0  0  0
   38.8280   31.7510   41.1630 C   0  0  0  0  0  0  0  0  0  0  0  0
   38.8990   30.4220   41.5330 C   0  0  0  0  0  0  0  0  0  0  0  0
   37.8440   29.5680   41.1860 C   0  0  0  0  0  0  0  0  0  0  0  0
   39.5420   26.6670   44.0420 C   0  0  0  0  0  0  0  0  0  0  0  0
   40.0990   25.5230   43.4080 C   0  0  0  0  0  0  0  0  0  0  0  0
   39.7780   25.3090   42.0620 C   0  0  0  0  0  0  0  0  0  0  0  0
   38.9630   26.1910   41.4470 N   0  0  0  0  0  0  0  0  0  0  0  0
   38.4470   27.2730   42.0780 C   0  0  0  0  0  0  0  0  0  0  0  0
   38.7350   27.5060   43.3660 N   0  0  0  0  0  0  0  0  0  0  0  0
   34.6310   29.1450   39.5880 C   0  0  0  0  0  0  0  0  0  0  0  0
   34.6110   28.3810   38.2830 C   0  0  0  0  0  0  0  0  0  0  0  0
   31.6950   30.0350   35.7090 C   0  0  0  0  0  0  0  0  0  0  0  0
   31.4500   29.9730   37.0840 C   0  0  0  0  0  0  0  0  0  0  0  0
   32.4250   29.4240   37.9210 C   0  0  0  0  0  0  0  0  0  0  0  0
   33.5990   28.9590   37.3460 C   0  0  0  0  0  0  0  0  0  0  0  0
   33.8500   29.0160   35.9910 C   0  0  0  0  0  0  0  0  0  0  0  0
   32.8790   29.5610   35.1780 C   0  0  0  0  0  0  0  0  0  0  0  0
   30.3790   30.7490   34.8000 S   0  0  0  0  0  0  0  0  0  0  0  0
   30.2240   32.1740   35.1750 O   0  0  0  0  0  0  0  0  0  0  0  0
   30.6990   30.6260   33.3280 O   0  0  0  0  0  0  0  0  0  0  0  0
   35.8228   26.9706   40.7611 H   0  0  0  0  0  0  0  0  0  0  0  0
   35.8035   31.7994   39.5495 H   0  0  0  0  0  0  0  0  0  0  0  0
   37.7142   33.3168   40.1822 H   0  0  0  0  0  0  0  0  0  0  0  0
   39.6529   32.4278   41.4304 H   0  0  0  0  0  0  0  0  0  0  0  0
   39.7679   30.0412   42.0898 H   0  0  0  0  0  0  0  0  0  0  0  0
   39.7733   26.8692   45.0982 H   0  0  0  0  0  0  0  0  0  0  0  0
   40.7575   24.8318   43.9544 H   0  0  0  0  0  0  0  0  0  0  0  0
   40.1810   24.4417   41.5185 H   0  0  0  0  0  0  0  0  0  0  0  0
   33.8597   28.7229   40.2490 H   0  0  0  0  0  0  0  0  0  0  0  0
   34.4438   30.2012   39.3443 H   0  0  0  0  0  0  0  0  0  0  0  0
   35.6062   28.4356   37.8176 H   0  0  0  0  0  0  0  0  0  0  0  0
   34.3428   27.3346   38.4906 H   0  0  0  0  0  0  0  0  0  0  0  0
   30.5045   30.3505   37.5005 H   0  0  0  0  0  0  0  0  0  0  0  0
   32.2659   29.3621   39.0077 H   0  0  0  0  0  0  0  0  0  0  0  0
   34.7947   28.6387   35.5724 H   0  0  0  0  0  0  0  0  0  0  0  0
   33.0492   29.6191   34.0928 H   0  0  0  0  0  0  0  0  0  0  0  0
   29.2036   30.1017   35.0764 H   0  0  0  0  0  0  0  0  0  0  0  0
  1 14  1  0
  2  1  2  0
  3  4  1  0
  3  2  1  0
  4  9  2  0
  5  6  2  0
  5  4  1  0
  6  7  1  0
  7  8  2  0
  9  1  1  0
  9  8  1  0
 11 10  2  0
 12 11  1  0
 13 12  2  0
 13 14  1  0
 14 15  2  0
 15 10  1  0
 16  3  1  0
 17 16  1  0
 18 19  2  0
 19 20  1  0
 21 20  2  0
 21 17  1  0
 22 21  1  0
 23 18  1  0
 23 22  2  0
 24 25  2  0
 24 18  1  0
 26 24  2  0
  2 27  1  0
  5 28  1  0
  6 29  1  0
  7 30  1  0
  8 31  1  0
 10 32  1  0
 11 33  1  0
 12 34  1  0
 16 35  1  0
 16 36  1  0
 17 37  1  0
 17 38  1  0
 19 39  1  0
 20 40  1  0
 22 41  1  0
 23 42  1  0
 24 43  1  0
M  ISO  8  27  14  28  14  29  14  30  14  31  14  32  14  33  14  34  14
M  ISO  8  35   8  36   8  37   8  38   8  39  14  40  14  41  14  42  14
M  ISO  1  43  11
M  END
>  <minimizedAffinity>  (1) 
-5.47721434

>  <minimizedRMSD>  (1) 
1.39969039

$$$$
