
     RDKit          3D

 46 49  0  0  0  0  0  0  0  0999 V2000
   37.5810   28.1630   41.3960 C   0  0  0  0  0  0  0  0  0  0  0  0
   36.3540   27.9020   40.7980 C   0  0  0  0  0  0  0  0  0  0  0  0
   35.9110   29.0600   40.2850 N   0  0  0  0  0  0  0  0  0  0  0  0
   36.7720   30.0540   40.5100 C   0  0  0  0  0  0  0  0  0  0  0  0
   36.6820   31.3850   40.1450 C   0  0  0  0  0  0  0  0  0  0  0  0
   37.7440   32.2170   40.5180 C   0  0  0  0  0  0  0  0  0  0  0  0
   38.8330   31.7100   41.2250 C   0  0  0  0  0  0  0  0  0  0  0  0
   38.9020   30.3830   41.5790 C   0  0  0  0  0  0  0  0  0  0  0  0
   37.8530   29.5240   41.2190 C   0  0  0  0  0  0  0  0  0  0  0  0
   39.5850   26.6280   44.0400 C   0  0  0  0  0  0  0  0  0  0  0  0
   40.0890   25.4580   43.4110 C   0  0  0  0  0  0  0  0  0  0  0  0
   39.7260   25.2210   42.0810 C   0  0  0  0  0  0  0  0  0  0  0  0
   38.9210   26.1170   41.4770 N   0  0  0  0  0  0  0  0  0  0  0  0
   38.4540   27.2180   42.0900 C   0  0  0  0  0  0  0  0  0  0  0  0
   38.7810   27.4830   43.3760 N   0  0  0  0  0  0  0  0  0  0  0  0
   34.6510   29.1090   39.5950 C   0  0  0  0  0  0  0  0  0  0  0  0
   34.7650   28.9170   38.1040 C   0  0  0  0  0  0  0  0  0  0  0  0
   33.4920   28.5420   37.4150 C   0  0  0  0  0  0  0  0  0  0  0  0
   32.4880   29.6440   37.7540 C   0  0  0  0  0  0  0  0  0  0  0  0
   31.1890   29.4440   37.0250 C   0  0  0  0  0  0  0  0  0  0  0  0
   31.3730   29.5590   35.5480 C   0  0  0  0  0  0  0  0  0  0  0  0
   32.8420   29.5370   35.2390 C   0  0  0  0  0  0  0  0  0  0  0  0
   33.5370   28.3880   35.9480 C   0  0  0  0  0  0  0  0  0  0  0  0
   35.8423   26.9293   40.7536 H   0  0  0  0  0  0  0  0  0  0  0  0
   35.8162   31.7717   39.5875 H   0  0  0  0  0  0  0  0  0  0  0  0
   37.7189   33.2836   40.2500 H   0  0  0  0  0  0  0  0  0  0  0  0
   39.6545   32.3856   41.5057 H   0  0  0  0  0  0  0  0  0  0  0  0
   39.7688   29.9999   42.1374 H   0  0  0  0  0  0  0  0  0  0  0  0
   39.8549   26.8397   45.0851 H   0  0  0  0  0  0  0  0  0  0  0  0
   40.7443   24.7602   43.9530 H   0  0  0  0  0  0  0  0  0  0  0  0
   40.0865   24.3308   41.5448 H   0  0  0  0  0  0  0  0  0  0  0  0
   34.0039   28.3161   39.9982 H   0  0  0  0  0  0  0  0  0  0  0  0
   34.2361   30.1147   39.7574 H   0  0  0  0  0  0  0  0  0  0  0  0
   35.1254   29.8592   37.6654 H   0  0  0  0  0  0  0  0  0  0  0  0
   35.4548   28.0732   37.9550 H   0  0  0  0  0  0  0  0  0  0  0  0
   33.2309   27.5364   37.7763 H   0  0  0  0  0  0  0  0  0  0  0  0
   32.2962   29.6329   38.8371 H   0  0  0  0  0  0  0  0  0  0  0  0
   32.9147   30.6092   37.4436 H   0  0  0  0  0  0  0  0  0  0  0  0
   30.7962   28.4439   37.2604 H   0  0  0  0  0  0  0  0  0  0  0  0
   30.4850   30.2246   37.3491 H   0  0  0  0  0  0  0  0  0  0  0  0
   30.8774   28.7144   35.0471 H   0  0  0  0  0  0  0  0  0  0  0  0
   30.9301   30.4997   35.1889 H   0  0  0  0  0  0  0  0  0  0  0  0
   32.9783   29.4233   34.1534 H   0  0  0  0  0  0  0  0  0  0  0  0
   33.2851   30.4807   35.5897 H   0  0  0  0  0  0  0  0  0  0  0  0
   33.0388   27.4465   35.6733 H   0  0  0  0  0  0  0  0  0  0  0  0
   34.5921   28.3822   35.6369 H   0  0  0  0  0  0  0  0  0  0  0  0
  1 14  1  0
  2  1  2  0
  3  4  1  0
  3  2  1  0
  4  9  2  0
  5  4  1  0
  5  6  2  0
  6  7  1  0
  7  8  2  0
  9  1  1  0
  9  8  1  0
 11 10  2  0
 12 11  1  0
 13 12  2  0
 13 14  1  0
 14 15  2  0
 15 10  1  0
 16  3  1  0
 17 16  1  0
 18 19  1  0
 18 17  1  0
 20 19  1  0
 21 20  1  0
 22 21  1  0
 22 23  1  0
 23 18  1  0
  2 24  1  0
  5 25  1  0
  6 26  1  0
  7 27  1  0
  8 28  1  0
 10 29  1  0
 11 30  1  0
 12 31  1  0
 16 32  1  0
 16 33  1  0
 17 34  1  0
 17 35  1  0
 18 36  1  0
 19 37  1  0
 19 38  1  0
 20 39  1  0
 20 40  1  0
 21 41  1  0
 21 42  1  0
 22 43  1  0
 22 44  1  0
 23 45  1  0
 23 46  1  0
M  ISO  8  24  14  25  14  26  14  27  14  28  14  29  14  30  14  31  14
M  ISO  8  32   8  33   8  34   8  35   8  36  13  37  13  38  13  39  13
M  ISO  7  40  13  41  13  42  13  43  13  44  13  45  13  46  13
M  END
>  <minimizedAffinity>  (1) 
-5.07963562

>  <minimizedRMSD>  (1) 
0.560613096

$$$$
