
     RDKit          3D

 30 32  0  0  0  0  0  0  0  0999 V2000
   37.0050   27.0710   41.5080 C   0  0  0  0  0  0  0  0  0  0  0  0
   36.8510   26.1290   40.4740 C   0  0  0  0  0  0  0  0  0  0  0  0
   36.9960   24.9190   41.1260 C   0  0  0  0  0  0  0  0  0  0  0  0
   37.2190   25.1060   42.4340 N   0  0  0  0  0  0  0  0  0  0  0  0
   37.2220   26.4150   42.6520 N   0  0  0  0  0  0  0  0  0  0  0  0
   37.9910   29.3730   41.5440 C   0  0  0  0  0  0  0  0  0  0  0  0
   36.9260   28.5060   41.2770 C   0  0  0  0  0  0  0  0  0  0  0  0
   35.7610   29.0560   40.7730 C   0  0  0  0  0  0  0  0  0  0  0  0
   35.6950   30.4050   40.5590 N   0  0  0  0  0  0  0  0  0  0  0  0
   36.7650   31.2060   40.8360 C   0  0  0  0  0  0  0  0  0  0  0  0
   37.9210   30.6880   41.3310 N   0  0  0  0  0  0  0  0  0  0  0  0
   36.6690   21.2290   39.1160 C   0  0  0  0  0  0  0  0  0  0  0  0
   37.8110   21.4560   39.8660 C   0  0  0  0  0  0  0  0  0  0  0  0
   37.9150   22.6730   40.5270 C   0  0  0  0  0  0  0  0  0  0  0  0
   36.9100   23.6200   40.4360 C   0  0  0  0  0  0  0  0  0  0  0  0
   35.7870   23.3390   39.6680 C   0  0  0  0  0  0  0  0  0  0  0  0
   35.6440   22.1420   38.9950 C   0  0  0  0  0  0  0  0  0  0  0  0
   36.5270   19.6900   38.2750 S   0  0  0  0  0  0  0  0  0  0  0  0
   35.4500   18.8880   38.9510 O   0  0  0  0  0  0  0  0  0  0  0  0
   37.7850   18.9060   38.3170 O   0  0  0  0  0  0  0  0  0  0  0  0
   36.6613   26.3114   39.4060 H   0  0  0  0  0  0  0  0  0  0  0  0
   37.3617   24.3696   43.1399 H   0  0  0  0  0  0  0  0  0  0  0  0
   38.9247   28.9530   41.9462 H   0  0  0  0  0  0  0  0  0  0  0  0
   34.8965   28.4147   40.5467 H   0  0  0  0  0  0  0  0  0  0  0  0
   36.6911   32.2886   40.6558 H   0  0  0  0  0  0  0  0  0  0  0  0
   38.6068   20.6998   39.9356 H   0  0  0  0  0  0  0  0  0  0  0  0
   38.8088   22.8872   41.1314 H   0  0  0  0  0  0  0  0  0  0  0  0
   34.9886   24.0920   39.5939 H   0  0  0  0  0  0  0  0  0  0  0  0
   34.7515   21.9267   38.3891 H   0  0  0  0  0  0  0  0  0  0  0  0
   36.2348   19.9476   36.9615 H   0  0  0  0  0  0  0  0  0  0  0  0
  1  5  2  0
  2  3  2  0
  2  1  1  0
  3  4  1  0
  4  5  1  0
  7  1  1  0
  7  6  2  0
  8  7  1  0
  9  8  2  0
  9 10  1  0
 10 11  2  0
 11  6  1  0
 12 13  2  0
 13 14  1  0
 15 14  2  0
 15  3  1  0
 16 15  1  0
 17 12  1  0
 17 16  2  0
 18 20  2  0
 18 19  2  0
 18 12  1  0
  2 21  1  0
  4 22  1  0
  6 23  1  0
  8 24  1  0
 10 25  1  0
 13 26  1  0
 14 27  1  0
 16 28  1  0
 17 29  1  0
 18 30  1  0
M  ISO  8  21  14  22   9  23  14  24  14  25  14  26  14  27  14  28  14
M  ISO  2  29  14  30  11
M  END
>  <minimizedAffinity>  (1) 
-4.4452796

>  <minimizedRMSD>  (1) 
0.717094421

$$$$
