
     RDKit          3D

 30 32  0  0  0  0  0  0  0  0999 V2000
   37.8180   31.3540   41.1510 C   0  0  0  0  0  0  0  0  0  0  0  0
   36.5430   31.2660   40.5410 C   0  0  0  0  0  0  0  0  0  0  0  0
   35.9140   30.0220   40.5520 C   0  0  0  0  0  0  0  0  0  0  0  0
   36.5620   28.9850   41.1450 N   0  0  0  0  0  0  0  0  0  0  0  0
   37.7640   29.0810   41.7170 C   0  0  0  0  0  0  0  0  0  0  0  0
   38.3940   30.2780   41.7180 N   0  0  0  0  0  0  0  0  0  0  0  0
   38.4560   28.0180   42.3400 N   0  0  0  0  0  0  0  0  0  0  0  0
   39.4820   28.3600   43.1130 N   0  0  0  0  0  0  0  0  0  0  0  0
   40.0260   27.2210   43.6280 C   0  0  0  0  0  0  0  0  0  0  0  0
   39.2610   26.1710   43.1140 C   0  0  0  0  0  0  0  0  0  0  0  0
   38.2720   26.6890   42.3010 C   0  0  0  0  0  0  0  0  0  0  0  0
   37.2510   25.9680   41.5610 C   0  0  0  0  0  0  0  0  0  0  0  0
   37.5980   25.7640   40.1010 C   0  0  0  0  0  0  0  0  0  0  0  0
   36.6110   24.6820   39.6940 C   0  0  0  0  0  0  0  0  0  0  0  0
   36.2250   23.9660   40.9660 C   0  0  0  0  0  0  0  0  0  0  0  0
   37.1660   24.5180   42.0210 C   0  0  0  0  0  0  0  0  0  0  0  0
   38.3467   32.3186   41.1615 H   0  0  0  0  0  0  0  0  0  0  0  0
   36.0684   32.1434   40.0774 H   0  0  0  0  0  0  0  0  0  0  0  0
   34.9232   29.8839   40.0946 H   0  0  0  0  0  0  0  0  0  0  0  0
   40.8880   27.1446   44.3070 H   0  0  0  0  0  0  0  0  0  0  0  0
   39.4208   25.1030   43.3233 H   0  0  0  0  0  0  0  0  0  0  0  0
   36.3480   26.5761   41.7183 H   0  0  0  0  0  0  0  0  0  0  0  0
   37.4439   26.6854   39.5203 H   0  0  0  0  0  0  0  0  0  0  0  0
   38.6503   25.4948   39.9270 H   0  0  0  0  0  0  0  0  0  0  0  0
   35.7235   25.1319   39.2250 H   0  0  0  0  0  0  0  0  0  0  0  0
   37.0531   23.9900   38.9621 H   0  0  0  0  0  0  0  0  0  0  0  0
   35.1787   24.1804   41.2294 H   0  0  0  0  0  0  0  0  0  0  0  0
   36.3048   22.8732   40.8686 H   0  0  0  0  0  0  0  0  0  0  0  0
   38.1474   24.0220   41.9933 H   0  0  0  0  0  0  0  0  0  0  0  0
   36.8327   24.3787   43.0600 H   0  0  0  0  0  0  0  0  0  0  0  0
  1  6  2  0
  2  3  2  0
  2  1  1  0
  3  4  1  0
  4  5  2  0
  5  6  1  0
  5  7  1  0
  7  8  1  0
  8  9  2  0
 10  9  1  0
 11  7  1  0
 11 10  2  0
 12 16  1  0
 12 11  1  0
 13 12  1  0
 14 13  1  0
 14 15  1  0
 15 16  1  0
  1 17  1  0
  2 18  1  0
  3 19  1  0
  9 20  1  0
 10 21  1  0
 12 22  1  0
 13 23  1  0
 13 24  1  0
 14 25  1  0
 14 26  1  0
 15 27  1  0
 15 28  1  0
 16 29  1  0
 16 30  1  0
M  ISO  8  17  14  18  14  19  14  20  14  21  14  22  13  23  13  24  13
M  ISO  6  25  13  26  13  27  13  28  13  29  13  30  13
M  END
>  <minimizedAffinity>  (1) 
-4.74841213

>  <minimizedRMSD>  (1) 
5.13912153

$$$$
