
     RDKit          3D

 50 54  0  0  0  0  0  0  0  0999 V2000
   36.8170   29.8830   39.9670 C   0  0  0  0  0  0  0  0  0  0  0  0
   37.7030   30.9640   39.9640 C   0  0  0  0  0  0  0  0  0  0  0  0
   38.3790   30.9010   41.1050 N   0  0  0  0  0  0  0  0  0  0  0  0
   38.0060   29.8610   41.8600 C   0  0  0  0  0  0  0  0  0  0  0  0
   38.4660   29.4550   43.1000 C   0  0  0  0  0  0  0  0  0  0  0  0
   37.8810   28.3200   43.6410 C   0  0  0  0  0  0  0  0  0  0  0  0
   36.8770   27.6230   42.9660 C   0  0  0  0  0  0  0  0  0  0  0  0
   36.4310   28.0450   41.7270 C   0  0  0  0  0  0  0  0  0  0  0  0
   37.0050   29.1820   41.1650 C   0  0  0  0  0  0  0  0  0  0  0  0
   33.6850   28.9100   38.3520 C   0  0  0  0  0  0  0  0  0  0  0  0
   34.0540   28.8430   36.9680 C   0  0  0  0  0  0  0  0  0  0  0  0
   35.3700   29.1330   36.6290 C   0  0  0  0  0  0  0  0  0  0  0  0
   36.2250   29.4630   37.6210 N   0  0  0  0  0  0  0  0  0  0  0  0
   35.8550   29.5210   38.9270 C   0  0  0  0  0  0  0  0  0  0  0  0
   34.6000   29.2450   39.2640 N   0  0  0  0  0  0  0  0  0  0  0  0
   39.3760   31.8950   41.3970 C   0  0  0  0  0  0  0  0  0  0  0  0
   39.0950   33.2530   40.8330 C   0  0  0  0  0  0  0  0  0  0  0  0
   40.2180   33.5190   39.9130 N   0  0  0  0  0  0  0  0  0  0  0  0
   40.3070   33.0150   38.6810 N   0  0  0  0  0  0  0  0  0  0  0  0
   41.4380   33.4310   38.0940 C   0  0  0  0  0  0  0  0  0  0  0  0
   42.1160   34.2570   39.0130 C   0  0  0  0  0  0  0  0  0  0  0  0
   41.3030   34.2720   40.1310 C   0  0  0  0  0  0  0  0  0  0  0  0
   41.6290   35.0200   41.3470 C   0  0  0  0  0  0  0  0  0  0  0  0
   43.1230   35.1230   41.6000 C   0  0  0  0  0  0  0  0  0  0  0  0
   43.1210   36.0700   42.7820 C   0  0  0  0  0  0  0  0  0  0  0  0
   42.0060   37.0190   42.4930 C   0  0  0  0  0  0  0  0  0  0  0  0
   41.2770   36.4850   41.2600 C   0  0  0  0  0  0  0  0  0  0  0  0
   37.8177   31.7187   39.1720 H   0  0  0  0  0  0  0  0  0  0  0  0
   39.2569   30.0054   43.6307 H   0  0  0  0  0  0  0  0  0  0  0  0
   38.2159   27.9603   44.6251 H   0  0  0  0  0  0  0  0  0  0  0  0
   36.4351   26.7267   43.4257 H   0  0  0  0  0  0  0  0  0  0  0  0
   35.6399   27.4943   41.1970 H   0  0  0  0  0  0  0  0  0  0  0  0
   32.6531   28.6864   38.6604 H   0  0  0  0  0  0  0  0  0  0  0  0
   33.3175   28.5702   36.1978 H   0  0  0  0  0  0  0  0  0  0  0  0
   35.7059   29.0949   35.5822 H   0  0  0  0  0  0  0  0  0  0  0  0
   39.4556   31.9886   42.4901 H   0  0  0  0  0  0  0  0  0  0  0  0
   40.3056   31.5492   40.9212 H   0  0  0  0  0  0  0  0  0  0  0  0
   38.1391   33.2563   40.2887 H   0  0  0  0  0  0  0  0  0  0  0  0
   39.0108   34.0192   41.6178 H   0  0  0  0  0  0  0  0  0  0  0  0
   41.7757   33.1743   37.0791 H   0  0  0  0  0  0  0  0  0  0  0  0
   43.0767   34.7739   38.8722 H   0  0  0  0  0  0  0  0  0  0  0  0
   41.0697   34.4608   42.1115 H   0  0  0  0  0  0  0  0  0  0  0  0
   43.5622   34.1480   41.8580 H   0  0  0  0  0  0  0  0  0  0  0  0
   43.7184   35.4573   40.7376 H   0  0  0  0  0  0  0  0  0  0  0  0
   42.9348   35.5238   43.7185 H   0  0  0  0  0  0  0  0  0  0  0  0
   44.0858   36.5823   42.9114 H   0  0  0  0  0  0  0  0  0  0  0  0
   41.3171   37.0653   43.3493 H   0  0  0  0  0  0  0  0  0  0  0  0
   42.3894   38.0345   42.3148 H   0  0  0  0  0  0  0  0  0  0  0  0
   41.6580   36.9401   40.3339 H   0  0  0  0  0  0  0  0  0  0  0  0
   40.1979   36.6971   41.2372 H   0  0  0  0  0  0  0  0  0  0  0  0
  1  9  1  0
  2  1  2  0
  2  3  1  0
  3 16  1  0
  3  4  1  0
  4  5  2  0
  5  6  1  0
  7  6  2  0
  8  7  1  0
  9  8  2  0
  9  4  1  0
 10 15  2  0
 11 10  1  0
 12 11  2  0
 12 13  1  0
 13 14  2  0
 14 15  1  0
 14  1  1  0
 17 16  1  0
 18 22  1  0
 18 17  1  0
 19 18  1  0
 20 19  2  0
 20 21  1  0
 21 22  2  0
 22 23  1  0
 23 24  1  0
 24 25  1  0
 26 25  1  0
 27 23  1  0
 27 26  1  0
  2 28  1  0
  5 29  1  0
  6 30  1  0
  7 31  1  0
  8 32  1  0
 10 33  1  0
 11 34  1  0
 12 35  1  0
 16 36  1  0
 16 37  1  0
 17 38  1  0
 17 39  1  0
 20 40  1  0
 21 41  1  0
 23 42  1  0
 24 43  1  0
 24 44  1  0
 25 45  1  0
 25 46  1  0
 26 47  1  0
 26 48  1  0
 27 49  1  0
 27 50  1  0
M  ISO  8  28  14  29  14  30  14  31  14  32  14  33  14  34  14  35  14
M  ISO  8  36   8  37   8  38   8  39   8  40  14  41  14  42  13  43  13
M  ISO  7  44  13  45  13  46  13  47  13  48  13  49  13  50  13
M  END
>  <minimizedAffinity>  (1) 
-6.53594208

>  <minimizedRMSD>  (1) 
2.59087515

$$$$
