
     RDKit          3D

 44 48  0  0  0  0  0  0  0  0999 V2000
   36.6000   29.7730   39.8850 C   0  0  0  0  0  0  0  0  0  0  0  0
   37.4440   30.8710   39.8990 C   0  0  0  0  0  0  0  0  0  0  0  0
   38.1190   30.8330   41.0460 N   0  0  0  0  0  0  0  0  0  0  0  0
   37.7720   29.7810   41.7910 C   0  0  0  0  0  0  0  0  0  0  0  0
   38.2410   29.3960   43.0370 C   0  0  0  0  0  0  0  0  0  0  0  0
   37.6860   28.2340   43.5740 C   0  0  0  0  0  0  0  0  0  0  0  0
   36.7140   27.5110   42.8870 C   0  0  0  0  0  0  0  0  0  0  0  0
   36.2650   27.9170   41.6490 C   0  0  0  0  0  0  0  0  0  0  0  0
   36.8020   29.0710   41.0880 C   0  0  0  0  0  0  0  0  0  0  0  0
   33.5010   28.8460   38.2060 C   0  0  0  0  0  0  0  0  0  0  0  0
   33.9160   28.6420   36.8490 C   0  0  0  0  0  0  0  0  0  0  0  0
   35.2680   28.8310   36.5490 C   0  0  0  0  0  0  0  0  0  0  0  0
   36.0900   29.1930   37.5530 N   0  0  0  0  0  0  0  0  0  0  0  0
   35.6600   29.3780   38.8330 C   0  0  0  0  0  0  0  0  0  0  0  0
   34.3830   29.2080   39.1560 N   0  0  0  0  0  0  0  0  0  0  0  0
   39.0880   31.8560   41.3410 C   0  0  0  0  0  0  0  0  0  0  0  0
   38.7240   33.2180   40.8500 C   0  0  0  0  0  0  0  0  0  0  0  0
   39.8510   33.6160   39.9720 N   0  0  0  0  0  0  0  0  0  0  0  0
   40.4050   32.8100   39.0740 N   0  0  0  0  0  0  0  0  0  0  0  0
   41.3960   33.4600   38.4440 C   0  0  0  0  0  0  0  0  0  0  0  0
   41.4690   34.7620   38.9840 C   0  0  0  0  0  0  0  0  0  0  0  0
   40.4730   34.8070   39.9430 C   0  0  0  0  0  0  0  0  0  0  0  0
   40.1730   35.9980   40.7810 C   0  0  0  0  0  0  0  0  0  0  0  0
   39.5540   37.2080   40.1140 C   0  0  0  0  0  0  0  0  0  0  0  0
   40.9730   37.2350   40.6040 C   0  0  0  0  0  0  0  0  0  0  0  0
   37.5389   31.6319   39.1103 H   0  0  0  0  0  0  0  0  0  0  0  0
   39.0081   29.9744   43.5728 H   0  0  0  0  0  0  0  0  0  0  0  0
   38.0230   27.8818   44.5601 H   0  0  0  0  0  0  0  0  0  0  0  0
   36.2972   26.5997   43.3406 H   0  0  0  0  0  0  0  0  0  0  0  0
   35.4964   27.3394   41.1145 H   0  0  0  0  0  0  0  0  0  0  0  0
   32.4439   28.7043   38.4753 H   0  0  0  0  0  0  0  0  0  0  0  0
   33.1959   28.3472   36.0715 H   0  0  0  0  0  0  0  0  0  0  0  0
   35.6483   28.6888   35.5267 H   0  0  0  0  0  0  0  0  0  0  0  0
   39.2115   31.9067   42.4329 H   0  0  0  0  0  0  0  0  0  0  0  0
   40.0111   31.5716   40.8147 H   0  0  0  0  0  0  0  0  0  0  0  0
   37.7824   33.1867   40.2822 H   0  0  0  0  0  0  0  0  0  0  0  0
   38.5677   33.9293   41.6744 H   0  0  0  0  0  0  0  0  0  0  0  0
   42.0368   33.0511   37.6489 H   0  0  0  0  0  0  0  0  0  0  0  0
   42.1658   35.5656   38.7035 H   0  0  0  0  0  0  0  0  0  0  0  0
   39.9188   35.3611   41.6411 H   0  0  0  0  0  0  0  0  0  0  0  0
   38.7784   37.7896   40.6338 H   0  0  0  0  0  0  0  0  0  0  0  0
   39.0520   37.4034   39.1550 H   0  0  0  0  0  0  0  0  0  0  0  0
   41.8016   37.2522   39.8807 H   0  0  0  0  0  0  0  0  0  0  0  0
   41.5443   37.8884   41.2797 H   0  0  0  0  0  0  0  0  0  0  0  0
  1  2  2  0
  1  9  1  0
  2  3  1  0
  3 16  1  0
  3  4  1  0
  4  5  2  0
  5  6  1  0
  7  6  2  0
  8  7  1  0
  9  8  2  0
  9  4  1  0
 10 15  2  0
 11 10  1  0
 12 11  2  0
 12 13  1  0
 13 14  2  0
 14 15  1  0
 14  1  1  0
 17 16  1  0
 18 17  1  0
 19 18  1  0
 20 21  1  0
 20 19  2  0
 21 22  2  0
 22 18  1  0
 22 23  1  0
 24 25  1  0
 24 23  1  0
 25 23  1  0
  2 26  1  0
  5 27  1  0
  6 28  1  0
  7 29  1  0
  8 30  1  0
 10 31  1  0
 11 32  1  0
 12 33  1  0
 16 34  1  0
 16 35  1  0
 17 36  1  0
 17 37  1  0
 20 38  1  0
 21 39  1  0
 23 40  1  0
 24 41  1  0
 24 42  1  0
 25 43  1  0
 25 44  1  0
M  ISO  8  26  14  27  14  28  14  29  14  30  14  31  14  32  14  33  14
M  ISO  8  34   8  35   8  36   8  37   8  38  14  39  14  40  13  41  13
M  ISO  3  42  13  43  13  44  13
M  END
>  <minimizedAffinity>  (1) 
-6.12224102

>  <minimizedRMSD>  (1) 
1.29068577

$$$$
