
     RDKit          3D

 24 25  0  0  1  0  0  0  0  0999 V2000
   36.3880   31.1530   40.7110 C   0  0  1  0  0  0  0  0  0  0  0  0
   37.3480   32.2530   40.3890 C   0  0  0  0  0  0  0  0  0  0  0  0
   36.8850   31.3800   39.2800 C   0  0  1  0  0  0  0  0  0  0  0  0
   38.6830   29.1060   42.7540 C   0  0  0  0  0  0  0  0  0  0  0  0
   38.0200   27.8570   42.7960 C   0  0  0  0  0  0  0  0  0  0  0  0
   36.7900   27.7500   42.1020 C   0  0  0  0  0  0  0  0  0  0  0  0
   36.3040   28.8270   41.4410 N   0  0  0  0  0  0  0  0  0  0  0  0
   36.9870   30.0100   41.4330 C   0  0  0  0  0  0  0  0  0  0  0  0
   38.1640   30.1440   42.0830 N   0  0  0  0  0  0  0  0  0  0  0  0
   37.7450   30.4320   38.6490 N   0  0  0  0  0  0  0  0  0  0  0  0
   38.6480   30.8740   37.6130 C   0  0  0  0  0  0  0  0  0  0  0  0
   38.2410   31.8610   36.8610 N   0  0  0  0  0  0  0  0  0  0  0  0
   39.9200   30.2490   37.4320 N   0  0  0  0  0  0  0  0  0  0  0  0
   38.9010   32.1730   36.1150 H   0  0  0  0  0  0  0  0  0  0  0  0
   35.3998   31.0731   41.1875 H   0  0  0  0  0  0  0  0  0  0  0  0
   37.0126   33.2996   40.4348 H   0  0  0  0  0  0  0  0  0  0  0  0
   38.3364   32.5451   40.7734 H   0  0  0  0  0  0  0  0  0  0  0  0
   36.4183   31.5579   38.2999 H   0  0  0  0  0  0  0  0  0  0  0  0
   39.6409   29.2275   43.2810 H   0  0  0  0  0  0  0  0  0  0  0  0
   38.4428   27.0031   43.3456 H   0  0  0  0  0  0  0  0  0  0  0  0
   36.2346   26.8005   42.1001 H   0  0  0  0  0  0  0  0  0  0  0  0
   37.7217   29.4414   38.9302 H   0  0  0  0  0  0  0  0  0  0  0  0
   40.5532   30.5758   36.6883 H   0  0  0  0  0  0  0  0  0  0  0  0
   40.2038   29.4716   38.0453 H   0  0  0  0  0  0  0  0  0  0  0  0
  1  8  1  0
  2  1  1  0
  3  2  1  0
  3  1  1  0
  4  5  2  0
  6  5  1  0
  7  6  2  0
  8  7  1  0
  8  9  2  0
  9  4  1  0
 10  3  1  0
 11 10  1  0
 12 11  2  0
 13 11  1  0
 14 12  1  0
  1 15  1  6
  2 16  1  0
  2 17  1  0
  3 18  1  6
  4 19  1  0
  5 20  1  0
  6 21  1  0
 10 22  1  0
 13 23  1  0
 13 24  1  0
M  ISO  7  15  13  16  13  17  13  18  13  19  14  20  14  21  14
M  END
>  <minimizedAffinity>  (1) 
-4.15830183

>  <minimizedRMSD>  (1) 
1.31629145

$$$$
