
     RDKit          3D

 24 26  0  0  1  0  0  0  0  0999 V2000
   35.8500   29.8210   40.3700 C   0  0  1  0  0  0  0  0  0  0  0  0
   36.6080   30.7830   39.5240 C   0  0  0  0  0  0  0  0  0  0  0  0
   36.3410   29.4340   38.9570 C   0  0  2  0  0  0  0  0  0  0  0  0
   38.2750   29.3440   43.1010 C   0  0  0  0  0  0  0  0  0  0  0  0
   37.8840   28.0850   43.6260 C   0  0  0  0  0  0  0  0  0  0  0  0
   36.7930   27.4140   43.0170 C   0  0  0  0  0  0  0  0  0  0  0  0
   36.1710   28.0190   41.9470 N   0  0  0  0  0  0  0  0  0  0  0  0
   36.5870   29.2170   41.4910 C   0  0  0  0  0  0  0  0  0  0  0  0
   37.6110   29.8670   42.0490 N   0  0  0  0  0  0  0  0  0  0  0  0
   35.2380   29.2030   37.9940 C   0  0  0  0  0  0  0  0  0  0  0  0
   33.9370   28.8260   38.2660 C   0  0  0  0  0  0  0  0  0  0  0  0
   33.2100   28.7160   37.0910 C   0  0  0  0  0  0  0  0  0  0  0  0
   34.0970   29.0310   36.1260 N   0  0  0  0  0  0  0  0  0  0  0  0
   35.2840   29.3160   36.6540 N   0  0  0  0  0  0  0  0  0  0  0  0
   34.8833   29.8317   40.8948 H   0  0  0  0  0  0  0  0  0  0  0  0
   36.0929   31.6598   39.1045 H   0  0  0  0  0  0  0  0  0  0  0  0
   37.5198   31.3789   39.6771 H   0  0  0  0  0  0  0  0  0  0  0  0
   36.9955   28.6911   38.4778 H   0  0  0  0  0  0  0  0  0  0  0  0
   39.1166   29.8918   43.5500 H   0  0  0  0  0  0  0  0  0  0  0  0
   38.4129   27.6413   44.4824 H   0  0  0  0  0  0  0  0  0  0  0  0
   36.4525   26.4365   43.3891 H   0  0  0  0  0  0  0  0  0  0  0  0
   33.5349   28.6395   39.2727 H   0  0  0  0  0  0  0  0  0  0  0  0
   32.1528   28.4361   36.9731 H   0  0  0  0  0  0  0  0  0  0  0  0
   33.8847   29.0486   35.1183 H   0  0  0  0  0  0  0  0  0  0  0  0
  1  8  1  0
  2  1  1  0
  3  2  1  0
  3  1  1  0
  4  5  2  0
  6  5  1  0
  7  6  2  0
  8  7  1  0
  8  9  2  0
  9  4  1  0
 10 11  1  0
 10  3  1  0
 12 11  2  0
 13 14  1  0
 13 12  1  0
 14 10  2  0
  1 15  1  6
  2 16  1  0
  2 17  1  0
  3 18  1  1
  4 19  1  0
  5 20  1  0
  6 21  1  0
 11 22  1  0
 12 23  1  0
 13 24  1  0
M  ISO  8  15  13  16  13  17  13  18  13  19  14  20  14  21  14  22  14
M  ISO  2  23  14  24   9
M  END
>  <minimizedAffinity>  (1) 
-4.07730341

>  <minimizedRMSD>  (1) 
1.52281427

$$$$
