
     RDKit          3D

 30 32  0  0  1  0  0  0  0  0999 V2000
   36.1860   30.6160   40.7480 C   0  0  1  0  0  0  0  0  0  0  0  0
   37.0240   31.8310   40.5070 C   0  0  0  0  0  0  0  0  0  0  0  0
   36.8630   30.8710   39.3990 C   0  0  1  0  0  0  0  0  0  0  0  0
   38.3960   28.9820   43.1820 C   0  0  0  0  0  0  0  0  0  0  0  0
   37.8550   27.6730   43.2690 C   0  0  0  0  0  0  0  0  0  0  0  0
   36.7270   27.3820   42.4610 C   0  0  0  0  0  0  0  0  0  0  0  0
   36.2200   28.3730   41.6430 N   0  0  0  0  0  0  0  0  0  0  0  0
   36.7920   29.5930   41.6180 C   0  0  0  0  0  0  0  0  0  0  0  0
   37.8600   29.9050   42.3670 N   0  0  0  0  0  0  0  0  0  0  0  0
   37.8570   30.0170   38.8740 N   0  0  0  0  0  0  0  0  0  0  0  0
   37.6060   29.7770   37.4400 C   0  0  0  0  0  0  0  0  0  0  0  0
   38.4300   28.6050   36.9500 C   0  0  0  0  0  0  0  0  0  0  0  0
   39.7400   28.6700   37.4240 O   0  0  0  0  0  0  0  0  0  0  0  0
   40.0190   29.9930   37.7260 C   0  0  0  0  0  0  0  0  0  0  0  0
   39.2170   30.4630   38.9510 C   0  0  0  0  0  0  0  0  0  0  0  0
   35.1570   30.4088   41.0769 H   0  0  0  0  0  0  0  0  0  0  0  0
   36.5448   32.8192   40.4449 H   0  0  0  0  0  0  0  0  0  0  0  0
   37.8927   32.2751   41.0152 H   0  0  0  0  0  0  0  0  0  0  0  0
   36.5538   30.9715   38.3482 H   0  0  0  0  0  0  0  0  0  0  0  0
   39.2712   29.2457   43.7939 H   0  0  0  0  0  0  0  0  0  0  0  0
   38.2927   26.9155   43.9357 H   0  0  0  0  0  0  0  0  0  0  0  0
   36.2637   26.3846   42.4850 H   0  0  0  0  0  0  0  0  0  0  0  0
   36.5385   29.5576   37.2904 H   0  0  0  0  0  0  0  0  0  0  0  0
   37.8898   30.6755   36.8723 H   0  0  0  0  0  0  0  0  0  0  0  0
   38.4466   28.6142   35.8502 H   0  0  0  0  0  0  0  0  0  0  0  0
   37.9716   27.6785   37.3259 H   0  0  0  0  0  0  0  0  0  0  0  0
   41.0933   30.0937   37.9399 H   0  0  0  0  0  0  0  0  0  0  0  0
   39.7361   30.6150   36.8640 H   0  0  0  0  0  0  0  0  0  0  0  0
   39.2338   31.5621   38.9923 H   0  0  0  0  0  0  0  0  0  0  0  0
   39.6757   30.0374   39.8557 H   0  0  0  0  0  0  0  0  0  0  0  0
  1  8  1  0
  2  1  1  0
  3  2  1  0
  3  1  1  0
  4  5  2  0
  6  5  1  0
  7  6  2  0
  8  7  1  0
  8  9  2  0
  9  4  1  0
 10 15  1  0
 10  3  1  0
 11 10  1  0
 12 13  1  0
 12 11  1  0
 13 14  1  0
 14 15  1  0
  1 16  1  6
  2 17  1  0
  2 18  1  0
  3 19  1  6
  4 20  1  0
  5 21  1  0
  6 22  1  0
 11 23  1  0
 11 24  1  0
 12 25  1  0
 12 26  1  0
 14 27  1  0
 14 28  1  0
 15 29  1  0
 15 30  1  0
M  ISO  8  16  13  17  13  18  13  19  13  20  14  21  14  22  14  23  13
M  ISO  7  24  13  25  13  26  13  27  13  28  13  29  13  30  13
M  END
>  <minimizedAffinity>  (1) 
-4.00790596

>  <minimizedRMSD>  (1) 
0.410870254

$$$$
