
     RDKit          3D

 24 26  0  0  1  0  0  0  0  0999 V2000
   36.1790   30.6780   40.8000 C   0  0  1  0  0  0  0  0  0  0  0  0
   37.0270   31.8640   40.4620 C   0  0  0  0  0  0  0  0  0  0  0  0
   36.7780   30.9050   39.3960 C   0  0  1  0  0  0  0  0  0  0  0  0
   38.5710   29.0150   43.0510 C   0  0  0  0  0  0  0  0  0  0  0  0
   37.9940   27.7290   43.1980 C   0  0  0  0  0  0  0  0  0  0  0  0
   36.7870   27.4470   42.5100 C   0  0  0  0  0  0  0  0  0  0  0  0
   36.2360   28.4380   41.7320 N   0  0  0  0  0  0  0  0  0  0  0  0
   36.8300   29.6430   41.6290 C   0  0  0  0  0  0  0  0  0  0  0  0
   37.9620   29.9310   42.2650 N   0  0  0  0  0  0  0  0  0  0  0  0
   37.6930   29.8530   38.9620 C   0  0  0  0  0  0  0  0  0  0  0  0
   37.4880   28.6990   38.2720 C   0  0  0  0  0  0  0  0  0  0  0  0
   38.6420   28.0250   38.0820 N   0  0  0  0  0  0  0  0  0  0  0  0
   39.5980   28.7730   38.6680 C   0  0  0  0  0  0  0  0  0  0  0  0
   39.0290   29.8690   39.1960 N   0  0  0  0  0  0  0  0  0  0  0  0
   35.1743   30.5060   41.2136 H   0  0  0  0  0  0  0  0  0  0  0  0
   36.5668   32.8618   40.4111 H   0  0  0  0  0  0  0  0  0  0  0  0
   37.9404   32.2940   40.8989 H   0  0  0  0  0  0  0  0  0  0  0  0
   36.4611   31.0664   38.3551 H   0  0  0  0  0  0  0  0  0  0  0  0
   39.5067   29.2658   43.5721 H   0  0  0  0  0  0  0  0  0  0  0  0
   38.4717   26.9671   43.8314 H   0  0  0  0  0  0  0  0  0  0  0  0
   36.3044   26.4623   42.5962 H   0  0  0  0  0  0  0  0  0  0  0  0
   36.5055   28.3579   37.9139 H   0  0  0  0  0  0  0  0  0  0  0  0
   40.6692   28.5261   38.7073 H   0  0  0  0  0  0  0  0  0  0  0  0
   39.5321   30.6111   39.7030 H   0  0  0  0  0  0  0  0  0  0  0  0
  1  8  1  0
  2  1  1  0
  3  2  1  0
  3  1  1  0
  4  5  2  0
  6  5  1  0
  7  6  2  0
  8  7  1  0
  8  9  2  0
  9  4  1  0
 10 14  1  0
 10  3  1  0
 11 10  2  0
 12 11  1  0
 12 13  2  0
 13 14  1  0
  1 15  1  6
  2 16  1  0
  2 17  1  0
  3 18  1  6
  4 19  1  0
  5 20  1  0
  6 21  1  0
 11 22  1  0
 13 23  1  0
 14 24  1  0
M  ISO  8  15  13  16  13  17  13  18  13  19  14  20  14  21  14  22  14
M  ISO  2  23  14  24   9
M  END
>  <minimizedAffinity>  (1) 
-3.85670638

>  <minimizedRMSD>  (1) 
0.639573157

$$$$
