
     RDKit          3D

 26 27  0  0  1  0  0  0  0  0999 V2000
   36.2810   30.7970   41.0580 C   0  0  1  0  0  0  0  0  0  0  0  0
   37.1950   31.8550   40.5250 C   0  0  0  0  0  0  0  0  0  0  0  0
   36.5730   30.9500   39.5560 C   0  0  1  0  0  0  0  0  0  0  0  0
   38.7330   28.8300   42.9700 C   0  0  0  0  0  0  0  0  0  0  0  0
   38.1150   27.5540   43.0370 C   0  0  0  0  0  0  0  0  0  0  0  0
   36.8540   27.3980   42.4080 C   0  0  0  0  0  0  0  0  0  0  0  0
   36.3040   28.4630   41.7780 N   0  0  0  0  0  0  0  0  0  0  0  0
   36.9220   29.6600   41.7360 C   0  0  0  0  0  0  0  0  0  0  0  0
   38.1230   29.8460   42.3230 N   0  0  0  0  0  0  0  0  0  0  0  0
   37.2680   29.8980   38.7850 C   0  0  0  0  0  0  0  0  0  0  0  0
   36.3670   29.5070   37.5890 C   0  0  0  0  0  0  0  0  0  0  0  0
   38.5720   30.3030   38.1630 C   0  0  0  0  0  0  0  0  0  0  0  0
   35.3823   30.7726   41.6918 H   0  0  0  0  0  0  0  0  0  0  0  0
   36.8836   32.9094   40.5604 H   0  0  0  0  0  0  0  0  0  0  0  0
   38.2343   32.1438   40.7404 H   0  0  0  0  0  0  0  0  0  0  0  0
   35.9919   31.1094   38.6357 H   0  0  0  0  0  0  0  0  0  0  0  0
   39.7113   28.9915   43.4463 H   0  0  0  0  0  0  0  0  0  0  0  0
   38.5979   26.7148   43.5591 H   0  0  0  0  0  0  0  0  0  0  0  0
   36.3322   26.4299   42.4313 H   0  0  0  0  0  0  0  0  0  0  0  0
   37.4689   29.0993   39.5142 H   0  0  0  0  0  0  0  0  0  0  0  0
   35.4183   29.0953   37.9638 H   0  0  0  0  0  0  0  0  0  0  0  0
   36.1636   30.3978   36.9765 H   0  0  0  0  0  0  0  0  0  0  0  0
   36.8787   28.7500   36.9765 H   0  0  0  0  0  0  0  0  0  0  0  0
   39.3012   30.5295   38.9548 H   0  0  0  0  0  0  0  0  0  0  0  0
   38.9518   29.4805   37.5391 H   0  0  0  0  0  0  0  0  0  0  0  0
   38.4190   31.1959   37.5391 H   0  0  0  0  0  0  0  0  0  0  0  0
  1  8  1  0
  2  1  1  0
  3  2  1  0
  3  1  1  0
  4  5  2  0
  6  5  1  0
  7  6  2  0
  8  7  1  0
  8  9  2  0
  9  4  1  0
 10  3  1  0
 11 10  1  0
 12 10  1  0
  1 13  1  6
  2 14  1  0
  2 15  1  0
  3 16  1  6
  4 17  1  0
  5 18  1  0
  6 19  1  0
 10 20  1  0
 11 21  1  0
 11 22  1  0
 11 23  1  0
 12 24  1  0
 12 25  1  0
 12 26  1  0
M  ISO  8  13  13  14  13  15  13  16  13  17  14  18  14  19  14  20   8
M  ISO  6  21   8  22   8  23   8  24   8  25   8  26   8
M  END
>  <minimizedAffinity>  (1) 
-3.80329967

>  <minimizedRMSD>  (1) 
0.317642987

$$$$
