
     RDKit          3D

 19 20  0  0  1  0  0  0  0  0999 V2000
   37.2000   27.9080   43.1280 C   0  0  1  0  0  0  0  0  0  0  0  0
   37.9090   29.2070   43.3340 C   0  0  0  0  0  0  0  0  0  0  0  0
   37.3900   28.9150   41.9730 C   0  0  2  0  0  0  0  0  0  0  0  0
   40.0480   25.6370   43.6940 C   0  0  0  0  0  0  0  0  0  0  0  0
   39.6480   24.4770   42.9800 C   0  0  0  0  0  0  0  0  0  0  0  0
   38.4000   24.5060   42.3080 C   0  0  0  0  0  0  0  0  0  0  0  0
   37.6480   25.6290   42.3740 N   0  0  0  0  0  0  0  0  0  0  0  0
   38.0670   26.7170   43.0680 C   0  0  0  0  0  0  0  0  0  0  0  0
   39.2470   26.7240   43.7170 N   0  0  0  0  0  0  0  0  0  0  0  0
   36.1760   29.6340   41.6350 N   0  0  0  0  0  0  0  0  0  0  0  0
   36.3472   27.3946   43.5961 H   0  0  0  0  0  0  0  0  0  0  0  0
   37.4353   29.9944   43.9386 H   0  0  0  0  0  0  0  0  0  0  0  0
   38.8970   29.4827   43.7312 H   0  0  0  0  0  0  0  0  0  0  0  0
   37.8214   28.8868   40.9615 H   0  0  0  0  0  0  0  0  0  0  0  0
   41.0096   25.6504   44.2280 H   0  0  0  0  0  0  0  0  0  0  0  0
   40.2873   23.5824   42.9491 H   0  0  0  0  0  0  0  0  0  0  0  0
   38.0489   23.6303   41.7424 H   0  0  0  0  0  0  0  0  0  0  0  0
   35.6941   29.9194   42.4994 H   0  0  0  0  0  0  0  0  0  0  0  0
   36.4146   30.4701   41.0828 H   0  0  0  0  0  0  0  0  0  0  0  0
  1  2  1  0
  3  1  1  0
  3  2  1  0
  4  9  2  0
  5  4  1  0
  6  7  1  0
  6  5  2  0
  7  8  2  0
  8  1  1  0
  8  9  1  0
 10  3  1  0
  1 11  1  1
  2 12  1  0
  2 13  1  0
  3 14  1  6
  4 15  1  0
  5 16  1  0
  6 17  1  0
 10 18  1  0
 10 19  1  0
M  ISO  8  11  13  12  13  13  13  14  13  15  14  16  14  17  14  18   5
M  ISO  1  19   5
M  END
>  <minimizedAffinity>  (1) 
-3.67125177

>  <minimizedRMSD>  (1) 
3.54864836

$$$$
