
     RDKit          3D

 20 21  0  0  1  0  0  0  0  0999 V2000
   38.6890   28.3480   43.2240 C   0  0  0  0  0  0  0  0  0  0  0  0
   37.4330   28.4000   43.8630 C   0  0  0  0  0  0  0  0  0  0  0  0
   36.4830   27.4070   43.5100 C   0  0  0  0  0  0  0  0  0  0  0  0
   36.8030   26.4650   42.5930 N   0  0  0  0  0  0  0  0  0  0  0  0
   38.0360   26.4580   42.0030 C   0  0  0  0  0  0  0  0  0  0  0  0
   38.9630   27.3890   42.3170 N   0  0  0  0  0  0  0  0  0  0  0  0
   38.3290   25.4230   40.9920 C   0  0  1  0  0  0  0  0  0  0  0  0
   39.6930   24.8240   41.0860 C   0  0  0  0  0  0  0  0  0  0  0  0
   38.5520   24.0040   41.5680 C   0  0  2  0  0  0  0  0  0  0  0  0
   38.0570   22.8890   40.6760 C   0  0  0  0  0  0  0  0  0  0  0  0
   39.4545   29.0991   43.4686 H   0  0  0  0  0  0  0  0  0  0  0  0
   37.1994   29.1782   44.6045 H   0  0  0  0  0  0  0  0  0  0  0  0
   35.4888   27.4030   43.9807 H   0  0  0  0  0  0  0  0  0  0  0  0
   37.7154   25.8636   40.1924 H   0  0  0  0  0  0  0  0  0  0  0  0
   40.2216   24.5312   40.1668 H   0  0  0  0  0  0  0  0  0  0  0  0
   40.6402   25.1527   41.5386 H   0  0  0  0  0  0  0  0  0  0  0  0
   38.3360   23.4712   42.5058 H   0  0  0  0  0  0  0  0  0  0  0  0
   37.6885   22.0590   41.2968 H   0  0  0  0  0  0  0  0  0  0  0  0
   37.2402   23.2626   40.0410 H   0  0  0  0  0  0  0  0  0  0  0  0
   38.8820   22.5338   40.0410 H   0  0  0  0  0  0  0  0  0  0  0  0
  1  2  2  0
  3  2  1  0
  4  3  2  0
  5  6  2  0
  5  4  1  0
  6  1  1  0
  7  8  1  0
  7  9  1  0
  7  5  1  0
  8  9  1  0
 10  9  1  0
  1 11  1  0
  2 12  1  0
  3 13  1  0
  7 14  1  6
  8 15  1  0
  8 16  1  0
  9 17  1  1
 10 18  1  0
 10 19  1  0
 10 20  1  0
M  ISO  8  11  14  12  14  13  14  14  13  15  13  16  13  17  13  18   8
M  ISO  2  19   8  20   8
M  END
>  <minimizedAffinity>  (1) 
-3.13220549

>  <minimizedRMSD>  (1) 
4.96371317

$$$$
