
     RDKit          3D

 44 48  0  0  1  0  0  0  0  0999 V2000
   38.1100   30.3630   39.6400 N   0  0  0  0  0  0  0  0  0  0  0  0
   38.1620   29.8820   38.2340 C   0  0  0  0  0  0  0  0  0  0  0  0
   39.4480   29.1720   37.9400 C   0  0  0  0  0  0  0  0  0  0  0  0
   40.5350   29.8530   38.4780 O   0  0  0  0  0  0  0  0  0  0  0  0
   40.1810   31.1680   38.6400 C   0  0  0  0  0  0  0  0  0  0  0  0
   39.1290   31.3330   39.7630 C   0  0  1  0  0  0  0  0  0  0  0  0
   38.6890   32.7170   39.7330 N   0  0  0  0  0  0  0  0  0  0  0  0
   37.5090   33.2880   39.4890 C   0  0  0  0  0  0  0  0  0  0  0  0
   37.5710   34.6270   39.5670 N   0  0  0  0  0  0  0  0  0  0  0  0
   38.8360   34.9400   39.8730 C   0  0  0  0  0  0  0  0  0  0  0  0
   39.4930   36.1370   40.0820 C   0  0  0  0  0  0  0  0  0  0  0  0
   38.8850   37.2350   39.9930 O   0  0  0  0  0  0  0  0  0  0  0  0
   40.8120   36.1710   40.3870 N   0  0  0  0  0  0  0  0  0  0  0  0
   41.4640   34.9970   40.4810 C   0  0  0  0  0  0  0  0  0  0  0  0
   42.8400   34.8610   40.7920 N   0  0  0  0  0  0  0  0  0  0  0  0
   40.8320   33.8260   40.2800 N   0  0  0  0  0  0  0  0  0  0  0  0
   39.5220   33.7750   39.9750 C   0  0  0  0  0  0  0  0  0  0  0  0
   35.7940   29.6920   40.5770 C   0  0  1  0  0  0  0  0  0  0  0  0
   36.2610   30.8720   41.3410 C   0  0  0  0  0  0  0  0  0  0  0  0
   36.7990   30.7070   39.9880 C   0  0  1  0  0  0  0  0  0  0  0  0
   37.2400   27.0510   42.6920 C   0  0  0  0  0  0  0  0  0  0  0  0
   37.3100   25.9440   41.8020 C   0  0  0  0  0  0  0  0  0  0  0  0
   36.8620   26.1490   40.4790 C   0  0  0  0  0  0  0  0  0  0  0  0
   36.3800   27.3990   40.1070 N   0  0  0  0  0  0  0  0  0  0  0  0
   36.3480   28.3850   41.0060 C   0  0  0  0  0  0  0  0  0  0  0  0
   36.7660   28.2360   42.2840 N   0  0  0  0  0  0  0  0  0  0  0  0
   37.3248   29.1893   38.0627 H   0  0  0  0  0  0  0  0  0  0  0  0
   38.0922   30.7556   37.5692 H   0  0  0  0  0  0  0  0  0  0  0  0
   39.4072   28.1621   38.3740 H   0  0  0  0  0  0  0  0  0  0  0  0
   39.5753   29.1213   36.8486 H   0  0  0  0  0  0  0  0  0  0  0  0
   41.0770   31.7508   38.8999 H   0  0  0  0  0  0  0  0  0  0  0  0
   39.7423   31.5280   37.6977 H   0  0  0  0  0  0  0  0  0  0  0  0
   39.5430   31.1416   40.7640 H   0  0  0  0  0  0  0  0  0  0  0  0
   36.5925   32.7279   39.2517 H   0  0  0  0  0  0  0  0  0  0  0  0
   41.2998   37.0648   40.5418 H   0  0  0  0  0  0  0  0  0  0  0  0
   43.2659   33.9247   40.8452 H   0  0  0  0  0  0  0  0  0  0  0  0
   43.4142   35.6985   40.9648 H   0  0  0  0  0  0  0  0  0  0  0  0
   34.8227   29.2770   40.2696 H   0  0  0  0  0  0  0  0  0  0  0  0
   35.5603   31.6943   41.5478 H   0  0  0  0  0  0  0  0  0  0  0  0
   36.7239   30.9999   42.3306 H   0  0  0  0  0  0  0  0  0  0  0  0
   36.8662   31.3648   39.1090 H   0  0  0  0  0  0  0  0  0  0  0  0
   37.5802   26.9326   43.7313 H   0  0  0  0  0  0  0  0  0  0  0  0
   37.6972   24.9683   42.1308 H   0  0  0  0  0  0  0  0  0  0  0  0
   36.8940   25.3269   39.7488 H   0  0  0  0  0  0  0  0  0  0  0  0
  1  2  1  0
  1  6  1  0
  1 20  1  0
  3  2  1  0
  3  4  1  0
  4  5  1  0
  5  6  1  0
  7  6  1  0
  7 17  1  0
  8  9  2  0
  8  7  1  0
  9 10  1  0
 10 17  2  0
 10 11  1  0
 11 13  1  0
 12 11  2  0
 13 14  1  0
 14 15  1  0
 16 14  2  0
 17 16  1  0
 18 25  1  0
 18 19  1  0
 20 18  1  0
 20 19  1  0
 22 21  2  0
 23 22  1  0
 24 23  2  0
 24 25  1  0
 25 26  2  0
 26 21  1  0
  2 27  1  0
  2 28  1  0
  3 29  1  0
  3 30  1  0
  5 31  1  0
  5 32  1  0
  6 33  1  1
  8 34  1  0
 13 35  1  0
 15 36  1  0
 15 37  1  0
 18 38  1  6
 19 39  1  0
 19 40  1  0
 20 41  1  6
 21 42  1  0
 22 43  1  0
 23 44  1  0
M  ISO  8  27  13  28  13  29  13  30  13  31  13  32  13  33  13  34  14
M  ISO  8  35   9  38  13  39  13  40  13  41  13  42  14  43  14  44  14
M  END
>  <minimizedAffinity>  (1) 
-6.43898439

>  <minimizedRMSD>  (1) 
2.12631679

$$$$
