
     RDKit          3D

 44 47  0  0  1  0  0  0  0  0999 V2000
   37.7960   30.1160   39.2490 N   0  0  0  0  0  0  0  0  0  0  0  0
   37.7810   29.4650   37.9090 C   0  0  0  0  0  0  0  0  0  0  0  0
   39.1280   28.9070   37.5580 C   0  0  0  0  0  0  0  0  0  0  0  0
   40.1430   29.7990   37.8940 O   0  0  0  0  0  0  0  0  0  0  0  0
   39.6030   31.0730   37.9230 C   0  0  0  0  0  0  0  0  0  0  0  0
   38.6230   31.2470   39.1030 C   0  0  2  0  0  0  0  0  0  0  0  0
   35.8330   29.5090   40.8270 C   0  0  1  0  0  0  0  0  0  0  0  0
   36.0460   30.9670   40.9340 C   0  0  0  0  0  0  0  0  0  0  0  0
   36.4670   30.3280   39.6810 C   0  0  1  0  0  0  0  0  0  0  0  0
   38.2610   28.4560   43.3700 C   0  0  0  0  0  0  0  0  0  0  0  0
   38.4080   27.0760   43.1290 C   0  0  0  0  0  0  0  0  0  0  0  0
   37.6580   26.5320   42.0670 C   0  0  0  0  0  0  0  0  0  0  0  0
   36.8280   27.3590   41.3200 N   0  0  0  0  0  0  0  0  0  0  0  0
   36.7500   28.6570   41.6180 C   0  0  0  0  0  0  0  0  0  0  0  0
   37.4530   29.2120   42.6280 N   0  0  0  0  0  0  0  0  0  0  0  0
   39.3630   31.7610   40.1680 N   0  0  0  0  0  0  0  0  0  0  0  0
   40.7440   31.4430   40.2280 C   0  0  0  0  0  0  0  0  0  0  0  0
   41.3680   32.2970   41.3030 C   0  0  0  0  0  0  0  0  0  0  0  0
   41.3310   33.7030   40.9790 N   0  0  0  0  0  0  0  0  0  0  0  0
   40.0580   34.1220   40.4550 C   0  0  0  0  0  0  0  0  0  0  0  0
   39.0230   33.0690   40.6460 C   0  0  0  0  0  0  0  0  0  0  0  0
   37.0454   28.6472   37.9164 H   0  0  0  0  0  0  0  0  0  0  0  0
   37.5134   30.2231   37.1582 H   0  0  0  0  0  0  0  0  0  0  0  0
   39.1651   28.7115   36.4762 H   0  0  0  0  0  0  0  0  0  0  0  0
   39.2791   27.9762   38.1244 H   0  0  0  0  0  0  0  0  0  0  0  0
   40.4184   31.8043   38.0251 H   0  0  0  0  0  0  0  0  0  0  0  0
   39.0473   31.2330   36.9872 H   0  0  0  0  0  0  0  0  0  0  0  0
   37.8306   31.9968   38.9623 H   0  0  0  0  0  0  0  0  0  0  0  0
   34.9784   28.8235   40.9255 H   0  0  0  0  0  0  0  0  0  0  0  0
   35.1775   31.6420   40.9316 H   0  0  0  0  0  0  0  0  0  0  0  0
   36.5578   31.6066   41.6682 H   0  0  0  0  0  0  0  0  0  0  0  0
   36.2667   30.5298   38.6184 H   0  0  0  0  0  0  0  0  0  0  0  0
   38.8270   28.9208   44.1907 H   0  0  0  0  0  0  0  0  0  0  0  0
   39.0765   26.4524   43.7407 H   0  0  0  0  0  0  0  0  0  0  0  0
   37.7292   25.4600   41.8310 H   0  0  0  0  0  0  0  0  0  0  0  0
   40.8724   30.3786   40.4742 H   0  0  0  0  0  0  0  0  0  0  0  0
   41.2248   31.6352   39.2575 H   0  0  0  0  0  0  0  0  0  0  0  0
   40.8208   32.1367   42.2437 H   0  0  0  0  0  0  0  0  0  0  0  0
   42.4236   32.0017   41.3956 H   0  0  0  0  0  0  0  0  0  0  0  0
   41.5287   34.2428   41.8336 H   0  0  0  0  0  0  0  0  0  0  0  0
   40.1636   34.3302   39.3801 H   0  0  0  0  0  0  0  0  0  0  0  0
   39.7393   35.0252   40.9961 H   0  0  0  0  0  0  0  0  0  0  0  0
   38.1121   33.3930   40.1213 H   0  0  0  0  0  0  0  0  0  0  0  0
   38.9021   32.9653   41.7344 H   0  0  0  0  0  0  0  0  0  0  0  0
  1  2  1  0
  1  9  1  0
  3  4  1  0
  3  2  1  0
  4  5  1  0
  5  6  1  0
  6  1  1  0
  6 16  1  0
  7  8  1  0
  7 14  1  0
  9  7  1  0
  9  8  1  0
 11 10  2  0
 12 11  1  0
 13 14  1  0
 13 12  2  0
 14 15  2  0
 15 10  1  0
 16 17  1  0
 16 21  1  0
 17 18  1  0
 19 18  1  0
 20 21  1  0
 20 19  1  0
  2 22  1  0
  2 23  1  0
  3 24  1  0
  3 25  1  0
  5 26  1  0
  5 27  1  0
  6 28  1  6
  7 29  1  6
  8 30  1  0
  8 31  1  0
  9 32  1  6
 10 33  1  0
 11 34  1  0
 12 35  1  0
 17 36  1  0
 17 37  1  0
 18 38  1  0
 18 39  1  0
 19 40  1  0
 20 41  1  0
 20 42  1  0
 21 43  1  0
 21 44  1  0
M  ISO  8  22  13  23  13  24  13  25  13  26  13  27  13  28  13  29  13
M  ISO  8  30  13  31  13  32  13  33  14  34  14  35  14  36  13  37  13
M  ISO  7  38  13  39  13  40   5  41  13  42  13  43  13  44  13
M  END
>  <minimizedAffinity>  (1) 
-5.01940298

>  <minimizedRMSD>  (1) 
1.66228569

$$$$
