
     RDKit          3D

 38 41  0  0  1  0  0  0  0  0999 V2000
   37.8080   30.0670   39.3090 N   0  0  0  0  0  0  0  0  0  0  0  0
   37.6150   29.7390   37.8710 C   0  0  0  0  0  0  0  0  0  0  0  0
   38.7990   29.0120   37.3060 C   0  0  0  0  0  0  0  0  0  0  0  0
   39.9940   29.5840   37.7330 O   0  0  0  0  0  0  0  0  0  0  0  0
   39.7350   30.8920   38.0720 C   0  0  0  0  0  0  0  0  0  0  0  0
   38.8800   30.9860   39.3570 C   0  0  1  0  0  0  0  0  0  0  0  0
   35.7270   29.4330   40.7080 C   0  0  1  0  0  0  0  0  0  0  0  0
   36.3140   30.6460   41.3160 C   0  0  0  0  0  0  0  0  0  0  0  0
   36.5860   30.4250   39.8940 C   0  0  1  0  0  0  0  0  0  0  0  0
   37.4340   26.8200   42.6500 C   0  0  0  0  0  0  0  0  0  0  0  0
   37.4800   25.7320   41.7410 C   0  0  0  0  0  0  0  0  0  0  0  0
   36.9150   25.9410   40.4490 C   0  0  0  0  0  0  0  0  0  0  0  0
   36.3580   27.1760   40.1450 N   0  0  0  0  0  0  0  0  0  0  0  0
   36.3600   28.1430   41.0660 C   0  0  0  0  0  0  0  0  0  0  0  0
   36.8830   27.9920   42.3050 N   0  0  0  0  0  0  0  0  0  0  0  0
   38.5720   32.3960   39.5570 C   0  0  0  0  0  0  0  0  0  0  0  0
   37.4660   33.1300   39.1060 C   0  0  0  0  0  0  0  0  0  0  0  0
   37.3360   34.4730   39.3910 C   0  0  0  0  0  0  0  0  0  0  0  0
   38.2980   35.0960   40.1230 N   0  0  0  0  0  0  0  0  0  0  0  0
   39.3580   34.3790   40.5510 C   0  0  0  0  0  0  0  0  0  0  0  0
   39.5000   33.0660   40.2800 N   0  0  0  0  0  0  0  0  0  0  0  0
   36.7231   29.1038   37.7665 H   0  0  0  0  0  0  0  0  0  0  0  0
   37.4938   30.6814   37.3168 H   0  0  0  0  0  0  0  0  0  0  0  0
   38.7542   29.0532   36.2077 H   0  0  0  0  0  0  0  0  0  0  0  0
   38.7673   27.9702   37.6577 H   0  0  0  0  0  0  0  0  0  0  0  0
   40.6890   31.4137   38.2385 H   0  0  0  0  0  0  0  0  0  0  0  0
   39.1728   31.3570   37.2487 H   0  0  0  0  0  0  0  0  0  0  0  0
   39.4032   30.6644   40.2696 H   0  0  0  0  0  0  0  0  0  0  0  0
   34.7195   29.0012   40.6162 H   0  0  0  0  0  0  0  0  0  0  0  0
   35.6543   31.4727   41.6181 H   0  0  0  0  0  0  0  0  0  0  0  0
   36.9557   30.8199   42.1923 H   0  0  0  0  0  0  0  0  0  0  0  0
   36.4776   31.0474   38.9935 H   0  0  0  0  0  0  0  0  0  0  0  0
   37.8588   26.6995   43.6575 H   0  0  0  0  0  0  0  0  0  0  0  0
   37.9320   24.7690   42.0209 H   0  0  0  0  0  0  0  0  0  0  0  0
   36.9202   25.1336   39.7019 H   0  0  0  0  0  0  0  0  0  0  0  0
   36.6879   32.6256   38.5142 H   0  0  0  0  0  0  0  0  0  0  0  0
   36.4623   35.0351   39.0296 H   0  0  0  0  0  0  0  0  0  0  0  0
   40.1351   34.8846   41.1430 H   0  0  0  0  0  0  0  0  0  0  0  0
  1  2  1  0
  1  6  1  0
  1  9  1  0
  3  4  1  0
  3  2  1  0
  4  5  1  0
  5  6  1  0
  6 16  1  0
  7 14  1  0
  7  8  1  0
  9  7  1  0
  9  8  1  0
 11 10  2  0
 12 11  1  0
 13 12  2  0
 13 14  1  0
 14 15  2  0
 15 10  1  0
 16 21  2  0
 17 18  2  0
 17 16  1  0
 18 19  1  0
 19 20  2  0
 21 20  1  0
  2 22  1  0
  2 23  1  0
  3 24  1  0
  3 25  1  0
  5 26  1  0
  5 27  1  0
  6 28  1  1
  7 29  1  6
  8 30  1  0
  8 31  1  0
  9 32  1  6
 10 33  1  0
 11 34  1  0
 12 35  1  0
 17 36  1  0
 18 37  1  0
 20 38  1  0
M  ISO  8  22  13  23  13  24  13  25  13  26  13  27  13  28  13  29  13
M  ISO  8  30  13  31  13  32  13  33  14  34  14  35  14  36  14  37  14
M  ISO  1  38  14
M  END
>  <minimizedAffinity>  (1) 
-4.9018569

>  <minimizedRMSD>  (1) 
1.68496597

$$$$
