
     RDKit          3D

 24 26  0  0  0  0  0  0  0  0999 V2000
   36.9090   26.9100   41.4800 C   0  0  0  0  0  0  0  0  0  0  0  0
   36.8650   25.9840   40.4450 C   0  0  0  0  0  0  0  0  0  0  0  0
   36.9940   24.7690   41.0730 C   0  0  0  0  0  0  0  0  0  0  0  0
   37.1100   24.9340   42.4020 N   0  0  0  0  0  0  0  0  0  0  0  0
   37.0580   26.2440   42.6470 N   0  0  0  0  0  0  0  0  0  0  0  0
   37.8220   29.2400   41.6380 C   0  0  0  0  0  0  0  0  0  0  0  0
   36.8080   28.3420   41.2780 C   0  0  0  0  0  0  0  0  0  0  0  0
   35.6550   28.8630   40.6990 C   0  0  0  0  0  0  0  0  0  0  0  0
   35.5630   30.2230   40.5090 N   0  0  0  0  0  0  0  0  0  0  0  0
   36.5870   31.0490   40.8820 C   0  0  0  0  0  0  0  0  0  0  0  0
   37.7090   30.5570   41.4440 N   0  0  0  0  0  0  0  0  0  0  0  0
   37.0030   23.4680   40.3780 C   0  0  0  0  0  0  0  0  0  0  0  0
   36.1130   23.0120   39.4560 C   0  0  0  0  0  0  0  0  0  0  0  0
   36.4690   21.7450   39.0430 C   0  0  0  0  0  0  0  0  0  0  0  0
   37.5900   21.4680   39.7480 N   0  0  0  0  0  0  0  0  0  0  0  0
   37.9080   22.4830   40.5360 N   0  0  0  0  0  0  0  0  0  0  0  0
   36.7525   26.1793   39.3683 H   0  0  0  0  0  0  0  0  0  0  0  0
   37.2190   24.1865   43.1022 H   0  0  0  0  0  0  0  0  0  0  0  0
   38.7419   28.8472   42.0957 H   0  0  0  0  0  0  0  0  0  0  0  0
   34.8310   28.1992   40.3982 H   0  0  0  0  0  0  0  0  0  0  0  0
   36.4935   32.1331   40.7207 H   0  0  0  0  0  0  0  0  0  0  0  0
   35.2381   23.5713   39.0931 H   0  0  0  0  0  0  0  0  0  0  0  0
   35.9580   21.1056   38.3081 H   0  0  0  0  0  0  0  0  0  0  0  0
   38.1224   20.5888   39.6809 H   0  0  0  0  0  0  0  0  0  0  0  0
  1  5  2  0
  2  3  2  0
  2  1  1  0
  3  4  1  0
  4  5  1  0
  7  1  1  0
  7  6  2  0
  8  7  1  0
  9  8  2  0
  9 10  1  0
 10 11  2  0
 11  6  1  0
 12 16  2  0
 12  3  1  0
 13 12  1  0
 14 13  2  0
 14 15  1  0
 15 16  1  0
  2 17  1  0
  4 18  1  0
  6 19  1  0
  8 20  1  0
 10 21  1  0
 13 22  1  0
 14 23  1  0
 15 24  1  0
M  ISO  8  17  14  18   9  19  14  20  14  21  14  22  14  23  14  24   9
M  END
>  <minimizedAffinity>  (1) 
-4.05705357

>  <minimizedRMSD>  (1) 
0.45756039

$$$$
