
     RDKit          3D

 43 46  0  0  1  0  0  0  0  0999 V2000
   37.2930   30.3830   39.8490 N   0  0  0  0  0  0  0  0  0  0  0  0
   37.8510   30.2780   38.4710 C   0  0  0  0  0  0  0  0  0  0  0  0
   37.9460   28.8490   38.0270 C   0  0  0  0  0  0  0  0  0  0  0  0
   38.4430   28.0430   39.0420 O   0  0  0  0  0  0  0  0  0  0  0  0
   39.1730   28.8390   39.9090 C   0  0  0  0  0  0  0  0  0  0  0  0
   38.2680   29.8150   40.6910 C   0  0  2  0  0  0  0  0  0  0  0  0
   37.9130   32.8160   40.4910 C   0  0  1  0  0  0  0  0  0  0  0  0
   37.1560   32.8710   39.2210 C   0  0  0  0  0  0  0  0  0  0  0  0
   36.9030   31.7180   40.0920 C   0  0  1  0  0  0  0  0  0  0  0  0
   41.2620   32.3040   39.0650 C   0  0  0  0  0  0  0  0  0  0  0  0
   42.0220   31.8820   40.1770 C   0  0  0  0  0  0  0  0  0  0  0  0
   41.3440   31.7720   41.4110 C   0  0  0  0  0  0  0  0  0  0  0  0
   39.9950   32.0780   41.4730 N   0  0  0  0  0  0  0  0  0  0  0  0
   39.3480   32.4710   40.3720 C   0  0  0  0  0  0  0  0  0  0  0  0
   39.9590   32.5860   39.1780 N   0  0  0  0  0  0  0  0  0  0  0  0
   37.9230   29.1810   41.8880 N   0  0  0  0  0  0  0  0  0  0  0  0
   36.7510   28.3800   41.8770 C   0  0  0  0  0  0  0  0  0  0  0  0
   36.5110   27.5910   43.1120 C   0  0  0  0  0  0  0  0  0  0  0  0
   37.4610   27.8020   44.1050 O   0  0  0  0  0  0  0  0  0  0  0  0
   38.7000   27.5130   43.4900 C   0  0  0  0  0  0  0  0  0  0  0  0
   39.0390   28.6880   42.6260 C   0  0  0  0  0  0  0  0  0  0  0  0
   37.1964   30.8257   37.7771 H   0  0  0  0  0  0  0  0  0  0  0  0
   38.8635   30.7079   38.4737 H   0  0  0  0  0  0  0  0  0  0  0  0
   36.9444   28.4934   37.7436 H   0  0  0  0  0  0  0  0  0  0  0  0
   38.6324   28.7942   37.1692 H   0  0  0  0  0  0  0  0  0  0  0  0
   39.7024   28.1931   40.6249 H   0  0  0  0  0  0  0  0  0  0  0  0
   39.8817   29.4329   39.3131 H   0  0  0  0  0  0  0  0  0  0  0  0
   38.7490   30.7446   41.0292 H   0  0  0  0  0  0  0  0  0  0  0  0
   38.0557   33.4746   41.3604 H   0  0  0  0  0  0  0  0  0  0  0  0
   37.6861   32.7233   38.2685 H   0  0  0  0  0  0  0  0  0  0  0  0
   36.5066   33.6282   38.7574 H   0  0  0  0  0  0  0  0  0  0  0  0
   35.9932   31.2631   40.5107 H   0  0  0  0  0  0  0  0  0  0  0  0
   41.7513   32.4031   38.0848 H   0  0  0  0  0  0  0  0  0  0  0  0
   43.0933   31.6494   40.0866 H   0  0  0  0  0  0  0  0  0  0  0  0
   41.8820   31.4466   42.3136 H   0  0  0  0  0  0  0  0  0  0  0  0
   35.8871   29.0436   41.7242 H   0  0  0  0  0  0  0  0  0  0  0  0
   36.8910   27.6465   41.0693 H   0  0  0  0  0  0  0  0  0  0  0  0
   35.5238   27.8649   43.5124 H   0  0  0  0  0  0  0  0  0  0  0  0
   36.5709   26.5292   42.8311 H   0  0  0  0  0  0  0  0  0  0  0  0
   39.4776   27.3683   44.2545 H   0  0  0  0  0  0  0  0  0  0  0  0
   38.6392   26.5900   42.8947 H   0  0  0  0  0  0  0  0  0  0  0  0
   39.8223   28.3855   41.9155 H   0  0  0  0  0  0  0  0  0  0  0  0
   39.3756   29.4972   43.2907 H   0  0  0  0  0  0  0  0  0  0  0  0
  1  2  1  0
  1  9  1  0
  1  6  1  0
  3  2  1  0
  3  4  1  0
  4  5  1  0
  5  6  1  0
  6 16  1  0
  8  9  1  0
  8  7  1  0
  9  7  1  0
 10 15  2  0
 10 11  1  0
 11 12  2  0
 12 13  1  0
 14  7  1  0
 14 13  2  0
 15 14  1  0
 16 21  1  0
 17 16  1  0
 17 18  1  0
 18 19  1  0
 20 19  1  0
 21 20  1  0
  2 22  1  0
  2 23  1  0
  3 24  1  0
  3 25  1  0
  5 26  1  0
  5 27  1  0
  6 28  1  1
  7 29  1  1
  8 30  1  0
  8 31  1  0
  9 32  1  1
 10 33  1  0
 11 34  1  0
 12 35  1  0
 17 36  1  0
 17 37  1  0
 18 38  1  0
 18 39  1  0
 20 40  1  0
 20 41  1  0
 21 42  1  0
 21 43  1  0
M  ISO  8  22  13  23  13  24  13  25  13  26  13  27  13  28  13  29  13
M  ISO  8  30  13  31  13  32  13  33  14  34  14  35  14  36  13  37  13
M  ISO  6  38  13  39  13  40  13  41  13  42  13  43  13
M  END
>  <minimizedAffinity>  (1) 
-4.76236105

>  <minimizedRMSD>  (1) 
3.85521865

$$$$
