
     RDKit          3D

 24 26  0  0  0  0  0  0  0  0999 V2000
   36.9090   26.8940   41.5020 C   0  0  0  0  0  0  0  0  0  0  0  0
   36.9110   25.9510   40.4820 C   0  0  0  0  0  0  0  0  0  0  0  0
   37.0210   24.7470   41.1440 C   0  0  0  0  0  0  0  0  0  0  0  0
   37.0830   24.9380   42.4860 N   0  0  0  0  0  0  0  0  0  0  0  0
   37.0140   26.2470   42.6880 N   0  0  0  0  0  0  0  0  0  0  0  0
   37.8080   29.2370   41.6320 C   0  0  0  0  0  0  0  0  0  0  0  0
   36.8090   28.3320   41.2830 C   0  0  0  0  0  0  0  0  0  0  0  0
   35.6330   28.8190   40.6880 C   0  0  0  0  0  0  0  0  0  0  0  0
   35.5420   30.1810   40.4840 N   0  0  0  0  0  0  0  0  0  0  0  0
   36.5560   31.0210   40.8470 C   0  0  0  0  0  0  0  0  0  0  0  0
   37.6800   30.5450   41.4170 N   0  0  0  0  0  0  0  0  0  0  0  0
   37.0550   23.5230   40.3960 N   0  0  0  0  0  0  0  0  0  0  0  0
   36.1770   22.9860   39.5460 N   0  0  0  0  0  0  0  0  0  0  0  0
   36.6600   21.8110   39.0920 C   0  0  0  0  0  0  0  0  0  0  0  0
   37.9060   21.6000   39.6900 C   0  0  0  0  0  0  0  0  0  0  0  0
   38.1330   22.6960   40.5100 C   0  0  0  0  0  0  0  0  0  0  0  0
   36.8411   26.1247   39.3981 H   0  0  0  0  0  0  0  0  0  0  0  0
   37.1673   24.2080   43.2078 H   0  0  0  0  0  0  0  0  0  0  0  0
   38.7300   28.8605   42.0990 H   0  0  0  0  0  0  0  0  0  0  0  0
   34.8170   28.1415   40.3963 H   0  0  0  0  0  0  0  0  0  0  0  0
   36.4533   32.1020   40.6713 H   0  0  0  0  0  0  0  0  0  0  0  0
   36.1620   21.1384   38.3781 H   0  0  0  0  0  0  0  0  0  0  0  0
   38.5727   20.7379   39.5404 H   0  0  0  0  0  0  0  0  0  0  0  0
   39.0204   22.8665   41.1373 H   0  0  0  0  0  0  0  0  0  0  0  0
  1  5  2  0
  2  3  2  0
  2  1  1  0
  3  4  1  0
  4  5  1  0
  7  1  1  0
  7  6  2  0
  8  7  1  0
  9  8  2  0
  9 10  1  0
 10 11  2  0
 11  6  1  0
 12 16  1  0
 12  3  1  0
 13 12  1  0
 14 13  2  0
 14 15  1  0
 15 16  2  0
  2 17  1  0
  4 18  1  0
  6 19  1  0
  8 20  1  0
 10 21  1  0
 14 22  1  0
 15 23  1  0
 16 24  1  0
M  ISO  8  17  14  18   9  19  14  20  14  21  14  22  14  23  14  24  14
M  END
>  <minimizedAffinity>  (1) 
-4.01408482

>  <minimizedRMSD>  (1) 
0.524256349

$$$$
