
     RDKit          3D

 27 29  0  0  0  0  0  0  0  0999 V2000
   37.4570   27.5940   41.8880 C   0  0  0  0  0  0  0  0  0  0  0  0
   37.2990   28.1220   43.1570 C   0  0  0  0  0  0  0  0  0  0  0  0
   36.9190   29.4070   43.0640 N   0  0  0  0  0  0  0  0  0  0  0  0
   36.8180   29.7490   41.7600 C   0  0  0  0  0  0  0  0  0  0  0  0
   36.4690   30.9270   41.1090 C   0  0  0  0  0  0  0  0  0  0  0  0
   36.4490   31.0010   39.7140 C   0  0  0  0  0  0  0  0  0  0  0  0
   36.7900   29.8530   39.0160 C   0  0  0  0  0  0  0  0  0  0  0  0
   37.1310   28.6990   39.6640 C   0  0  0  0  0  0  0  0  0  0  0  0
   37.1510   28.6280   41.0300 C   0  0  0  0  0  0  0  0  0  0  0  0
   37.4890   23.8600   41.7060 C   0  0  0  0  0  0  0  0  0  0  0  0
   37.1030   25.1800   42.0500 C   0  0  0  0  0  0  0  0  0  0  0  0
   37.8550   26.2510   41.5330 C   0  0  0  0  0  0  0  0  0  0  0  0
   38.9060   25.9350   40.7340 N   0  0  0  0  0  0  0  0  0  0  0  0
   39.2530   24.6780   40.4210 C   0  0  0  0  0  0  0  0  0  0  0  0
   38.5420   23.6400   40.9090 N   0  0  0  0  0  0  0  0  0  0  0  0
   40.4270   24.3990   39.5310 C   0  0  0  0  0  0  0  0  0  0  0  0
   37.4598   27.5740   44.0971 H   0  0  0  0  0  0  0  0  0  0  0  0
   36.7338   30.0331   43.8606 H   0  0  0  0  0  0  0  0  0  0  0  0
   36.2044   31.8150   41.7019 H   0  0  0  0  0  0  0  0  0  0  0  0
   36.1746   31.9298   39.1923 H   0  0  0  0  0  0  0  0  0  0  0  0
   36.7861   29.8712   37.9162 H   0  0  0  0  0  0  0  0  0  0  0  0
   37.3950   27.8085   39.0747 H   0  0  0  0  0  0  0  0  0  0  0  0
   36.9167   23.0066   42.0985 H   0  0  0  0  0  0  0  0  0  0  0  0
   36.2378   25.3623   42.7043 H   0  0  0  0  0  0  0  0  0  0  0  0
   41.3130   24.1884   40.1480 H   0  0  0  0  0  0  0  0  0  0  0  0
   40.2070   23.5281   38.8960 H   0  0  0  0  0  0  0  0  0  0  0  0
   40.6223   25.2757   38.8960 H   0  0  0  0  0  0  0  0  0  0  0  0
  1  2  2  0
  3  2  1  0
  4  3  1  0
  5  4  2  0
  6  5  1  0
  7  8  1  0
  7  6  2  0
  8  9  2  0
  9  4  1  0
  9  1  1  0
 10 11  2  0
 12  1  1  0
 12 11  1  0
 13 12  2  0
 14 13  1  0
 14 15  2  0
 15 10  1  0
 16 14  1  0
  2 17  1  0
  3 18  1  0
  5 19  1  0
  6 20  1  0
  7 21  1  0
  8 22  1  0
 10 23  1  0
 11 24  1  0
 16 25  1  0
 16 26  1  0
 16 27  1  0
M  ISO  8  17  14  18   9  19  14  20  14  21  14  22  14  23  14  24  14
M  ISO  3  25   8  26   8  27   8
M  END
>  <minimizedAffinity>  (1) 
-4.87679005

>  <minimizedRMSD>  (1) 
5.5252943

$$$$
