
     RDKit          3D

 45 49  0  0  1  0  0  0  0  0999 V2000
   35.9980   30.6450   40.8800 C   0  0  0  0  0  0  0  0  0  0  0  0
   36.6220   29.5400   41.4950 C   0  0  0  0  0  0  0  0  0  0  0  0
   38.0130   29.5100   41.5570 C   0  0  0  0  0  0  0  0  0  0  0  0
   38.6700   30.5600   41.0140 N   0  0  0  0  0  0  0  0  0  0  0  0
   38.0640   31.6150   40.4260 C   0  0  0  0  0  0  0  0  0  0  0  0
   36.7150   31.6590   40.3580 N   0  0  0  0  0  0  0  0  0  0  0  0
   38.6640   28.3760   42.1750 C   0  0  0  0  0  0  0  0  0  0  0  0
   39.7760   28.3670   42.9850 C   0  0  0  0  0  0  0  0  0  0  0  0
   40.0490   27.0920   43.3440 N   0  0  0  0  0  0  0  0  0  0  0  0
   39.1460   26.2470   42.7950 C   0  0  0  0  0  0  0  0  0  0  0  0
   38.9550   24.8630   42.8280 C   0  0  0  0  0  0  0  0  0  0  0  0
   37.9170   24.2610   42.1470 C   0  0  0  0  0  0  0  0  0  0  0  0
   37.0810   25.0820   41.4360 C   0  0  0  0  0  0  0  0  0  0  0  0
   37.2530   26.4340   41.3920 C   0  0  0  0  0  0  0  0  0  0  0  0
   38.2930   27.0540   42.0720 C   0  0  0  0  0  0  0  0  0  0  0  0
   38.8680   32.7400   39.8570 C   0  0  1  0  0  0  0  0  0  0  0  0
   38.5780   34.1480   40.3660 C   0  0  0  0  0  0  0  0  0  0  0  0
   39.8360   33.4430   40.7470 C   0  0  2  0  0  0  0  0  0  0  0  0
   41.1070   33.6980   40.1670 N   0  0  0  0  0  0  0  0  0  0  0  0
   41.8550   34.7880   40.6800 C   0  0  0  0  0  0  0  0  0  0  0  0
   43.0740   34.2950   41.4630 C   0  0  0  0  0  0  0  0  0  0  0  0
   42.6460   33.2910   42.3840 N   0  0  0  0  0  0  0  0  0  0  0  0
   42.1790   32.1420   41.6690 C   0  0  0  0  0  0  0  0  0  0  0  0
   41.8640   32.4460   40.2190 C   0  0  0  0  0  0  0  0  0  0  0  0
   34.8999   30.6798   40.8252 H   0  0  0  0  0  0  0  0  0  0  0  0
   36.0230   28.7194   41.9167 H   0  0  0  0  0  0  0  0  0  0  0  0
   40.3504   29.2537   43.2912 H   0  0  0  0  0  0  0  0  0  0  0  0
   40.8320   26.8053   43.9486 H   0  0  0  0  0  0  0  0  0  0  0  0
   39.6486   24.2389   43.4106 H   0  0  0  0  0  0  0  0  0  0  0  0
   37.7672   23.1716   42.1735 H   0  0  0  0  0  0  0  0  0  0  0  0
   36.2425   24.6349   40.8818 H   0  0  0  0  0  0  0  0  0  0  0  0
   36.5528   27.0467   40.8052 H   0  0  0  0  0  0  0  0  0  0  0  0
   38.9272   32.2568   38.8706 H   0  0  0  0  0  0  0  0  0  0  0  0
   38.6119   35.0029   39.6746 H   0  0  0  0  0  0  0  0  0  0  0  0
   37.7533   34.6274   40.9137 H   0  0  0  0  0  0  0  0  0  0  0  0
   40.3033   33.3017   41.7327 H   0  0  0  0  0  0  0  0  0  0  0  0
   42.1946   35.4168   39.8437 H   0  0  0  0  0  0  0  0  0  0  0  0
   41.2117   35.3661   41.3596 H   0  0  0  0  0  0  0  0  0  0  0  0
   43.8139   33.8703   40.7687 H   0  0  0  0  0  0  0  0  0  0  0  0
   43.5363   35.1322   42.0065 H   0  0  0  0  0  0  0  0  0  0  0  0
   43.4366   33.0205   42.9863 H   0  0  0  0  0  0  0  0  0  0  0  0
   42.9565   31.3647   41.7050 H   0  0  0  0  0  0  0  0  0  0  0  0
   41.2476   31.8071   42.1489 H   0  0  0  0  0  0  0  0  0  0  0  0
   41.2640   31.6302   39.7896 H   0  0  0  0  0  0  0  0  0  0  0  0
   42.7946   32.5409   39.6403 H   0  0  0  0  0  0  0  0  0  0  0  0
  1  2  2  0
  2  3  1  0
  3  7  1  0
  4  3  2  0
  5  4  1  0
  6  5  2  0
  6  1  1  0
  7  8  2  0
  8  9  1  0
 10 11  2  0
 10  9  1  0
 12 11  1  0
 13 12  2  0
 14 13  1  0
 14 15  2  0
 15  7  1  0
 15 10  1  0
 16 17  1  0
 16  5  1  0
 16 18  1  0
 17 18  1  0
 19 24  1  0
 19 20  1  0
 19 18  1  0
 20 21  1  0
 21 22  1  0
 23 22  1  0
 24 23  1  0
  1 25  1  0
  2 26  1  0
  8 27  1  0
  9 28  1  0
 11 29  1  0
 12 30  1  0
 13 31  1  0
 14 32  1  0
 16 33  1  6
 17 34  1  0
 17 35  1  0
 18 36  1  1
 20 37  1  0
 20 38  1  0
 21 39  1  0
 21 40  1  0
 22 41  1  0
 23 42  1  0
 23 43  1  0
 24 44  1  0
 24 45  1  0
M  ISO  8  25  14  26  14  27  14  28   9  29  14  30  14  31  14  32  14
M  ISO  8  33  13  34  13  35  13  36  13  37  13  38  13  39  13  40  13
M  ISO  5  41   5  42  13  43  13  44  13  45  13
M  END
>  <minimizedAffinity>  (1) 
-6.35548258

>  <minimizedRMSD>  (1) 
1.00215185

$$$$
