
     RDKit          3D

 41 45  0  0  1  0  0  0  0  0999 V2000
   36.1680   30.8180   41.0890 C   0  0  0  0  0  0  0  0  0  0  0  0
   36.7950   29.6950   41.6640 C   0  0  0  0  0  0  0  0  0  0  0  0
   38.1840   29.6280   41.6390 C   0  0  0  0  0  0  0  0  0  0  0  0
   38.8360   30.6630   41.0570 N   0  0  0  0  0  0  0  0  0  0  0  0
   38.2290   31.7290   40.5110 C   0  0  0  0  0  0  0  0  0  0  0  0
   36.8820   31.8120   40.5250 N   0  0  0  0  0  0  0  0  0  0  0  0
   38.8450   28.4720   42.2170 C   0  0  0  0  0  0  0  0  0  0  0  0
   40.0140   28.4380   42.9530 C   0  0  0  0  0  0  0  0  0  0  0  0
   40.2700   27.1440   43.2920 N   0  0  0  0  0  0  0  0  0  0  0  0
   39.3150   26.3400   42.8070 C   0  0  0  0  0  0  0  0  0  0  0  0
   39.1010   24.9700   42.8620 C   0  0  0  0  0  0  0  0  0  0  0  0
   37.9880   24.3820   42.2460 C   0  0  0  0  0  0  0  0  0  0  0  0
   37.1270   25.2210   41.5920 C   0  0  0  0  0  0  0  0  0  0  0  0
   37.3340   26.5710   41.5350 C   0  0  0  0  0  0  0  0  0  0  0  0
   38.4300   27.1520   42.1400 C   0  0  0  0  0  0  0  0  0  0  0  0
   39.0340   32.8280   39.8950 C   0  0  1  0  0  0  0  0  0  0  0  0
   39.1080   34.1580   40.6190 C   0  0  0  0  0  0  0  0  0  0  0  0
   40.2910   33.2530   40.5780 C   0  0  2  0  0  0  0  0  0  0  0  0
   41.4360   33.5130   39.6840 C   0  0  0  0  0  0  0  0  0  0  0  0
   41.2980   33.5940   38.3120 C   0  0  0  0  0  0  0  0  0  0  0  0
   42.3510   33.8370   37.4290 C   0  0  0  0  0  0  0  0  0  0  0  0
   43.6100   34.0070   37.9760 C   0  0  0  0  0  0  0  0  0  0  0  0
   43.8340   33.9400   39.3560 C   0  0  0  0  0  0  0  0  0  0  0  0
   42.7260   33.6950   40.1420 C   0  0  0  0  0  0  0  0  0  0  0  0
   35.0701   30.8850   41.1007 H   0  0  0  0  0  0  0  0  0  0  0  0
   36.2004   28.8906   42.1216 H   0  0  0  0  0  0  0  0  0  0  0  0
   40.6324   29.3078   43.2196 H   0  0  0  0  0  0  0  0  0  0  0  0
   41.0816   26.8289   43.8424 H   0  0  0  0  0  0  0  0  0  0  0  0
   39.8190   24.3332   43.3996 H   0  0  0  0  0  0  0  0  0  0  0  0
   37.8145   23.2965   42.2863 H   0  0  0  0  0  0  0  0  0  0  0  0
   36.2413   24.7960   41.0971 H   0  0  0  0  0  0  0  0  0  0  0  0
   36.6142   27.2056   40.9973 H   0  0  0  0  0  0  0  0  0  0  0  0
   38.7677   32.5056   38.8776 H   0  0  0  0  0  0  0  0  0  0  0  0
   39.1125   35.0976   40.0470 H   0  0  0  0  0  0  0  0  0  0  0  0
   38.5266   34.6472   41.4144 H   0  0  0  0  0  0  0  0  0  0  0  0
   40.9500   32.8709   41.3715 H   0  0  0  0  0  0  0  0  0  0  0  0
   40.2923   33.4581   37.8876 H   0  0  0  0  0  0  0  0  0  0  0  0
   42.1865   33.8911   36.3427 H   0  0  0  0  0  0  0  0  0  0  0  0
   44.4609   34.2007   37.3063 H   0  0  0  0  0  0  0  0  0  0  0  0
   44.8359   34.0749   39.7895 H   0  0  0  0  0  0  0  0  0  0  0  0
   42.8846   33.6399   41.2291 H   0  0  0  0  0  0  0  0  0  0  0  0
  1  2  2  0
  3  2  1  0
  3  7  1  0
  4  3  2  0
  5  6  2  0
  5  4  1  0
  6  1  1  0
  7  8  2  0
  8  9  1  0
 10 11  2  0
 10  9  1  0
 12 11  1  0
 13 12  2  0
 14 13  1  0
 14 15  2  0
 15  7  1  0
 15 10  1  0
 16  5  1  0
 16 18  1  0
 16 17  1  0
 18 17  1  0
 19 24  1  0
 19 18  1  0
 20 19  2  0
 21 22  2  0
 21 20  1  0
 22 23  1  0
 23 24  2  0
  1 25  1  0
  2 26  1  0
  8 27  1  0
  9 28  1  0
 11 29  1  0
 12 30  1  0
 13 31  1  0
 14 32  1  0
 16 33  1  6
 17 34  1  0
 17 35  1  0
 18 36  1  1
 20 37  1  0
 21 38  1  0
 22 39  1  0
 23 40  1  0
 24 41  1  0
M  ISO  8  25  14  26  14  27  14  28   9  29  14  30  14  31  14  32  14
M  ISO  8  33  13  34  13  35  13  36  13  37  14  38  14  39  14  40  14
M  ISO  1  41  14
M  END
>  <minimizedAffinity>  (1) 
-6.17229462

>  <minimizedRMSD>  (1) 
0.865745783

$$$$
