
     RDKit          3D

 39 43  0  0  1  0  0  0  0  0999 V2000
   36.0900   30.7400   41.0280 C   0  0  0  0  0  0  0  0  0  0  0  0
   36.7200   29.6220   41.6170 C   0  0  0  0  0  0  0  0  0  0  0  0
   38.1140   29.5660   41.6110 C   0  0  0  0  0  0  0  0  0  0  0  0
   38.7840   30.6080   41.0290 N   0  0  0  0  0  0  0  0  0  0  0  0
   38.1600   31.6610   40.4740 C   0  0  0  0  0  0  0  0  0  0  0  0
   36.8110   31.7370   40.4680 N   0  0  0  0  0  0  0  0  0  0  0  0
   38.7710   28.4220   42.2040 C   0  0  0  0  0  0  0  0  0  0  0  0
   39.9200   28.4010   42.9630 C   0  0  0  0  0  0  0  0  0  0  0  0
   40.1760   27.1090   43.3130 N   0  0  0  0  0  0  0  0  0  0  0  0
   39.2410   26.2960   42.8130 C   0  0  0  0  0  0  0  0  0  0  0  0
   39.0360   24.9140   42.8690 C   0  0  0  0  0  0  0  0  0  0  0  0
   37.9400   24.3240   42.2290 C   0  0  0  0  0  0  0  0  0  0  0  0
   37.0850   25.1600   41.5480 C   0  0  0  0  0  0  0  0  0  0  0  0
   37.2850   26.5010   41.4940 C   0  0  0  0  0  0  0  0  0  0  0  0
   38.3610   27.1060   42.1190 C   0  0  0  0  0  0  0  0  0  0  0  0
   38.9480   32.7730   39.8550 C   0  0  1  0  0  0  0  0  0  0  0  0
   39.1170   34.0570   40.6570 C   0  0  0  0  0  0  0  0  0  0  0  0
   40.2580   33.1220   40.4800 C   0  0  2  0  0  0  0  0  0  0  0  0
   41.4250   33.4900   39.6370 C   0  0  0  0  0  0  0  0  0  0  0  0
   42.6970   33.6100   40.1630 C   0  0  0  0  0  0  0  0  0  0  0  0
   43.7940   33.9510   39.3910 C   0  0  0  0  0  0  0  0  0  0  0  0
   43.6390   34.1840   38.0550 N   0  0  0  0  0  0  0  0  0  0  0  0
   42.3910   34.0670   37.5410 C   0  0  0  0  0  0  0  0  0  0  0  0
   41.3220   33.7330   38.2980 N   0  0  0  0  0  0  0  0  0  0  0  0
   34.9917   30.8008   41.0248 H   0  0  0  0  0  0  0  0  0  0  0  0
   36.1259   28.8145   42.0698 H   0  0  0  0  0  0  0  0  0  0  0  0
   40.5265   29.2762   43.2391 H   0  0  0  0  0  0  0  0  0  0  0  0
   40.9774   26.8024   43.8828 H   0  0  0  0  0  0  0  0  0  0  0  0
   39.7455   24.2821   43.4234 H   0  0  0  0  0  0  0  0  0  0  0  0
   37.7693   23.2381   42.2687 H   0  0  0  0  0  0  0  0  0  0  0  0
   36.2142   24.7287   41.0325 H   0  0  0  0  0  0  0  0  0  0  0  0
   36.5708   27.1254   40.9371 H   0  0  0  0  0  0  0  0  0  0  0  0
   38.6031   32.5238   38.8407 H   0  0  0  0  0  0  0  0  0  0  0  0
   39.1175   35.0308   40.1453 H   0  0  0  0  0  0  0  0  0  0  0  0
   38.6070   34.5124   41.5187 H   0  0  0  0  0  0  0  0  0  0  0  0
   40.9435   32.6094   41.1709 H   0  0  0  0  0  0  0  0  0  0  0  0
   42.8436   33.4273   41.2378 H   0  0  0  0  0  0  0  0  0  0  0  0
   44.7887   34.0341   39.8532 H   0  0  0  0  0  0  0  0  0  0  0  0
   42.2419   34.2508   36.4668 H   0  0  0  0  0  0  0  0  0  0  0  0
  1  2  2  0
  3  2  1  0
  3  7  1  0
  4  3  2  0
  5  4  1  0
  6  5  2  0
  6  1  1  0
  7  8  2  0
  8  9  1  0
 10 11  2  0
 10  9  1  0
 12 11  1  0
 13 12  2  0
 14 13  1  0
 14 15  2  0
 15  7  1  0
 15 10  1  0
 16  5  1  0
 16 18  1  0
 16 17  1  0
 18 17  1  0
 19 20  2  0
 19 18  1  0
 21 20  1  0
 22 21  2  0
 23 22  1  0
 23 24  2  0
 24 19  1  0
  1 25  1  0
  2 26  1  0
  8 27  1  0
  9 28  1  0
 11 29  1  0
 12 30  1  0
 13 31  1  0
 14 32  1  0
 16 33  1  6
 17 34  1  0
 17 35  1  0
 18 36  1  1
 20 37  1  0
 21 38  1  0
 23 39  1  0
M  ISO  8  25  14  26  14  27  14  28   9  29  14  30  14  31  14  32  14
M  ISO  7  33  13  34  13  35  13  36  13  37  14  38  14  39  14
M  END
>  <minimizedAffinity>  (1) 
-6.1450839

>  <minimizedRMSD>  (1) 
0.904379904

$$$$
