
     RDKit          3D

 38 42  0  0  1  0  0  0  0  0999 V2000
   36.1460   30.7810   41.1290 C   0  0  0  0  0  0  0  0  0  0  0  0
   36.8590   29.7260   41.7240 C   0  0  0  0  0  0  0  0  0  0  0  0
   38.2400   29.6950   41.5740 C   0  0  0  0  0  0  0  0  0  0  0  0
   38.8100   30.6950   40.8570 N   0  0  0  0  0  0  0  0  0  0  0  0
   38.1080   31.7030   40.2900 C   0  0  0  0  0  0  0  0  0  0  0  0
   36.7620   31.7460   40.4280 N   0  0  0  0  0  0  0  0  0  0  0  0
   38.9850   28.6080   42.1730 C   0  0  0  0  0  0  0  0  0  0  0  0
   40.1820   28.6610   42.8490 C   0  0  0  0  0  0  0  0  0  0  0  0
   40.5310   27.4290   43.2400 N   0  0  0  0  0  0  0  0  0  0  0  0
   39.6000   26.5310   42.8470 C   0  0  0  0  0  0  0  0  0  0  0  0
   39.4550   25.1530   42.9780 C   0  0  0  0  0  0  0  0  0  0  0  0
   38.3620   24.4850   42.4580 C   0  0  0  0  0  0  0  0  0  0  0  0
   37.4200   25.2450   41.8020 C   0  0  0  0  0  0  0  0  0  0  0  0
   37.5520   26.6000   41.6660 C   0  0  0  0  0  0  0  0  0  0  0  0
   38.6400   27.2700   42.1840 C   0  0  0  0  0  0  0  0  0  0  0  0
   38.8190   32.7740   39.5190 C   0  0  1  0  0  0  0  0  0  0  0  0
   38.9450   34.1410   40.1730 C   0  0  0  0  0  0  0  0  0  0  0  0
   40.1390   33.2520   40.0280 C   0  0  2  0  0  0  0  0  0  0  0  0
   41.2100   33.6350   39.0560 C   0  0  0  0  0  0  0  0  0  0  0  0
   42.4130   34.2770   39.3400 C   0  0  0  0  0  0  0  0  0  0  0  0
   43.0910   34.4350   38.1870 N   0  0  0  0  0  0  0  0  0  0  0  0
   42.2940   33.8910   37.2300 C   0  0  0  0  0  0  0  0  0  0  0  0
   41.1450   33.3970   37.7330 N   0  0  0  0  0  0  0  0  0  0  0  0
   35.0523   30.8170   41.2409 H   0  0  0  0  0  0  0  0  0  0  0  0
   36.3365   28.9440   42.2945 H   0  0  0  0  0  0  0  0  0  0  0  0
   40.7632   29.5754   43.0391 H   0  0  0  0  0  0  0  0  0  0  0  0
   41.3865   27.1984   43.7652 H   0  0  0  0  0  0  0  0  0  0  0  0
   40.2300   24.5807   43.5089 H   0  0  0  0  0  0  0  0  0  0  0  0
   38.2501   23.3958   42.5636 H   0  0  0  0  0  0  0  0  0  0  0  0
   36.5360   24.7487   41.3750 H   0  0  0  0  0  0  0  0  0  0  0  0
   36.7743   27.1663   41.1326 H   0  0  0  0  0  0  0  0  0  0  0  0
   38.4495   32.3954   38.5546 H   0  0  0  0  0  0  0  0  0  0  0  0
   38.8594   35.0536   39.5649 H   0  0  0  0  0  0  0  0  0  0  0  0
   38.4506   34.6555   41.0102 H   0  0  0  0  0  0  0  0  0  0  0  0
   40.8882   32.8409   40.7207 H   0  0  0  0  0  0  0  0  0  0  0  0
   42.7514   34.5998   40.3356 H   0  0  0  0  0  0  0  0  0  0  0  0
   42.5575   33.8575   36.1625 H   0  0  0  0  0  0  0  0  0  0  0  0
   40.3820   32.9368   37.2163 H   0  0  0  0  0  0  0  0  0  0  0  0
  1  2  2  0
  3  2  1  0
  3  7  1  0
  4  3  2  0
  5  6  2  0
  5  4  1  0
  6  1  1  0
  7 15  1  0
  7  8  2  0
  8  9  1  0
 10 11  2  0
 10  9  1  0
 12 11  1  0
 13 12  2  0
 14 13  1  0
 14 15  2  0
 15 10  1  0
 16 18  1  0
 16 17  1  0
 16  5  1  0
 18 17  1  0
 19 20  2  0
 19 18  1  0
 21 20  1  0
 22 23  1  0
 22 21  2  0
 23 19  1  0
  1 24  1  0
  2 25  1  0
  8 26  1  0
  9 27  1  0
 11 28  1  0
 12 29  1  0
 13 30  1  0
 14 31  1  0
 16 32  1  6
 17 33  1  0
 17 34  1  0
 18 35  1  1
 20 36  1  0
 22 37  1  0
 23 38  1  0
M  ISO  8  24  14  25  14  26  14  27   9  28  14  29  14  30  14  31  14
M  ISO  7  32  13  33  13  34  13  35  13  36  14  37  14  38   9
M  END
>  <minimizedAffinity>  (1) 
-6.06093359

>  <minimizedRMSD>  (1) 
1.05044961

$$$$
