
     RDKit          3D

 23 25  0  0  0  0  0  0  0  0999 V2000
   36.8940   26.8520   41.5390 C   0  0  0  0  0  0  0  0  0  0  0  0
   36.8320   25.8990   40.5010 C   0  0  0  0  0  0  0  0  0  0  0  0
   37.0110   24.7030   41.1480 C   0  0  0  0  0  0  0  0  0  0  0  0
   37.1690   24.8960   42.4760 N   0  0  0  0  0  0  0  0  0  0  0  0
   37.0960   26.2040   42.6930 N   0  0  0  0  0  0  0  0  0  0  0  0
   37.6820   29.2130   41.7720 C   0  0  0  0  0  0  0  0  0  0  0  0
   36.7510   28.2900   41.3030 C   0  0  0  0  0  0  0  0  0  0  0  0
   35.6410   28.7380   40.5830 C   0  0  0  0  0  0  0  0  0  0  0  0
   35.5240   30.0880   40.3720 N   0  0  0  0  0  0  0  0  0  0  0  0
   36.4450   30.9580   40.8410 C   0  0  0  0  0  0  0  0  0  0  0  0
   37.5320   30.5210   41.5450 N   0  0  0  0  0  0  0  0  0  0  0  0
   37.0010   23.4990   40.3550 N   0  0  0  0  0  0  0  0  0  0  0  0
   36.2180   23.0760   39.3700 C   0  0  0  0  0  0  0  0  0  0  0  0
   36.6360   21.8550   38.9530 N   0  0  0  0  0  0  0  0  0  0  0  0
   37.7100   21.5120   39.7030 C   0  0  0  0  0  0  0  0  0  0  0  0
   37.9110   22.5530   40.5640 N   0  0  0  0  0  0  0  0  0  0  0  0
   36.6767   26.0738   39.4261 H   0  0  0  0  0  0  0  0  0  0  0  0
   37.3181   24.1655   43.1867 H   0  0  0  0  0  0  0  0  0  0  0  0
   38.5557   28.8593   42.3390 H   0  0  0  0  0  0  0  0  0  0  0  0
   34.8882   28.0337   40.1993 H   0  0  0  0  0  0  0  0  0  0  0  0
   36.3182   32.0344   40.6534 H   0  0  0  0  0  0  0  0  0  0  0  0
   35.3626   23.6300   38.9561 H   0  0  0  0  0  0  0  0  0  0  0  0
   38.2992   20.5857   39.6332 H   0  0  0  0  0  0  0  0  0  0  0  0
  1  5  2  0
  2  3  2  0
  2  1  1  0
  3  4  1  0
  4  5  1  0
  7  1  1  0
  7  6  2  0
  8  7  1  0
  9  8  2  0
  9 10  1  0
 10 11  2  0
 11  6  1  0
 12 16  1  0
 12  3  1  0
 13 12  1  0
 14 13  2  0
 14 15  1  0
 15 16  2  0
  2 17  1  0
  4 18  1  0
  6 19  1  0
  8 20  1  0
 10 21  1  0
 13 22  1  0
 15 23  1  0
M  ISO  7  17  14  18   9  19  14  20  14  21  14  22  14  23  14
M  END
>  <minimizedAffinity>  (1) 
-3.94358778

>  <minimizedRMSD>  (1) 
0.380154371

$$$$
