
     RDKit          3D

 38 42  0  0  1  0  0  0  0  0999 V2000
   36.5080   30.2210   38.4600 C   0  0  0  0  0  0  0  0  0  0  0  0
   36.6770   29.2650   39.4780 C   0  0  0  0  0  0  0  0  0  0  0  0
   37.2710   29.6610   40.6980 C   0  0  0  0  0  0  0  0  0  0  0  0
   37.6340   30.9610   40.7820 N   0  0  0  0  0  0  0  0  0  0  0  0
   37.4640   31.8620   39.7990 C   0  0  0  0  0  0  0  0  0  0  0  0
   36.8960   31.4890   38.6290 N   0  0  0  0  0  0  0  0  0  0  0  0
   37.4530   28.6770   41.7190 C   0  0  0  0  0  0  0  0  0  0  0  0
   36.4840   27.9250   42.3310 C   0  0  0  0  0  0  0  0  0  0  0  0
   37.0530   27.1060   43.2540 N   0  0  0  0  0  0  0  0  0  0  0  0
   38.3740   27.2980   43.2680 C   0  0  0  0  0  0  0  0  0  0  0  0
   39.4430   26.7590   43.9900 C   0  0  0  0  0  0  0  0  0  0  0  0
   40.7470   27.1690   43.7850 C   0  0  0  0  0  0  0  0  0  0  0  0
   40.9620   28.1440   42.8260 C   0  0  0  0  0  0  0  0  0  0  0  0
   39.9460   28.6870   42.1090 C   0  0  0  0  0  0  0  0  0  0  0  0
   38.6310   28.2760   42.3140 C   0  0  0  0  0  0  0  0  0  0  0  0
   37.9090   33.2760   40.0260 C   0  0  1  0  0  0  0  0  0  0  0  0
   38.9530   33.5440   41.0600 C   0  0  0  0  0  0  0  0  0  0  0  0
   39.2610   33.7040   39.5980 C   0  0  1  0  0  0  0  0  0  0  0  0
   40.2220   32.6650   39.0480 C   0  0  0  0  0  0  0  0  0  0  0  0
   40.3910   32.2300   37.7120 C   0  0  0  0  0  0  0  0  0  0  0  0
   41.3230   31.2480   37.5470 C   0  0  0  0  0  0  0  0  0  0  0  0
   42.0520   30.7060   38.5630 C   0  0  0  0  0  0  0  0  0  0  0  0
   41.3950   31.6760   40.0760 S   0  0  0  0  0  0  0  0  0  0  0  0
   36.0481   29.9196   37.5073 H   0  0  0  0  0  0  0  0  0  0  0  0
   36.3518   28.2251   39.3269 H   0  0  0  0  0  0  0  0  0  0  0  0
   35.4080   27.9767   42.1085 H   0  0  0  0  0  0  0  0  0  0  0  0
   36.5433   26.4393   43.8512 H   0  0  0  0  0  0  0  0  0  0  0  0
   39.2401   25.9847   44.7445 H   0  0  0  0  0  0  0  0  0  0  0  0
   41.5798   26.7382   44.3603 H   0  0  0  0  0  0  0  0  0  0  0  0
   41.9895   28.4896   42.6393 H   0  0  0  0  0  0  0  0  0  0  0  0
   40.1633   29.4604   41.3575 H   0  0  0  0  0  0  0  0  0  0  0  0
   36.8907   33.6435   39.8309 H   0  0  0  0  0  0  0  0  0  0  0  0
   38.8740   34.4296   41.7077 H   0  0  0  0  0  0  0  0  0  0  0  0
   39.3915   32.9766   41.8942 H   0  0  0  0  0  0  0  0  0  0  0  0
   39.6197   34.5029   38.9323 H   0  0  0  0  0  0  0  0  0  0  0  0
   39.8165   32.6504   36.8734 H   0  0  0  0  0  0  0  0  0  0  0  0
   41.4974   30.8693   36.5291 H   0  0  0  0  0  0  0  0  0  0  0  0
   42.8177   29.9173   38.5236 H   0  0  0  0  0  0  0  0  0  0  0  0
  1  6  2  0
  1  2  1  0
  2  3  2  0
  3  4  1  0
  3  7  1  0
  5 16  1  0
  5  4  2  0
  6  5  1  0
  7 15  1  0
  7  8  2  0
  8  9  1  0
  9 10  1  0
 10 11  2  0
 12 11  1  0
 13 12  2  0
 14 15  2  0
 14 13  1  0
 15 10  1  0
 16 17  1  0
 18 16  1  0
 18 17  1  0
 19 18  1  0
 19 23  1  0
 20 19  2  0
 21 20  1  0
 21 22  2  0
 22 23  1  0
  1 24  1  0
  2 25  1  0
  8 26  1  0
  9 27  1  0
 11 28  1  0
 12 29  1  0
 13 30  1  0
 14 31  1  0
 16 32  1  1
 17 33  1  0
 17 34  1  0
 18 35  1  1
 20 36  1  0
 21 37  1  0
 22 38  1  0
M  ISO  8  24  14  25  14  26  14  27   9  28  14  29  14  30  14  31  14
M  ISO  7  32  13  33  13  34  13  35  13  36  14  37  14  38  14
M  END
>  <minimizedAffinity>  (1) 
-5.61559725

>  <minimizedRMSD>  (1) 
3.30246687

$$$$
