
     RDKit          3D

 34 37  0  0  1  0  0  0  0  0999 V2000
   36.1920   30.7690   41.0930 C   0  0  0  0  0  0  0  0  0  0  0  0
   36.6420   29.5740   41.6850 C   0  0  0  0  0  0  0  0  0  0  0  0
   38.0050   29.2960   41.6680 C   0  0  0  0  0  0  0  0  0  0  0  0
   38.8110   30.2130   41.0750 N   0  0  0  0  0  0  0  0  0  0  0  0
   38.3670   31.3510   40.5120 C   0  0  0  0  0  0  0  0  0  0  0  0
   37.0450   31.6340   40.5200 N   0  0  0  0  0  0  0  0  0  0  0  0
   38.4810   28.0640   42.2670 C   0  0  0  0  0  0  0  0  0  0  0  0
   39.4130   27.9030   43.2670 C   0  0  0  0  0  0  0  0  0  0  0  0
   39.5620   26.5790   43.5230 N   0  0  0  0  0  0  0  0  0  0  0  0
   38.7630   25.8600   42.7290 C   0  0  0  0  0  0  0  0  0  0  0  0
   38.5210   24.5060   42.5750 C   0  0  0  0  0  0  0  0  0  0  0  0
   37.6020   24.0250   41.6350 C   0  0  0  0  0  0  0  0  0  0  0  0
   36.9480   24.9640   40.8710 C   0  0  0  0  0  0  0  0  0  0  0  0
   37.1790   26.3050   41.0170 C   0  0  0  0  0  0  0  0  0  0  0  0
   38.0800   26.7780   41.9370 C   0  0  0  0  0  0  0  0  0  0  0  0
   39.3320   32.3060   39.8860 C   0  0  1  0  0  0  0  0  0  0  0  0
   39.5810   33.6280   40.5970 C   0  0  0  0  0  0  0  0  0  0  0  0
   40.6340   32.5670   40.5670 C   0  0  2  0  0  0  0  0  0  0  0  0
   41.8940   32.8410   39.8050 C   0  0  0  0  0  0  0  0  0  0  0  0
   35.1165   31.0000   41.0997 H   0  0  0  0  0  0  0  0  0  0  0  0
   35.9316   28.8752   42.1509 H   0  0  0  0  0  0  0  0  0  0  0  0
   39.9503   28.7165   43.7764 H   0  0  0  0  0  0  0  0  0  0  0  0
   40.2000   26.1843   44.2287 H   0  0  0  0  0  0  0  0  0  0  0  0
   39.0650   23.7892   43.2077 H   0  0  0  0  0  0  0  0  0  0  0  0
   37.4119   22.9484   41.5130 H   0  0  0  0  0  0  0  0  0  0  0  0
   36.2178   24.6268   40.1206 H   0  0  0  0  0  0  0  0  0  0  0  0
   36.6310   27.0182   40.3837 H   0  0  0  0  0  0  0  0  0  0  0  0
   39.0368   32.0000   38.8715 H   0  0  0  0  0  0  0  0  0  0  0  0
   39.7117   34.5519   40.0145 H   0  0  0  0  0  0  0  0  0  0  0  0
   39.0699   34.2004   41.3851 H   0  0  0  0  0  0  0  0  0  0  0  0
   41.2135   32.0015   41.3116 H   0  0  0  0  0  0  0  0  0  0  0  0
   42.7180   33.0202   40.5113 H   0  0  0  0  0  0  0  0  0  0  0  0
   42.1355   31.9744   39.1720 H   0  0  0  0  0  0  0  0  0  0  0  0
   41.7538   33.7297   39.1720 H   0  0  0  0  0  0  0  0  0  0  0  0
  1  2  2  0
  3  2  1  0
  3  7  1  0
  4  3  2  0
  5  6  2  0
  5  4  1  0
  6  1  1  0
  7  8  2  0
  8  9  1  0
 10  9  1  0
 11 10  2  0
 12 11  1  0
 13 14  1  0
 13 12  2  0
 14 15  2  0
 15  7  1  0
 15 10  1  0
 16  5  1  0
 16 18  1  0
 16 17  1  0
 18 17  1  0
 19 18  1  0
  1 20  1  0
  2 21  1  0
  8 22  1  0
  9 23  1  0
 11 24  1  0
 12 25  1  0
 13 26  1  0
 14 27  1  0
 16 28  1  6
 17 29  1  0
 17 30  1  0
 18 31  1  1
 19 32  1  0
 19 33  1  0
 19 34  1  0
M  ISO  8  20  14  21  14  22  14  23   9  24  14  25  14  26  14  27  14
M  ISO  7  28  13  29  13  30  13  31  13  32   8  33   8  34   8
M  END
>  <minimizedAffinity>  (1) 
-5.13841534

>  <minimizedRMSD>  (1) 
0.0314864069

$$$$
