
     RDKit          3D

 33 36  0  0  1  0  0  0  0  0999 V2000
   36.2000   30.7750   41.0950 C   0  0  0  0  0  0  0  0  0  0  0  0
   36.6490   29.5800   41.6850 C   0  0  0  0  0  0  0  0  0  0  0  0
   38.0120   29.2920   41.6660 C   0  0  0  0  0  0  0  0  0  0  0  0
   38.8100   30.2050   41.0670 N   0  0  0  0  0  0  0  0  0  0  0  0
   38.3770   31.3470   40.5040 C   0  0  0  0  0  0  0  0  0  0  0  0
   37.0550   31.6370   40.5160 N   0  0  0  0  0  0  0  0  0  0  0  0
   38.4810   28.0620   42.2630 C   0  0  0  0  0  0  0  0  0  0  0  0
   39.4080   27.8990   43.2670 C   0  0  0  0  0  0  0  0  0  0  0  0
   39.5590   26.5880   43.5300 N   0  0  0  0  0  0  0  0  0  0  0  0
   38.7560   25.8580   42.7260 C   0  0  0  0  0  0  0  0  0  0  0  0
   38.4990   24.4950   42.5570 C   0  0  0  0  0  0  0  0  0  0  0  0
   37.5930   24.0210   41.6240 C   0  0  0  0  0  0  0  0  0  0  0  0
   36.9550   24.9700   40.8690 C   0  0  0  0  0  0  0  0  0  0  0  0
   37.1780   26.3010   41.0050 C   0  0  0  0  0  0  0  0  0  0  0  0
   38.0820   26.7740   41.9360 C   0  0  0  0  0  0  0  0  0  0  0  0
   39.3400   32.3020   39.8720 C   0  0  1  0  0  0  0  0  0  0  0  0
   39.6000   33.6180   40.6050 C   0  0  0  0  0  0  0  0  0  0  0  0
   40.6470   32.5460   40.5450 C   0  0  2  0  0  0  0  0  0  0  0  0
   41.8480   32.8380   39.8180 N   0  0  0  0  0  0  0  0  0  0  0  0
   35.1255   31.0101   41.1073 H   0  0  0  0  0  0  0  0  0  0  0  0
   35.9366   28.8849   42.1533 H   0  0  0  0  0  0  0  0  0  0  0  0
   39.9429   28.7144   43.7759 H   0  0  0  0  0  0  0  0  0  0  0  0
   40.1943   26.1981   44.2408 H   0  0  0  0  0  0  0  0  0  0  0  0
   39.0363   23.7722   43.1885 H   0  0  0  0  0  0  0  0  0  0  0  0
   37.3968   22.9462   41.4962 H   0  0  0  0  0  0  0  0  0  0  0  0
   36.2263   24.6360   40.1157 H   0  0  0  0  0  0  0  0  0  0  0  0
   36.6327   27.0117   40.3666 H   0  0  0  0  0  0  0  0  0  0  0  0
   39.0368   32.0117   38.8552 H   0  0  0  0  0  0  0  0  0  0  0  0
   39.7306   34.5508   40.0369 H   0  0  0  0  0  0  0  0  0  0  0  0
   39.0995   34.1810   41.4066 H   0  0  0  0  0  0  0  0  0  0  0  0
   41.2270   31.9526   41.2672 H   0  0  0  0  0  0  0  0  0  0  0  0
   42.6140   33.0242   40.4810 H   0  0  0  0  0  0  0  0  0  0  0  0
   42.0950   32.0326   39.2254 H   0  0  0  0  0  0  0  0  0  0  0  0
  1  2  2  0
  3  2  1  0
  3  7  1  0
  4  3  2  0
  5  6  2  0
  5  4  1  0
  6  1  1  0
  7  8  2  0
  8  9  1  0
 10  9  1  0
 11 10  2  0
 12 11  1  0
 13 14  1  0
 13 12  2  0
 14 15  2  0
 15  7  1  0
 15 10  1  0
 16  5  1  0
 16 18  1  0
 16 17  1  0
 18 17  1  0
 19 18  1  0
  1 20  1  0
  2 21  1  0
  8 22  1  0
  9 23  1  0
 11 24  1  0
 12 25  1  0
 13 26  1  0
 14 27  1  0
 16 28  1  6
 17 29  1  0
 17 30  1  0
 18 31  1  1
 19 32  1  0
 19 33  1  0
M  ISO  8  20  14  21  14  22  14  23   9  24  14  25  14  26  14  27  14
M  ISO  6  28  13  29  13  30  13  31  13  32   5  33   5
M  END
>  <minimizedAffinity>  (1) 
-5.12937021

>  <minimizedRMSD>  (1) 
0.0225299243

$$$$
