
     RDKit          3D

 20 21  0  0  0  0  0  0  0  0999 V2000
   36.9210   26.7440   41.5080 C   0  0  0  0  0  0  0  0  0  0  0  0
   37.0590   25.8520   40.4260 C   0  0  0  0  0  0  0  0  0  0  0  0
   37.1960   24.6290   41.0750 C   0  0  0  0  0  0  0  0  0  0  0  0
   37.1440   24.7780   42.4260 N   0  0  0  0  0  0  0  0  0  0  0  0
   36.9780   26.0590   42.6550 N   0  0  0  0  0  0  0  0  0  0  0  0
   37.6490   29.1200   41.8380 C   0  0  0  0  0  0  0  0  0  0  0  0
   36.7490   28.1750   41.3070 C   0  0  0  0  0  0  0  0  0  0  0  0
   35.6740   28.6400   40.5710 C   0  0  0  0  0  0  0  0  0  0  0  0
   35.5200   29.9900   40.3830 N   0  0  0  0  0  0  0  0  0  0  0  0
   36.4150   30.8710   40.9140 C   0  0  0  0  0  0  0  0  0  0  0  0
   37.4840   30.4350   41.6460 N   0  0  0  0  0  0  0  0  0  0  0  0
   37.3730   23.3700   40.3330 C   0  0  0  0  0  0  0  0  0  0  0  0
   36.9520   23.1690   39.1740 O   0  0  0  0  0  0  0  0  0  0  0  0
   38.0380   22.2930   40.8900 O   0  0  0  0  0  0  0  0  0  0  0  0
   37.0585   26.0670   39.3472 H   0  0  0  0  0  0  0  0  0  0  0  0
   37.2201   24.0312   43.1312 H   0  0  0  0  0  0  0  0  0  0  0  0
   38.5098   28.7684   42.4257 H   0  0  0  0  0  0  0  0  0  0  0  0
   34.9492   27.9335   40.1404 H   0  0  0  0  0  0  0  0  0  0  0  0
   36.2746   31.9497   40.7508 H   0  0  0  0  0  0  0  0  0  0  0  0
   38.1452   21.4559   40.3724 H   0  0  0  0  0  0  0  0  0  0  0  0
  1  5  2  0
  2  3  2  0
  2  1  1  0
  3  4  1  0
  4  5  1  0
  7  1  1  0
  7  6  2  0
  8  7  1  0
  9  8  2  0
  9 10  1  0
 10 11  2  0
 11  6  1  0
 12 14  1  0
 12  3  1  0
 13 12  2  0
  2 15  1  0
  4 16  1  0
  6 17  1  0
  8 18  1  0
 10 19  1  0
 14 20  1  0
M  ISO  6  15  14  16   9  17  14  18  14  19  14  20   3
M  END
>  <minimizedAffinity>  (1) 
-3.83817148

>  <minimizedRMSD>  (1) 
0.324804664

$$$$
