
     RDKit          3D

 28 31  0  0  1  0  0  0  0  0999 V2000
   39.3690   30.5690   41.3510 C   0  0  1  0  0  0  0  0  0  0  0  0
   39.8710   30.5680   42.7070 C   0  0  0  0  0  0  0  0  0  0  0  0
   38.5350   29.9240   42.5180 C   0  0  2  0  0  0  0  0  0  0  0  0
   38.5200   28.4800   42.5750 N   0  0  0  0  0  0  0  0  0  0  0  0
   39.1400   27.6940   43.4620 C   0  0  0  0  0  0  0  0  0  0  0  0
   38.9330   26.4020   43.2460 N   0  0  0  0  0  0  0  0  0  0  0  0
   38.1340   26.3170   42.1590 C   0  0  0  0  0  0  0  0  0  0  0  0
   37.6110   25.2250   41.5010 C   0  0  0  0  0  0  0  0  0  0  0  0
   36.8390   25.4700   40.4340 N   0  0  0  0  0  0  0  0  0  0  0  0
   36.5890   26.7350   40.0270 C   0  0  0  0  0  0  0  0  0  0  0  0
   37.1060   27.8120   40.6770 N   0  0  0  0  0  0  0  0  0  0  0  0
   37.8880   27.6200   41.7550 C   0  0  0  0  0  0  0  0  0  0  0  0
   38.7060   31.7800   40.7430 C   0  0  0  0  0  0  0  0  0  0  0  0
   37.6910   31.5250   39.7990 C   0  0  0  0  0  0  0  0  0  0  0  0
   37.0930   32.6360   39.2280 C   0  0  0  0  0  0  0  0  0  0  0  0
   37.4970   33.8940   39.5910 N   0  0  0  0  0  0  0  0  0  0  0  0
   38.4810   34.0900   40.5050 C   0  0  0  0  0  0  0  0  0  0  0  0
   39.0830   33.0140   41.0800 N   0  0  0  0  0  0  0  0  0  0  0  0
   39.8338   30.2764   40.3979 H   0  0  0  0  0  0  0  0  0  0  0  0
   40.7388   29.9402   42.9576 H   0  0  0  0  0  0  0  0  0  0  0  0
   40.2311   31.3655   43.3735 H   0  0  0  0  0  0  0  0  0  0  0  0
   37.5218   30.0375   42.9310 H   0  0  0  0  0  0  0  0  0  0  0  0
   39.7582   28.0797   44.2861 H   0  0  0  0  0  0  0  0  0  0  0  0
   37.8181   24.1982   41.8369 H   0  0  0  0  0  0  0  0  0  0  0  0
   35.9502   26.8974   39.1464 H   0  0  0  0  0  0  0  0  0  0  0  0
   37.3907   30.5013   39.5309 H   0  0  0  0  0  0  0  0  0  0  0  0
   36.2937   32.5085   38.4831 H   0  0  0  0  0  0  0  0  0  0  0  0
   38.7891   35.1100   40.7785 H   0  0  0  0  0  0  0  0  0  0  0  0
  1  3  1  0
  1  2  1  0
  3  4  1  0
  3  2  1  0
  4  5  1  0
  6  5  2  0
  7  6  1  0
  8  7  2  0
  9  8  1  0
 10  9  2  0
 10 11  1  0
 11 12  2  0
 12  7  1  0
 12  4  1  0
 13 18  1  0
 13  1  1  0
 14 13  2  0
 15 16  2  0
 15 14  1  0
 16 17  1  0
 17 18  2  0
  1 19  1  6
  2 20  1  0
  2 21  1  0
  3 22  1  1
  5 23  1  0
  8 24  1  0
 10 25  1  0
 14 26  1  0
 15 27  1  0
 17 28  1  0
M  ISO  8  19  13  20  13  21  13  22  13  23  14  24  14  25  14  26  14
M  ISO  2  27  14  28  14
M  END
>  <minimizedAffinity>  (1) 
-4.59793663

>  <minimizedRMSD>  (1) 
4.83014727

$$$$
