
     RDKit          3D

 26 27  0  0  1  0  0  0  0  0999 V2000
   36.2570   28.1720   41.1890 C   0  0  1  0  0  0  0  0  0  0  0  0
   36.9010   26.8850   41.3200 C   0  0  0  0  0  0  0  0  0  0  0  0
   36.5020   27.5840   42.5720 C   0  0  1  0  0  0  0  0  0  0  0  0
   37.0110   29.4250   40.8350 C   0  0  0  0  0  0  0  0  0  0  0  0
   36.3230   30.6480   40.9650 C   0  0  0  0  0  0  0  0  0  0  0  0
   37.0340   31.8010   40.6310 C   0  0  0  0  0  0  0  0  0  0  0  0
   38.3240   31.6600   40.2100 N   0  0  0  0  0  0  0  0  0  0  0  0
   38.9410   30.4730   40.1010 C   0  0  0  0  0  0  0  0  0  0  0  0
   38.2620   29.3690   40.4190 N   0  0  0  0  0  0  0  0  0  0  0  0
   37.4070   28.1210   43.5830 C   0  0  0  0  0  0  0  0  0  0  0  0
   36.6700   28.1040   44.9530 C   0  0  0  0  0  0  0  0  0  0  0  0
   38.6980   27.4490   43.8570 C   0  0  0  0  0  0  0  0  0  0  0  0
   35.3970   28.5167   40.5961 H   0  0  0  0  0  0  0  0  0  0  0  0
   36.3646   25.9756   41.0114 H   0  0  0  0  0  0  0  0  0  0  0  0
   37.8476   26.4646   40.9497 H   0  0  0  0  0  0  0  0  0  0  0  0
   35.8931   27.3458   43.4566 H   0  0  0  0  0  0  0  0  0  0  0  0
   35.2800   30.6913   41.3117 H   0  0  0  0  0  0  0  0  0  0  0  0
   36.5681   32.7947   40.7050 H   0  0  0  0  0  0  0  0  0  0  0  0
   39.9840   30.4115   39.7569 H   0  0  0  0  0  0  0  0  0  0  0  0
   37.6673   29.0965   43.1463 H   0  0  0  0  0  0  0  0  0  0  0  0
   37.4093   28.1211   45.7673 H   0  0  0  0  0  0  0  0  0  0  0  0
   36.0191   28.9874   45.0302 H   0  0  0  0  0  0  0  0  0  0  0  0
   36.0605   27.1916   45.0302 H   0  0  0  0  0  0  0  0  0  0  0  0
   38.8474   27.3712   44.9440 H   0  0  0  0  0  0  0  0  0  0  0  0
   38.6880   26.4417   43.4152 H   0  0  0  0  0  0  0  0  0  0  0  0
   39.5174   28.0350   43.4152 H   0  0  0  0  0  0  0  0  0  0  0  0
  1  2  1  0
  1  3  1  0
  2  3  1  0
  3 10  1  0
  4  5  2  0
  4  1  1  0
  6  5  1  0
  7  6  2  0
  8  7  1  0
  8  9  2  0
  9  4  1  0
 10 12  1  0
 10 11  1  0
  1 13  1  6
  2 14  1  0
  2 15  1  0
  3 16  1  1
  5 17  1  0
  6 18  1  0
  8 19  1  0
 10 20  1  0
 11 21  1  0
 11 22  1  0
 11 23  1  0
 12 24  1  0
 12 25  1  0
 12 26  1  0
M  ISO  8  13  13  14  13  15  13  16  13  17  14  18  14  19  14  20   8
M  ISO  6  21   8  22   8  23   8  24   8  25   8  26   8
M  END
>  <minimizedAffinity>  (1) 
-4.18484735

>  <minimizedRMSD>  (1) 
2.51909828

$$$$
