
     RDKit          3D

 23 24  0  0  0  0  0  0  0  0999 V2000
   36.8810   26.8920   41.4520 C   0  0  0  0  0  0  0  0  0  0  0  0
   36.8130   26.0000   40.3620 C   0  0  0  0  0  0  0  0  0  0  0  0
   36.9430   24.7570   40.9720 C   0  0  0  0  0  0  0  0  0  0  0  0
   37.0770   24.8860   42.3040 N   0  0  0  0  0  0  0  0  0  0  0  0
   37.0380   26.1820   42.5710 N   0  0  0  0  0  0  0  0  0  0  0  0
   37.8280   29.1960   41.6490 C   0  0  0  0  0  0  0  0  0  0  0  0
   36.7880   28.3220   41.2640 C   0  0  0  0  0  0  0  0  0  0  0  0
   35.6590   28.8840   40.6940 C   0  0  0  0  0  0  0  0  0  0  0  0
   35.5930   30.2350   40.5260 N   0  0  0  0  0  0  0  0  0  0  0  0
   36.6270   31.0410   40.9150 C   0  0  0  0  0  0  0  0  0  0  0  0
   37.7550   30.5210   41.4810 N   0  0  0  0  0  0  0  0  0  0  0  0
   36.9430   23.4230   40.3150 C   0  0  0  0  0  0  0  0  0  0  0  0
   38.2990   22.7380   40.4930 C   0  0  0  0  0  0  0  0  0  0  0  0
   36.6881   26.2303   39.2937 H   0  0  0  0  0  0  0  0  0  0  0  0
   37.1886   24.1223   42.9861 H   0  0  0  0  0  0  0  0  0  0  0  0
   38.7340   28.7704   42.1051 H   0  0  0  0  0  0  0  0  0  0  0  0
   34.8210   28.2450   40.3788 H   0  0  0  0  0  0  0  0  0  0  0  0
   36.5482   32.1284   40.7691 H   0  0  0  0  0  0  0  0  0  0  0  0
   36.7389   23.5483   39.2414 H   0  0  0  0  0  0  0  0  0  0  0  0
   36.1653   22.7982   40.7785 H   0  0  0  0  0  0  0  0  0  0  0  0
   38.5163   22.6282   41.5657 H   0  0  0  0  0  0  0  0  0  0  0  0
   38.2729   21.7449   40.0206 H   0  0  0  0  0  0  0  0  0  0  0  0
   39.0829   23.3482   40.0206 H   0  0  0  0  0  0  0  0  0  0  0  0
  1  5  2  0
  2  3  2  0
  2  1  1  0
  3  4  1  0
  4  5  1  0
  7  1  1  0
  7  6  2  0
  8  7  1  0
  9  8  2  0
  9 10  1  0
 10 11  2  0
 11  6  1  0
 12 13  1  0
 12  3  1  0
  2 14  1  0
  4 15  1  0
  6 16  1  0
  8 17  1  0
 10 18  1  0
 12 19  1  0
 12 20  1  0
 13 21  1  0
 13 22  1  0
 13 23  1  0
M  ISO  8  14  14  15   9  16  14  17  14  18  14  19   8  20   8  21   8
M  ISO  2  22   8  23   8
M  END
>  <minimizedAffinity>  (1) 
-3.66334987

>  <minimizedRMSD>  (1) 
0.512134969

$$$$
