
     RDKit          3D

 19 20  0  0  0  0  0  0  0  0999 V2000
   36.9050   26.8780   41.5060 C   0  0  0  0  0  0  0  0  0  0  0  0
   36.8870   25.9680   40.4300 C   0  0  0  0  0  0  0  0  0  0  0  0
   37.0210   24.7420   41.0720 C   0  0  0  0  0  0  0  0  0  0  0  0
   37.1110   24.8990   42.3990 N   0  0  0  0  0  0  0  0  0  0  0  0
   37.0390   26.1900   42.6440 N   0  0  0  0  0  0  0  0  0  0  0  0
   37.8210   29.2080   41.6590 C   0  0  0  0  0  0  0  0  0  0  0  0
   36.7880   28.3180   41.2900 C   0  0  0  0  0  0  0  0  0  0  0  0
   35.6410   28.8300   40.7080 C   0  0  0  0  0  0  0  0  0  0  0  0
   35.5520   30.1840   40.5120 N   0  0  0  0  0  0  0  0  0  0  0  0
   36.5600   31.0050   40.8790 C   0  0  0  0  0  0  0  0  0  0  0  0
   37.7040   30.5260   41.4550 N   0  0  0  0  0  0  0  0  0  0  0  0
   37.0520   23.4860   40.3300 C   0  0  0  0  0  0  0  0  0  0  0  0
   37.7970   22.5040   40.6280 O   0  0  0  0  0  0  0  0  0  0  0  0
   36.7911   26.1753   39.3540 H   0  0  0  0  0  0  0  0  0  0  0  0
   37.2168   24.1493   43.0974 H   0  0  0  0  0  0  0  0  0  0  0  0
   38.7368   28.8116   42.1217 H   0  0  0  0  0  0  0  0  0  0  0  0
   34.8180   28.1642   40.4090 H   0  0  0  0  0  0  0  0  0  0  0  0
   36.4579   32.0871   40.7101 H   0  0  0  0  0  0  0  0  0  0  0  0
   36.3884   23.3847   39.4586 H   0  0  0  0  0  0  0  0  0  0  0  0
  1  5  2  0
  2  3  2  0
  2  1  1  0
  3  4  1  0
  4  5  1  0
  7  1  1  0
  7  6  2  0
  8  7  1  0
  9  8  2  0
  9 10  1  0
 10 11  2  0
 11  6  1  0
 12 13  2  0
 12  3  1  0
  2 14  1  0
  4 15  1  0
  6 16  1  0
  8 17  1  0
 10 18  1  0
 12 19  1  0
M  ISO  6  14  14  15   9  16  14  17  14  18  14  19   6
M  END
>  <minimizedAffinity>  (1) 
-3.5437181

>  <minimizedRMSD>  (1) 
0.411649406

$$$$
