
     RDKit          3D

 41 45  0  0  1  0  0  0  0  0999 V2000
   37.1860   27.5920   41.7160 C   0  0  0  0  0  0  0  0  0  0  0  0
   37.4410   26.5910   42.6370 C   0  0  0  0  0  0  0  0  0  0  0  0
   37.2790   25.2640   42.3980 C   0  0  0  0  0  0  0  0  0  0  0  0
   36.8300   24.8950   41.1510 C   0  0  0  0  0  0  0  0  0  0  0  0
   36.5700   25.8570   40.2160 C   0  0  0  0  0  0  0  0  0  0  0  0
   36.7540   27.2390   40.5150 C   0  0  0  0  0  0  0  0  0  0  0  0
   36.3650   27.9090   39.3260 N   0  0  0  0  0  0  0  0  0  0  0  0
   35.1500   28.4730   39.0380 C   0  0  0  0  0  0  0  0  0  0  0  0
   35.2060   29.0300   37.8100 N   0  0  0  0  0  0  0  0  0  0  0  0
   36.4420   28.8040   37.3680 C   0  0  0  0  0  0  0  0  0  0  0  0
   37.0590   29.1500   36.1690 C   0  0  0  0  0  0  0  0  0  0  0  0
   36.4140   29.7960   35.2800 O   0  0  0  0  0  0  0  0  0  0  0  0
   38.3480   28.8130   35.9220 N   0  0  0  0  0  0  0  0  0  0  0  0
   39.0830   28.1290   36.8260 C   0  0  0  0  0  0  0  0  0  0  0  0
   40.4360   27.7700   36.5750 N   0  0  0  0  0  0  0  0  0  0  0  0
   38.5060   27.7740   38.0100 N   0  0  0  0  0  0  0  0  0  0  0  0
   37.2310   28.0950   38.2830 C   0  0  0  0  0  0  0  0  0  0  0  0
   38.5680   29.7370   41.5670 C   0  0  1  0  0  0  0  0  0  0  0  0
   38.2350   29.4900   42.9880 C   0  0  0  0  0  0  0  0  0  0  0  0
   37.2280   29.0200   42.0350 C   0  0  2  0  0  0  0  0  0  0  0  0
   38.3610   31.1000   40.9940 C   0  0  0  0  0  0  0  0  0  0  0  0
   37.3610   31.2300   40.0510 C   0  0  0  0  0  0  0  0  0  0  0  0
   37.1140   32.4910   39.4860 C   0  0  0  0  0  0  0  0  0  0  0  0
   37.8910   33.5430   39.9080 N   0  0  0  0  0  0  0  0  0  0  0  0
   38.8500   33.3770   40.8260 C   0  0  0  0  0  0  0  0  0  0  0  0
   39.0530   32.1480   41.3410 N   0  0  0  0  0  0  0  0  0  0  0  0
   37.8001   26.8913   43.6324 H   0  0  0  0  0  0  0  0  0  0  0  0
   37.4983   24.5133   43.1715 H   0  0  0  0  0  0  0  0  0  0  0  0
   36.6813   23.8325   40.9082 H   0  0  0  0  0  0  0  0  0  0  0  0
   36.2136   25.5610   39.2183 H   0  0  0  0  0  0  0  0  0  0  0  0
   34.2716   28.4720   39.7001 H   0  0  0  0  0  0  0  0  0  0  0  0
   38.7768   29.0842   35.0256 H   0  0  0  0  0  0  0  0  0  0  0  0
   40.9705   27.2482   37.2842 H   0  0  0  0  0  0  0  0  0  0  0  0
   40.8815   28.0318   35.6840 H   0  0  0  0  0  0  0  0  0  0  0  0
   39.4429   29.5229   40.9356 H   0  0  0  0  0  0  0  0  0  0  0  0
   38.8215   28.7511   43.5538 H   0  0  0  0  0  0  0  0  0  0  0  0
   38.1788   30.1509   43.8655 H   0  0  0  0  0  0  0  0  0  0  0  0
   36.1425   29.1672   41.9347 H   0  0  0  0  0  0  0  0  0  0  0  0
   36.7655   30.3567   39.7464 H   0  0  0  0  0  0  0  0  0  0  0  0
   36.3259   32.6322   38.7317 H   0  0  0  0  0  0  0  0  0  0  0  0
   39.4626   34.2293   41.1550 H   0  0  0  0  0  0  0  0  0  0  0  0
  1 20  1  0
  1  2  2  0
  3  2  1  0
  4  3  2  0
  5  6  2  0
  5  4  1  0
  6  1  1  0
  7  6  1  0
  8  7  1  0
  9  8  2  0
 10  9  1  0
 10 17  2  0
 11 10  1  0
 12 11  2  0
 13 11  1  0
 13 14  1  0
 14 16  2  0
 15 14  1  0
 16 17  1  0
 17  7  1  0
 18 20  1  0
 18 19  1  0
 20 19  1  0
 21 26  1  0
 21 18  1  0
 22 21  2  0
 23 24  2  0
 23 22  1  0
 24 25  1  0
 25 26  2  0
  2 27  1  0
  3 28  1  0
  4 29  1  0
  5 30  1  0
  8 31  1  0
 13 32  1  0
 15 33  1  0
 15 34  1  0
 18 35  1  6
 19 36  1  0
 19 37  1  0
 20 38  1  1
 22 39  1  0
 23 40  1  0
 25 41  1  0
M  ISO  8  27  14  28  14  29  14  30  14  31  14  32   9  35  13  36  13
M  ISO  5  37  13  38  13  39  14  40  14  41  14
M  END
>  <minimizedAffinity>  (1) 
-6.17097187

>  <minimizedRMSD>  (1) 
1.1118921

$$$$
