
     RDKit          3D

 40 43  0  0  1  0  0  0  0  0999 V2000
   39.3180   26.0410   42.9830 C   0  0  0  0  0  0  0  0  0  0  0  0
   39.4380   24.6570   43.1030 C   0  0  0  0  0  0  0  0  0  0  0  0
   38.6190   23.7600   42.5140 C   0  0  0  0  0  0  0  0  0  0  0  0
   37.5930   24.2490   41.7380 C   0  0  0  0  0  0  0  0  0  0  0  0
   37.4490   25.6110   41.6010 C   0  0  0  0  0  0  0  0  0  0  0  0
   38.3300   26.5230   42.2380 C   0  0  0  0  0  0  0  0  0  0  0  0
   37.8800   27.8160   41.9000 N   0  0  0  0  0  0  0  0  0  0  0  0
   38.2810   28.2850   40.6940 C   0  0  0  0  0  0  0  0  0  0  0  0
   37.8330   29.5790   40.4020 C   0  0  0  0  0  0  0  0  0  0  0  0
   38.2160   30.1730   39.1160 C   0  0  0  0  0  0  0  0  0  0  0  0
   37.0420   30.2380   41.3500 C   0  0  0  0  0  0  0  0  0  0  0  0
   36.6380   31.4020   41.0900 O   0  0  0  0  0  0  0  0  0  0  0  0
   36.6950   29.6800   42.5320 N   0  0  0  0  0  0  0  0  0  0  0  0
   37.1180   28.4350   42.8290 C   0  0  0  0  0  0  0  0  0  0  0  0
   36.8260   27.8670   43.9110 O   0  0  0  0  0  0  0  0  0  0  0  0
   41.4910   27.3960   42.9610 C   0  0  1  0  0  0  0  0  0  0  0  0
   41.4810   26.5520   44.1730 C   0  0  0  0  0  0  0  0  0  0  0  0
   40.1560   26.9910   43.7450 C   0  0  2  0  0  0  0  0  0  0  0  0
   41.8330   28.8480   43.0760 C   0  0  0  0  0  0  0  0  0  0  0  0
   40.9800   29.7530   42.4580 C   0  0  0  0  0  0  0  0  0  0  0  0
   41.2700   31.1140   42.5580 C   0  0  0  0  0  0  0  0  0  0  0  0
   42.3790   31.4950   43.2590 N   0  0  0  0  0  0  0  0  0  0  0  0
   43.1810   30.5950   43.8420 C   0  0  0  0  0  0  0  0  0  0  0  0
   42.8790   29.2770   43.7320 N   0  0  0  0  0  0  0  0  0  0  0  0
   40.2595   24.2679   43.7225 H   0  0  0  0  0  0  0  0  0  0  0  0
   38.7662   22.6783   42.6493 H   0  0  0  0  0  0  0  0  0  0  0  0
   36.8979   23.5611   41.2344 H   0  0  0  0  0  0  0  0  0  0  0  0
   36.6291   26.0030   40.9812 H   0  0  0  0  0  0  0  0  0  0  0  0
   38.9052   27.6993   40.0032 H   0  0  0  0  0  0  0  0  0  0  0  0
   38.8042   31.0853   39.2942 H   0  0  0  0  0  0  0  0  0  0  0  0
   38.8203   29.4528   38.5449 H   0  0  0  0  0  0  0  0  0  0  0  0
   37.3106   30.4262   38.5449 H   0  0  0  0  0  0  0  0  0  0  0  0
   36.1115   30.2027   43.2007 H   0  0  0  0  0  0  0  0  0  0  0  0
   41.9332   27.2906   41.9593 H   0  0  0  0  0  0  0  0  0  0  0  0
   41.7442   25.4878   44.0830 H   0  0  0  0  0  0  0  0  0  0  0  0
   42.0122   26.6286   45.1332 H   0  0  0  0  0  0  0  0  0  0  0  0
   39.3154   27.4848   44.2545 H   0  0  0  0  0  0  0  0  0  0  0  0
   40.0965   29.4050   41.9027 H   0  0  0  0  0  0  0  0  0  0  0  0
   40.6201   31.8637   42.0830 H   0  0  0  0  0  0  0  0  0  0  0  0
   44.0709   30.9193   44.4014 H   0  0  0  0  0  0  0  0  0  0  0  0
  1  2  2  0
  1 18  1  0
  3  2  1  0
  4  3  2  0
  5  4  1  0
  5  6  2  0
  6  1  1  0
  7  6  1  0
  7 14  1  0
  8  7  1  0
  9  8  2  0
  9 11  1  0
 10  9  1  0
 11 13  1  0
 12 11  2  0
 13 14  1  0
 14 15  2  0
 16 19  1  0
 16 18  1  0
 16 17  1  0
 18 17  1  0
 19 24  2  0
 20 21  2  0
 20 19  1  0
 21 22  1  0
 22 23  2  0
 24 23  1  0
  2 25  1  0
  3 26  1  0
  4 27  1  0
  5 28  1  0
  8 29  1  0
 10 30  1  0
 10 31  1  0
 10 32  1  0
 13 33  1  0
 16 34  1  6
 17 35  1  0
 17 36  1  0
 18 37  1  1
 20 38  1  0
 21 39  1  0
 23 40  1  0
M  ISO  8  25  14  26  14  27  14  28  14  29  14  30   8  31   8  32   8
M  ISO  8  33   9  34  13  35  13  36  13  37  13  38  14  39  14  40  14
M  END
>  <minimizedAffinity>  (1) 
-6.05843782

>  <minimizedRMSD>  (1) 
4.32540798

$$$$
