
     RDKit          3D

 42 45  0  0  1  0  0  0  0  0999 V2000
   37.8240   28.4070   41.9230 C   0  0  0  0  0  0  0  0  0  0  0  0
   38.3510   27.4690   42.7880 C   0  0  0  0  0  0  0  0  0  0  0  0
   38.0870   26.1350   42.6900 C   0  0  0  0  0  0  0  0  0  0  0  0
   37.2580   25.7120   41.6780 C   0  0  0  0  0  0  0  0  0  0  0  0
   36.7280   26.6260   40.8120 C   0  0  0  0  0  0  0  0  0  0  0  0
   37.0210   27.9970   40.9420 C   0  0  0  0  0  0  0  0  0  0  0  0
   39.1010   30.5170   41.2340 C   0  0  1  0  0  0  0  0  0  0  0  0
   39.2870   30.3220   42.6840 C   0  0  0  0  0  0  0  0  0  0  0  0
   37.9970   29.8560   42.1840 C   0  0  2  0  0  0  0  0  0  0  0  0
   38.6810   31.8830   40.7360 C   0  0  0  0  0  0  0  0  0  0  0  0
   37.5890   31.9470   39.8240 C   0  0  0  0  0  0  0  0  0  0  0  0
   37.2110   33.1940   39.3820 C   0  0  0  0  0  0  0  0  0  0  0  0
   37.8820   34.3020   39.8260 N   0  0  0  0  0  0  0  0  0  0  0  0
   38.9190   34.1930   40.6990 C   0  0  0  0  0  0  0  0  0  0  0  0
   39.3110   32.9600   41.1500 N   0  0  0  0  0  0  0  0  0  0  0  0
   36.3690   28.6200   39.8530 N   0  0  0  0  0  0  0  0  0  0  0  0
   36.9950   28.6200   38.5210 C   0  0  0  0  0  0  0  0  0  0  0  0
   36.1770   29.3500   37.5180 C   0  0  0  0  0  0  0  0  0  0  0  0
   34.7090   29.1250   37.5660 C   0  0  0  0  0  0  0  0  0  0  0  0
   34.1190   28.9080   38.9180 C   0  0  0  0  0  0  0  0  0  0  0  0
   35.0670   29.2560   40.0120 C   0  0  0  0  0  0  0  0  0  0  0  0
   39.0151   27.8141   43.5942 H   0  0  0  0  0  0  0  0  0  0  0  0
   38.5246   25.4179   43.4001 H   0  0  0  0  0  0  0  0  0  0  0  0
   37.0228   24.6433   41.5662 H   0  0  0  0  0  0  0  0  0  0  0  0
   36.0642   26.2867   40.0032 H   0  0  0  0  0  0  0  0  0  0  0  0
   39.6994   30.2631   40.3466 H   0  0  0  0  0  0  0  0  0  0  0  0
   40.0224   29.5815   43.0317 H   0  0  0  0  0  0  0  0  0  0  0  0
   39.5611   31.0129   43.4949 H   0  0  0  0  0  0  0  0  0  0  0  0
   36.9550   30.0312   42.4897 H   0  0  0  0  0  0  0  0  0  0  0  0
   37.0696   31.0378   39.4871 H   0  0  0  0  0  0  0  0  0  0  0  0
   36.3743   33.3003   38.6758 H   0  0  0  0  0  0  0  0  0  0  0  0
   39.4439   35.0962   41.0436 H   0  0  0  0  0  0  0  0  0  0  0  0
   37.9812   29.1020   38.5927 H   0  0  0  0  0  0  0  0  0  0  0  0
   37.0842   27.5751   38.1890 H   0  0  0  0  0  0  0  0  0  0  0  0
   36.5280   29.0507   36.5194 H   0  0  0  0  0  0  0  0  0  0  0  0
   36.3149   30.4160   37.7517 H   0  0  0  0  0  0  0  0  0  0  0  0
   34.2201   30.0058   37.1242 H   0  0  0  0  0  0  0  0  0  0  0  0
   34.5373   28.1877   37.0166 H   0  0  0  0  0  0  0  0  0  0  0  0
   33.2203   29.5347   39.0163 H   0  0  0  0  0  0  0  0  0  0  0  0
   33.8763   27.8392   39.0111 H   0  0  0  0  0  0  0  0  0  0  0  0
   34.6326   28.9334   40.9697 H   0  0  0  0  0  0  0  0  0  0  0  0
   35.2235   30.3444   39.9817 H   0  0  0  0  0  0  0  0  0  0  0  0
  1  9  1  0
  1  2  2  0
  3  2  1  0
  4  3  2  0
  5  6  2  0
  5  4  1  0
  6  1  1  0
  7  9  1  0
  7  8  1  0
  9  8  1  0
 10 15  1  0
 10  7  1  0
 11 10  2  0
 12 11  1  0
 12 13  2  0
 13 14  1  0
 14 15  2  0
 16 21  1  0
 16  6  1  0
 17 16  1  0
 18 19  1  0
 18 17  1  0
 19 20  1  0
 20 21  1  0
  2 22  1  0
  3 23  1  0
  4 24  1  0
  5 25  1  0
  7 26  1  6
  8 27  1  0
  8 28  1  0
  9 29  1  1
 11 30  1  0
 12 31  1  0
 14 32  1  0
 17 33  1  0
 17 34  1  0
 18 35  1  0
 18 36  1  0
 19 37  1  0
 19 38  1  0
 20 39  1  0
 20 40  1  0
 21 41  1  0
 21 42  1  0
M  ISO  8  22  14  23  14  24  14  25  14  26  13  27  13  28  13  29  13
M  ISO  8  30  14  31  14  32  14  33  13  34  13  35  13  36  13  37  13
M  ISO  5  38  13  39  13  40  13  41  13  42  13
M  END
>  <minimizedAffinity>  (1) 
-5.60696268

>  <minimizedRMSD>  (1) 
0.973852456

$$$$
