
     RDKit          3D

 19 20  0  0  0  0  0  0  0  0999 V2000
   36.9100   26.7040   41.4520 C   0  0  0  0  0  0  0  0  0  0  0  0
   36.8470   25.8100   40.3670 C   0  0  0  0  0  0  0  0  0  0  0  0
   37.0510   24.5780   40.9720 C   0  0  0  0  0  0  0  0  0  0  0  0
   37.2230   24.7080   42.2950 N   0  0  0  0  0  0  0  0  0  0  0  0
   37.1360   26.0010   42.5740 N   0  0  0  0  0  0  0  0  0  0  0  0
   37.6580   29.0650   41.8300 C   0  0  0  0  0  0  0  0  0  0  0  0
   36.7470   28.1400   41.2800 C   0  0  0  0  0  0  0  0  0  0  0  0
   35.6700   28.6230   40.5590 C   0  0  0  0  0  0  0  0  0  0  0  0
   35.5270   29.9710   40.4040 N   0  0  0  0  0  0  0  0  0  0  0  0
   36.4310   30.8430   40.9520 C   0  0  0  0  0  0  0  0  0  0  0  0
   37.4870   30.3840   41.6590 N   0  0  0  0  0  0  0  0  0  0  0  0
   37.0720   23.3490   40.2620 N   0  0  0  0  0  0  0  0  0  0  0  0
   36.6780   26.0326   39.3031 H   0  0  0  0  0  0  0  0  0  0  0  0
   37.3911   23.9466   42.9680 H   0  0  0  0  0  0  0  0  0  0  0  0
   38.5204   28.6998   42.4070 H   0  0  0  0  0  0  0  0  0  0  0  0
   34.9390   27.9301   40.1168 H   0  0  0  0  0  0  0  0  0  0  0  0
   36.2958   31.9260   40.8151 H   0  0  0  0  0  0  0  0  0  0  0  0
   37.2282   22.4650   40.7671 H   0  0  0  0  0  0  0  0  0  0  0  0
   36.9310   23.3412   39.2417 H   0  0  0  0  0  0  0  0  0  0  0  0
  1  5  2  0
  2  3  2  0
  2  1  1  0
  3  4  1  0
  4  5  1  0
  7  1  1  0
  7  6  2  0
  8  7  1  0
  9  8  2  0
  9 10  1  0
 10 11  2  0
 11  6  1  0
 12  3  1  0
  2 13  1  0
  4 14  1  0
  6 15  1  0
  8 16  1  0
 10 17  1  0
 12 18  1  0
 12 19  1  0
M  ISO  5  13  14  14   9  15  14  16  14  17  14
M  END
>  <minimizedAffinity>  (1) 
-3.45927453

>  <minimizedRMSD>  (1) 
0.120731629

$$$$
