
     RDKit          3D

 30 32  0  0  1  0  0  0  0  0999 V2000
   38.3450   29.1590   41.9250 C   0  0  1  0  0  0  0  0  0  0  0  0
   37.5880   28.8320   43.1650 C   0  0  0  0  0  0  0  0  0  0  0  0
   37.0600   28.3590   41.8840 C   0  0  2  0  0  0  0  0  0  0  0  0
   37.0480   26.9660   41.5560 C   0  0  0  0  0  0  0  0  0  0  0  0
   37.1800   26.0140   42.5080 C   0  0  0  0  0  0  0  0  0  0  0  0
   37.0020   24.6960   42.2340 C   0  0  0  0  0  0  0  0  0  0  0  0
   36.6880   24.3290   40.9610 C   0  0  0  0  0  0  0  0  0  0  0  0
   36.5590   25.2800   40.0070 C   0  0  0  0  0  0  0  0  0  0  0  0
   36.7390   26.6170   40.2990 C   0  0  0  0  0  0  0  0  0  0  0  0
   36.4520   27.3880   39.0860 C   0  0  0  0  0  0  0  0  0  0  0  0
   37.4330   28.2260   38.6730 F   0  0  0  0  0  0  0  0  0  0  0  0
   35.4100   28.2750   39.2510 F   0  0  0  0  0  0  0  0  0  0  0  0
   35.9250   26.5700   38.0670 F   0  0  0  0  0  0  0  0  0  0  0  0
   38.2580   30.5460   41.3930 C   0  0  0  0  0  0  0  0  0  0  0  0
   37.1260   30.8680   40.6810 C   0  0  0  0  0  0  0  0  0  0  0  0
   36.9300   32.1370   40.1340 C   0  0  0  0  0  0  0  0  0  0  0  0
   37.9530   33.0430   40.3610 N   0  0  0  0  0  0  0  0  0  0  0  0
   39.0610   32.6950   41.0730 C   0  0  0  0  0  0  0  0  0  0  0  0
   39.2000   31.4200   41.5900 N   0  0  0  0  0  0  0  0  0  0  0  0
   39.3857   29.0236   41.5955 H   0  0  0  0  0  0  0  0  0  0  0  0
   38.0038   28.1101   43.8833 H   0  0  0  0  0  0  0  0  0  0  0  0
   37.1755   29.4280   43.9924 H   0  0  0  0  0  0  0  0  0  0  0  0
   36.1041   28.4561   41.3484 H   0  0  0  0  0  0  0  0  0  0  0  0
   37.4390   26.3162   43.5335 H   0  0  0  0  0  0  0  0  0  0  0  0
   37.1094   23.9394   43.0252 H   0  0  0  0  0  0  0  0  0  0  0  0
   36.5404   23.2682   40.7101 H   0  0  0  0  0  0  0  0  0  0  0  0
   36.3058   24.9818   38.9789 H   0  0  0  0  0  0  0  0  0  0  0  0
   36.3506   30.1010   40.5382 H   0  0  0  0  0  0  0  0  0  0  0  0
   36.0271   32.3991   39.5630 H   0  0  0  0  0  0  0  0  0  0  0  0
   39.8553   33.4377   41.2388 H   0  0  0  0  0  0  0  0  0  0  0  0
  1  2  1  0
  3  1  1  0
  3  2  1  0
  4  3  1  0
  4  5  2  0
  6  5  1  0
  7  6  2  0
  8  9  2  0
  8  7  1  0
  9  4  1  0
 10 12  1  0
 10  9  1  0
 11 10  1  0
 13 10  1  0
 14 19  1  0
 14  1  1  0
 15 14  2  0
 16 17  2  0
 16 15  1  0
 17 18  1  0
 18 19  2  0
  1 20  1  1
  2 21  1  0
  2 22  1  0
  3 23  1  6
  5 24  1  0
  6 25  1  0
  7 26  1  0
  8 27  1  0
 15 28  1  0
 16 29  1  0
 18 30  1  0
M  ISO  8  20  13  21  13  22  13  23  13  24  14  25  14  26  14  27  14
M  ISO  3  28  14  29  14  30  14
M  END
>  <minimizedAffinity>  (1) 
-5.21211624

>  <minimizedRMSD>  (1) 
0.893447399

$$$$
