
     RDKit          3D

 32 34  0  0  0  0  0  0  0  0999 V2000
   40.4730   28.0230   43.2790 C   0  0  0  0  0  0  0  0  0  0  0  0
   41.4710   28.8460   42.8220 C   0  0  0  0  0  0  0  0  0  0  0  0
   42.6320   28.4930   43.4670 C   0  0  0  0  0  0  0  0  0  0  0  0
   42.2880   27.4720   44.2870 N   0  0  0  0  0  0  0  0  0  0  0  0
   41.0160   27.1850   44.1860 N   0  0  0  0  0  0  0  0  0  0  0  0
   37.1200   29.1980   42.1600 C   0  0  0  0  0  0  0  0  0  0  0  0
   38.4700   29.2430   42.5440 C   0  0  0  0  0  0  0  0  0  0  0  0
   39.0930   28.0350   42.8800 C   0  0  0  0  0  0  0  0  0  0  0  0
   38.3720   26.8850   42.8200 N   0  0  0  0  0  0  0  0  0  0  0  0
   37.0660   26.8940   42.4410 C   0  0  0  0  0  0  0  0  0  0  0  0
   36.4380   28.0450   42.1120 N   0  0  0  0  0  0  0  0  0  0  0  0
   45.1150   26.1970   47.0260 N   0  0  0  0  0  0  0  0  0  0  0  0
   44.2110   27.2390   47.4390 C   0  0  0  0  0  0  0  0  0  0  0  0
   43.0190   27.3740   46.5450 C   0  0  0  0  0  0  0  0  0  0  0  0
   43.1930   26.7640   45.1780 C   0  0  0  0  0  0  0  0  0  0  0  0
   44.6020   26.7760   44.6770 C   0  0  0  0  0  0  0  0  0  0  0  0
   45.6300   26.5780   45.7390 C   0  0  0  0  0  0  0  0  0  0  0  0
   41.3616   29.6449   42.0738 H   0  0  0  0  0  0  0  0  0  0  0  0
   43.6278   28.9436   43.3435 H   0  0  0  0  0  0  0  0  0  0  0  0
   36.6084   30.1340   41.8914 H   0  0  0  0  0  0  0  0  0  0  0  0
   39.0195   30.1952   42.5796 H   0  0  0  0  0  0  0  0  0  0  0  0
   36.5096   25.9459   42.4014 H   0  0  0  0  0  0  0  0  0  0  0  0
   45.8855   26.1072   47.7036 H   0  0  0  0  0  0  0  0  0  0  0  0
   43.8606   27.0145   48.4573 H   0  0  0  0  0  0  0  0  0  0  0  0
   44.7639   28.1888   47.3921 H   0  0  0  0  0  0  0  0  0  0  0  0
   42.1648   26.8833   47.0344 H   0  0  0  0  0  0  0  0  0  0  0  0
   42.8637   28.4519   46.3900 H   0  0  0  0  0  0  0  0  0  0  0  0
   42.9497   25.6924   45.2265 H   0  0  0  0  0  0  0  0  0  0  0  0
   44.7116   25.9702   43.9362 H   0  0  0  0  0  0  0  0  0  0  0  0
   44.7771   27.7744   44.2497 H   0  0  0  0  0  0  0  0  0  0  0  0
   46.3202   25.7906   45.4019 H   0  0  0  0  0  0  0  0  0  0  0  0
   46.1142   27.5554   45.8811 H   0  0  0  0  0  0  0  0  0  0  0  0
  1  5  2  0
  2  1  1  0
  2  3  2  0
  3  4  1  0
  4 15  1  0
  5  4  1  0
  6  7  2  0
  7  8  1  0
  8  1  1  0
  9  8  2  0
 10  9  1  0
 11  6  1  0
 11 10  2  0
 12 13  1  0
 14 13  1  0
 15 14  1  0
 16 15  1  0
 16 17  1  0
 17 12  1  0
  2 18  1  0
  3 19  1  0
  6 20  1  0
  7 21  1  0
 10 22  1  0
 12 23  1  0
 13 24  1  0
 13 25  1  0
 14 26  1  0
 14 27  1  0
 15 28  1  0
 16 29  1  0
 16 30  1  0
 17 31  1  0
 17 32  1  0
M  ISO  8  18  14  19  14  20  14  21  14  22  14  23   5  24  13  25  13
M  ISO  7  26  13  27  13  28  13  29  13  30  13  31  13  32  13
M  END
>  <minimizedAffinity>  (1) 
-4.48595572

>  <minimizedRMSD>  (1) 
3.51588416

$$$$
