
     RDKit          3D

 24 26  0  0  0  0  0  0  0  0999 V2000
   37.4190   28.1130   41.8530 C   0  0  0  0  0  0  0  0  0  0  0  0
   36.1650   27.9200   41.3630 C   0  0  0  0  0  0  0  0  0  0  0  0
   35.6830   29.1190   40.8780 C   0  0  0  0  0  0  0  0  0  0  0  0
   36.7000   29.9940   41.1080 N   0  0  0  0  0  0  0  0  0  0  0  0
   37.7050   29.4020   41.6740 N   0  0  0  0  0  0  0  0  0  0  0  0
   40.0520   26.5120   43.9530 C   0  0  0  0  0  0  0  0  0  0  0  0
   39.2330   27.5100   43.4020 C   0  0  0  0  0  0  0  0  0  0  0  0
   38.2810   27.1350   42.4480 C   0  0  0  0  0  0  0  0  0  0  0  0
   38.1930   25.8270   42.0990 N   0  0  0  0  0  0  0  0  0  0  0  0
   38.9980   24.8880   42.6480 C   0  0  0  0  0  0  0  0  0  0  0  0
   39.9260   25.2340   43.5750 N   0  0  0  0  0  0  0  0  0  0  0  0
   36.6120   31.3950   40.7450 C   0  0  0  0  0  0  0  0  0  0  0  0
   37.8250   32.1990   40.5240 C   0  0  0  0  0  0  0  0  0  0  0  0
   37.0230   31.7420   39.3260 C   0  0  0  0  0  0  0  0  0  0  0  0
   35.6226   26.9631   41.3546 H   0  0  0  0  0  0  0  0  0  0  0  0
   34.7060   29.3203   40.4143 H   0  0  0  0  0  0  0  0  0  0  0  0
   40.8072   26.7836   44.7052 H   0  0  0  0  0  0  0  0  0  0  0  0
   39.3371   28.5601   43.7124 H   0  0  0  0  0  0  0  0  0  0  0  0
   38.8992   23.8365   42.3404 H   0  0  0  0  0  0  0  0  0  0  0  0
   35.7283   31.5413   41.3834 H   0  0  0  0  0  0  0  0  0  0  0  0
   37.8340   33.2631   40.8024 H   0  0  0  0  0  0  0  0  0  0  0  0
   38.8780   32.1059   40.8282 H   0  0  0  0  0  0  0  0  0  0  0  0
   36.4384   32.4666   38.7402 H   0  0  0  0  0  0  0  0  0  0  0  0
   37.2326   31.1777   38.4053 H   0  0  0  0  0  0  0  0  0  0  0  0
  1  8  1  0
  2  1  1  0
  3  4  1  0
  3  2  2  0
  4  5  1  0
  5  1  2  0
  7  6  2  0
  8  7  1  0
  9  8  2  0
  9 10  1  0
 10 11  2  0
 11  6  1  0
 12  4  1  0
 13 12  1  0
 14 13  1  0
 14 12  1  0
  2 15  1  0
  3 16  1  0
  6 17  1  0
  7 18  1  0
 10 19  1  0
 12 20  1  0
 13 21  1  0
 13 22  1  0
 14 23  1  0
 14 24  1  0
M  ISO  8  15  14  16  14  17  14  18  14  19  14  20  13  21  13  22  13
M  ISO  2  23  13  24  13
M  END
>  <minimizedAffinity>  (1) 
-4.164361

>  <minimizedRMSD>  (1) 
6.66704321

$$$$
