
     RDKit          3D

 30 32  0  0  0  0  0  0  0  0999 V2000
   41.8310   26.1880   43.9810 C   0  0  0  0  0  0  0  0  0  0  0  0
   42.2050   27.0610   44.9550 C   0  0  0  0  0  0  0  0  0  0  0  0
   43.5770   26.9630   45.1220 C   0  0  0  0  0  0  0  0  0  0  0  0
   43.9470   26.0190   44.2200 N   0  0  0  0  0  0  0  0  0  0  0  0
   42.9460   25.5570   43.5470 N   0  0  0  0  0  0  0  0  0  0  0  0
   38.2850   26.6870   42.9670 C   0  0  0  0  0  0  0  0  0  0  0  0
   39.5660   26.9780   43.4650 C   0  0  0  0  0  0  0  0  0  0  0  0
   40.5030   25.9580   43.4840 C   0  0  0  0  0  0  0  0  0  0  0  0
   40.1460   24.7170   43.0220 N   0  0  0  0  0  0  0  0  0  0  0  0
   38.9010   24.4880   42.5520 C   0  0  0  0  0  0  0  0  0  0  0  0
   37.9710   25.4570   42.5210 N   0  0  0  0  0  0  0  0  0  0  0  0
   47.9880   24.7690   43.8050 C   0  0  0  0  0  0  0  0  0  0  0  0
   47.4960   25.2010   45.0330 C   0  0  0  0  0  0  0  0  0  0  0  0
   46.1930   25.5910   45.1110 C   0  0  0  0  0  0  0  0  0  0  0  0
   45.3020   25.5910   44.0420 C   0  0  0  0  0  0  0  0  0  0  0  0
   45.8350   25.1550   42.8500 C   0  0  0  0  0  0  0  0  0  0  0  0
   47.1470   24.7530   42.7300 C   0  0  0  0  0  0  0  0  0  0  0  0
   49.6810   24.2890   43.8170 S   0  0  0  0  0  0  0  0  0  0  0  0
   50.1090   23.7890   42.4760 O   0  0  0  0  0  0  0  0  0  0  0  0
   49.8940   23.1930   44.8280 O   0  0  0  0  0  0  0  0  0  0  0  0
   41.5337   27.7296   45.5138 H   0  0  0  0  0  0  0  0  0  0  0  0
   44.2168   27.5202   45.8221 H   0  0  0  0  0  0  0  0  0  0  0  0
   37.5236   27.4805   42.9412 H   0  0  0  0  0  0  0  0  0  0  0  0
   39.8173   27.9852   43.8288 H   0  0  0  0  0  0  0  0  0  0  0  0
   38.6420   23.4837   42.1856 H   0  0  0  0  0  0  0  0  0  0  0  0
   48.1448   25.2270   45.9209 H   0  0  0  0  0  0  0  0  0  0  0  0
   45.8187   25.9299   46.0882 H   0  0  0  0  0  0  0  0  0  0  0  0
   45.1890   25.1266   41.9601 H   0  0  0  0  0  0  0  0  0  0  0  0
   47.5226   24.4140   41.7533 H   0  0  0  0  0  0  0  0  0  0  0  0
   50.4266   25.3912   44.1427 H   0  0  0  0  0  0  0  0  0  0  0  0
  1  2  1  0
  2  3  2  0
  4  3  1  0
  5  1  2  0
  5  4  1  0
  6  7  2  0
  7  8  1  0
  8  1  1  0
  9  8  2  0
 10  9  1  0
 11 10  2  0
 11  6  1  0
 12 18  1  0
 12 13  2  0
 13 14  1  0
 15  4  1  0
 15 14  2  0
 16 15  1  0
 17 16  2  0
 17 12  1  0
 18 20  2  0
 19 18  2  0
  2 21  1  0
  3 22  1  0
  6 23  1  0
  7 24  1  0
 10 25  1  0
 13 26  1  0
 14 27  1  0
 16 28  1  0
 17 29  1  0
 18 30  1  0
M  ISO  8  21  14  22  14  23  14  24  14  25  14  26  14  27  14  28  14
M  ISO  2  29  14  30  11
M  END
>  <minimizedAffinity>  (1) 
-3.65585518

>  <minimizedRMSD>  (1) 
3.24624133

$$$$
