
     RDKit          3D

 37 40  0  0  0  0  0  0  0  0999 V2000
   36.2820   31.0480   40.8960 C   0  0  0  0  0  0  0  0  0  0  0  0
   38.2590   28.3920   42.2300 C   0  0  0  0  0  0  0  0  0  0  0  0
   37.1700   27.7150   41.7850 C   0  0  0  0  0  0  0  0  0  0  0  0
   36.2870   28.6020   41.2300 C   0  0  0  0  0  0  0  0  0  0  0  0
   36.9130   29.8050   41.3750 N   0  0  0  0  0  0  0  0  0  0  0  0
   38.0690   29.6750   41.9630 N   0  0  0  0  0  0  0  0  0  0  0  0
   40.4830   26.0820   44.1510 C   0  0  0  0  0  0  0  0  0  0  0  0
   39.3430   26.5940   43.5440 C   0  0  0  0  0  0  0  0  0  0  0  0
   39.4120   27.8080   42.8790 C   0  0  0  0  0  0  0  0  0  0  0  0
   40.6080   28.4610   42.8450 N   0  0  0  0  0  0  0  0  0  0  0  0
   41.7080   27.9220   43.4550 C   0  0  0  0  0  0  0  0  0  0  0  0
   41.6410   26.7460   44.0990 N   0  0  0  0  0  0  0  0  0  0  0  0
   36.6250   31.3640   39.4980 C   0  0  0  0  0  0  0  0  0  0  0  0
   38.0520   31.6190   39.2120 C   0  0  0  0  0  0  0  0  0  0  0  0
   38.7690   30.6120   38.6270 N   0  0  0  0  0  0  0  0  0  0  0  0
   40.0580   30.6960   38.3240 C   0  0  0  0  0  0  0  0  0  0  0  0
   40.7390   31.8270   38.5930 N   0  0  0  0  0  0  0  0  0  0  0  0
   40.1150   32.8660   39.1660 C   0  0  0  0  0  0  0  0  0  0  0  0
   40.7680   34.0480   39.4580 C   0  0  0  0  0  0  0  0  0  0  0  0
   40.0580   35.0970   40.0540 C   0  0  0  0  0  0  0  0  0  0  0  0
   38.7160   34.9790   40.3560 C   0  0  0  0  0  0  0  0  0  0  0  0
   38.0800   33.7950   40.0580 C   0  0  0  0  0  0  0  0  0  0  0  0
   38.7740   32.7610   39.4730 C   0  0  0  0  0  0  0  0  0  0  0  0
   35.1901   30.9397   40.9735 H   0  0  0  0  0  0  0  0  0  0  0  0
   36.6574   31.8710   41.5219 H   0  0  0  0  0  0  0  0  0  0  0  0
   37.0208   26.6277   41.8585 H   0  0  0  0  0  0  0  0  0  0  0  0
   35.3070   28.3941   40.7758 H   0  0  0  0  0  0  0  0  0  0  0  0
   40.4315   25.1191   44.6803 H   0  0  0  0  0  0  0  0  0  0  0  0
   38.3936   26.0405   43.5908 H   0  0  0  0  0  0  0  0  0  0  0  0
   42.6653   28.4626   43.4169 H   0  0  0  0  0  0  0  0  0  0  0  0
   36.3056   30.5154   38.8753 H   0  0  0  0  0  0  0  0  0  0  0  0
   36.1098   32.3107   39.2781 H   0  0  0  0  0  0  0  0  0  0  0  0
   40.5700   29.8435   37.8538 H   0  0  0  0  0  0  0  0  0  0  0  0
   41.8366   34.1638   39.2242 H   0  0  0  0  0  0  0  0  0  0  0  0
   40.5810   36.0363   40.2869 H   0  0  0  0  0  0  0  0  0  0  0  0
   38.1684   35.8107   40.8233 H   0  0  0  0  0  0  0  0  0  0  0  0
   37.0112   33.6750   40.2888 H   0  0  0  0  0  0  0  0  0  0  0  0
  1  5  1  0
  2  9  1  0
  3  2  1  0
  4  5  1  0
  4  3  2  0
  5  6  1  0
  6  2  2  0
  8  7  2  0
  9  8  1  0
 10  9  2  0
 10 11  1  0
 11 12  2  0
 12  7  1  0
 13  1  1  0
 14 23  1  0
 14 13  1  0
 15 14  2  0
 16 17  2  0
 16 15  1  0
 17 18  1  0
 18 19  1  0
 18 23  2  0
 19 20  2  0
 20 21  1  0
 22 21  2  0
 23 22  1  0
  1 24  1  0
  1 25  1  0
  3 26  1  0
  4 27  1  0
  7 28  1  0
  8 29  1  0
 11 30  1  0
 13 31  1  0
 13 32  1  0
 16 33  1  0
 19 34  1  0
 20 35  1  0
 21 36  1  0
 22 37  1  0
M  ISO  8  24   8  25   8  26  14  27  14  28  14  29  14  30  14  31   8
M  ISO  6  32   8  33  14  34  14  35  14  36  14  37  14
M  END
>  <minimizedAffinity>  (1) 
-5.70972538

>  <minimizedRMSD>  (1) 
4.11319256

$$$$
