
     RDKit          3D

 35 37  0  0  0  0  0  0  0  0999 V2000
   42.1760   30.5780   37.6170 C   0  0  0  0  0  0  0  0  0  0  0  0
   41.2420   29.6820   37.2020 C   0  0  0  0  0  0  0  0  0  0  0  0
   40.2390   29.6570   38.1240 C   0  0  0  0  0  0  0  0  0  0  0  0
   40.6140   30.5560   39.0750 N   0  0  0  0  0  0  0  0  0  0  0  0
   41.7540   31.0890   38.7640 N   0  0  0  0  0  0  0  0  0  0  0  0
   45.0240   30.5700   35.1810 C   0  0  0  0  0  0  0  0  0  0  0  0
   43.8120   30.2240   35.7900 C   0  0  0  0  0  0  0  0  0  0  0  0
   43.4230   30.9040   36.9300 C   0  0  0  0  0  0  0  0  0  0  0  0
   44.2150   31.8850   37.4340 N   0  0  0  0  0  0  0  0  0  0  0  0
   45.3900   32.1910   36.8100 C   0  0  0  0  0  0  0  0  0  0  0  0
   45.7830   31.5400   35.7030 N   0  0  0  0  0  0  0  0  0  0  0  0
   39.7250   30.7660   40.2090 C   0  0  0  0  0  0  0  0  0  0  0  0
   39.3350   29.4750   40.9030 C   0  0  0  0  0  0  0  0  0  0  0  0
   38.5560   29.6250   42.0840 N   0  0  0  0  0  0  0  0  0  0  0  0
   38.7450   28.5340   43.0240 C   0  0  0  0  0  0  0  0  0  0  0  0
   37.3720   28.1090   43.4910 C   0  0  0  0  0  0  0  0  0  0  0  0
   36.6060   28.3320   42.1770 C   0  0  0  0  0  0  0  0  0  0  0  0
   37.1300   29.6920   41.7910 C   0  0  0  0  0  0  0  0  0  0  0  0
   41.2878   29.0813   36.2816 H   0  0  0  0  0  0  0  0  0  0  0  0
   39.3257   29.0442   38.1042 H   0  0  0  0  0  0  0  0  0  0  0  0
   45.3525   30.0439   34.2726 H   0  0  0  0  0  0  0  0  0  0  0  0
   43.1811   29.4267   35.3701 H   0  0  0  0  0  0  0  0  0  0  0  0
   46.0278   32.9868   37.2222 H   0  0  0  0  0  0  0  0  0  0  0  0
   40.2328   31.4158   40.9369 H   0  0  0  0  0  0  0  0  0  0  0  0
   38.8023   31.2242   39.8234 H   0  0  0  0  0  0  0  0  0  0  0  0
   38.7566   28.8686   40.1904 H   0  0  0  0  0  0  0  0  0  0  0  0
   40.2781   29.0066   41.2211 H   0  0  0  0  0  0  0  0  0  0  0  0
   39.2527   27.6929   42.5292 H   0  0  0  0  0  0  0  0  0  0  0  0
   39.3673   28.8517   43.8736 H   0  0  0  0  0  0  0  0  0  0  0  0
   37.3500   27.0566   43.8102 H   0  0  0  0  0  0  0  0  0  0  0  0
   36.9796   28.6424   44.3694 H   0  0  0  0  0  0  0  0  0  0  0  0
   36.8571   27.5699   41.4245 H   0  0  0  0  0  0  0  0  0  0  0  0
   35.5114   28.2666   42.2639 H   0  0  0  0  0  0  0  0  0  0  0  0
   36.6463   30.4796   42.3874 H   0  0  0  0  0  0  0  0  0  0  0  0
   36.9285   29.9366   40.7376 H   0  0  0  0  0  0  0  0  0  0  0  0
  1  5  2  0
  2  1  1  0
  2  3  2  0
  3  4  1  0
  4 12  1  0
  5  4  1  0
  6 11  2  0
  6  7  1  0
  7  8  2  0
  8  9  1  0
  8  1  1  0
 10  9  2  0
 11 10  1  0
 12 13  1  0
 13 14  1  0
 14 15  1  0
 15 16  1  0
 17 16  1  0
 18 14  1  0
 18 17  1  0
  2 19  1  0
  3 20  1  0
  6 21  1  0
  7 22  1  0
 10 23  1  0
 12 24  1  0
 12 25  1  0
 13 26  1  0
 13 27  1  0
 15 28  1  0
 15 29  1  0
 16 30  1  0
 16 31  1  0
 17 32  1  0
 17 33  1  0
 18 34  1  0
 18 35  1  0
M  ISO  8  19  14  20  14  21  14  22  14  23  14  24   8  25   8  26   8
M  ISO  8  27   8  28  13  29  13  30  13  31  13  32  13  33  13  34  13
M  ISO  1  35  13
M  END
>  <minimizedAffinity>  (1) 
-3.71217012

>  <minimizedRMSD>  (1) 
6.72356892

$$$$
