
     RDKit          3D

 36 39  0  0  1  0  0  0  0  0999 V2000
   37.2110   26.5350   40.5310 N   0  0  0  0  0  0  0  0  0  0  0  0
   37.5770   25.2270   39.9390 C   0  0  0  0  0  0  0  0  0  0  0  0
   36.6350   24.3390   40.7350 C   0  0  0  0  0  0  0  0  0  0  0  0
   36.9850   24.8290   42.1540 C   0  0  0  0  0  0  0  0  0  0  0  0
   37.6070   26.1770   41.8640 C   0  0  2  0  0  0  0  0  0  0  0  0
   35.4480   28.7190   38.3600 C   0  0  0  0  0  0  0  0  0  0  0  0
   35.7840   27.4140   38.7860 C   0  0  0  0  0  0  0  0  0  0  0  0
   36.6590   27.6580   39.8460 C   0  0  0  0  0  0  0  0  0  0  0  0
   36.8350   28.9660   40.0460 N   0  0  0  0  0  0  0  0  0  0  0  0
   36.0980   29.5910   39.1400 N   0  0  0  0  0  0  0  0  0  0  0  0
   34.9850   29.0680   35.9250 C   0  0  0  0  0  0  0  0  0  0  0  0
   34.5370   28.9580   37.2490 C   0  0  0  0  0  0  0  0  0  0  0  0
   33.1770   29.0790   37.5130 C   0  0  0  0  0  0  0  0  0  0  0  0
   32.3090   29.3030   36.4720 N   0  0  0  0  0  0  0  0  0  0  0  0
   32.7910   29.4040   35.1970 C   0  0  0  0  0  0  0  0  0  0  0  0
   34.1090   29.2870   34.9350 N   0  0  0  0  0  0  0  0  0  0  0  0
   37.3070   27.1690   42.8980 C   0  0  0  0  0  0  0  0  0  0  0  0
   36.3900   26.9880   43.9120 C   0  0  0  0  0  0  0  0  0  0  0  0
   36.4440   28.1770   44.6400 C   0  0  0  0  0  0  0  0  0  0  0  0
   37.3520   29.0150   44.0750 N   0  0  0  0  0  0  0  0  0  0  0  0
   37.8680   28.4020   43.0260 N   0  0  0  0  0  0  0  0  0  0  0  0
   37.3676   25.1888   38.8598 H   0  0  0  0  0  0  0  0  0  0  0  0
   38.6428   24.9611   39.9972 H   0  0  0  0  0  0  0  0  0  0  0  0
   35.5806   24.5250   40.4826 H   0  0  0  0  0  0  0  0  0  0  0  0
   36.7476   23.2579   40.5662 H   0  0  0  0  0  0  0  0  0  0  0  0
   36.0847   24.9280   42.7782 H   0  0  0  0  0  0  0  0  0  0  0  0
   37.6388   24.1454   42.7155 H   0  0  0  0  0  0  0  0  0  0  0  0
   38.7055   26.1329   41.9013 H   0  0  0  0  0  0  0  0  0  0  0  0
   35.4421   26.4490   38.3836 H   0  0  0  0  0  0  0  0  0  0  0  0
   37.4284   29.4041   40.7649 H   0  0  0  0  0  0  0  0  0  0  0  0
   36.0574   28.9744   35.6986 H   0  0  0  0  0  0  0  0  0  0  0  0
   32.8007   28.9963   38.5433 H   0  0  0  0  0  0  0  0  0  0  0  0
   32.0904   29.5842   34.3683 H   0  0  0  0  0  0  0  0  0  0  0  0
   35.7597   26.1070   44.1032 H   0  0  0  0  0  0  0  0  0  0  0  0
   35.8437   28.4015   45.5340 H   0  0  0  0  0  0  0  0  0  0  0  0
   37.5944   29.9598   44.4060 H   0  0  0  0  0  0  0  0  0  0  0  0
  1  5  1  0
  2  1  1  0
  2  3  1  0
  3  4  1  0
  5  4  1  0
  5 17  1  0
  6  7  1  0
  6 10  2  0
  7  8  2  0
  8  9  1  0
  8  1  1  0
 10  9  1  0
 11 12  2  0
 12 13  1  0
 12  6  1  0
 14 13  2  0
 15 14  1  0
 16 15  2  0
 16 11  1  0
 17 21  2  0
 17 18  1  0
 18 19  2  0
 20 19  1  0
 21 20  1  0
  2 22  1  0
  2 23  1  0
  3 24  1  0
  3 25  1  0
  4 26  1  0
  4 27  1  0
  5 28  1  6
  7 29  1  0
  9 30  1  0
 11 31  1  0
 13 32  1  0
 15 33  1  0
 18 34  1  0
 19 35  1  0
 20 36  1  0
M  ISO  8  22  13  23  13  24  13  25  13  26  13  27  13  28  13  29  14
M  ISO  7  30   9  31  14  32  14  33  14  34  14  35  14  36   9
M  END
>  <minimizedAffinity>  (1) 
-5.12166262

>  <minimizedRMSD>  (1) 
5.33577776

$$$$
