
     RDKit          3D

 32 34  0  0  1  0  0  0  0  0999 V2000
   35.3230   29.0440   38.6740 C   0  0  0  0  0  0  0  0  0  0  0  0
   36.4330   28.5470   39.4020 C   0  0  0  0  0  0  0  0  0  0  0  0
   35.9950   28.5990   40.7240 C   0  0  0  0  0  0  0  0  0  0  0  0
   34.7570   29.0760   40.7870 N   0  0  0  0  0  0  0  0  0  0  0  0
   34.3660   29.3380   39.5540 N   0  0  0  0  0  0  0  0  0  0  0  0
   36.8820   28.1620   41.7530 N   0  0  0  0  0  0  0  0  0  0  0  0
   36.7210   26.9270   42.5650 C   0  0  0  0  0  0  0  0  0  0  0  0
   36.5980   27.5760   43.9380 C   0  0  0  0  0  0  0  0  0  0  0  0
   37.8590   28.4330   43.8880 C   0  0  0  0  0  0  0  0  0  0  0  0
   38.0900   28.5720   42.3890 C   0  0  2  0  0  0  0  0  0  0  0  0
   38.5930   29.9340   42.1380 C   0  0  0  0  0  0  0  0  0  0  0  0
   37.4490   30.7250   41.9360 F   0  0  0  0  0  0  0  0  0  0  0  0
   39.2870   30.5290   43.1450 F   0  0  0  0  0  0  0  0  0  0  0  0
   39.2360   30.0160   40.8930 F   0  0  0  0  0  0  0  0  0  0  0  0
   36.5300   29.5620   36.5440 C   0  0  0  0  0  0  0  0  0  0  0  0
   35.3470   29.1660   37.2220 C   0  0  0  0  0  0  0  0  0  0  0  0
   34.2030   28.8900   36.5090 C   0  0  0  0  0  0  0  0  0  0  0  0
   34.2450   29.0110   35.1330 N   0  0  0  0  0  0  0  0  0  0  0  0
   35.3850   29.3910   34.5080 C   0  0  0  0  0  0  0  0  0  0  0  0
   36.5270   29.6680   35.2030 N   0  0  0  0  0  0  0  0  0  0  0  0
   37.4045   28.2036   39.0169 H   0  0  0  0  0  0  0  0  0  0  0  0
   34.2023   29.2161   41.6435 H   0  0  0  0  0  0  0  0  0  0  0  0
   35.8167   26.3645   42.2896 H   0  0  0  0  0  0  0  0  0  0  0  0
   37.5196   26.1779   42.4598 H   0  0  0  0  0  0  0  0  0  0  0  0
   35.6858   28.1837   44.0304 H   0  0  0  0  0  0  0  0  0  0  0  0
   36.5197   26.8855   44.7907 H   0  0  0  0  0  0  0  0  0  0  0  0
   37.6947   29.4132   44.3594 H   0  0  0  0  0  0  0  0  0  0  0  0
   38.7121   27.9978   44.4291 H   0  0  0  0  0  0  0  0  0  0  0  0
   38.8678   27.9270   41.9542 H   0  0  0  0  0  0  0  0  0  0  0  0
   37.4454   29.7813   37.1131 H   0  0  0  0  0  0  0  0  0  0  0  0
   33.2795   28.5812   37.0207 H   0  0  0  0  0  0  0  0  0  0  0  0
   35.3908   29.4787   33.4115 H   0  0  0  0  0  0  0  0  0  0  0  0
  1  2  1  0
  1  5  2  0
  2  3  2  0
  3  4  1  0
  3  6  1  0
  5  4  1  0
  6 10  1  0
  6  7  1  0
  7  8  1  0
  9  8  1  0
 10  9  1  0
 11 10  1  0
 11 13  1  0
 12 11  1  0
 14 11  1  0
 15 16  2  0
 16  1  1  0
 17 16  1  0
 18 17  2  0
 19 18  1  0
 19 20  2  0
 20 15  1  0
  2 21  1  0
  4 22  1  0
  7 23  1  0
  7 24  1  0
  8 25  1  0
  8 26  1  0
  9 27  1  0
  9 28  1  0
 10 29  1  6
 15 30  1  0
 17 31  1  0
 19 32  1  0
M  ISO  8  21  14  22   9  23  13  24  13  25  13  26  13  27  13  28  13
M  ISO  4  29  13  30  14  31  14  32  14
M  END
>  <minimizedAffinity>  (1) 
-5.01287651

>  <minimizedRMSD>  (1) 
6.32814407

$$$$
