
     RDKit          3D

 36 39  0  0  1  0  0  0  0  0999 V2000
   37.4190   25.7560   40.5520 N   0  0  0  0  0  0  0  0  0  0  0  0
   36.6060   24.8770   39.6820 C   0  0  0  0  0  0  0  0  0  0  0  0
   36.2610   23.7990   40.7040 C   0  0  0  0  0  0  0  0  0  0  0  0
   37.6950   23.4810   41.1850 C   0  0  0  0  0  0  0  0  0  0  0  0
   38.4200   24.7510   40.7900 C   0  0  2  0  0  0  0  0  0  0  0  0
   37.0740   29.2860   40.6770 C   0  0  0  0  0  0  0  0  0  0  0  0
   37.4430   28.1070   39.9940 C   0  0  0  0  0  0  0  0  0  0  0  0
   37.1600   27.1030   40.9200 C   0  0  0  0  0  0  0  0  0  0  0  0
   36.6710   27.6210   42.0400 N   0  0  0  0  0  0  0  0  0  0  0  0
   36.6230   28.9320   41.8860 N   0  0  0  0  0  0  0  0  0  0  0  0
   37.4400   31.7510   40.8450 C   0  0  0  0  0  0  0  0  0  0  0  0
   37.2040   30.6030   40.0740 C   0  0  0  0  0  0  0  0  0  0  0  0
   37.0890   30.7180   38.6910 C   0  0  0  0  0  0  0  0  0  0  0  0
   37.2140   31.9730   38.1260 N   0  0  0  0  0  0  0  0  0  0  0  0
   37.4430   33.0620   38.9050 C   0  0  0  0  0  0  0  0  0  0  0  0
   37.5530   32.9470   40.2490 N   0  0  0  0  0  0  0  0  0  0  0  0
   39.4160   25.1650   41.7150 C   0  0  0  0  0  0  0  0  0  0  0  0
   39.5570   25.0980   43.0470 C   0  0  0  0  0  0  0  0  0  0  0  0
   40.6400   25.5860   43.6980 C   0  0  0  0  0  0  0  0  0  0  0  0
   41.6710   26.2020   42.8260 C   0  0  0  0  0  0  0  0  0  0  0  0
   40.8990   25.9830   41.1390 S   0  0  0  0  0  0  0  0  0  0  0  0
   35.7096   25.3873   39.2999 H   0  0  0  0  0  0  0  0  0  0  0  0
   37.1011   24.5238   38.7654 H   0  0  0  0  0  0  0  0  0  0  0  0
   35.6263   24.1840   41.5158 H   0  0  0  0  0  0  0  0  0  0  0  0
   35.6818   22.9447   40.3236 H   0  0  0  0  0  0  0  0  0  0  0  0
   37.7296   23.3175   42.2722 H   0  0  0  0  0  0  0  0  0  0  0  0
   38.1236   22.5624   40.7578 H   0  0  0  0  0  0  0  0  0  0  0  0
   39.0009   24.5649   39.8746 H   0  0  0  0  0  0  0  0  0  0  0  0
   37.8537   28.0049   38.9787 H   0  0  0  0  0  0  0  0  0  0  0  0
   36.3814   27.0958   42.8774 H   0  0  0  0  0  0  0  0  0  0  0  0
   37.5323   31.6702   41.9381 H   0  0  0  0  0  0  0  0  0  0  0  0
   36.9035   29.8330   38.0646 H   0  0  0  0  0  0  0  0  0  0  0  0
   37.5405   34.0524   38.4363 H   0  0  0  0  0  0  0  0  0  0  0  0
   38.7577   24.6258   43.6370 H   0  0  0  0  0  0  0  0  0  0  0  0
   40.7473   25.5299   44.7913 H   0  0  0  0  0  0  0  0  0  0  0  0
   42.6314   26.6634   43.0995 H   0  0  0  0  0  0  0  0  0  0  0  0
  1  5  1  0
  1  8  1  0
  2  1  1  0
  2  3  1  0
  3  4  1  0
  5  4  1  0
  5 17  1  0
  6 10  2  0
  7  6  1  0
  7  8  2  0
  8  9  1  0
 10  9  1  0
 12  6  1  0
 12 11  2  0
 13 12  1  0
 14 13  2  0
 14 15  1  0
 15 16  2  0
 16 11  1  0
 17 18  2  0
 18 19  1  0
 20 19  2  0
 21 17  1  0
 21 20  1  0
  2 22  1  0
  2 23  1  0
  3 24  1  0
  3 25  1  0
  4 26  1  0
  4 27  1  0
  5 28  1  6
  7 29  1  0
  9 30  1  0
 11 31  1  0
 13 32  1  0
 15 33  1  0
 18 34  1  0
 19 35  1  0
 20 36  1  0
M  ISO  8  22  13  23  13  24  13  25  13  26  13  27  13  28  13  29  14
M  ISO  7  30   9  31  14  32  14  33  14  34  14  35  14  36  14
M  END
>  <minimizedAffinity>  (1) 
-4.6532774

>  <minimizedRMSD>  (1) 
3.0406599

$$$$
