
     RDKit          3D

 36 39  0  0  1  0  0  0  0  0999 V2000
   36.9940   26.1750   40.3780 N   0  0  0  0  0  0  0  0  0  0  0  0
   37.1550   24.8130   39.8310 C   0  0  0  0  0  0  0  0  0  0  0  0
   36.3380   24.0600   40.8760 C   0  0  0  0  0  0  0  0  0  0  0  0
   37.0210   24.5910   42.1350 C   0  0  0  0  0  0  0  0  0  0  0  0
   37.6430   25.8770   41.6350 C   0  0  2  0  0  0  0  0  0  0  0  0
   35.7700   28.6080   38.1000 C   0  0  0  0  0  0  0  0  0  0  0  0
   36.4680   27.4100   38.3690 C   0  0  0  0  0  0  0  0  0  0  0  0
   36.3800   27.3030   39.7480 C   0  0  0  0  0  0  0  0  0  0  0  0
   35.7030   28.3220   40.2670 N   0  0  0  0  0  0  0  0  0  0  0  0
   35.3440   29.0970   39.2560 N   0  0  0  0  0  0  0  0  0  0  0  0
   36.6640   29.7950   36.0810 C   0  0  0  0  0  0  0  0  0  0  0  0
   35.6130   29.1150   36.7420 C   0  0  0  0  0  0  0  0  0  0  0  0
   34.4050   28.9260   36.0880 C   0  0  0  0  0  0  0  0  0  0  0  0
   34.2720   29.4100   34.8060 N   0  0  0  0  0  0  0  0  0  0  0  0
   35.2980   30.0590   34.1930 C   0  0  0  0  0  0  0  0  0  0  0  0
   36.4820   30.2490   34.8270 N   0  0  0  0  0  0  0  0  0  0  0  0
   37.6110   26.9480   42.5820 N   0  0  0  0  0  0  0  0  0  0  0  0
   36.6630   27.1610   43.5070 C   0  0  0  0  0  0  0  0  0  0  0  0
   37.0400   28.2990   44.1920 C   0  0  0  0  0  0  0  0  0  0  0  0
   38.1940   28.7170   43.6460 N   0  0  0  0  0  0  0  0  0  0  0  0
   38.5520   27.8800   42.6460 C   0  0  0  0  0  0  0  0  0  0  0  0
   36.7283   24.7173   38.8217 H   0  0  0  0  0  0  0  0  0  0  0  0
   38.1910   24.4701   39.6925 H   0  0  0  0  0  0  0  0  0  0  0  0
   35.2720   24.3290   40.8395 H   0  0  0  0  0  0  0  0  0  0  0  0
   36.3242   22.9653   40.7692 H   0  0  0  0  0  0  0  0  0  0  0  0
   36.2909   24.7844   42.9348 H   0  0  0  0  0  0  0  0  0  0  0  0
   37.7445   23.8902   42.5770 H   0  0  0  0  0  0  0  0  0  0  0  0
   38.7249   25.7478   41.4840 H   0  0  0  0  0  0  0  0  0  0  0  0
   36.9603   26.7294   37.6588 H   0  0  0  0  0  0  0  0  0  0  0  0
   35.4973   28.4785   41.2640 H   0  0  0  0  0  0  0  0  0  0  0  0
   37.6262   29.9519   36.5905 H   0  0  0  0  0  0  0  0  0  0  0  0
   33.5732   28.4021   36.5815 H   0  0  0  0  0  0  0  0  0  0  0  0
   35.1657   30.4354   33.1679 H   0  0  0  0  0  0  0  0  0  0  0  0
   35.7649   26.5510   43.6843 H   0  0  0  0  0  0  0  0  0  0  0  0
   36.4993   28.7724   45.0248 H   0  0  0  0  0  0  0  0  0  0  0  0
   39.4470   27.9571   42.0111 H   0  0  0  0  0  0  0  0  0  0  0  0
  1  5  1  0
  2  1  1  0
  2  3  1  0
  3  4  1  0
  5  4  1  0
  5 17  1  0
  6  7  1  0
  6 10  2  0
  7  8  2  0
  8  9  1  0
  8  1  1  0
 10  9  1  0
 11 12  2  0
 12  6  1  0
 13 12  1  0
 14 13  2  0
 15 14  1  0
 15 16  2  0
 16 11  1  0
 17 21  1  0
 17 18  1  0
 18 19  2  0
 20 19  1  0
 21 20  2  0
  2 22  1  0
  2 23  1  0
  3 24  1  0
  3 25  1  0
  4 26  1  0
  4 27  1  0
  5 28  1  6
  7 29  1  0
  9 30  1  0
 11 31  1  0
 13 32  1  0
 15 33  1  0
 18 34  1  0
 19 35  1  0
 21 36  1  0
M  ISO  8  22  13  23  13  24  13  25  13  26  13  27  13  28  13  29  14
M  ISO  7  30   9  31  14  32  14  33  14  34  14  35  14  36  14
M  END
>  <minimizedAffinity>  (1) 
-4.61149359

>  <minimizedRMSD>  (1) 
5.09754992

$$$$
