
     RDKit          3D

 36 39  0  0  1  0  0  0  0  0999 V2000
   36.2660   22.9720   39.6350 N   0  0  0  0  0  0  0  0  0  0  0  0
   35.1710   23.5560   38.8440 C   0  0  0  0  0  0  0  0  0  0  0  0
   34.0570   22.6250   39.2960 C   0  0  0  0  0  0  0  0  0  0  0  0
   34.7450   21.2930   38.9590 C   0  0  0  0  0  0  0  0  0  0  0  0
   36.2110   21.6450   39.0680 C   0  0  1  0  0  0  0  0  0  0  0  0
   37.8260   25.2970   41.8350 C   0  0  0  0  0  0  0  0  0  0  0  0
   36.9120   25.0010   40.7940 C   0  0  0  0  0  0  0  0  0  0  0  0
   37.0460   23.6430   40.6210 C   0  0  0  0  0  0  0  0  0  0  0  0
   37.9600   23.1400   41.4770 N   0  0  0  0  0  0  0  0  0  0  0  0
   38.4100   24.1590   42.1930 N   0  0  0  0  0  0  0  0  0  0  0  0
   39.1880   27.3840   42.1100 C   0  0  0  0  0  0  0  0  0  0  0  0
   38.0020   26.6500   42.3370 C   0  0  0  0  0  0  0  0  0  0  0  0
   36.9790   27.2340   43.0580 C   0  0  0  0  0  0  0  0  0  0  0  0
   37.1410   28.5170   43.5350 N   0  0  0  0  0  0  0  0  0  0  0  0
   38.3050   29.1860   43.2900 C   0  0  0  0  0  0  0  0  0  0  0  0
   39.3190   28.6330   42.5870 N   0  0  0  0  0  0  0  0  0  0  0  0
   36.9670   21.4740   37.8230 C   0  0  0  0  0  0  0  0  0  0  0  0
   38.3280   21.7590   37.6680 C   0  0  0  0  0  0  0  0  0  0  0  0
   38.6460   21.4670   36.3710 C   0  0  0  0  0  0  0  0  0  0  0  0
   37.4800   21.0120   35.7610 C   0  0  0  0  0  0  0  0  0  0  0  0
   36.5660   21.0490   36.6670 O   0  0  0  0  0  0  0  0  0  0  0  0
   35.3570   23.4873   37.7620 H   0  0  0  0  0  0  0  0  0  0  0  0
   34.9899   24.6307   38.9933 H   0  0  0  0  0  0  0  0  0  0  0  0
   33.8416   22.7231   40.3702 H   0  0  0  0  0  0  0  0  0  0  0  0
   33.0718   22.7905   38.8357 H   0  0  0  0  0  0  0  0  0  0  0  0
   34.4906   20.9604   37.9418 H   0  0  0  0  0  0  0  0  0  0  0  0
   34.4429   20.4647   39.6168 H   0  0  0  0  0  0  0  0  0  0  0  0
   36.7305   20.9343   39.7275 H   0  0  0  0  0  0  0  0  0  0  0  0
   36.2512   25.6935   40.2520 H   0  0  0  0  0  0  0  0  0  0  0  0
   38.2509   22.1552   41.5577 H   0  0  0  0  0  0  0  0  0  0  0  0
   40.0103   26.9291   41.5383 H   0  0  0  0  0  0  0  0  0  0  0  0
   36.0468   26.6823   43.2492 H   0  0  0  0  0  0  0  0  0  0  0  0
   38.4221   30.2089   43.6772 H   0  0  0  0  0  0  0  0  0  0  0  0
   39.0102   22.1436   38.4404 H   0  0  0  0  0  0  0  0  0  0  0  0
   39.6342   21.5715   35.8993 H   0  0  0  0  0  0  0  0  0  0  0  0
   37.3634   20.6868   34.7167 H   0  0  0  0  0  0  0  0  0  0  0  0
  1  8  1  0
  2  3  1  0
  2  1  1  0
  4  5  1  0
  4  3  1  0
  5  1  1  0
  6 10  2  0
  6 12  1  0
  7  6  1  0
  8  7  2  0
  8  9  1  0
  9 10  1  0
 11 12  2  0
 11 16  1  0
 12 13  1  0
 13 14  2  0
 15 14  1  0
 16 15  2  0
 17  5  1  0
 18 17  2  0
 19 18  1  0
 20 19  2  0
 20 21  1  0
 21 17  1  0
  2 22  1  0
  2 23  1  0
  3 24  1  0
  3 25  1  0
  4 26  1  0
  4 27  1  0
  5 28  1  1
  7 29  1  0
  9 30  1  0
 11 31  1  0
 13 32  1  0
 15 33  1  0
 18 34  1  0
 19 35  1  0
 20 36  1  0
M  ISO  8  22  13  23  13  24  13  25  13  26  13  27  13  28  13  29  14
M  ISO  7  30   9  31  14  32  14  33  14  34  14  35  14  36  14
M  END
>  <minimizedAffinity>  (1) 
-4.20177841

>  <minimizedRMSD>  (1) 
2.94849157

$$$$
