
     RDKit          3D

 38 40  0  0  1  0  0  0  0  0999 V2000
   36.9190   26.6220   41.3100 C   0  0  0  0  0  0  0  0  0  0  0  0
   36.8720   25.8040   40.1770 C   0  0  0  0  0  0  0  0  0  0  0  0
   37.0710   24.5330   40.6610 C   0  0  0  0  0  0  0  0  0  0  0  0
   37.2310   24.5650   42.0000 N   0  0  0  0  0  0  0  0  0  0  0  0
   37.1370   25.8270   42.3720 N   0  0  0  0  0  0  0  0  0  0  0  0
   37.0860   23.4200   39.7760 N   0  0  0  0  0  0  0  0  0  0  0  0
   36.8730   23.4550   38.3180 C   0  0  0  0  0  0  0  0  0  0  0  0
   35.6510   22.5450   38.2670 C   0  0  0  0  0  0  0  0  0  0  0  0
   36.2460   21.3430   39.0260 C   0  0  0  0  0  0  0  0  0  0  0  0
   37.2850   21.9910   39.8970 C   0  0  1  0  0  0  0  0  0  0  0  0
   38.6850   21.5360   39.6120 C   0  0  0  0  0  0  0  0  0  0  0  0
   38.5820   20.2990   38.7300 C   0  0  0  0  0  0  0  0  0  0  0  0
   39.2990   22.6090   38.7110 C   0  0  0  0  0  0  0  0  0  0  0  0
   37.6200   28.9430   41.9200 C   0  0  0  0  0  0  0  0  0  0  0  0
   36.7530   28.0630   41.2520 C   0  0  0  0  0  0  0  0  0  0  0  0
   35.7010   28.5770   40.5120 C   0  0  0  0  0  0  0  0  0  0  0  0
   35.5380   29.9470   40.4540 N   0  0  0  0  0  0  0  0  0  0  0  0
   36.3980   30.7630   41.1130 C   0  0  0  0  0  0  0  0  0  0  0  0
   37.4410   30.2700   41.8480 N   0  0  0  0  0  0  0  0  0  0  0  0
   36.7117   26.1092   39.1324 H   0  0  0  0  0  0  0  0  0  0  0  0
   37.3956   23.7561   42.6161 H   0  0  0  0  0  0  0  0  0  0  0  0
   36.6543   24.4690   37.9520 H   0  0  0  0  0  0  0  0  0  0  0  0
   37.7284   23.1540   37.6953 H   0  0  0  0  0  0  0  0  0  0  0  0
   34.7857   22.9800   38.7885 H   0  0  0  0  0  0  0  0  0  0  0  0
   35.2493   22.3322   37.2653 H   0  0  0  0  0  0  0  0  0  0  0  0
   35.4799   20.8361   39.6311 H   0  0  0  0  0  0  0  0  0  0  0  0
   36.6522   20.5638   38.3643 H   0  0  0  0  0  0  0  0  0  0  0  0
   37.1563   21.6812   40.9446 H   0  0  0  0  0  0  0  0  0  0  0  0
   39.2522   21.3540   40.5367 H   0  0  0  0  0  0  0  0  0  0  0  0
   38.5074   19.4025   39.3630 H   0  0  0  0  0  0  0  0  0  0  0  0
   37.6871   20.3750   38.0949 H   0  0  0  0  0  0  0  0  0  0  0  0
   39.4772   20.2259   38.0949 H   0  0  0  0  0  0  0  0  0  0  0  0
   39.7495   23.3964   39.3332 H   0  0  0  0  0  0  0  0  0  0  0  0
   40.0740   22.1550   38.0760 H   0  0  0  0  0  0  0  0  0  0  0  0
   38.5149   23.0472   38.0760 H   0  0  0  0  0  0  0  0  0  0  0  0
   38.4561   28.5388   42.5095 H   0  0  0  0  0  0  0  0  0  0  0  0
   35.0089   27.9070   39.9809 H   0  0  0  0  0  0  0  0  0  0  0  0
   36.2526   31.8518   41.0547 H   0  0  0  0  0  0  0  0  0  0  0  0
  1  5  2  0
  2  3  2  0
  2  1  1  0
  3  4  1  0
  4  5  1  0
  6 10  1  0
  6  3  1  0
  7  6  1  0
  8  7  1  0
  8  9  1  0
  9 10  1  0
 11 10  1  0
 12 11  1  0
 13 11  1  0
 15  1  1  0
 15 14  2  0
 16 15  1  0
 17 16  2  0
 17 18  1  0
 18 19  2  0
 19 14  1  0
  2 20  1  0
  4 21  1  0
  7 22  1  0
  7 23  1  0
  8 24  1  0
  8 25  1  0
  9 26  1  0
  9 27  1  0
 10 28  1  1
 11 29  1  0
 12 30  1  0
 12 31  1  0
 12 32  1  0
 13 33  1  0
 13 34  1  0
 13 35  1  0
 14 36  1  0
 16 37  1  0
 18 38  1  0
M  ISO  8  20  14  21   9  22  13  23  13  24  13  25  13  26  13  27  13
M  ISO  8  28  13  29   8  30   8  31   8  32   8  33   8  34   8  35   8
M  ISO  3  36  14  37  14  38  14
M  END
>  <minimizedAffinity>  (1) 
-4.03861094

>  <minimizedRMSD>  (1) 
0.861444473

$$$$
