
     RDKit          3D

 30 32  0  0  1  0  0  0  0  0999 V2000
   36.9160   26.6340   41.3170 C   0  0  0  0  0  0  0  0  0  0  0  0
   36.9740   25.8160   40.1850 C   0  0  0  0  0  0  0  0  0  0  0  0
   37.1470   24.5490   40.6980 C   0  0  0  0  0  0  0  0  0  0  0  0
   37.1920   24.5810   42.0460 N   0  0  0  0  0  0  0  0  0  0  0  0
   37.0490   25.8510   42.4040 N   0  0  0  0  0  0  0  0  0  0  0  0
   37.2500   23.4430   39.8040 N   0  0  0  0  0  0  0  0  0  0  0  0
   36.4550   23.2060   38.5870 C   0  0  0  0  0  0  0  0  0  0  0  0
   35.8220   21.8730   39.0210 C   0  0  0  0  0  0  0  0  0  0  0  0
   37.1000   21.1210   39.3660 C   0  0  0  0  0  0  0  0  0  0  0  0
   38.0590   22.2410   39.7070 C   0  0  1  0  0  0  0  0  0  0  0  0
   39.4250   22.4050   38.5700 S   0  0  0  0  0  0  0  0  0  0  0  0
   37.6000   28.9650   41.9130 C   0  0  0  0  0  0  0  0  0  0  0  0
   36.7360   28.0840   41.2440 C   0  0  0  0  0  0  0  0  0  0  0  0
   35.6750   28.5720   40.4850 C   0  0  0  0  0  0  0  0  0  0  0  0
   35.5170   29.9410   40.4250 N   0  0  0  0  0  0  0  0  0  0  0  0
   36.3760   30.7700   41.0870 C   0  0  0  0  0  0  0  0  0  0  0  0
   37.4060   30.3000   41.8240 N   0  0  0  0  0  0  0  0  0  0  0  0
   36.8989   26.1147   39.1290 H   0  0  0  0  0  0  0  0  0  0  0  0
   37.3138   23.7752   42.6759 H   0  0  0  0  0  0  0  0  0  0  0  0
   37.0829   23.0996   37.6901 H   0  0  0  0  0  0  0  0  0  0  0  0
   35.7584   24.0056   38.2949 H   0  0  0  0  0  0  0  0  0  0  0  0
   35.1621   21.9916   39.8931 H   0  0  0  0  0  0  0  0  0  0  0  0
   35.1677   21.3902   38.2802 H   0  0  0  0  0  0  0  0  0  0  0  0
   36.9477   20.4527   40.2263 H   0  0  0  0  0  0  0  0  0  0  0  0
   37.4577   20.4701   38.5546 H   0  0  0  0  0  0  0  0  0  0  0  0
   38.5678   22.0263   40.6583 H   0  0  0  0  0  0  0  0  0  0  0  0
   40.5915   22.5450   39.2747 H   0  0  0  0  0  0  0  0  0  0  0  0
   38.4350   28.5692   42.5097 H   0  0  0  0  0  0  0  0  0  0  0  0
   34.9908   27.8932   39.9549 H   0  0  0  0  0  0  0  0  0  0  0  0
   36.2244   31.8573   41.0180 H   0  0  0  0  0  0  0  0  0  0  0  0
  1  5  2  0
  2  3  2  0
  2  1  1  0
  3  4  1  0
  4  5  1  0
  6  3  1  0
  7  8  1  0
  7  6  1  0
  8  9  1  0
  9 10  1  0
 10  6  1  0
 11 10  1  0
 13  1  1  0
 13 12  2  0
 14 13  1  0
 15 14  2  0
 15 16  1  0
 16 17  2  0
 17 12  1  0
  2 18  1  0
  4 19  1  0
  7 20  1  0
  7 21  1  0
  8 22  1  0
  8 23  1  0
  9 24  1  0
  9 25  1  0
 10 26  1  1
 11 27  1  0
 12 28  1  0
 14 29  1  0
 16 30  1  0
M  ISO  8  18  14  19   9  20  13  21  13  22  13  23  13  24  13  25  13
M  ISO  5  26  13  27  11  28  14  29  14  30  14
M  END
>  <minimizedAffinity>  (1) 
-3.95296812

>  <minimizedRMSD>  (1) 
0.389467686

$$$$
