REMARK  Name = 
REMARK  1 active torsions:
REMARK  status: ('A' for Active; 'I' for Inactive)
REMARK    1  A    between atoms: N_13  and  C_18
REMARK                            x       y       z     vdW  Elec       q    Type
REMARK                         _______ _______ _______ _____ _____    ______ ____
ROOT
ATOM      1  C   UNL     1      41.694  21.637  36.007  0.00  0.00    +0.000 A 
ATOM      2  C   UNL     1      41.452  21.741  37.408  0.00  0.00    +0.000 A 
ATOM      3  C   UNL     1      40.284  22.417  37.799  0.00  0.00    +0.000 A 
ATOM      4  N   UNL     1      39.457  22.929  36.854  0.00  0.00    +0.000 NA
ATOM      5  C   UNL     1      39.734  22.802  35.521  0.00  0.00    +0.000 A 
ATOM      6  N   UNL     1      40.844  22.162  35.113  0.00  0.00    +0.000 NA
ATOM      7  N   UNL     1      38.885  23.329  34.518  0.00  0.00    +0.000 N 
ATOM      8  C   UNL     1      38.478  22.562  33.485  0.00  0.00    +0.000 A 
ATOM      9  N   UNL     1      37.682  23.331  32.695  0.00  0.00    +0.000 NA
ATOM     10  C   UNL     1      37.587  24.559  33.212  0.00  0.00    +0.000 A 
ATOM     11  C   UNL     1      36.960  25.777  32.919  0.00  0.00    +0.000 A 
ATOM     12  O   UNL     1      36.264  25.789  31.871  0.00  0.00    +0.000 OA
ATOM     13  N   UNL     1      37.121  26.843  33.739  0.00  0.00    +0.000 N 
ATOM     14  C   UNL     1      37.865  26.784  34.833  0.00  0.00    +0.000 A 
ATOM     15  N   UNL     1      37.914  28.012  35.571  0.00  0.00    +0.000 N 
ATOM     16  N   UNL     1      38.487  25.626  35.153  0.00  0.00    +0.000 NA
ATOM     17  C   UNL     1      38.348  24.560  34.367  0.00  0.00    +0.000 A 
ATOM     18  H   UNL     1      38.467  28.070  36.438  0.00  0.00    +0.000 HD
ATOM     19  H   UNL     1      37.397  28.836  35.234  0.00  0.00    +0.000 HD
ENDROOT
BRANCH  13  20
ATOM     20  C   UNL     1      36.453  28.100  33.403  0.00  0.00    +0.000 A 
ATOM     21  C   UNL     1      36.836  28.858  32.281  0.00  0.00    +0.000 A 
ATOM     22  S   UNL     1      35.687  30.297  32.345  0.00  0.00    +0.000 S 
ATOM     23  C   UNL     1      34.868  29.619  33.904  0.00  0.00    +0.000 A 
ATOM     24  N   UNL     1      35.452  28.655  34.080  0.00  0.00    +0.000 NA
ATOM     25  N   UNL     1      33.773  30.144  34.716  0.00  0.00    +0.000 N 
ATOM     26  C   UNL     1      34.124  30.958  35.721  0.00  0.00    +0.000 A 
ATOM     27  C   UNL     1      33.030  31.425  36.457  0.00  0.00    +0.000 A 
ATOM     28  C   UNL     1      31.735  31.050  36.136  0.00  0.00    +0.000 A 
ATOM     29  N   UNL     1      30.636  31.524  36.882  0.00  0.00    +0.000 N 
ATOM     30  N   UNL     1      31.535  30.220  35.092  0.00  0.00    +0.000 NA
ATOM     31  C   UNL     1      32.563  29.746  34.355  0.00  0.00    +0.000 A 
ATOM     32  O   UNL     1      32.371  28.971  33.381  0.00  0.00    +0.000 OA
ATOM     33  H   UNL     1      29.680  31.236  36.630  0.00  0.00    +0.000 HD
ATOM     34  H   UNL     1      30.790  32.159  37.679  0.00  0.00    +0.000 HD
ENDBRANCH  13  20
TORSDOF 1
