REMARK  Name = 
REMARK  4 active torsions:
REMARK  status: ('A' for Active; 'I' for Inactive)
REMARK    1  A    between atoms: N_1  and  C_9
REMARK    2  A    between atoms: C_5  and  C_17
REMARK    3  A    between atoms: C_6  and  C_15
REMARK    4  A    between atoms: N_20  and  C_22
REMARK                            x       y       z     vdW  Elec       q    Type
REMARK                         _______ _______ _______ _____ _____    ______ ____
ROOT
ATOM      1  N   UNL     1      36.133  20.618  32.312  0.00  0.00    +0.000 N 
ATOM      2  C   UNL     1      36.219  19.203  31.868  0.00  0.00    +0.000 C 
ATOM      3  C   UNL     1      36.486  19.213  30.413  0.00  0.00    +0.000 C 
ATOM      4  C   UNL     1      36.718  20.690  30.143  0.00  0.00    +0.000 C 
ATOM      5  C   UNL     1      35.734  21.317  31.088  0.00  0.00    +0.000 C 
ENDROOT
BRANCH   1   9
ATOM      6  C   UNL     1      37.204  21.798  35.484  0.00  0.00    +0.000 A 
ATOM      7  C   UNL     1      36.047  21.092  35.835  0.00  0.00    +0.000 A 
ATOM      8  C   UNL     1      35.509  20.561  34.653  0.00  0.00    +0.000 A 
ATOM      9  C   UNL     1      36.407  21.000  33.660  0.00  0.00    +0.000 A 
ATOM     10  O   UNL     1      37.343  21.694  34.183  0.00  0.00    +0.000 OA
BRANCH   6  15
ATOM     11  C   UNL     1      40.020  22.776  37.576  0.00  0.00    +0.000 A 
ATOM     12  C   UNL     1      39.449  23.610  38.530  0.00  0.00    +0.000 A 
ATOM     13  C   UNL     1      38.060  23.846  38.453  0.00  0.00    +0.000 A 
ATOM     14  N   UNL     1      37.332  23.255  37.461  0.00  0.00    +0.000 NA
ATOM     15  C   UNL     1      37.944  22.445  36.551  0.00  0.00    +0.000 A 
ATOM     16  N   UNL     1      39.264  22.218  36.620  0.00  0.00    +0.000 NA
ENDBRANCH   6  15
ENDBRANCH   1   9
BRANCH   5  17
ATOM     17  C   UNL     1      36.061  22.733  31.270  0.00  0.00    +0.000 A 
ATOM     18  C   UNL     1      35.215  23.780  31.389  0.00  0.00    +0.000 A 
ATOM     19  C   UNL     1      36.001  24.934  31.521  0.00  0.00    +0.000 A 
ATOM     20  N   UNL     1      37.304  24.513  31.473  0.00  0.00    +0.000 N 
ATOM     21  N   UNL     1      37.338  23.186  31.323  0.00  0.00    +0.000 NA
BRANCH  20  22
ATOM     22  C   UNL     1      38.364  25.461  31.582  0.00  0.00    +0.000 A 
ATOM     23  C   UNL     1      38.742  25.986  30.344  0.00  0.00    +0.000 A 
ATOM     24  C   UNL     1      39.758  26.917  30.285  0.00  0.00    +0.000 A 
ATOM     25  C   UNL     1      40.411  27.339  31.439  0.00  0.00    +0.000 A 
ATOM     26  C   UNL     1      40.010  26.797  32.645  0.00  0.00    +0.000 A 
ATOM     27  C   UNL     1      40.616  27.173  33.825  0.00  0.00    +0.000 A 
ATOM     28  C   UNL     1      40.192  26.612  35.024  0.00  0.00    +0.000 A 
ATOM     29  C   UNL     1      39.166  25.671  35.080  0.00  0.00    +0.000 A 
ATOM     30  C   UNL     1      38.543  25.280  33.894  0.00  0.00    +0.000 A 
ATOM     31  C   UNL     1      38.999  25.866  32.738  0.00  0.00    +0.000 A 
ENDBRANCH  20  22
ENDBRANCH   5  17
TORSDOF 4
