REMARK  Name = 
REMARK  4 active torsions:
REMARK  status: ('A' for Active; 'I' for Inactive)
REMARK    1  A    between atoms: C_1  and  C_17
REMARK    2  A    between atoms: C_2  and  C_13
REMARK    3  A    between atoms: C_12  and  C_21
REMARK    4  A    between atoms: C_21  and  C_22
REMARK                            x       y       z     vdW  Elec       q    Type
REMARK                         _______ _______ _______ _____ _____    ______ ____
ROOT
ATOM      1  C   UNL     1      38.117  23.929  35.707  0.00  0.00    +0.000 A 
ATOM      2  C   UNL     1      38.131  24.614  36.917  0.00  0.00    +0.000 A 
ATOM      3  C   UNL     1      38.060  26.017  36.874  0.00  0.00    +0.000 A 
ATOM      4  N   UNL     1      37.979  26.624  35.668  0.00  0.00    +0.000 NA
ATOM      5  C   UNL     1      37.966  25.948  34.528  0.00  0.00    +0.000 A 
ATOM      6  N   UNL     1      38.033  24.624  34.542  0.00  0.00    +0.000 NA
ATOM      7  N   UNL     1      37.871  26.685  33.310  0.00  0.00    +0.000 N 
ATOM      8  C   UNL     1      38.474  26.146  32.134  0.00  0.00    +0.000 C 
ATOM      9  C   UNL     1      38.739  27.327  31.226  0.00  0.00    +0.000 C 
ATOM     10  C   UNL     1      37.520  28.094  30.869  0.00  0.00    +0.000 C 
ATOM     11  C   UNL     1      36.525  28.263  31.968  0.00  0.00    +0.000 C 
ATOM     12  C   UNL     1      37.168  27.943  33.307  0.00  0.00    +0.000 C 
ENDROOT
BRANCH   2  13
ATOM     13  C   UNL     1      38.219  23.925  38.218  0.00  0.00    +0.000 C 
ATOM     14  F   UNL     1      39.462  23.366  38.308  0.00  0.00    +0.000 F 
ATOM     15  F   UNL     1      37.293  22.953  38.394  0.00  0.00    +0.000 F 
ATOM     16  F   UNL     1      38.163  24.854  39.265  0.00  0.00    +0.000 F 
ENDBRANCH   2  13
BRANCH   1  17
ATOM     17  C   UNL     1      38.188  22.459  35.509  0.00  0.00    +0.000 C 
ATOM     18  F   UNL     1      38.291  22.134  34.164  0.00  0.00    +0.000 F 
ATOM     19  F   UNL     1      39.275  21.928  36.195  0.00  0.00    +0.000 F 
ATOM     20  F   UNL     1      37.128  21.785  36.015  0.00  0.00    +0.000 F 
ENDBRANCH   1  17
BRANCH  12  21
ATOM     21  C   UNL     1      36.095  28.041  34.339  0.00  0.00    +0.000 C 
BRANCH  21  22
ATOM     22  C   UNL     1      35.197  29.196  33.915  0.00  0.00    +0.000 A 
ATOM     23  N   UNL     1      34.279  29.013  32.956  0.00  0.00    +0.000 NA
ATOM     24  C   UNL     1      33.455  29.967  32.490  0.00  0.00    +0.000 A 
ATOM     25  N   UNL     1      33.539  31.203  33.009  0.00  0.00    +0.000 NA
ATOM     26  C   UNL     1      34.440  31.458  33.979  0.00  0.00    +0.000 A 
ATOM     27  C   UNL     1      34.508  32.732  34.504  0.00  0.00    +0.000 A 
ATOM     28  C   UNL     1      35.423  33.005  35.503  0.00  0.00    +0.000 A 
ATOM     29  C   UNL     1      36.259  31.984  35.960  0.00  0.00    +0.000 A 
ATOM     30  C   UNL     1      36.192  30.708  35.433  0.00  0.00    +0.000 A 
ATOM     31  C   UNL     1      35.286  30.462  34.451  0.00  0.00    +0.000 A 
ENDBRANCH  21  22
ENDBRANCH  12  21
TORSDOF 4
