REMARK  Name = 
REMARK  3 active torsions:
REMARK  status: ('A' for Active; 'I' for Inactive)
REMARK    1  A    between atoms: C_1  and  N_33
REMARK    2  A    between atoms: C_9  and  C_27
REMARK    3  A    between atoms: C_11  and  C_12
REMARK                            x       y       z     vdW  Elec       q    Type
REMARK                         _______ _______ _______ _____ _____    ______ ____
ROOT
ATOM      1  C   UNL     1      39.052  23.513  36.106  0.00  0.00    +0.000 A 
ATOM      2  C   UNL     1      40.459  23.645  35.983  0.00  0.00    +0.000 A 
ATOM      3  C   UNL     1      40.926  24.718  35.268  0.00  0.00    +0.000 A 
ATOM      4  N   UNL     1      40.002  25.537  34.756  0.00  0.00    +0.000 NA
ATOM      5  C   UNL     1      38.698  25.435  34.855  0.00  0.00    +0.000 A 
ATOM      6  N   UNL     1      38.223  24.392  35.550  0.00  0.00    +0.000 NA
ATOM      7  N   UNL     1      37.956  26.443  34.223  0.00  0.00    +0.000 N 
ATOM      8  C   UNL     1      37.252  27.301  35.004  0.00  0.00    +0.000 A 
ATOM      9  C   UNL     1      36.600  28.207  34.185  0.00  0.00    +0.000 A 
ATOM     10  N   UNL     1      36.919  27.882  32.933  0.00  0.00    +0.000 NA
ATOM     11  C   UNL     1      37.760  26.787  32.950  0.00  0.00    +0.000 A 
ENDROOT
BRANCH  11  12
ATOM     12  C   UNL     1      38.279  26.166  31.778  0.00  0.00    +0.000 A 
ATOM     13  C   UNL     1      38.727  26.910  30.668  0.00  0.00    +0.000 A 
ATOM     14  N   UNL     1      39.149  26.050  29.685  0.00  0.00    +0.000 NA
ATOM     15  C   UNL     1      38.956  24.761  30.198  0.00  0.00    +0.000 A 
ATOM     16  N   UNL     1      38.453  24.917  31.413  0.00  0.00    +0.000 N 
ATOM     17  C   UNL     1      38.366  23.604  31.884  0.00  0.00    +0.000 A 
ATOM     18  N   UNL     1      39.515  23.186  32.429  0.00  0.00    +0.000 NA
ATOM     19  C   UNL     1      39.613  21.907  32.880  0.00  0.00    +0.000 A 
ATOM     20  N   UNL     1      38.623  21.019  32.820  0.00  0.00    +0.000 NA
ATOM     21  C   UNL     1      37.445  21.399  32.278  0.00  0.00    +0.000 A 
ATOM     22  C   UNL     1      36.350  20.590  32.145  0.00  0.00    +0.000 A 
ATOM     23  C   UNL     1      35.194  21.023  31.584  0.00  0.00    +0.000 A 
ATOM     24  C   UNL     1      35.108  22.335  31.126  0.00  0.00    +0.000 A 
ATOM     25  C   UNL     1      36.172  23.198  31.230  0.00  0.00    +0.000 A 
ATOM     26  C   UNL     1      37.313  22.710  31.804  0.00  0.00    +0.000 A 
ENDBRANCH  11  12
BRANCH   9  27
ATOM     27  C   UNL     1      35.727  29.312  34.633  0.00  0.00    +0.000 A 
ATOM     28  C   UNL     1      36.252  30.315  35.402  0.00  0.00    +0.000 A 
ATOM     29  C   UNL     1      35.467  31.350  35.830  0.00  0.00    +0.000 A 
ATOM     30  C   UNL     1      34.138  31.351  35.465  0.00  0.00    +0.000 A 
ATOM     31  C   UNL     1      33.598  30.329  34.684  0.00  0.00    +0.000 A 
ATOM     32  C   UNL     1      34.402  29.284  34.253  0.00  0.00    +0.000 A 
ENDBRANCH   9  27
BRANCH   1  33
ATOM     33  N   UNL     1      38.532  22.400  36.861  0.00  0.00    +0.000 N 
ATOM     34  H   UNL     1      37.514  22.280  36.967  0.00  0.00    +0.000 HD
ATOM     35  H   UNL     1      39.178  21.725  37.295  0.00  0.00    +0.000 HD
ENDBRANCH   1  33
TORSDOF 3
