REMARK  Name = 
REMARK  1 active torsions:
REMARK  status: ('A' for Active; 'I' for Inactive)
REMARK    1  A    between atoms: N_13  and  C_18
REMARK                            x       y       z     vdW  Elec       q    Type
REMARK                         _______ _______ _______ _____ _____    ______ ____
ROOT
ATOM      1  C   UNL     1      40.947  22.467  36.356  0.00  0.00    +0.000 A 
ATOM      2  C   UNL     1      40.432  22.575  37.674  0.00  0.00    +0.000 A 
ATOM      3  C   UNL     1      39.166  23.163  37.811  0.00  0.00    +0.000 A 
ATOM      4  N   UNL     1      38.491  23.597  36.716  0.00  0.00    +0.000 NA
ATOM      5  C   UNL     1      39.030  23.470  35.464  0.00  0.00    +0.000 A 
ATOM      6  N   UNL     1      40.247  22.908  35.290  0.00  0.00    +0.000 NA
ATOM      7  N   UNL     1      38.351  23.911  34.312  0.00  0.00    +0.000 N 
ATOM      8  C   UNL     1      38.205  23.088  33.238  0.00  0.00    +0.000 A 
ATOM      9  N   UNL     1      37.515  23.779  32.288  0.00  0.00    +0.000 NA
ATOM     10  C   UNL     1      37.230  25.001  32.736  0.00  0.00    +0.000 A 
ATOM     11  C   UNL     1      36.577  26.156  32.286  0.00  0.00    +0.000 A 
ATOM     12  O   UNL     1      36.093  26.097  31.128  0.00  0.00    +0.000 OA
ATOM     13  N   UNL     1      36.499  27.241  33.086  0.00  0.00    +0.000 N 
ATOM     14  C   UNL     1      37.023  27.270  34.307  0.00  0.00    +0.000 A 
ATOM     15  N   UNL     1      36.840  28.504  35.003  0.00  0.00    +0.000 N 
ATOM     16  N   UNL     1      37.663  26.172  34.778  0.00  0.00    +0.000 NA
ATOM     17  C   UNL     1      37.758  25.083  34.012  0.00  0.00    +0.000 A 
ATOM     18  H   UNL     1      37.213  28.618  35.956  0.00  0.00    +0.000 HD
ATOM     19  H   UNL     1      36.335  29.280  34.551  0.00  0.00    +0.000 HD
ENDROOT
BRANCH  13  20
ATOM     20  C   UNL     1      35.812  28.437  32.599  0.00  0.00    +0.000 A 
ATOM     21  C   UNL     1      36.313  29.181  31.509  0.00  0.00    +0.000 A 
ATOM     22  S   UNL     1      35.081  30.542  31.335  0.00  0.00    +0.000 S 
ATOM     23  C   UNL     1      34.086  29.864  32.786  0.00  0.00    +0.000 A 
ATOM     24  N   UNL     1      34.699  28.955  33.079  0.00  0.00    +0.000 NA
ATOM     25  N   UNL     1      32.835  30.322  33.436  0.00  0.00    +0.000 N 
ATOM     26  C   UNL     1      31.558  30.258  33.001  0.00  0.00    +0.000 A 
ATOM     27  N   UNL     1      30.857  30.812  33.979  0.00  0.00    +0.000 NA
ATOM     28  C   UNL     1      31.650  31.209  34.990  0.00  0.00    +0.000 A 
ATOM     29  C   UNL     1      31.436  31.822  36.208  0.00  0.00    +0.000 A 
ATOM     30  O   UNL     1      30.279  32.132  36.575  0.00  0.00    +0.000 OA
ATOM     31  N   UNL     1      32.440  32.119  37.061  0.00  0.00    +0.000 N 
ATOM     32  C   UNL     1      33.693  31.795  36.685  0.00  0.00    +0.000 A 
ATOM     33  N   UNL     1      34.879  32.018  37.428  0.00  0.00    +0.000 N 
ATOM     34  N   UNL     1      33.919  31.195  35.500  0.00  0.00    +0.000 NA
ATOM     35  C   UNL     1      32.946  30.890  34.636  0.00  0.00    +0.000 A 
ATOM     36  H   UNL     1      32.255  32.576  37.965  0.00  0.00    +0.000 HD
ATOM     37  H   UNL     1      35.790  31.729  37.043  0.00  0.00    +0.000 HD
ATOM     38  H   UNL     1      34.830  32.469  38.353  0.00  0.00    +0.000 HD
ENDBRANCH  13  20
TORSDOF 1
