REMARK  Name = 
REMARK  2 active torsions:
REMARK  status: ('A' for Active; 'I' for Inactive)
REMARK    1  A    between atoms: C_2  and  N_16
REMARK    2  A    between atoms: C_20  and  N_25
REMARK                            x       y       z     vdW  Elec       q    Type
REMARK                         _______ _______ _______ _____ _____    ______ ____
ROOT
ATOM      1  C   UNL     1      37.700  27.144  35.314  0.00  0.00    +0.000 A 
ATOM      2  C   UNL     1      37.872  25.991  34.518  0.00  0.00    +0.000 A 
ATOM      3  C   UNL     1      37.264  25.977  33.275  0.00  0.00    +0.000 A 
ATOM      4  N   UNL     1      36.531  27.058  32.867  0.00  0.00    +0.000 NA
ATOM      5  C   UNL     1      36.392  28.141  33.660  0.00  0.00    +0.000 A 
ATOM      6  N   UNL     1      36.971  28.173  34.860  0.00  0.00    +0.000 NA
ATOM      7  N   UNL     1      35.645  29.295  33.296  0.00  0.00    +0.000 N 
ATOM      8  C   UNL     1      34.981  29.599  32.182  0.00  0.00    +0.000 A 
ATOM      9  N   UNL     1      34.425  30.830  32.319  0.00  0.00    +0.000 NA
ATOM     10  C   UNL     1      34.745  31.304  33.532  0.00  0.00    +0.000 A 
ATOM     11  C   UNL     1      34.458  32.478  34.193  0.00  0.00    +0.000 A 
ATOM     12  N   UNL     1      34.925  32.700  35.453  0.00  0.00    +0.000 NA
ATOM     13  C   UNL     1      35.669  31.756  36.038  0.00  0.00    +0.000 A 
ATOM     14  N   UNL     1      35.967  30.597  35.418  0.00  0.00    +0.000 NA
ATOM     15  C   UNL     1      35.524  30.326  34.160  0.00  0.00    +0.000 A 
ATOM     16  N   UNL     1      33.665  33.502  33.587  0.00  0.00    +0.000 N 
ATOM     17  H   UNL     1      33.465  34.371  34.102  0.00  0.00    +0.000 HD
ATOM     18  H   UNL     1      33.294  33.371  32.635  0.00  0.00    +0.000 HD
ENDROOT
BRANCH   2  19
ATOM     19  N   UNL     1      38.652  24.934  35.045  0.00  0.00    +0.000 N 
ATOM     20  C   UNL     1      39.579  24.216  34.350  0.00  0.00    +0.000 A 
ATOM     21  N   UNL     1      40.128  23.288  35.176  0.00  0.00    +0.000 NA
ATOM     22  C   UNL     1      39.556  23.418  36.377  0.00  0.00    +0.000 A 
ATOM     23  C   UNL     1      39.675  22.796  37.592  0.00  0.00    +0.000 A 
ATOM     24  N   UNL     1      38.943  23.138  38.697  0.00  0.00    +0.000 NA
ATOM     25  C   UNL     1      38.042  24.157  38.582  0.00  0.00    +0.000 A 
ATOM     26  N   UNL     1      37.902  24.786  37.405  0.00  0.00    +0.000 NA
ATOM     27  C   UNL     1      38.629  24.439  36.327  0.00  0.00    +0.000 A 
BRANCH  23  28
ATOM     28  N   UNL     1      40.594  21.730  37.772  0.00  0.00    +0.000 N 
ATOM     29  H   UNL     1      40.675  21.270  38.690  0.00  0.00    +0.000 HD
ATOM     30  H   UNL     1      41.180  21.417  36.985  0.00  0.00    +0.000 HD
ENDBRANCH  23  28
ENDBRANCH   2  19
TORSDOF 2
