REMARK  Name = 
REMARK  3 active torsions:
REMARK  status: ('A' for Active; 'I' for Inactive)
REMARK    1  A    between atoms: C_2  and  C_15
REMARK    2  A    between atoms: C_9  and  C_25
REMARK    3  A    between atoms: C_25  and  N_26
REMARK                            x       y       z     vdW  Elec       q    Type
REMARK                         _______ _______ _______ _____ _____    ______ ____
ROOT
ATOM      1  C   UNL     1      43.011  23.590  34.198  0.00  0.00    +0.000 A 
ATOM      2  C   UNL     1      43.101  23.488  35.596  0.00  0.00    +0.000 A 
ATOM      3  C   UNL     1      41.907  23.438  36.315  0.00  0.00    +0.000 A 
ATOM      4  N   UNL     1      40.746  23.489  35.654  0.00  0.00    +0.000 NA
ATOM      5  C   UNL     1      40.667  23.587  34.309  0.00  0.00    +0.000 A 
ATOM      6  N   UNL     1      41.787  23.636  33.603  0.00  0.00    +0.000 NA
ATOM      7  N   UNL     1      39.451  23.639  33.593  0.00  0.00    +0.000 N 
ATOM      8  C   UNL     1      39.161  24.624  32.682  0.00  0.00    +0.000 A 
ATOM      9  C   UNL     1      37.942  24.570  32.042  0.00  0.00    +0.000 A 
ATOM     10  C   UNL     1      37.075  23.546  32.338  0.00  0.00    +0.000 A 
ATOM     11  O   UNL     1      35.958  23.493  31.756  0.00  0.00    +0.000 OA
ATOM     12  N   UNL     1      37.333  22.587  33.214  0.00  0.00    +0.000 N 
ATOM     13  C   UNL     1      38.544  22.668  33.827  0.00  0.00    +0.000 A 
ATOM     14  O   UNL     1      38.824  21.772  34.665  0.00  0.00    +0.000 OA
ATOM     15  H   UNL     1      36.663  21.832  33.417  0.00  0.00    +0.000 HD
ENDROOT
BRANCH   2  16
ATOM     16  C   UNL     1      44.475  23.453  36.035  0.00  0.00    +0.000 A 
ATOM     17  C   UNL     1      45.307  22.512  35.428  0.00  0.00    +0.000 A 
ATOM     18  C   UNL     1      46.636  22.368  35.740  0.00  0.00    +0.000 A 
ATOM     19  C   UNL     1      47.217  23.158  36.683  0.00  0.00    +0.000 A 
ATOM     20  C   UNL     1      46.424  24.090  37.293  0.00  0.00    +0.000 A 
ATOM     21  C   UNL     1      46.916  24.956  38.274  0.00  0.00    +0.000 A 
ATOM     22  C   UNL     1      46.137  25.901  38.900  0.00  0.00    +0.000 A 
ATOM     23  C   UNL     1      44.807  26.010  38.554  0.00  0.00    +0.000 A 
ATOM     24  C   UNL     1      44.295  25.173  37.595  0.00  0.00    +0.000 A 
ATOM     25  C   UNL     1      45.096  24.240  36.988  0.00  0.00    +0.000 A 
ENDBRANCH   2  16
BRANCH   9  26
ATOM     26  C   UNL     1      37.587  25.603  31.065  0.00  0.00    +0.000 C 
BRANCH  26  27
ATOM     27  N   UNL     1      37.138  26.833  31.686  0.00  0.00    +0.000 N 
ATOM     28  C   UNL     1      36.675  27.218  32.887  0.00  0.00    +0.000 A 
ATOM     29  N   UNL     1      36.412  28.536  32.861  0.00  0.00    +0.000 NA
ATOM     30  C   UNL     1      36.689  29.040  31.665  0.00  0.00    +0.000 A 
ATOM     31  C   UNL     1      36.608  30.297  31.108  0.00  0.00    +0.000 A 
ATOM     32  O   UNL     1      36.197  31.275  31.765  0.00  0.00    +0.000 OA
ATOM     33  N   UNL     1      36.963  30.539  29.838  0.00  0.00    +0.000 N 
ATOM     34  C   UNL     1      37.407  29.498  29.121  0.00  0.00    +0.000 A 
ATOM     35  N   UNL     1      37.846  29.460  27.768  0.00  0.00    +0.000 N 
ATOM     36  N   UNL     1      37.492  28.276  29.638  0.00  0.00    +0.000 NA
ATOM     37  C   UNL     1      37.147  27.965  30.920  0.00  0.00    +0.000 A 
ATOM     38  H   UNL     1      36.897  31.483  29.432  0.00  0.00    +0.000 HD
ATOM     39  H   UNL     1      37.850  30.322  27.203  0.00  0.00    +0.000 HD
ATOM     40  H   UNL     1      38.160  28.571  27.353  0.00  0.00    +0.000 HD
ENDBRANCH  26  27
ENDBRANCH   9  26
TORSDOF 3
