REMARK  Name = 
REMARK  2 active torsions:
REMARK  status: ('A' for Active; 'I' for Inactive)
REMARK    1  A    between atoms: C_5  and  C_7
REMARK    2  A    between atoms: C_19  and  C_27
REMARK                            x       y       z     vdW  Elec       q    Type
REMARK                         _______ _______ _______ _____ _____    ______ ____
ROOT
ATOM      1  C   UNL     1      38.768  23.272  38.049  0.00  0.00    +0.000 A 
ATOM      2  C   UNL     1      38.029  23.443  36.867  0.00  0.00    +0.000 A 
ATOM      3  C   UNL     1      38.677  23.129  35.665  0.00  0.00    +0.000 A 
ATOM      4  N   UNL     1      39.930  22.700  35.779  0.00  0.00    +0.000 NA
ATOM      5  C   UNL     1      40.649  22.533  36.908  0.00  0.00    +0.000 A 
ATOM      6  N   UNL     1      40.018  22.836  38.048  0.00  0.00    +0.000 NA
ATOM      7  N   UNL     1      38.024  23.274  34.408  0.00  0.00    +0.000 N 
ATOM      8  C   UNL     1      37.473  22.242  33.782  0.00  0.00    +0.000 A 
ATOM      9  C   UNL     1      36.944  22.757  32.625  0.00  0.00    +0.000 A 
ATOM     10  N   UNL     1      37.186  24.074  32.579  0.00  0.00    +0.000 NA
ATOM     11  C   UNL     1      37.868  24.399  33.706  0.00  0.00    +0.000 A 
ATOM     12  N   UNL     1      38.298  25.725  33.971  0.00  0.00    +0.000 N 
ATOM     13  C   UNL     1      37.597  26.581  34.942  0.00  0.00    +0.000 C 
ATOM     14  C   UNL     1      38.807  26.934  35.822  0.00  0.00    +0.000 C 
ATOM     15  C   UNL     1      40.005  26.935  34.880  0.00  0.00    +0.000 C 
ATOM     16  C   UNL     1      39.337  26.641  33.541  0.00  0.00    +0.000 C 
ENDROOT
BRANCH   5  17
ATOM     17  C   UNL     1      41.994  22.045  36.648  0.00  0.00    +0.000 A 
ATOM     18  C   UNL     1      42.270  20.697  36.632  0.00  0.00    +0.000 A 
ATOM     19  C   UNL     1      43.521  20.168  36.395  0.00  0.00    +0.000 A 
ATOM     20  C   UNL     1      44.593  21.014  36.154  0.00  0.00    +0.000 A 
ATOM     21  C   UNL     1      44.363  22.358  36.159  0.00  0.00    +0.000 A 
ATOM     22  C   UNL     1      45.430  23.184  35.919  0.00  0.00    +0.000 A 
ATOM     23  C   UNL     1      45.276  24.550  35.908  0.00  0.00    +0.000 A 
ATOM     24  C   UNL     1      43.990  25.057  36.153  0.00  0.00    +0.000 A 
ATOM     25  C   UNL     1      42.950  24.171  36.390  0.00  0.00    +0.000 A 
ATOM     26  C   UNL     1      43.085  22.830  36.403  0.00  0.00    +0.000 A 
ENDBRANCH   5  17
BRANCH   9  27
ATOM     27  C   UNL     1      36.209  22.054  31.539  0.00  0.00    +0.000 C 
ATOM     28  F   UNL     1      35.341  21.101  32.013  0.00  0.00    +0.000 F 
ATOM     29  F   UNL     1      37.087  21.419  30.672  0.00  0.00    +0.000 F 
ATOM     30  F   UNL     1      35.538  22.998  30.742  0.00  0.00    +0.000 F 
ENDBRANCH   9  27
TORSDOF 2
