REMARK  Name = 
REMARK  8 active torsions:
REMARK  status: ('A' for Active; 'I' for Inactive)
REMARK    1  A    between atoms: C_1  and  C_6
REMARK    2  A    between atoms: C_1  and  C_9
REMARK    3  A    between atoms: C_1  and  C_10
REMARK    4  A    between atoms: C_1  and  C_25
REMARK    5  A    between atoms: C_3  and  N_8
REMARK    6  A    between atoms: C_10  and  N_11
REMARK    7  A    between atoms: C_13  and  C_19
REMARK    8  A    between atoms: C_25  and  N_26
REMARK                            x       y       z     vdW  Elec       q    Type
REMARK                         _______ _______ _______ _____ _____    ______ ____
ROOT
ATOM      1  C   UNL     1      38.673  26.017  34.784  0.00  0.00    +0.000 C 
ATOM      2  C   UNL     1      39.086  27.388  35.212  0.00  0.00    +0.000 C 
ENDROOT
BRANCH   1   7
ATOM      3  C   UNL     1      38.977  23.057  36.970  0.00  0.00    +0.000 A 
ATOM      4  C   UNL     1      38.393  23.453  38.153  0.00  0.00    +0.000 A 
ATOM      5  C   UNL     1      37.896  24.739  38.185  0.00  0.00    +0.000 A 
ATOM      6  N   UNL     1      37.998  25.534  37.088  0.00  0.00    +0.000 NA
ATOM      7  C   UNL     1      38.580  25.108  35.943  0.00  0.00    +0.000 A 
ATOM      8  N   UNL     1      39.072  23.843  35.904  0.00  0.00    +0.000 NA
BRANCH   4   9
ATOM      9  N   UNL     1      38.357  22.525  39.221  0.00  0.00    +0.000 N 
ATOM     10  H   UNL     1      37.927  22.790  40.119  0.00  0.00    +0.000 HD
ATOM     11  H   UNL     1      38.760  21.585  39.100  0.00  0.00    +0.000 HD
ENDBRANCH   4   9
ENDBRANCH   1   7
BRANCH   1  12
ATOM     12  C   UNL     1      37.308  26.030  34.143  0.00  0.00    +0.000 C 
BRANCH  12  13
ATOM     13  N   UNL     1      36.902  27.274  33.557  0.00  0.00    +0.000 N 
ATOM     14  C   UNL     1      36.297  28.143  34.398  0.00  0.00    +0.000 A 
ATOM     15  C   UNL     1      35.849  29.387  33.985  0.00  0.00    +0.000 A 
ATOM     16  C   UNL     1      36.040  29.729  32.663  0.00  0.00    +0.000 A 
ATOM     17  N   UNL     1      35.571  31.009  32.265  0.00  0.00    +0.000 N 
ATOM     18  N   UNL     1      36.644  28.859  31.831  0.00  0.00    +0.000 NA
ATOM     19  C   UNL     1      37.053  27.672  32.293  0.00  0.00    +0.000 A 
ATOM     20  O   UNL     1      37.608  26.867  31.524  0.00  0.00    +0.000 OA
ATOM     21  H   UNL     1      35.686  31.319  31.290  0.00  0.00    +0.000 HD
ATOM     22  H   UNL     1      35.116  31.627  32.952  0.00  0.00    +0.000 HD
BRANCH  15  23
ATOM     23  C   UNL     1      35.194  30.288  34.944  0.00  0.00    +0.000 A 
ATOM     24  C   UNL     1      35.912  31.188  35.685  0.00  0.00    +0.000 A 
ATOM     25  C   UNL     1      35.293  32.034  36.586  0.00  0.00    +0.000 A 
ATOM     26  C   UNL     1      33.945  31.927  36.695  0.00  0.00    +0.000 A 
ATOM     27  C   UNL     1      33.179  31.046  35.981  0.00  0.00    +0.000 A 
ATOM     28  C   UNL     1      33.818  30.199  35.076  0.00  0.00    +0.000 A 
ENDBRANCH  15  23
ENDBRANCH  12  13
ENDBRANCH   1  12
BRANCH   1  29
ATOM     29  C   UNL     1      39.675  25.484  33.767  0.00  0.00    +0.000 C 
BRANCH  29  30
ATOM     30  N   UNL     1      40.974  26.043  33.774  0.00  0.00    +0.000 N 
ATOM     31  C   UNL     1      41.045  27.061  32.847  0.00  0.00    +0.000 A 
ATOM     32  N   UNL     1      42.276  27.661  32.847  0.00  0.00    +0.000 NA
ATOM     33  C   UNL     1      43.060  27.072  33.762  0.00  0.00    +0.000 A 
ATOM     34  C   UNL     1      44.307  27.026  34.350  0.00  0.00    +0.000 A 
ATOM     35  N   UNL     1      44.689  26.166  35.306  0.00  0.00    +0.000 NA
ATOM     36  C   UNL     1      43.800  25.261  35.748  0.00  0.00    +0.000 A 
ATOM     37  N   UNL     1      42.573  25.261  35.213  0.00  0.00    +0.000 NA
ATOM     38  C   UNL     1      42.206  26.130  34.256  0.00  0.00    +0.000 A 
ATOM     39  N   UNL     1      45.186  28.039  33.804  0.00  0.00    +0.000 N 
ATOM     40  H   UNL     1      46.153  28.123  34.150  0.00  0.00    +0.000 HD
ATOM     41  H   UNL     1      44.845  28.676  33.070  0.00  0.00    +0.000 HD
ENDBRANCH  29  30
ENDBRANCH   1  29
TORSDOF 7
