REMARK  Name = 
REMARK  3 active torsions:
REMARK  status: ('A' for Active; 'I' for Inactive)
REMARK    1  A    between atoms: C_1  and  N_33
REMARK    2  A    between atoms: C_9  and  C_27
REMARK    3  A    between atoms: C_11  and  C_12
REMARK                            x       y       z     vdW  Elec       q    Type
REMARK                         _______ _______ _______ _____ _____    ______ ____
ROOT
ATOM      1  C   UNL     1      39.029  23.531  36.111  0.00  0.00    +0.000 A 
ATOM      2  C   UNL     1      40.439  23.682  35.994  0.00  0.00    +0.000 A 
ATOM      3  C   UNL     1      40.894  24.749  35.262  0.00  0.00    +0.000 A 
ATOM      4  N   UNL     1      39.951  25.544  34.731  0.00  0.00    +0.000 NA
ATOM      5  C   UNL     1      38.661  25.427  34.823  0.00  0.00    +0.000 A 
ATOM      6  N   UNL     1      38.194  24.389  35.535  0.00  0.00    +0.000 NA
ATOM      7  N   UNL     1      37.904  26.408  34.168  0.00  0.00    +0.000 N 
ATOM      8  C   UNL     1      37.171  27.269  34.924  0.00  0.00    +0.000 A 
ATOM      9  C   UNL     1      36.509  28.143  34.089  0.00  0.00    +0.000 A 
ATOM     10  N   UNL     1      36.845  27.807  32.843  0.00  0.00    +0.000 NA
ATOM     11  C   UNL     1      37.713  26.726  32.886  0.00  0.00    +0.000 A 
ENDROOT
BRANCH  11  12
ATOM     12  C   UNL     1      38.249  26.092  31.730  0.00  0.00    +0.000 A 
ATOM     13  C   UNL     1      38.705  26.822  30.615  0.00  0.00    +0.000 A 
ATOM     14  N   UNL     1      39.136  25.949  29.651  0.00  0.00    +0.000 NA
ATOM     15  C   UNL     1      38.945  24.666  30.177  0.00  0.00    +0.000 A 
ATOM     16  N   UNL     1      38.431  24.839  31.387  0.00  0.00    +0.000 N 
ATOM     17  C   UNL     1      38.342  23.531  31.873  0.00  0.00    +0.000 A 
ATOM     18  N   UNL     1      39.485  23.127  32.437  0.00  0.00    +0.000 NA
ATOM     19  C   UNL     1      39.586  21.855  32.908  0.00  0.00    +0.000 A 
ATOM     20  N   UNL     1      38.603  20.960  32.847  0.00  0.00    +0.000 NA
ATOM     21  C   UNL     1      37.429  21.327  32.287  0.00  0.00    +0.000 A 
ATOM     22  C   UNL     1      36.340  20.510  32.156  0.00  0.00    +0.000 A 
ATOM     23  C   UNL     1      35.184  20.933  31.578  0.00  0.00    +0.000 A 
ATOM     24  C   UNL     1      35.098  22.238  31.100  0.00  0.00    +0.000 A 
ATOM     25  C   UNL     1      36.158  23.105  31.203  0.00  0.00    +0.000 A 
ATOM     26  C   UNL     1      37.296  22.629  31.794  0.00  0.00    +0.000 A 
ENDBRANCH  11  12
BRANCH   9  27
ATOM     27  C   UNL     1      35.597  29.252  34.445  0.00  0.00    +0.000 A 
ATOM     28  C   UNL     1      36.130  30.257  35.261  0.00  0.00    +0.000 A 
ATOM     29  C   UNL     1      35.240  31.259  35.559  0.00  0.00    +0.000 A 
ATOM     30  C   UNL     1      33.954  31.271  35.102  0.00  0.00    +0.000 A 
ATOM     31  C   UNL     1      33.489  30.264  34.309  0.00  0.00    +0.000 A 
ATOM     32  N   UNL     1      34.333  29.267  33.997  0.00  0.00    +0.000 NA
ENDBRANCH   9  27
BRANCH   1  33
ATOM     33  N   UNL     1      38.511  22.430  36.887  0.00  0.00    +0.000 N 
ATOM     34  H   UNL     1      37.494  22.302  36.984  0.00  0.00    +0.000 HD
ATOM     35  H   UNL     1      39.159  21.772  37.343  0.00  0.00    +0.000 HD
ENDBRANCH   1  33
TORSDOF 3
