REMARK  Name = 
REMARK  3 active torsions:
REMARK  status: ('A' for Active; 'I' for Inactive)
REMARK    1  A    between atoms: C_1  and  N_37
REMARK    2  A    between atoms: C_9  and  C_27
REMARK    3  A    between atoms: C_11  and  C_12
REMARK                            x       y       z     vdW  Elec       q    Type
REMARK                         _______ _______ _______ _____ _____    ______ ____
ROOT
ATOM      1  C   UNL     1      38.718  23.652  36.119  0.00  0.00    +0.000 A 
ATOM      2  C   UNL     1      40.135  23.731  36.070  0.00  0.00    +0.000 A 
ATOM      3  C   UNL     1      40.678  24.773  35.364  0.00  0.00    +0.000 A 
ATOM      4  N   UNL     1      39.809  25.615  34.788  0.00  0.00    +0.000 NA
ATOM      5  C   UNL     1      38.504  25.563  34.818  0.00  0.00    +0.000 A 
ATOM      6  N   UNL     1      37.953  24.551  35.505  0.00  0.00    +0.000 NA
ATOM      7  N   UNL     1      37.830  26.589  34.127  0.00  0.00    +0.000 N 
ATOM      8  C   UNL     1      37.119  27.486  34.850  0.00  0.00    +0.000 A 
ATOM      9  C   UNL     1      36.549  28.409  33.973  0.00  0.00    +0.000 A 
ATOM     10  N   UNL     1      36.935  28.034  32.770  0.00  0.00    +0.000 NA
ATOM     11  C   UNL     1      37.726  26.913  32.841  0.00  0.00    +0.000 A 
ENDROOT
BRANCH  11  12
ATOM     12  C   UNL     1      38.284  26.249  31.709  0.00  0.00    +0.000 A 
ATOM     13  C   UNL     1      38.771  26.954  30.589  0.00  0.00    +0.000 A 
ATOM     14  N   UNL     1      39.221  26.058  29.653  0.00  0.00    +0.000 NA
ATOM     15  C   UNL     1      39.007  24.789  30.203  0.00  0.00    +0.000 A 
ATOM     16  N   UNL     1      38.465  24.991  31.396  0.00  0.00    +0.000 N 
ATOM     17  C   UNL     1      38.351  23.696  31.907  0.00  0.00    +0.000 A 
ATOM     18  N   UNL     1      39.478  23.289  32.506  0.00  0.00    +0.000 NA
ATOM     19  C   UNL     1      39.555  22.027  33.004  0.00  0.00    +0.000 A 
ATOM     20  N   UNL     1      38.563  21.140  32.938  0.00  0.00    +0.000 NA
ATOM     21  C   UNL     1      37.414  21.505  32.346  0.00  0.00    +0.000 A 
ATOM     22  C   UNL     1      36.317  20.696  32.204  0.00  0.00    +0.000 A 
ATOM     23  C   UNL     1      35.175  21.118  31.588  0.00  0.00    +0.000 A 
ATOM     24  C   UNL     1      35.115  22.414  31.082  0.00  0.00    +0.000 A 
ATOM     25  C   UNL     1      36.179  23.273  31.193  0.00  0.00    +0.000 A 
ATOM     26  C   UNL     1      37.299  22.799  31.821  0.00  0.00    +0.000 A 
ENDBRANCH  11  12
BRANCH   9  27
ATOM     27  C   UNL     1      35.723  29.495  34.507  0.00  0.00    +0.000 A 
ATOM     28  N   UNL     1      36.163  30.387  35.414  0.00  0.00    +0.000 NA
ATOM     29  C   UNL     1      35.438  31.391  35.923  0.00  0.00    +0.000 A 
ATOM     30  N   UNL     1      34.164  31.588  35.545  0.00  0.00    +0.000 NA
ATOM     31  C   UNL     1      33.632  30.749  34.641  0.00  0.00    +0.000 A 
ATOM     32  C   UNL     1      32.326  30.942  34.247  0.00  0.00    +0.000 A 
ATOM     33  C   UNL     1      31.728  30.109  33.320  0.00  0.00    +0.000 A 
ATOM     34  C   UNL     1      32.505  29.085  32.819  0.00  0.00    +0.000 A 
ATOM     35  C   UNL     1      33.807  28.920  33.233  0.00  0.00    +0.000 A 
ATOM     36  C   UNL     1      34.419  29.732  34.150  0.00  0.00    +0.000 A 
ENDBRANCH   9  27
BRANCH   1  37
ATOM     37  N   UNL     1      38.104  22.581  36.866  0.00  0.00    +0.000 N 
ATOM     38  H   UNL     1      37.078  22.508  36.913  0.00  0.00    +0.000 HD
ATOM     39  H   UNL     1      38.692  21.890  37.353  0.00  0.00    +0.000 HD
ENDBRANCH   1  37
TORSDOF 3
