REMARK  Name = 
REMARK  2 active torsions:
REMARK  status: ('A' for Active; 'I' for Inactive)
REMARK    1  A    between atoms: C_2  and  N_18
REMARK    2  A    between atoms: C_22  and  N_27
REMARK                            x       y       z     vdW  Elec       q    Type
REMARK                         _______ _______ _______ _____ _____    ______ ____
ROOT
ATOM      1  C   UNL     1      37.637  26.969  35.088  0.00  0.00    +0.000 A 
ATOM      2  C   UNL     1      37.916  25.804  34.323  0.00  0.00    +0.000 A 
ATOM      3  C   UNL     1      37.419  25.725  33.028  0.00  0.00    +0.000 A 
ATOM      4  N   UNL     1      36.681  26.785  32.555  0.00  0.00    +0.000 NA
ATOM      5  C   UNL     1      36.434  27.867  33.298  0.00  0.00    +0.000 A 
ATOM      6  N   UNL     1      36.907  27.951  34.542  0.00  0.00    +0.000 NA
ATOM      7  N   UNL     1      35.655  28.877  32.667  0.00  0.00    +0.000 N 
ATOM      8  C   UNL     1      35.989  29.398  31.450  0.00  0.00    +0.000 A 
ATOM      9  N   UNL     1      35.087  30.331  31.088  0.00  0.00    +0.000 NA
ATOM     10  C   UNL     1      34.175  30.420  32.055  0.00  0.00    +0.000 A 
ATOM     11  C   UNL     1      33.039  31.161  32.275  0.00  0.00    +0.000 A 
ATOM     12  O   UNL     1      32.673  32.010  31.393  0.00  0.00    +0.000 OA
ATOM     13  N   UNL     1      32.325  30.981  33.417  0.00  0.00    +0.000 N 
ATOM     14  C   UNL     1      32.693  30.092  34.357  0.00  0.00    +0.000 A 
ATOM     15  N   UNL     1      31.808  30.065  35.470  0.00  0.00    +0.000 N 
ATOM     16  N   UNL     1      33.816  29.345  34.161  0.00  0.00    +0.000 NA
ATOM     17  C   UNL     1      34.529  29.515  33.036  0.00  0.00    +0.000 A 
ATOM     18  H   UNL     1      31.475  31.543  33.568  0.00  0.00    +0.000 HD
ATOM     19  H   UNL     1      31.987  29.422  36.255  0.00  0.00    +0.000 HD
ATOM     20  H   UNL     1      30.988  30.688  35.491  0.00  0.00    +0.000 HD
ENDROOT
BRANCH   2  21
ATOM     21  N   UNL     1      38.697  24.787  34.951  0.00  0.00    +0.000 N 
ATOM     22  C   UNL     1      39.667  24.065  34.308  0.00  0.00    +0.000 A 
ATOM     23  N   UNL     1      40.203  23.189  35.209  0.00  0.00    +0.000 NA
ATOM     24  C   UNL     1      39.589  23.361  36.365  0.00  0.00    +0.000 A 
ATOM     25  C   UNL     1      39.655  22.813  37.634  0.00  0.00    +0.000 A 
ATOM     26  N   UNL     1      38.876  23.189  38.689  0.00  0.00    +0.000 NA
ATOM     27  C   UNL     1      37.954  24.185  38.483  0.00  0.00    +0.000 A 
ATOM     28  N   UNL     1      37.865  24.736  37.264  0.00  0.00    +0.000 NA
ATOM     29  C   UNL     1      38.641  24.354  36.237  0.00  0.00    +0.000 A 
BRANCH  25  30
ATOM     30  N   UNL     1      40.591  21.778  37.902  0.00  0.00    +0.000 N 
ATOM     31  H   UNL     1      40.646  21.365  38.844  0.00  0.00    +0.000 HD
ATOM     32  H   UNL     1      41.214  21.441  37.154  0.00  0.00    +0.000 HD
ENDBRANCH  25  30
ENDBRANCH   2  21
TORSDOF 2
