REMARK  Name = 
REMARK  2 active torsions:
REMARK  status: ('A' for Active; 'I' for Inactive)
REMARK    1  A    between atoms: C_5  and  C_7
REMARK    2  A    between atoms: C_19  and  C_31
REMARK                            x       y       z     vdW  Elec       q    Type
REMARK                         _______ _______ _______ _____ _____    ______ ____
ROOT
ATOM      1  C   UNL     1      39.065  23.048  37.982  0.00  0.00    +0.000 A 
ATOM      2  C   UNL     1      38.334  23.298  36.815  0.00  0.00    +0.000 A 
ATOM      3  C   UNL     1      38.991  23.079  35.601  0.00  0.00    +0.000 A 
ATOM      4  N   UNL     1      40.258  22.651  35.686  0.00  0.00    +0.000 NA
ATOM      5  C   UNL     1      40.963  22.410  36.806  0.00  0.00    +0.000 A 
ATOM      6  N   UNL     1      40.321  22.624  37.954  0.00  0.00    +0.000 NA
ATOM      7  N   UNL     1      38.347  23.299  34.348  0.00  0.00    +0.000 N 
ATOM      8  C   UNL     1      37.416  22.473  33.887  0.00  0.00    +0.000 A 
ATOM      9  C   UNL     1      37.029  22.988  32.683  0.00  0.00    +0.000 A 
ATOM     10  N   UNL     1      37.725  24.106  32.437  0.00  0.00    +0.000 NA
ATOM     11  C   UNL     1      38.558  24.302  33.488  0.00  0.00    +0.000 A 
ATOM     12  N   UNL     1      39.473  25.385  33.621  0.00  0.00    +0.000 N 
ATOM     13  C   UNL     1      39.824  25.943  34.817  0.00  0.00    +0.000 A 
ATOM     14  N   UNL     1      40.695  26.926  34.584  0.00  0.00    +0.000 NA
ATOM     15  C   UNL     1      40.905  27.007  33.277  0.00  0.00    +0.000 A 
ATOM     16  C   UNL     1      41.658  27.775  32.394  0.00  0.00    +0.000 A 
ATOM     17  N   UNL     1      41.656  27.603  31.058  0.00  0.00    +0.000 NA
ATOM     18  C   UNL     1      40.883  26.638  30.528  0.00  0.00    +0.000 A 
ATOM     19  N   UNL     1      40.105  25.829  31.305  0.00  0.00    +0.000 NA
ATOM     20  C   UNL     1      40.143  26.043  32.651  0.00  0.00    +0.000 A 
ENDROOT
BRANCH   5  21
ATOM     21  C   UNL     1      42.311  21.957  36.522  0.00  0.00    +0.000 A 
ATOM     22  C   UNL     1      42.583  20.623  36.317  0.00  0.00    +0.000 A 
ATOM     23  C   UNL     1      43.846  20.122  36.041  0.00  0.00    +0.000 A 
ATOM     24  C   UNL     1      44.922  20.977  35.959  0.00  0.00    +0.000 A 
ATOM     25  C   UNL     1      44.691  22.300  36.157  0.00  0.00    +0.000 A 
ATOM     26  C   UNL     1      45.772  23.159  36.075  0.00  0.00    +0.000 A 
ATOM     27  C   UNL     1      45.625  24.519  36.263  0.00  0.00    +0.000 A 
ATOM     28  C   UNL     1      44.343  24.977  36.536  0.00  0.00    +0.000 A 
ATOM     29  C   UNL     1      43.291  24.087  36.610  0.00  0.00    +0.000 A 
ATOM     30  C   UNL     1      43.416  22.756  36.429  0.00  0.00    +0.000 A 
ENDBRANCH   5  21
BRANCH   9  31
ATOM     31  C   UNL     1      36.008  22.461  31.731  0.00  0.00    +0.000 C 
ATOM     32  F   UNL     1      34.904  21.940  32.366  0.00  0.00    +0.000 F 
ATOM     33  F   UNL     1      36.552  21.405  30.976  0.00  0.00    +0.000 F 
ATOM     34  F   UNL     1      35.675  23.429  30.797  0.00  0.00    +0.000 F 
ENDBRANCH   9  31
TORSDOF 2
