REMARK  Name = 
REMARK  2 active torsions:
REMARK  status: ('A' for Active; 'I' for Inactive)
REMARK    1  A    between atoms: C_3  and  N_12
REMARK    2  A    between atoms: C_18  and  C_21
REMARK                            x       y       z     vdW  Elec       q    Type
REMARK                         _______ _______ _______ _____ _____    ______ ____
ROOT
ATOM      1  N   UNL     1      37.302  23.485  31.855  0.00  0.00    +0.000 N 
ATOM      2  C   UNL     1      36.805  24.341  30.936  0.00  0.00    +0.000 A 
ATOM      3  N   UNL     1      37.550  25.473  30.922  0.00  0.00    +0.000 NA
ATOM      4  C   UNL     1      38.518  25.290  31.855  0.00  0.00    +0.000 A 
ATOM      5  C   UNL     1      39.514  26.176  32.192  0.00  0.00    +0.000 A 
ATOM      6  N   UNL     1      40.374  25.759  33.160  0.00  0.00    +0.000 NA
ATOM      7  C   UNL     1      40.226  24.526  33.745  0.00  0.00    +0.000 A 
ATOM      8  N   UNL     1      39.230  23.692  33.381  0.00  0.00    +0.000 NA
ATOM      9  C   UNL     1      38.353  24.046  32.433  0.00  0.00    +0.000 A 
ENDROOT
BRANCH   1  12
ATOM     10  C   UNL     1      36.235  19.967  31.533  0.00  0.00    +0.000 A 
ATOM     11  C   UNL     1      36.775  21.194  31.166  0.00  0.00    +0.000 A 
ATOM     12  C   UNL     1      36.778  22.213  32.135  0.00  0.00    +0.000 A 
ATOM     13  N   UNL     1      36.256  21.923  33.351  0.00  0.00    +0.000 NA
ATOM     14  C   UNL     1      35.742  20.715  33.660  0.00  0.00    +0.000 A 
ATOM     15  N   UNL     1      35.736  19.740  32.742  0.00  0.00    +0.000 NA
ATOM     16  N   UNL     1      35.201  20.456  34.956  0.00  0.00    +0.000 N 
ATOM     17  C   UNL     1      35.886  20.891  36.110  0.00  0.00    +0.000 C 
ATOM     18  N   UNL     1      37.100  21.355  35.979  0.00  0.00    +0.000 NA
ATOM     19  N   UNL     1      35.255  20.824  37.409  0.00  0.00    +0.000 N 
ATOM     20  H   UNL     1      37.608  21.653  36.844  0.00  0.00    +0.000 HD
ATOM     21  H   UNL     1      34.308  19.950  35.048  0.00  0.00    +0.000 HD
ATOM     22  H   UNL     1      35.763  21.144  38.246  0.00  0.00    +0.000 HD
ATOM     23  H   UNL     1      34.297  20.456  37.498  0.00  0.00    +0.000 HD
ENDBRANCH   1  12
BRANCH   7  24
ATOM     24  C   UNL     1      41.254  24.298  34.748  0.00  0.00    +0.000 A 
ATOM     25  C   UNL     1      41.108  23.328  35.713  0.00  0.00    +0.000 A 
ATOM     26  C   UNL     1      42.029  23.046  36.697  0.00  0.00    +0.000 A 
ATOM     27  C   UNL     1      43.201  23.761  36.762  0.00  0.00    +0.000 A 
ATOM     28  C   UNL     1      43.409  24.747  35.824  0.00  0.00    +0.000 A 
ATOM     29  C   UNL     1      44.583  25.461  35.891  0.00  0.00    +0.000 A 
ATOM     30  C   UNL     1      44.856  26.462  34.984  0.00  0.00    +0.000 A 
ATOM     31  C   UNL     1      43.893  26.706  34.010  0.00  0.00    +0.000 A 
ATOM     32  C   UNL     1      42.738  25.963  33.989  0.00  0.00    +0.000 A 
ATOM     33  C   UNL     1      42.439  24.964  34.876  0.00  0.00    +0.000 A 
ENDBRANCH   7  24
TORSDOF 2
