REMARK  Name = 
REMARK  4 active torsions:
REMARK  status: ('A' for Active; 'I' for Inactive)
REMARK    1  A    between atoms: C_1  and  N_37
REMARK    2  A    between atoms: C_9  and  N_27
REMARK    3  A    between atoms: C_11  and  C_12
REMARK    4  A    between atoms: C_31  and  N_36
REMARK                            x       y       z     vdW  Elec       q    Type
REMARK                         _______ _______ _______ _____ _____    ______ ____
ROOT
ATOM      1  C   UNL     1      39.026  23.505  36.096  0.00  0.00    +0.000 A 
ATOM      2  C   UNL     1      40.435  23.639  35.985  0.00  0.00    +0.000 A 
ATOM      3  C   UNL     1      40.906  24.712  35.270  0.00  0.00    +0.000 A 
ATOM      4  N   UNL     1      39.978  25.525  34.747  0.00  0.00    +0.000 NA
ATOM      5  C   UNL     1      38.684  25.424  34.835  0.00  0.00    +0.000 A 
ATOM      6  N   UNL     1      38.202  24.383  35.530  0.00  0.00    +0.000 NA
ATOM      7  N   UNL     1      37.944  26.428  34.193  0.00  0.00    +0.000 N 
ATOM      8  C   UNL     1      37.220  27.287  34.961  0.00  0.00    +0.000 A 
ATOM      9  C   UNL     1      36.576  28.184  34.135  0.00  0.00    +0.000 A 
ATOM     10  N   UNL     1      36.912  27.863  32.887  0.00  0.00    +0.000 NA
ATOM     11  C   UNL     1      37.763  26.769  32.915  0.00  0.00    +0.000 A 
ENDROOT
BRANCH  11  12
ATOM     12  C   UNL     1      38.296  26.144  31.751  0.00  0.00    +0.000 A 
ATOM     13  C   UNL     1      38.753  26.884  30.644  0.00  0.00    +0.000 A 
ATOM     14  N   UNL     1      39.180  26.018  29.669  0.00  0.00    +0.000 NA
ATOM     15  C   UNL     1      38.981  24.731  30.182  0.00  0.00    +0.000 A 
ATOM     16  N   UNL     1      38.470  24.895  31.394  0.00  0.00    +0.000 N 
ATOM     17  C   UNL     1      38.377  23.581  31.867  0.00  0.00    +0.000 A 
ATOM     18  N   UNL     1      39.519  23.165  32.425  0.00  0.00    +0.000 NA
ATOM     19  C   UNL     1      39.615  21.890  32.885  0.00  0.00    +0.000 A 
ATOM     20  N   UNL     1      38.625  21.000  32.818  0.00  0.00    +0.000 NA
ATOM     21  C   UNL     1      37.455  21.378  32.263  0.00  0.00    +0.000 A 
ATOM     22  C   UNL     1      36.361  20.568  32.129  0.00  0.00    +0.000 A 
ATOM     23  C   UNL     1      35.202  21.003  31.554  0.00  0.00    +0.000 A 
ATOM     24  C   UNL     1      35.126  22.311  31.089  0.00  0.00    +0.000 A 
ATOM     25  C   UNL     1      36.190  23.171  31.197  0.00  0.00    +0.000 A 
ATOM     26  C   UNL     1      37.327  22.685  31.781  0.00  0.00    +0.000 A 
ENDBRANCH  11  12
BRANCH   9  27
ATOM     27  N   UNL     1      35.707  29.266  34.459  0.00  0.00    +0.000 N 
ATOM     28  C   UNL     1      36.037  30.253  35.341  0.00  0.00    +0.000 A 
ATOM     29  N   UNL     1      35.038  31.168  35.478  0.00  0.00    +0.000 NA
ATOM     30  C   UNL     1      34.063  30.724  34.648  0.00  0.00    +0.000 A 
ATOM     31  C   UNL     1      32.801  31.169  34.309  0.00  0.00    +0.000 A 
ATOM     32  N   UNL     1      32.020  30.510  33.428  0.00  0.00    +0.000 NA
ATOM     33  C   UNL     1      32.451  29.370  32.832  0.00  0.00    +0.000 A 
ATOM     34  N   UNL     1      33.682  28.923  33.155  0.00  0.00    +0.000 NA
ATOM     35  C   UNL     1      34.467  29.561  34.023  0.00  0.00    +0.000 A 
BRANCH  31  36
ATOM     36  N   UNL     1      32.292  32.360  34.899  0.00  0.00    +0.000 N 
ATOM     37  H   UNL     1      31.351  32.697  34.650  0.00  0.00    +0.000 HD
ATOM     38  H   UNL     1      32.865  32.885  35.575  0.00  0.00    +0.000 HD
ENDBRANCH  31  36
ENDBRANCH   9  27
BRANCH   1  39
ATOM     39  N   UNL     1      38.489  22.399  36.853  0.00  0.00    +0.000 N 
ATOM     40  H   UNL     1      37.469  22.285  36.945  0.00  0.00    +0.000 HD
ATOM     41  H   UNL     1      39.125  21.724  37.301  0.00  0.00    +0.000 HD
ENDBRANCH   1  39
TORSDOF 4
