REMARK  Name = 
REMARK  8 active torsions:
REMARK  status: ('A' for Active; 'I' for Inactive)
REMARK    1  A    between atoms: C_3  and  C_7
REMARK    2  A    between atoms: C_5  and  C_18
REMARK    3  A    between atoms: C_7  and  C_8
REMARK    4  A    between atoms: C_8  and  N_9
REMARK    5  A    between atoms: C_13  and  C_14
REMARK    6  A    between atoms: C_18  and  C_19
REMARK    7  A    between atoms: C_18  and  C_20
REMARK    8  A    between atoms: C_20  and  C_21
REMARK                            x       y       z     vdW  Elec       q    Type
REMARK                         _______ _______ _______ _____ _____    ______ ____
ROOT
ATOM      1  C   UNL     1      36.788  25.333  31.915  0.00  0.00    +0.000 A 
ATOM      2  C   UNL     1      37.431  25.254  33.146  0.00  0.00    +0.000 A 
ATOM      3  C   UNL     1      37.452  26.301  33.995  0.00  0.00    +0.000 A 
ATOM      4  N   UNL     1      36.819  27.447  33.594  0.00  0.00    +0.000 NA
ATOM      5  C   UNL     1      36.200  27.539  32.419  0.00  0.00    +0.000 A 
ATOM      6  N   UNL     1      36.183  26.515  31.607  0.00  0.00    +0.000 NA
ENDROOT
BRANCH   5   7
ATOM      7  C   UNL     1      35.558  28.830  32.045  0.00  0.00    +0.000 C 
ATOM      8  C   UNL     1      36.357  29.446  30.858  0.00  0.00    +0.000 C 
BRANCH   7   9
ATOM      9  C   UNL     1      35.569  29.838  33.129  0.00  0.00    +0.000 C 
BRANCH   9  10
ATOM     10  C   UNL     1      34.264  29.900  33.828  0.00  0.00    +0.000 A 
ATOM     11  N   UNL     1      33.152  29.242  33.386  0.00  0.00    +0.000 NA
ATOM     12  C   UNL     1      32.002  29.339  34.115  0.00  0.00    +0.000 A 
ATOM     13  N   UNL     1      31.833  30.029  35.255  0.00  0.00    +0.000 NA
ATOM     14  C   UNL     1      32.918  30.688  35.712  0.00  0.00    +0.000 A 
ATOM     15  C   UNL     1      32.776  31.412  36.877  0.00  0.00    +0.000 A 
ATOM     16  C   UNL     1      33.861  32.106  37.372  0.00  0.00    +0.000 A 
ATOM     17  C   UNL     1      35.082  32.083  36.718  0.00  0.00    +0.000 A 
ATOM     18  C   UNL     1      35.166  31.339  35.553  0.00  0.00    +0.000 A 
ATOM     19  C   UNL     1      34.117  30.621  35.004  0.00  0.00    +0.000 A 
ENDBRANCH   9  10
ENDBRANCH   7   9
ENDBRANCH   5   7
BRANCH   3  20
ATOM     20  C   UNL     1      38.101  26.091  35.304  0.00  0.00    +0.000 C 
BRANCH  20  21
ATOM     21  C   UNL     1      37.995  24.678  35.699  0.00  0.00    +0.000 C 
BRANCH  21  22
ATOM     22  N   UNL     1      39.210  24.198  36.311  0.00  0.00    +0.000 NA
ATOM     23  C   UNL     1      39.982  23.404  35.319  0.00  0.00    +0.000 C 
ATOM     24  C   UNL     1      41.008  22.728  36.186  0.00  0.00    +0.000 C 
ATOM     25  C   UNL     1      40.384  22.675  37.581  0.00  0.00    +0.000 C 
ATOM     26  C   UNL     1      38.979  23.186  37.279  0.00  0.00    +0.000 C 
BRANCH  26  27
ATOM     27  C   UNL     1      38.407  23.679  38.562  0.00  0.00    +0.000 C 
ATOM     28  F   UNL     1      39.279  23.736  39.606  0.00  0.00    +0.000 F 
ATOM     29  F   UNL     1      37.272  22.956  38.844  0.00  0.00    +0.000 F 
ATOM     30  F   UNL     1      37.998  25.017  38.377  0.00  0.00    +0.000 F 
ENDBRANCH  26  27
ENDBRANCH  21  22
ENDBRANCH  20  21
ENDBRANCH   3  20
TORSDOF 7
