REMARK  Name = 
REMARK  2 active torsions:
REMARK  status: ('A' for Active; 'I' for Inactive)
REMARK    1  A    between atoms: N_13  and  C_18
REMARK    2  A    between atoms: C_21  and  C_23
REMARK                            x       y       z     vdW  Elec       q    Type
REMARK                         _______ _______ _______ _____ _____    ______ ____
ROOT
ATOM      1  C   UNL     1      40.118  22.935  37.188  0.00  0.00    +0.000 A 
ATOM      2  C   UNL     1      39.357  23.063  38.366  0.00  0.00    +0.000 A 
ATOM      3  C   UNL     1      38.088  23.648  38.227  0.00  0.00    +0.000 A 
ATOM      4  N   UNL     1      37.650  24.057  37.007  0.00  0.00    +0.000 NA
ATOM      5  C   UNL     1      38.418  23.911  35.908  0.00  0.00    +0.000 A 
ATOM      6  N   UNL     1      39.642  23.353  36.005  0.00  0.00    +0.000 NA
ATOM      7  N   UNL     1      38.014  24.319  34.608  0.00  0.00    +0.000 N 
ATOM      8  C   UNL     1      38.110  23.490  33.556  0.00  0.00    +0.000 A 
ATOM      9  N   UNL     1      37.647  24.168  32.465  0.00  0.00    +0.000 NA
ATOM     10  C   UNL     1      37.268  25.396  32.828  0.00  0.00    +0.000 A 
ATOM     11  C   UNL     1      36.733  26.543  32.236  0.00  0.00    +0.000 A 
ATOM     12  O   UNL     1      36.520  26.454  30.994  0.00  0.00    +0.000 OA
ATOM     13  N   UNL     1      36.473  27.653  32.984  0.00  0.00    +0.000 N 
ATOM     14  C   UNL     1      36.717  27.683  34.283  0.00  0.00    +0.000 A 
ATOM     15  N   UNL     1      36.381  28.929  34.897  0.00  0.00    +0.000 N 
ATOM     16  N   UNL     1      37.235  26.594  34.892  0.00  0.00    +0.000 NA
ATOM     17  C   UNL     1      37.498  25.502  34.193  0.00  0.00    +0.000 A 
ATOM     18  H   UNL     1      36.531  29.062  35.907  0.00  0.00    +0.000 HD
ATOM     19  H   UNL     1      35.989  29.694  34.329  0.00  0.00    +0.000 HD
ENDROOT
BRANCH  13  20
ATOM     20  C   UNL     1      35.913  28.831  32.323  0.00  0.00    +0.000 A 
ATOM     21  C   UNL     1      36.687  29.693  31.545  0.00  0.00    +0.000 A 
ATOM     22  S   UNL     1      35.447  30.945  31.002  0.00  0.00    +0.000 S 
ATOM     23  C   UNL     1      34.067  30.073  31.936  0.00  0.00    +0.000 A 
ATOM     24  N   UNL     1      34.668  29.229  32.361  0.00  0.00    +0.000 NA
BRANCH  23  25
ATOM     25  C   UNL     1      32.762  30.726  31.815  0.00  0.00    +0.000 A 
ATOM     26  C   UNL     1      32.439  31.638  30.838  0.00  0.00    +0.000 A 
ATOM     27  C   UNL     1      31.197  32.247  30.738  0.00  0.00    +0.000 A 
ATOM     28  C   UNL     1      30.246  31.908  31.677  0.00  0.00    +0.000 A 
ATOM     29  C   UNL     1      30.507  31.013  32.666  0.00  0.00    +0.000 A 
ATOM     30  C   UNL     1      29.518  30.714  33.574  0.00  0.00    +0.000 A 
ATOM     31  C   UNL     1      29.790  29.795  34.587  0.00  0.00    +0.000 A 
ATOM     32  C   UNL     1      31.063  29.226  34.619  0.00  0.00    +0.000 A 
ATOM     33  C   UNL     1      32.033  29.546  33.694  0.00  0.00    +0.000 A 
ATOM     34  C   UNL     1      31.759  30.445  32.709  0.00  0.00    +0.000 A 
ENDBRANCH  23  25
ENDBRANCH  13  20
TORSDOF 2
