REMARK  Name = 
REMARK  9 active torsions:
REMARK  status: ('A' for Active; 'I' for Inactive)
REMARK    1  A    between atoms: C_1  and  C_6
REMARK    2  A    between atoms: C_1  and  C_9
REMARK    3  A    between atoms: C_1  and  C_10
REMARK    4  A    between atoms: C_1  and  C_25
REMARK    5  A    between atoms: C_3  and  N_8
REMARK    6  A    between atoms: C_10  and  N_11
REMARK    7  A    between atoms: C_13  and  C_19
REMARK    8  A    between atoms: C_25  and  C_29
REMARK    9  A    between atoms: C_26  and  S_32
REMARK                            x       y       z     vdW  Elec       q    Type
REMARK                         _______ _______ _______ _____ _____    ______ ____
ROOT
ATOM      1  C   UNL     1      38.630  25.978  34.804  0.00  0.00    +0.000 C 
ATOM      2  C   UNL     1      39.061  27.339  35.230  0.00  0.00    +0.000 C 
ENDROOT
BRANCH   1   7
ATOM      3  C   UNL     1      38.671  22.972  36.945  0.00  0.00    +0.000 A 
ATOM      4  C   UNL     1      38.300  23.433  38.185  0.00  0.00    +0.000 A 
ATOM      5  C   UNL     1      38.034  24.781  38.271  0.00  0.00    +0.000 A 
ATOM      6  N   UNL     1      38.145  25.568  37.169  0.00  0.00    +0.000 NA
ATOM      7  C   UNL     1      38.515  25.076  35.956  0.00  0.00    +0.000 A 
ATOM      8  N   UNL     1      38.777  23.745  35.872  0.00  0.00    +0.000 NA
BRANCH   4   9
ATOM      9  N   UNL     1      38.229  22.523  39.259  0.00  0.00    +0.000 N 
ATOM     10  H   UNL     1      37.953  22.852  40.195  0.00  0.00    +0.000 HD
ATOM     11  H   UNL     1      38.453  21.529  39.108  0.00  0.00    +0.000 HD
ENDBRANCH   4   9
ENDBRANCH   1   7
BRANCH   1  12
ATOM     12  C   UNL     1      37.277  26.024  34.145  0.00  0.00    +0.000 C 
BRANCH  12  13
ATOM     13  N   UNL     1      36.892  27.272  33.566  0.00  0.00    +0.000 N 
ATOM     14  C   UNL     1      36.285  28.143  34.407  0.00  0.00    +0.000 A 
ATOM     15  C   UNL     1      35.858  29.395  33.994  0.00  0.00    +0.000 A 
ATOM     16  C   UNL     1      36.071  29.740  32.677  0.00  0.00    +0.000 A 
ATOM     17  N   UNL     1      35.626  31.031  32.275  0.00  0.00    +0.000 N 
ATOM     18  N   UNL     1      36.675  28.869  31.846  0.00  0.00    +0.000 NA
ATOM     19  C   UNL     1      37.063  27.677  32.305  0.00  0.00    +0.000 A 
ATOM     20  O   UNL     1      37.621  26.862  31.546  0.00  0.00    +0.000 OA
ATOM     21  H   UNL     1      35.759  31.342  31.302  0.00  0.00    +0.000 HD
ATOM     22  H   UNL     1      35.171  31.654  32.957  0.00  0.00    +0.000 HD
BRANCH  15  23
ATOM     23  C   UNL     1      35.204  30.300  34.950  0.00  0.00    +0.000 A 
ATOM     24  C   UNL     1      35.925  31.194  35.694  0.00  0.00    +0.000 A 
ATOM     25  C   UNL     1      35.305  32.038  36.590  0.00  0.00    +0.000 A 
ATOM     26  C   UNL     1      33.957  31.943  36.701  0.00  0.00    +0.000 A 
ATOM     27  C   UNL     1      33.189  31.068  35.982  0.00  0.00    +0.000 A 
ATOM     28  C   UNL     1      33.825  30.219  35.079  0.00  0.00    +0.000 A 
ENDBRANCH  15  23
ENDBRANCH  12  13
ENDBRANCH   1  12
BRANCH   1  29
ATOM     29  C   UNL     1      39.629  25.422  33.793  0.00  0.00    +0.000 C 
BRANCH  29  33
ATOM     30  C   UNL     1      43.770  26.449  34.371  0.00  0.00    +0.000 A 
ATOM     31  C   UNL     1      43.234  25.424  35.131  0.00  0.00    +0.000 A 
ATOM     32  C   UNL     1      41.935  25.093  34.944  0.00  0.00    +0.000 A 
ATOM     33  C   UNL     1      41.043  25.662  34.068  0.00  0.00    +0.000 A 
ATOM     34  C   UNL     1      41.594  26.700  33.300  0.00  0.00    +0.000 A 
ATOM     35  C   UNL     1      42.931  27.087  33.449  0.00  0.00    +0.000 A 
BRANCH  30  36
ATOM     36  S   UNL     1      45.435  26.866  34.621  0.00  0.00    +0.000 S 
ATOM     37  O   UNL     1      45.787  26.422  36.026  0.00  0.00    +0.000 OA
ATOM     38  O   UNL     1      45.719  28.318  34.453  0.00  0.00    +0.000 OA
ATOM     39  H   UNL     1      46.197  26.239  33.670  0.00  0.00    +0.000 HD
ENDBRANCH  30  36
ENDBRANCH  29  33
ENDBRANCH   1  29
TORSDOF 8
