REMARK  Name = 
REMARK  3 active torsions:
REMARK  status: ('A' for Active; 'I' for Inactive)
REMARK    1  A    between atoms: C_1  and  N_18
REMARK    2  A    between atoms: C_4  and  C_23
REMARK    3  A    between atoms: C_25  and  C_26
REMARK                            x       y       z     vdW  Elec       q    Type
REMARK                         _______ _______ _______ _____ _____    ______ ____
ROOT
ATOM      1  C   UNL     1      40.920  22.482  36.394  0.00  0.00    +0.000 A 
ATOM      2  C   UNL     1      40.380  22.584  37.706  0.00  0.00    +0.000 A 
ATOM      3  C   UNL     1      39.109  23.168  37.822  0.00  0.00    +0.000 A 
ATOM      4  N   UNL     1      38.466  23.599  36.714  0.00  0.00    +0.000 NA
ATOM      5  C   UNL     1      39.026  23.481  35.463  0.00  0.00    +0.000 A 
ATOM      6  N   UNL     1      40.241  22.927  35.316  0.00  0.00    +0.000 NA
ATOM      7  N   UNL     1      38.364  23.925  34.311  0.00  0.00    +0.000 N 
ATOM      8  C   UNL     1      38.238  23.104  33.230  0.00  0.00    +0.000 A 
ATOM      9  N   UNL     1      37.558  23.796  32.274  0.00  0.00    +0.000 NA
ATOM     10  C   UNL     1      37.254  25.011  32.704  0.00  0.00    +0.000 A 
ATOM     11  C   UNL     1      36.604  26.171  32.262  0.00  0.00    +0.000 A 
ATOM     12  O   UNL     1      36.142  26.098  31.094  0.00  0.00    +0.000 OA
ATOM     13  N   UNL     1      36.514  27.261  33.084  0.00  0.00    +0.000 N 
ATOM     14  C   UNL     1      37.019  27.270  34.293  0.00  0.00    +0.000 A 
ATOM     15  N   UNL     1      36.809  28.508  34.980  0.00  0.00    +0.000 N 
ATOM     16  N   UNL     1      37.654  26.169  34.757  0.00  0.00    +0.000 NA
ATOM     17  C   UNL     1      37.765  25.077  33.981  0.00  0.00    +0.000 A 
ATOM     18  H   UNL     1      37.163  28.631  35.939  0.00  0.00    +0.000 HD
ATOM     19  H   UNL     1      36.304  29.276  34.515  0.00  0.00    +0.000 HD
ENDROOT
BRANCH  13  20
ATOM     20  C   UNL     1      35.828  28.449  32.576  0.00  0.00    +0.000 A 
ATOM     21  C   UNL     1      36.472  29.351  31.711  0.00  0.00    +0.000 A 
ATOM     22  S   UNL     1      35.158  30.625  31.394  0.00  0.00    +0.000 S 
ATOM     23  C   UNL     1      33.971  29.696  32.499  0.00  0.00    +0.000 A 
ATOM     24  N   UNL     1      34.600  28.821  32.827  0.00  0.00    +0.000 NA
BRANCH  23  25
ATOM     25  C   UNL     1      32.557  30.283  32.662  0.00  0.00    +0.000 C 
ATOM     26  C   UNL     1      31.773  29.838  33.824  0.00  0.00    +0.000 C 
ATOM     27  C   UNL     1      32.463  31.241  33.741  0.00  0.00    +0.000 C 
BRANCH  27  28
ATOM     28  C   UNL     1      33.500  31.527  34.717  0.00  0.00    +0.000 A 
ATOM     29  N   UNL     1      34.718  30.966  34.827  0.00  0.00    +0.000 NA
ATOM     30  C   UNL     1      35.561  31.342  35.831  0.00  0.00    +0.000 A 
ATOM     31  N   UNL     1      35.210  32.289  36.750  0.00  0.00    +0.000 NA
ATOM     32  C   UNL     1      33.986  32.882  36.674  0.00  0.00    +0.000 A 
ATOM     33  C   UNL     1      33.668  33.832  37.620  0.00  0.00    +0.000 A 
ATOM     34  C   UNL     1      32.433  34.443  37.558  0.00  0.00    +0.000 A 
ATOM     35  C   UNL     1      31.556  34.091  36.563  0.00  0.00    +0.000 A 
ATOM     36  C   UNL     1      31.916  33.147  35.652  0.00  0.00    +0.000 A 
ATOM     37  C   UNL     1      33.133  32.494  35.651  0.00  0.00    +0.000 A 
ENDBRANCH  27  28
ENDBRANCH  23  25
ENDBRANCH  13  20
TORSDOF 3
