REMARK  Name = 
REMARK  3 active torsions:
REMARK  status: ('A' for Active; 'I' for Inactive)
REMARK    1  A    between atoms: C_5  and  C_12
REMARK    2  A    between atoms: C_10  and  C_22
REMARK    3  A    between atoms: C_25  and  O_27
REMARK                            x       y       z     vdW  Elec       q    Type
REMARK                         _______ _______ _______ _____ _____    ______ ____
ROOT
ATOM      1  C   UNL     1      37.124  24.459  31.719  0.00  0.00    +0.000 A 
ATOM      2  C   UNL     1      36.548  25.732  31.745  0.00  0.00    +0.000 A 
ATOM      3  C   UNL     1      36.954  26.536  32.801  0.00  0.00    +0.000 A 
ATOM      4  N   UNL     1      37.828  26.045  33.670  0.00  0.00    +0.000 NA
ATOM      5  C   UNL     1      38.383  24.843  33.660  0.00  0.00    +0.000 A 
ATOM      6  N   UNL     1      37.990  24.090  32.653  0.00  0.00    +0.000 NA
ATOM      7  N   UNL     1      36.455  27.858  32.961  0.00  0.00    +0.000 N 
ATOM      8  C   UNL     1      36.491  28.840  32.053  0.00  0.00    +0.000 A 
ATOM      9  N   UNL     1      35.938  29.929  32.539  0.00  0.00    +0.000 NA
ATOM     10  C   UNL     1      35.533  29.656  33.784  0.00  0.00    +0.000 A 
ATOM     11  N   UNL     1      35.866  28.363  34.019  0.00  0.00    +0.000 NA
ENDROOT
BRANCH   5  12
ATOM     12  C   UNL     1      39.335  24.197  34.536  0.00  0.00    +0.000 A 
ATOM     13  C   UNL     1      40.586  23.816  34.090  0.00  0.00    +0.000 A 
ATOM     14  C   UNL     1      41.537  23.198  34.878  0.00  0.00    +0.000 A 
ATOM     15  C   UNL     1      41.253  22.928  36.203  0.00  0.00    +0.000 A 
ATOM     16  C   UNL     1      40.041  23.285  36.678  0.00  0.00    +0.000 A 
ATOM     17  C   UNL     1      39.751  23.016  38.003  0.00  0.00    +0.000 A 
ATOM     18  C   UNL     1      38.554  23.339  38.571  0.00  0.00    +0.000 A 
ATOM     19  C   UNL     1      37.611  23.962  37.757  0.00  0.00    +0.000 A 
ATOM     20  C   UNL     1      37.936  24.209  36.460  0.00  0.00    +0.000 A 
ATOM     21  C   UNL     1      39.119  23.896  35.872  0.00  0.00    +0.000 A 
ENDBRANCH   5  12
BRANCH  10  22
ATOM     22  C   UNL     1      34.866  30.415  34.829  0.00  0.00    +0.000 A 
ATOM     23  N   UNL     1      33.597  30.639  35.190  0.00  0.00    +0.000 NA
ATOM     24  O   UNL     1      33.541  31.421  36.235  0.00  0.00    +0.000 OA
ATOM     25  C   UNL     1      34.789  31.721  36.575  0.00  0.00    +0.000 A 
ATOM     26  N   UNL     1      35.629  31.108  35.718  0.00  0.00    +0.000 NA
BRANCH  25  27
ATOM     27  O   UNL     1      35.027  32.538  37.654  0.00  0.00    +0.000 OA
ATOM     28  H   UNL     1      35.957  32.763  37.909  0.00  0.00    +0.000 HD
ENDBRANCH  25  27
ENDBRANCH  10  22
TORSDOF 3
