REMARK  Name = 
REMARK  2 active torsions:
REMARK  status: ('A' for Active; 'I' for Inactive)
REMARK    1  A    between atoms: C_3  and  N_17
REMARK    2  A    between atoms: C_5  and  C_7
REMARK                            x       y       z     vdW  Elec       q    Type
REMARK                         _______ _______ _______ _____ _____    ______ ____
ROOT
ATOM      1  C   UNL     1      36.803  24.325  31.878  0.00  0.00    +0.000 A 
ATOM      2  C   UNL     1      36.303  25.628  31.876  0.00  0.00    +0.000 A 
ATOM      3  C   UNL     1      36.840  26.450  32.846  0.00  0.00    +0.000 A 
ATOM      4  N   UNL     1      37.751  25.950  33.664  0.00  0.00    +0.000 NA
ATOM      5  C   UNL     1      38.236  24.738  33.688  0.00  0.00    +0.000 A 
ATOM      6  N   UNL     1      37.725  23.944  32.761  0.00  0.00    +0.000 NA
ENDROOT
BRANCH   3   7
ATOM      7  N   UNL     1      36.430  27.798  32.966  0.00  0.00    +0.000 N 
ATOM      8  C   UNL     1      36.490  28.755  32.025  0.00  0.00    +0.000 A 
ATOM      9  N   UNL     1      36.016  29.906  32.486  0.00  0.00    +0.000 NA
ATOM     10  C   UNL     1      35.642  29.690  33.752  0.00  0.00    +0.000 A 
ATOM     11  N   UNL     1      35.898  28.398  34.036  0.00  0.00    +0.000 NA
ATOM     12  N   UNL     1      35.062  30.528  34.773  0.00  0.00    +0.000 N 
ATOM     13  C   UNL     1      35.939  31.122  35.632  0.00  0.00    +0.000 A 
ATOM     14  C   UNL     1      35.321  31.906  36.580  0.00  0.00    +0.000 A 
ATOM     15  C   UNL     1      33.983  32.112  36.705  0.00  0.00    +0.000 A 
ATOM     16  O   UNL     1      33.470  32.842  37.593  0.00  0.00    +0.000 OA
ATOM     17  N   UNL     1      33.168  31.491  35.817  0.00  0.00    +0.000 N 
ATOM     18  C   UNL     1      33.725  30.705  34.861  0.00  0.00    +0.000 A 
ATOM     19  O   UNL     1      33.050  30.085  33.988  0.00  0.00    +0.000 OA
ATOM     20  H   UNL     1      32.147  31.613  35.867  0.00  0.00    +0.000 HD
ENDBRANCH   3   7
BRANCH   5  21
ATOM     21  C   UNL     1      39.218  24.084  34.521  0.00  0.00    +0.000 A 
ATOM     22  C   UNL     1      40.435  23.638  34.014  0.00  0.00    +0.000 A 
ATOM     23  C   UNL     1      41.400  23.010  34.769  0.00  0.00    +0.000 A 
ATOM     24  C   UNL     1      41.187  22.791  36.109  0.00  0.00    +0.000 A 
ATOM     25  C   UNL     1      40.021  23.203  36.657  0.00  0.00    +0.000 A 
ATOM     26  C   UNL     1      39.814  22.978  38.008  0.00  0.00    +0.000 A 
ATOM     27  C   UNL     1      38.664  23.364  38.636  0.00  0.00    +0.000 A 
ATOM     28  C   UNL     1      37.707  23.995  37.852  0.00  0.00    +0.000 A 
ATOM     29  C   UNL     1      37.946  24.202  36.514  0.00  0.00    +0.000 A 
ATOM     30  C   UNL     1      39.085  23.825  35.870  0.00  0.00    +0.000 A 
ENDBRANCH   5  21
TORSDOF 2
