REMARK  Name = 
REMARK  2 active torsions:
REMARK  status: ('A' for Active; 'I' for Inactive)
REMARK    1  A    between atoms: C_3  and  N_17
REMARK    2  A    between atoms: C_5  and  C_7
REMARK                            x       y       z     vdW  Elec       q    Type
REMARK                         _______ _______ _______ _____ _____    ______ ____
ROOT
ATOM      1  C   UNL     1      36.575  23.725  31.910  0.00  0.00    +0.000 A 
ATOM      2  C   UNL     1      36.120  25.035  31.772  0.00  0.00    +0.000 A 
ATOM      3  C   UNL     1      36.728  25.943  32.623  0.00  0.00    +0.000 A 
ATOM      4  N   UNL     1      37.653  25.507  33.463  0.00  0.00    +0.000 NA
ATOM      5  C   UNL     1      38.095  24.278  33.609  0.00  0.00    +0.000 A 
ATOM      6  N   UNL     1      37.519  23.419  32.801  0.00  0.00    +0.000 NA
ENDROOT
BRANCH   3   7
ATOM      7  N   UNL     1      36.368  27.309  32.597  0.00  0.00    +0.000 N 
ATOM      8  C   UNL     1      36.033  28.044  31.523  0.00  0.00    +0.000 A 
ATOM      9  N   UNL     1      35.754  29.292  31.875  0.00  0.00    +0.000 NA
ATOM     10  C   UNL     1      35.909  29.371  33.195  0.00  0.00    +0.000 A 
ATOM     11  N   UNL     1      36.282  28.157  33.614  0.00  0.00    +0.000 NA
ATOM     12  N   UNL     1      35.713  30.526  33.979  0.00  0.00    +0.000 N 
ATOM     13  C   UNL     1      35.310  31.783  33.425  0.00  0.00    +0.000 C 
ATOM     14  C   UNL     1      36.200  32.909  33.900  0.00  0.00    +0.000 C 
ATOM     15  C   UNL     1      36.401  32.900  35.392  0.00  0.00    +0.000 C 
ATOM     16  C   UNL     1      35.701  31.770  36.091  0.00  0.00    +0.000 C 
ATOM     17  C   UNL     1      35.926  30.448  35.426  0.00  0.00    +0.000 C 
ENDBRANCH   3   7
BRANCH   5  18
ATOM     18  C   UNL     1      39.086  23.686  34.476  0.00  0.00    +0.000 A 
ATOM     19  C   UNL     1      40.260  23.150  33.981  0.00  0.00    +0.000 A 
ATOM     20  C   UNL     1      41.232  22.575  34.772  0.00  0.00    +0.000 A 
ATOM     21  C   UNL     1      41.072  22.508  36.136  0.00  0.00    +0.000 A 
ATOM     22  C   UNL     1      39.935  23.023  36.667  0.00  0.00    +0.000 A 
ATOM     23  C   UNL     1      39.763  22.961  38.047  0.00  0.00    +0.000 A 
ATOM     24  C   UNL     1      38.661  23.450  38.662  0.00  0.00    +0.000 A 
ATOM     25  C   UNL     1      37.693  24.025  37.849  0.00  0.00    +0.000 A 
ATOM     26  C   UNL     1      37.883  24.075  36.491  0.00  0.00    +0.000 A 
ATOM     27  C   UNL     1      38.977  23.592  35.859  0.00  0.00    +0.000 A 
ENDBRANCH   5  18
TORSDOF 2
