REMARK  Name = 
REMARK  4 active torsions:
REMARK  status: ('A' for Active; 'I' for Inactive)
REMARK    1  A    between atoms: C_3  and  C_18
REMARK    2  A    between atoms: C_5  and  C_7
REMARK    3  A    between atoms: C_7  and  C_8
REMARK    4  A    between atoms: C_18  and  C_20
REMARK                            x       y       z     vdW  Elec       q    Type
REMARK                         _______ _______ _______ _____ _____    ______ ____
ROOT
ATOM      1  C   UNL     1      35.660  28.702  32.735  0.00  0.00    +0.000 A 
ATOM      2  C   UNL     1      35.496  27.658  31.839  0.00  0.00    +0.000 A 
ATOM      3  C   UNL     1      36.144  26.427  32.119  0.00  0.00    +0.000 A 
ATOM      4  N   UNL     1      36.896  26.365  33.276  0.00  0.00    +0.000 NA
ATOM      5  C   UNL     1      37.016  27.396  34.094  0.00  0.00    +0.000 A 
ATOM      6  N   UNL     1      36.407  28.559  33.834  0.00  0.00    +0.000 NA
ENDROOT
BRANCH   3   7
ATOM      7  C   UNL     1      36.038  25.305  31.222  0.00  0.00    +0.000 C 
ATOM      8  O   UNL     1      35.008  25.267  30.475  0.00  0.00    +0.000 OA
BRANCH   7   9
ATOM      9  C   UNL     1      36.830  24.124  30.912  0.00  0.00    +0.000 A 
ATOM     10  N   UNL     1      37.969  24.292  30.221  0.00  0.00    +0.000 NA
ATOM     11  C   UNL     1      38.780  23.240  29.882  0.00  0.00    +0.000 A 
ATOM     12  N   UNL     1      38.465  21.980  30.232  0.00  0.00    +0.000 NA
ATOM     13  C   UNL     1      37.338  21.714  30.930  0.00  0.00    +0.000 A 
ATOM     14  C   UNL     1      36.987  20.440  31.316  0.00  0.00    +0.000 A 
ATOM     15  C   UNL     1      35.840  20.189  32.039  0.00  0.00    +0.000 A 
ATOM     16  C   UNL     1      35.055  21.302  32.357  0.00  0.00    +0.000 A 
ATOM     17  C   UNL     1      35.442  22.538  31.955  0.00  0.00    +0.000 A 
ATOM     18  C   UNL     1      36.571  22.812  31.237  0.00  0.00    +0.000 A 
ENDBRANCH   7   9
ENDBRANCH   3   7
BRANCH   5  19
ATOM     19  C   UNL     1      37.840  27.345  35.341  0.00  0.00    +0.000 C 
BRANCH  19  20
ATOM     20  C   UNL     1      39.040  26.524  35.209  0.00  0.00    +0.000 A 
ATOM     21  C   UNL     1      40.158  27.008  34.530  0.00  0.00    +0.000 A 
ATOM     22  C   UNL     1      41.300  26.249  34.415  0.00  0.00    +0.000 A 
ATOM     23  C   UNL     1      41.372  24.973  34.975  0.00  0.00    +0.000 A 
ATOM     24  C   UNL     1      40.258  24.504  35.646  0.00  0.00    +0.000 A 
ATOM     25  C   UNL     1      40.330  23.239  36.203  0.00  0.00    +0.000 A 
ATOM     26  C   UNL     1      39.249  22.711  36.890  0.00  0.00    +0.000 A 
ATOM     27  C   UNL     1      38.085  23.473  37.013  0.00  0.00    +0.000 A 
ATOM     28  C   UNL     1      38.065  24.739  36.433  0.00  0.00    +0.000 A 
ATOM     29  C   UNL     1      39.123  25.287  35.747  0.00  0.00    +0.000 A 
ENDBRANCH  19  20
ENDBRANCH   5  19
TORSDOF 4
