REMARK  Name = 
REMARK  3 active torsions:
REMARK  status: ('A' for Active; 'I' for Inactive)
REMARK    1  A    between atoms: C_3  and  N_17
REMARK    2  A    between atoms: C_5  and  C_7
REMARK    3  A    between atoms: C_19  and  C_22
REMARK                            x       y       z     vdW  Elec       q    Type
REMARK                         _______ _______ _______ _____ _____    ______ ____
ROOT
ATOM      1  C   UNL     1      40.531  22.557  36.899  0.00  0.00    +0.000 A 
ATOM      2  C   UNL     1      39.948  23.567  36.099  0.00  0.00    +0.000 A 
ATOM      3  C   UNL     1      40.842  24.384  35.431  0.00  0.00    +0.000 A 
ATOM      4  N   UNL     1      42.145  24.148  35.601  0.00  0.00    +0.000 NA
ATOM      5  C   UNL     1      42.694  23.194  36.356  0.00  0.00    +0.000 A 
ATOM      6  N   UNL     1      41.848  22.397  37.008  0.00  0.00    +0.000 NA
ENDROOT
BRANCH   5   7
ATOM      7  C   UNL     1      44.151  23.215  36.319  0.00  0.00    +0.000 A 
ATOM      8  C   UNL     1      44.863  22.317  35.550  0.00  0.00    +0.000 A 
ATOM      9  C   UNL     1      46.230  22.288  35.475  0.00  0.00    +0.000 A 
ATOM     10  C   UNL     1      46.994  23.193  36.195  0.00  0.00    +0.000 A 
ATOM     11  C   UNL     1      46.324  24.099  36.969  0.00  0.00    +0.000 A 
ATOM     12  C   UNL     1      47.087  25.001  37.687  0.00  0.00    +0.000 A 
ATOM     13  C   UNL     1      46.504  25.949  38.493  0.00  0.00    +0.000 A 
ATOM     14  C   UNL     1      45.096  25.947  38.543  0.00  0.00    +0.000 A 
ATOM     15  C   UNL     1      44.384  25.029  37.811  0.00  0.00    +0.000 A 
ATOM     16  C   UNL     1      44.958  24.088  37.012  0.00  0.00    +0.000 A 
ENDBRANCH   5   7
BRANCH   3  17
ATOM     17  N   UNL     1      40.391  25.458  34.572  0.00  0.00    +0.000 N 
ATOM     18  C   UNL     1      39.148  25.508  34.115  0.00  0.00    +0.000 A 
ATOM     19  C   UNL     1      39.042  26.620  33.345  0.00  0.00    +0.000 A 
ATOM     20  N   UNL     1      40.224  27.212  33.357  0.00  0.00    +0.000 NA
ATOM     21  C   UNL     1      41.086  26.513  34.113  0.00  0.00    +0.000 A 
BRANCH  19  22
ATOM     22  C   UNL     1      37.728  26.891  32.717  0.00  0.00    +0.000 A 
ATOM     23  N   UNL     1      37.140  28.103  32.643  0.00  0.00    +0.000 NA
ATOM     24  C   UNL     1      35.969  28.360  32.087  0.00  0.00    +0.000 A 
ATOM     25  N   UNL     1      35.235  27.386  31.521  0.00  0.00    +0.000 NA
ATOM     26  C   UNL     1      35.732  26.138  31.541  0.00  0.00    +0.000 A 
ATOM     27  C   UNL     1      34.989  25.132  30.964  0.00  0.00    +0.000 A 
ATOM     28  C   UNL     1      35.435  23.834  30.947  0.00  0.00    +0.000 A 
ATOM     29  C   UNL     1      36.676  23.565  31.538  0.00  0.00    +0.000 A 
ATOM     30  C   UNL     1      37.371  24.610  32.097  0.00  0.00    +0.000 A 
ATOM     31  C   UNL     1      36.957  25.917  32.131  0.00  0.00    +0.000 A 
ENDBRANCH  19  22
ENDBRANCH   3  17
TORSDOF 3
