REMARK  Name = 
REMARK  3 active torsions:
REMARK  status: ('A' for Active; 'I' for Inactive)
REMARK    1  A    between atoms: C_1  and  N_36
REMARK    2  A    between atoms: C_9  and  C_27
REMARK    3  A    between atoms: C_11  and  C_12
REMARK                            x       y       z     vdW  Elec       q    Type
REMARK                         _______ _______ _______ _____ _____    ______ ____
ROOT
ATOM      1  C   UNL     1      38.915  23.693  36.120  0.00  0.00    +0.000 A 
ATOM      2  C   UNL     1      40.317  23.894  36.059  0.00  0.00    +0.000 A 
ATOM      3  C   UNL     1      40.771  24.930  35.278  0.00  0.00    +0.000 A 
ATOM      4  N   UNL     1      39.833  25.647  34.651  0.00  0.00    +0.000 NA
ATOM      5  C   UNL     1      38.545  25.480  34.692  0.00  0.00    +0.000 A 
ATOM      6  N   UNL     1      38.076  24.473  35.449  0.00  0.00    +0.000 NA
ATOM      7  N   UNL     1      37.780  26.388  33.936  0.00  0.00    +0.000 N 
ATOM      8  C   UNL     1      36.982  27.270  34.595  0.00  0.00    +0.000 A 
ATOM      9  C   UNL     1      36.334  28.065  33.683  0.00  0.00    +0.000 A 
ATOM     10  N   UNL     1      36.748  27.654  32.485  0.00  0.00    +0.000 NA
ATOM     11  C   UNL     1      37.642  26.616  32.630  0.00  0.00    +0.000 A 
ENDROOT
BRANCH  11  12
ATOM     12  C   UNL     1      38.259  25.928  31.544  0.00  0.00    +0.000 A 
ATOM     13  C   UNL     1      38.743  26.603  30.405  0.00  0.00    +0.000 A 
ATOM     14  N   UNL     1      39.255  25.687  29.521  0.00  0.00    +0.000 NA
ATOM     15  C   UNL     1      39.081  24.437  30.126  0.00  0.00    +0.000 A 
ATOM     16  N   UNL     1      38.503  24.663  31.292  0.00  0.00    +0.000 N 
ATOM     17  C   UNL     1      38.430  23.389  31.860  0.00  0.00    +0.000 A 
ATOM     18  N   UNL     1      39.551  23.059  32.502  0.00  0.00    +0.000 NA
ATOM     19  C   UNL     1      39.672  21.827  33.061  0.00  0.00    +0.000 A 
ATOM     20  N   UNL     1      38.723  20.896  33.013  0.00  0.00    +0.000 NA
ATOM     21  C   UNL     1      37.571  21.182  32.373  0.00  0.00    +0.000 A 
ATOM     22  C   UNL     1      36.513  20.321  32.241  0.00  0.00    +0.000 A 
ATOM     23  C   UNL     1      35.377  20.664  31.582  0.00  0.00    +0.000 A 
ATOM     24  C   UNL     1      35.273  21.932  31.017  0.00  0.00    +0.000 A 
ATOM     25  C   UNL     1      36.295  22.842  31.112  0.00  0.00    +0.000 A 
ATOM     26  C   UNL     1      37.417  22.446  31.788  0.00  0.00    +0.000 A 
ENDBRANCH  11  12
BRANCH   9  27
ATOM     27  C   UNL     1      35.384  29.153  33.761  0.00  0.00    +0.000 A 
ATOM     28  C   UNL     1      34.254  29.261  32.965  0.00  0.00    +0.000 A 
ATOM     29  N   UNL     1      33.571  30.380  33.271  0.00  0.00    +0.000 N 
ATOM     30  C   UNL     1      34.185  31.057  34.253  0.00  0.00    +0.000 A 
ATOM     31  C   UNL     1      33.939  32.226  34.934  0.00  0.00    +0.000 A 
ATOM     32  C   UNL     1      34.755  32.694  35.917  0.00  0.00    +0.000 A 
ATOM     33  C   UNL     1      35.861  31.919  36.195  0.00  0.00    +0.000 A 
ATOM     34  C   UNL     1      36.115  30.756  35.523  0.00  0.00    +0.000 A 
ATOM     35  C   UNL     1      35.290  30.283  34.532  0.00  0.00    +0.000 A 
ATOM     36  H   UNL     1      32.697  30.676  32.814  0.00  0.00    +0.000 HD
ENDBRANCH   9  27
BRANCH   1  37
ATOM     37  N   UNL     1      38.404  22.623  36.942  0.00  0.00    +0.000 N 
ATOM     38  H   UNL     1      37.389  22.459  37.001  0.00  0.00    +0.000 HD
ATOM     39  H   UNL     1      39.054  22.023  37.470  0.00  0.00    +0.000 HD
ENDBRANCH   1  37
TORSDOF 3
