REMARK  Name = 
REMARK  4 active torsions:
REMARK  status: ('A' for Active; 'I' for Inactive)
REMARK    1  A    between atoms: C_3  and  N_17
REMARK    2  A    between atoms: C_5  and  C_7
REMARK    3  A    between atoms: C_20  and  C_25
REMARK    4  A    between atoms: C_22  and  S_28
REMARK                            x       y       z     vdW  Elec       q    Type
REMARK                         _______ _______ _______ _____ _____    ______ ____
ROOT
ATOM      1  C   UNL     1      36.334  22.877  32.052  0.00  0.00    +0.000 A 
ATOM      2  C   UNL     1      35.983  24.160  31.630  0.00  0.00    +0.000 A 
ATOM      3  C   UNL     1      36.725  25.172  32.217  0.00  0.00    +0.000 A 
ATOM      4  N   UNL     1      37.670  24.850  33.095  0.00  0.00    +0.000 NA
ATOM      5  C   UNL     1      38.006  23.646  33.497  0.00  0.00    +0.000 A 
ATOM      6  N   UNL     1      37.302  22.678  32.940  0.00  0.00    +0.000 NA
ENDROOT
BRANCH   5   7
ATOM      7  C   UNL     1      39.003  23.166  34.434  0.00  0.00    +0.000 A 
ATOM      8  C   UNL     1      40.162  22.550  34.020  0.00  0.00    +0.000 A 
ATOM      9  C   UNL     1      41.143  22.073  34.860  0.00  0.00    +0.000 A 
ATOM     10  C   UNL     1      40.985  22.205  36.220  0.00  0.00    +0.000 A 
ATOM     11  C   UNL     1      39.866  22.802  36.683  0.00  0.00    +0.000 A 
ATOM     12  C   UNL     1      39.715  22.932  38.058  0.00  0.00    +0.000 A 
ATOM     13  C   UNL     1      38.617  23.521  38.620  0.00  0.00    +0.000 A 
ATOM     14  C   UNL     1      37.640  23.993  37.734  0.00  0.00    +0.000 A 
ATOM     15  C   UNL     1      37.822  23.848  36.386  0.00  0.00    +0.000 A 
ATOM     16  C   UNL     1      38.904  23.268  35.818  0.00  0.00    +0.000 A 
ENDBRANCH   5   7
BRANCH   3  17
ATOM     17  N   UNL     1      36.499  26.531  31.903  0.00  0.00    +0.000 N 
ATOM     18  C   UNL     1      36.439  27.070  30.668  0.00  0.00    +0.000 A 
ATOM     19  N   UNL     1      36.214  28.370  30.733  0.00  0.00    +0.000 NA
ATOM     20  C   UNL     1      36.125  28.692  32.035  0.00  0.00    +0.000 A 
ATOM     21  N   UNL     1      36.303  27.547  32.729  0.00  0.00    +0.000 NA
BRANCH  20  25
ATOM     22  C   UNL     1      35.452  31.876  34.736  0.00  0.00    +0.000 A 
ATOM     23  C   UNL     1      35.485  30.553  35.165  0.00  0.00    +0.000 A 
ATOM     24  C   UNL     1      35.710  29.576  34.217  0.00  0.00    +0.000 A 
ATOM     25  C   UNL     1      35.900  29.871  32.880  0.00  0.00    +0.000 A 
ATOM     26  C   UNL     1      35.868  31.198  32.442  0.00  0.00    +0.000 A 
ATOM     27  C   UNL     1      35.642  32.164  33.401  0.00  0.00    +0.000 A 
BRANCH  22  28
ATOM     28  S   UNL     1      35.177  33.197  35.830  0.00  0.00    +0.000 S 
ATOM     29  O   UNL     1      36.371  34.099  35.857  0.00  0.00    +0.000 OA
ATOM     30  O   UNL     1      34.962  32.599  37.210  0.00  0.00    +0.000 OA
ATOM     31  H   UNL     1      34.091  33.932  35.434  0.00  0.00    +0.000 HD
ENDBRANCH  22  28
ENDBRANCH  20  25
ENDBRANCH   3  17
TORSDOF 4
