REMARK  Name = 
REMARK  3 active torsions:
REMARK  status: ('A' for Active; 'I' for Inactive)
REMARK    1  A    between atoms: C_3  and  N_7
REMARK    2  A    between atoms: C_5  and  C_12
REMARK    3  A    between atoms: C_10  and  C_22
REMARK                            x       y       z     vdW  Elec       q    Type
REMARK                         _______ _______ _______ _____ _____    ______ ____
ROOT
ATOM      1  N   UNL     1      36.981  27.488  32.558  0.00  0.00    +0.000 N 
ATOM      2  C   UNL     1      37.107  28.513  31.706  0.00  0.00    +0.000 A 
ATOM      3  N   UNL     1      36.400  29.551  32.102  0.00  0.00    +0.000 NA
ATOM      4  C   UNL     1      35.797  29.202  33.238  0.00  0.00    +0.000 A 
ATOM      5  N   UNL     1      36.172  27.929  33.495  0.00  0.00    +0.000 NA
ENDROOT
BRANCH   4   6
ATOM      6  C   UNL     1      34.891  29.880  34.168  0.00  0.00    +0.000 A 
ATOM      7  N   UNL     1      33.750  29.568  34.785  0.00  0.00    +0.000 NA
ATOM      8  O   UNL     1      33.338  30.547  35.526  0.00  0.00    +0.000 OA
ATOM      9  C   UNL     1      34.219  31.542  35.407  0.00  0.00    +0.000 A 
ATOM     10  N   UNL     1      35.188  31.138  34.565  0.00  0.00    +0.000 NA
ATOM     11  N   UNL     1      34.076  32.785  36.093  0.00  0.00    +0.000 N 
ATOM     12  C   UNL     1      34.347  33.030  37.386  0.00  0.00    +0.000 A 
ATOM     13  C   UNL     1      34.143  34.321  37.882  0.00  0.00    +0.000 A 
ATOM     14  C   UNL     1      33.665  35.305  37.015  0.00  0.00    +0.000 A 
ATOM     15  O   UNL     1      33.486  36.446  37.460  0.00  0.00    +0.000 OA
ATOM     16  N   UNL     1      33.402  35.030  35.723  0.00  0.00    +0.000 N 
ATOM     17  C   UNL     1      33.611  33.770  35.280  0.00  0.00    +0.000 A 
ATOM     18  O   UNL     1      33.334  33.618  34.052  0.00  0.00    +0.000 OA
ATOM     19  H   UNL     1      33.050  35.761  35.089  0.00  0.00    +0.000 HD
ENDBRANCH   4   6
BRANCH   1  22
ATOM     20  C   UNL     1      38.107  24.197  31.380  0.00  0.00    +0.000 A 
ATOM     21  C   UNL     1      37.447  25.419  31.327  0.00  0.00    +0.000 A 
ATOM     22  C   UNL     1      37.595  26.210  32.458  0.00  0.00    +0.000 A 
ATOM     23  N   UNL     1      38.329  25.750  33.460  0.00  0.00    +0.000 NA
ATOM     24  C   UNL     1      38.958  24.595  33.522  0.00  0.00    +0.000 A 
ATOM     25  N   UNL     1      38.815  23.859  32.459  0.00  0.00    +0.000 NA
BRANCH  24  26
ATOM     26  C   UNL     1      39.783  23.983  34.549  0.00  0.00    +0.000 A 
ATOM     27  C   UNL     1      41.073  23.567  34.285  0.00  0.00    +0.000 A 
ATOM     28  C   UNL     1      41.898  22.980  35.224  0.00  0.00    +0.000 A 
ATOM     29  C   UNL     1      41.446  22.775  36.523  0.00  0.00    +0.000 A 
ATOM     30  C   UNL     1      40.186  23.172  36.816  0.00  0.00    +0.000 A 
ATOM     31  C   UNL     1      39.723  22.974  38.104  0.00  0.00    +0.000 A 
ATOM     32  C   UNL     1      38.463  23.341  38.500  0.00  0.00    +0.000 A 
ATOM     33  C   UNL     1      37.645  23.930  37.541  0.00  0.00    +0.000 A 
ATOM     34  C   UNL     1      38.133  24.113  36.270  0.00  0.00    +0.000 A 
ATOM     35  C   UNL     1      39.381  23.754  35.867  0.00  0.00    +0.000 A 
ENDBRANCH  24  26
ENDBRANCH   1  22
TORSDOF 3
