REMARK  Name = 
REMARK  2 active torsions:
REMARK  status: ('A' for Active; 'I' for Inactive)
REMARK    1  A    between atoms: C_3  and  N_17
REMARK    2  A    between atoms: C_5  and  C_7
REMARK                            x       y       z     vdW  Elec       q    Type
REMARK                         _______ _______ _______ _____ _____    ______ ____
ROOT
ATOM      1  C   UNL     1      36.577  23.399  31.959  0.00  0.00    +0.000 A 
ATOM      2  C   UNL     1      36.231  24.727  31.726  0.00  0.00    +0.000 A 
ATOM      3  C   UNL     1      36.909  25.634  32.519  0.00  0.00    +0.000 A 
ATOM      4  N   UNL     1      37.793  25.190  33.397  0.00  0.00    +0.000 NA
ATOM      5  C   UNL     1      38.127  23.941  33.626  0.00  0.00    +0.000 A 
ATOM      6  N   UNL     1      37.489  23.074  32.877  0.00  0.00    +0.000 NA
ENDROOT
BRANCH   3   7
ATOM      7  N   UNL     1      36.668  27.040  32.402  0.00  0.00    +0.000 N 
ATOM      8  C   UNL     1      37.138  27.854  31.452  0.00  0.00    +0.000 A 
ATOM      9  N   UNL     1      36.719  29.098  31.646  0.00  0.00    +0.000 NA
ATOM     10  C   UNL     1      35.962  29.078  32.752  0.00  0.00    +0.000 A 
ATOM     11  N   UNL     1      35.947  27.807  33.193  0.00  0.00    +0.000 NA
ATOM     12  N   UNL     1      35.199  30.007  33.549  0.00  0.00    +0.000 N 
ATOM     13  C   UNL     1      35.568  31.022  34.360  0.00  0.00    +0.000 A 
ATOM     14  N   UNL     1      34.439  31.580  34.874  0.00  0.00    +0.000 NA
ATOM     15  C   UNL     1      33.371  30.903  34.378  0.00  0.00    +0.000 A 
ATOM     16  C   UNL     1      32.036  31.141  34.643  0.00  0.00    +0.000 A 
ATOM     17  N   UNL     1      31.169  30.312  34.010  0.00  0.00    +0.000 NA
ATOM     18  C   UNL     1      31.618  29.336  33.191  0.00  0.00    +0.000 A 
ATOM     19  N   UNL     1      32.932  29.104  32.932  0.00  0.00    +0.000 NA
ATOM     20  C   UNL     1      33.839  29.911  33.543  0.00  0.00    +0.000 A 
ENDBRANCH   3   7
BRANCH   5  21
ATOM     21  C   UNL     1      39.067  23.330  34.546  0.00  0.00    +0.000 A 
ATOM     22  C   UNL     1      40.161  22.616  34.107  0.00  0.00    +0.000 A 
ATOM     23  C   UNL     1      41.087  22.013  34.936  0.00  0.00    +0.000 A 
ATOM     24  C   UNL     1      40.945  22.107  36.296  0.00  0.00    +0.000 A 
ATOM     25  C   UNL     1      39.886  22.796  36.780  0.00  0.00    +0.000 A 
ATOM     26  C   UNL     1      39.744  22.890  38.160  0.00  0.00    +0.000 A 
ATOM     27  C   UNL     1      38.704  23.567  38.734  0.00  0.00    +0.000 A 
ATOM     28  C   UNL     1      37.786  24.165  37.879  0.00  0.00    +0.000 A 
ATOM     29  C   UNL     1      37.953  24.055  36.519  0.00  0.00    +0.000 A 
ATOM     30  C   UNL     1      38.972  23.391  35.934  0.00  0.00    +0.000 A 
ENDBRANCH   5  21
TORSDOF 2
