REMARK  Name = 
REMARK  3 active torsions:
REMARK  status: ('A' for Active; 'I' for Inactive)
REMARK    1  A    between atoms: C_1  and  N_35
REMARK    2  A    between atoms: C_9  and  N_27
REMARK    3  A    between atoms: C_11  and  C_12
REMARK                            x       y       z     vdW  Elec       q    Type
REMARK                         _______ _______ _______ _____ _____    ______ ____
ROOT
ATOM      1  C   UNL     1      38.827  23.565  36.099  0.00  0.00    +0.000 A 
ATOM      2  C   UNL     1      40.243  23.676  36.035  0.00  0.00    +0.000 A 
ATOM      3  C   UNL     1      40.756  24.711  35.298  0.00  0.00    +0.000 A 
ATOM      4  N   UNL     1      39.858  25.517  34.709  0.00  0.00    +0.000 NA
ATOM      5  C   UNL     1      38.562  25.437  34.753  0.00  0.00    +0.000 A 
ATOM      6  N   UNL     1      38.038  24.430  35.470  0.00  0.00    +0.000 NA
ATOM      7  N   UNL     1      37.859  26.424  34.045  0.00  0.00    +0.000 N 
ATOM      8  C   UNL     1      37.121  27.323  34.753  0.00  0.00    +0.000 A 
ATOM      9  C   UNL     1      36.520  28.195  33.872  0.00  0.00    +0.000 A 
ATOM     10  N   UNL     1      36.894  27.821  32.658  0.00  0.00    +0.000 NA
ATOM     11  C   UNL     1      37.727  26.719  32.750  0.00  0.00    +0.000 A 
ENDROOT
BRANCH  11  12
ATOM     12  C   UNL     1      38.289  26.041  31.631  0.00  0.00    +0.000 A 
ATOM     13  C   UNL     1      38.778  26.732  30.503  0.00  0.00    +0.000 A 
ATOM     14  N   UNL     1      39.233  25.822  29.579  0.00  0.00    +0.000 NA
ATOM     15  C   UNL     1      39.019  24.563  30.149  0.00  0.00    +0.000 A 
ATOM     16  N   UNL     1      38.475  24.776  31.334  0.00  0.00    +0.000 N 
ATOM     17  C   UNL     1      38.359  23.487  31.863  0.00  0.00    +0.000 A 
ATOM     18  N   UNL     1      39.481  23.091  32.472  0.00  0.00    +0.000 NA
ATOM     19  C   UNL     1      39.559  21.837  32.987  0.00  0.00    +0.000 A 
ATOM     20  N   UNL     1      38.568  20.947  32.927  0.00  0.00    +0.000 NA
ATOM     21  C   UNL     1      37.417  21.304  32.323  0.00  0.00    +0.000 A 
ATOM     22  C   UNL     1      36.325  20.490  32.191  0.00  0.00    +0.000 A 
ATOM     23  C   UNL     1      35.186  20.904  31.566  0.00  0.00    +0.000 A 
ATOM     24  C   UNL     1      35.125  22.194  31.043  0.00  0.00    +0.000 A 
ATOM     25  C   UNL     1      36.189  23.054  31.146  0.00  0.00    +0.000 A 
ATOM     26  C   UNL     1      37.308  22.590  31.783  0.00  0.00    +0.000 A 
ENDBRANCH  11  12
BRANCH   9  27
ATOM     27  N   UNL     1      35.655  29.293  34.204  0.00  0.00    +0.000 N 
ATOM     28  C   UNL     1      35.998  30.184  35.153  0.00  0.00    +0.000 A 
ATOM     29  C   UNL     1      35.121  31.221  35.427  0.00  0.00    +0.000 A 
ATOM     30  C   UNL     1      33.914  31.348  34.744  0.00  0.00    +0.000 A 
ATOM     31  O   UNL     1      33.100  32.299  34.987  0.00  0.00    +0.000 OA
ATOM     32  N   UNL     1      33.612  30.440  33.805  0.00  0.00    +0.000 N 
ATOM     33  C   UNL     1      34.487  29.422  33.548  0.00  0.00    +0.000 A 
ATOM     34  O   UNL     1      34.098  28.628  32.645  0.00  0.00    +0.000 OA
ATOM     35  H   UNL     1      32.728  30.509  33.282  0.00  0.00    +0.000 HD
ENDBRANCH   9  27
BRANCH   1  36
ATOM     36  N   UNL     1      38.250  22.497  36.879  0.00  0.00    +0.000 N 
ATOM     37  H   UNL     1      37.227  22.398  36.939  0.00  0.00    +0.000 HD
ATOM     38  H   UNL     1      38.862  21.834  37.376  0.00  0.00    +0.000 HD
ENDBRANCH   1  36
TORSDOF 3
