REMARK  Name = 
REMARK  3 active torsions:
REMARK  status: ('A' for Active; 'I' for Inactive)
REMARK    1  A    between atoms: C_3  and  N_17
REMARK    2  A    between atoms: C_5  and  C_7
REMARK    3  A    between atoms: C_20  and  C_22
REMARK                            x       y       z     vdW  Elec       q    Type
REMARK                         _______ _______ _______ _____ _____    ______ ____
ROOT
ATOM      1  C   UNL     1      36.747  24.444  31.899  0.00  0.00    +0.000 A 
ATOM      2  C   UNL     1      36.260  25.747  31.896  0.00  0.00    +0.000 A 
ATOM      3  C   UNL     1      36.804  26.563  32.847  0.00  0.00    +0.000 A 
ATOM      4  N   UNL     1      37.716  26.070  33.667  0.00  0.00    +0.000 NA
ATOM      5  C   UNL     1      38.194  24.847  33.696  0.00  0.00    +0.000 A 
ATOM      6  N   UNL     1      37.672  24.060  32.780  0.00  0.00    +0.000 NA
ENDROOT
BRANCH   5   7
ATOM      7  C   UNL     1      39.179  24.188  34.528  0.00  0.00    +0.000 A 
ATOM      8  C   UNL     1      40.397  23.776  34.019  0.00  0.00    +0.000 A 
ATOM      9  C   UNL     1      41.369  23.146  34.766  0.00  0.00    +0.000 A 
ATOM     10  C   UNL     1      41.153  22.892  36.105  0.00  0.00    +0.000 A 
ATOM     11  C   UNL     1      39.973  23.280  36.643  0.00  0.00    +0.000 A 
ATOM     12  C   UNL     1      39.759  23.025  37.987  0.00  0.00    +0.000 A 
ATOM     13  C   UNL     1      38.608  23.377  38.614  0.00  0.00    +0.000 A 
ATOM     14  C   UNL     1      37.632  24.013  37.848  0.00  0.00    +0.000 A 
ATOM     15  C   UNL     1      37.884  24.249  36.514  0.00  0.00    +0.000 A 
ATOM     16  C   UNL     1      39.024  23.907  35.872  0.00  0.00    +0.000 A 
ENDBRANCH   5   7
BRANCH   3  17
ATOM     17  N   UNL     1      36.409  27.930  32.972  0.00  0.00    +0.000 N 
ATOM     18  C   UNL     1      36.463  28.871  32.025  0.00  0.00    +0.000 A 
ATOM     19  N   UNL     1      36.018  30.029  32.477  0.00  0.00    +0.000 NA
ATOM     20  C   UNL     1      35.660  29.839  33.762  0.00  0.00    +0.000 A 
ATOM     21  N   UNL     1      35.908  28.552  34.037  0.00  0.00    +0.000 NA
BRANCH  20  22
ATOM     22  C   UNL     1      35.105  30.571  34.912  0.00  0.00    +0.000 A 
ATOM     23  C   UNL     1      33.749  30.333  35.099  0.00  0.00    +0.000 A 
ATOM     24  C   UNL     1      33.073  30.945  36.135  0.00  0.00    +0.000 A 
ATOM     25  C   UNL     1      33.826  31.778  36.940  0.00  0.00    +0.000 A 
ATOM     26  C   UNL     1      35.160  32.020  36.767  0.00  0.00    +0.000 A 
ATOM     27  C   UNL     1      35.832  31.409  35.731  0.00  0.00    +0.000 A 
ENDBRANCH  20  22
ENDBRANCH   3  17
TORSDOF 3
