REMARK  Name = 
REMARK  4 active torsions:
REMARK  status: ('A' for Active; 'I' for Inactive)
REMARK    1  A    between atoms: C_3  and  N_7
REMARK    2  A    between atoms: C_5  and  C_12
REMARK    3  A    between atoms: C_10  and  C_22
REMARK    4  A    between atoms: C_25  and  C_27
REMARK                            x       y       z     vdW  Elec       q    Type
REMARK                         _______ _______ _______ _____ _____    ______ ____
ROOT
ATOM      1  N   UNL     1      36.683  27.494  32.697  0.00  0.00    +0.000 N 
ATOM      2  C   UNL     1      36.780  28.460  31.769  0.00  0.00    +0.000 A 
ATOM      3  N   UNL     1      36.198  29.566  32.183  0.00  0.00    +0.000 NA
ATOM      4  C   UNL     1      35.710  29.311  33.415  0.00  0.00    +0.000 A 
ATOM      5  N   UNL     1      36.022  28.024  33.708  0.00  0.00    +0.000 NA
ENDROOT
BRANCH   1   8
ATOM      6  C   UNL     1      37.402  24.067  31.593  0.00  0.00    +0.000 A 
ATOM      7  C   UNL     1      36.831  25.329  31.549  0.00  0.00    +0.000 A 
ATOM      8  C   UNL     1      37.189  26.166  32.603  0.00  0.00    +0.000 A 
ATOM      9  N   UNL     1      38.011  25.709  33.523  0.00  0.00    +0.000 NA
ATOM     10  C   UNL     1      38.564  24.514  33.585  0.00  0.00    +0.000 A 
ATOM     11  N   UNL     1      38.227  23.723  32.590  0.00  0.00    +0.000 NA
BRANCH  10  12
ATOM     12  C   UNL     1      39.472  23.897  34.528  0.00  0.00    +0.000 A 
ATOM     13  C   UNL     1      40.718  23.426  34.140  0.00  0.00    +0.000 A 
ATOM     14  C   UNL     1      41.617  22.832  34.995  0.00  0.00    +0.000 A 
ATOM     15  C   UNL     1      41.298  22.675  36.331  0.00  0.00    +0.000 A 
ATOM     16  C   UNL     1      40.082  23.123  36.754  0.00  0.00    +0.000 A 
ATOM     17  C   UNL     1      39.765  22.963  38.091  0.00  0.00    +0.000 A 
ATOM     18  C   UNL     1      38.569  23.382  38.605  0.00  0.00    +0.000 A 
ATOM     19  C   UNL     1      37.670  23.982  37.725  0.00  0.00    +0.000 A 
ATOM     20  C   UNL     1      38.028  24.119  36.408  0.00  0.00    +0.000 A 
ATOM     21  C   UNL     1      39.206  23.712  35.878  0.00  0.00    +0.000 A 
ENDBRANCH  10  12
ENDBRANCH   1   8
BRANCH   4  22
ATOM     22  C   UNL     1      34.974  30.101  34.392  0.00  0.00    +0.000 A 
ATOM     23  N   UNL     1      33.853  29.985  35.094  0.00  0.00    +0.000 NA
ATOM     24  O   UNL     1      33.671  31.023  35.837  0.00  0.00    +0.000 OA
ATOM     25  C   UNL     1      34.678  31.878  35.654  0.00  0.00    +0.000 A 
ATOM     26  N   UNL     1      35.469  31.289  34.759  0.00  0.00    +0.000 NA
BRANCH  25  27
ATOM     27  C   UNL     1      34.649  33.136  36.424  0.00  0.00    +0.000 A 
ATOM     28  N   UNL     1      33.798  33.333  37.446  0.00  0.00    +0.000 NA
ATOM     29  C   UNL     1      33.818  34.491  38.105  0.00  0.00    +0.000 A 
ATOM     30  N   UNL     1      34.652  35.531  37.826  0.00  0.00    +0.000 NA
ATOM     31  C   UNL     1      35.538  35.388  36.797  0.00  0.00    +0.000 A 
ATOM     32  C   UNL     1      36.390  36.425  36.496  0.00  0.00    +0.000 A 
ATOM     33  C   UNL     1      37.290  36.295  35.461  0.00  0.00    +0.000 A 
ATOM     34  C   UNL     1      37.291  35.104  34.760  0.00  0.00    +0.000 A 
ATOM     35  C   UNL     1      36.412  34.103  35.112  0.00  0.00    +0.000 A 
ATOM     36  C   UNL     1      35.501  34.179  36.126  0.00  0.00    +0.000 A 
ENDBRANCH  25  27
ENDBRANCH   4  22
TORSDOF 4
