REMARK  Name = 
REMARK  8 active torsions:
REMARK  status: ('A' for Active; 'I' for Inactive)
REMARK    1  A    between atoms: C_1  and  C_6
REMARK    2  A    between atoms: C_1  and  C_9
REMARK    3  A    between atoms: C_1  and  C_10
REMARK    4  A    between atoms: C_1  and  C_25
REMARK    5  A    between atoms: C_3  and  N_8
REMARK    6  A    between atoms: C_10  and  N_11
REMARK    7  A    between atoms: C_13  and  C_19
REMARK    8  A    between atoms: C_25  and  N_26
REMARK                            x       y       z     vdW  Elec       q    Type
REMARK                         _______ _______ _______ _____ _____    ______ ____
ROOT
ATOM      1  C   UNL     1      38.707  25.970  34.812  0.00  0.00    +0.000 C 
ATOM      2  C   UNL     1      39.068  27.343  35.253  0.00  0.00    +0.000 C 
ENDROOT
BRANCH   1   7
ATOM      3  C   UNL     1      38.905  23.005  37.019  0.00  0.00    +0.000 A 
ATOM      4  C   UNL     1      38.356  23.426  38.205  0.00  0.00    +0.000 A 
ATOM      5  C   UNL     1      37.921  24.731  38.235  0.00  0.00    +0.000 A 
ATOM      6  N   UNL     1      38.045  25.522  37.141  0.00  0.00    +0.000 NA
ATOM      7  C   UNL     1      38.592  25.073  35.986  0.00  0.00    +0.000 A 
ATOM      8  N   UNL     1      39.021  23.784  35.953  0.00  0.00    +0.000 NA
BRANCH   4   9
ATOM      9  N   UNL     1      38.277  22.519  39.284  0.00  0.00    +0.000 N 
ATOM     10  H   UNL     1      37.868  22.819  40.180  0.00  0.00    +0.000 HD
ATOM     11  H   UNL     1      38.628  21.557  39.175  0.00  0.00    +0.000 HD
ENDBRANCH   4   9
ENDBRANCH   1   7
BRANCH   1  12
ATOM     12  C   UNL     1      37.346  25.958  34.154  0.00  0.00    +0.000 C 
BRANCH  12  13
ATOM     13  N   UNL     1      36.932  27.190  33.551  0.00  0.00    +0.000 N 
ATOM     14  C   UNL     1      36.330  28.075  34.378  0.00  0.00    +0.000 A 
ATOM     15  C   UNL     1      35.874  29.306  33.948  0.00  0.00    +0.000 A 
ATOM     16  C   UNL     1      36.049  29.623  32.620  0.00  0.00    +0.000 A 
ATOM     17  N   UNL     1      35.572  30.892  32.198  0.00  0.00    +0.000 N 
ATOM     18  N   UNL     1      36.647  28.740  31.799  0.00  0.00    +0.000 NA
ATOM     19  C   UNL     1      37.066  27.565  32.280  0.00  0.00    +0.000 A 
ATOM     20  O   UNL     1      37.616  26.753  31.519  0.00  0.00    +0.000 OA
ATOM     21  H   UNL     1      35.677  31.181  31.215  0.00  0.00    +0.000 HD
ATOM     22  H   UNL     1      35.121  31.524  32.875  0.00  0.00    +0.000 HD
BRANCH  15  23
ATOM     23  C   UNL     1      35.225  30.223  34.895  0.00  0.00    +0.000 A 
ATOM     24  C   UNL     1      35.950  31.126  35.626  0.00  0.00    +0.000 A 
ATOM     25  C   UNL     1      35.327  31.985  36.515  0.00  0.00    +0.000 A 
ATOM     26  C   UNL     1      33.970  31.885  36.621  0.00  0.00    +0.000 A 
ATOM     27  C   UNL     1      33.202  31.001  35.914  0.00  0.00    +0.000 A 
ATOM     28  C   UNL     1      33.837  30.140  35.021  0.00  0.00    +0.000 A 
ENDBRANCH  15  23
ENDBRANCH  12  13
ENDBRANCH   1  12
BRANCH   1  29
ATOM     29  C   UNL     1      39.696  25.403  33.826  0.00  0.00    +0.000 C 
BRANCH  29  30
ATOM     30  N   UNL     1      40.830  26.183  33.446  0.00  0.00    +0.000 N 
ATOM     31  C   UNL     1      41.114  27.152  32.581  0.00  0.00    +0.000 A 
ATOM     32  C   UNL     1      42.298  27.802  32.403  0.00  0.00    +0.000 A 
ATOM     33  C   UNL     1      43.369  27.473  33.173  0.00  0.00    +0.000 A 
ATOM     34  N   UNL     1      44.557  28.193  32.925  0.00  0.00    +0.000 N 
ATOM     35  N   UNL     1      43.159  26.487  34.089  0.00  0.00    +0.000 NA
ATOM     36  C   UNL     1      41.946  25.887  34.204  0.00  0.00    +0.000 A 
ATOM     37  O   UNL     1      42.126  25.047  35.136  0.00  0.00    +0.000 OA
ATOM     38  H   UNL     1      45.405  27.992  33.474  0.00  0.00    +0.000 HD
ATOM     39  H   UNL     1      44.576  28.919  32.195  0.00  0.00    +0.000 HD
ENDBRANCH  29  30
ENDBRANCH   1  29
TORSDOF 7
