REMARK  Name = 
REMARK  4 active torsions:
REMARK  status: ('A' for Active; 'I' for Inactive)
REMARK    1  A    between atoms: C_3  and  N_17
REMARK    2  A    between atoms: C_5  and  C_7
REMARK    3  A    between atoms: C_19  and  C_32
REMARK    4  A    between atoms: C_21  and  C_22
REMARK                            x       y       z     vdW  Elec       q    Type
REMARK                         _______ _______ _______ _____ _____    ______ ____
ROOT
ATOM      1  N   UNL     1      38.034  24.496  34.247  0.00  0.00    +0.000 N 
ATOM      2  C   UNL     1      37.670  25.767  34.059  0.00  0.00    +0.000 A 
ATOM      3  C   UNL     1      37.356  25.864  32.741  0.00  0.00    +0.000 A 
ATOM      4  N   UNL     1      37.533  24.685  32.180  0.00  0.00    +0.000 NA
ATOM      5  C   UNL     1      37.960  23.801  33.110  0.00  0.00    +0.000 A 
ENDROOT
BRANCH   5   6
ATOM      6  C   UNL     1      38.244  22.430  32.765  0.00  0.00    +0.000 A 
ATOM      7  N   UNL     1      39.435  21.846  32.616  0.00  0.00    +0.000 NA
ATOM      8  C   UNL     1      39.654  20.578  32.282  0.00  0.00    +0.000 A 
ATOM      9  N   UNL     1      38.642  19.730  32.052  0.00  0.00    +0.000 NA
ATOM     10  C   UNL     1      37.377  20.226  32.175  0.00  0.00    +0.000 A 
ATOM     11  C   UNL     1      36.367  19.335  31.915  0.00  0.00    +0.000 A 
ATOM     12  C   UNL     1      35.063  19.754  31.995  0.00  0.00    +0.000 A 
ATOM     13  C   UNL     1      34.801  21.061  32.336  0.00  0.00    +0.000 A 
ATOM     14  C   UNL     1      35.894  21.861  32.575  0.00  0.00    +0.000 A 
ATOM     15  C   UNL     1      37.227  21.536  32.521  0.00  0.00    +0.000 A 
ENDBRANCH   5   6
BRANCH   1  18
ATOM     16  C   UNL     1      38.164  23.692  37.881  0.00  0.00    +0.000 A 
ATOM     17  C   UNL     1      37.648  24.182  36.667  0.00  0.00    +0.000 A 
ATOM     18  C   UNL     1      38.458  24.033  35.527  0.00  0.00    +0.000 A 
ATOM     19  N   UNL     1      39.618  23.444  35.741  0.00  0.00    +0.000 NA
ATOM     20  C   UNL     1      40.127  22.971  36.887  0.00  0.00    +0.000 A 
ATOM     21  N   UNL     1      39.349  23.120  37.954  0.00  0.00    +0.000 NA
BRANCH  20  22
ATOM     22  C   UNL     1      41.447  22.383  36.722  0.00  0.00    +0.000 A 
ATOM     23  C   UNL     1      41.661  21.039  36.961  0.00  0.00    +0.000 A 
ATOM     24  C   UNL     1      42.881  20.414  36.824  0.00  0.00    +0.000 A 
ATOM     25  C   UNL     1      43.988  21.147  36.423  0.00  0.00    +0.000 A 
ATOM     26  C   UNL     1      43.810  22.469  36.181  0.00  0.00    +0.000 A 
ATOM     27  C   UNL     1      44.919  23.195  35.762  0.00  0.00    +0.000 A 
ATOM     28  C   UNL     1      44.825  24.542  35.477  0.00  0.00    +0.000 A 
ATOM     29  C   UNL     1      43.572  25.130  35.629  0.00  0.00    +0.000 A 
ATOM     30  C   UNL     1      42.497  24.376  36.047  0.00  0.00    +0.000 A 
ATOM     31  C   UNL     1      42.565  23.049  36.332  0.00  0.00    +0.000 A 
ENDBRANCH  20  22
ENDBRANCH   1  18
BRANCH   3  32
ATOM     32  C   UNL     1      36.871  27.045  31.975  0.00  0.00    +0.000 C 
ATOM     33  F   UNL     1      37.357  27.071  30.674  0.00  0.00    +0.000 F 
ATOM     34  F   UNL     1      37.324  28.236  32.582  0.00  0.00    +0.000 F 
ATOM     35  F   UNL     1      35.490  27.125  32.027  0.00  0.00    +0.000 F 
ENDBRANCH   3  32
TORSDOF 4
