REMARK  Name = 
REMARK  1 active torsions:
REMARK  status: ('A' for Active; 'I' for Inactive)
REMARK    1  A    between atoms: N_13  and  C_18
REMARK                            x       y       z     vdW  Elec       q    Type
REMARK                         _______ _______ _______ _____ _____    ______ ____
ROOT
ATOM      1  C   UNL     1      39.962  23.033  37.330  0.00  0.00    +0.000 A 
ATOM      2  C   UNL     1      39.140  23.169  38.485  0.00  0.00    +0.000 A 
ATOM      3  C   UNL     1      37.884  23.757  38.287  0.00  0.00    +0.000 A 
ATOM      4  N   UNL     1      37.501  24.164  37.047  0.00  0.00    +0.000 NA
ATOM      5  C   UNL     1      38.328  24.011  35.968  0.00  0.00    +0.000 A 
ATOM      6  N   UNL     1      39.539  23.451  36.121  0.00  0.00    +0.000 NA
ATOM      7  N   UNL     1      37.955  24.424  34.676  0.00  0.00    +0.000 N 
ATOM      8  C   UNL     1      38.074  23.577  33.619  0.00  0.00    +0.000 A 
ATOM      9  N   UNL     1      37.640  24.245  32.508  0.00  0.00    +0.000 NA
ATOM     10  C   UNL     1      37.259  25.477  32.849  0.00  0.00    +0.000 A 
ATOM     11  C   UNL     1      36.741  26.620  32.237  0.00  0.00    +0.000 A 
ATOM     12  O   UNL     1      36.557  26.528  30.992  0.00  0.00    +0.000 OA
ATOM     13  N   UNL     1      36.472  27.729  32.966  0.00  0.00    +0.000 N 
ATOM     14  C   UNL     1      36.682  27.780  34.278  0.00  0.00    +0.000 A 
ATOM     15  N   UNL     1      36.339  29.030  34.877  0.00  0.00    +0.000 N 
ATOM     16  N   UNL     1      37.183  26.689  34.906  0.00  0.00    +0.000 NA
ATOM     17  C   UNL     1      37.456  25.590  34.213  0.00  0.00    +0.000 A 
ATOM     18  H   UNL     1      36.466  29.168  35.890  0.00  0.00    +0.000 HD
ATOM     19  H   UNL     1      35.965  29.794  34.296  0.00  0.00    +0.000 HD
ENDROOT
BRANCH  13  20
ATOM     20  C   UNL     1      35.931  28.909  32.292  0.00  0.00    +0.000 A 
ATOM     21  C   UNL     1      36.738  29.756  31.516  0.00  0.00    +0.000 A 
ATOM     22  S   UNL     1      35.555  31.040  30.928  0.00  0.00    +0.000 S 
ATOM     23  C   UNL     1      34.143  30.200  31.848  0.00  0.00    +0.000 A 
ATOM     24  N   UNL     1      34.665  29.305  32.332  0.00  0.00    +0.000 NA
ATOM     25  N   UNL     1      32.723  30.553  31.955  0.00  0.00    +0.000 N 
ATOM     26  C   UNL     1      32.360  31.597  31.203  0.00  0.00    +0.000 A 
ATOM     27  C   UNL     1      31.014  31.921  31.312  0.00  0.00    +0.000 A 
ATOM     28  C   UNL     1      30.163  31.196  32.141  0.00  0.00    +0.000 A 
ATOM     29  O   UNL     1      28.943  31.421  32.296  0.00  0.00    +0.000 OA
ATOM     30  N   UNL     1      30.640  30.151  32.863  0.00  0.00    +0.000 N 
ATOM     31  C   UNL     1      31.952  29.835  32.756  0.00  0.00    +0.000 A 
ATOM     32  O   UNL     1      32.469  28.871  33.399  0.00  0.00    +0.000 OA
ATOM     33  H   UNL     1      30.017  29.610  33.479  0.00  0.00    +0.000 HD
ENDBRANCH  13  20
TORSDOF 1
