REMARK  Name = 
REMARK  3 active torsions:
REMARK  status: ('A' for Active; 'I' for Inactive)
REMARK    1  A    between atoms: C_5  and  C_7
REMARK    2  A    between atoms: C_19  and  C_31
REMARK    3  A    between atoms: C_24  and  C_25
REMARK                            x       y       z     vdW  Elec       q    Type
REMARK                         _______ _______ _______ _____ _____    ______ ____
ROOT
ATOM      1  C   UNL     1      38.972  23.035  37.979  0.00  0.00    +0.000 A 
ATOM      2  C   UNL     1      38.208  23.122  36.798  0.00  0.00    +0.000 A 
ATOM      3  C   UNL     1      38.852  22.778  35.607  0.00  0.00    +0.000 A 
ATOM      4  N   UNL     1      40.122  22.405  35.719  0.00  0.00    +0.000 NA
ATOM      5  C   UNL     1      40.864  22.317  36.828  0.00  0.00    +0.000 A 
ATOM      6  N   UNL     1      40.236  22.649  37.963  0.00  0.00    +0.000 NA
ATOM      7  N   UNL     1      38.171  22.830  34.350  0.00  0.00    +0.000 N 
ATOM      8  C   UNL     1      37.261  21.926  34.014  0.00  0.00    +0.000 A 
ATOM      9  C   UNL     1      36.830  22.289  32.765  0.00  0.00    +0.000 A 
ATOM     10  N   UNL     1      37.481  23.391  32.376  0.00  0.00    +0.000 NA
ATOM     11  C   UNL     1      38.329  23.739  33.373  0.00  0.00    +0.000 A 
ATOM     12  N   UNL     1      39.212  24.856  33.369  0.00  0.00    +0.000 N 
ATOM     13  C   UNL     1      39.588  25.223  32.114  0.00  0.00    +0.000 A 
ATOM     14  C   UNL     1      40.457  26.314  32.011  0.00  0.00    +0.000 A 
ATOM     15  C   UNL     1      40.965  26.843  30.698  0.00  0.00    +0.000 C 
ATOM     16  C   UNL     1      40.862  26.929  33.169  0.00  0.00    +0.000 A 
ATOM     17  O   UNL     1      41.656  27.925  33.070  0.00  0.00    +0.000 OA
ATOM     18  N   UNL     1      40.479  26.551  34.402  0.00  0.00    +0.000 N 
ATOM     19  C   UNL     1      39.656  25.512  34.444  0.00  0.00    +0.000 A 
ATOM     20  O   UNL     1      39.245  25.091  35.578  0.00  0.00    +0.000 OA
ATOM     21  H   UNL     1      40.802  27.034  35.252  0.00  0.00    +0.000 HD
ENDROOT
BRANCH   5  22
ATOM     22  C   UNL     1      42.222  21.872  36.574  0.00  0.00    +0.000 A 
ATOM     23  C   UNL     1      42.528  20.540  36.466  0.00  0.00    +0.000 A 
ATOM     24  C   UNL     1      43.805  20.063  36.223  0.00  0.00    +0.000 A 
ATOM     25  C   UNL     1      44.861  20.942  36.075  0.00  0.00    +0.000 A 
ATOM     26  C   UNL     1      44.595  22.269  36.176  0.00  0.00    +0.000 A 
ATOM     27  C   UNL     1      45.649  23.146  36.029  0.00  0.00    +0.000 A 
ATOM     28  C   UNL     1      45.470  24.497  36.115  0.00  0.00    +0.000 A 
ATOM     29  C   UNL     1      44.173  24.945  36.358  0.00  0.00    +0.000 A 
ATOM     30  C   UNL     1      43.143  24.041  36.501  0.00  0.00    +0.000 A 
ATOM     31  C   UNL     1      43.309  22.696  36.417  0.00  0.00    +0.000 A 
ENDBRANCH   5  22
BRANCH   9  32
ATOM     32  C   UNL     1      35.812  21.627  31.906  0.00  0.00    +0.000 C 
ATOM     33  F   UNL     1      36.317  20.534  31.229  0.00  0.00    +0.000 F 
ATOM     34  F   UNL     1      35.364  22.521  30.914  0.00  0.00    +0.000 F 
ATOM     35  F   UNL     1      34.681  21.309  32.639  0.00  0.00    +0.000 F 
ENDBRANCH   9  32
TORSDOF 2
