REMARK  Name = 
REMARK  4 active torsions:
REMARK  status: ('A' for Active; 'I' for Inactive)
REMARK    1  A    between atoms: C_1  and  C_2
REMARK    2  A    between atoms: C_1  and  C_16
REMARK    3  A    between atoms: C_14  and  C_18
REMARK    4  A    between atoms: C_18  and  C_20
REMARK                            x       y       z     vdW  Elec       q    Type
REMARK                         _______ _______ _______ _____ _____    ______ ____
ROOT
ATOM      1  C   UNL     1      35.614  28.968  32.832  0.00  0.00    +0.000 A 
ATOM      2  C   UNL     1      35.403  27.992  31.871  0.00  0.00    +0.000 A 
ATOM      3  C   UNL     1      36.008  26.740  32.088  0.00  0.00    +0.000 A 
ATOM      4  N   UNL     1      36.758  26.554  33.214  0.00  0.00    +0.000 NA
ATOM      5  C   UNL     1      36.925  27.522  34.096  0.00  0.00    +0.000 A 
ATOM      6  N   UNL     1      36.358  28.728  33.914  0.00  0.00    +0.000 NA
ENDROOT
BRANCH   3   7
ATOM      7  C   UNL     1      35.839  25.658  31.118  0.00  0.00    +0.000 C 
ATOM      8  O   UNL     1      34.744  25.591  30.491  0.00  0.00    +0.000 OA
BRANCH   7   9
ATOM      9  C   UNL     1      36.991  24.771  30.996  0.00  0.00    +0.000 A 
ATOM     10  C   UNL     1      38.281  25.232  30.792  0.00  0.00    +0.000 A 
ATOM     11  C   UNL     1      39.395  24.433  30.676  0.00  0.00    +0.000 A 
ATOM     12  C   UNL     1      39.246  23.077  30.764  0.00  0.00    +0.000 A 
ATOM     13  C   UNL     1      37.990  22.545  30.968  0.00  0.00    +0.000 A 
ATOM     14  C   UNL     1      37.853  21.163  31.055  0.00  0.00    +0.000 A 
ATOM     15  C   UNL     1      36.614  20.601  31.256  0.00  0.00    +0.000 A 
ATOM     16  C   UNL     1      35.505  21.430  31.369  0.00  0.00    +0.000 A 
ATOM     17  C   UNL     1      35.698  22.797  31.275  0.00  0.00    +0.000 A 
ATOM     18  C   UNL     1      36.911  23.399  31.076  0.00  0.00    +0.000 A 
ENDBRANCH   7   9
ENDBRANCH   3   7
BRANCH   5  19
ATOM     19  C   UNL     1      37.741  27.368  35.338  0.00  0.00    +0.000 C 
BRANCH  19  20
ATOM     20  C   UNL     1      38.928  26.538  35.147  0.00  0.00    +0.000 A 
ATOM     21  C   UNL     1      40.000  26.998  34.384  0.00  0.00    +0.000 A 
ATOM     22  C   UNL     1      41.128  26.239  34.203  0.00  0.00    +0.000 A 
ATOM     23  C   UNL     1      41.232  24.971  34.783  0.00  0.00    +0.000 A 
ATOM     24  C   UNL     1      40.161  24.504  35.548  0.00  0.00    +0.000 A 
ATOM     25  C   UNL     1      40.254  23.261  36.123  0.00  0.00    +0.000 A 
ATOM     26  C   UNL     1      39.228  22.755  36.887  0.00  0.00    +0.000 A 
ATOM     27  C   UNL     1      38.090  23.524  37.068  0.00  0.00    +0.000 A 
ATOM     28  C   UNL     1      38.025  24.783  36.471  0.00  0.00    +0.000 A 
ATOM     29  C   UNL     1      39.042  25.307  35.703  0.00  0.00    +0.000 A 
ENDBRANCH  19  20
ENDBRANCH   5  19
TORSDOF 4
