REMARK  Name = 
REMARK  3 active torsions:
REMARK  status: ('A' for Active; 'I' for Inactive)
REMARK    1  A    between atoms: C_3  and  N_17
REMARK    2  A    between atoms: C_5  and  C_7
REMARK    3  A    between atoms: C_26  and  N_31
REMARK                            x       y       z     vdW  Elec       q    Type
REMARK                         _______ _______ _______ _____ _____    ______ ____
ROOT
ATOM      1  N   UNL     1      36.541  26.751  31.919  0.00  0.00    +0.000 N 
ATOM      2  C   UNL     1      36.672  27.335  30.714  0.00  0.00    +0.000 A 
ATOM      3  N   UNL     1      36.398  28.642  30.800  0.00  0.00    +0.000 NA
ATOM      4  C   UNL     1      36.091  28.885  32.077  0.00  0.00    +0.000 A 
ATOM      5  N   UNL     1      36.183  27.727  32.742  0.00  0.00    +0.000 NA
ATOM      6  N   UNL     1      35.745  30.193  32.516  0.00  0.00    +0.000 N 
ATOM      7  C   UNL     1      36.136  31.422  32.070  0.00  0.00    +0.000 A 
ATOM      8  N   UNL     1      35.551  32.389  32.789  0.00  0.00    +0.000 NA
ATOM      9  C   UNL     1      34.763  31.790  33.726  0.00  0.00    +0.000 A 
ATOM     10  C   UNL     1      33.960  32.347  34.698  0.00  0.00    +0.000 A 
ATOM     11  N   UNL     1      33.279  31.490  35.502  0.00  0.00    +0.000 NA
ATOM     12  C   UNL     1      33.384  30.150  35.350  0.00  0.00    +0.000 A 
ATOM     13  N   UNL     1      34.182  29.677  34.384  0.00  0.00    +0.000 NA
ATOM     14  C   UNL     1      34.897  30.425  33.540  0.00  0.00    +0.000 A 
ENDROOT
BRANCH   1  17
ATOM     15  C   UNL     1      36.332  23.091  31.996  0.00  0.00    +0.000 A 
ATOM     16  C   UNL     1      36.000  24.386  31.608  0.00  0.00    +0.000 A 
ATOM     17  C   UNL     1      36.753  25.376  32.206  0.00  0.00    +0.000 A 
ATOM     18  N   UNL     1      37.697  25.020  33.068  0.00  0.00    +0.000 NA
ATOM     19  C   UNL     1      38.026  23.816  33.446  0.00  0.00    +0.000 A 
ATOM     20  N   UNL     1      37.311  22.880  32.879  0.00  0.00    +0.000 NA
BRANCH  19  21
ATOM     21  C   UNL     1      39.027  23.304  34.371  0.00  0.00    +0.000 A 
ATOM     22  C   UNL     1      40.204  22.712  33.919  0.00  0.00    +0.000 A 
ATOM     23  C   UNL     1      41.180  22.214  34.751  0.00  0.00    +0.000 A 
ATOM     24  C   UNL     1      41.020  22.286  36.112  0.00  0.00    +0.000 A 
ATOM     25  C   UNL     1      39.883  22.857  36.611  0.00  0.00    +0.000 A 
ATOM     26  C   UNL     1      39.724  22.928  37.978  0.00  0.00    +0.000 A 
ATOM     27  C   UNL     1      38.635  23.475  38.558  0.00  0.00    +0.000 A 
ATOM     28  C   UNL     1      37.648  23.979  37.700  0.00  0.00    +0.000 A 
ATOM     29  C   UNL     1      37.832  23.894  36.336  0.00  0.00    +0.000 A 
ATOM     30  C   UNL     1      38.928  23.346  35.752  0.00  0.00    +0.000 A 
ENDBRANCH  19  21
ENDBRANCH   1  17
BRANCH  10  31
ATOM     31  N   UNL     1      33.815  33.745  34.899  0.00  0.00    +0.000 N 
ATOM     32  H   UNL     1      33.198  34.097  35.645  0.00  0.00    +0.000 HD
ATOM     33  H   UNL     1      34.327  34.407  34.299  0.00  0.00    +0.000 HD
ENDBRANCH  10  31
TORSDOF 3
