REMARK  Name = 
REMARK  8 active torsions:
REMARK  status: ('A' for Active; 'I' for Inactive)
REMARK    1  A    between atoms: C_3  and  C_7
REMARK    2  A    between atoms: C_5  and  C_18
REMARK    3  A    between atoms: C_7  and  C_8
REMARK    4  A    between atoms: C_8  and  N_9
REMARK    5  A    between atoms: C_13  and  C_14
REMARK    6  A    between atoms: C_18  and  C_19
REMARK    7  A    between atoms: C_18  and  C_20
REMARK    8  A    between atoms: C_20  and  C_21
REMARK                            x       y       z     vdW  Elec       q    Type
REMARK                         _______ _______ _______ _____ _____    ______ ____
ROOT
ATOM      1  C   UNL     1      36.613  27.024  32.624  0.00  0.00    +0.000 A 
ATOM      2  C   UNL     1      37.513  26.514  33.550  0.00  0.00    +0.000 A 
ATOM      3  C   UNL     1      37.705  27.113  34.744  0.00  0.00    +0.000 A 
ATOM      4  N   UNL     1      36.992  28.243  35.022  0.00  0.00    +0.000 NA
ATOM      5  C   UNL     1      36.115  28.744  34.123  0.00  0.00    +0.000 A 
ATOM      6  N   UNL     1      35.931  28.157  32.968  0.00  0.00    +0.000 NA
ENDROOT
BRANCH   5   7
ATOM      7  C   UNL     1      35.393  30.004  34.459  0.00  0.00    +0.000 C 
ATOM      8  C   UNL     1      35.371  30.911  33.188  0.00  0.00    +0.000 C 
BRANCH   7   9
ATOM      9  C   UNL     1      36.061  30.801  35.509  0.00  0.00    +0.000 C 
BRANCH   9  10
ATOM     10  C   UNL     1      35.253  31.865  36.105  0.00  0.00    +0.000 A 
ATOM     11  C   UNL     1      34.036  31.594  36.744  0.00  0.00    +0.000 A 
ATOM     12  C   UNL     1      33.255  32.590  37.335  0.00  0.00    +0.000 A 
ATOM     13  C   UNL     1      33.692  33.899  37.292  0.00  0.00    +0.000 A 
ATOM     14  C   UNL     1      34.884  34.194  36.670  0.00  0.00    +0.000 A 
ATOM     15  C   UNL     1      35.291  35.514  36.639  0.00  0.00    +0.000 A 
ATOM     16  C   UNL     1      36.492  35.872  36.015  0.00  0.00    +0.000 A 
ATOM     17  C   UNL     1      37.258  34.885  35.434  0.00  0.00    +0.000 A 
ATOM     18  C   UNL     1      36.801  33.587  35.496  0.00  0.00    +0.000 A 
ATOM     19  C   UNL     1      35.629  33.185  36.098  0.00  0.00    +0.000 A 
ENDBRANCH   9  10
ENDBRANCH   7   9
ENDBRANCH   5   7
BRANCH   3  20
ATOM     20  C   UNL     1      38.651  26.447  35.671  0.00  0.00    +0.000 C 
BRANCH  20  21
ATOM     21  C   UNL     1      38.279  25.037  35.842  0.00  0.00    +0.000 C 
BRANCH  21  22
ATOM     22  N   UNL     1      39.348  24.250  36.404  0.00  0.00    +0.000 NA
ATOM     23  C   UNL     1      39.984  23.441  35.331  0.00  0.00    +0.000 C 
ATOM     24  C   UNL     1      40.864  22.519  36.144  0.00  0.00    +0.000 C 
ATOM     25  C   UNL     1      40.143  22.368  37.479  0.00  0.00    +0.000 C 
ATOM     26  C   UNL     1      38.891  23.188  37.223  0.00  0.00    +0.000 C 
BRANCH  26  27
ATOM     27  C   UNL     1      38.373  23.627  38.556  0.00  0.00    +0.000 C 
ATOM     28  F   UNL     1      39.317  23.762  39.528  0.00  0.00    +0.000 F 
ATOM     29  F   UNL     1      37.335  22.799  38.923  0.00  0.00    +0.000 F 
ATOM     30  F   UNL     1      37.822  24.919  38.416  0.00  0.00    +0.000 F 
ENDBRANCH  26  27
ENDBRANCH  21  22
ENDBRANCH  20  21
ENDBRANCH   3  20
TORSDOF 7
