REMARK  Name = 
REMARK  4 active torsions:
REMARK  status: ('A' for Active; 'I' for Inactive)
REMARK    1  A    between atoms: C_1  and  C_2
REMARK    2  A    between atoms: C_1  and  C_16
REMARK    3  A    between atoms: C_14  and  C_18
REMARK    4  A    between atoms: C_18  and  C_20
REMARK                            x       y       z     vdW  Elec       q    Type
REMARK                         _______ _______ _______ _____ _____    ______ ____
ROOT
ATOM      1  C   UNL     1      35.859  28.680  32.403  0.00  0.00    +0.000 A 
ATOM      2  C   UNL     1      35.594  27.605  31.580  0.00  0.00    +0.000 A 
ATOM      3  C   UNL     1      36.082  26.340  31.984  0.00  0.00    +0.000 A 
ATOM      4  N   UNL     1      36.783  26.248  33.154  0.00  0.00    +0.000 NA
ATOM      5  C   UNL     1      37.006  27.317  33.904  0.00  0.00    +0.000 A 
ATOM      6  N   UNL     1      36.549  28.536  33.536  0.00  0.00    +0.000 NA
ENDROOT
BRANCH   3   7
ATOM      7  C   UNL     1      35.844  25.159  31.172  0.00  0.00    +0.000 C 
ATOM      8  O   UNL     1      34.779  25.110  30.493  0.00  0.00    +0.000 OA
BRANCH   7   9
ATOM      9  C   UNL     1      36.657  23.956  30.989  0.00  0.00    +0.000 A 
ATOM     10  C   UNL     1      37.891  23.866  30.376  0.00  0.00    +0.000 A 
ATOM     11  N   UNL     1      38.262  22.568  30.438  0.00  0.00    +0.000 N 
ATOM     12  C   UNL     1      37.324  21.831  31.060  0.00  0.00    +0.000 A 
ATOM     13  C   UNL     1      37.237  20.472  31.367  0.00  0.00    +0.000 A 
ATOM     14  C   UNL     1      36.139  19.958  32.028  0.00  0.00    +0.000 A 
ATOM     15  C   UNL     1      35.138  20.841  32.369  0.00  0.00    +0.000 A 
ATOM     16  C   UNL     1      35.185  22.184  32.085  0.00  0.00    +0.000 A 
ATOM     17  C   UNL     1      36.288  22.694  31.422  0.00  0.00    +0.000 A 
ATOM     18  H   UNL     1      39.144  22.194  30.060  0.00  0.00    +0.000 HD
ENDBRANCH   7   9
ENDBRANCH   3   7
BRANCH   5  19
ATOM     19  C   UNL     1      37.773  27.265  35.193  0.00  0.00    +0.000 C 
BRANCH  19  20
ATOM     20  C   UNL     1      38.995  26.483  35.101  0.00  0.00    +0.000 A 
ATOM     21  C   UNL     1      40.110  26.983  34.432  0.00  0.00    +0.000 A 
ATOM     22  C   UNL     1      41.271  26.266  34.349  0.00  0.00    +0.000 A 
ATOM     23  C   UNL     1      41.375  25.002  34.937  0.00  0.00    +0.000 A 
ATOM     24  C   UNL     1      40.268  24.499  35.606  0.00  0.00    +0.000 A 
ATOM     25  C   UNL     1      40.357  23.250  36.192  0.00  0.00    +0.000 A 
ATOM     26  C   UNL     1      39.284  22.708  36.867  0.00  0.00    +0.000 A 
ATOM     27  C   UNL     1      38.106  23.437  36.950  0.00  0.00    +0.000 A 
ATOM     28  C   UNL     1      38.051  24.689  36.349  0.00  0.00    +0.000 A 
ATOM     29  C   UNL     1      39.101  25.263  35.668  0.00  0.00    +0.000 A 
ENDBRANCH  19  20
ENDBRANCH   5  19
TORSDOF 4
