REMARK  Name = 
REMARK  3 active torsions:
REMARK  status: ('A' for Active; 'I' for Inactive)
REMARK    1  A    between atoms: C_1  and  N_37
REMARK    2  A    between atoms: C_9  and  C_27
REMARK    3  A    between atoms: C_11  and  C_12
REMARK                            x       y       z     vdW  Elec       q    Type
REMARK                         _______ _______ _______ _____ _____    ______ ____
ROOT
ATOM      1  C   UNL     1      38.837  23.833  36.145  0.00  0.00    +0.000 A 
ATOM      2  C   UNL     1      40.236  24.058  36.092  0.00  0.00    +0.000 A 
ATOM      3  C   UNL     1      40.677  25.095  35.308  0.00  0.00    +0.000 A 
ATOM      4  N   UNL     1      39.732  25.793  34.670  0.00  0.00    +0.000 NA
ATOM      5  C   UNL     1      38.441  25.606  34.703  0.00  0.00    +0.000 A 
ATOM      6  N   UNL     1      37.994  24.597  35.464  0.00  0.00    +0.000 NA
ATOM      7  N   UNL     1      37.670  26.494  33.938  0.00  0.00    +0.000 N 
ATOM      8  C   UNL     1      36.849  27.365  34.585  0.00  0.00    +0.000 A 
ATOM      9  C   UNL     1      36.198  28.147  33.661  0.00  0.00    +0.000 A 
ATOM     10  N   UNL     1      36.632  27.737  32.474  0.00  0.00    +0.000 NA
ATOM     11  C   UNL     1      37.543  26.713  32.629  0.00  0.00    +0.000 A 
ENDROOT
BRANCH  11  12
ATOM     12  C   UNL     1      38.180  26.026  31.548  0.00  0.00    +0.000 A 
ATOM     13  C   UNL     1      38.663  26.706  30.417  0.00  0.00    +0.000 A 
ATOM     14  N   UNL     1      39.190  25.791  29.538  0.00  0.00    +0.000 NA
ATOM     15  C   UNL     1      39.024  24.542  30.145  0.00  0.00    +0.000 A 
ATOM     16  N   UNL     1      38.435  24.766  31.307  0.00  0.00    +0.000 N 
ATOM     17  C   UNL     1      38.371  23.493  31.877  0.00  0.00    +0.000 A 
ATOM     18  N   UNL     1      39.495  23.181  32.532  0.00  0.00    +0.000 NA
ATOM     19  C   UNL     1      39.624  21.950  33.096  0.00  0.00    +0.000 A 
ATOM     20  N   UNL     1      38.687  21.005  33.041  0.00  0.00    +0.000 NA
ATOM     21  C   UNL     1      37.542  21.276  32.393  0.00  0.00    +0.000 A 
ATOM     22  C   UNL     1      36.498  20.399  32.258  0.00  0.00    +0.000 A 
ATOM     23  C   UNL     1      35.355  20.728  31.585  0.00  0.00    +0.000 A 
ATOM     24  C   UNL     1      35.239  21.995  31.014  0.00  0.00    +0.000 A 
ATOM     25  C   UNL     1      36.252  22.916  31.115  0.00  0.00    +0.000 A 
ATOM     26  C   UNL     1      37.376  22.536  31.800  0.00  0.00    +0.000 A 
ENDBRANCH  11  12
BRANCH   9  27
ATOM     27  C   UNL     1      35.188  29.176  33.659  0.00  0.00    +0.000 A 
ATOM     28  C   UNL     1      34.095  29.072  32.797  0.00  0.00    +0.000 A 
ATOM     29  C   UNL     1      33.079  29.986  32.697  0.00  0.00    +0.000 A 
ATOM     30  C   UNL     1      33.095  31.095  33.480  0.00  0.00    +0.000 A 
ATOM     31  C   UNL     1      34.136  31.279  34.355  0.00  0.00    +0.000 A 
ATOM     32  C   UNL     1      34.148  32.410  35.109  0.00  0.00    +0.000 A 
ATOM     33  C   UNL     1      35.171  32.675  35.984  0.00  0.00    +0.000 A 
ATOM     34  C   UNL     1      36.192  31.719  36.052  0.00  0.00    +0.000 A 
ATOM     35  C   UNL     1      36.131  30.609  35.279  0.00  0.00    +0.000 A 
ATOM     36  C   UNL     1      35.121  30.319  34.401  0.00  0.00    +0.000 A 
ENDBRANCH   9  27
BRANCH   1  37
ATOM     37  N   UNL     1      38.348  22.758  36.970  0.00  0.00    +0.000 N 
ATOM     38  H   UNL     1      37.337  22.572  37.027  0.00  0.00    +0.000 HD
ATOM     39  H   UNL     1      39.010  22.175  37.503  0.00  0.00    +0.000 HD
ENDBRANCH   1  37
TORSDOF 3
