REMARK  Name = 
REMARK  2 active torsions:
REMARK  status: ('A' for Active; 'I' for Inactive)
REMARK    1  A    between atoms: C_3  and  N_17
REMARK    2  A    between atoms: C_5  and  C_7
REMARK                            x       y       z     vdW  Elec       q    Type
REMARK                         _______ _______ _______ _____ _____    ______ ____
ROOT
ATOM      1  C   UNL     1      36.856  24.134  31.822  0.00  0.00    +0.000 A 
ATOM      2  C   UNL     1      36.339  25.429  31.815  0.00  0.00    +0.000 A 
ATOM      3  C   UNL     1      36.843  26.241  32.791  0.00  0.00    +0.000 A 
ATOM      4  N   UNL     1      37.750  25.758  33.640  0.00  0.00    +0.000 NA
ATOM      5  C   UNL     1      38.245  24.552  33.665  0.00  0.00    +0.000 A 
ATOM      6  N   UNL     1      37.766  23.757  32.725  0.00  0.00    +0.000 NA
ENDROOT
BRANCH   3   7
ATOM      7  N   UNL     1      36.426  27.598  32.930  0.00  0.00    +0.000 N 
ATOM      8  C   UNL     1      36.413  28.528  31.953  0.00  0.00    +0.000 A 
ATOM      9  N   UNL     1      35.966  29.685  32.433  0.00  0.00    +0.000 NA
ATOM     10  C   UNL     1      35.688  29.507  33.722  0.00  0.00    +0.000 A 
ATOM     11  N   UNL     1      35.979  28.225  34.000  0.00  0.00    +0.000 NA
ATOM     12  N   UNL     1      35.186  30.371  34.744  0.00  0.00    +0.000 N 
ATOM     13  C   UNL     1      36.030  31.132  35.481  0.00  0.00    +0.000 A 
ATOM     14  C   UNL     1      35.497  31.955  36.462  0.00  0.00    +0.000 A 
ATOM     15  C   UNL     1      34.143  32.015  36.700  0.00  0.00    +0.000 A 
ATOM     16  N   UNL     1      33.633  32.874  37.716  0.00  0.00    +0.000 N 
ATOM     17  N   UNL     1      33.323  31.250  35.955  0.00  0.00    +0.000 NA
ATOM     18  C   UNL     1      33.871  30.460  35.010  0.00  0.00    +0.000 A 
ATOM     19  O   UNL     1      33.115  29.727  34.293  0.00  0.00    +0.000 OA
ATOM     20  H   UNL     1      32.619  32.917  37.893  0.00  0.00    +0.000 HD
ATOM     21  H   UNL     1      34.278  33.452  38.274  0.00  0.00    +0.000 HD
ENDBRANCH   3   7
BRANCH   5  22
ATOM     22  C   UNL     1      39.224  23.901  34.520  0.00  0.00    +0.000 A 
ATOM     23  C   UNL     1      40.409  23.402  34.019  0.00  0.00    +0.000 A 
ATOM     24  C   UNL     1      41.373  22.775  34.784  0.00  0.00    +0.000 A 
ATOM     25  C   UNL     1      41.171  22.621  36.134  0.00  0.00    +0.000 A 
ATOM     26  C   UNL     1      40.023  23.094  36.671  0.00  0.00    +0.000 A 
ATOM     27  C   UNL     1      39.825  22.934  38.039  0.00  0.00    +0.000 A 
ATOM     28  C   UNL     1      38.711  23.374  38.662  0.00  0.00    +0.000 A 
ATOM     29  C   UNL     1      37.746  24.008  37.864  0.00  0.00    +0.000 A 
ATOM     30  C   UNL     1      37.974  24.148  36.521  0.00  0.00    +0.000 A 
ATOM     31  C   UNL     1      39.084  23.713  35.884  0.00  0.00    +0.000 A 
ENDBRANCH   5  22
TORSDOF 2
