REMARK  Name = 
REMARK  2 active torsions:
REMARK  status: ('A' for Active; 'I' for Inactive)
REMARK    1  A    between atoms: C_5  and  C_7
REMARK    2  A    between atoms: C_19  and  C_28
REMARK                            x       y       z     vdW  Elec       q    Type
REMARK                         _______ _______ _______ _____ _____    ______ ____
ROOT
ATOM      1  C   UNL     1      38.735  23.173  38.047  0.00  0.00    +0.000 A 
ATOM      2  C   UNL     1      37.960  23.228  36.874  0.00  0.00    +0.000 A 
ATOM      3  C   UNL     1      38.597  22.858  35.684  0.00  0.00    +0.000 A 
ATOM      4  N   UNL     1      39.875  22.492  35.790  0.00  0.00    +0.000 NA
ATOM      5  C   UNL     1      40.614  22.441  36.921  0.00  0.00    +0.000 A 
ATOM      6  N   UNL     1      39.994  22.794  38.041  0.00  0.00    +0.000 NA
ATOM      7  N   UNL     1      37.913  22.881  34.440  0.00  0.00    +0.000 N 
ATOM      8  C   UNL     1      37.200  21.851  34.010  0.00  0.00    +0.000 A 
ATOM      9  C   UNL     1      36.686  22.225  32.799  0.00  0.00    +0.000 A 
ATOM     10  N   UNL     1      37.095  23.475  32.515  0.00  0.00    +0.000 NA
ATOM     11  C   UNL     1      37.866  23.876  33.552  0.00  0.00    +0.000 A 
ATOM     12  N   UNL     1      38.422  25.163  33.469  0.00  0.00    +0.000 N 
ATOM     13  C   UNL     1      39.616  25.677  32.821  0.00  0.00    +0.000 C 
ATOM     14  C   UNL     1      40.293  26.783  33.582  0.00  0.00    +0.000 C 
ATOM     15  C   UNL     1      40.016  26.812  35.037  0.00  0.00    +0.000 C 
ATOM     16  C   UNL     1      38.608  26.476  35.416  0.00  0.00    +0.000 C 
ATOM     17  C   UNL     1      37.743  26.259  34.177  0.00  0.00    +0.000 C 
ENDROOT
BRANCH   5  18
ATOM     18  C   UNL     1      41.970  21.992  36.668  0.00  0.00    +0.000 A 
ATOM     19  C   UNL     1      42.308  20.660  36.713  0.00  0.00    +0.000 A 
ATOM     20  C   UNL     1      43.579  20.165  36.475  0.00  0.00    +0.000 A 
ATOM     21  C   UNL     1      44.608  21.042  36.167  0.00  0.00    +0.000 A 
ATOM     22  C   UNL     1      44.313  22.376  36.113  0.00  0.00    +0.000 A 
ATOM     23  C   UNL     1      45.346  23.229  35.802  0.00  0.00    +0.000 A 
ATOM     24  C   UNL     1      45.140  24.585  35.719  0.00  0.00    +0.000 A 
ATOM     25  C   UNL     1      43.842  25.046  35.968  0.00  0.00    +0.000 A 
ATOM     26  C   UNL     1      42.840  24.143  36.278  0.00  0.00    +0.000 A 
ATOM     27  C   UNL     1      43.030  22.810  36.359  0.00  0.00    +0.000 A 
ENDBRANCH   5  18
BRANCH   9  28
ATOM     28  C   UNL     1      35.812  21.441  31.871  0.00  0.00    +0.000 C 
ATOM     29  F   UNL     1      34.754  20.834  32.523  0.00  0.00    +0.000 F 
ATOM     30  F   UNL     1      36.563  20.400  31.285  0.00  0.00    +0.000 F 
ATOM     31  F   UNL     1      35.418  22.231  30.806  0.00  0.00    +0.000 F 
ENDBRANCH   9  28
TORSDOF 2
