REMARK  Name = 
REMARK  4 active torsions:
REMARK  status: ('A' for Active; 'I' for Inactive)
REMARK    1  A    between atoms: C_5  and  C_12
REMARK    2  A    between atoms: C_10  and  C_22
REMARK    3  A    between atoms: C_25  and  C_27
REMARK    4  A    between atoms: C_27  and  O_29
REMARK                            x       y       z     vdW  Elec       q    Type
REMARK                         _______ _______ _______ _____ _____    ______ ____
ROOT
ATOM      1  C   UNL     1      36.672  24.318  31.958  0.00  0.00    +0.000 A 
ATOM      2  C   UNL     1      36.233  25.639  31.993  0.00  0.00    +0.000 A 
ATOM      3  C   UNL     1      36.836  26.436  32.958  0.00  0.00    +0.000 A 
ATOM      4  N   UNL     1      37.748  25.888  33.738  0.00  0.00    +0.000 NA
ATOM      5  C   UNL     1      38.176  24.633  33.718  0.00  0.00    +0.000 A 
ATOM      6  N   UNL     1      37.603  23.891  32.806  0.00  0.00    +0.000 NA
ATOM      7  N   UNL     1      36.491  27.804  33.114  0.00  0.00    +0.000 N 
ATOM      8  C   UNL     1      36.515  28.752  32.165  0.00  0.00    +0.000 A 
ATOM      9  N   UNL     1      36.133  29.917  32.654  0.00  0.00    +0.000 NA
ATOM     10  C   UNL     1      35.857  29.713  33.955  0.00  0.00    +0.000 A 
ATOM     11  N   UNL     1      36.085  28.413  34.209  0.00  0.00    +0.000 NA
ENDROOT
BRANCH   5  12
ATOM     12  C   UNL     1      39.162  23.924  34.515  0.00  0.00    +0.000 A 
ATOM     13  C   UNL     1      40.299  23.381  33.931  0.00  0.00    +0.000 A 
ATOM     14  C   UNL     1      41.269  22.698  34.638  0.00  0.00    +0.000 A 
ATOM     15  C   UNL     1      41.137  22.522  36.007  0.00  0.00    +0.000 A 
ATOM     16  C   UNL     1      40.037  23.040  36.611  0.00  0.00    +0.000 A 
ATOM     17  C   UNL     1      39.888  22.875  37.975  0.00  0.00    +0.000 A 
ATOM     18  C   UNL     1      38.824  23.356  38.666  0.00  0.00    +0.000 A 
ATOM     19  C   UNL     1      37.854  24.044  37.937  0.00  0.00    +0.000 A 
ATOM     20  C   UNL     1      38.032  24.192  36.577  0.00  0.00    +0.000 A 
ATOM     21  C   UNL     1      39.085  23.718  35.877  0.00  0.00    +0.000 A 
ENDBRANCH   5  12
BRANCH  10  22
ATOM     22  C   UNL     1      35.395  30.581  35.040  0.00  0.00    +0.000 A 
ATOM     23  N   UNL     1      35.986  31.464  35.868  0.00  0.00    +0.000 NA
ATOM     24  O   UNL     1      35.099  31.974  36.665  0.00  0.00    +0.000 OA
ATOM     25  C   UNL     1      33.913  31.436  36.374  0.00  0.00    +0.000 A 
ATOM     26  N   UNL     1      34.068  30.561  35.362  0.00  0.00    +0.000 NA
BRANCH  25  27
ATOM     27  C   UNL     1      32.633  31.715  37.017  0.00  0.00    +0.000 C 
ATOM     28  O   UNL     1      32.198  32.909  37.150  0.00  0.00    +0.000 OA
BRANCH  27  29
ATOM     29  O   UNL     1      31.835  30.692  37.511  0.00  0.00    +0.000 OA
ATOM     30  H   UNL     1      30.970  30.904  37.944  0.00  0.00    +0.000 HD
ENDBRANCH  27  29
ENDBRANCH  25  27
ENDBRANCH  10  22
TORSDOF 4
