
 OpenBabel03242510153D

 31 35  0  0  0  0  0  0  0  0999 V2000
   35.8210   30.2310   40.7220 C   0  0  0  0  0  3  0  0  0  0  0  0
   36.6820   31.3160   40.3480 C   0  0  0  0  0  3  0  0  0  0  0  0
   38.0000   31.1350   40.6590 C   0  0  0  0  0  0  0  0  0  0  0  0
   38.3480   29.9970   41.2630 N   0  0  0  0  0  0  0  0  0  0  0  0
   37.5450   28.9820   41.6130 C   0  0  0  0  0  0  0  0  0  0  0  0
   36.2600   29.1300   41.3240 N   0  0  0  0  0  0  0  0  0  0  0  0
   38.2910   27.9050   42.2550 C   0  0  0  0  0  0  0  0  0  0  0  0
   39.2480   28.1260   43.2030 C   0  0  0  0  0  3  0  0  0  0  0  0
   39.9650   27.1280   43.8230 C   0  0  0  0  0  3  0  0  0  0  0  0
   39.7500   25.8110   43.5130 C   0  0  0  0  0  3  0  0  0  0  0  0
   38.7940   25.5340   42.5630 C   0  0  0  0  0  0  0  0  0  0  0  0
   38.5920   24.2040   42.2640 C   0  0  0  0  0  3  0  0  0  0  0  0
   37.6550   23.8450   41.3250 C   0  0  0  0  0  3  0  0  0  0  0  0
   36.9450   24.8790   40.7140 C   0  0  0  0  0  3  0  0  0  0  0  0
   37.1830   26.1830   41.0450 C   0  0  0  0  0  3  0  0  0  0  0  0
   38.1100   26.5700   41.9750 C   0  0  0  0  0  0  0  0  0  0  0  0
   38.9560   32.1900   40.3170 C   0  0  0  0  0  0  0  0  0  0  0  0
   38.8100   33.5500   40.5930 C   0  0  0  0  0  3  0  0  0  0  0  0
   39.9740   34.1020   40.0680 C   0  0  0  0  0  3  0  0  0  0  0  0
   40.7300   33.0850   39.5250 C   0  0  0  0  0  0  0  0  0  0  0  0
   40.0660   31.9420   39.7040 O   0  0  0  0  0  0  0  0  0  0  0  0
   41.9950   33.2140   38.8840 N   0  0  0  0  0  0  0  0  0  0  0  0
   43.0370   33.6690   39.6000 C   0  0  0  0  0  3  0  0  0  0  0  0
   44.2790   33.8040   39.0150 C   0  0  0  0  0  0  0  0  0  0  0  0
   44.4320   33.4650   37.6840 C   0  0  0  0  0  0  0  0  0  0  0  0
   45.5730   33.5990   37.1770 O   0  0  0  0  0  0  0  0  0  0  0  0
   43.3490   33.0190   37.0290 N   0  0  0  0  0  0  0  0  0  0  0  0
   42.1430   32.8910   37.6110 C   0  0  0  0  0  0  0  0  0  0  0  0
   41.1750   32.4660   36.9300 O   0  0  0  0  0  0  0  0  0  0  0  0
   45.3830   34.3150   39.8770 C   0  0  0  0  0  1  0  0  0  0  0  0
   43.4460   32.7620   36.0350 H   0  0  0  0  0  0  0  0  0  0  0  0
  1  6  1  0  0  0  0
  2  3  1  0  0  0  0
  2  1  2  0  0  0  0
  3  4  2  0  0  0  0
  4  5  1  0  0  0  0
  5  7  1  0  0  0  0
  6  5  2  0  0  0  0
  7  8  1  0  0  0  0
  8  9  2  0  0  0  0
 10  9  1  0  0  0  0
 11 10  2  0  0  0  0
 12 11  1  0  0  0  0
 13 12  2  0  0  0  0
 14 15  2  0  0  0  0
 14 13  1  0  0  0  0
 15 16  1  0  0  0  0
 16  7  2  0  0  0  0
 16 11  1  0  0  0  0
 17 18  2  0  0  0  0
 17  3  1  0  0  0  0
 19 18  1  0  0  0  0
 20 21  1  0  0  0  0
 20 19  2  0  0  0  0
 21 17  1  0  0  0  0
 22 20  1  0  0  0  0
 22 23  1  0  0  0  0
 24 23  2  0  0  0  0
 24 30  1  0  0  0  0
 25 24  1  0  0  0  0
 26 25  2  0  0  0  0
 27 28  1  0  0  0  0
 27 25  1  0  0  0  0
 28 22  1  0  0  0  0
 29 28  2  0  0  0  0
 31 27  1  0  0  0  0
M  END
>  <minimizedAffinity>
-7.88683033

$$$$

 OpenBabel03242510153D

 31 35  0  0  0  0  0  0  0  0999 V2000
   36.4800   30.0760   37.8200 C   0  0  0  0  0  3  0  0  0  0  0  0
   37.2980   31.2330   38.0340 C   0  0  0  0  0  3  0  0  0  0  0  0
   37.9200   31.2780   39.2510 C   0  0  0  0  0  0  0  0  0  0  0  0
   37.7100   30.2680   40.0960 N   0  0  0  0  0  0  0  0  0  0  0  0
   36.9450   29.1850   39.8980 C   0  0  0  0  0  0  0  0  0  0  0  0
   36.3290   29.1150   38.7250 N   0  0  0  0  0  0  0  0  0  0  0  0
   36.9620   28.2960   41.0540 C   0  0  0  0  0  0  0  0  0  0  0  0
   37.0230   28.7510   42.3400 C   0  0  0  0  0  3  0  0  0  0  0  0
   37.0410   27.9340   43.4470 C   0  0  0  0  0  3  0  0  0  0  0  0
   36.9970   26.5710   43.3170 C   0  0  0  0  0  3  0  0  0  0  0  0
   36.9340   26.0610   42.0400 C   0  0  0  0  0  0  0  0  0  0  0  0
   36.8900   24.6890   41.9280 C   0  0  0  0  0  3  0  0  0  0  0  0
   36.8270   24.1020   40.6870 C   0  0  0  0  0  3  0  0  0  0  0  0
   36.8100   24.9560   39.5850 C   0  0  0  0  0  3  0  0  0  0  0  0
   36.8560   26.3120   39.7480 C   0  0  0  0  0  3  0  0  0  0  0  0
   36.9200   26.9240   40.9710 C   0  0  0  0  0  0  0  0  0  0  0  0
   38.7770   32.4240   39.5620 C   0  0  0  0  0  0  0  0  0  0  0  0
   38.3420   33.7020   39.9160 C   0  0  0  0  0  3  0  0  0  0  0  0
   39.5330   34.3970   40.1000 C   0  0  0  0  0  3  0  0  0  0  0  0
   40.5810   33.5350   39.8570 C   0  0  0  0  0  0  0  0  0  0  0  0
   40.0660   32.3480   39.5330 O   0  0  0  0  0  0  0  0  0  0  0  0
   41.9700   33.8410   39.9310 N   0  0  0  0  0  0  0  0  0  0  0  0
   42.5750   33.7980   41.1300 C   0  0  0  0  0  3  0  0  0  0  0  0
   43.9200   34.0840   41.2420 C   0  0  0  0  0  0  0  0  0  0  0  0
   44.6310   34.4160   40.1050 C   0  0  0  0  0  0  0  0  0  0  0  0
   45.8530   34.6730   40.2360 O   0  0  0  0  0  0  0  0  0  0  0  0
   43.9630   34.4420   38.9410 N   0  0  0  0  0  0  0  0  0  0  0  0
   42.6500   34.1590   38.8450 C   0  0  0  0  0  0  0  0  0  0  0  0
   42.0950   34.2060   37.7170 O   0  0  0  0  0  0  0  0  0  0  0  0
   44.5180   34.0130   42.6060 C   0  0  0  0  0  1  0  0  0  0  0  0
   44.4780   34.6880   38.0830 H   0  0  0  0  0  0  0  0  0  0  0  0
  1  2  2  0  0  0  0
  1  6  1  0  0  0  0
  2  3  1  0  0  0  0
  3 17  1  0  0  0  0
  3  4  2  0  0  0  0
  5  4  1  0  0  0  0
  5  7  1  0  0  0  0
  6  5  2  0  0  0  0
  7  8  1  0  0  0  0
  8  9  2  0  0  0  0
 10  9  1  0  0  0  0
 11 10  2  0  0  0  0
 12 11  1  0  0  0  0
 13 12  2  0  0  0  0
 14 15  2  0  0  0  0
 14 13  1  0  0  0  0
 15 16  1  0  0  0  0
 16  7  2  0  0  0  0
 16 11  1  0  0  0  0
 17 18  2  0  0  0  0
 18 19  1  0  0  0  0
 20 22  1  0  0  0  0
 20 19  2  0  0  0  0
 21 17  1  0  0  0  0
 21 20  1  0  0  0  0
 22 23  1  0  0  0  0
 23 24  2  0  0  0  0
 24 30  1  0  0  0  0
 25 26  2  0  0  0  0
 25 24  1  0  0  0  0
 27 25  1  0  0  0  0
 28 27  1  0  0  0  0
 28 22  1  0  0  0  0
 29 28  2  0  0  0  0
 31 27  1  0  0  0  0
M  END
>  <minimizedAffinity>
-7.59416294

$$$$

 OpenBabel03242510153D

 31 35  0  0  0  0  0  0  0  0999 V2000
   33.8830   27.2810   36.5960 C   0  0  0  0  0  3  0  0  0  0  0  0
   34.8470   27.5560   37.6210 C   0  0  0  0  0  3  0  0  0  0  0  0
   34.5260   28.5990   38.4450 C   0  0  0  0  0  0  0  0  0  0  0  0
   33.3780   29.2400   38.2200 N   0  0  0  0  0  0  0  0  0  0  0  0
   32.4750   28.9840   37.2630 C   0  0  0  0  0  0  0  0  0  0  0  0
   32.7610   27.9780   36.4480 N   0  0  0  0  0  0  0  0  0  0  0  0
   31.3420   29.9010   37.3340 C   0  0  0  0  0  0  0  0  0  0  0  0
   30.5290   29.9920   38.4260 C   0  0  0  0  0  3  0  0  0  0  0  0
   29.4550   30.8480   38.5180 C   0  0  0  0  0  3  0  0  0  0  0  0
   29.1300   31.6840   37.4830 C   0  0  0  0  0  3  0  0  0  0  0  0
   29.9200   31.6310   36.3580 C   0  0  0  0  0  0  0  0  0  0  0  0
   29.5800   32.4790   35.3270 C   0  0  0  0  0  3  0  0  0  0  0  0
   30.3190   32.4860   34.1690 C   0  0  0  0  0  3  0  0  0  0  0  0
   31.4010   31.6080   34.1060 C   0  0  0  0  0  3  0  0  0  0  0  0
   31.6990   30.7860   35.1560 C   0  0  0  0  0  3  0  0  0  0  0  0
   30.9790   30.7570   36.3210 C   0  0  0  0  0  0  0  0  0  0  0  0
   35.4510   28.9560   39.5230 C   0  0  0  0  0  0  0  0  0  0  0  0
   35.6010   30.2220   40.0890 C   0  0  0  0  0  3  0  0  0  0  0  0
   36.5880   30.0200   41.0490 C   0  0  0  0  0  3  0  0  0  0  0  0
   36.9650   28.6950   41.0110 C   0  0  0  0  0  0  0  0  0  0  0  0
   36.2420   28.0910   40.0650 O   0  0  0  0  0  0  0  0  0  0  0  0
   37.9480   28.0660   41.8270 N   0  0  0  0  0  0  0  0  0  0  0  0
   39.2360   28.1280   41.4470 C   0  0  0  0  0  3  0  0  0  0  0  0
   40.2170   27.5340   42.2130 C   0  0  0  0  0  0  0  0  0  0  0  0
   39.8550   26.8740   43.3720 C   0  0  0  0  0  0  0  0  0  0  0  0
   40.7680   26.3420   44.0490 O   0  0  0  0  0  0  0  0  0  0  0  0
   38.5510   26.8500   43.6900 N   0  0  0  0  0  0  0  0  0  0  0  0
   37.6030   27.4340   42.9340 C   0  0  0  0  0  0  0  0  0  0  0  0
   36.4010   27.3670   43.2990 O   0  0  0  0  0  0  0  0  0  0  0  0
   41.6210   27.6490   41.7250 C   0  0  0  0  0  1  0  0  0  0  0  0
   38.2630   26.3620   44.5500 H   0  0  0  0  0  0  0  0  0  0  0  0
  1  2  1  0  0  0  0
  2  3  2  0  0  0  0
  3 17  1  0  0  0  0
  4  3  1  0  0  0  0
  5  7  1  0  0  0  0
  5  4  2  0  0  0  0
  6  1  2  0  0  0  0
  6  5  1  0  0  0  0
  7  8  1  0  0  0  0
  8  9  2  0  0  0  0
 10  9  1  0  0  0  0
 11 10  2  0  0  0  0
 12 11  1  0  0  0  0
 13 12  2  0  0  0  0
 14 13  1  0  0  0  0
 14 15  2  0  0  0  0
 15 16  1  0  0  0  0
 16 11  1  0  0  0  0
 16  7  2  0  0  0  0
 17 21  1  0  0  0  0
 17 18  2  0  0  0  0
 18 19  1  0  0  0  0
 20 19  2  0  0  0  0
 20 22  1  0  0  0  0
 21 20  1  0  0  0  0
 22 28  1  0  0  0  0
 23 22  1  0  0  0  0
 23 24  2  0  0  0  0
 24 25  1  0  0  0  0
 25 27  1  0  0  0  0
 25 26  2  0  0  0  0
 27 31  1  0  0  0  0
 28 29  2  0  0  0  0
 28 27  1  0  0  0  0
 30 24  1  0  0  0  0
M  END
>  <minimizedAffinity>
-7.27127552

$$$$

 OpenBabel03242510153D

 31 35  0  0  0  0  0  0  0  0999 V2000
   33.4600   26.4810   36.3070 C   0  0  0  0  0  3  0  0  0  0  0  0
   34.6140   26.8090   37.0920 C   0  0  0  0  0  3  0  0  0  0  0  0
   34.7690   28.1410   37.3560 C   0  0  0  0  0  0  0  0  0  0  0  0
   33.8550   28.9830   36.8710 N   0  0  0  0  0  0  0  0  0  0  0  0
   32.7750   28.6790   36.1370 C   0  0  0  0  0  0  0  0  0  0  0  0
   32.6000   27.3930   35.8650 N   0  0  0  0  0  0  0  0  0  0  0  0
   32.0080   29.8700   35.7910 C   0  0  0  0  0  0  0  0  0  0  0  0
   32.1750   30.5470   34.6170 C   0  0  0  0  0  3  0  0  0  0  0  0
   31.4650   31.6720   34.2670 C   0  0  0  0  0  3  0  0  0  0  0  0
   30.5170   32.1950   35.1060 C   0  0  0  0  0  3  0  0  0  0  0  0
   30.3090   31.5500   36.3040 C   0  0  0  0  0  0  0  0  0  0  0  0
   29.3510   32.0890   37.1350 C   0  0  0  0  0  3  0  0  0  0  0  0
   29.0850   31.5030   38.3490 C   0  0  0  0  0  3  0  0  0  0  0  0
   29.8210   30.3640   38.6750 C   0  0  0  0  0  3  0  0  0  0  0  0
   30.7600   29.8670   37.8160 C   0  0  0  0  0  3  0  0  0  0  0  0
   31.0480   30.4310   36.6010 C   0  0  0  0  0  0  0  0  0  0  0  0
   35.9210   28.5730   38.1510 C   0  0  0  0  0  0  0  0  0  0  0  0
   36.8040   27.7370   38.8360 C   0  0  0  0  0  3  0  0  0  0  0  0
   37.6950   28.6340   39.4160 C   0  0  0  0  0  3  0  0  0  0  0  0
   37.3160   29.9110   39.0640 C   0  0  0  0  0  0  0  0  0  0  0  0
   36.2310   29.8180   38.2930 O   0  0  0  0  0  0  0  0  0  0  0  0
   37.9570   31.1250   39.4460 N   0  0  0  0  0  0  0  0  0  0  0  0
   39.0580   31.5100   38.7790 C   0  0  0  0  0  3  0  0  0  0  0  0
   39.7040   32.6810   39.1170 C   0  0  0  0  0  0  0  0  0  0  0  0
   39.2010   33.4480   40.1510 C   0  0  0  0  0  0  0  0  0  0  0  0
   39.8090   34.5090   40.4380 O   0  0  0  0  0  0  0  0  0  0  0  0
   38.0980   33.0040   40.7740 N   0  0  0  0  0  0  0  0  0  0  0  0
   37.4770   31.8600   40.4340 C   0  0  0  0  0  0  0  0  0  0  0  0
   36.4480   31.5090   41.0670 O   0  0  0  0  0  0  0  0  0  0  0  0
   40.9190   33.0380   38.3300 C   0  0  0  0  0  1  0  0  0  0  0  0
   37.7100   33.5640   41.5470 H   0  0  0  0  0  0  0  0  0  0  0  0
  1  2  1  0  0  0  0
  2  3  2  0  0  0  0
  3 17  1  0  0  0  0
  4  3  1  0  0  0  0
  5  4  2  0  0  0  0
  6  5  1  0  0  0  0
  6  1  2  0  0  0  0
  7  5  1  0  0  0  0
  7 16  1  0  0  0  0
  8  7  2  0  0  0  0
  9  8  1  0  0  0  0
  9 10  2  0  0  0  0
 10 11  1  0  0  0  0
 11 16  2  0  0  0  0
 11 12  1  0  0  0  0
 12 13  2  0  0  0  0
 13 14  1  0  0  0  0
 15 14  2  0  0  0  0
 16 15  1  0  0  0  0
 17 21  1  0  0  0  0
 17 18  2  0  0  0  0
 18 19  1  0  0  0  0
 20 19  2  0  0  0  0
 20 22  1  0  0  0  0
 21 20  1  0  0  0  0
 22 28  1  0  0  0  0
 23 24  2  0  0  0  0
 23 22  1  0  0  0  0
 24 25  1  0  0  0  0
 25 26  2  0  0  0  0
 25 27  1  0  0  0  0
 27 31  1  0  0  0  0
 28 27  1  0  0  0  0
 28 29  2  0  0  0  0
 30 24  1  0  0  0  0
M  END
>  <minimizedAffinity>
-7.24049664

$$$$

 OpenBabel03242510153D

 31 35  0  0  0  0  0  0  0  0999 V2000
   33.7340   27.2470   36.6670 C   0  0  0  0  0  3  0  0  0  0  0  0
   34.7450   27.6240   37.6110 C   0  0  0  0  0  3  0  0  0  0  0  0
   34.4580   28.7420   38.3430 C   0  0  0  0  0  0  0  0  0  0  0  0
   33.2960   29.3560   38.1140 N   0  0  0  0  0  0  0  0  0  0  0  0
   32.3490   29.0060   37.2320 C   0  0  0  0  0  0  0  0  0  0  0  0
   32.6010   27.9240   36.5070 N   0  0  0  0  0  0  0  0  0  0  0  0
   31.2150   29.9220   37.2690 C   0  0  0  0  0  0  0  0  0  0  0  0
   30.3810   30.0300   38.3450 C   0  0  0  0  0  3  0  0  0  0  0  0
   29.3050   30.8860   38.4040 C   0  0  0  0  0  3  0  0  0  0  0  0
   29.0000   31.7070   37.3510 C   0  0  0  0  0  3  0  0  0  0  0  0
   29.8120   31.6390   36.2420 C   0  0  0  0  0  0  0  0  0  0  0  0
   29.4900   32.4720   35.1930 C   0  0  0  0  0  3  0  0  0  0  0  0
   30.2510   32.4620   34.0490 C   0  0  0  0  0  3  0  0  0  0  0  0
   31.3350   31.5840   34.0180 C   0  0  0  0  0  3  0  0  0  0  0  0
   31.6120   30.7770   35.0860 C   0  0  0  0  0  3  0  0  0  0  0  0
   30.8710   30.7640   36.2370 C   0  0  0  0  0  0  0  0  0  0  0  0
   35.4330   29.2060   39.3330 C   0  0  0  0  0  0  0  0  0  0  0  0
   35.4610   28.8550   40.6830 C   0  0  0  0  0  3  0  0  0  0  0  0
   36.5630   29.5550   41.1640 C   0  0  0  0  0  3  0  0  0  0  0  0
   37.1180   30.2620   40.1200 C   0  0  0  0  0  0  0  0  0  0  0  0
   36.3930   30.0140   39.0280 O   0  0  0  0  0  0  0  0  0  0  0  0
   38.2600   31.1110   40.1780 N   0  0  0  0  0  0  0  0  0  0  0  0
   38.0760   32.4250   40.3890 C   0  0  0  0  0  3  0  0  0  0  0  0
   39.1580   33.2780   40.4550 C   0  0  0  0  0  0  0  0  0  0  0  0
   40.4290   32.7610   40.2990 C   0  0  0  0  0  0  0  0  0  0  0  0
   41.3960   33.5600   40.3630 O   0  0  0  0  0  0  0  0  0  0  0  0
   40.5400   31.4390   40.0900 N   0  0  0  0  0  0  0  0  0  0  0  0
   39.4760   30.6170   40.0290 C   0  0  0  0  0  0  0  0  0  0  0  0
   39.6620   29.3890   39.8280 O   0  0  0  0  0  0  0  0  0  0  0  0
   38.8700   34.7220   40.6930 C   0  0  0  0  0  1  0  0  0  0  0  0
   41.4810   31.0370   39.9720 H   0  0  0  0  0  0  0  0  0  0  0  0
  1  2  1  0  0  0  0
  2  3  2  0  0  0  0
  3 17  1  0  0  0  0
  4  3  1  0  0  0  0
  5  7  1  0  0  0  0
  5  4  2  0  0  0  0
  6  1  2  0  0  0  0
  6  5  1  0  0  0  0
  7  8  1  0  0  0  0
  8  9  2  0  0  0  0
 10  9  1  0  0  0  0
 11 10  2  0  0  0  0
 12 11  1  0  0  0  0
 13 12  2  0  0  0  0
 14 13  1  0  0  0  0
 14 15  2  0  0  0  0
 15 16  1  0  0  0  0
 16 11  1  0  0  0  0
 16  7  2  0  0  0  0
 17 18  2  0  0  0  0
 18 19  1  0  0  0  0
 20 22  1  0  0  0  0
 20 19  2  0  0  0  0
 21 17  1  0  0  0  0
 21 20  1  0  0  0  0
 22 23  1  0  0  0  0
 23 24  2  0  0  0  0
 24 30  1  0  0  0  0
 25 26  2  0  0  0  0
 25 24  1  0  0  0  0
 27 25  1  0  0  0  0
 28 27  1  0  0  0  0
 28 22  1  0  0  0  0
 29 28  2  0  0  0  0
 31 27  1  0  0  0  0
M  END
>  <minimizedAffinity>
-7.19338989

$$$$

 OpenBabel03242510153D

 31 35  0  0  0  0  0  0  0  0999 V2000
   32.4830   27.1930   34.5340 C   0  0  0  0  0  3  0  0  0  0  0  0
   33.6250   27.3180   35.3910 C   0  0  0  0  0  3  0  0  0  0  0  0
   33.6950   28.4940   36.0860 C   0  0  0  0  0  0  0  0  0  0  0  0
   32.7190   29.3840   35.9030 N   0  0  0  0  0  0  0  0  0  0  0  0
   31.6500   29.2690   35.1030 C   0  0  0  0  0  0  0  0  0  0  0  0
   31.5560   28.1390   34.4160 N   0  0  0  0  0  0  0  0  0  0  0  0
   30.7990   30.4530   35.1690 C   0  0  0  0  0  0  0  0  0  0  0  0
   30.5700   31.1390   36.3270 C   0  0  0  0  0  3  0  0  0  0  0  0
   29.7730   32.2570   36.4160 C   0  0  0  0  0  3  0  0  0  0  0  0
   29.1420   32.7620   35.3100 C   0  0  0  0  0  3  0  0  0  0  0  0
   29.3410   32.1060   34.1170 C   0  0  0  0  0  0  0  0  0  0  0  0
   28.6990   32.6280   33.0150 C   0  0  0  0  0  3  0  0  0  0  0  0
   28.8460   32.0300   31.7860 C   0  0  0  0  0  3  0  0  0  0  0  0
   29.6610   30.8990   31.7280 C   0  0  0  0  0  3  0  0  0  0  0  0
   30.2760   30.4200   32.8500 C   0  0  0  0  0  3  0  0  0  0  0  0
   30.1460   30.9940   34.0870 C   0  0  0  0  0  0  0  0  0  0  0  0
   34.8280   28.7130   36.9870 C   0  0  0  0  0  0  0  0  0  0  0  0
   36.0500   29.2920   36.6410 C   0  0  0  0  0  3  0  0  0  0  0  0
   36.7580   29.2630   37.8390 C   0  0  0  0  0  3  0  0  0  0  0  0
   35.9570   28.6920   38.8030 C   0  0  0  0  0  0  0  0  0  0  0  0
   34.7930   28.3750   38.2330 O   0  0  0  0  0  0  0  0  0  0  0  0
   36.2940   28.4700   40.1690 N   0  0  0  0  0  0  0  0  0  0  0  0
   36.7000   27.2440   40.5410 C   0  0  0  0  0  3  0  0  0  0  0  0
   37.0380   26.9910   41.8540 C   0  0  0  0  0  0  0  0  0  0  0  0
   36.9530   28.0160   42.7770 C   0  0  0  0  0  0  0  0  0  0  0  0
   37.2660   27.7580   43.9660 O   0  0  0  0  0  0  0  0  0  0  0  0
   36.5390   29.2150   42.3370 N   0  0  0  0  0  0  0  0  0  0  0  0
   36.2120   29.4490   41.0520 C   0  0  0  0  0  0  0  0  0  0  0  0
   35.8320   30.6000   40.7170 O   0  0  0  0  0  0  0  0  0  0  0  0
   37.4790   25.6060   42.1870 C   0  0  0  0  0  1  0  0  0  0  0  0
   36.4690   29.9900   43.0120 H   0  0  0  0  0  0  0  0  0  0  0  0
  1  2  1  0  0  0  0
  2  3  2  0  0  0  0
  3 17  1  0  0  0  0
  4  3  1  0  0  0  0
  5  7  1  0  0  0  0
  5  4  2  0  0  0  0
  6  1  2  0  0  0  0
  6  5  1  0  0  0  0
  7  8  1  0  0  0  0
  8  9  2  0  0  0  0
 10  9  1  0  0  0  0
 11 10  2  0  0  0  0
 12 11  1  0  0  0  0
 13 12  2  0  0  0  0
 14 13  1  0  0  0  0
 14 15  2  0  0  0  0
 15 16  1  0  0  0  0
 16 11  1  0  0  0  0
 16  7  2  0  0  0  0
 17 21  1  0  0  0  0
 18 17  2  0  0  0  0
 18 19  1  0  0  0  0
 19 20  2  0  0  0  0
 20 22  1  0  0  0  0
 21 20  1  0  0  0  0
 22 23  1  0  0  0  0
 22 28  1  0  0  0  0
 23 24  2  0  0  0  0
 24 30  1  0  0  0  0
 24 25  1  0  0  0  0
 25 26  2  0  0  0  0
 27 25  1  0  0  0  0
 27 31  1  0  0  0  0
 28 27  1  0  0  0  0
 29 28  2  0  0  0  0
M  END
>  <minimizedAffinity>
-7.16455603

$$$$

 OpenBabel03242510153D

 31 35  0  0  0  0  0  0  0  0999 V2000
   33.6400   26.9160   35.8880 C   0  0  0  0  0  3  0  0  0  0  0  0
   34.8680   27.2360   36.5560 C   0  0  0  0  0  3  0  0  0  0  0  0
   34.8360   28.3870   37.2930 C   0  0  0  0  0  0  0  0  0  0  0  0
   33.6960   29.0800   37.3190 N   0  0  0  0  0  0  0  0  0  0  0  0
   32.5480   28.7820   36.6950 C   0  0  0  0  0  0  0  0  0  0  0  0
   32.5490   27.6710   35.9710 N   0  0  0  0  0  0  0  0  0  0  0  0
   31.5180   29.7800   36.9610 C   0  0  0  0  0  0  0  0  0  0  0  0
   30.8890   29.8960   38.1670 C   0  0  0  0  0  3  0  0  0  0  0  0
   29.9160   30.8280   38.4440 C   0  0  0  0  0  3  0  0  0  0  0  0
   29.5070   31.7230   37.4910 C   0  0  0  0  0  3  0  0  0  0  0  0
   30.1110   31.6490   36.2560 C   0  0  0  0  0  0  0  0  0  0  0  0
   29.6880   32.5570   35.3100 C   0  0  0  0  0  3  0  0  0  0  0  0
   30.2410   32.5470   34.0520 C   0  0  0  0  0  3  0  0  0  0  0  0
   31.2260   31.5920   33.8020 C   0  0  0  0  0  3  0  0  0  0  0  0
   31.6110   30.7120   34.7750 C   0  0  0  0  0  3  0  0  0  0  0  0
   31.0760   30.6970   36.0360 C   0  0  0  0  0  0  0  0  0  0  0  0
   36.0440   28.7970   38.0120 C   0  0  0  0  0  0  0  0  0  0  0  0
   37.0330   27.9450   38.5060 C   0  0  0  0  0  3  0  0  0  0  0  0
   37.9390   28.8250   39.0900 C   0  0  0  0  0  3  0  0  0  0  0  0
   37.4660   30.1090   38.9230 C   0  0  0  0  0  0  0  0  0  0  0  0
   36.3110   30.0360   38.2610 O   0  0  0  0  0  0  0  0  0  0  0  0
   38.0860   31.3100   39.3720 N   0  0  0  0  0  0  0  0  0  0  0  0
   39.2030   31.7280   38.7530 C   0  0  0  0  0  3  0  0  0  0  0  0
   39.8300   32.8880   39.1570 C   0  0  0  0  0  0  0  0  0  0  0  0
   39.2940   33.6090   40.2070 C   0  0  0  0  0  0  0  0  0  0  0  0
   39.8860   34.6610   40.5540 O   0  0  0  0  0  0  0  0  0  0  0  0
   38.1780   33.1320   40.7800 N   0  0  0  0  0  0  0  0  0  0  0  0
   37.5750   31.9990   40.3760 C   0  0  0  0  0  0  0  0  0  0  0  0
   36.5320   31.6170   40.9660 O   0  0  0  0  0  0  0  0  0  0  0  0
   41.0630   33.2860   38.4180 C   0  0  0  0  0  1  0  0  0  0  0  0
   37.7650   33.6580   41.5650 H   0  0  0  0  0  0  0  0  0  0  0  0
  1  6  2  0  0  0  0
  1  2  1  0  0  0  0
  2  3  2  0  0  0  0
  3  4  1  0  0  0  0
  3 17  1  0  0  0  0
  5  7  1  0  0  0  0
  5  4  2  0  0  0  0
  6  5  1  0  0  0  0
  7  8  1  0  0  0  0
  8  9  2  0  0  0  0
 10  9  1  0  0  0  0
 11 10  2  0  0  0  0
 12 11  1  0  0  0  0
 13 12  2  0  0  0  0
 14 13  1  0  0  0  0
 14 15  2  0  0  0  0
 15 16  1  0  0  0  0
 16 11  1  0  0  0  0
 16  7  2  0  0  0  0
 17 21  1  0  0  0  0
 17 18  2  0  0  0  0
 18 19  1  0  0  0  0
 20 19  2  0  0  0  0
 20 22  1  0  0  0  0
 21 20  1  0  0  0  0
 22 28  1  0  0  0  0
 23 24  2  0  0  0  0
 23 22  1  0  0  0  0
 24 25  1  0  0  0  0
 25 26  2  0  0  0  0
 25 27  1  0  0  0  0
 27 31  1  0  0  0  0
 28 27  1  0  0  0  0
 28 29  2  0  0  0  0
 30 24  1  0  0  0  0
M  END
>  <minimizedAffinity>
-7.12698507

$$$$

 OpenBabel03242510153D

 31 35  0  0  0  0  0  0  0  0999 V2000
   35.3470   28.4440   37.5480 C   0  0  0  0  0  3  0  0  0  0  0  0
   36.0040   29.7000   37.7580 C   0  0  0  0  0  3  0  0  0  0  0  0
   36.8980   29.7140   38.7930 C   0  0  0  0  0  0  0  0  0  0  0  0
   37.0660   28.5870   39.4860 N   0  0  0  0  0  0  0  0  0  0  0  0
   36.4530   27.4110   39.2910 C   0  0  0  0  0  0  0  0  0  0  0  0
   35.5800   27.3680   38.2930 N   0  0  0  0  0  0  0  0  0  0  0  0
   36.8980   26.4070   40.2510 C   0  0  0  0  0  0  0  0  0  0  0  0
   36.5640   25.0860   40.1540 C   0  0  0  0  0  3  0  0  0  0  0  0
   36.9700   24.1200   41.0460 C   0  0  0  0  0  3  0  0  0  0  0  0
   37.7610   24.4400   42.1180 C   0  0  0  0  0  3  0  0  0  0  0  0
   38.1270   25.7590   42.2610 C   0  0  0  0  0  0  0  0  0  0  0  0
   38.9220   26.0620   43.3440 C   0  0  0  0  0  3  0  0  0  0  0  0
   39.3290   27.3570   43.5570 C   0  0  0  0  0  3  0  0  0  0  0  0
   38.9010   28.3130   42.6370 C   0  0  0  0  0  3  0  0  0  0  0  0
   38.1130   27.9620   41.5770 C   0  0  0  0  0  3  0  0  0  0  0  0
   37.6900   26.6810   41.3410 C   0  0  0  0  0  0  0  0  0  0  0  0
   37.6180   30.9550   39.0860 C   0  0  0  0  0  0  0  0  0  0  0  0
   37.0570   32.1300   39.5890 C   0  0  0  0  0  3  0  0  0  0  0  0
   38.1520   32.9830   39.6800 C   0  0  0  0  0  3  0  0  0  0  0  0
   39.2690   32.3050   39.2450 C   0  0  0  0  0  0  0  0  0  0  0  0
   38.8900   31.0750   38.8950 O   0  0  0  0  0  0  0  0  0  0  0  0
   40.5990   32.8100   39.1730 N   0  0  0  0  0  0  0  0  0  0  0  0
   41.1590   33.3110   40.2880 C   0  0  0  0  0  3  0  0  0  0  0  0
   42.4450   33.8070   40.2580 C   0  0  0  0  0  0  0  0  0  0  0  0
   43.1460   33.7810   39.0680 C   0  0  0  0  0  0  0  0  0  0  0  0
   44.3150   34.2400   39.0700 O   0  0  0  0  0  0  0  0  0  0  0  0
   42.5260   33.2690   37.9930 N   0  0  0  0  0  0  0  0  0  0  0  0
   41.2700   32.7870   38.0350 C   0  0  0  0  0  0  0  0  0  0  0  0
   40.7560   32.3240   36.9850 O   0  0  0  0  0  0  0  0  0  0  0  0
   42.9950   34.3440   41.5360 C   0  0  0  0  0  1  0  0  0  0  0  0
   43.0340   33.2430   37.0980 H   0  0  0  0  0  0  0  0  0  0  0  0
  1  2  2  0  0  0  0
  1  6  1  0  0  0  0
  2  3  1  0  0  0  0
  3 17  1  0  0  0  0
  3  4  2  0  0  0  0
  5  4  1  0  0  0  0
  5  7  1  0  0  0  0
  6  5  2  0  0  0  0
  7 16  1  0  0  0  0
  8  7  2  0  0  0  0
  8  9  1  0  0  0  0
  9 10  2  0  0  0  0
 10 11  1  0  0  0  0
 11 12  1  0  0  0  0
 12 13  2  0  0  0  0
 14 13  1  0  0  0  0
 15 14  2  0  0  0  0
 16 15  1  0  0  0  0
 16 11  2  0  0  0  0
 17 18  2  0  0  0  0
 18 19  1  0  0  0  0
 20 19  2  0  0  0  0
 21 17  1  0  0  0  0
 21 20  1  0  0  0  0
 22 20  1  0  0  0  0
 22 23  1  0  0  0  0
 24 23  2  0  0  0  0
 24 30  1  0  0  0  0
 25 26  2  0  0  0  0
 25 24  1  0  0  0  0
 27 28  1  0  0  0  0
 27 25  1  0  0  0  0
 28 22  1  0  0  0  0
 29 28  2  0  0  0  0
 31 27  1  0  0  0  0
M  END
>  <minimizedAffinity>
-7.08879566

$$$$

 OpenBabel03242510153D

 31 35  0  0  0  0  0  0  0  0999 V2000
   33.2430   26.3650   36.2100 C   0  0  0  0  0  3  0  0  0  0  0  0
   34.3410   26.5960   37.1020 C   0  0  0  0  0  3  0  0  0  0  0  0
   34.5230   27.9030   37.4600 C   0  0  0  0  0  0  0  0  0  0  0  0
   33.6830   28.8100   36.9590 N   0  0  0  0  0  0  0  0  0  0  0  0
   32.6550   28.5960   36.1250 C   0  0  0  0  0  0  0  0  0  0  0  0
   32.4550   27.3370   35.7600 N   0  0  0  0  0  0  0  0  0  0  0  0
   31.9640   29.8370   35.7960 C   0  0  0  0  0  0  0  0  0  0  0  0
   32.1910   30.5310   34.6420 C   0  0  0  0  0  3  0  0  0  0  0  0
   31.5520   31.7030   34.3070 C   0  0  0  0  0  3  0  0  0  0  0  0
   30.6200   32.2590   35.1430 C   0  0  0  0  0  3  0  0  0  0  0  0
   30.3530   31.5980   36.3200 C   0  0  0  0  0  0  0  0  0  0  0  0
   29.4130   32.1720   37.1470 C   0  0  0  0  0  3  0  0  0  0  0  0
   29.0910   31.5740   38.3420 C   0  0  0  0  0  3  0  0  0  0  0  0
   29.7550   30.3870   38.6530 C   0  0  0  0  0  3  0  0  0  0  0  0
   30.6810   29.8570   37.7980 C   0  0  0  0  0  3  0  0  0  0  0  0
   31.0220   30.4320   36.6020 C   0  0  0  0  0  0  0  0  0  0  0  0
   35.6220   28.2380   38.3690 C   0  0  0  0  0  0  0  0  0  0  0  0
   36.2970   29.4580   38.4250 C   0  0  0  0  0  3  0  0  0  0  0  0
   37.2300   29.2520   39.4360 C   0  0  0  0  0  3  0  0  0  0  0  0
   37.0740   27.9700   39.9160 C   0  0  0  0  0  0  0  0  0  0  0  0
   36.0820   27.3960   39.2330 O   0  0  0  0  0  0  0  0  0  0  0  0
   37.8280   27.3520   40.9540 N   0  0  0  0  0  0  0  0  0  0  0  0
   38.9830   26.7430   40.6370 C   0  0  0  0  0  3  0  0  0  0  0  0
   39.7420   26.1360   41.6150 C   0  0  0  0  0  0  0  0  0  0  0  0
   39.2960   26.1630   42.9220 C   0  0  0  0  0  0  0  0  0  0  0  0
   40.0060   25.6020   43.7930 O   0  0  0  0  0  0  0  0  0  0  0  0
   38.1330   26.7860   43.1680 N   0  0  0  0  0  0  0  0  0  0  0  0
   37.4010   27.3760   42.2040 C   0  0  0  0  0  0  0  0  0  0  0  0
   36.3200   27.9400   42.5140 O   0  0  0  0  0  0  0  0  0  0  0  0
   41.0120   25.4840   41.1820 C   0  0  0  0  0  1  0  0  0  0  0  0
   37.7850   26.8150   44.1380 H   0  0  0  0  0  0  0  0  0  0  0  0
  1  2  1  0  0  0  0
  2  3  2  0  0  0  0
  3 17  1  0  0  0  0
  4  3  1  0  0  0  0
  5  4  2  0  0  0  0
  6  5  1  0  0  0  0
  6  1  2  0  0  0  0
  7  5  1  0  0  0  0
  7 16  1  0  0  0  0
  8  7  2  0  0  0  0
  9  8  1  0  0  0  0
  9 10  2  0  0  0  0
 10 11  1  0  0  0  0
 11 16  2  0  0  0  0
 11 12  1  0  0  0  0
 12 13  2  0  0  0  0
 13 14  1  0  0  0  0
 15 14  2  0  0  0  0
 16 15  1  0  0  0  0
 17 18  2  0  0  0  0
 17 21  1  0  0  0  0
 18 19  1  0  0  0  0
 19 20  2  0  0  0  0
 20 22  1  0  0  0  0
 21 20  1  0  0  0  0
 22 28  1  0  0  0  0
 23 22  1  0  0  0  0
 23 24  2  0  0  0  0
 24 25  1  0  0  0  0
 25 27  1  0  0  0  0
 25 26  2  0  0  0  0
 27 31  1  0  0  0  0
 28 29  2  0  0  0  0
 28 27  1  0  0  0  0
 30 24  1  0  0  0  0
M  END
>  <minimizedAffinity>
-7.00565004

$$$$
