
 OpenBabel03242510133D

 35 39  0  0  1  0  0  0  0  0999 V2000
   36.5440   27.9930   38.6240 C   0  0  0  0  0  3  0  0  0  0  0  0
   36.5500   27.1360   39.7350 C   0  0  0  0  0  3  0  0  0  0  0  0
   37.0210   27.6250   40.9600 C   0  0  0  0  0  0  0  0  0  0  0  0
   37.4440   28.8880   41.0220 N   0  0  0  0  0  0  0  0  0  0  0  0
   37.4290   29.6920   39.9390 C   0  0  0  0  0  0  0  0  0  0  0  0
   36.9820   29.2530   38.7440 N   0  0  0  0  0  0  0  0  0  0  0  0
   37.0370   26.7620   42.1400 C   0  0  2  0  0  3  0  0  0  0  0  0
   36.3890   27.3080   43.3480 C   0  0  0  0  0  2  0  0  0  0  0  0
   37.4830   28.0120   44.1290 C   0  0  0  0  0  2  0  0  0  0  0  0
   38.7410   27.2540   43.7950 C   0  0  0  0  0  2  0  0  0  0  0  0
   38.3720   26.3440   42.6580 C   0  0  2  0  0  3  0  0  0  0  0  0
   39.3960   26.1080   41.7000 N   0  0  0  0  0  0  0  0  0  0  0  0
   40.5060   26.9040   41.7430 C   0  0  0  0  0  3  0  0  0  0  0  0
   41.3560   26.5380   40.7720 N   0  0  0  0  0  0  0  0  0  0  0  0
   40.8610   25.5180   40.0680 C   0  0  0  0  0  0  0  0  0  0  0  0
   41.1970   24.7170   39.0100 C   0  0  0  0  0  3  0  0  0  0  0  0
   40.3460   23.7370   38.5940 N   0  0  0  0  0  0  0  0  0  0  0  0
   39.1530   23.5190   39.2050 C   0  0  0  0  0  3  0  0  0  0  0  0
   38.8460   24.3020   40.2260 N   0  0  0  0  0  0  0  0  0  0  0  0
   39.6520   25.2810   40.6710 C   0  0  0  0  0  0  0  0  0  0  0  0
   37.8930   31.0920   39.9900 C   0  0  0  0  0  0  0  0  0  0  0  0
   37.2780   32.2290   40.3480 N   0  0  0  0  0  0  0  0  0  0  0  0
   38.0930   33.2470   40.2330 O   0  0  0  0  0  0  0  0  0  0  0  0
   39.2620   32.8130   39.7990 C   0  0  0  0  0  0  0  0  0  0  0  0
   39.1380   31.4640   39.6450 N   0  0  0  0  0  0  0  0  0  0  0  0
   40.4070   33.6530   39.5520 C   0  0  0  0  0  0  0  0  0  0  0  0
   40.9490   34.3190   40.4000 O   0  0  0  0  0  0  0  0  0  0  0  0
   40.8070   33.6010   38.2210 N   0  0  0  0  0  0  0  0  0  0  0  0
   42.0650   34.2450   37.9840 C   0  0  0  0  0  0  0  0  0  0  0  0
   42.9060   34.8810   38.6690 N   0  0  0  0  0  0  0  0  0  0  0  0
   42.7180   34.2960   36.7180 N   0  0  0  0  0  0  0  0  0  0  0  0
   43.0470   34.6980   39.6690 H   0  0  0  0  0  0  0  0  0  0  0  0
   40.2550   33.1460   37.4800 H   0  0  0  0  0  0  0  0  0  0  0  0
   43.6230   34.7780   36.6250 H   0  0  0  0  0  0  0  0  0  0  0  0
   42.2850   33.8510   35.8970 H   0  0  0  0  0  0  0  0  0  0  0  0
  1  6  2  0  0  0  0
  1  2  1  0  0  0  0
  2  3  2  0  0  0  0
  3  4  1  0  0  0  0
  5 21  1  0  0  0  0
  5  4  2  0  0  0  0
  6  5  1  0  0  0  0
  7  3  1  6  0  0  0
  7 11  1  0  0  0  0
  7  8  1  0  0  0  0
  8  9  1  0  0  0  0
 10  9  1  0  0  0  0
 11 12  1  6  0  0  0
 11 10  1  0  0  0  0
 12 13  1  0  0  0  0
 14 13  2  0  0  0  0
 15 20  1  0  0  0  0
 15 14  1  0  0  0  0
 16 15  2  0  0  0  0
 17 16  1  0  0  0  0
 17 18  2  0  0  0  0
 18 19  1  0  0  0  0
 19 20  2  0  0  0  0
 20 12  1  0  0  0  0
 21 22  2  0  0  0  0
 23 22  1  0  0  0  0
 24 23  1  0  0  0  0
 25 24  2  0  0  0  0
 25 21  1  0  0  0  0
 26 24  1  0  0  0  0
 26 27  2  0  0  0  0
 28 26  1  0  0  0  0
 29 28  1  0  0  0  0
 29 30  2  0  0  0  0
 30 32  1  0  0  0  0
 31 29  1  0  0  0  0
 33 28  1  0  0  0  0
 34 31  1  0  0  0  0
 35 31  1  0  0  0  0
M  END
>  <minimizedAffinity>
-7.65298128

$$$$

 OpenBabel03242510133D

 35 39  0  0  1  0  0  0  0  0999 V2000
   36.4460   27.9180   38.6510 C   0  0  0  0  0  3  0  0  0  0  0  0
   36.4830   27.0730   39.7700 C   0  0  0  0  0  3  0  0  0  0  0  0
   37.0000   27.5690   40.9730 C   0  0  0  0  0  0  0  0  0  0  0  0
   37.4360   28.8290   41.0070 N   0  0  0  0  0  0  0  0  0  0  0  0
   37.3900   29.6220   39.9170 C   0  0  0  0  0  0  0  0  0  0  0  0
   36.8980   29.1760   38.7430 N   0  0  0  0  0  0  0  0  0  0  0  0
   37.0490   26.7180   42.1600 C   0  0  2  0  0  3  0  0  0  0  0  0
   36.4220   27.2690   43.3770 C   0  0  0  0  0  2  0  0  0  0  0  0
   37.5270   27.9910   44.1280 C   0  0  0  0  0  2  0  0  0  0  0  0
   38.7840   27.2410   43.7730 C   0  0  0  0  0  2  0  0  0  0  0  0
   38.3990   26.3180   42.6530 C   0  0  2  0  0  3  0  0  0  0  0  0
   39.4040   26.0820   41.6760 N   0  0  0  0  0  0  0  0  0  0  0  0
   39.4680   24.8380   41.1130 C   0  0  0  0  0  3  0  0  0  0  0  0
   40.4700   24.8010   40.2220 N   0  0  0  0  0  0  0  0  0  0  0  0
   41.0910   25.9800   40.1580 C   0  0  0  0  0  0  0  0  0  0  0  0
   42.1270   26.5820   39.4960 C   0  0  0  0  0  3  0  0  0  0  0  0
   42.4430   27.8830   39.7510 N   0  0  0  0  0  0  0  0  0  0  0  0
   41.7500   28.6210   40.6580 C   0  0  0  0  0  3  0  0  0  0  0  0
   40.7520   28.0230   41.2870 N   0  0  0  0  0  0  0  0  0  0  0  0
   40.4050   26.7430   41.0680 C   0  0  0  0  0  0  0  0  0  0  0  0
   37.8680   31.0190   39.9380 C   0  0  0  0  0  0  0  0  0  0  0  0
   37.2420   32.1780   40.1930 N   0  0  0  0  0  0  0  0  0  0  0  0
   38.0760   33.1810   40.0940 O   0  0  0  0  0  0  0  0  0  0  0  0
   39.2700   32.7160   39.7730 C   0  0  0  0  0  0  0  0  0  0  0  0
   39.1400   31.3610   39.6740 N   0  0  0  0  0  0  0  0  0  0  0  0
   40.4420   33.5310   39.5770 C   0  0  0  0  0  0  0  0  0  0  0  0
   41.0340   34.0850   40.4710 O   0  0  0  0  0  0  0  0  0  0  0  0
   40.8030   33.6000   38.2360 N   0  0  0  0  0  0  0  0  0  0  0  0
   42.0800   34.2150   38.0250 C   0  0  0  0  0  0  0  0  0  0  0  0
   42.9650   34.7450   38.7440 N   0  0  0  0  0  0  0  0  0  0  0  0
   42.7000   34.3710   36.7510 N   0  0  0  0  0  0  0  0  0  0  0  0
   43.1250   34.4550   39.7160 H   0  0  0  0  0  0  0  0  0  0  0  0
   40.2120   33.2450   37.4700 H   0  0  0  0  0  0  0  0  0  0  0  0
   43.6210   34.8240   36.6790 H   0  0  0  0  0  0  0  0  0  0  0  0
   42.2260   34.0290   35.9030 H   0  0  0  0  0  0  0  0  0  0  0  0
  1  6  2  0  0  0  0
  1  2  1  0  0  0  0
  2  3  2  0  0  0  0
  3  4  1  0  0  0  0
  5 21  1  0  0  0  0
  5  4  2  0  0  0  0
  6  5  1  0  0  0  0
  7  3  1  6  0  0  0
  7 11  1  0  0  0  0
  7  8  1  0  0  0  0
  8  9  1  0  0  0  0
 10  9  1  0  0  0  0
 11 12  1  6  0  0  0
 11 10  1  0  0  0  0
 13 12  1  0  0  0  0
 14 13  2  0  0  0  0
 15 14  1  0  0  0  0
 15 20  1  0  0  0  0
 16 17  1  0  0  0  0
 16 15  2  0  0  0  0
 17 18  2  0  0  0  0
 18 19  1  0  0  0  0
 20 19  2  0  0  0  0
 20 12  1  0  0  0  0
 21 22  2  0  0  0  0
 23 22  1  0  0  0  0
 24 23  1  0  0  0  0
 25 24  2  0  0  0  0
 25 21  1  0  0  0  0
 26 24  1  0  0  0  0
 26 27  2  0  0  0  0
 28 26  1  0  0  0  0
 29 28  1  0  0  0  0
 29 30  2  0  0  0  0
 30 32  1  0  0  0  0
 31 29  1  0  0  0  0
 33 28  1  0  0  0  0
 34 31  1  0  0  0  0
 35 31  1  0  0  0  0
M  END
>  <minimizedAffinity>
-7.52358723

$$$$

 OpenBabel03242510133D

 35 39  0  0  1  0  0  0  0  0999 V2000
   36.2010   28.0300   39.3000 C   0  0  0  0  0  3  0  0  0  0  0  0
   36.5920   27.1370   40.3090 C   0  0  0  0  0  3  0  0  0  0  0  0
   37.4530   27.5910   41.3150 C   0  0  0  0  0  0  0  0  0  0  0  0
   37.8670   28.8580   41.2760 N   0  0  0  0  0  0  0  0  0  0  0  0
   37.4780   29.6980   40.2950 C   0  0  0  0  0  0  0  0  0  0  0  0
   36.6490   29.2930   39.3100 N   0  0  0  0  0  0  0  0  0  0  0  0
   37.8770   26.6890   42.3850 C   0  0  2  0  0  3  0  0  0  0  0  0
   38.3270   27.3330   43.6340 C   0  0  0  0  0  2  0  0  0  0  0  0
   39.8280   27.5090   43.4980 C   0  0  0  0  0  2  0  0  0  0  0  0
   40.2690   26.3670   42.6210 C   0  0  0  0  0  2  0  0  0  0  0  0
   39.0050   25.7600   42.0830 C   0  0  2  0  0  3  0  0  0  0  0  0
   39.0830   25.2400   40.7620 N   0  0  0  0  0  0  0  0  0  0  0  0
   39.9830   25.8090   39.9050 C   0  0  0  0  0  3  0  0  0  0  0  0
   39.9160   25.1940   38.7140 N   0  0  0  0  0  0  0  0  0  0  0  0
   38.9990   24.2240   38.7320 C   0  0  0  0  0  0  0  0  0  0  0  0
   38.4640   23.2750   37.9040 C   0  0  0  0  0  3  0  0  0  0  0  0
   37.4870   22.4400   38.3560 N   0  0  0  0  0  0  0  0  0  0  0  0
   37.0160   22.5160   39.6280 C   0  0  0  0  0  3  0  0  0  0  0  0
   37.5440   23.4390   40.4150 N   0  0  0  0  0  0  0  0  0  0  0  0
   38.5090   24.2840   40.0120 C   0  0  0  0  0  0  0  0  0  0  0  0
   37.9260   31.1030   40.2370 C   0  0  0  0  0  0  0  0  0  0  0  0
   37.2930   32.2590   40.4890 N   0  0  0  0  0  0  0  0  0  0  0  0
   38.0990   33.2730   40.3020 O   0  0  0  0  0  0  0  0  0  0  0  0
   39.2800   32.8190   39.9230 C   0  0  0  0  0  0  0  0  0  0  0  0
   39.1730   31.4600   39.8810 N   0  0  0  0  0  0  0  0  0  0  0  0
   40.4200   33.6480   39.6250 C   0  0  0  0  0  0  0  0  0  0  0  0
   40.9850   34.3350   40.4410 O   0  0  0  0  0  0  0  0  0  0  0  0
   40.7850   33.5610   38.2860 N   0  0  0  0  0  0  0  0  0  0  0  0
   42.0370   34.1940   37.9990 C   0  0  0  0  0  0  0  0  0  0  0  0
   42.8980   34.8460   38.6450 N   0  0  0  0  0  0  0  0  0  0  0  0
   42.6570   34.2110   36.7160 N   0  0  0  0  0  0  0  0  0  0  0  0
   43.0640   34.6880   39.6450 H   0  0  0  0  0  0  0  0  0  0  0  0
   40.2120   33.0880   37.5720 H   0  0  0  0  0  0  0  0  0  0  0  0
   43.5610   34.6870   36.5860 H   0  0  0  0  0  0  0  0  0  0  0  0
   42.2020   33.7450   35.9180 H   0  0  0  0  0  0  0  0  0  0  0  0
  1  6  2  0  0  0  0
  1  2  1  0  0  0  0
  2  3  2  0  0  0  0
  4  3  1  0  0  0  0
  5  4  2  0  0  0  0
  6  5  1  0  0  0  0
  7  3  1  6  0  0  0
  7  8  1  0  0  0  0
  9  8  1  0  0  0  0
 10  9  1  0  0  0  0
 11 12  1  6  0  0  0
 11  7  1  0  0  0  0
 11 10  1  0  0  0  0
 13 12  1  0  0  0  0
 14 15  1  0  0  0  0
 14 13  2  0  0  0  0
 15 20  1  0  0  0  0
 16 17  1  0  0  0  0
 16 15  2  0  0  0  0
 17 18  2  0  0  0  0
 18 19  1  0  0  0  0
 20 19  2  0  0  0  0
 20 12  1  0  0  0  0
 21  5  1  0  0  0  0
 21 22  2  0  0  0  0
 23 22  1  0  0  0  0
 24 23  1  0  0  0  0
 25 24  2  0  0  0  0
 25 21  1  0  0  0  0
 26 24  1  0  0  0  0
 26 27  2  0  0  0  0
 28 26  1  0  0  0  0
 29 28  1  0  0  0  0
 29 30  2  0  0  0  0
 30 32  1  0  0  0  0
 31 29  1  0  0  0  0
 33 28  1  0  0  0  0
 34 31  1  0  0  0  0
 35 31  1  0  0  0  0
M  END
>  <minimizedAffinity>
-7.05959368

$$$$

 OpenBabel03242510133D

 35 39  0  0  1  0  0  0  0  0999 V2000
   38.1510   26.0180   38.2440 C   0  0  0  0  0  3  0  0  0  0  0  0
   38.1100   25.5720   39.5740 C   0  0  0  0  0  3  0  0  0  0  0  0
   38.2080   26.5160   40.6040 C   0  0  0  0  0  0  0  0  0  0  0  0
   38.3350   27.8030   40.2790 N   0  0  0  0  0  0  0  0  0  0  0  0
   38.3730   28.2060   38.9930 C   0  0  0  0  0  0  0  0  0  0  0  0
   38.2810   27.3240   37.9760 N   0  0  0  0  0  0  0  0  0  0  0  0
   38.1620   26.0880   42.0020 C   0  0  2  0  0  3  0  0  0  0  0  0
   36.8180   25.9690   42.5980 C   0  0  0  0  0  2  0  0  0  0  0  0
   36.5220   27.3140   43.2370 C   0  0  0  0  0  2  0  0  0  0  0  0
   37.8690   27.8490   43.6440 C   0  0  0  0  0  2  0  0  0  0  0  0
   38.8750   26.9420   42.9960 C   0  0  2  0  0  3  0  0  0  0  0  0
   40.0830   27.5620   42.5730 N   0  0  0  0  0  0  0  0  0  0  0  0
   41.1290   26.7520   42.2290 C   0  0  0  0  0  3  0  0  0  0  0  0
   42.1750   27.5070   41.8600 N   0  0  0  0  0  0  0  0  0  0  0  0
   41.8760   28.8050   41.9410 C   0  0  0  0  0  0  0  0  0  0  0  0
   42.4530   30.0270   41.7250 C   0  0  0  0  0  3  0  0  0  0  0  0
   41.7460   31.1700   41.9490 N   0  0  0  0  0  0  0  0  0  0  0  0
   40.4600   31.1400   42.3870 C   0  0  0  0  0  3  0  0  0  0  0  0
   39.9190   29.9500   42.5900 N   0  0  0  0  0  0  0  0  0  0  0  0
   40.5770   28.7970   42.3840 C   0  0  0  0  0  0  0  0  0  0  0  0
   38.5130   29.6270   38.6160 C   0  0  0  0  0  0  0  0  0  0  0  0
   37.7450   30.4390   37.8750 N   0  0  0  0  0  0  0  0  0  0  0  0
   38.2710   31.6350   37.8100 O   0  0  0  0  0  0  0  0  0  0  0  0
   39.3960   31.6470   38.5030 C   0  0  0  0  0  0  0  0  0  0  0  0
   39.5490   30.3890   39.0070 N   0  0  0  0  0  0  0  0  0  0  0  0
   40.2520   32.7960   38.6570 C   0  0  0  0  0  0  0  0  0  0  0  0
   40.3260   33.4510   39.6680 O   0  0  0  0  0  0  0  0  0  0  0  0
   40.9780   33.0560   37.4990 N   0  0  0  0  0  0  0  0  0  0  0  0
   41.9940   34.0490   37.6820 C   0  0  0  0  0  0  0  0  0  0  0  0
   42.3940   34.7820   38.6220 N   0  0  0  0  0  0  0  0  0  0  0  0
   42.9040   34.4670   36.6670 N   0  0  0  0  0  0  0  0  0  0  0  0
   42.3210   34.4970   39.6050 H   0  0  0  0  0  0  0  0  0  0  0  0
   40.8020   32.5830   36.6010 H   0  0  0  0  0  0  0  0  0  0  0  0
   43.6100   35.1870   36.8730 H   0  0  0  0  0  0  0  0  0  0  0  0
   42.8550   34.0480   35.7270 H   0  0  0  0  0  0  0  0  0  0  0  0
  1  2  1  0  0  0  0
  2  3  2  0  0  0  0
  4  3  1  0  0  0  0
  5  4  2  0  0  0  0
  6  1  2  0  0  0  0
  6  5  1  0  0  0  0
  7  3  1  6  0  0  0
  7  8  1  0  0  0  0
  7 11  1  0  0  0  0
  8  9  1  0  0  0  0
  9 10  1  0  0  0  0
 11 12  1  6  0  0  0
 11 10  1  0  0  0  0
 13 12  1  0  0  0  0
 14 15  1  0  0  0  0
 14 13  2  0  0  0  0
 15 20  1  0  0  0  0
 16 15  2  0  0  0  0
 16 17  1  0  0  0  0
 17 18  2  0  0  0  0
 18 19  1  0  0  0  0
 20 12  1  0  0  0  0
 20 19  2  0  0  0  0
 21  5  1  0  0  0  0
 21 25  1  0  0  0  0
 22 21  2  0  0  0  0
 23 22  1  0  0  0  0
 23 24  1  0  0  0  0
 24 26  1  0  0  0  0
 24 25  2  0  0  0  0
 26 27  2  0  0  0  0
 28 29  1  0  0  0  0
 28 26  1  0  0  0  0
 29 30  2  0  0  0  0
 30 32  1  0  0  0  0
 31 34  1  0  0  0  0
 31 29  1  0  0  0  0
 33 28  1  0  0  0  0
 35 31  1  0  0  0  0
M  END
>  <minimizedAffinity>
-7.00434399

$$$$

 OpenBabel03242510133D

 35 39  0  0  1  0  0  0  0  0999 V2000
   36.6540   31.5260   40.5710 C   0  0  0  0  0  3  0  0  0  0  0  0
   36.2510   30.2750   41.0620 C   0  0  0  0  0  3  0  0  0  0  0  0
   37.2010   29.4600   41.6910 C   0  0  0  0  0  0  0  0  0  0  0  0
   38.4530   29.9080   41.8000 N   0  0  0  0  0  0  0  0  0  0  0  0
   38.8150   31.1140   41.3180 C   0  0  0  0  0  0  0  0  0  0  0  0
   37.9260   31.9240   40.7070 N   0  0  0  0  0  0  0  0  0  0  0  0
   36.8150   28.1530   42.2210 C   0  0  2  0  0  3  0  0  0  0  0  0
   37.0710   27.9370   43.6580 C   0  0  0  0  0  2  0  0  0  0  0  0
   38.4520   27.3120   43.7480 C   0  0  0  0  0  2  0  0  0  0  0  0
   38.6050   26.5350   42.4680 C   0  0  0  0  0  2  0  0  0  0  0  0
   37.4520   26.9550   41.6010 C   0  0  2  0  0  3  0  0  0  0  0  0
   37.7170   27.0080   40.2060 N   0  0  0  0  0  0  0  0  0  0  0  0
   39.0150   26.8820   39.7970 C   0  0  0  0  0  3  0  0  0  0  0  0
   39.0720   26.9560   38.4590 N   0  0  0  0  0  0  0  0  0  0  0  0
   37.8540   27.1300   37.9420 C   0  0  0  0  0  0  0  0  0  0  0  0
   37.2460   27.2750   36.7240 C   0  0  0  0  0  3  0  0  0  0  0  0
   35.8950   27.4380   36.6460 N   0  0  0  0  0  0  0  0  0  0  0  0
   35.1130   27.4610   37.7560 C   0  0  0  0  0  3  0  0  0  0  0  0
   35.7180   27.3190   38.9240 N   0  0  0  0  0  0  0  0  0  0  0  0
   37.0460   27.1560   39.0500 C   0  0  0  0  0  0  0  0  0  0  0  0
   40.1960   31.6240   41.4300 C   0  0  0  0  0  0  0  0  0  0  0  0
   41.1650   31.4010   42.3310 N   0  0  0  0  0  0  0  0  0  0  0  0
   42.2420   32.0790   42.0230 O   0  0  0  0  0  0  0  0  0  0  0  0
   42.0160   32.7650   40.9170 C   0  0  0  0  0  0  0  0  0  0  0  0
   40.7340   32.4820   40.5450 N   0  0  0  0  0  0  0  0  0  0  0  0
   42.9760   33.6280   40.2780 C   0  0  0  0  0  0  0  0  0  0  0  0
   43.5660   34.5160   40.8450 O   0  0  0  0  0  0  0  0  0  0  0  0
   43.1370   33.3140   38.9330 N   0  0  0  0  0  0  0  0  0  0  0  0
   44.2350   34.0000   38.3200 C   0  0  0  0  0  0  0  0  0  0  0  0
   45.0920   34.8490   38.6750 N   0  0  0  0  0  0  0  0  0  0  0  0
   44.6400   33.8230   36.9650 N   0  0  0  0  0  0  0  0  0  0  0  0
   45.4300   34.9110   39.6420 H   0  0  0  0  0  0  0  0  0  0  0  0
   42.5280   32.6530   38.4280 H   0  0  0  0  0  0  0  0  0  0  0  0
   45.4420   34.3520   36.5940 H   0  0  0  0  0  0  0  0  0  0  0  0
   44.1320   33.1650   36.3570 H   0  0  0  0  0  0  0  0  0  0  0  0
  1  6  2  0  0  0  0
  1  2  1  0  0  0  0
  2  3  2  0  0  0  0
  3  4  1  0  0  0  0
  5 21  1  0  0  0  0
  5  4  2  0  0  0  0
  6  5  1  0  0  0  0
  7  3  1  6  0  0  0
  7  8  1  0  0  0  0
  8  9  1  0  0  0  0
 10  9  1  0  0  0  0
 11 12  1  6  0  0  0
 11  7  1  0  0  0  0
 11 10  1  0  0  0  0
 13 12  1  0  0  0  0
 14 13  2  0  0  0  0
 15 14  1  0  0  0  0
 15 20  1  0  0  0  0
 16 15  2  0  0  0  0
 17 16  1  0  0  0  0
 17 18  2  0  0  0  0
 18 19  1  0  0  0  0
 19 20  2  0  0  0  0
 20 12  1  0  0  0  0
 21 22  2  0  0  0  0
 23 22  1  0  0  0  0
 24 23  1  0  0  0  0
 25 24  2  0  0  0  0
 25 21  1  0  0  0  0
 26 27  2  0  0  0  0
 26 24  1  0  0  0  0
 28 26  1  0  0  0  0
 29 30  2  0  0  0  0
 29 28  1  0  0  0  0
 30 32  1  0  0  0  0
 31 29  1  0  0  0  0
 33 28  1  0  0  0  0
 34 31  1  0  0  0  0
 35 31  1  0  0  0  0
M  END
>  <minimizedAffinity>
-6.9218483

$$$$

 OpenBabel03242510133D

 35 39  0  0  1  0  0  0  0  0999 V2000
   36.0530   27.8200   38.9650 C   0  0  0  0  0  3  0  0  0  0  0  0
   36.3170   27.0480   40.1060 C   0  0  0  0  0  3  0  0  0  0  0  0
   37.1170   27.5930   41.1180 C   0  0  0  0  0  0  0  0  0  0  0  0
   37.5950   28.8270   40.9570 N   0  0  0  0  0  0  0  0  0  0  0  0
   37.3280   29.5490   39.8490 C   0  0  0  0  0  0  0  0  0  0  0  0
   36.5610   29.0540   38.8550 N   0  0  0  0  0  0  0  0  0  0  0  0
   37.4070   26.8190   42.3250 C   0  0  2  0  0  3  0  0  0  0  0  0
   37.7450   27.6020   43.5290 C   0  0  0  0  0  2  0  0  0  0  0  0
   39.2560   27.7410   43.5290 C   0  0  0  0  0  2  0  0  0  0  0  0
   39.7550   26.4980   42.8420 C   0  0  0  0  0  2  0  0  0  0  0  0
   38.5370   25.8470   42.2510 C   0  0  2  0  0  3  0  0  0  0  0  0
   38.7350   25.1730   41.0160 N   0  0  0  0  0  0  0  0  0  0  0  0
   38.1010   23.9750   40.8340 C   0  0  0  0  0  3  0  0  0  0  0  0
   38.4040   23.4890   39.6210 N   0  0  0  0  0  0  0  0  0  0  0  0
   39.2240   24.3170   38.9690 C   0  0  0  0  0  0  0  0  0  0  0  0
   39.8740   24.4150   37.7680 C   0  0  0  0  0  3  0  0  0  0  0  0
   40.6600   25.4950   37.4990 N   0  0  0  0  0  0  0  0  0  0  0  0
   40.8250   26.5010   38.3980 C   0  0  0  0  0  3  0  0  0  0  0  0
   40.1890   26.3890   39.5530 N   0  0  0  0  0  0  0  0  0  0  0  0
   39.4040   25.3430   39.8620 C   0  0  0  0  0  0  0  0  0  0  0  0
   37.8490   30.9170   39.6560 C   0  0  0  0  0  0  0  0  0  0  0  0
   37.2350   32.0880   39.4340 N   0  0  0  0  0  0  0  0  0  0  0  0
   38.1130   33.0520   39.3230 O   0  0  0  0  0  0  0  0  0  0  0  0
   39.3250   32.5470   39.4680 C   0  0  0  0  0  0  0  0  0  0  0  0
   39.1610   31.2090   39.6750 N   0  0  0  0  0  0  0  0  0  0  0  0
   40.5450   33.3130   39.4060 C   0  0  0  0  0  0  0  0  0  0  0  0
   41.1740   33.6580   40.3770 O   0  0  0  0  0  0  0  0  0  0  0  0
   40.9050   33.6040   38.0950 N   0  0  0  0  0  0  0  0  0  0  0  0
   42.2160   34.1690   37.9810 C   0  0  0  0  0  0  0  0  0  0  0  0
   43.1350   34.5040   38.7710 N   0  0  0  0  0  0  0  0  0  0  0  0
   42.8400   34.5170   36.7480 N   0  0  0  0  0  0  0  0  0  0  0  0
   43.2800   34.0330   39.6710 H   0  0  0  0  0  0  0  0  0  0  0  0
   40.2900   33.4310   37.2860 H   0  0  0  0  0  0  0  0  0  0  0  0
   43.7870   34.9200   36.7460 H   0  0  0  0  0  0  0  0  0  0  0  0
   42.3420   34.3650   35.8590 H   0  0  0  0  0  0  0  0  0  0  0  0
  1  2  1  0  0  0  0
  2  3  2  0  0  0  0
  4  3  1  0  0  0  0
  5  4  2  0  0  0  0
  6  1  2  0  0  0  0
  6  5  1  0  0  0  0
  7  3  1  6  0  0  0
  7  8  1  0  0  0  0
  8  9  1  0  0  0  0
 10  9  1  0  0  0  0
 11 12  1  6  0  0  0
 11  7  1  0  0  0  0
 11 10  1  0  0  0  0
 13 12  1  0  0  0  0
 14 13  2  0  0  0  0
 15 14  1  0  0  0  0
 15 20  1  0  0  0  0
 16 15  2  0  0  0  0
 17 16  1  0  0  0  0
 17 18  2  0  0  0  0
 18 19  1  0  0  0  0
 19 20  2  0  0  0  0
 20 12  1  0  0  0  0
 21 25  1  0  0  0  0
 21  5  1  0  0  0  0
 22 21  2  0  0  0  0
 23 22  1  0  0  0  0
 23 24  1  0  0  0  0
 24 25  2  0  0  0  0
 26 24  1  0  0  0  0
 26 27  2  0  0  0  0
 28 26  1  0  0  0  0
 29 28  1  0  0  0  0
 29 30  2  0  0  0  0
 30 32  1  0  0  0  0
 31 29  1  0  0  0  0
 33 28  1  0  0  0  0
 34 31  1  0  0  0  0
 35 31  1  0  0  0  0
M  END
>  <minimizedAffinity>
-6.85258007

$$$$

 OpenBabel03242510133D

 35 39  0  0  1  0  0  0  0  0999 V2000
   36.7650   23.9900   40.8260 C   0  0  0  0  0  3  0  0  0  0  0  0
   37.1440   24.5760   42.0430 C   0  0  0  0  0  3  0  0  0  0  0  0
   37.3010   25.9660   42.1020 C   0  0  0  0  0  0  0  0  0  0  0  0
   37.0810   26.6790   40.9970 N   0  0  0  0  0  0  0  0  0  0  0  0
   36.7170   26.0920   39.8380 C   0  0  0  0  0  0  0  0  0  0  0  0
   36.5570   24.7550   39.7470 N   0  0  0  0  0  0  0  0  0  0  0  0
   37.6910   26.6110   43.3550 C   0  0  2  0  0  3  0  0  0  0  0  0
   36.8710   27.7650   43.7690 C   0  0  0  0  0  2  0  0  0  0  0  0
   37.5500   28.9930   43.1910 C   0  0  0  0  0  2  0  0  0  0  0  0
   39.0120   28.6340   43.1430 C   0  0  0  0  0  2  0  0  0  0  0  0
   39.0750   27.1620   43.4330 C   0  0  2  0  0  3  0  0  0  0  0  0
   40.0990   26.4440   42.7570 N   0  0  0  0  0  0  0  0  0  0  0  0
   40.7670   25.4760   43.4550 C   0  0  0  0  0  3  0  0  0  0  0  0
   41.6910   24.9110   42.6630 N   0  0  0  0  0  0  0  0  0  0  0  0
   41.6740   25.4610   41.4480 C   0  0  0  0  0  0  0  0  0  0  0  0
   42.3160   25.3560   40.2430 C   0  0  0  0  0  3  0  0  0  0  0  0
   41.9630   26.1640   39.2040 N   0  0  0  0  0  0  0  0  0  0  0  0
   40.9750   27.0890   39.3220 C   0  0  0  0  0  3  0  0  0  0  0  0
   40.3660   27.1760   40.4930 N   0  0  0  0  0  0  0  0  0  0  0  0
   40.6800   26.4020   41.5460 C   0  0  0  0  0  0  0  0  0  0  0  0
   36.4690   26.8670   38.6060 C   0  0  0  0  0  0  0  0  0  0  0  0
   35.6840   26.6370   37.5440 N   0  0  0  0  0  0  0  0  0  0  0  0
   35.7850   27.6130   36.6780 O   0  0  0  0  0  0  0  0  0  0  0  0
   36.6360   28.5100   37.1420 C   0  0  0  0  0  0  0  0  0  0  0  0
   37.0660   28.0440   38.3490 N   0  0  0  0  0  0  0  0  0  0  0  0
   37.0000   29.7250   36.4570 C   0  0  0  0  0  0  0  0  0  0  0  0
   36.3780   30.1900   35.5330 O   0  0  0  0  0  0  0  0  0  0  0  0
   38.1520   30.2920   36.9910 N   0  0  0  0  0  0  0  0  0  0  0  0
   38.4210   31.6060   36.4860 C   0  0  0  0  0  0  0  0  0  0  0  0
   37.8960   32.3860   35.6510 N   0  0  0  0  0  0  0  0  0  0  0  0
   39.5140   32.4210   36.9020 N   0  0  0  0  0  0  0  0  0  0  0  0
   36.8880   32.3830   35.4610 H   0  0  0  0  0  0  0  0  0  0  0  0
   38.7520   29.8160   37.6790 H   0  0  0  0  0  0  0  0  0  0  0  0
   39.6420   33.3570   36.4930 H   0  0  0  0  0  0  0  0  0  0  0  0
   40.1750   32.0730   37.6110 H   0  0  0  0  0  0  0  0  0  0  0  0
  1  2  1  0  0  0  0
  2  3  2  0  0  0  0
  4  3  1  0  0  0  0
  5  4  2  0  0  0  0
  6  5  1  0  0  0  0
  6  1  2  0  0  0  0
  7  3  1  6  0  0  0
  7 11  1  0  0  0  0
  7  8  1  0  0  0  0
  9  8  1  0  0  0  0
 10  9  1  0  0  0  0
 10 11  1  0  0  0  0
 11 12  1  6  0  0  0
 12 13  1  0  0  0  0
 14 13  2  0  0  0  0
 15 20  1  0  0  0  0
 15 14  1  0  0  0  0
 16 15  2  0  0  0  0
 17 18  2  0  0  0  0
 17 16  1  0  0  0  0
 18 19  1  0  0  0  0
 19 20  2  0  0  0  0
 20 12  1  0  0  0  0
 21  5  1  0  0  0  0
 22 21  2  0  0  0  0
 23 24  1  0  0  0  0
 23 22  1  0  0  0  0
 24 25  2  0  0  0  0
 25 21  1  0  0  0  0
 26 28  1  0  0  0  0
 26 24  1  0  0  0  0
 27 26  2  0  0  0  0
 28 33  1  0  0  0  0
 29 31  1  0  0  0  0
 29 28  1  0  0  0  0
 30 29  2  0  0  0  0
 31 35  1  0  0  0  0
 32 30  1  0  0  0  0
 34 31  1  0  0  0  0
M  END
>  <minimizedAffinity>
-6.79086018

$$$$

 OpenBabel03242510133D

 35 39  0  0  1  0  0  0  0  0999 V2000
   35.2280   28.0930   38.1600 C   0  0  0  0  0  3  0  0  0  0  0  0
   35.8390   26.8890   38.5410 C   0  0  0  0  0  3  0  0  0  0  0  0
   37.0030   26.9390   39.3160 C   0  0  0  0  0  0  0  0  0  0  0  0
   37.4860   28.1330   39.6650 N   0  0  0  0  0  0  0  0  0  0  0  0
   36.8800   29.2770   39.2850 C   0  0  0  0  0  0  0  0  0  0  0  0
   35.7570   29.2640   38.5380 N   0  0  0  0  0  0  0  0  0  0  0  0
   37.6630   25.7040   39.7360 C   0  0  2  0  0  3  0  0  0  0  0  0
   36.7790   24.6410   40.2510 C   0  0  0  0  0  2  0  0  0  0  0  0
   36.7080   24.8450   41.7530 C   0  0  0  0  0  2  0  0  0  0  0  0
   38.0360   25.4540   42.1200 C   0  0  0  0  0  2  0  0  0  0  0  0
   38.6870   25.8150   40.8160 C   0  0  2  0  0  3  0  0  0  0  0  0
   39.4910   26.9870   40.8320 N   0  0  0  0  0  0  0  0  0  0  0  0
   40.5280   27.0620   39.9440 C   0  0  0  0  0  3  0  0  0  0  0  0
   41.1700   28.2290   40.1040 N   0  0  0  0  0  0  0  0  0  0  0  0
   40.6040   28.9530   41.0720 C   0  0  0  0  0  0  0  0  0  0  0  0
   40.7550   30.1600   41.7000 C   0  0  0  0  0  3  0  0  0  0  0  0
   39.9040   30.5250   42.7000 N   0  0  0  0  0  0  0  0  0  0  0  0
   38.8890   29.7180   43.1040 C   0  0  0  0  0  3  0  0  0  0  0  0
   38.7580   28.5560   42.4860 N   0  0  0  0  0  0  0  0  0  0  0  0
   39.5730   28.1530   41.4960 C   0  0  0  0  0  0  0  0  0  0  0  0
   37.4000   30.6060   39.6630 C   0  0  0  0  0  0  0  0  0  0  0  0
   36.8940   31.5840   40.4280 N   0  0  0  0  0  0  0  0  0  0  0  0
   37.7190   32.5990   40.4810 O   0  0  0  0  0  0  0  0  0  0  0  0
   38.7870   32.3210   39.7550 C   0  0  0  0  0  0  0  0  0  0  0  0
   38.5880   31.0740   39.2410 N   0  0  0  0  0  0  0  0  0  0  0  0
   39.9100   33.2070   39.5780 C   0  0  0  0  0  0  0  0  0  0  0  0
   40.3900   33.8720   40.4640 O   0  0  0  0  0  0  0  0  0  0  0  0
   40.3690   33.2010   38.2650 N   0  0  0  0  0  0  0  0  0  0  0  0
   41.6110   33.8950   38.0980 C   0  0  0  0  0  0  0  0  0  0  0  0
   42.3980   34.5440   38.8330 N   0  0  0  0  0  0  0  0  0  0  0  0
   42.3160   33.9990   36.8630 N   0  0  0  0  0  0  0  0  0  0  0  0
   42.5020   34.3430   39.8340 H   0  0  0  0  0  0  0  0  0  0  0  0
   39.8660   32.7440   37.4910 H   0  0  0  0  0  0  0  0  0  0  0  0
   43.2060   34.5150   36.8210 H   0  0  0  0  0  0  0  0  0  0  0  0
   41.9350   33.5580   36.0140 H   0  0  0  0  0  0  0  0  0  0  0  0
  1  6  2  0  0  0  0
  1  2  1  0  0  0  0
  2  3  2  0  0  0  0
  3  4  1  0  0  0  0
  5 21  1  0  0  0  0
  5  4  2  0  0  0  0
  6  5  1  0  0  0  0
  7  3  1  1  0  0  0
  7  8  1  0  0  0  0
  7 11  1  0  0  0  0
  8  9  1  0  0  0  0
  9 10  1  0  0  0  0
 11 12  1  1  0  0  0
 11 10  1  0  0  0  0
 12 20  1  0  0  0  0
 13 14  2  0  0  0  0
 13 12  1  0  0  0  0
 14 15  1  0  0  0  0
 15 20  2  0  0  0  0
 15 16  1  0  0  0  0
 16 17  2  0  0  0  0
 17 18  1  0  0  0  0
 19 18  2  0  0  0  0
 20 19  1  0  0  0  0
 21 22  2  0  0  0  0
 22 23  1  0  0  0  0
 24 23  1  0  0  0  0
 25 21  1  0  0  0  0
 25 24  2  0  0  0  0
 26 24  1  0  0  0  0
 26 27  2  0  0  0  0
 28 26  1  0  0  0  0
 29 28  1  0  0  0  0
 29 30  2  0  0  0  0
 30 32  1  0  0  0  0
 31 29  1  0  0  0  0
 33 28  1  0  0  0  0
 34 31  1  0  0  0  0
 35 31  1  0  0  0  0
M  END
>  <minimizedAffinity>
-6.6904192

$$$$

 OpenBabel03242510133D

 35 39  0  0  1  0  0  0  0  0999 V2000
   40.6920   26.9850   38.8920 C   0  0  0  0  0  3  0  0  0  0  0  0
   40.5690   26.9810   40.2890 C   0  0  0  0  0  3  0  0  0  0  0  0
   39.4280   27.5510   40.8670 C   0  0  0  0  0  0  0  0  0  0  0  0
   38.5010   28.0750   40.0640 N   0  0  0  0  0  0  0  0  0  0  0  0
   38.6430   28.0680   38.7230 C   0  0  0  0  0  0  0  0  0  0  0  0
   39.7290   27.5270   38.1330 N   0  0  0  0  0  0  0  0  0  0  0  0
   39.2640   27.5590   42.3200 C   0  0  2  0  0  3  0  0  0  0  0  0
   38.2450   26.6390   42.8610 C   0  0  0  0  0  2  0  0  0  0  0  0
   36.9570   27.4390   42.9390 C   0  0  0  0  0  2  0  0  0  0  0  0
   37.4020   28.8590   43.1730 C   0  0  0  0  0  2  0  0  0  0  0  0
   38.8880   28.8570   42.9530 C   0  0  2  0  0  3  0  0  0  0  0  0
   39.4280   30.0400   42.3810 N   0  0  0  0  0  0  0  0  0  0  0  0
   40.7410   30.3280   42.6310 C   0  0  0  0  0  3  0  0  0  0  0  0
   41.0720   31.4730   42.0160 N   0  0  0  0  0  0  0  0  0  0  0  0
   40.0280   31.9760   41.3540 C   0  0  0  0  0  0  0  0  0  0  0  0
   39.7060   33.0490   40.5680 C   0  0  0  0  0  3  0  0  0  0  0  0
   38.4440   33.1820   40.0700 N   0  0  0  0  0  0  0  0  0  0  0  0
   37.4740   32.2670   40.3290 C   0  0  0  0  0  3  0  0  0  0  0  0
   37.8040   31.2350   41.0900 N   0  0  0  0  0  0  0  0  0  0  0  0
   39.0340   31.0630   41.6030 C   0  0  0  0  0  0  0  0  0  0  0  0
   37.6270   28.6440   37.8200 C   0  0  0  0  0  0  0  0  0  0  0  0
   36.3140   28.8690   37.9750 N   0  0  0  0  0  0  0  0  0  0  0  0
   35.8100   29.4030   36.8910 O   0  0  0  0  0  0  0  0  0  0  0  0
   36.7700   29.5460   35.9960 C   0  0  0  0  0  0  0  0  0  0  0  0
   37.9090   29.0700   36.5770 N   0  0  0  0  0  0  0  0  0  0  0  0
   36.5870   30.1020   34.6800 C   0  0  0  0  0  0  0  0  0  0  0  0
   36.3680   31.2690   34.4660 O   0  0  0  0  0  0  0  0  0  0  0  0
   36.6940   29.1300   33.6900 N   0  0  0  0  0  0  0  0  0  0  0  0
   36.7370   29.6740   32.3660 C   0  0  0  0  0  0  0  0  0  0  0  0
   36.6750   30.8180   31.8490 N   0  0  0  0  0  0  0  0  0  0  0  0
   36.8850   28.8970   31.1800 N   0  0  0  0  0  0  0  0  0  0  0  0
   37.0050   31.6570   32.3390 H   0  0  0  0  0  0  0  0  0  0  0  0
   36.7370   28.1200   33.8910 H   0  0  0  0  0  0  0  0  0  0  0  0
   36.9080   29.3600   30.2610 H   0  0  0  0  0  0  0  0  0  0  0  0
   36.9710   27.8730   31.2430 H   0  0  0  0  0  0  0  0  0  0  0  0
  1  2  1  0  0  0  0
  2  3  2  0  0  0  0
  4  3  1  0  0  0  0
  5  4  2  0  0  0  0
  6  5  1  0  0  0  0
  6  1  2  0  0  0  0
  7  3  1  6  0  0  0
  7  8  1  0  0  0  0
  7 11  1  0  0  0  0
  8  9  1  0  0  0  0
  9 10  1  0  0  0  0
 11 12  1  6  0  0  0
 11 10  1  0  0  0  0
 12 13  1  0  0  0  0
 14 13  2  0  0  0  0
 15 20  1  0  0  0  0
 15 14  1  0  0  0  0
 16 15  2  0  0  0  0
 17 18  2  0  0  0  0
 17 16  1  0  0  0  0
 18 19  1  0  0  0  0
 19 20  2  0  0  0  0
 20 12  1  0  0  0  0
 21 22  2  0  0  0  0
 21  5  1  0  0  0  0
 23 22  1  0  0  0  0
 24 25  2  0  0  0  0
 24 23  1  0  0  0  0
 25 21  1  0  0  0  0
 26 24  1  0  0  0  0
 27 26  2  0  0  0  0
 28 33  1  0  0  0  0
 28 26  1  0  0  0  0
 29 28  1  0  0  0  0
 30 32  1  0  0  0  0
 30 29  2  0  0  0  0
 31 35  1  0  0  0  0
 31 29  1  0  0  0  0
 34 31  1  0  0  0  0
M  END
>  <minimizedAffinity>
-6.53195667

$$$$
