
 OpenBabel03242509593D

 39 43  0  0  0  0  0  0  0  0999 V2000
   39.2510   30.4420   41.6030 C   0  0  0  0  0  0  0  0  0  0  0  0
   38.7430   31.5420   40.9170 C   0  0  0  0  0  3  0  0  0  0  0  0
   39.7370   32.4150   40.6470 N   0  0  0  0  0  0  0  0  0  0  0  0
   40.8680   31.8540   41.1690 C   0  0  0  0  0  0  0  0  0  0  0  0
   40.5740   30.6570   41.7480 N   0  0  0  0  0  0  0  0  0  0  0  0
   42.1490   32.4690   41.0930 N   0  0  0  0  0  0  0  0  0  0  0  0
   42.9960   32.4530   42.1440 C   0  0  0  0  0  3  0  0  0  0  0  0
   44.1540   33.1050   41.8290 N   0  0  0  0  0  0  0  0  0  0  0  0
   44.0350   33.5370   40.5590 C   0  0  0  0  0  0  0  0  0  0  0  0
   44.8160   34.2410   39.6570 C   0  0  0  0  0  0  0  0  0  0  0  0
   45.9480   34.6180   40.0270 O   0  0  0  0  0  0  0  0  0  0  0  0
   44.3380   34.4960   38.4200 N   0  0  0  0  0  0  0  0  0  0  0  0
   43.1230   34.1020   37.9960 C   0  0  0  0  0  0  0  0  0  0  0  0
   42.7340   34.4330   36.6690 N   0  0  0  0  0  0  0  0  0  0  0  0
   42.3560   33.4120   38.8780 N   0  0  0  0  0  0  0  0  0  0  0  0
   42.7920   33.1350   40.1230 C   0  0  0  0  0  0  0  0  0  0  0  0
   44.9360   35.0200   37.7650 H   0  0  0  0  0  0  0  0  0  0  0  0
   41.8110   34.1460   36.3150 H   0  0  0  0  0  0  0  0  0  0  0  0
   43.3780   34.9610   36.0610 H   0  0  0  0  0  0  0  0  0  0  0  0
   37.3170   28.2250   43.8120 C   0  0  0  0  0  3  0  0  0  0  0  0
   37.0930   27.0960   42.9870 C   0  0  0  0  0  3  0  0  0  0  0  0
   37.6070   27.1320   41.7100 C   0  0  0  0  0  0  0  0  0  0  0  0
   38.3020   28.2060   41.2590 N   0  0  0  0  0  0  0  0  0  0  0  0
   38.5110   29.2890   42.0710 C   0  0  0  0  0  0  0  0  0  0  0  0
   38.0100   29.2790   43.3400 N   0  0  0  0  0  0  0  0  0  0  0  0
   37.3740   25.9890   40.8860 N   0  0  0  0  0  0  0  0  0  0  0  0
   37.8740   24.7600   41.0510 C   0  0  0  0  0  3  0  0  0  0  0  0
   37.5520   23.7570   40.1640 C   0  0  0  0  0  0  0  0  0  0  0  0
   36.7150   23.9870   39.0900 C   0  0  0  0  0  0  0  0  0  0  0  0
   36.4190   23.0790   38.2810 O   0  0  0  0  0  0  0  0  0  0  0  0
   36.2350   25.2240   38.9560 N   0  0  0  0  0  0  0  0  0  0  0  0
   36.5570   26.2140   39.8380 C   0  0  0  0  0  0  0  0  0  0  0  0
   36.0200   27.3390   39.5760 O   0  0  0  0  0  0  0  0  0  0  0  0
   38.1120   22.4090   40.3630 C   0  0  0  0  0  1  0  0  0  0  0  0
   35.6070   25.4360   38.1680 H   0  0  0  0  0  0  0  0  0  0  0  0
   41.4930   29.7510   42.4120 C   0  0  0  0  0  0  0  0  0  0  0  0
   40.8730   28.5020   42.6710 F   0  0  0  0  0  0  0  0  0  0  0  0
   41.9590   30.2590   43.6160 F   0  0  0  0  0  0  0  0  0  0  0  0
   42.5540   29.4390   41.5800 F   0  0  0  0  0  0  0  0  0  0  0  0
  1  5  1  0  0  0  0
  1 24  1  0  0  0  0
  2  1  2  0  0  0  0
  3  2  1  0  0  0  0
  3  4  2  0  0  0  0
  4  5  1  0  0  0  0
  5 36  1  0  0  0  0
  6  4  1  0  0  0  0
  6  7  1  0  0  0  0
  8  7  2  0  0  0  0
  9  8  1  0  0  0  0
 10 11  2  0  0  0  0
 10  9  1  0  0  0  0
 12 10  1  0  0  0  0
 13 12  1  0  0  0  0
 13 15  2  0  0  0  0
 14 13  1  0  0  0  0
 15 16  1  0  0  0  0
 16  9  2  0  0  0  0
 16  6  1  0  0  0  0
 17 12  1  0  0  0  0
 18 14  1  0  0  0  0
 19 14  1  0  0  0  0
 21 20  2  0  0  0  0
 22 21  1  0  0  0  0
 23 22  2  0  0  0  0
 23 24  1  0  0  0  0
 24 25  2  0  0  0  0
 25 20  1  0  0  0  0
 26 27  1  0  0  0  0
 26 22  1  0  0  0  0
 28 34  1  0  0  0  0
 28 27  2  0  0  0  0
 29 28  1  0  0  0  0
 30 29  2  0  0  0  0
 31 29  1  0  0  0  0
 31 32  1  0  0  0  0
 32 26  1  0  0  0  0
 33 32  2  0  0  0  0
 35 31  1  0  0  0  0
 36 37  1  0  0  0  0
 36 38  1  0  0  0  0
 39 36  1  0  0  0  0
M  END
>  <minimizedAffinity>
-7.92967987

$$$$

 OpenBabel03242509593D

 39 43  0  0  0  0  0  0  0  0999 V2000
   39.3120   30.4770   41.7750 C   0  0  0  0  0  0  0  0  0  0  0  0
   38.7770   31.5550   41.0750 C   0  0  0  0  0  3  0  0  0  0  0  0
   39.7550   32.4360   40.7710 N   0  0  0  0  0  0  0  0  0  0  0  0
   40.9010   31.9020   41.2850 C   0  0  0  0  0  0  0  0  0  0  0  0
   40.6340   30.7130   41.8930 N   0  0  0  0  0  0  0  0  0  0  0  0
   42.1720   32.5330   41.1740 N   0  0  0  0  0  0  0  0  0  0  0  0
   43.0370   32.5510   42.2120 C   0  0  0  0  0  3  0  0  0  0  0  0
   44.1800   33.2120   41.8630 N   0  0  0  0  0  0  0  0  0  0  0  0
   44.0340   33.6160   40.5870 C   0  0  0  0  0  0  0  0  0  0  0  0
   44.7900   34.3120   39.6580 C   0  0  0  0  0  0  0  0  0  0  0  0
   45.9230   34.7110   40.0010 O   0  0  0  0  0  0  0  0  0  0  0  0
   44.2880   34.5340   38.4240 N   0  0  0  0  0  0  0  0  0  0  0  0
   43.0710   34.1150   38.0290 C   0  0  0  0  0  0  0  0  0  0  0  0
   42.6560   34.4130   36.7020 N   0  0  0  0  0  0  0  0  0  0  0  0
   42.3290   33.4330   38.9370 N   0  0  0  0  0  0  0  0  0  0  0  0
   42.7900   33.1870   40.1810 C   0  0  0  0  0  0  0  0  0  0  0  0
   44.8670   35.0530   37.7490 H   0  0  0  0  0  0  0  0  0  0  0  0
   41.7310   34.1060   36.3690 H   0  0  0  0  0  0  0  0  0  0  0  0
   43.2820   34.9370   36.0720 H   0  0  0  0  0  0  0  0  0  0  0  0
   37.3010   28.3410   43.9940 C   0  0  0  0  0  3  0  0  0  0  0  0
   37.2220   27.1320   43.2620 C   0  0  0  0  0  3  0  0  0  0  0  0
   37.8550   27.0890   42.0400 C   0  0  0  0  0  0  0  0  0  0  0  0
   38.5300   28.1620   41.5560 N   0  0  0  0  0  0  0  0  0  0  0  0
   38.5960   29.3240   42.2790 C   0  0  0  0  0  0  0  0  0  0  0  0
   37.9760   29.3930   43.4920 N   0  0  0  0  0  0  0  0  0  0  0  0
   37.7690   25.8650   41.3080 N   0  0  0  0  0  0  0  0  0  0  0  0
   36.8980   25.5630   40.3400 C   0  0  0  0  0  3  0  0  0  0  0  0
   36.9440   24.3310   39.7270 C   0  0  0  0  0  0  0  0  0  0  0  0
   37.8800   23.3820   40.0880 C   0  0  0  0  0  0  0  0  0  0  0  0
   37.9270   22.2610   39.5340 O   0  0  0  0  0  0  0  0  0  0  0  0
   38.7340   23.7170   41.0570 N   0  0  0  0  0  0  0  0  0  0  0  0
   38.6830   24.9390   41.6610 C   0  0  0  0  0  0  0  0  0  0  0  0
   39.5630   25.1090   42.5660 O   0  0  0  0  0  0  0  0  0  0  0  0
   35.9760   24.0170   38.6620 C   0  0  0  0  0  1  0  0  0  0  0  0
   39.4470   23.0370   41.3550 H   0  0  0  0  0  0  0  0  0  0  0  0
   41.5770   29.8330   42.5590 C   0  0  0  0  0  0  0  0  0  0  0  0
   40.9550   28.6150   42.9310 F   0  0  0  0  0  0  0  0  0  0  0  0
   42.1180   30.4070   43.7010 F   0  0  0  0  0  0  0  0  0  0  0  0
   42.5840   29.4530   41.6910 F   0  0  0  0  0  0  0  0  0  0  0  0
  1  5  1  0  0  0  0
  1 24  1  0  0  0  0
  2  1  2  0  0  0  0
  3  2  1  0  0  0  0
  3  4  2  0  0  0  0
  4  5  1  0  0  0  0
  5 36  1  0  0  0  0
  6  4  1  0  0  0  0
  6  7  1  0  0  0  0
  8  7  2  0  0  0  0
  9  8  1  0  0  0  0
 10 11  2  0  0  0  0
 10  9  1  0  0  0  0
 12 10  1  0  0  0  0
 13 12  1  0  0  0  0
 13 15  2  0  0  0  0
 14 13  1  0  0  0  0
 15 16  1  0  0  0  0
 16  9  2  0  0  0  0
 16  6  1  0  0  0  0
 17 12  1  0  0  0  0
 18 14  1  0  0  0  0
 19 14  1  0  0  0  0
 21 20  2  0  0  0  0
 22 21  1  0  0  0  0
 23 22  2  0  0  0  0
 23 24  1  0  0  0  0
 24 25  2  0  0  0  0
 25 20  1  0  0  0  0
 26 32  1  0  0  0  0
 26 22  1  0  0  0  0
 27 26  1  0  0  0  0
 28 29  1  0  0  0  0
 28 27  2  0  0  0  0
 29 31  1  0  0  0  0
 30 29  2  0  0  0  0
 31 35  1  0  0  0  0
 31 32  1  0  0  0  0
 32 33  2  0  0  0  0
 34 28  1  0  0  0  0
 36 37  1  0  0  0  0
 36 38  1  0  0  0  0
 39 36  1  0  0  0  0
M  END
>  <minimizedAffinity>
-7.92708635

$$$$

 OpenBabel03242509593D

 39 43  0  0  0  0  0  0  0  0999 V2000
   38.7340   30.6450   41.1940 C   0  0  0  0  0  0  0  0  0  0  0  0
   38.6940   30.1360   42.4890 C   0  0  0  0  0  3  0  0  0  0  0  0
   38.2400   28.8650   42.4690 N   0  0  0  0  0  0  0  0  0  0  0  0
   37.9970   28.5840   41.1550 C   0  0  0  0  0  0  0  0  0  0  0  0
   38.2970   29.6630   40.3810 N   0  0  0  0  0  0  0  0  0  0  0  0
   37.5020   27.3270   40.7060 N   0  0  0  0  0  0  0  0  0  0  0  0
   36.5570   27.2510   39.7450 C   0  0  0  0  0  3  0  0  0  0  0  0
   36.2470   25.9450   39.4880 N   0  0  0  0  0  0  0  0  0  0  0  0
   37.0100   25.1880   40.3000 C   0  0  0  0  0  0  0  0  0  0  0  0
   37.1870   23.8360   40.5430 C   0  0  0  0  0  0  0  0  0  0  0  0
   36.5030   23.0240   39.8830 O   0  0  0  0  0  0  0  0  0  0  0  0
   38.0810   23.4390   41.4740 N   0  0  0  0  0  0  0  0  0  0  0  0
   38.8290   24.2910   42.1990 C   0  0  0  0  0  0  0  0  0  0  0  0
   39.7360   23.7470   43.1500 N   0  0  0  0  0  0  0  0  0  0  0  0
   38.6570   25.6160   41.9630 N   0  0  0  0  0  0  0  0  0  0  0  0
   37.7760   26.0590   41.0430 C   0  0  0  0  0  0  0  0  0  0  0  0
   38.1970   22.4280   41.6380 H   0  0  0  0  0  0  0  0  0  0  0  0
   40.3220   24.3730   43.7200 H   0  0  0  0  0  0  0  0  0  0  0  0
   39.8070   22.7260   43.2680 H   0  0  0  0  0  0  0  0  0  0  0  0
   38.6000   34.2140   40.3110 C   0  0  0  0  0  3  0  0  0  0  0  0
   39.9550   34.5060   40.0210 C   0  0  0  0  0  3  0  0  0  0  0  0
   40.8630   33.4780   40.1390 C   0  0  0  0  0  0  0  0  0  0  0  0
   40.4770   32.2340   40.5150 N   0  0  0  0  0  0  0  0  0  0  0  0
   39.1610   31.9690   40.7910 C   0  0  0  0  0  0  0  0  0  0  0  0
   38.2410   32.9700   40.6830 N   0  0  0  0  0  0  0  0  0  0  0  0
   42.2280   33.7830   39.8460 N   0  0  0  0  0  0  0  0  0  0  0  0
   43.1980   34.0650   40.7210 C   0  0  0  0  0  3  0  0  0  0  0  0
   44.4730   34.3390   40.2780 C   0  0  0  0  0  0  0  0  0  0  0  0
   44.7830   34.3320   38.9320 C   0  0  0  0  0  0  0  0  0  0  0  0
   45.9390   34.5810   38.5240 O   0  0  0  0  0  0  0  0  0  0  0  0
   43.7920   34.0480   38.0870 N   0  0  0  0  0  0  0  0  0  0  0  0
   42.5310   33.7760   38.5320 C   0  0  0  0  0  0  0  0  0  0  0  0
   41.6950   33.5230   37.6050 O   0  0  0  0  0  0  0  0  0  0  0  0
   45.5280   34.6460   41.2580 C   0  0  0  0  0  1  0  0  0  0  0  0
   43.9830   34.0320   37.0750 H   0  0  0  0  0  0  0  0  0  0  0  0
   38.1790   29.7710   38.9380 C   0  0  0  0  0  0  0  0  0  0  0  0
   39.0500   30.7700   38.4340 F   0  0  0  0  0  0  0  0  0  0  0  0
   36.8880   30.0830   38.5360 F   0  0  0  0  0  0  0  0  0  0  0  0
   38.6040   28.6060   38.3260 F   0  0  0  0  0  0  0  0  0  0  0  0
  1  2  2  0  0  0  0
  3  2  1  0  0  0  0
  4  3  2  0  0  0  0
  5  4  1  0  0  0  0
  5  1  1  0  0  0  0
  6 16  1  0  0  0  0
  6  4  1  0  0  0  0
  7  6  1  0  0  0  0
  8  7  2  0  0  0  0
  8  9  1  0  0  0  0
  9 10  1  0  0  0  0
  9 16  2  0  0  0  0
 10 12  1  0  0  0  0
 11 10  2  0  0  0  0
 12 17  1  0  0  0  0
 12 13  1  0  0  0  0
 13 14  1  0  0  0  0
 14 19  1  0  0  0  0
 14 18  1  0  0  0  0
 15 13  2  0  0  0  0
 16 15  1  0  0  0  0
 20 25  1  0  0  0  0
 21 22  1  0  0  0  0
 21 20  2  0  0  0  0
 22 23  2  0  0  0  0
 23 24  1  0  0  0  0
 24  1  1  0  0  0  0
 25 24  2  0  0  0  0
 26 22  1  0  0  0  0
 26 27  1  0  0  0  0
 28 27  2  0  0  0  0
 28 34  1  0  0  0  0
 29 28  1  0  0  0  0
 30 29  2  0  0  0  0
 31 32  1  0  0  0  0
 31 29  1  0  0  0  0
 32 26  1  0  0  0  0
 33 32  2  0  0  0  0
 35 31  1  0  0  0  0
 36  5  1  0  0  0  0
 37 36  1  0  0  0  0
 38 36  1  0  0  0  0
 39 36  1  0  0  0  0
M  END
>  <minimizedAffinity>
-7.76832151

$$$$

 OpenBabel03242509593D

 39 43  0  0  0  0  0  0  0  0999 V2000
   38.3380   27.9760   40.4440 C   0  0  0  0  0  0  0  0  0  0  0  0
   39.6420   28.1970   40.0100 C   0  0  0  0  0  3  0  0  0  0  0  0
   39.8320   29.5130   39.7760 N   0  0  0  0  0  0  0  0  0  0  0  0
   38.6400   30.1120   40.0670 C   0  0  0  0  0  0  0  0  0  0  0  0
   37.7330   29.1810   40.4720 N   0  0  0  0  0  0  0  0  0  0  0  0
   38.4230   31.5140   39.9480 N   0  0  0  0  0  0  0  0  0  0  0  0
   37.2740   32.0030   39.4350 C   0  0  0  0  0  3  0  0  0  0  0  0
   37.3040   33.3690   39.4240 N   0  0  0  0  0  0  0  0  0  0  0  0
   38.4900   33.7450   39.9390 C   0  0  0  0  0  0  0  0  0  0  0  0
   39.1400   34.9400   40.2020 C   0  0  0  0  0  0  0  0  0  0  0  0
   38.5490   36.0050   39.9240 O   0  0  0  0  0  0  0  0  0  0  0  0
   40.3760   34.9190   40.7460 N   0  0  0  0  0  0  0  0  0  0  0  0
   41.0340   33.7860   41.0550 C   0  0  0  0  0  0  0  0  0  0  0  0
   42.3330   33.8980   41.6220 N   0  0  0  0  0  0  0  0  0  0  0  0
   40.4000   32.6150   40.7970 N   0  0  0  0  0  0  0  0  0  0  0  0
   39.1650   32.5870   40.2550 C   0  0  0  0  0  0  0  0  0  0  0  0
   40.8400   35.8190   40.9340 H   0  0  0  0  0  0  0  0  0  0  0  0
   42.8620   33.0490   41.8700 H   0  0  0  0  0  0  0  0  0  0  0  0
   42.7450   34.8280   41.7870 H   0  0  0  0  0  0  0  0  0  0  0  0
   37.1640   25.1420   42.4750 C   0  0  0  0  0  3  0  0  0  0  0  0
   36.6010   24.2830   41.5000 C   0  0  0  0  0  3  0  0  0  0  0  0
   36.6410   24.7010   40.1890 C   0  0  0  0  0  0  0  0  0  0  0  0
   37.1990   25.8880   39.8430 N   0  0  0  0  0  0  0  0  0  0  0  0
   37.7400   26.7060   40.7990 C   0  0  0  0  0  0  0  0  0  0  0  0
   37.7120   26.3160   42.1060 N   0  0  0  0  0  0  0  0  0  0  0  0
   36.0700   23.8280   39.2130 N   0  0  0  0  0  0  0  0  0  0  0  0
   34.7730   23.6700   38.9310 C   0  0  0  0  0  3  0  0  0  0  0  0
   34.3780   22.7830   37.9560 C   0  0  0  0  0  0  0  0  0  0  0  0
   35.3000   22.0370   37.2470 C   0  0  0  0  0  0  0  0  0  0  0  0
   34.9470   21.2290   36.3590 O   0  0  0  0  0  0  0  0  0  0  0  0
   36.5850   22.2190   37.5530 N   0  0  0  0  0  0  0  0  0  0  0  0
   36.9690   23.1000   38.5220 C   0  0  0  0  0  0  0  0  0  0  0  0
   38.2290   23.1610   38.6980 O   0  0  0  0  0  0  0  0  0  0  0  0
   32.9440   22.6240   37.6600 C   0  0  0  0  0  1  0  0  0  0  0  0
   37.3030   21.6820   37.0480 H   0  0  0  0  0  0  0  0  0  0  0  0
   36.3550   29.4080   40.8700 C   0  0  0  0  0  0  0  0  0  0  0  0
   35.8840   28.3500   41.6870 F   0  0  0  0  0  0  0  0  0  0  0  0
   35.5040   29.5240   39.7810 F   0  0  0  0  0  0  0  0  0  0  0  0
   36.2600   30.5300   41.6740 F   0  0  0  0  0  0  0  0  0  0  0  0
  1  5  1  0  0  0  0
  1 24  1  0  0  0  0
  2  1  2  0  0  0  0
  3  2  1  0  0  0  0
  3  4  2  0  0  0  0
  4  5  1  0  0  0  0
  5 36  1  0  0  0  0
  6  4  1  0  0  0  0
  6 16  1  0  0  0  0
  7  6  1  0  0  0  0
  8  7  2  0  0  0  0
  8  9  1  0  0  0  0
  9 10  1  0  0  0  0
  9 16  2  0  0  0  0
 10 12  1  0  0  0  0
 11 10  2  0  0  0  0
 12 17  1  0  0  0  0
 12 13  1  0  0  0  0
 13 14  1  0  0  0  0
 14 19  1  0  0  0  0
 14 18  1  0  0  0  0
 15 13  2  0  0  0  0
 16 15  1  0  0  0  0
 21 20  2  0  0  0  0
 22 21  1  0  0  0  0
 23 22  2  0  0  0  0
 23 24  1  0  0  0  0
 24 25  2  0  0  0  0
 25 20  1  0  0  0  0
 26 22  1  0  0  0  0
 27 26  1  0  0  0  0
 28 27  2  0  0  0  0
 29 31  1  0  0  0  0
 29 28  1  0  0  0  0
 30 29  2  0  0  0  0
 31 32  1  0  0  0  0
 32 33  2  0  0  0  0
 32 26  1  0  0  0  0
 34 28  1  0  0  0  0
 35 31  1  0  0  0  0
 36 39  1  0  0  0  0
 36 37  1  0  0  0  0
 38 36  1  0  0  0  0
M  END
>  <minimizedAffinity>
-7.11444855

$$$$

 OpenBabel03242509593D

 39 43  0  0  0  0  0  0  0  0999 V2000
   39.6860   28.2440   40.6730 C   0  0  0  0  0  0  0  0  0  0  0  0
   40.8500   28.6130   40.0060 C   0  0  0  0  0  3  0  0  0  0  0  0
   40.8110   29.9290   39.7070 N   0  0  0  0  0  0  0  0  0  0  0  0
   39.6160   30.3780   40.1910 C   0  0  0  0  0  0  0  0  0  0  0  0
   38.9320   29.3570   40.7780 N   0  0  0  0  0  0  0  0  0  0  0  0
   39.1880   31.7310   40.0760 N   0  0  0  0  0  0  0  0  0  0  0  0
   37.9100   32.0370   39.7660 C   0  0  0  0  0  3  0  0  0  0  0  0
   37.7460   33.3920   39.7140 N   0  0  0  0  0  0  0  0  0  0  0  0
   38.9400   33.9480   39.9970 C   0  0  0  0  0  0  0  0  0  0  0  0
   39.4530   35.2300   40.1080 C   0  0  0  0  0  0  0  0  0  0  0  0
   38.6790   36.1920   39.9130 O   0  0  0  0  0  0  0  0  0  0  0  0
   40.7550   35.4010   40.4200 N   0  0  0  0  0  0  0  0  0  0  0  0
   41.6090   34.3830   40.6360 C   0  0  0  0  0  0  0  0  0  0  0  0
   42.9580   34.6950   40.9570 N   0  0  0  0  0  0  0  0  0  0  0  0
   41.1090   33.1260   40.5270 N   0  0  0  0  0  0  0  0  0  0  0  0
   39.8150   32.9080   40.2170 C   0  0  0  0  0  0  0  0  0  0  0  0
   41.1150   36.3630   40.4990 H   0  0  0  0  0  0  0  0  0  0  0  0
   43.6360   33.9380   41.1280 H   0  0  0  0  0  0  0  0  0  0  0  0
   43.2590   35.6780   41.0210 H   0  0  0  0  0  0  0  0  0  0  0  0
   39.5070   25.2970   42.8690 C   0  0  0  0  0  3  0  0  0  0  0  0
   38.6970   24.4090   42.1190 C   0  0  0  0  0  3  0  0  0  0  0  0
   38.2410   24.8470   40.8960 C   0  0  0  0  0  0  0  0  0  0  0  0
   38.5560   26.0790   40.4250 N   0  0  0  0  0  0  0  0  0  0  0  0
   39.3420   26.9250   41.1630 C   0  0  0  0  0  0  0  0  0  0  0  0
   39.8050   26.5160   42.3790 N   0  0  0  0  0  0  0  0  0  0  0  0
   37.4250   23.9450   40.1490 N   0  0  0  0  0  0  0  0  0  0  0  0
   36.0950   23.8200   40.2090 C   0  0  0  0  0  3  0  0  0  0  0  0
   35.4490   22.8960   39.4180 C   0  0  0  0  0  0  0  0  0  0  0  0
   36.1460   22.0810   38.5490 C   0  0  0  0  0  0  0  0  0  0  0  0
   35.5650   21.2400   37.8280 O   0  0  0  0  0  0  0  0  0  0  0  0
   37.4710   22.2310   38.5140 N   0  0  0  0  0  0  0  0  0  0  0  0
   38.1050   23.1490   39.3000 C   0  0  0  0  0  0  0  0  0  0  0  0
   39.3710   23.1730   39.1530 O   0  0  0  0  0  0  0  0  0  0  0  0
   33.9830   22.7750   39.4990 C   0  0  0  0  0  1  0  0  0  0  0  0
   38.0270   21.6420   37.8790 H   0  0  0  0  0  0  0  0  0  0  0  0
   37.6270   29.4190   41.4110 C   0  0  0  0  0  0  0  0  0  0  0  0
   37.4920   28.4040   42.3910 F   0  0  0  0  0  0  0  0  0  0  0  0
   36.5910   29.2780   40.4990 F   0  0  0  0  0  0  0  0  0  0  0  0
   37.4860   30.6000   42.1180 F   0  0  0  0  0  0  0  0  0  0  0  0
  1  5  1  0  0  0  0
  1 24  1  0  0  0  0
  2  1  2  0  0  0  0
  3  2  1  0  0  0  0
  3  4  2  0  0  0  0
  4  5  1  0  0  0  0
  5 36  1  0  0  0  0
  6  4  1  0  0  0  0
  6 16  1  0  0  0  0
  7  6  1  0  0  0  0
  8  7  2  0  0  0  0
  8  9  1  0  0  0  0
  9 10  1  0  0  0  0
  9 16  2  0  0  0  0
 10 12  1  0  0  0  0
 11 10  2  0  0  0  0
 12 17  1  0  0  0  0
 12 13  1  0  0  0  0
 13 14  1  0  0  0  0
 14 19  1  0  0  0  0
 14 18  1  0  0  0  0
 15 13  2  0  0  0  0
 16 15  1  0  0  0  0
 21 20  2  0  0  0  0
 22 21  1  0  0  0  0
 23 22  2  0  0  0  0
 23 24  1  0  0  0  0
 24 25  2  0  0  0  0
 25 20  1  0  0  0  0
 26 27  1  0  0  0  0
 26 22  1  0  0  0  0
 28 34  1  0  0  0  0
 28 27  2  0  0  0  0
 29 28  1  0  0  0  0
 30 29  2  0  0  0  0
 31 29  1  0  0  0  0
 31 32  1  0  0  0  0
 32 26  1  0  0  0  0
 33 32  2  0  0  0  0
 35 31  1  0  0  0  0
 36 39  1  0  0  0  0
 36 37  1  0  0  0  0
 38 36  1  0  0  0  0
M  END
>  <minimizedAffinity>
-7.07990122

$$$$

 OpenBabel03242509593D

 39 43  0  0  0  0  0  0  0  0999 V2000
   37.8700   27.8260   41.5680 C   0  0  0  0  0  0  0  0  0  0  0  0
   36.8650   28.6960   41.9790 C   0  0  0  0  0  3  0  0  0  0  0  0
   37.3020   29.9710   41.9050 N   0  0  0  0  0  0  0  0  0  0  0  0
   38.5860   29.8910   41.4460 C   0  0  0  0  0  0  0  0  0  0  0  0
   38.9320   28.5910   41.2410 N   0  0  0  0  0  0  0  0  0  0  0  0
   39.4070   31.0330   41.2280 N   0  0  0  0  0  0  0  0  0  0  0  0
   40.7120   31.0330   41.5770 C   0  0  0  0  0  3  0  0  0  0  0  0
   41.2840   32.2350   41.2700 N   0  0  0  0  0  0  0  0  0  0  0  0
   40.3250   33.0030   40.7190 C   0  0  0  0  0  0  0  0  0  0  0  0
   40.2340   34.2860   40.2040 C   0  0  0  0  0  0  0  0  0  0  0  0
   41.2630   34.9960   40.2070 O   0  0  0  0  0  0  0  0  0  0  0  0
   39.0540   34.7260   39.7190 N   0  0  0  0  0  0  0  0  0  0  0  0
   37.9310   33.9830   39.7030 C   0  0  0  0  0  0  0  0  0  0  0  0
   36.7490   34.5620   39.1650 N   0  0  0  0  0  0  0  0  0  0  0  0
   38.0180   32.7260   40.2070 N   0  0  0  0  0  0  0  0  0  0  0  0
   39.1760   32.2440   40.7020 C   0  0  0  0  0  0  0  0  0  0  0  0
   39.0090   35.6830   39.3400 H   0  0  0  0  0  0  0  0  0  0  0  0
   35.8750   34.0190   39.1390 H   0  0  0  0  0  0  0  0  0  0  0  0
   36.7680   35.5260   38.8010 H   0  0  0  0  0  0  0  0  0  0  0  0
   38.4550   24.2830   42.3700 C   0  0  0  0  0  3  0  0  0  0  0  0
   37.6770   23.6180   41.3910 C   0  0  0  0  0  3  0  0  0  0  0  0
   36.9820   24.4000   40.4960 C   0  0  0  0  0  0  0  0  0  0  0  0
   37.0400   25.7540   40.5470 N   0  0  0  0  0  0  0  0  0  0  0  0
   37.7990   26.3810   41.5010 C   0  0  0  0  0  0  0  0  0  0  0  0
   38.4960   25.6290   42.4010 N   0  0  0  0  0  0  0  0  0  0  0  0
   36.2000   23.7200   39.5140 N   0  0  0  0  0  0  0  0  0  0  0  0
   34.9690   23.2210   39.6650 C   0  0  0  0  0  3  0  0  0  0  0  0
   34.3430   22.5880   38.6150 C   0  0  0  0  0  0  0  0  0  0  0  0
   34.9610   22.4510   37.3870 C   0  0  0  0  0  0  0  0  0  0  0  0
   34.3970   21.8770   36.4290 O   0  0  0  0  0  0  0  0  0  0  0  0
   36.1880   22.9590   37.2710 N   0  0  0  0  0  0  0  0  0  0  0  0
   36.8030   23.5860   38.3160 C   0  0  0  0  0  0  0  0  0  0  0  0
   37.9710   24.0170   38.0490 O   0  0  0  0  0  0  0  0  0  0  0  0
   32.9860   22.0470   38.8020 C   0  0  0  0  0  1  0  0  0  0  0  0
   36.6830   22.8780   36.3710 H   0  0  0  0  0  0  0  0  0  0  0  0
   40.2030   28.0820   40.7590 C   0  0  0  0  0  0  0  0  0  0  0  0
   40.0300   26.8510   40.0770 F   0  0  0  0  0  0  0  0  0  0  0  0
   41.1150   27.8820   41.7850 F   0  0  0  0  0  0  0  0  0  0  0  0
   40.7350   28.9300   39.8040 F   0  0  0  0  0  0  0  0  0  0  0  0
  1  2  2  0  0  0  0
  3  2  1  0  0  0  0
  4  3  2  0  0  0  0
  5  4  1  0  0  0  0
  5  1  1  0  0  0  0
  6  4  1  0  0  0  0
  6  7  1  0  0  0  0
  8  7  2  0  0  0  0
  9  8  1  0  0  0  0
 10 11  2  0  0  0  0
 10  9  1  0  0  0  0
 12 10  1  0  0  0  0
 13 12  1  0  0  0  0
 13 15  2  0  0  0  0
 14 13  1  0  0  0  0
 15 16  1  0  0  0  0
 16  9  2  0  0  0  0
 16  6  1  0  0  0  0
 17 12  1  0  0  0  0
 18 14  1  0  0  0  0
 19 14  1  0  0  0  0
 20 25  1  0  0  0  0
 21 20  2  0  0  0  0
 22 23  2  0  0  0  0
 22 21  1  0  0  0  0
 23 24  1  0  0  0  0
 24  1  1  0  0  0  0
 24 25  2  0  0  0  0
 26 27  1  0  0  0  0
 26 22  1  0  0  0  0
 28 34  1  0  0  0  0
 28 27  2  0  0  0  0
 29 28  1  0  0  0  0
 30 29  2  0  0  0  0
 31 29  1  0  0  0  0
 31 32  1  0  0  0  0
 32 26  1  0  0  0  0
 33 32  2  0  0  0  0
 35 31  1  0  0  0  0
 36  5  1  0  0  0  0
 36 38  1  0  0  0  0
 37 36  1  0  0  0  0
 39 36  1  0  0  0  0
M  END
>  <minimizedAffinity>
-6.97514963

$$$$

 OpenBabel03242509593D

 39 43  0  0  0  0  0  0  0  0999 V2000
   40.7310   28.3460   41.0290 C   0  0  0  0  0  0  0  0  0  0  0  0
   41.9060   28.7110   40.3780 C   0  0  0  0  0  3  0  0  0  0  0  0
   41.8450   30.0110   40.0150 N   0  0  0  0  0  0  0  0  0  0  0  0
   40.6270   30.4540   40.4430 C   0  0  0  0  0  0  0  0  0  0  0  0
   39.9500   29.4450   41.0580 N   0  0  0  0  0  0  0  0  0  0  0  0
   40.1720   31.7890   40.2510 N   0  0  0  0  0  0  0  0  0  0  0  0
   38.8970   32.0480   39.8910 C   0  0  0  0  0  3  0  0  0  0  0  0
   38.7040   33.3950   39.7690 N   0  0  0  0  0  0  0  0  0  0  0  0
   39.8760   33.9930   40.0580 C   0  0  0  0  0  0  0  0  0  0  0  0
   40.3560   35.2910   40.1220 C   0  0  0  0  0  0  0  0  0  0  0  0
   39.5670   36.2240   39.8590 O   0  0  0  0  0  0  0  0  0  0  0  0
   41.6440   35.5080   40.4630 N   0  0  0  0  0  0  0  0  0  0  0  0
   42.5140   34.5220   40.7510 C   0  0  0  0  0  0  0  0  0  0  0  0
   43.8460   34.8810   41.0950 N   0  0  0  0  0  0  0  0  0  0  0  0
   42.0470   33.2490   40.6890 N   0  0  0  0  0  0  0  0  0  0  0  0
   40.7670   32.9850   40.3530 C   0  0  0  0  0  0  0  0  0  0  0  0
   41.9800   36.4810   40.5050 H   0  0  0  0  0  0  0  0  0  0  0  0
   44.5350   34.1490   41.3210 H   0  0  0  0  0  0  0  0  0  0  0  0
   44.1220   35.8730   41.1200 H   0  0  0  0  0  0  0  0  0  0  0  0
   40.6140   25.4760   43.3270 C   0  0  0  0  0  3  0  0  0  0  0  0
   39.7890   24.5610   42.6280 C   0  0  0  0  0  3  0  0  0  0  0  0
   39.3030   24.9560   41.4020 C   0  0  0  0  0  0  0  0  0  0  0  0
   39.6030   26.1720   40.8810 N   0  0  0  0  0  0  0  0  0  0  0  0
   40.4040   27.0440   41.5710 C   0  0  0  0  0  0  0  0  0  0  0  0
   40.8960   26.6780   42.7890 N   0  0  0  0  0  0  0  0  0  0  0  0
   38.4720   24.0270   40.7050 N   0  0  0  0  0  0  0  0  0  0  0  0
   38.8680   22.9940   39.9540 C   0  0  0  0  0  3  0  0  0  0  0  0
   37.9370   22.1830   39.3440 C   0  0  0  0  0  0  0  0  0  0  0  0
   36.5820   22.4100   39.4870 C   0  0  0  0  0  0  0  0  0  0  0  0
   35.7320   21.6770   38.9350 O   0  0  0  0  0  0  0  0  0  0  0  0
   36.2220   23.4480   40.2420 N   0  0  0  0  0  0  0  0  0  0  0  0
   37.1500   24.2480   40.8440 C   0  0  0  0  0  0  0  0  0  0  0  0
   36.6500   25.1970   41.5320 O   0  0  0  0  0  0  0  0  0  0  0  0
   38.3940   21.0500   38.5220 C   0  0  0  0  0  1  0  0  0  0  0  0
   35.2210   23.6510   40.3740 H   0  0  0  0  0  0  0  0  0  0  0  0
   38.6260   29.5060   41.6500 C   0  0  0  0  0  0  0  0  0  0  0  0
   37.6220   29.4030   40.6550 F   0  0  0  0  0  0  0  0  0  0  0  0
   38.4160   30.6830   42.3550 F   0  0  0  0  0  0  0  0  0  0  0  0
   38.4090   28.4120   42.4690 F   0  0  0  0  0  0  0  0  0  0  0  0
  1  5  1  0  0  0  0
  1 24  1  0  0  0  0
  2  1  2  0  0  0  0
  3  2  1  0  0  0  0
  3  4  2  0  0  0  0
  4  5  1  0  0  0  0
  5 36  1  0  0  0  0
  6 16  1  0  0  0  0
  6  4  1  0  0  0  0
  7  6  1  0  0  0  0
  8  7  2  0  0  0  0
  8  9  1  0  0  0  0
  9 10  1  0  0  0  0
  9 16  2  0  0  0  0
 10 12  1  0  0  0  0
 11 10  2  0  0  0  0
 12 17  1  0  0  0  0
 12 13  1  0  0  0  0
 13 14  1  0  0  0  0
 14 19  1  0  0  0  0
 14 18  1  0  0  0  0
 15 13  2  0  0  0  0
 16 15  1  0  0  0  0
 21 20  2  0  0  0  0
 22 21  1  0  0  0  0
 23 22  2  0  0  0  0
 23 24  1  0  0  0  0
 24 25  2  0  0  0  0
 25 20  1  0  0  0  0
 26 32  1  0  0  0  0
 26 22  1  0  0  0  0
 27 26  1  0  0  0  0
 28 29  1  0  0  0  0
 28 27  2  0  0  0  0
 29 31  1  0  0  0  0
 30 29  2  0  0  0  0
 31 35  1  0  0  0  0
 31 32  1  0  0  0  0
 32 33  2  0  0  0  0
 34 28  1  0  0  0  0
 36 38  1  0  0  0  0
 36 39  1  0  0  0  0
 37 36  1  0  0  0  0
M  END
>  <minimizedAffinity>
-6.86721134

$$$$

 OpenBabel03242509593D

 39 43  0  0  0  0  0  0  0  0999 V2000
   39.0290   28.1190   42.1690 C   0  0  0  0  0  0  0  0  0  0  0  0
   37.9410   28.8870   42.5720 C   0  0  0  0  0  3  0  0  0  0  0  0
   38.1950   30.1950   42.3520 N   0  0  0  0  0  0  0  0  0  0  0  0
   39.4480   30.2370   41.8090 C   0  0  0  0  0  0  0  0  0  0  0  0
   39.9540   28.9790   41.6970 N   0  0  0  0  0  0  0  0  0  0  0  0
   40.0910   31.4490   41.4290 N   0  0  0  0  0  0  0  0  0  0  0  0
   41.4020   31.6530   41.6800 C   0  0  0  0  0  3  0  0  0  0  0  0
   41.7850   32.8830   41.2250 N   0  0  0  0  0  0  0  0  0  0  0  0
   40.6990   33.4610   40.6780 C   0  0  0  0  0  0  0  0  0  0  0  0
   40.4030   34.6640   40.0580 C   0  0  0  0  0  0  0  0  0  0  0  0
   41.3240   35.4980   39.9220 O   0  0  0  0  0  0  0  0  0  0  0  0
   39.1460   34.8970   39.6230 N   0  0  0  0  0  0  0  0  0  0  0  0
   38.1370   34.0160   39.7570 C   0  0  0  0  0  0  0  0  0  0  0  0
   36.8570   34.3810   39.2570 N   0  0  0  0  0  0  0  0  0  0  0  0
   38.4240   32.8370   40.3640 N   0  0  0  0  0  0  0  0  0  0  0  0
   39.6650   32.5610   40.8140 C   0  0  0  0  0  0  0  0  0  0  0  0
   38.9490   35.7970   39.1630 H   0  0  0  0  0  0  0  0  0  0  0  0
   36.0650   33.7280   39.3440 H   0  0  0  0  0  0  0  0  0  0  0  0
   36.7220   35.2970   38.8070 H   0  0  0  0  0  0  0  0  0  0  0  0
   39.8700   24.7650   43.4270 C   0  0  0  0  0  3  0  0  0  0  0  0
   39.3950   23.9250   42.3900 C   0  0  0  0  0  3  0  0  0  0  0  0
   38.8060   24.5310   41.3030 C   0  0  0  0  0  0  0  0  0  0  0  0
   38.6850   25.8790   41.2260 N   0  0  0  0  0  0  0  0  0  0  0  0
   39.1510   26.6770   42.2380 C   0  0  0  0  0  0  0  0  0  0  0  0
   39.7380   26.1020   43.3260 N   0  0  0  0  0  0  0  0  0  0  0  0
   38.3290   23.6740   40.2640 N   0  0  0  0  0  0  0  0  0  0  0  0
   39.0530   23.0850   39.3080 C   0  0  0  0  0  3  0  0  0  0  0  0
   38.4420   22.2820   38.3710 C   0  0  0  0  0  0  0  0  0  0  0  0
   37.0790   22.0620   38.3920 C   0  0  0  0  0  0  0  0  0  0  0  0
   36.5180   21.3330   37.5440 O   0  0  0  0  0  0  0  0  0  0  0  0
   36.3870   22.6650   39.3590 N   0  0  0  0  0  0  0  0  0  0  0  0
   36.9980   23.4600   40.2850 C   0  0  0  0  0  0  0  0  0  0  0  0
   36.2040   23.9640   41.1440 O   0  0  0  0  0  0  0  0  0  0  0  0
   39.2580   21.6410   37.3260 C   0  0  0  0  0  1  0  0  0  0  0  0
   35.3680   22.5260   39.4100 H   0  0  0  0  0  0  0  0  0  0  0  0
   41.2510   28.5950   41.1710 C   0  0  0  0  0  0  0  0  0  0  0  0
   41.2400   27.2470   40.7320 F   0  0  0  0  0  0  0  0  0  0  0  0
   42.2630   28.7330   42.1100 F   0  0  0  0  0  0  0  0  0  0  0  0
   41.5500   29.3230   40.0340 F   0  0  0  0  0  0  0  0  0  0  0  0
  1 24  1  0  0  0  0
  1  2  2  0  0  0  0
  3  2  1  0  0  0  0
  4  3  2  0  0  0  0
  5  4  1  0  0  0  0
  5  1  1  0  0  0  0
  6  7  1  0  0  0  0
  6  4  1  0  0  0  0
  8  7  2  0  0  0  0
  9 16  2  0  0  0  0
  9  8  1  0  0  0  0
 10  9  1  0  0  0  0
 11 10  2  0  0  0  0
 12 13  1  0  0  0  0
 12 10  1  0  0  0  0
 13 15  2  0  0  0  0
 14 18  1  0  0  0  0
 14 13  1  0  0  0  0
 15 16  1  0  0  0  0
 16  6  1  0  0  0  0
 17 12  1  0  0  0  0
 19 14  1  0  0  0  0
 21 20  2  0  0  0  0
 22 21  1  0  0  0  0
 23 22  2  0  0  0  0
 23 24  1  0  0  0  0
 24 25  2  0  0  0  0
 25 20  1  0  0  0  0
 26 32  1  0  0  0  0
 26 22  1  0  0  0  0
 27 26  1  0  0  0  0
 28 29  1  0  0  0  0
 28 27  2  0  0  0  0
 29 31  1  0  0  0  0
 30 29  2  0  0  0  0
 31 35  1  0  0  0  0
 31 32  1  0  0  0  0
 32 33  2  0  0  0  0
 34 28  1  0  0  0  0
 36  5  1  0  0  0  0
 36 38  1  0  0  0  0
 37 36  1  0  0  0  0
 39 36  1  0  0  0  0
M  END
>  <minimizedAffinity>
-6.82166862

$$$$

 OpenBabel03242509593D

 39 43  0  0  0  0  0  0  0  0999 V2000
   37.2290   30.1250   38.0170 C   0  0  0  0  0  0  0  0  0  0  0  0
   37.7900   30.7300   36.8970 C   0  0  0  0  0  3  0  0  0  0  0  0
   38.4490   31.8510   37.2620 N   0  0  0  0  0  0  0  0  0  0  0  0
   38.2960   31.9410   38.6160 C   0  0  0  0  0  0  0  0  0  0  0  0
   37.5570   30.8940   39.0750 N   0  0  0  0  0  0  0  0  0  0  0  0
   38.8500   32.9960   39.3940 N   0  0  0  0  0  0  0  0  0  0  0  0
   38.1480   33.5690   40.3950 C   0  0  0  0  0  3  0  0  0  0  0  0
   38.8880   34.5530   40.9890 N   0  0  0  0  0  0  0  0  0  0  0  0
   40.0740   34.5980   40.3520 C   0  0  0  0  0  0  0  0  0  0  0  0
   41.2400   35.3390   40.4480 C   0  0  0  0  0  0  0  0  0  0  0  0
   41.3050   36.2230   41.3290 O   0  0  0  0  0  0  0  0  0  0  0  0
   42.2590   35.0880   39.5990 N   0  0  0  0  0  0  0  0  0  0  0  0
   42.2150   34.1430   38.6420 C   0  0  0  0  0  0  0  0  0  0  0  0
   43.3560   33.9760   37.8090 N   0  0  0  0  0  0  0  0  0  0  0  0
   41.0730   33.4160   38.5460 N   0  0  0  0  0  0  0  0  0  0  0  0
   40.0300   33.6310   39.3730 C   0  0  0  0  0  0  0  0  0  0  0  0
   43.1180   35.6510   39.6880 H   0  0  0  0  0  0  0  0  0  0  0  0
   43.3530   33.2610   37.0680 H   0  0  0  0  0  0  0  0  0  0  0  0
   44.1860   34.5710   37.9470 H   0  0  0  0  0  0  0  0  0  0  0  0
   34.3660   27.8320   37.7290 C   0  0  0  0  0  3  0  0  0  0  0  0
   34.9330   26.5900   38.1050 C   0  0  0  0  0  3  0  0  0  0  0  0
   36.2680   26.5800   38.4420 C   0  0  0  0  0  0  0  0  0  0  0  0
   37.0120   27.7130   38.4160 N   0  0  0  0  0  0  0  0  0  0  0  0
   36.4470   28.9070   38.0500 C   0  0  0  0  0  0  0  0  0  0  0  0
   35.1270   28.9440   37.7100 N   0  0  0  0  0  0  0  0  0  0  0  0
   36.8300   25.3220   38.8190 N   0  0  0  0  0  0  0  0  0  0  0  0
   37.1360   24.3000   38.0140 C   0  0  0  0  0  3  0  0  0  0  0  0
   37.6760   23.1450   38.5340 C   0  0  0  0  0  0  0  0  0  0  0  0
   37.9150   23.0090   39.8870 C   0  0  0  0  0  0  0  0  0  0  0  0
   38.4060   21.9620   40.3660 O   0  0  0  0  0  0  0  0  0  0  0  0
   37.5980   24.0470   40.6620 N   0  0  0  0  0  0  0  0  0  0  0  0
   37.0630   25.1890   40.1400 C   0  0  0  0  0  0  0  0  0  0  0  0
   36.8150   26.0900   41.0060 O   0  0  0  0  0  0  0  0  0  0  0  0
   38.0070   22.0310   37.6290 C   0  0  0  0  0  1  0  0  0  0  0  0
   37.7610   23.9860   41.6770 H   0  0  0  0  0  0  0  0  0  0  0  0
   37.1710   30.6230   40.4480 C   0  0  0  0  0  0  0  0  0  0  0  0
   37.0640   29.2290   40.6780 F   0  0  0  0  0  0  0  0  0  0  0  0
   35.9590   31.2100   40.7810 F   0  0  0  0  0  0  0  0  0  0  0  0
   38.1600   31.0390   41.3220 F   0  0  0  0  0  0  0  0  0  0  0  0
  1 24  1  0  0  0  0
  1  5  1  0  0  0  0
  2  3  1  0  0  0  0
  2  1  2  0  0  0  0
  3  4  2  0  0  0  0
  4  5  1  0  0  0  0
  4  6  1  0  0  0  0
  5 36  1  0  0  0  0
  6  7  1  0  0  0  0
  7  8  2  0  0  0  0
  9 10  1  0  0  0  0
  9  8  1  0  0  0  0
 10 11  2  0  0  0  0
 12 17  1  0  0  0  0
 12 10  1  0  0  0  0
 13 12  1  0  0  0  0
 14 19  1  0  0  0  0
 14 13  1  0  0  0  0
 15 13  2  0  0  0  0
 15 16  1  0  0  0  0
 16  6  1  0  0  0  0
 16  9  2  0  0  0  0
 18 14  1  0  0  0  0
 20 21  1  0  0  0  0
 21 22  2  0  0  0  0
 22 26  1  0  0  0  0
 23 22  1  0  0  0  0
 24 23  2  0  0  0  0
 25 20  2  0  0  0  0
 25 24  1  0  0  0  0
 26 32  1  0  0  0  0
 27 28  2  0  0  0  0
 27 26  1  0  0  0  0
 28 29  1  0  0  0  0
 29 30  2  0  0  0  0
 29 31  1  0  0  0  0
 31 35  1  0  0  0  0
 32 31  1  0  0  0  0
 32 33  2  0  0  0  0
 34 28  1  0  0  0  0
 36 37  1  0  0  0  0
 36 38  1  0  0  0  0
 36 39  1  0  0  0  0
M  END
>  <minimizedAffinity>
-6.7949748

$$$$
