
     RDKit          3D

 31 33  0  0  0  0  0  0  0  0999 V2000
   44.4060   36.0960   44.6500 C   0  0  0  0  0  0  0  0  0  0  0  0
   45.0650   36.0400   43.4150 C   0  0  0  0  0  0  0  0  0  0  0  0
   45.9780   35.0230   43.1990 C   0  0  0  0  0  0  0  0  0  0  0  0
   46.1810   34.1290   44.2160 N   0  0  0  0  0  0  0  0  0  0  0  0
   45.5340   34.2070   45.3940 C   0  0  0  0  0  0  0  0  0  0  0  0
   44.6430   35.1980   45.6080 N   0  0  0  0  0  0  0  0  0  0  0  0
   45.8930   33.1690   46.3280 N   0  0  0  0  0  0  0  0  0  0  0  0
   45.1660   33.1480   47.4690 C   0  0  0  0  0  0  0  0  0  0  0  0
   45.4070   32.2020   48.4500 C   0  0  0  0  0  0  0  0  0  0  0  0
   46.4240   31.3210   48.1560 C   0  0  0  0  0  0  0  0  0  0  0  0
   46.6930   30.4250   49.0240 O   0  0  0  0  0  0  0  0  0  0  0  0
   47.1570   31.3270   47.0270 N   0  0  0  0  0  0  0  0  0  0  0  0
   46.8750   32.2800   46.0980 C   0  0  0  0  0  0  0  0  0  0  0  0
   47.4710   32.4140   44.9970 O   0  0  0  0  0  0  0  0  0  0  0  0
   46.7270   34.8340   41.9940 N   0  0  0  0  0  0  0  0  0  0  0  0
   47.9730   35.3500   41.8730 C   0  0  0  0  0  0  0  0  0  0  0  0
   48.6620   35.1440   40.6940 C   0  0  0  0  0  0  0  0  0  0  0  0
   48.0280   34.4180   39.7050 C   0  0  0  0  0  0  0  0  0  0  0  0
   48.6330   34.1390   38.4450 N   0  0  0  0  0  0  0  0  0  0  0  0
   46.7940   33.9240   39.8610 N   0  0  0  0  0  0  0  0  0  0  0  0
   46.1060   34.1240   41.0290 C   0  0  0  0  0  0  0  0  0  0  0  0
   44.9360   33.6630   41.1950 O   0  0  0  0  0  0  0  0  0  0  0  0
   43.6766   36.8985   44.8341 H   0  0  0  0  0  0  0  0  0  0  0  0
   44.8612   36.7878   42.6345 H   0  0  0  0  0  0  0  0  0  0  0  0
   44.3716   33.8939   47.6191 H   0  0  0  0  0  0  0  0  0  0  0  0
   44.8334   32.1574   49.3875 H   0  0  0  0  0  0  0  0  0  0  0  0
   47.9042   30.6352   46.8721 H   0  0  0  0  0  0  0  0  0  0  0  0
   48.4268   35.9212   42.6963 H   0  0  0  0  0  0  0  0  0  0  0  0
   49.6767   35.5428   40.5483 H   0  0  0  0  0  0  0  0  0  0  0  0
   49.5826   34.4827   38.2423 H   0  0  0  0  0  0  0  0  0  0  0  0
   48.1207   33.5937   37.7372 H   0  0  0  0  0  0  0  0  0  0  0  0
  1  6  2  0
  2  1  1  0
  3  2  2  0
  3  4  1  0
  4  5  2  0
  5  6  1  0
  5  7  1  0
  7  8  1  0
  8  9  2  0
 10  9  1  0
 10 11  2  0
 12 10  1  0
 13  7  1  0
 13 12  1  0
 14 13  2  0
 15  3  1  0
 16 15  1  0
 17 16  2  0
 18 20  2  0
 18 17  1  0
 19 18  1  0
 20 21  1  0
 21 22  2  0
 21 15  1  0
  1 23  1  0
  2 24  1  0
  8 25  1  0
  9 26  1  0
 12 27  1  0
 16 28  1  0
 17 29  1  0
 19 30  1  0
 19 31  1  0
M  END
>  <Score>  (1) 
-7.16258

$$$$
