
     RDKit          3D

 44 48  0  0  0  0  0  0  0  0999 V2000
   47.6840   33.9300   39.6200 C   0  0  0  0  0  0  0  0  0  0  0  0
   46.5310   33.3190   40.0200 C   0  0  0  0  0  0  0  0  0  0  0  0
   45.9400   33.5700   41.2430 C   0  0  0  0  0  0  0  0  0  0  0  0
   46.5210   34.4620   42.0950 C   0  0  0  0  0  0  0  0  0  0  0  0
   47.6830   35.0730   41.6860 C   0  0  0  0  0  0  0  0  0  0  0  0
   48.2830   34.8400   40.4850 C   0  0  0  0  0  0  0  0  0  0  0  0
   44.4530   35.9680   44.8900 C   0  0  0  0  0  0  0  0  0  0  0  0
   45.0490   35.8210   43.5950 C   0  0  0  0  0  0  0  0  0  0  0  0
   45.8700   34.7000   43.3720 C   0  0  0  0  0  0  0  0  0  0  0  0
   46.0600   33.8220   44.3670 N   0  0  0  0  0  0  0  0  0  0  0  0
   45.4820   33.9860   45.5820 C   0  0  0  0  0  0  0  0  0  0  0  0
   44.6900   35.0550   45.8180 N   0  0  0  0  0  0  0  0  0  0  0  0
   48.3940   33.5660   38.0460 S   0  0  0  0  0  0  0  0  0  0  0  0
   48.9380   34.8650   37.4760 O   0  0  0  0  0  0  0  0  0  0  0  0
   49.4530   32.5270   38.1800 O   0  0  0  0  0  0  0  0  0  0  0  0
   47.1130   32.9980   36.9920 C   0  0  0  0  0  0  0  0  0  0  0  0
   45.8410   33.3810   36.8520 N   0  0  0  0  0  0  0  0  0  0  0  0
   45.2600   32.6630   35.9490 O   0  0  0  0  0  0  0  0  0  0  0  0
   46.0810   31.7980   35.4630 C   0  0  0  0  0  0  0  0  0  0  0  0
   47.2350   31.9970   36.1000 N   0  0  0  0  0  0  0  0  0  0  0  0
   46.0330   30.7450   34.4590 C   0  0  0  0  0  0  0  0  0  0  0  0
   45.1680   29.6450   34.5180 C   0  0  0  0  0  0  0  0  0  0  0  0
   45.1160   28.6480   33.5780 C   0  0  0  0  0  0  0  0  0  0  0  0
   45.9510   28.6860   32.4830 C   0  0  0  0  0  0  0  0  0  0  0  0
   46.8100   29.7310   32.3760 C   0  0  0  0  0  0  0  0  0  0  0  0
   47.6290   29.7320   31.2650 C   0  0  0  0  0  0  0  0  0  0  0  0
   48.5370   30.7500   31.0660 C   0  0  0  0  0  0  0  0  0  0  0  0
   48.5810   31.7560   32.0260 C   0  0  0  0  0  0  0  0  0  0  0  0
   47.7400   31.7050   33.1170 C   0  0  0  0  0  0  0  0  0  0  0  0
   46.8370   30.7170   33.3400 C   0  0  0  0  0  0  0  0  0  0  0  0
   46.0530   32.5975   39.3410 H   0  0  0  0  0  0  0  0  0  0  0  0
   45.0101   33.0555   41.5267 H   0  0  0  0  0  0  0  0  0  0  0  0
   48.1566   35.7931   42.3694 H   0  0  0  0  0  0  0  0  0  0  0  0
   49.2138   35.3564   40.2076 H   0  0  0  0  0  0  0  0  0  0  0  0
   43.8059   36.8299   45.1100 H   0  0  0  0  0  0  0  0  0  0  0  0
   44.8704   36.5608   42.8007 H   0  0  0  0  0  0  0  0  0  0  0  0
   45.6581   33.2472   46.3777 H   0  0  0  0  0  0  0  0  0  0  0  0
   44.4839   29.5762   35.3767 H   0  0  0  0  0  0  0  0  0  0  0  0
   44.4062   27.8163   33.6985 H   0  0  0  0  0  0  0  0  0  0  0  0
   45.9223   27.8945   31.7197 H   0  0  0  0  0  0  0  0  0  0  0  0
   47.5566   28.9143   30.5328 H   0  0  0  0  0  0  0  0  0  0  0  0
   49.1978   30.7662   30.1867 H   0  0  0  0  0  0  0  0  0  0  0  0
   49.2870   32.5922   31.9144 H   0  0  0  0  0  0  0  0  0  0  0  0
   47.8051   32.5182   33.8549 H   0  0  0  0  0  0  0  0  0  0  0  0
  1  2  2  0
  1  6  1  0
  2  3  1  0
  3  4  2  0
  4  9  1  0
  5  4  1  0
  6  5  2  0
  7 12  2  0
  8  7  1  0
  9  8  2  0
  9 10  1  0
 10 11  2  0
 11 12  1  0
 13 15  2  0
 13  1  1  0
 14 13  2  0
 16 13  1  0
 17 16  2  0
 18 17  1  0
 19 18  1  0
 19 20  2  0
 20 16  1  0
 21 22  2  0
 21 19  1  0
 23 22  1  0
 24 23  2  0
 25 24  1  0
 25 30  2  0
 26 25  1  0
 27 26  2  0
 27 28  1  0
 28 29  2  0
 29 30  1  0
 30 21  1  0
  2 31  1  0
  3 32  1  0
  5 33  1  0
  6 34  1  0
  7 35  1  0
  8 36  1  0
 11 37  1  0
 22 38  1  0
 23 39  1  0
 24 40  1  0
 26 41  1  0
 27 42  1  0
 28 43  1  0
 29 44  1  0
M  END
>  <Score>  (1) 
-7.0834

$$$$
