
     RDKit          3D

 44 48  0  0  0  0  0  0  0  0999 V2000
   46.6130   34.6070   42.2230 C   0  0  0  0  0  0  0  0  0  0  0  0
   47.8190   35.2300   42.0670 C   0  0  0  0  0  0  0  0  0  0  0  0
   48.5310   35.1650   40.8580 C   0  0  0  0  0  0  0  0  0  0  0  0
   47.9790   34.4360   39.7850 C   0  0  0  0  0  0  0  0  0  0  0  0
   46.7510   33.8030   39.9460 C   0  0  0  0  0  0  0  0  0  0  0  0
   46.0970   33.9050   41.1660 C   0  0  0  0  0  0  0  0  0  0  0  0
   44.8370   33.2450   41.3060 N   0  0  0  0  0  0  0  0  0  0  0  0
   44.6130   31.9750   41.7300 C   0  0  0  0  0  0  0  0  0  0  0  0
   43.3310   31.4980   41.8060 C   0  0  0  0  0  0  0  0  0  0  0  0
   42.2590   32.2730   41.4610 C   0  0  0  0  0  0  0  0  0  0  0  0
   41.0920   31.7880   41.5480 O   0  0  0  0  0  0  0  0  0  0  0  0
   42.5080   33.5420   41.0380 N   0  0  0  0  0  0  0  0  0  0  0  0
   43.7630   34.0070   40.9650 C   0  0  0  0  0  0  0  0  0  0  0  0
   43.8660   35.2020   40.5570 O   0  0  0  0  0  0  0  0  0  0  0  0
   41.3740   34.3190   40.6880 C   0  0  0  0  0  0  0  0  0  0  0  0
   41.3330   35.6550   41.0630 C   0  0  0  0  0  0  0  0  0  0  0  0
   40.1210   36.1720   40.5960 C   0  0  0  0  0  0  0  0  0  0  0  0
   39.4820   35.1490   39.9660 N   0  0  0  0  0  0  0  0  0  0  0  0
   40.2290   34.0720   40.0300 N   0  0  0  0  0  0  0  0  0  0  0  0
   44.4880   35.7600   45.1300 C   0  0  0  0  0  0  0  0  0  0  0  0
   45.0720   35.7320   43.8600 C   0  0  0  0  0  0  0  0  0  0  0  0
   45.9480   34.7310   43.5160 C   0  0  0  0  0  0  0  0  0  0  0  0
   46.2310   33.7660   44.4460 N   0  0  0  0  0  0  0  0  0  0  0  0
   45.6430   33.8130   45.6910 C   0  0  0  0  0  0  0  0  0  0  0  0
   44.7920   34.7930   46.0150 N   0  0  0  0  0  0  0  0  0  0  0  0
   45.9900   32.7450   46.6450 C   0  0  0  0  0  0  0  0  0  0  0  0
   45.2860   32.7110   47.8000 C   0  0  0  0  0  0  0  0  0  0  0  0
   45.4180   31.8420   48.8140 C   0  0  0  0  0  0  0  0  0  0  0  0
   46.4520   30.8930   48.5170 C   0  0  0  0  0  0  0  0  0  0  0  0
   47.0950   31.4070   46.7800 S   0  0  0  0  0  0  0  0  0  0  0  0
   48.2429   35.7966   42.9092 H   0  0  0  0  0  0  0  0  0  0  0  0
   49.5007   35.6731   40.7505 H   0  0  0  0  0  0  0  0  0  0  0  0
   48.5157   34.3683   38.8272 H   0  0  0  0  0  0  0  0  0  0  0  0
   46.3051   33.2305   39.1193 H   0  0  0  0  0  0  0  0  0  0  0  0
   45.4587   31.3305   42.0118 H   0  0  0  0  0  0  0  0  0  0  0  0
   43.1604   30.4680   42.1525 H   0  0  0  0  0  0  0  0  0  0  0  0
   42.1067   36.2025   41.6212 H   0  0  0  0  0  0  0  0  0  0  0  0
   39.7558   37.2028   40.7145 H   0  0  0  0  0  0  0  0  0  0  0  0
   38.5597   35.2102   39.5116 H   0  0  0  0  0  0  0  0  0  0  0  0
   43.7879   36.5634   45.4027 H   0  0  0  0  0  0  0  0  0  0  0  0
   44.8281   36.5180   43.1301 H   0  0  0  0  0  0  0  0  0  0  0  0
   44.5153   33.4864   47.9221 H   0  0  0  0  0  0  0  0  0  0  0  0
   44.8208   31.8554   49.7377 H   0  0  0  0  0  0  0  0  0  0  0  0
   46.7992   30.0580   49.1432 H   0  0  0  0  0  0  0  0  0  0  0  0
  1 22  1  0
  2  1  2  0
  3  2  1  0
  4  5  1  0
  4  3  2  0
  5  6  2  0
  6  7  1  0
  6  1  1  0
  7  8  1  0
  8  9  2  0
 10 11  2  0
 10  9  1  0
 12 10  1  0
 13 12  1  0
 13  7  1  0
 14 13  2  0
 15 12  1  0
 15 16  1  0
 17 16  2  0
 18 19  1  0
 18 17  1  0
 19 15  2  0
 20 25  2  0
 21 20  1  0
 22 21  2  0
 22 23  1  0
 23 24  2  0
 24 25  1  0
 24 26  1  0
 26 30  1  0
 26 27  2  0
 27 28  1  0
 29 28  2  0
 30 29  1  0
  2 31  1  0
  3 32  1  0
  4 33  1  0
  5 34  1  0
  8 35  1  0
  9 36  1  0
 16 37  1  0
 17 38  1  0
 18 39  1  0
 20 40  1  0
 21 41  1  0
 27 42  1  0
 28 43  1  0
 29 44  1  0
M  END
>  <Score>  (1) 
-8.71484

$$$$
