
     RDKit          3D

 39 42  0  0  0  0  0  0  0  0999 V2000
   46.9820   34.7350   41.9990 C   0  0  0  0  0  0  0  0  0  0  0  0
   48.2260   35.3060   41.7570 C   0  0  0  0  0  0  0  0  0  0  0  0
   48.4940   34.9480   40.4380 C   0  0  0  0  0  0  0  0  0  0  0  0
   47.4120   34.1950   39.9680 C   0  0  0  0  0  0  0  0  0  0  0  0
   46.5360   34.1010   40.9510 O   0  0  0  0  0  0  0  0  0  0  0  0
   47.2930   33.6400   38.6710 N   0  0  0  0  0  0  0  0  0  0  0  0
   46.4580   32.6000   38.4990 C   0  0  0  0  0  0  0  0  0  0  0  0
   46.3080   32.0200   37.2480 C   0  0  0  0  0  0  0  0  0  0  0  0
   47.0220   32.5210   36.1920 C   0  0  0  0  0  0  0  0  0  0  0  0
   46.8570   31.9690   35.0790 O   0  0  0  0  0  0  0  0  0  0  0  0
   47.8480   33.5680   36.4180 N   0  0  0  0  0  0  0  0  0  0  0  0
   47.9810   34.1210   37.6480 C   0  0  0  0  0  0  0  0  0  0  0  0
   48.7660   35.0920   37.7890 O   0  0  0  0  0  0  0  0  0  0  0  0
   45.3570   30.8760   37.1550 C   0  0  0  0  0  0  0  0  0  0  0  0
   44.5540   35.7950   44.6050 C   0  0  0  0  0  0  0  0  0  0  0  0
   45.2660   35.7800   43.3670 C   0  0  0  0  0  0  0  0  0  0  0  0
   46.2230   34.8020   43.2380 C   0  0  0  0  0  0  0  0  0  0  0  0
   46.4230   33.9500   44.2530 N   0  0  0  0  0  0  0  0  0  0  0  0
   45.7290   33.9880   45.4240 C   0  0  0  0  0  0  0  0  0  0  0  0
   44.7890   34.9220   45.5890 N   0  0  0  0  0  0  0  0  0  0  0  0
   46.0230   33.0120   46.4660 C   0  0  0  0  0  0  0  0  0  0  0  0
   45.2100   32.9570   47.5740 C   0  0  0  0  0  0  0  0  0  0  0  0
   45.4520   32.0570   48.5730 C   0  0  0  0  0  0  0  0  0  0  0  0
   46.5200   31.2120   48.4520 C   0  0  0  0  0  0  0  0  0  0  0  0
   47.3140   31.3000   47.3230 C   0  0  0  0  0  0  0  0  0  0  0  0
   47.0740   32.1880   46.3380 N   0  0  0  0  0  0  0  0  0  0  0  0
   48.8493   35.8985   42.4428 H   0  0  0  0  0  0  0  0  0  0  0  0
   49.3965   35.2107   39.8667 H   0  0  0  0  0  0  0  0  0  0  0  0
   45.8906   32.2069   39.3555 H   0  0  0  0  0  0  0  0  0  0  0  0
   48.3910   33.9558   35.6334 H   0  0  0  0  0  0  0  0  0  0  0  0
   45.0817   30.5448   38.1672 H   0  0  0  0  0  0  0  0  0  0  0  0
   44.4531   31.1936   36.6146 H   0  0  0  0  0  0  0  0  0  0  0  0
   45.8344   30.0453   36.6146 H   0  0  0  0  0  0  0  0  0  0  0  0
   43.7774   36.5594   44.7552 H   0  0  0  0  0  0  0  0  0  0  0  0
   45.0612   36.5061   42.5665 H   0  0  0  0  0  0  0  0  0  0  0  0
   44.3557   33.6450   47.6567 H   0  0  0  0  0  0  0  0  0  0  0  0
   44.8000   32.0131   49.4578 H   0  0  0  0  0  0  0  0  0  0  0  0
   46.7436   30.4758   49.2381 H   0  0  0  0  0  0  0  0  0  0  0  0
   48.1732   30.6201   47.2254 H   0  0  0  0  0  0  0  0  0  0  0  0
  1 17  1  0
  2  1  2  0
  3  2  1  0
  4  3  2  0
  4  5  1  0
  5  1  1  0
  6  4  1  0
  7  6  1  0
  8  7  2  0
  9 11  1  0
  9  8  1  0
 10  9  2  0
 11 12  1  0
 12 13  2  0
 12  6  1  0
 14  8  1  0
 15 20  2  0
 16 15  1  0
 17 16  2  0
 17 18  1  0
 18 19  2  0
 19 20  1  0
 19 21  1  0
 21 22  2  0
 22 23  1  0
 24 23  2  0
 25 24  1  0
 26 21  1  0
 26 25  2  0
  2 27  1  0
  3 28  1  0
  7 29  1  0
 11 30  1  0
 14 31  1  0
 14 32  1  0
 14 33  1  0
 15 34  1  0
 16 35  1  0
 22 36  1  0
 23 37  1  0
 24 38  1  0
 25 39  1  0
M  END
>  <Score>  (1) 
-7.5478

$$$$
