
     RDKit          3D

 45 49  0  0  0  0  0  0  0  0999 V2000
   46.6660   34.6100   41.6560 C   0  0  0  0  0  0  0  0  0  0  0  0
   44.5820   35.8230   44.5240 C   0  0  0  0  0  0  0  0  0  0  0  0
   45.1560   35.7360   43.2480 C   0  0  0  0  0  0  0  0  0  0  0  0
   46.0470   34.7210   42.9970 C   0  0  0  0  0  0  0  0  0  0  0  0
   46.3370   33.8360   44.0080 N   0  0  0  0  0  0  0  0  0  0  0  0
   45.7640   33.9450   45.2380 C   0  0  0  0  0  0  0  0  0  0  0  0
   44.8850   34.9450   45.4890 N   0  0  0  0  0  0  0  0  0  0  0  0
   46.0860   32.9990   46.2850 C   0  0  0  0  0  0  0  0  0  0  0  0
   45.3940   33.0440   47.4920 C   0  0  0  0  0  0  0  0  0  0  0  0
   45.6370   32.1800   48.5410 C   0  0  0  0  0  0  0  0  0  0  0  0
   46.6240   31.2750   48.2870 C   0  0  0  0  0  0  0  0  0  0  0  0
   47.3450   31.1830   47.1090 C   0  0  0  0  0  0  0  0  0  0  0  0
   47.0230   32.0780   46.1490 N   0  0  0  0  0  0  0  0  0  0  0  0
   44.3780   34.0400   47.6420 N   0  0  0  0  0  0  0  0  0  0  0  0
   48.0020   35.3260   41.5890 C   0  0  0  0  0  0  0  0  0  0  0  0
   49.1350   34.3980   41.8140 C   0  0  0  0  0  0  0  0  0  0  0  0
   50.2020   34.7530   42.5300 N   0  0  0  0  0  0  0  0  0  0  0  0
   51.0200   33.7470   42.5560 O   0  0  0  0  0  0  0  0  0  0  0  0
   50.5110   32.7290   41.8660 C   0  0  0  0  0  0  0  0  0  0  0  0
   49.3190   33.1410   41.3980 N   0  0  0  0  0  0  0  0  0  0  0  0
   51.3040   31.5490   41.8050 N   0  0  0  0  0  0  0  0  0  0  0  0
   51.2730   30.6930   42.8480 C   0  0  0  0  0  0  0  0  0  0  0  0
   52.0940   29.6350   42.5980 N   0  0  0  0  0  0  0  0  0  0  0  0
   52.6170   29.8760   41.3830 C   0  0  0  0  0  0  0  0  0  0  0  0
   53.5170   29.1980   40.5550 C   0  0  0  0  0  0  0  0  0  0  0  0
   53.8640   29.7010   39.3540 N   0  0  0  0  0  0  0  0  0  0  0  0
   53.3470   30.8860   38.9140 C   0  0  0  0  0  0  0  0  0  0  0  0
   52.4640   31.5910   39.6810 N   0  0  0  0  0  0  0  0  0  0  0  0
   52.1400   31.0640   40.8690 C   0  0  0  0  0  0  0  0  0  0  0  0
   54.0230   27.9650   41.0680 N   0  0  0  0  0  0  0  0  0  0  0  0
   46.8204   33.5462   41.4225 H   0  0  0  0  0  0  0  0  0  0  0  0
   45.9895   35.0814   40.9280 H   0  0  0  0  0  0  0  0  0  0  0  0
   43.8665   36.6307   44.7376 H   0  0  0  0  0  0  0  0  0  0  0  0
   44.8986   36.4645   42.4650 H   0  0  0  0  0  0  0  0  0  0  0  0
   45.0859   32.2184   49.4922 H   0  0  0  0  0  0  0  0  0  0  0  0
   46.8679   30.5579   49.0847 H   0  0  0  0  0  0  0  0  0  0  0  0
   48.1316   30.4280   46.9633 H   0  0  0  0  0  0  0  0  0  0  0  0
   43.8450   34.1037   48.5211 H   0  0  0  0  0  0  0  0  0  0  0  0
   44.1795   34.6934   46.8709 H   0  0  0  0  0  0  0  0  0  0  0  0
   48.1102   35.7859   40.5956 H   0  0  0  0  0  0  0  0  0  0  0  0
   48.0217   36.0885   42.3816 H   0  0  0  0  0  0  0  0  0  0  0  0
   50.6754   30.8290   43.7615 H   0  0  0  0  0  0  0  0  0  0  0  0
   53.6453   31.2772   37.9302 H   0  0  0  0  0  0  0  0  0  0  0  0
   54.6905   27.4113   40.5124 H   0  0  0  0  0  0  0  0  0  0  0  0
   53.7205   27.6295   41.9936 H   0  0  0  0  0  0  0  0  0  0  0  0
  1  4  1  0
  2  7  2  0
  3  2  1  0
  4  3  2  0
  4  5  1  0
  5  6  2  0
  6  7  1  0
  6  8  1  0
  8  9  2  0
  9 14  1  0
  9 10  1  0
 11 10  2  0
 12 11  1  0
 13  8  1  0
 13 12  2  0
 15  1  1  0
 15 16  1  0
 16 17  2  0
 17 18  1  0
 19 18  1  0
 20 16  1  0
 20 19  2  0
 21 19  1  0
 21 22  1  0
 23 22  2  0
 24 23  1  0
 25 30  1  0
 25 24  2  0
 26 25  1  0
 27 26  2  0
 27 28  1  0
 28 29  2  0
 29 24  1  0
 29 21  1  0
  1 31  1  0
  1 32  1  0
  2 33  1  0
  3 34  1  0
 10 35  1  0
 11 36  1  0
 12 37  1  0
 14 38  1  0
 14 39  1  0
 15 40  1  0
 15 41  1  0
 22 42  1  0
 27 43  1  0
 30 44  1  0
 30 45  1  0
M  END
>  <Score>  (1) 
-7.6992

$$$$
