
     RDKit          3D

 55 60  0  0  1  0  0  0  0  0999 V2000
   47.6070   35.4270   41.8990 C   0  0  0  0  0  0  0  0  0  0  0  0
   48.9340   34.9870   41.4900 C   0  0  1  0  0  0  0  0  0  0  0  0
   50.0400   34.9800   42.5220 C   0  0  0  0  0  0  0  0  0  0  0  0
   49.5850   33.7200   41.9150 C   0  0  1  0  0  0  0  0  0  0  0  0
   49.0750   32.7960   42.7750 O   0  0  0  0  0  0  0  0  0  0  0  0
   49.0830   31.5140   42.2900 C   0  0  0  0  0  0  0  0  0  0  0  0
   50.4050   30.9730   42.1320 N   0  0  0  0  0  0  0  0  0  0  0  0
   51.0000   30.2370   43.1060 C   0  0  0  0  0  0  0  0  0  0  0  0
   52.2630   29.8510   42.7600 N   0  0  0  0  0  0  0  0  0  0  0  0
   52.4920   30.3490   41.5300 C   0  0  0  0  0  0  0  0  0  0  0  0
   53.5610   30.2880   40.6590 C   0  0  0  0  0  0  0  0  0  0  0  0
   54.6150   29.6560   41.0110 O   0  0  0  0  0  0  0  0  0  0  0  0
   53.5430   30.8690   39.4460 N   0  0  0  0  0  0  0  0  0  0  0  0
   52.3900   31.5090   39.1700 C   0  0  0  0  0  0  0  0  0  0  0  0
   52.3080   32.1520   37.8820 N   0  0  0  0  0  0  0  0  0  0  0  0
   51.3200   31.6030   39.9740 N   0  0  0  0  0  0  0  0  0  0  0  0
   51.3440   31.0240   41.1790 C   0  0  0  0  0  0  0  0  0  0  0  0
   46.6070   34.3070   42.0960 C   0  0  0  0  0  0  0  0  0  0  0  0
   44.4490   35.7510   44.8170 C   0  0  0  0  0  0  0  0  0  0  0  0
   45.0360   35.5820   43.5470 C   0  0  0  0  0  0  0  0  0  0  0  0
   45.9260   34.5540   43.3950 C   0  0  0  0  0  0  0  0  0  0  0  0
   46.1850   33.7780   44.4460 N   0  0  0  0  0  0  0  0  0  0  0  0
   45.6200   33.9490   45.6540 C   0  0  0  0  0  0  0  0  0  0  0  0
   44.7480   34.9360   45.8480 N   0  0  0  0  0  0  0  0  0  0  0  0
   45.9920   33.0300   46.7230 C   0  0  0  0  0  0  0  0  0  0  0  0
   45.1120   32.7930   47.7610 C   0  0  0  0  0  0  0  0  0  0  0  0
   45.6920   31.8950   48.6410 C   0  0  0  0  0  0  0  0  0  0  0  0
   46.8920   31.6170   48.1150 N   0  0  0  0  0  0  0  0  0  0  0  0
   47.0790   32.2850   46.9770 N   0  0  0  0  0  0  0  0  0  0  0  0
   49.2800   29.0520   48.8960 N   0  0  0  0  0  0  0  0  0  0  0  0
   48.1650   29.4450   48.2790 N   0  0  0  0  0  0  0  0  0  0  0  0
   47.9560   30.7640   48.5550 C   0  0  0  0  0  0  0  0  0  0  0  0
   48.9750   31.1790   49.3620 C   0  0  0  0  0  0  0  0  0  0  0  0
   49.7750   30.0920   49.5520 C   0  0  0  0  0  0  0  0  0  0  0  0
   47.2161   36.1045   41.1255 H   0  0  0  0  0  0  0  0  0  0  0  0
   47.7270   35.9149   42.8775 H   0  0  0  0  0  0  0  0  0  0  0  0
   48.7299   35.4259   40.5022 H   0  0  0  0  0  0  0  0  0  0  0  0
   51.0307   35.3863   42.2702 H   0  0  0  0  0  0  0  0  0  0  0  0
   50.1486   35.3550   43.5504 H   0  0  0  0  0  0  0  0  0  0  0  0
   49.9876   32.8956   41.3081 H   0  0  0  0  0  0  0  0  0  0  0  0
   48.5250   30.8732   42.9885 H   0  0  0  0  0  0  0  0  0  0  0  0
   48.6212   31.5409   41.2920 H   0  0  0  0  0  0  0  0  0  0  0  0
   50.5202   29.9816   44.0623 H   0  0  0  0  0  0  0  0  0  0  0  0
   54.3360   30.8284   38.7899 H   0  0  0  0  0  0  0  0  0  0  0  0
   51.4521   32.6576   37.6124 H   0  0  0  0  0  0  0  0  0  0  0  0
   53.1053   32.1057   37.2316 H   0  0  0  0  0  0  0  0  0  0  0  0
   45.8717   34.3091   41.2778 H   0  0  0  0  0  0  0  0  0  0  0  0
   47.1094   33.3284   42.0965 H   0  0  0  0  0  0  0  0  0  0  0  0
   43.7290   36.5683   44.9707 H   0  0  0  0  0  0  0  0  0  0  0  0
   44.7881   36.2511   42.7098 H   0  0  0  0  0  0  0  0  0  0  0  0
   44.1145   33.2436   47.8705 H   0  0  0  0  0  0  0  0  0  0  0  0
   45.2606   31.4962   49.5709 H   0  0  0  0  0  0  0  0  0  0  0  0
   49.6857   28.1057   48.8677 H   0  0  0  0  0  0  0  0  0  0  0  0
   49.1213   32.1876   49.7758 H   0  0  0  0  0  0  0  0  0  0  0  0
   50.6928   30.0797   50.1582 H   0  0  0  0  0  0  0  0  0  0  0  0
  1 18  1  0
  2  1  1  0
  2  4  1  0
  2  3  1  0
  4  3  1  0
  4  5  1  0
  6  5  1  0
  7  6  1  0
  7  8  1  0
  9  8  2  0
 10  9  1  0
 11 12  2  0
 11 10  1  0
 13 11  1  0
 14 13  1  0
 14 16  2  0
 15 14  1  0
 16 17  1  0
 17 10  2  0
 17  7  1  0
 18 21  1  0
 19 24  2  0
 20 19  1  0
 21 20  2  0
 21 22  1  0
 22 23  2  0
 23 24  1  0
 23 25  1  0
 25 29  2  0
 25 26  1  0
 26 27  2  0
 28 32  1  0
 28 27  1  0
 29 28  1  0
 30 34  1  0
 31 32  2  0
 31 30  1  0
 32 33  1  0
 33 34  2  0
  1 35  1  0
  1 36  1  0
  2 37  1  6
  3 38  1  0
  3 39  1  0
  4 40  1  6
  6 41  1  0
  6 42  1  0
  8 43  1  0
 13 44  1  0
 15 45  1  0
 15 46  1  0
 18 47  1  0
 18 48  1  0
 19 49  1  0
 20 50  1  0
 26 51  1  0
 27 52  1  0
 30 53  1  0
 33 54  1  0
 34 55  1  0
M  END
>  <Score>  (1) 
-7.41306

$$$$
