
     RDKit          3D

 48 52  0  0  0  0  0  0  0  0999 V2000
   44.5250   35.6270   44.5260 C   0  0  0  0  0  0  0  0  0  0  0  0
   45.2380   35.6610   43.3000 C   0  0  0  0  0  0  0  0  0  0  0  0
   46.3120   34.8140   43.1590 C   0  0  0  0  0  0  0  0  0  0  0  0
   46.6240   34.0000   44.1980 N   0  0  0  0  0  0  0  0  0  0  0  0
   45.9330   33.9790   45.3630 C   0  0  0  0  0  0  0  0  0  0  0  0
   44.8750   34.8020   45.5230 N   0  0  0  0  0  0  0  0  0  0  0  0
   47.0740   34.8060   41.9350 C   0  0  0  0  0  0  0  0  0  0  0  0
   48.2730   35.5060   41.8980 C   0  0  0  0  0  0  0  0  0  0  0  0
   48.9560   35.4670   40.7220 C   0  0  0  0  0  0  0  0  0  0  0  0
   48.4900   34.7890   39.6580 N   0  0  0  0  0  0  0  0  0  0  0  0
   47.3220   34.1190   39.7230 C   0  0  0  0  0  0  0  0  0  0  0  0
   46.6130   34.1340   40.8780 N   0  0  0  0  0  0  0  0  0  0  0  0
   46.8840   33.4230   38.5660 N   0  0  0  0  0  0  0  0  0  0  0  0
   46.0280   32.3940   38.8130 C   0  0  0  0  0  0  0  0  0  0  0  0
   45.5220   31.6240   37.7540 C   0  0  0  0  0  0  0  0  0  0  0  0
   45.9590   31.9950   36.5030 C   0  0  0  0  0  0  0  0  0  0  0  0
   45.4770   31.2710   35.5750 O   0  0  0  0  0  0  0  0  0  0  0  0
   46.7950   32.9980   36.2520 N   0  0  0  0  0  0  0  0  0  0  0  0
   47.2500   33.7050   37.3130 C   0  0  0  0  0  0  0  0  0  0  0  0
   48.0470   34.6680   37.1320 O   0  0  0  0  0  0  0  0  0  0  0  0
   46.3630   33.0510   46.4310 C   0  0  0  0  0  0  0  0  0  0  0  0
   45.2700   32.8600   47.4800 C   0  0  0  0  0  0  0  0  0  0  0  0
   45.2130   31.4760   47.9620 C   0  0  0  0  0  0  0  0  0  0  0  0
   45.2330   31.1170   49.3140 C   0  0  0  0  0  0  0  0  0  0  0  0
   45.1790   29.8070   49.5090 N   0  0  0  0  0  0  0  0  0  0  0  0
   45.1200   29.2580   48.2640 C   0  0  0  0  0  0  0  0  0  0  0  0
   45.0480   27.9270   47.9000 C   0  0  0  0  0  0  0  0  0  0  0  0
   44.9970   27.6520   46.5450 C   0  0  0  0  0  0  0  0  0  0  0  0
   45.0170   28.6420   45.5870 C   0  0  0  0  0  0  0  0  0  0  0  0
   45.0900   29.9790   45.9810 C   0  0  0  0  0  0  0  0  0  0  0  0
   45.1400   30.2570   47.3260 C   0  0  0  0  0  0  0  0  0  0  0  0
   43.6620   36.2954   44.6622 H   0  0  0  0  0  0  0  0  0  0  0  0
   44.9415   36.3424   42.4890 H   0  0  0  0  0  0  0  0  0  0  0  0
   48.6492   36.0606   42.7703 H   0  0  0  0  0  0  0  0  0  0  0  0
   49.9129   36.0032   40.6394 H   0  0  0  0  0  0  0  0  0  0  0  0
   45.7314   32.1648   39.8472 H   0  0  0  0  0  0  0  0  0  0  0  0
   44.8274   30.7859   37.9124 H   0  0  0  0  0  0  0  0  0  0  0  0
   47.0843   33.2275   35.2905 H   0  0  0  0  0  0  0  0  0  0  0  0
   46.6020   32.0756   45.9821 H   0  0  0  0  0  0  0  0  0  0  0  0
   47.2459   33.4808   46.9268 H   0  0  0  0  0  0  0  0  0  0  0  0
   45.4739   33.5255   48.3318 H   0  0  0  0  0  0  0  0  0  0  0  0
   44.3030   33.0995   47.0135 H   0  0  0  0  0  0  0  0  0  0  0  0
   45.2880   31.8488   50.1334 H   0  0  0  0  0  0  0  0  0  0  0  0
   45.1812   29.3096   50.4110 H   0  0  0  0  0  0  0  0  0  0  0  0
   45.0320   27.1242   48.6518 H   0  0  0  0  0  0  0  0  0  0  0  0
   44.9382   26.6027   46.2201 H   0  0  0  0  0  0  0  0  0  0  0  0
   44.9757   28.3806   44.5193 H   0  0  0  0  0  0  0  0  0  0  0  0
   45.1070   30.7878   45.2356 H   0  0  0  0  0  0  0  0  0  0  0  0
  1  6  2  0
  2  1  1  0
  3  2  2  0
  3  4  1  0
  4  5  2  0
  5  6  1  0
  5 21  1  0
  7  3  1  0
  8  7  2  0
  9  8  1  0
 10 11  1  0
 10  9  2  0
 11 12  2  0
 12  7  1  0
 13 14  1  0
 13 11  1  0
 15 14  2  0
 16 15  1  0
 17 16  2  0
 18 16  1  0
 18 19  1  0
 19 13  1  0
 20 19  2  0
 21 22  1  0
 22 23  1  0
 23 24  2  0
 24 25  1  0
 26 25  1  0
 27 26  2  0
 28 27  1  0
 29 30  1  0
 29 28  2  0
 30 31  2  0
 31 23  1  0
 31 26  1  0
  1 32  1  0
  2 33  1  0
  8 34  1  0
  9 35  1  0
 14 36  1  0
 15 37  1  0
 18 38  1  0
 21 39  1  0
 21 40  1  0
 22 41  1  0
 22 42  1  0
 24 43  1  0
 25 44  1  0
 27 45  1  0
 28 46  1  0
 29 47  1  0
 30 48  1  0
M  END
>  <Score>  (1) 
-7.79705

$$$$
