
     RDKit          3D

 32 35  0  0  0  0  0  0  0  0999 V2000
   44.4750   36.0130   44.7740 C   0  0  0  0  0  0  0  0  0  0  0  0
   45.1290   35.9940   43.5320 C   0  0  0  0  0  0  0  0  0  0  0  0
   46.0130   34.9340   43.2720 C   0  0  0  0  0  0  0  0  0  0  0  0
   46.2050   33.9640   44.2330 N   0  0  0  0  0  0  0  0  0  0  0  0
   45.5380   34.0460   45.4140 C   0  0  0  0  0  0  0  0  0  0  0  0
   44.6870   35.0530   45.6810 N   0  0  0  0  0  0  0  0  0  0  0  0
   45.7070   33.0640   46.4340 N   0  0  0  0  0  0  0  0  0  0  0  0
   45.1190   33.1510   47.6500 C   0  0  0  0  0  0  0  0  0  0  0  0
   45.4650   32.0740   48.4050 N   0  0  0  0  0  0  0  0  0  0  0  0
   46.2800   31.2940   47.6620 C   0  0  0  0  0  0  0  0  0  0  0  0
   46.9550   30.1010   47.8320 C   0  0  0  0  0  0  0  0  0  0  0  0
   47.7200   29.5840   46.8270 N   0  0  0  0  0  0  0  0  0  0  0  0
   47.8180   30.2520   45.6480 C   0  0  0  0  0  0  0  0  0  0  0  0
   47.1790   31.4310   45.4180 N   0  0  0  0  0  0  0  0  0  0  0  0
   46.4300   31.9130   46.4350 C   0  0  0  0  0  0  0  0  0  0  0  0
   46.7450   34.7890   42.0530 N   0  0  0  0  0  0  0  0  0  0  0  0
   47.9950   35.3350   41.9420 C   0  0  0  0  0  0  0  0  0  0  0  0
   48.6620   35.1650   40.7340 C   0  0  0  0  0  0  0  0  0  0  0  0
   48.0280   34.4660   39.7380 C   0  0  0  0  0  0  0  0  0  0  0  0
   48.6420   34.2500   38.4740 N   0  0  0  0  0  0  0  0  0  0  0  0
   46.7940   33.9430   39.8870 N   0  0  0  0  0  0  0  0  0  0  0  0
   46.1250   34.1020   41.0700 C   0  0  0  0  0  0  0  0  0  0  0  0
   44.9750   33.6270   41.2390 O   0  0  0  0  0  0  0  0  0  0  0  0
   43.7767   36.8309   45.0052 H   0  0  0  0  0  0  0  0  0  0  0  0
   44.9547   36.7838   42.7865 H   0  0  0  0  0  0  0  0  0  0  0  0
   44.4608   33.9691   47.9780 H   0  0  0  0  0  0  0  0  0  0  0  0
   46.8751   29.5619   48.7875 H   0  0  0  0  0  0  0  0  0  0  0  0
   48.4386   29.8226   44.8476 H   0  0  0  0  0  0  0  0  0  0  0  0
   48.4539   35.8866   42.7757 H   0  0  0  0  0  0  0  0  0  0  0  0
   49.6695   35.5792   40.5811 H   0  0  0  0  0  0  0  0  0  0  0  0
   49.5848   34.6212   38.2893 H   0  0  0  0  0  0  0  0  0  0  0  0
   48.1440   33.7223   37.7430 H   0  0  0  0  0  0  0  0  0  0  0  0
  1  6  2  0
  2  1  1  0
  3  2  2  0
  3  4  1  0
  4  5  2  0
  5  6  1  0
  5  7  1  0
  7 15  1  0
  7  8  1  0
  8  9  2  0
 10 11  2  0
 10  9  1  0
 12 11  1  0
 13 12  2  0
 14 13  1  0
 14 15  2  0
 15 10  1  0
 16  3  1  0
 17 16  1  0
 18 17  2  0
 19 21  2  0
 19 18  1  0
 20 19  1  0
 21 22  1  0
 22 23  2  0
 22 16  1  0
  1 24  1  0
  2 25  1  0
  8 26  1  0
 11 27  1  0
 13 28  1  0
 17 29  1  0
 18 30  1  0
 20 31  1  0
 20 32  1  0
M  END
>  <Score>  (1) 
-7.19402

$$$$
