
     RDKit          3D

 41 46  0  0  1  0  0  0  0  0999 V2000
   44.5960   36.1350   44.2040 C   0  0  0  0  0  0  0  0  0  0  0  0
   45.3780   35.9830   43.0680 C   0  0  0  0  0  0  0  0  0  0  0  0
   46.2460   34.9130   43.0310 C   0  0  0  0  0  0  0  0  0  0  0  0
   46.3170   34.0520   44.0790 N   0  0  0  0  0  0  0  0  0  0  0  0
   45.5230   34.2410   45.1830 C   0  0  0  0  0  0  0  0  0  0  0  0
   44.6600   35.2810   45.2540 N   0  0  0  0  0  0  0  0  0  0  0  0
   45.6570   33.2750   46.2250 N   0  0  0  0  0  0  0  0  0  0  0  0
   45.1090   33.2490   47.4500 C   0  0  0  0  0  0  0  0  0  0  0  0
   45.5190   32.1240   48.0820 N   0  0  0  0  0  0  0  0  0  0  0  0
   46.3250   31.4270   47.2730 C   0  0  0  0  0  0  0  0  0  0  0  0
   46.9980   30.2230   47.4380 C   0  0  0  0  0  0  0  0  0  0  0  0
   47.7360   29.8060   46.4010 N   0  0  0  0  0  0  0  0  0  0  0  0
   47.8150   30.5320   45.2520 C   0  0  0  0  0  0  0  0  0  0  0  0
   47.1700   31.7030   45.0680 N   0  0  0  0  0  0  0  0  0  0  0  0
   46.4220   32.1490   46.0890 C   0  0  0  0  0  0  0  0  0  0  0  0
   47.1210   34.6530   41.8400 C   0  0  1  0  0  0  0  0  0  0  0  0
   48.4570   35.3840   41.7940 C   0  0  0  0  0  0  0  0  0  0  0  0
   48.3360   33.8760   42.0290 C   0  0  2  0  0  0  0  0  0  0  0  0
   48.9370   33.0970   40.9650 N   0  0  0  0  0  0  0  0  0  0  0  0
   50.0220   32.3050   41.0200 C   0  0  0  0  0  0  0  0  0  0  0  0
   50.2330   31.7630   39.7900 N   0  0  0  0  0  0  0  0  0  0  0  0
   49.2810   32.2020   38.9300 C   0  0  0  0  0  0  0  0  0  0  0  0
   48.9270   32.0510   37.6030 C   0  0  0  0  0  0  0  0  0  0  0  0
   47.8520   32.6920   37.0950 N   0  0  0  0  0  0  0  0  0  0  0  0
   47.0820   33.5000   37.8400 C   0  0  0  0  0  0  0  0  0  0  0  0
   47.4320   33.6420   39.1290 N   0  0  0  0  0  0  0  0  0  0  0  0
   48.4880   33.0330   39.6960 C   0  0  0  0  0  0  0  0  0  0  0  0
   49.7540   31.1920   36.8260 N   0  0  0  0  0  0  0  0  0  0  0  0
   43.8964   36.9824   44.2542 H   0  0  0  0  0  0  0  0  0  0  0  0
   45.3078   36.6900   42.2283 H   0  0  0  0  0  0  0  0  0  0  0  0
   44.4390   34.0136   47.8701 H   0  0  0  0  0  0  0  0  0  0  0  0
   46.9285   29.6432   48.3702 H   0  0  0  0  0  0  0  0  0  0  0  0
   48.4365   30.1441   44.4315 H   0  0  0  0  0  0  0  0  0  0  0  0
   46.2613   34.5625   41.1597 H   0  0  0  0  0  0  0  0  0  0  0  0
   48.8493   35.7712   40.8420 H   0  0  0  0  0  0  0  0  0  0  0  0
   48.9160   36.2364   42.3162 H   0  0  0  0  0  0  0  0  0  0  0  0
   48.5943   33.1337   42.7986 H   0  0  0  0  0  0  0  0  0  0  0  0
   50.6382   32.1247   41.9132 H   0  0  0  0  0  0  0  0  0  0  0  0
   46.2094   34.0192   37.4170 H   0  0  0  0  0  0  0  0  0  0  0  0
   49.5436   31.0374   35.8297 H   0  0  0  0  0  0  0  0  0  0  0  0
   50.5629   30.7250   37.2600 H   0  0  0  0  0  0  0  0  0  0  0  0
  1  6  2  0
  2  1  1  0
  3  2  2  0
  3  4  1  0
  4  5  2  0
  5  6  1  0
  5  7  1  0
  7  8  1  0
  8  9  2  0
 10 11  2  0
 10  9  1  0
 12 11  1  0
 13 12  2  0
 14 13  1  0
 14 15  2  0
 15  7  1  0
 15 10  1  0
 16 18  1  0
 16  3  1  0
 17 16  1  0
 17 18  1  0
 19 20  1  0
 19 18  1  0
 21 20  2  0
 22 27  2  0
 22 21  1  0
 23 22  1  0
 24 23  2  0
 24 25  1  0
 25 26  2  0
 26 27  1  0
 27 19  1  0
 28 23  1  0
  1 29  1  0
  2 30  1  0
  8 31  1  0
 11 32  1  0
 13 33  1  0
 16 34  1  6
 17 35  1  0
 17 36  1  0
 18 37  1  1
 20 38  1  0
 25 39  1  0
 28 40  1  0
 28 41  1  0
M  END
>  <Score>  (1) 
-7.08764

$$$$
