
     RDKit          3D

 50 55  0  0  0  0  0  0  0  0999 V2000
   44.4260   35.9890   44.4920 C   0  0  0  0  0  0  0  0  0  0  0  0
   45.0580   36.0620   43.2350 C   0  0  0  0  0  0  0  0  0  0  0  0
   46.0520   35.0970   42.9380 C   0  0  0  0  0  0  0  0  0  0  0  0
   46.3450   34.1660   43.8610 N   0  0  0  0  0  0  0  0  0  0  0  0
   45.6990   34.1310   45.0860 C   0  0  0  0  0  0  0  0  0  0  0  0
   44.7590   35.0450   45.3650 N   0  0  0  0  0  0  0  0  0  0  0  0
   46.1150   33.0840   45.9640 N   0  0  0  0  0  0  0  0  0  0  0  0
   45.8240   32.9160   47.2740 C   0  0  0  0  0  0  0  0  0  0  0  0
   46.4340   31.7950   47.6830 N   0  0  0  0  0  0  0  0  0  0  0  0
   47.1080   31.2360   46.6820 C   0  0  0  0  0  0  0  0  0  0  0  0
   47.8940   30.0780   46.5950 C   0  0  0  0  0  0  0  0  0  0  0  0
   48.4330   29.8210   45.3910 N   0  0  0  0  0  0  0  0  0  0  0  0
   48.2210   30.6360   44.3390 C   0  0  0  0  0  0  0  0  0  0  0  0
   47.4620   31.7640   44.3990 N   0  0  0  0  0  0  0  0  0  0  0  0
   46.9020   32.0580   45.5950 C   0  0  0  0  0  0  0  0  0  0  0  0
   48.8380   30.3240   42.9980 C   0  0  0  0  0  0  0  0  0  0  0  0
   48.6960   31.4120   42.1610 F   0  0  0  0  0  0  0  0  0  0  0  0
   48.2080   29.2340   42.4320 F   0  0  0  0  0  0  0  0  0  0  0  0
   50.1760   30.1200   43.1500 F   0  0  0  0  0  0  0  0  0  0  0  0
   48.1150   29.1950   47.7590 C   0  0  0  0  0  0  0  0  0  0  0  0
   49.3990   29.5980   48.3940 C   0  0  0  0  0  0  0  0  0  0  0  0
   50.6660   29.0880   48.3280 C   0  0  0  0  0  0  0  0  0  0  0  0
   51.4780   29.8890   49.1470 C   0  0  0  0  0  0  0  0  0  0  0  0
   50.6920   30.8510   49.6800 N   0  0  0  0  0  0  0  0  0  0  0  0
   49.4720   30.6470   49.2140 N   0  0  0  0  0  0  0  0  0  0  0  0
   51.1200   31.8760   50.5710 C   0  0  0  0  0  0  0  0  0  0  0  0
   51.2040   33.1400   50.0200 C   0  0  0  0  0  0  0  0  0  0  0  0
   51.6110   34.2250   50.7920 C   0  0  0  0  0  0  0  0  0  0  0  0
   51.9330   34.0350   52.1100 C   0  0  0  0  0  0  0  0  0  0  0  0
   51.8570   32.7910   52.6700 C   0  0  0  0  0  0  0  0  0  0  0  0
   52.1740   32.5470   54.0070 C   0  0  0  0  0  0  0  0  0  0  0  0
   52.0780   31.2610   54.5250 C   0  0  0  0  0  0  0  0  0  0  0  0
   51.6740   30.2180   53.7380 C   0  0  0  0  0  0  0  0  0  0  0  0
   51.3560   30.4460   52.4110 C   0  0  0  0  0  0  0  0  0  0  0  0
   51.4520   31.7240   51.9010 C   0  0  0  0  0  0  0  0  0  0  0  0
   43.6483   36.7218   44.7533 H   0  0  0  0  0  0  0  0  0  0  0  0
   44.7886   36.8424   42.5081 H   0  0  0  0  0  0  0  0  0  0  0  0
   46.5740   35.1099   41.9698 H   0  0  0  0  0  0  0  0  0  0  0  0
   45.2001   33.5789   47.8915 H   0  0  0  0  0  0  0  0  0  0  0  0
   47.2898   29.3083   48.4774 H   0  0  0  0  0  0  0  0  0  0  0  0
   48.1550   28.1423   47.4424 H   0  0  0  0  0  0  0  0  0  0  0  0
   50.9886   28.2141   47.7430 H   0  0  0  0  0  0  0  0  0  0  0  0
   52.5559   29.7578   49.3226 H   0  0  0  0  0  0  0  0  0  0  0  0
   50.9469   33.2908   48.9612 H   0  0  0  0  0  0  0  0  0  0  0  0
   51.6736   35.2287   50.3463 H   0  0  0  0  0  0  0  0  0  0  0  0
   52.2551   34.8904   52.7220 H   0  0  0  0  0  0  0  0  0  0  0  0
   52.5009   33.3752   54.6529 H   0  0  0  0  0  0  0  0  0  0  0  0
   52.3299   31.0799   55.5803 H   0  0  0  0  0  0  0  0  0  0  0  0
   51.6023   29.2037   54.1577 H   0  0  0  0  0  0  0  0  0  0  0  0
   51.0294   29.6153   51.7682 H   0  0  0  0  0  0  0  0  0  0  0  0
  1  6  2  0
  2  1  1  0
  3  2  2  0
  3  4  1  0
  4  5  2  0
  5  6  1  0
  5  7  1  0
  7  8  1  0
  8  9  2  0
 10  9  1  0
 11 10  2  0
 11 20  1  0
 12 11  1  0
 13 14  1  0
 13 12  2  0
 14 15  2  0
 15  7  1  0
 15 10  1  0
 16 19  1  0
 16 13  1  0
 17 16  1  0
 18 16  1  0
 20 21  1  0
 21 25  2  0
 22 21  1  0
 22 23  2  0
 23 24  1  0
 24 26  1  0
 25 24  1  0
 26 35  1  0
 27 26  2  0
 27 28  1  0
 28 29  2  0
 29 30  1  0
 30 31  2  0
 31 32  1  0
 33 32  2  0
 34 33  1  0
 35 34  2  0
 35 30  1  0
  1 36  1  0
  2 37  1  0
  3 38  1  0
  8 39  1  0
 20 40  1  0
 20 41  1  0
 22 42  1  0
 23 43  1  0
 27 44  1  0
 28 45  1  0
 29 46  1  0
 31 47  1  0
 32 48  1  0
 33 49  1  0
 34 50  1  0
M  END
>  <Score>  (1) 
-7.572

$$$$
