
     RDKit          3D

 42 45  0  0  0  0  0  0  0  0999 V2000
   44.5040   35.8690   44.9040 C   0  0  0  0  0  0  0  0  0  0  0  0
   45.0470   35.8450   43.6560 C   0  0  0  0  0  0  0  0  0  0  0  0
   45.9200   34.8660   43.1800 C   0  0  0  0  0  0  0  0  0  0  0  0
   46.1580   33.9400   44.1700 N   0  0  0  0  0  0  0  0  0  0  0  0
   45.6460   33.9350   45.3950 C   0  0  0  0  0  0  0  0  0  0  0  0
   44.8210   34.9050   45.7390 N   0  0  0  0  0  0  0  0  0  0  0  0
   45.9960   32.8820   46.2940 N   0  0  0  0  0  0  0  0  0  0  0  0
   45.3100   32.7590   47.4540 C   0  0  0  0  0  0  0  0  0  0  0  0
   45.6790   31.7360   48.3100 C   0  0  0  0  0  0  0  0  0  0  0  0
   46.7320   30.9000   47.9210 C   0  0  0  0  0  0  0  0  0  0  0  0
   47.0830   29.9600   48.6990 O   0  0  0  0  0  0  0  0  0  0  0  0
   47.3720   31.0760   46.7530 N   0  0  0  0  0  0  0  0  0  0  0  0
   46.9950   32.0700   45.9460 C   0  0  0  0  0  0  0  0  0  0  0  0
   47.6290   32.1850   44.8620 O   0  0  0  0  0  0  0  0  0  0  0  0
   46.5820   34.7460   41.9600 C   0  0  0  0  0  0  0  0  0  0  0  0
   47.8290   35.3310   41.8860 C   0  0  0  0  0  0  0  0  0  0  0  0
   48.6570   35.2790   40.7690 C   0  0  0  0  0  0  0  0  0  0  0  0
   48.2060   34.6040   39.6650 C   0  0  0  0  0  0  0  0  0  0  0  0
   46.9690   34.0050   39.6900 C   0  0  0  0  0  0  0  0  0  0  0  0
   46.5340   33.3110   38.5890 C   0  0  0  0  0  0  0  0  0  0  0  0
   45.3070   32.6740   38.5780 C   0  0  0  0  0  0  0  0  0  0  0  0
   44.5590   32.7990   39.7560 C   0  0  0  0  0  0  0  0  0  0  0  0
   45.0070   33.4890   40.8190 C   0  0  0  0  0  0  0  0  0  0  0  0
   46.2080   34.0970   40.8210 C   0  0  0  0  0  0  0  0  0  0  0  0
   43.9630   33.4220   41.8670 C   0  0  0  0  0  0  0  0  0  0  0  0
   42.6930   33.3180   41.5880 F   0  0  0  0  0  0  0  0  0  0  0  0
   44.4830   32.9190   43.0540 F   0  0  0  0  0  0  0  0  0  0  0  0
   43.7500   34.6700   42.4790 F   0  0  0  0  0  0  0  0  0  0  0  0
   44.9950   31.4840   49.5780 C   0  0  0  0  0  0  0  0  0  0  0  0
   43.8179   36.6741   45.2057 H   0  0  0  0  0  0  0  0  0  0  0  0
   44.7766   36.6607   42.9694 H   0  0  0  0  0  0  0  0  0  0  0  0
   44.4896   33.4466   47.7072 H   0  0  0  0  0  0  0  0  0  0  0  0
   48.1449   30.4509   46.4833 H   0  0  0  0  0  0  0  0  0  0  0  0
   48.1934   35.8753   42.7697 H   0  0  0  0  0  0  0  0  0  0  0  0
   49.6438   35.7650   40.7720 H   0  0  0  0  0  0  0  0  0  0  0  0
   48.8314   34.5417   38.7623 H   0  0  0  0  0  0  0  0  0  0  0  0
   47.1750   33.2604   37.6965 H   0  0  0  0  0  0  0  0  0  0  0  0
   44.9440   32.1094   37.7066 H   0  0  0  0  0  0  0  0  0  0  0  0
   43.5722   32.3164   39.8129 H   0  0  0  0  0  0  0  0  0  0  0  0
   45.6672   31.7317   50.4128 H   0  0  0  0  0  0  0  0  0  0  0  0
   44.0912   32.1082   49.6374 H   0  0  0  0  0  0  0  0  0  0  0  0
   44.7122   30.4226   49.6374 H   0  0  0  0  0  0  0  0  0  0  0  0
  1  6  2  0
  2  1  1  0
  3  2  2  0
  3  4  1  0
  4  5  2  0
  5  6  1  0
  5  7  1  0
  7  8  1  0
  8  9  2  0
  9 29  1  0
 10  9  1  0
 10 11  2  0
 12 10  1  0
 13  7  1  0
 13 12  1  0
 14 13  2  0
 15  3  1  0
 16 15  2  0
 17 16  1  0
 18 19  1  0
 18 17  2  0
 19 24  2  0
 20 19  1  0
 21 20  2  0
 21 22  1  0
 22 23  2  0
 23 24  1  0
 23 25  1  0
 24 15  1  0
 25 28  1  0
 25 27  1  0
 26 25  1  0
  1 30  1  0
  2 31  1  0
  8 32  1  0
 12 33  1  0
 16 34  1  0
 17 35  1  0
 18 36  1  0
 20 37  1  0
 21 38  1  0
 22 39  1  0
 29 40  1  0
 29 41  1  0
 29 42  1  0
M  END
>  <Score>  (1) 
-8.34274

$$$$
