
     RDKit          3D

 31 32  0  0  0  0  0  0  0  0999 V2000
   44.5760   35.9640   44.4900 C   0  0  0  0  0  0  0  0  0  0  0  0
   45.3320   35.9370   43.2910 C   0  0  0  0  0  0  0  0  0  0  0  0
   46.1970   34.8850   43.1290 C   0  0  0  0  0  0  0  0  0  0  0  0
   46.3130   33.9110   44.0930 N   0  0  0  0  0  0  0  0  0  0  0  0
   45.5670   33.9780   45.2280 C   0  0  0  0  0  0  0  0  0  0  0  0
   44.7030   34.9980   45.4260 N   0  0  0  0  0  0  0  0  0  0  0  0
   45.7060   32.9600   46.2060 N   0  0  0  0  0  0  0  0  0  0  0  0
   44.9360   33.0140   47.3960 C   0  0  0  0  0  0  0  0  0  0  0  0
   44.5240   34.1600   47.8240 N   0  0  0  0  0  0  0  0  0  0  0  0
   44.6320   31.8000   48.0960 N   0  0  0  0  0  0  0  0  0  0  0  0
   43.9530   34.3110   48.6840 H   0  0  0  0  0  0  0  0  0  0  0  0
   46.9970   34.8130   41.9140 C   0  0  0  0  0  0  0  0  0  0  0  0
   48.2850   35.2960   41.7360 C   0  0  0  0  0  0  0  0  0  0  0  0
   48.5670   34.9640   40.4000 C   0  0  0  0  0  0  0  0  0  0  0  0
   47.4720   34.3230   39.8650 C   0  0  0  0  0  0  0  0  0  0  0  0
   46.5710   34.2680   40.8270 O   0  0  0  0  0  0  0  0  0  0  0  0
   47.3440   33.8260   38.5510 N   0  0  0  0  0  0  0  0  0  0  0  0
   48.3890   33.9040   37.6060 C   0  0  0  0  0  0  0  0  0  0  0  0
   49.1480   34.9830   37.6340 N   0  0  0  0  0  0  0  0  0  0  0  0
   48.5570   32.8040   36.6790 N   0  0  0  0  0  0  0  0  0  0  0  0
   49.9590   34.9550   36.9760 H   0  0  0  0  0  0  0  0  0  0  0  0
   43.8702   36.7900   44.6621 H   0  0  0  0  0  0  0  0  0  0  0  0
   45.2298   36.7221   42.5273 H   0  0  0  0  0  0  0  0  0  0  0  0
   46.3647   32.1832   46.0523 H   0  0  0  0  0  0  0  0  0  0  0  0
   44.0735   31.8303   48.9609 H   0  0  0  0  0  0  0  0  0  0  0  0
   44.9722   30.8977   47.7339 H   0  0  0  0  0  0  0  0  0  0  0  0
   48.9286   35.8128   42.4631 H   0  0  0  0  0  0  0  0  0  0  0  0
   49.5062   35.1802   39.8698 H   0  0  0  0  0  0  0  0  0  0  0  0
   46.4541   33.3897   38.2708 H   0  0  0  0  0  0  0  0  0  0  0  0
   47.9220   31.9941   36.7203 H   0  0  0  0  0  0  0  0  0  0  0  0
   49.3115   32.8316   35.9784 H   0  0  0  0  0  0  0  0  0  0  0  0
  1  6  2  0
  2  1  1  0
  3  2  2  0
  3  4  1  0
  4  5  2  0
  5  6  1  0
  5  7  1  0
  7  8  1  0
  8  9  2  0
  8 10  1  0
  9 11  1  0
 12  3  1  0
 13 12  2  0
 14 13  1  0
 15 14  2  0
 15 16  1  0
 16 12  1  0
 17 15  1  0
 18 19  2  0
 18 17  1  0
 20 18  1  0
 21 19  1  0
  1 22  1  0
  2 23  1  0
  7 24  1  0
 10 25  1  0
 10 26  1  0
 13 27  1  0
 14 28  1  0
 17 29  1  0
 20 30  1  0
 20 31  1  0
M  END
>  <Score>  (1) 
-7.43012

$$$$
