
     RDKit          3D

 40 44  0  0  0  0  0  0  0  0999 V2000
   44.5070   35.2060   41.8400 C   0  0  0  0  0  0  0  0  0  0  0  0
   43.2680   35.4910   41.3770 C   0  0  0  0  0  0  0  0  0  0  0  0
   43.1070   34.7960   40.2080 C   0  0  0  0  0  0  0  0  0  0  0  0
   44.2540   34.1300   40.0300 N   0  0  0  0  0  0  0  0  0  0  0  0
   45.1300   34.3470   40.9930 N   0  0  0  0  0  0  0  0  0  0  0  0
   44.6710   33.2350   38.9770 C   0  0  0  0  0  0  0  0  0  0  0  0
   43.7300   32.5680   38.2920 N   0  0  0  0  0  0  0  0  0  0  0  0
   44.0260   31.7130   37.2960 C   0  0  0  0  0  0  0  0  0  0  0  0
   45.3060   31.4920   36.9420 N   0  0  0  0  0  0  0  0  0  0  0  0
   46.2890   32.1410   37.6030 C   0  0  0  0  0  0  0  0  0  0  0  0
   47.6090   31.9340   37.2620 C   0  0  0  0  0  0  0  0  0  0  0  0
   48.6280   32.6040   37.9450 C   0  0  0  0  0  0  0  0  0  0  0  0
   48.2710   33.4790   38.9690 C   0  0  0  0  0  0  0  0  0  0  0  0
   46.9540   33.6900   39.3140 C   0  0  0  0  0  0  0  0  0  0  0  0
   45.9920   33.0170   38.6240 C   0  0  0  0  0  0  0  0  0  0  0  0
   45.0890   35.7470   43.0810 C   0  0  0  0  0  0  0  0  0  0  0  0
   45.2900   36.9640   43.1660 O   0  0  0  0  0  0  0  0  0  0  0  0
   44.7020   35.0410   45.3500 C   0  0  0  0  0  0  0  0  0  0  0  0
   45.4190   34.8870   44.1760 C   0  0  0  0  0  0  0  0  0  0  0  0
   46.4030   33.9300   44.1170 C   0  0  0  0  0  0  0  0  0  0  0  0
   46.6220   33.1760   45.2270 N   0  0  0  0  0  0  0  0  0  0  0  0
   45.9300   33.3210   46.3640 C   0  0  0  0  0  0  0  0  0  0  0  0
   44.9560   34.2670   46.4260 N   0  0  0  0  0  0  0  0  0  0  0  0
   46.2870   32.4500   47.4260 N   0  0  0  0  0  0  0  0  0  0  0  0
   47.3710   31.7940   47.7690 N   0  0  0  0  0  0  0  0  0  0  0  0
   47.1420   31.0940   48.9120 C   0  0  0  0  0  0  0  0  0  0  0  0
   45.8370   31.3470   49.2800 C   0  0  0  0  0  0  0  0  0  0  0  0
   45.3110   32.2150   48.3150 C   0  0  0  0  0  0  0  0  0  0  0  0
   42.5297   36.1552   41.8500 H   0  0  0  0  0  0  0  0  0  0  0  0
   42.2225   34.7871   39.5541 H   0  0  0  0  0  0  0  0  0  0  0  0
   43.2156   31.1904   36.7667 H   0  0  0  0  0  0  0  0  0  0  0  0
   47.8613   31.2381   36.4484 H   0  0  0  0  0  0  0  0  0  0  0  0
   49.6839   32.4447   37.6811 H   0  0  0  0  0  0  0  0  0  0  0  0
   49.0608   34.0149   39.5158 H   0  0  0  0  0  0  0  0  0  0  0  0
   46.6867   34.3834   40.1250 H   0  0  0  0  0  0  0  0  0  0  0  0
   43.9134   35.8057   45.4068 H   0  0  0  0  0  0  0  0  0  0  0  0
   46.9942   33.7788   43.2018 H   0  0  0  0  0  0  0  0  0  0  0  0
   47.8595   30.4498   49.4414 H   0  0  0  0  0  0  0  0  0  0  0  0
   45.3121   30.9455   50.1594 H   0  0  0  0  0  0  0  0  0  0  0  0
   44.2909   32.6260   48.2909 H   0  0  0  0  0  0  0  0  0  0  0  0
  1 16  1  0
  2  1  1  0
  3  2  2  0
  4  3  1  0
  4  5  1  0
  5  1  2  0
  6  4  1  0
  7  6  2  0
  8  7  1  0
  9  8  2  0
  9 10  1  0
 10 15  2  0
 11 10  1  0
 11 12  2  0
 12 13  1  0
 13 14  2  0
 15  6  1  0
 15 14  1  0
 16 17  2  0
 16 19  1  0
 18 23  2  0
 19 18  1  0
 20 19  2  0
 20 21  1  0
 21 22  2  0
 22 23  1  0
 22 24  1  0
 24 25  1  0
 24 28  1  0
 25 26  2  0
 26 27  1  0
 28 27  2  0
  2 29  1  0
  3 30  1  0
  8 31  1  0
 11 32  1  0
 12 33  1  0
 13 34  1  0
 14 35  1  0
 18 36  1  0
 20 37  1  0
 26 38  1  0
 27 39  1  0
 28 40  1  0
M  END
>  <Score>  (1) 
-7.13333

$$$$
