
     RDKit          3D

 48 52  0  0  0  0  0  0  0  0999 V2000
   46.4920   34.5940   41.9820 C   0  0  0  0  0  0  0  0  0  0  0  0
   47.7070   35.1780   41.7500 C   0  0  0  0  0  0  0  0  0  0  0  0
   48.4160   34.9930   40.5510 C   0  0  0  0  0  0  0  0  0  0  0  0
   47.8370   34.1670   39.5560 C   0  0  0  0  0  0  0  0  0  0  0  0
   46.6100   33.5750   39.7860 C   0  0  0  0  0  0  0  0  0  0  0  0
   45.9660   33.7970   40.9840 C   0  0  0  0  0  0  0  0  0  0  0  0
   44.6930   33.1720   41.2000 N   0  0  0  0  0  0  0  0  0  0  0  0
   44.4550   31.9360   41.6970 C   0  0  0  0  0  0  0  0  0  0  0  0
   43.1710   31.4960   41.8390 C   0  0  0  0  0  0  0  0  0  0  0  0
   42.1030   32.2780   41.4880 C   0  0  0  0  0  0  0  0  0  0  0  0
   40.9210   31.8290   41.6360 O   0  0  0  0  0  0  0  0  0  0  0  0
   42.3630   33.5150   40.9920 N   0  0  0  0  0  0  0  0  0  0  0  0
   43.6260   33.9420   40.8560 C   0  0  0  0  0  0  0  0  0  0  0  0
   43.7480   35.1170   40.3810 O   0  0  0  0  0  0  0  0  0  0  0  0
   41.2330   34.3060   40.6360 C   0  0  0  0  0  0  0  0  0  0  0  0
   41.2330   35.6540   40.9410 C   0  0  0  0  0  0  0  0  0  0  0  0
   40.0210   36.1860   40.4890 C   0  0  0  0  0  0  0  0  0  0  0  0
   39.3400   35.1380   39.9290 N   0  0  0  0  0  0  0  0  0  0  0  0
   40.0610   34.0480   40.0230 N   0  0  0  0  0  0  0  0  0  0  0  0
   44.4300   36.0640   44.7730 C   0  0  0  0  0  0  0  0  0  0  0  0
   45.0000   35.9100   43.5120 C   0  0  0  0  0  0  0  0  0  0  0  0
   45.8440   34.8510   43.2540 C   0  0  0  0  0  0  0  0  0  0  0  0
   46.1080   33.9570   44.2610 N   0  0  0  0  0  0  0  0  0  0  0  0
   45.5270   34.1390   45.4950 C   0  0  0  0  0  0  0  0  0  0  0  0
   44.7090   35.1620   45.7500 N   0  0  0  0  0  0  0  0  0  0  0  0
   45.7630   33.2450   46.5780 N   0  0  0  0  0  0  0  0  0  0  0  0
   45.0670   33.1330   47.7240 C   0  0  0  0  0  0  0  0  0  0  0  0
   45.4380   32.2020   48.6730 C   0  0  0  0  0  0  0  0  0  0  0  0
   46.5350   31.3900   48.4270 C   0  0  0  0  0  0  0  0  0  0  0  0
   46.9040   30.4370   49.4170 N   0  0  0  0  0  0  0  0  0  0  0  0
   47.2130   31.5260   47.2690 N   0  0  0  0  0  0  0  0  0  0  0  0
   46.8260   32.4530   46.3440 C   0  0  0  0  0  0  0  0  0  0  0  0
   47.5820   32.4220   45.3420 O   0  0  0  0  0  0  0  0  0  0  0  0
   48.1454   35.8163   42.5312 H   0  0  0  0  0  0  0  0  0  0  0  0
   49.3915   35.4751   40.3897 H   0  0  0  0  0  0  0  0  0  0  0  0
   48.3622   33.9978   38.6044 H   0  0  0  0  0  0  0  0  0  0  0  0
   46.1514   32.9324   39.0200 H   0  0  0  0  0  0  0  0  0  0  0  0
   45.2949   31.2872   41.9860 H   0  0  0  0  0  0  0  0  0  0  0  0
   42.9897   30.4898   42.2448 H   0  0  0  0  0  0  0  0  0  0  0  0
   42.0384   36.2070   41.4465 H   0  0  0  0  0  0  0  0  0  0  0  0
   39.6844   37.2303   40.5671 H   0  0  0  0  0  0  0  0  0  0  0  0
   38.4054   35.1975   39.5002 H   0  0  0  0  0  0  0  0  0  0  0  0
   43.7580   36.9107   44.9769 H   0  0  0  0  0  0  0  0  0  0  0  0
   44.7757   36.6371   42.7176 H   0  0  0  0  0  0  0  0  0  0  0  0
   44.1999   33.7852   47.9051 H   0  0  0  0  0  0  0  0  0  0  0  0
   44.8717   32.1055   49.6110 H   0  0  0  0  0  0  0  0  0  0  0  0
   47.7143   29.8205   49.2616 H   0  0  0  0  0  0  0  0  0  0  0  0
   46.3608   30.3636   50.2890 H   0  0  0  0  0  0  0  0  0  0  0  0
  1 22  1  0
  2  1  2  0
  3  2  1  0
  4  5  1  0
  4  3  2  0
  5  6  2  0
  6  7  1  0
  6  1  1  0
  7  8  1  0
  8  9  2  0
 10 11  2  0
 10  9  1  0
 12 10  1  0
 13 12  1  0
 13  7  1  0
 14 13  2  0
 15 16  1  0
 15 12  1  0
 17 16  2  0
 18 19  1  0
 18 17  1  0
 19 15  2  0
 20 25  2  0
 21 20  1  0
 22 21  2  0
 22 23  1  0
 23 24  2  0
 24 25  1  0
 24 26  1  0
 26 27  1  0
 27 28  2  0
 29 28  1  0
 29 30  1  0
 31 29  2  0
 32 26  1  0
 32 31  1  0
 33 32  2  0
  2 34  1  0
  3 35  1  0
  4 36  1  0
  5 37  1  0
  8 38  1  0
  9 39  1  0
 16 40  1  0
 17 41  1  0
 18 42  1  0
 20 43  1  0
 21 44  1  0
 27 45  1  0
 28 46  1  0
 30 47  1  0
 30 48  1  0
M  END
>  <Score>  (1) 
-9.64329

$$$$
