
     RDKit          3D

 48 53  0  0  1  0  0  0  0  0999 V2000
   45.9150   33.7260   45.5390 C   0  0  0  0  0  0  0  0  0  0  0  0
   46.6980   33.7540   44.3880 C   0  0  0  0  0  0  0  0  0  0  0  0
   46.4250   34.6950   43.4010 C   0  0  0  0  0  0  0  0  0  0  0  0
   45.3930   35.5610   43.5990 N   0  0  0  0  0  0  0  0  0  0  0  0
   44.6370   35.5240   44.7240 C   0  0  0  0  0  0  0  0  0  0  0  0
   44.8920   34.6130   45.6930 N   0  0  0  0  0  0  0  0  0  0  0  0
   47.2490   34.7170   42.2030 C   0  0  0  0  0  0  0  0  0  0  0  0
   48.5290   35.2860   42.0880 C   0  0  0  0  0  0  0  0  0  0  0  0
   48.9650   35.1020   40.8200 N   0  0  0  0  0  0  0  0  0  0  0  0
   47.9930   34.4370   40.1450 C   0  0  0  0  0  0  0  0  0  0  0  0
   47.9570   34.0160   38.8320 C   0  0  0  0  0  0  0  0  0  0  0  0
   46.8470   33.3540   38.3790 C   0  0  0  0  0  0  0  0  0  0  0  0
   45.7370   33.0740   39.1750 C   0  0  0  0  0  0  0  0  0  0  0  0
   45.8480   33.5250   40.4750 C   0  0  0  0  0  0  0  0  0  0  0  0
   46.9070   34.1800   40.9810 C   0  0  0  0  0  0  0  0  0  0  0  0
   46.1180   32.8300   46.5560 O   0  0  0  0  0  0  0  0  0  0  0  0
   45.4810   32.8300   47.7850 C   0  0  1  0  0  0  0  0  0  0  0  0
   44.6770   31.6560   48.1510 C   0  0  0  0  0  0  0  0  0  0  0  0
   46.0360   31.8000   48.7800 C   0  0  1  0  0  0  0  0  0  0  0  0
   47.0040   30.7890   48.2880 C   0  0  0  0  0  0  0  0  0  0  0  0
   46.3330   29.8240   47.5280 C   0  0  0  0  0  0  0  0  0  0  0  0
   47.0210   28.7350   46.9880 C   0  0  0  0  0  0  0  0  0  0  0  0
   48.3890   28.6260   47.2180 C   0  0  0  0  0  0  0  0  0  0  0  0
   49.0570   29.5740   47.9630 C   0  0  0  0  0  0  0  0  0  0  0  0
   50.4100   29.5550   48.2330 C   0  0  0  0  0  0  0  0  0  0  0  0
   50.9970   30.5740   48.9910 C   0  0  0  0  0  0  0  0  0  0  0  0
   50.2490   31.6410   49.5040 C   0  0  0  0  0  0  0  0  0  0  0  0
   48.9030   31.6550   49.2330 C   0  0  0  0  0  0  0  0  0  0  0  0
   48.3560   30.6370   48.4850 C   0  0  0  0  0  0  0  0  0  0  0  0
   47.5242   33.0390   44.2606 H   0  0  0  0  0  0  0  0  0  0  0  0
   43.8107   36.2390   44.8505 H   0  0  0  0  0  0  0  0  0  0  0  0
   49.0821   35.7942   42.8916 H   0  0  0  0  0  0  0  0  0  0  0  0
   49.8699   35.4105   40.4368 H   0  0  0  0  0  0  0  0  0  0  0  0
   48.8060   34.2088   38.1597 H   0  0  0  0  0  0  0  0  0  0  0  0
   46.8302   33.0251   37.3295 H   0  0  0  0  0  0  0  0  0  0  0  0
   44.8509   32.5407   38.8001 H   0  0  0  0  0  0  0  0  0  0  0  0
   45.0018   33.3329   41.1510 H   0  0  0  0  0  0  0  0  0  0  0  0
   45.2792   33.9113   47.7783 H   0  0  0  0  0  0  0  0  0  0  0  0
   43.7756   31.7851   48.7682 H   0  0  0  0  0  0  0  0  0  0  0  0
   44.1806   30.8599   47.5768 H   0  0  0  0  0  0  0  0  0  0  0  0
   46.4763   31.8766   49.7851 H   0  0  0  0  0  0  0  0  0  0  0  0
   45.2515   29.9244   47.3540 H   0  0  0  0  0  0  0  0  0  0  0  0
   46.4911   27.9775   46.3919 H   0  0  0  0  0  0  0  0  0  0  0  0
   48.9440   27.7731   46.8003 H   0  0  0  0  0  0  0  0  0  0  0  0
   51.0317   28.7326   47.8495 H   0  0  0  0  0  0  0  0  0  0  0  0
   52.0782   30.5359   49.1899 H   0  0  0  0  0  0  0  0  0  0  0  0
   50.7208   32.4360   50.1001 H   0  0  0  0  0  0  0  0  0  0  0  0
   48.2686   32.4709   49.6096 H   0  0  0  0  0  0  0  0  0  0  0  0
  1  6  1  0
  1 16  1  0
  2  1  2  0
  3  4  2  0
  3  2  1  0
  4  5  1  0
  5  6  2  0
  7  3  1  0
  8  7  2  0
  9  8  1  0
 10  9  1  0
 10 15  2  0
 11 10  1  0
 12 11  2  0
 12 13  1  0
 13 14  2  0
 14 15  1  0
 15  7  1  0
 16 17  1  0
 17 18  1  0
 17 19  1  0
 18 19  1  0
 20 29  1  0
 20 19  1  0
 21 20  2  0
 22 23  2  0
 22 21  1  0
 23 24  1  0
 24 25  1  0
 24 29  2  0
 25 26  2  0
 26 27  1  0
 28 27  2  0
 29 28  1  0
  2 30  1  0
  5 31  1  0
  8 32  1  0
  9 33  1  0
 11 34  1  0
 12 35  1  0
 13 36  1  0
 14 37  1  0
 17 38  1  1
 18 39  1  0
 18 40  1  0
 19 41  1  1
 21 42  1  0
 22 43  1  0
 23 44  1  0
 25 45  1  0
 26 46  1  0
 27 47  1  0
 28 48  1  0
M  END
>  <Score>  (1) 
-7.75497

$$$$
