
     RDKit          3D

 49 52  0  0  0  0  0  0  0  0999 V2000
   44.5710   34.9810   46.2120 C   0  0  0  0  0  0  0  0  0  0  0  0
   44.7990   35.0280   44.8310 C   0  0  0  0  0  0  0  0  0  0  0  0
   45.4730   33.9650   44.2130 C   0  0  0  0  0  0  0  0  0  0  0  0
   45.8720   32.9330   44.9980 N   0  0  0  0  0  0  0  0  0  0  0  0
   45.6310   32.9260   46.3360 C   0  0  0  0  0  0  0  0  0  0  0  0
   44.9930   33.9280   46.9360 N   0  0  0  0  0  0  0  0  0  0  0  0
   45.6780   34.0580   42.8250 N   0  0  0  0  0  0  0  0  0  0  0  0
   44.9090   33.9550   41.7420 C   0  0  0  0  0  0  0  0  0  0  0  0
   45.6380   34.1380   40.6180 N   0  0  0  0  0  0  0  0  0  0  0  0
   46.9100   34.3650   40.9890 C   0  0  0  0  0  0  0  0  0  0  0  0
   48.0460   34.6110   40.2320 C   0  0  0  0  0  0  0  0  0  0  0  0
   48.0430   34.6590   38.9970 O   0  0  0  0  0  0  0  0  0  0  0  0
   49.2300   34.8120   40.8410 N   0  0  0  0  0  0  0  0  0  0  0  0
   49.2340   34.7600   42.1910 C   0  0  0  0  0  0  0  0  0  0  0  0
   50.4120   34.9540   42.9450 N   0  0  0  0  0  0  0  0  0  0  0  0
   48.1410   34.5240   42.9120 N   0  0  0  0  0  0  0  0  0  0  0  0
   46.9340   34.3150   42.3750 C   0  0  0  0  0  0  0  0  0  0  0  0
   46.0590   31.8110   47.2000 C   0  0  0  0  0  0  0  0  0  0  0  0
   47.3380   32.1480   47.9340 C   0  0  0  0  0  0  0  0  0  0  0  0
   45.0000   31.4010   48.1960 C   0  0  0  0  0  0  0  0  0  0  0  0
   46.3880   30.6370   46.2720 C   0  0  0  0  0  0  0  0  0  0  0  0
   45.8870   26.8050   48.0560 C   0  0  0  0  0  0  0  0  0  0  0  0
   44.7620   27.5180   47.7380 C   0  0  0  0  0  0  0  0  0  0  0  0
   44.8950   28.7680   47.1570 C   0  0  0  0  0  0  0  0  0  0  0  0
   46.1250   29.3280   46.8830 C   0  0  0  0  0  0  0  0  0  0  0  0
   47.2330   28.5480   47.2320 C   0  0  0  0  0  0  0  0  0  0  0  0
   47.1300   27.3030   47.8110 C   0  0  0  0  0  0  0  0  0  0  0  0
   45.7130   25.2170   48.7940 S   0  0  0  0  0  0  0  0  0  0  0  0
   45.0350   25.2970   50.1350 O   0  0  0  0  0  0  0  0  0  0  0  0
   47.1110   24.6860   49.0450 O   0  0  0  0  0  0  0  0  0  0  0  0
   44.0440   35.8095   46.7078 H   0  0  0  0  0  0  0  0  0  0  0  0
   44.4537   35.8881   44.2385 H   0  0  0  0  0  0  0  0  0  0  0  0
   43.8286   33.7492   41.7598 H   0  0  0  0  0  0  0  0  0  0  0  0
   50.0897   34.9962   40.3044 H   0  0  0  0  0  0  0  0  0  0  0  0
   50.3787   34.9075   43.9734 H   0  0  0  0  0  0  0  0  0  0  0  0
   51.3046   35.1420   42.4666 H   0  0  0  0  0  0  0  0  0  0  0  0
   47.1614   32.1015   49.0187 H   0  0  0  0  0  0  0  0  0  0  0  0
   48.1202   31.4253   47.6585 H   0  0  0  0  0  0  0  0  0  0  0  0
   47.6625   33.1623   47.6585 H   0  0  0  0  0  0  0  0  0  0  0  0
   45.3807   31.5484   49.2175 H   0  0  0  0  0  0  0  0  0  0  0  0
   44.0998   32.0156   48.0479 H   0  0  0  0  0  0  0  0  0  0  0  0
   44.7483   30.3405   48.0479 H   0  0  0  0  0  0  0  0  0  0  0  0
   47.4536   30.6905   46.0042 H   0  0  0  0  0  0  0  0  0  0  0  0
   45.7365   30.7239   45.3899 H   0  0  0  0  0  0  0  0  0  0  0  0
   43.7640   27.1026   47.9417 H   0  0  0  0  0  0  0  0  0  0  0  0
   43.9866   29.3347   46.9049 H   0  0  0  0  0  0  0  0  0  0  0  0
   48.2376   28.9499   47.0337 H   0  0  0  0  0  0  0  0  0  0  0  0
   48.0297   26.7252   48.0692 H   0  0  0  0  0  0  0  0  0  0  0  0
   44.9674   24.4254   47.9607 H   0  0  0  0  0  0  0  0  0  0  0  0
  1  6  2  0
  2  1  1  0
  3  2  2  0
  3  4  1  0
  4  5  2  0
  5  6  1  0
  5 18  1  0
  7  3  1  0
  8  7  1  0
  9 10  1  0
  9  8  2  0
 10 17  2  0
 11 13  1  0
 11 10  1  0
 12 11  2  0
 13 14  1  0
 14 16  2  0
 14 15  1  0
 17  7  1  0
 17 16  1  0
 18 19  1  0
 18 20  1  0
 21 25  1  0
 21 18  1  0
 22 28  1  0
 23 22  2  0
 24 23  1  0
 25 24  2  0
 25 26  1  0
 26 27  2  0
 27 22  1  0
 28 30  2  0
 28 29  2  0
  1 31  1  0
  2 32  1  0
  8 33  1  0
 13 34  1  0
 15 35  1  0
 15 36  1  0
 19 37  1  0
 19 38  1  0
 19 39  1  0
 20 40  1  0
 20 41  1  0
 20 42  1  0
 21 43  1  0
 21 44  1  0
 23 45  1  0
 24 46  1  0
 26 47  1  0
 27 48  1  0
 28 49  1  0
M  END
>  <Score>  (1) 
-7.01148

$$$$
