
     RDKit          3D

 44 48  0  0  1  0  0  0  0  0999 V2000
   44.8960   35.8700   42.7680 S   0  0  0  0  0  0  0  0  0  0  0  0
   44.8880   34.7320   45.2950 C   0  0  0  0  0  0  0  0  0  0  0  0
   45.4790   34.7700   44.0470 C   0  0  0  0  0  0  0  0  0  0  0  0
   46.5380   33.9060   43.8530 C   0  0  0  0  0  0  0  0  0  0  0  0
   46.9390   33.0850   44.8550 N   0  0  0  0  0  0  0  0  0  0  0  0
   46.3330   33.0820   46.0530 C   0  0  0  0  0  0  0  0  0  0  0  0
   45.3340   33.9010   46.2340 N   0  0  0  0  0  0  0  0  0  0  0  0
   46.9660   32.1060   46.9370 C   0  0  0  0  0  0  0  0  0  0  0  0
   47.7150   32.4520   48.0360 C   0  0  0  0  0  0  0  0  0  0  0  0
   48.3250   31.5870   48.8910 C   0  0  0  0  0  0  0  0  0  0  0  0
   48.2160   30.2420   48.6880 C   0  0  0  0  0  0  0  0  0  0  0  0
   47.4790   29.8180   47.6050 C   0  0  0  0  0  0  0  0  0  0  0  0
   47.3850   28.4550   47.4210 C   0  0  0  0  0  0  0  0  0  0  0  0
   46.6660   27.9430   46.3620 C   0  0  0  0  0  0  0  0  0  0  0  0
   46.0550   28.8680   45.5060 C   0  0  0  0  0  0  0  0  0  0  0  0
   46.1860   30.2000   45.7420 C   0  0  0  0  0  0  0  0  0  0  0  0
   46.8850   30.7410   46.7750 C   0  0  0  0  0  0  0  0  0  0  0  0
   42.2500   33.6630   40.9030 N   0  0  0  0  0  0  0  0  0  0  0  0
   43.3410   33.7720   41.6520 N   0  0  0  0  0  0  0  0  0  0  0  0
   43.5690   35.1210   41.8480 C   0  0  0  0  0  0  0  0  0  0  0  0
   42.5760   35.7960   41.1910 C   0  0  0  0  0  0  0  0  0  0  0  0
   41.7420   34.9160   40.5940 C   0  0  0  0  0  0  0  0  0  0  0  0
   40.5280   35.0490   39.7520 C   0  0  1  0  0  0  0  0  0  0  0  0
   40.6950   35.1150   38.2580 C   0  0  0  0  0  0  0  0  0  0  0  0
   40.1060   33.9010   38.9490 C   0  0  2  0  0  0  0  0  0  0  0  0
   38.6610   33.6420   38.6370 C   0  0  0  0  0  0  0  0  0  0  0  0
   38.5060   32.2700   38.4180 F   0  0  0  0  0  0  0  0  0  0  0  0
   38.3070   34.2690   37.4620 F   0  0  0  0  0  0  0  0  0  0  0  0
   37.8510   34.0730   39.6580 F   0  0  0  0  0  0  0  0  0  0  0  0
   44.0392   35.3961   45.5152 H   0  0  0  0  0  0  0  0  0  0  0  0
   47.0576   33.8835   42.8837 H   0  0  0  0  0  0  0  0  0  0  0  0
   47.8320   33.5259   48.2433 H   0  0  0  0  0  0  0  0  0  0  0  0
   48.9045   31.9709   49.7436 H   0  0  0  0  0  0  0  0  0  0  0  0
   48.6995   29.5225   49.3651 H   0  0  0  0  0  0  0  0  0  0  0  0
   47.8863   27.7723   48.1229 H   0  0  0  0  0  0  0  0  0  0  0  0
   46.5764   26.8591   46.1971 H   0  0  0  0  0  0  0  0  0  0  0  0
   45.4696   28.5167   44.6435 H   0  0  0  0  0  0  0  0  0  0  0  0
   45.6896   30.8917   45.0455 H   0  0  0  0  0  0  0  0  0  0  0  0
   41.8379   32.7710   40.5941 H   0  0  0  0  0  0  0  0  0  0  0  0
   42.4723   36.8905   41.1544 H   0  0  0  0  0  0  0  0  0  0  0  0
   40.0355   35.6871   40.5005 H   0  0  0  0  0  0  0  0  0  0  0  0
   41.6977   35.0664   37.8083 H   0  0  0  0  0  0  0  0  0  0  0  0
   40.3778   35.7994   37.4574 H   0  0  0  0  0  0  0  0  0  0  0  0
   40.3235   32.8263   39.0364 H   0  0  0  0  0  0  0  0  0  0  0  0
  1  3  1  0
  2  7  2  0
  3  2  1  0
  4  3  2  0
  4  5  1  0
  5  6  2  0
  6  7  1  0
  6  8  1  0
  8  9  2  0
  9 10  1  0
 11 10  2  0
 12 11  1  0
 13 12  2  0
 14 13  1  0
 15 16  1  0
 15 14  2  0
 16 17  2  0
 17  8  1  0
 17 12  1  0
 18 19  1  0
 19 20  2  0
 20  1  1  0
 21 20  1  0
 22 18  1  0
 22 21  2  0
 23 22  1  0
 24 25  1  0
 24 23  1  0
 25 23  1  0
 26 25  1  0
 26 29  1  0
 27 26  1  0
 28 26  1  0
  2 30  1  0
  4 31  1  0
  9 32  1  0
 10 33  1  0
 11 34  1  0
 13 35  1  0
 14 36  1  0
 15 37  1  0
 16 38  1  0
 18 39  1  0
 21 40  1  0
 23 41  1  1
 24 42  1  0
 24 43  1  0
 25 44  1  1
M  END
>  <Score>  (1) 
-7.02949

$$$$
