
     RDKit          3D

 51 55  0  0  0  0  0  0  0  0999 V2000
   46.6030   34.6190   42.1890 C   0  0  0  0  0  0  0  0  0  0  0  0
   47.8080   35.2450   42.0270 C   0  0  0  0  0  0  0  0  0  0  0  0
   48.5300   35.1760   40.8230 C   0  0  0  0  0  0  0  0  0  0  0  0
   47.9760   34.4310   39.7590 C   0  0  0  0  0  0  0  0  0  0  0  0
   46.7530   33.7960   39.9270 C   0  0  0  0  0  0  0  0  0  0  0  0
   46.0980   33.9060   41.1330 C   0  0  0  0  0  0  0  0  0  0  0  0
   44.8460   33.2490   41.2830 N   0  0  0  0  0  0  0  0  0  0  0  0
   44.6140   31.9840   41.7120 C   0  0  0  0  0  0  0  0  0  0  0  0
   43.3370   31.4970   41.8000 C   0  0  0  0  0  0  0  0  0  0  0  0
   42.2530   32.2780   41.4560 C   0  0  0  0  0  0  0  0  0  0  0  0
   41.0950   31.7930   41.5500 O   0  0  0  0  0  0  0  0  0  0  0  0
   42.5070   33.5430   41.0280 N   0  0  0  0  0  0  0  0  0  0  0  0
   43.7560   34.0120   40.9450 C   0  0  0  0  0  0  0  0  0  0  0  0
   43.8740   35.2050   40.5330 O   0  0  0  0  0  0  0  0  0  0  0  0
   41.3730   34.3140   40.6830 C   0  0  0  0  0  0  0  0  0  0  0  0
   41.3270   35.6520   41.0560 C   0  0  0  0  0  0  0  0  0  0  0  0
   40.1110   36.1660   40.5930 C   0  0  0  0  0  0  0  0  0  0  0  0
   39.4760   35.1420   39.9690 N   0  0  0  0  0  0  0  0  0  0  0  0
   40.2190   34.0700   40.0260 N   0  0  0  0  0  0  0  0  0  0  0  0
   44.5000   35.8170   45.0850 C   0  0  0  0  0  0  0  0  0  0  0  0
   45.0830   35.7750   43.8230 C   0  0  0  0  0  0  0  0  0  0  0  0
   45.9410   34.7570   43.4780 C   0  0  0  0  0  0  0  0  0  0  0  0
   46.2000   33.7890   44.4190 N   0  0  0  0  0  0  0  0  0  0  0  0
   45.6180   33.8510   45.6480 C   0  0  0  0  0  0  0  0  0  0  0  0
   44.7870   34.8380   45.9800 N   0  0  0  0  0  0  0  0  0  0  0  0
   45.9280   32.8170   46.5750 N   0  0  0  0  0  0  0  0  0  0  0  0
   45.1210   32.6250   47.7670 C   0  0  0  0  0  0  0  0  0  0  0  0
   45.9720   32.3090   48.9510 C   0  0  0  0  0  0  0  0  0  0  0  0
   47.1720   31.5840   48.6780 N   0  0  0  0  0  0  0  0  0  0  0  0
   47.1750   30.9080   47.4100 C   0  0  0  0  0  0  0  0  0  0  0  0
   47.0650   31.9500   46.3230 C   0  0  0  0  0  0  0  0  0  0  0  0
   48.2257   35.8210   42.8659 H   0  0  0  0  0  0  0  0  0  0  0  0
   49.4978   35.6871   40.7129 H   0  0  0  0  0  0  0  0  0  0  0  0
   48.5113   34.3541   38.8011 H   0  0  0  0  0  0  0  0  0  0  0  0
   46.3122   33.2116   39.1059 H   0  0  0  0  0  0  0  0  0  0  0  0
   45.4614   31.3412   41.9927 H   0  0  0  0  0  0  0  0  0  0  0  0
   43.1731   30.4673   42.1504 H   0  0  0  0  0  0  0  0  0  0  0  0
   42.1008   36.2030   41.6107 H   0  0  0  0  0  0  0  0  0  0  0  0
   39.7428   37.1958   40.7113 H   0  0  0  0  0  0  0  0  0  0  0  0
   38.5510   35.2013   39.5199 H   0  0  0  0  0  0  0  0  0  0  0  0
   43.8145   36.6340   45.3545 H   0  0  0  0  0  0  0  0  0  0  0  0
   44.8552   36.5651   43.0924 H   0  0  0  0  0  0  0  0  0  0  0  0
   44.5541   33.5459   47.9684 H   0  0  0  0  0  0  0  0  0  0  0  0
   44.4393   31.7794   47.5930 H   0  0  0  0  0  0  0  0  0  0  0  0
   46.2530   33.2595   49.4280 H   0  0  0  0  0  0  0  0  0  0  0  0
   45.3639   31.6509   49.5891 H   0  0  0  0  0  0  0  0  0  0  0  0
   47.9604   32.2466   48.6929 H   0  0  0  0  0  0  0  0  0  0  0  0
   48.1110   30.3425   47.2911 H   0  0  0  0  0  0  0  0  0  0  0  0
   46.3311   30.2049   47.3509 H   0  0  0  0  0  0  0  0  0  0  0  0
   46.9330   31.4501   45.3521 H   0  0  0  0  0  0  0  0  0  0  0  0
   47.9833   32.5555   46.3110 H   0  0  0  0  0  0  0  0  0  0  0  0
  1 22  1  0
  2  1  2  0
  3  2  1  0
  4  5  1  0
  4  3  2  0
  5  6  2  0
  6  7  1  0
  6  1  1  0
  7  8  1  0
  8  9  2  0
 10 11  2  0
 10  9  1  0
 12 10  1  0
 13 12  1  0
 13  7  1  0
 14 13  2  0
 15 12  1  0
 15 16  1  0
 17 16  2  0
 18 19  1  0
 18 17  1  0
 19 15  2  0
 20 25  2  0
 21 20  1  0
 22 21  2  0
 22 23  1  0
 23 24  2  0
 24 25  1  0
 24 26  1  0
 26 27  1  0
 27 28  1  0
 29 28  1  0
 30 29  1  0
 31 26  1  0
 31 30  1  0
  2 32  1  0
  3 33  1  0
  4 34  1  0
  5 35  1  0
  8 36  1  0
  9 37  1  0
 16 38  1  0
 17 39  1  0
 18 40  1  0
 20 41  1  0
 21 42  1  0
 27 43  1  0
 27 44  1  0
 28 45  1  0
 28 46  1  0
 29 47  1  0
 30 48  1  0
 30 49  1  0
 31 50  1  0
 31 51  1  0
M  END
>  <Score>  (1) 
-9.21233

$$$$
