
     RDKit          3D

 54 59  0  0  0  0  0  0  0  0999 V2000
   44.8700   35.3690   44.5960 C   0  0  0  0  0  0  0  0  0  0  0  0
   45.8110   35.0720   43.5940 C   0  0  0  0  0  0  0  0  0  0  0  0
   46.7040   34.0610   43.7310 C   0  0  0  0  0  0  0  0  0  0  0  0
   46.6730   33.3310   44.8630 N   0  0  0  0  0  0  0  0  0  0  0  0
   45.7520   33.6250   45.8370 C   0  0  0  0  0  0  0  0  0  0  0  0
   44.8770   34.6160   45.7040 N   0  0  0  0  0  0  0  0  0  0  0  0
   45.8770   32.7090   47.0110 C   0  0  0  0  0  0  0  0  0  0  0  0
   45.0050   32.5650   48.1540 C   0  0  0  0  0  0  0  0  0  0  0  0
   45.9390   31.2870   49.0480 S   0  0  0  0  0  0  0  0  0  0  0  0
   47.3050   31.1750   47.7550 C   0  0  0  0  0  0  0  0  0  0  0  0
   46.9700   32.0470   46.8230 N   0  0  0  0  0  0  0  0  0  0  0  0
   48.3940   30.1790   48.0620 C   0  0  0  0  0  0  0  0  0  0  0  0
   48.3020   28.9160   47.5500 C   0  0  0  0  0  0  0  0  0  0  0  0
   49.3150   28.0100   47.8440 C   0  0  0  0  0  0  0  0  0  0  0  0
   50.4000   28.3400   48.6270 C   0  0  0  0  0  0  0  0  0  0  0  0
   50.4810   29.6150   49.1370 C   0  0  0  0  0  0  0  0  0  0  0  0
   51.5310   30.0310   49.9300 C   0  0  0  0  0  0  0  0  0  0  0  0
   51.6100   31.3210   50.4440 C   0  0  0  0  0  0  0  0  0  0  0  0
   50.5570   32.1820   50.1100 C   0  0  0  0  0  0  0  0  0  0  0  0
   49.5050   31.7760   49.3190 C   0  0  0  0  0  0  0  0  0  0  0  0
   49.4710   30.4940   48.8350 C   0  0  0  0  0  0  0  0  0  0  0  0
   47.6770   33.7740   42.6800 C   0  0  0  0  0  0  0  0  0  0  0  0
   47.9130   34.8460   41.6800 C   0  0  0  0  0  0  0  0  0  0  0  0
   47.4970   34.3360   40.3430 C   0  0  0  0  0  0  0  0  0  0  0  0
   48.3260   34.3840   39.2500 C   0  0  0  0  0  0  0  0  0  0  0  0
   48.0440   33.9460   37.9850 C   0  0  0  0  0  0  0  0  0  0  0  0
   46.7860   33.4090   37.8410 N   0  0  0  0  0  0  0  0  0  0  0  0
   45.9470   33.3490   38.9050 C   0  0  0  0  0  0  0  0  0  0  0  0
   46.2580   33.7910   40.1430 N   0  0  0  0  0  0  0  0  0  0  0  0
   44.6350   32.7650   38.6710 C   0  0  0  0  0  0  0  0  0  0  0  0
   43.6020   32.9880   39.5730 C   0  0  0  0  0  0  0  0  0  0  0  0
   42.3700   32.4310   39.3470 C   0  0  0  0  0  0  0  0  0  0  0  0
   42.1410   31.6780   38.2720 N   0  0  0  0  0  0  0  0  0  0  0  0
   43.1510   31.4790   37.4200 C   0  0  0  0  0  0  0  0  0  0  0  0
   44.3990   32.0020   37.5860 N   0  0  0  0  0  0  0  0  0  0  0  0
   44.1515   36.1929   44.4739 H   0  0  0  0  0  0  0  0  0  0  0  0
   45.8229   35.6759   42.6747 H   0  0  0  0  0  0  0  0  0  0  0  0
   44.0629   33.0737   48.4064 H   0  0  0  0  0  0  0  0  0  0  0  0
   47.4483   28.6231   46.9212 H   0  0  0  0  0  0  0  0  0  0  0  0
   49.2478   26.9907   47.4359 H   0  0  0  0  0  0  0  0  0  0  0  0
   51.1849   27.5993   48.8397 H   0  0  0  0  0  0  0  0  0  0  0  0
   52.3342   29.3168   50.1640 H   0  0  0  0  0  0  0  0  0  0  0  0
   52.4500   31.6459   51.0756 H   0  0  0  0  0  0  0  0  0  0  0  0
   50.5705   33.2138   50.4910 H   0  0  0  0  0  0  0  0  0  0  0  0
   48.6943   32.4787   49.0763 H   0  0  0  0  0  0  0  0  0  0  0  0
   48.6387   33.5545   43.1668 H   0  0  0  0  0  0  0  0  0  0  0  0
   47.2490   32.9359   42.1104 H   0  0  0  0  0  0  0  0  0  0  0  0
   47.3199   35.7351   41.9403 H   0  0  0  0  0  0  0  0  0  0  0  0
   48.9770   35.1246   41.6659 H   0  0  0  0  0  0  0  0  0  0  0  0
   49.3230   34.8211   39.4080 H   0  0  0  0  0  0  0  0  0  0  0  0
   48.7617   34.0172   37.1544 H   0  0  0  0  0  0  0  0  0  0  0  0
   43.7721   33.6090   40.4649 H   0  0  0  0  0  0  0  0  0  0  0  0
   41.5564   32.6088   40.0656 H   0  0  0  0  0  0  0  0  0  0  0  0
   42.9645   30.8565   36.5324 H   0  0  0  0  0  0  0  0  0  0  0  0
  1  6  2  0
  2  3  2  0
  2  1  1  0
  3  4  1  0
  4  5  2  0
  5  7  1  0
  6  5  1  0
  7  8  2  0
  8  9  1  0
 10 12  1  0
 10  9  1  0
 11  7  1  0
 11 10  2  0
 12 21  2  0
 13 14  2  0
 13 12  1  0
 14 15  1  0
 15 16  2  0
 16 17  1  0
 17 18  2  0
 19 18  1  0
 20 19  2  0
 21 16  1  0
 21 20  1  0
 22  3  1  0
 23 22  1  0
 24 23  1  0
 25 24  2  0
 26 25  1  0
 27 26  2  0
 27 28  1  0
 28 29  2  0
 29 24  1  0
 30 28  1  0
 30 31  2  0
 32 31  1  0
 33 32  2  0
 34 35  2  0
 34 33  1  0
 35 30  1  0
  1 36  1  0
  2 37  1  0
  8 38  1  0
 13 39  1  0
 14 40  1  0
 15 41  1  0
 17 42  1  0
 18 43  1  0
 19 44  1  0
 20 45  1  0
 22 46  1  0
 22 47  1  0
 23 48  1  0
 23 49  1  0
 25 50  1  0
 26 51  1  0
 31 52  1  0
 32 53  1  0
 34 54  1  0
M  END
>  <Score>  (1) 
-7.03975

$$$$
