
     RDKit          3D

 38 41  0  0  0  0  0  0  0  0999 V2000
   44.5140   35.9080   44.7350 C   0  0  0  0  0  0  0  0  0  0  0  0
   45.1620   35.8960   43.4990 C   0  0  0  0  0  0  0  0  0  0  0  0
   46.0560   34.9010   43.1900 C   0  0  0  0  0  0  0  0  0  0  0  0
   46.2720   33.9490   44.1320 N   0  0  0  0  0  0  0  0  0  0  0  0
   45.6560   33.9560   45.3140 C   0  0  0  0  0  0  0  0  0  0  0  0
   44.7750   34.9260   45.6310 N   0  0  0  0  0  0  0  0  0  0  0  0
   45.9950   32.8730   46.2050 N   0  0  0  0  0  0  0  0  0  0  0  0
   45.4280   32.7250   47.4240 C   0  0  0  0  0  0  0  0  0  0  0  0
   45.8410   31.6420   48.1820 C   0  0  0  0  0  0  0  0  0  0  0  0
   45.2110   31.4780   49.5320 C   0  0  0  0  0  0  0  0  0  0  0  0
   46.7890   30.7630   47.7030 C   0  0  0  0  0  0  0  0  0  0  0  0
   47.1540   29.7770   48.4140 O   0  0  0  0  0  0  0  0  0  0  0  0
   47.3330   30.9540   46.4680 N   0  0  0  0  0  0  0  0  0  0  0  0
   46.9340   32.0060   45.7250 C   0  0  0  0  0  0  0  0  0  0  0  0
   47.4480   32.1710   44.5790 O   0  0  0  0  0  0  0  0  0  0  0  0
   46.7930   34.7830   41.9350 C   0  0  0  0  0  0  0  0  0  0  0  0
   48.0130   35.3650   41.7220 C   0  0  0  0  0  0  0  0  0  0  0  0
   48.7210   35.2660   40.5530 C   0  0  0  0  0  0  0  0  0  0  0  0
   48.1690   34.5430   39.5530 N   0  0  0  0  0  0  0  0  0  0  0  0
   46.9820   33.9670   39.7380 C   0  0  0  0  0  0  0  0  0  0  0  0
   46.3000   34.0710   40.8830 N   0  0  0  0  0  0  0  0  0  0  0  0
   46.4560   33.2230   38.6540 N   0  0  0  0  0  0  0  0  0  0  0  0
   45.5210   32.2920   38.5190 N   0  0  0  0  0  0  0  0  0  0  0  0
   45.4170   31.9120   37.2420 C   0  0  0  0  0  0  0  0  0  0  0  0
   46.3520   32.6550   36.5120 C   0  0  0  0  0  0  0  0  0  0  0  0
   46.9810   33.4610   37.4220 C   0  0  0  0  0  0  0  0  0  0  0  0
   43.7984   36.7069   44.9792 H   0  0  0  0  0  0  0  0  0  0  0  0
   44.9548   36.6901   42.7666 H   0  0  0  0  0  0  0  0  0  0  0  0
   44.6729   33.4329   47.7965 H   0  0  0  0  0  0  0  0  0  0  0  0
   45.9609   31.6732   50.3127 H   0  0  0  0  0  0  0  0  0  0  0  0
   44.3786   32.1894   49.6370 H   0  0  0  0  0  0  0  0  0  0  0  0
   44.8311   30.4510   49.6370 H   0  0  0  0  0  0  0  0  0  0  0  0
   48.0422   30.3008   46.1057 H   0  0  0  0  0  0  0  0  0  0  0  0
   48.4539   35.9503   42.5424 H   0  0  0  0  0  0  0  0  0  0  0  0
   49.6990   35.7551   40.4331 H   0  0  0  0  0  0  0  0  0  0  0  0
   44.7259   31.1566   36.8398 H   0  0  0  0  0  0  0  0  0  0  0  0
   46.5421   32.6021   35.4299 H   0  0  0  0  0  0  0  0  0  0  0  0
   47.7796   34.1824   37.1945 H   0  0  0  0  0  0  0  0  0  0  0  0
  1  6  2  0
  2  1  1  0
  3  2  2  0
  3  4  1  0
  4  5  2  0
  5  6  1  0
  5  7  1  0
  7  8  1  0
  8  9  2  0
  9 10  1  0
 11  9  1  0
 11 12  2  0
 13 11  1  0
 14  7  1  0
 14 13  1  0
 15 14  2  0
 16  3  1  0
 17 16  2  0
 18 17  1  0
 19 20  1  0
 19 18  2  0
 20 21  2  0
 21 16  1  0
 22 20  1  0
 23 22  1  0
 24 23  2  0
 25 24  1  0
 25 26  2  0
 26 22  1  0
  1 27  1  0
  2 28  1  0
  8 29  1  0
 10 30  1  0
 10 31  1  0
 10 32  1  0
 13 33  1  0
 17 34  1  0
 18 35  1  0
 24 36  1  0
 25 37  1  0
 26 38  1  0
M  END
>  <Score>  (1) 
-7.73873

$$$$
