
     RDKit          3D

 51 56  0  0  0  0  0  0  0  0999 V2000
   47.4010   33.5380   38.6910 N   0  0  0  0  0  0  0  0  0  0  0  0
   46.7200   32.3980   38.5880 C   0  0  0  0  0  0  0  0  0  0  0  0
   46.5820   31.7250   37.3910 C   0  0  0  0  0  0  0  0  0  0  0  0
   47.1980   32.3000   36.2750 C   0  0  0  0  0  0  0  0  0  0  0  0
   47.0840   31.6970   35.1670 O   0  0  0  0  0  0  0  0  0  0  0  0
   47.8860   33.4680   36.4270 N   0  0  0  0  0  0  0  0  0  0  0  0
   47.9750   34.0660   37.6290 C   0  0  0  0  0  0  0  0  0  0  0  0
   48.6210   35.1410   37.7090 O   0  0  0  0  0  0  0  0  0  0  0  0
   46.9700   34.7840   41.9560 C   0  0  0  0  0  0  0  0  0  0  0  0
   48.2330   35.3350   41.7350 C   0  0  0  0  0  0  0  0  0  0  0  0
   48.5410   34.9150   40.4450 C   0  0  0  0  0  0  0  0  0  0  0  0
   47.4850   34.1560   39.9670 C   0  0  0  0  0  0  0  0  0  0  0  0
   46.5590   34.1040   40.9150 O   0  0  0  0  0  0  0  0  0  0  0  0
   44.5030   36.0220   44.4400 C   0  0  0  0  0  0  0  0  0  0  0  0
   45.2660   35.9250   43.2330 C   0  0  0  0  0  0  0  0  0  0  0  0
   46.1770   34.9150   43.1610 C   0  0  0  0  0  0  0  0  0  0  0  0
   46.3100   34.0680   44.2210 N   0  0  0  0  0  0  0  0  0  0  0  0
   45.5930   34.1660   45.3460 C   0  0  0  0  0  0  0  0  0  0  0  0
   44.6730   35.1630   45.4550 N   0  0  0  0  0  0  0  0  0  0  0  0
   45.8420   33.2110   46.3610 N   0  0  0  0  0  0  0  0  0  0  0  0
   45.1680   33.1460   47.5180 N   0  0  0  0  0  0  0  0  0  0  0  0
   45.6520   32.1220   48.2560 C   0  0  0  0  0  0  0  0  0  0  0  0
   46.6730   31.5040   47.5540 C   0  0  0  0  0  0  0  0  0  0  0  0
   46.7780   32.2110   46.3520 C   0  0  0  0  0  0  0  0  0  0  0  0
   45.8410   30.4600   37.3430 C   0  0  0  0  0  0  0  0  0  0  0  0
   44.3910   30.5810   37.1240 C   0  0  0  0  0  0  0  0  0  0  0  0
   43.7510   31.4020   38.0120 N   0  0  0  0  0  0  0  0  0  0  0  0
   42.4220   31.5920   37.9760 C   0  0  0  0  0  0  0  0  0  0  0  0
   41.6040   30.9910   37.0630 N   0  0  0  0  0  0  0  0  0  0  0  0
   42.1920   30.1780   36.1720 C   0  0  0  0  0  0  0  0  0  0  0  0
   41.4940   29.5000   35.1670 C   0  0  0  0  0  0  0  0  0  0  0  0
   42.1230   28.6790   34.2560 C   0  0  0  0  0  0  0  0  0  0  0  0
   43.5110   28.4950   34.3090 C   0  0  0  0  0  0  0  0  0  0  0  0
   44.1750   29.1690   35.3030 C   0  0  0  0  0  0  0  0  0  0  0  0
   43.5550   29.9880   36.2150 C   0  0  0  0  0  0  0  0  0  0  0  0
   46.2506   31.9777   39.4896 H   0  0  0  0  0  0  0  0  0  0  0  0
   48.3436   33.8980   35.6105 H   0  0  0  0  0  0  0  0  0  0  0  0
   48.8382   35.9518   42.4157 H   0  0  0  0  0  0  0  0  0  0  0  0
   49.4664   35.1464   39.8972 H   0  0  0  0  0  0  0  0  0  0  0  0
   43.7563   36.8238   44.5375 H   0  0  0  0  0  0  0  0  0  0  0  0
   45.1235   36.6325   42.4029 H   0  0  0  0  0  0  0  0  0  0  0  0
   45.2928   31.8274   49.2531 H   0  0  0  0  0  0  0  0  0  0  0  0
   47.2741   30.6401   47.8739 H   0  0  0  0  0  0  0  0  0  0  0  0
   47.4893   32.0004   45.5398 H   0  0  0  0  0  0  0  0  0  0  0  0
   46.2576   29.8545   36.5246 H   0  0  0  0  0  0  0  0  0  0  0  0
   45.9584   30.0043   38.3373 H   0  0  0  0  0  0  0  0  0  0  0  0
   41.9700   32.2654   38.7191 H   0  0  0  0  0  0  0  0  0  0  0  0
   40.4033   29.6267   35.1014 H   0  0  0  0  0  0  0  0  0  0  0  0
   41.5322   28.1655   33.4832 H   0  0  0  0  0  0  0  0  0  0  0  0
   44.0388   27.8467   33.5940 H   0  0  0  0  0  0  0  0  0  0  0  0
   45.2659   29.0464   35.3735 H   0  0  0  0  0  0  0  0  0  0  0  0
  1 12  1  0
  2  1  1  0
  3  2  2  0
  4  6  1  0
  4  3  1  0
  5  4  2  0
  6  7  1  0
  7  8  2  0
  7  1  1  0
  9 16  1  0
 10  9  2  0
 11 10  1  0
 12 11  2  0
 12 13  1  0
 13  9  1  0
 14 19  2  0
 15 14  1  0
 16 15  2  0
 16 17  1  0
 17 18  2  0
 18 19  1  0
 18 20  1  0
 20 21  1  0
 21 22  2  0
 23 22  1  0
 24 20  1  0
 24 23  2  0
 25  3  1  0
 26 25  1  0
 26 27  2  0
 28 27  1  0
 29 28  2  0
 30 35  2  0
 30 29  1  0
 31 30  1  0
 32 33  1  0
 32 31  2  0
 33 34  2  0
 34 35  1  0
 35 26  1  0
  2 36  1  0
  6 37  1  0
 10 38  1  0
 11 39  1  0
 14 40  1  0
 15 41  1  0
 22 42  1  0
 23 43  1  0
 24 44  1  0
 25 45  1  0
 25 46  1  0
 28 47  1  0
 31 48  1  0
 32 49  1  0
 33 50  1  0
 34 51  1  0
M  END
>  <Score>  (1) 
-7.79154

$$$$
