
     RDKit          3D

 50 54  0  0  0  0  0  0  0  0999 V2000
   45.3000   33.9980   41.9130 C   0  0  0  0  0  0  0  0  0  0  0  0
   44.2520   33.5410   41.1640 C   0  0  0  0  0  0  0  0  0  0  0  0
   45.0740   33.3440   39.4950 S   0  0  0  0  0  0  0  0  0  0  0  0
   46.7180   33.9320   40.1540 C   0  0  0  0  0  0  0  0  0  0  0  0
   46.4410   34.1300   41.2480 N   0  0  0  0  0  0  0  0  0  0  0  0
   44.4310   35.8040   45.1140 C   0  0  0  0  0  0  0  0  0  0  0  0
   44.5580   35.5240   43.7540 C   0  0  0  0  0  0  0  0  0  0  0  0
   45.1530   34.3170   43.3570 C   0  0  0  0  0  0  0  0  0  0  0  0
   45.5820   33.4670   44.3150 N   0  0  0  0  0  0  0  0  0  0  0  0
   45.4470   33.7610   45.6210 C   0  0  0  0  0  0  0  0  0  0  0  0
   44.8830   34.9060   46.0110 N   0  0  0  0  0  0  0  0  0  0  0  0
   45.9250   32.8150   46.6100 C   0  0  0  0  0  0  0  0  0  0  0  0
   46.9860   31.9520   46.3120 C   0  0  0  0  0  0  0  0  0  0  0  0
   47.4990   31.0310   47.1840 C   0  0  0  0  0  0  0  0  0  0  0  0
   46.9660   30.9380   48.3970 N   0  0  0  0  0  0  0  0  0  0  0  0
   45.9400   31.7650   48.6970 C   0  0  0  0  0  0  0  0  0  0  0  0
   45.4080   32.6940   47.8480 N   0  0  0  0  0  0  0  0  0  0  0  0
   45.2300   31.8150   49.9620 N   0  0  0  0  0  0  0  0  0  0  0  0
   47.8850   34.0200   39.2780 C   0  0  0  0  0  0  0  0  0  0  0  0
   48.4070   32.6430   38.9780 C   0  0  0  0  0  0  0  0  0  0  0  0
   48.1090   32.3890   37.5210 C   0  0  0  0  0  0  0  0  0  0  0  0
   49.0270   32.9720   36.6600 C   0  0  0  0  0  0  0  0  0  0  0  0
   48.8060   32.7740   35.3140 C   0  0  0  0  0  0  0  0  0  0  0  0
   47.7820   32.0700   34.8570 N   0  0  0  0  0  0  0  0  0  0  0  0
   46.9080   31.5180   35.7170 C   0  0  0  0  0  0  0  0  0  0  0  0
   47.0960   31.6920   37.0250 N   0  0  0  0  0  0  0  0  0  0  0  0
   45.8010   30.7580   35.2450 N   0  0  0  0  0  0  0  0  0  0  0  0
   45.6350   29.4610   35.5770 C   0  0  0  0  0  0  0  0  0  0  0  0
   44.5400   28.7430   35.0980 C   0  0  0  0  0  0  0  0  0  0  0  0
   43.6220   29.3960   34.2690 C   0  0  0  0  0  0  0  0  0  0  0  0
   42.6120   28.7590   33.8200 O   0  0  0  0  0  0  0  0  0  0  0  0
   43.8060   30.6910   33.9500 N   0  0  0  0  0  0  0  0  0  0  0  0
   44.8890   31.3590   34.4370 C   0  0  0  0  0  0  0  0  0  0  0  0
   45.0840   32.5820   34.1500 O   0  0  0  0  0  0  0  0  0  0  0  0
   43.2114   33.3434   41.4609 H   0  0  0  0  0  0  0  0  0  0  0  0
   43.9687   36.7440   45.4496 H   0  0  0  0  0  0  0  0  0  0  0  0
   44.1962   36.2404   43.0018 H   0  0  0  0  0  0  0  0  0  0  0  0
   47.4370   32.0187   45.3109 H   0  0  0  0  0  0  0  0  0  0  0  0
   48.3353   30.3812   46.8868 H   0  0  0  0  0  0  0  0  0  0  0  0
   44.4579   32.4840   50.0931 H   0  0  0  0  0  0  0  0  0  0  0  0
   45.4982   31.1814   50.7285 H   0  0  0  0  0  0  0  0  0  0  0  0
   47.5984   34.5138   38.3378 H   0  0  0  0  0  0  0  0  0  0  0  0
   48.6710   34.6027   39.7807 H   0  0  0  0  0  0  0  0  0  0  0  0
   49.4911   32.5982   39.1591 H   0  0  0  0  0  0  0  0  0  0  0  0
   47.9353   31.8861   39.6219 H   0  0  0  0  0  0  0  0  0  0  0  0
   49.8813   33.5580   37.0297 H   0  0  0  0  0  0  0  0  0  0  0  0
   49.5071   33.2178   34.5919 H   0  0  0  0  0  0  0  0  0  0  0  0
   46.3688   28.9664   36.2303 H   0  0  0  0  0  0  0  0  0  0  0  0
   44.4010   27.6853   35.3664 H   0  0  0  0  0  0  0  0  0  0  0  0
   43.1310   31.1746   33.3405 H   0  0  0  0  0  0  0  0  0  0  0  0
  1  8  1  0
  2  1  2  0
  3  4  1  0
  3  2  1  0
  4  5  2  0
  5  1  1  0
  6 11  2  0
  7  6  1  0
  8  7  2  0
  8  9  1  0
  9 10  2  0
 10 11  1  0
 10 12  1  0
 12 17  1  0
 13 12  2  0
 13 14  1  0
 14 15  2  0
 15 16  1  0
 16 18  1  0
 17 16  2  0
 19  4  1  0
 20 19  1  0
 21 20  1  0
 22 21  2  0
 23 22  1  0
 24 23  2  0
 24 25  1  0
 25 26  2  0
 26 21  1  0
 27 28  1  0
 27 25  1  0
 29 28  2  0
 30 29  1  0
 31 30  2  0
 32 30  1  0
 32 33  1  0
 33 27  1  0
 34 33  2  0
  2 35  1  0
  6 36  1  0
  7 37  1  0
 13 38  1  0
 14 39  1  0
 18 40  1  0
 18 41  1  0
 19 42  1  0
 19 43  1  0
 20 44  1  0
 20 45  1  0
 22 46  1  0
 23 47  1  0
 28 48  1  0
 29 49  1  0
 32 50  1  0
M  END
>  <Score>  (1) 
-7.17484

$$$$
