
     RDKit          3D

 49 54  0  0  1  0  0  0  0  0999 V2000
   44.3040   35.2560   41.9170 C   0  0  0  0  0  0  0  0  0  0  0  0
   43.1050   35.8660   41.6540 C   0  0  0  0  0  0  0  0  0  0  0  0
   42.5310   35.1820   40.6070 C   0  0  0  0  0  0  0  0  0  0  0  0
   43.4120   34.2160   40.3120 N   0  0  0  0  0  0  0  0  0  0  0  0
   44.4910   34.2080   41.0580 N   0  0  0  0  0  0  0  0  0  0  0  0
   43.5310   33.7180   37.9480 N   0  0  0  0  0  0  0  0  0  0  0  0
   44.9330   33.5260   37.6530 C   0  0  0  0  0  0  0  0  0  0  0  0
   45.4520   32.4280   38.5170 C   0  0  0  0  0  0  0  0  0  0  0  0
   44.3340   32.1060   39.4630 C   0  0  0  0  0  0  0  0  0  0  0  0
   43.2950   33.1970   39.2690 C   0  0  1  0  0  0  0  0  0  0  0  0
   42.0110   32.5210   39.3220 N   0  0  0  0  0  0  0  0  0  0  0  0
   41.7420   31.3450   39.9290 C   0  0  0  0  0  0  0  0  0  0  0  0
   40.4320   31.0120   39.7770 N   0  0  0  0  0  0  0  0  0  0  0  0
   39.8540   31.9960   39.0590 C   0  0  0  0  0  0  0  0  0  0  0  0
   38.5840   32.2480   38.5800 C   0  0  0  0  0  0  0  0  0  0  0  0
   38.3090   33.3600   37.8670 N   0  0  0  0  0  0  0  0  0  0  0  0
   39.2810   34.2540   37.6080 C   0  0  0  0  0  0  0  0  0  0  0  0
   40.5300   34.0260   38.0660 N   0  0  0  0  0  0  0  0  0  0  0  0
   40.8490   32.9390   38.7760 C   0  0  0  0  0  0  0  0  0  0  0  0
   45.2380   35.6840   42.9740 C   0  0  0  0  0  0  0  0  0  0  0  0
   45.7670   36.7890   42.9010 O   0  0  0  0  0  0  0  0  0  0  0  0
   44.7780   35.0130   45.2450 C   0  0  0  0  0  0  0  0  0  0  0  0
   45.5260   34.8100   44.0840 C   0  0  0  0  0  0  0  0  0  0  0  0
   46.4570   33.8250   44.0670 C   0  0  0  0  0  0  0  0  0  0  0  0
   46.6290   33.0690   45.1880 N   0  0  0  0  0  0  0  0  0  0  0  0
   45.9170   33.2590   46.3020 C   0  0  0  0  0  0  0  0  0  0  0  0
   44.9790   34.2410   46.3380 N   0  0  0  0  0  0  0  0  0  0  0  0
   46.2160   32.3890   47.3800 N   0  0  0  0  0  0  0  0  0  0  0  0
   47.2850   31.7150   47.7660 N   0  0  0  0  0  0  0  0  0  0  0  0
   46.9950   31.0280   48.8990 C   0  0  0  0  0  0  0  0  0  0  0  0
   45.6870   31.2970   49.2160 C   0  0  0  0  0  0  0  0  0  0  0  0
   45.2150   32.1660   48.2310 C   0  0  0  0  0  0  0  0  0  0  0  0
   42.6827   36.7354   42.1791 H   0  0  0  0  0  0  0  0  0  0  0  0
   41.5650   35.3831   40.1208 H   0  0  0  0  0  0  0  0  0  0  0  0
   42.9540   33.2116   37.2613 H   0  0  0  0  0  0  0  0  0  0  0  0
   45.0556   33.2544   36.5941 H   0  0  0  0  0  0  0  0  0  0  0  0
   45.4898   34.4544   37.8482 H   0  0  0  0  0  0  0  0  0  0  0  0
   45.7078   31.5477   37.9091 H   0  0  0  0  0  0  0  0  0  0  0  0
   46.3676   32.7239   39.0501 H   0  0  0  0  0  0  0  0  0  0  0  0
   43.9038   31.1218   39.2257 H   0  0  0  0  0  0  0  0  0  0  0  0
   44.6861   32.0651   40.5043 H   0  0  0  0  0  0  0  0  0  0  0  0
   42.4817   30.7388   40.4725 H   0  0  0  0  0  0  0  0  0  0  0  0
   37.7789   31.5267   38.7840 H   0  0  0  0  0  0  0  0  0  0  0  0
   39.0596   35.1623   37.0283 H   0  0  0  0  0  0  0  0  0  0  0  0
   44.0181   35.8079   45.2716 H   0  0  0  0  0  0  0  0  0  0  0  0
   47.0614   33.6395   43.1668 H   0  0  0  0  0  0  0  0  0  0  0  0
   47.6810   30.3761   49.4598 H   0  0  0  0  0  0  0  0  0  0  0  0
   45.1229   30.9056   50.0754 H   0  0  0  0  0  0  0  0  0  0  0  0
   44.2017   32.5895   48.1686 H   0  0  0  0  0  0  0  0  0  0  0  0
  1 20  1  0
  2  1  1  0
  3  2  2  0
  4  3  1  0
  4  5  1  0
  5  1  2  0
  6 10  1  0
  7  6  1  0
  7  8  1  0
  8  9  1  0
 10 11  1  6
 10  9  1  0
 10  4  1  0
 11 12  1  0
 13 12  2  0
 14 13  1  0
 15 14  2  0
 16 15  1  0
 17 16  2  0
 17 18  1  0
 18 19  2  0
 19 14  1  0
 19 11  1  0
 20 23  1  0
 21 20  2  0
 22 27  2  0
 23 22  1  0
 24 23  2  0
 24 25  1  0
 25 26  2  0
 26 27  1  0
 26 28  1  0
 28 29  1  0
 28 32  1  0
 29 30  2  0
 30 31  1  0
 32 31  2  0
  2 33  1  0
  3 34  1  0
  6 35  1  0
  7 36  1  0
  7 37  1  0
  8 38  1  0
  8 39  1  0
  9 40  1  0
  9 41  1  0
 12 42  1  0
 15 43  1  0
 17 44  1  0
 22 45  1  0
 24 46  1  0
 30 47  1  0
 31 48  1  0
 32 49  1  0
M  END
>  <Score>  (1) 
-7.00375

$$$$
