
     RDKit          3D

 47 51  0  0  1  0  0  0  0  0999 V2000
   46.9050   34.6310   42.2470 N   0  0  0  0  0  0  0  0  0  0  0  0
   48.3480   34.7350   42.3140 C   0  0  0  0  0  0  0  0  0  0  0  0
   48.9720   34.0540   41.1520 C   0  0  0  0  0  0  0  0  0  0  0  0
   48.3560   34.5920   39.9420 N   0  0  0  0  0  0  0  0  0  0  0  0
   47.0590   33.9720   39.8890 C   0  0  0  0  0  0  0  0  0  0  0  0
   46.1730   34.3920   41.0340 C   0  0  1  0  0  0  0  0  0  0  0  0
   44.5000   35.8370   44.8390 C   0  0  0  0  0  0  0  0  0  0  0  0
   45.1960   35.7710   43.6390 C   0  0  0  0  0  0  0  0  0  0  0  0
   46.1480   34.7680   43.4440 C   0  0  0  0  0  0  0  0  0  0  0  0
   46.3220   33.9030   44.4900 N   0  0  0  0  0  0  0  0  0  0  0  0
   45.6540   33.9700   45.6360 C   0  0  0  0  0  0  0  0  0  0  0  0
   44.7460   34.9310   45.8150 N   0  0  0  0  0  0  0  0  0  0  0  0
   45.9030   33.0240   46.6700 N   0  0  0  0  0  0  0  0  0  0  0  0
   45.0030   32.8330   47.8130 C   0  0  0  0  0  0  0  0  0  0  0  0
   45.8020   31.9770   48.7830 C   0  0  0  0  0  0  0  0  0  0  0  0
   47.2380   32.1310   48.2950 C   0  0  0  0  0  0  0  0  0  0  0  0
   47.0260   32.1150   46.7920 C   0  0  0  0  0  0  0  0  0  0  0  0
   45.0600   33.4920   41.1710 N   0  0  0  0  0  0  0  0  0  0  0  0
   45.0590   32.1920   41.4700 C   0  0  0  0  0  0  0  0  0  0  0  0
   43.8000   31.6810   41.5100 N   0  0  0  0  0  0  0  0  0  0  0  0
   42.9450   32.6910   41.2270 C   0  0  0  0  0  0  0  0  0  0  0  0
   41.5830   32.8380   41.1100 C   0  0  0  0  0  0  0  0  0  0  0  0
   41.0420   34.0530   40.7990 N   0  0  0  0  0  0  0  0  0  0  0  0
   41.8570   35.1050   40.6080 C   0  0  0  0  0  0  0  0  0  0  0  0
   43.1910   34.9910   40.7150 N   0  0  0  0  0  0  0  0  0  0  0  0
   43.7410   33.7960   41.0220 C   0  0  0  0  0  0  0  0  0  0  0  0
   48.6352   35.7968   42.3085 H   0  0  0  0  0  0  0  0  0  0  0  0
   48.6972   34.2529   43.2390 H   0  0  0  0  0  0  0  0  0  0  0  0
   50.0546   34.2486   41.1401 H   0  0  0  0  0  0  0  0  0  0  0  0
   48.8182   32.9665   41.2131 H   0  0  0  0  0  0  0  0  0  0  0  0
   48.2672   35.6163   40.0037 H   0  0  0  0  0  0  0  0  0  0  0  0
   46.5716   34.2532   38.9438 H   0  0  0  0  0  0  0  0  0  0  0  0
   47.2047   32.8840   39.9598 H   0  0  0  0  0  0  0  0  0  0  0  0
   45.7425   35.3754   40.7942 H   0  0  0  0  0  0  0  0  0  0  0  0
   43.7490   36.6251   44.9967 H   0  0  0  0  0  0  0  0  0  0  0  0
   44.9981   36.5061   42.8450 H   0  0  0  0  0  0  0  0  0  0  0  0
   44.7429   33.7994   48.2696 H   0  0  0  0  0  0  0  0  0  0  0  0
   44.0514   32.3629   47.5240 H   0  0  0  0  0  0  0  0  0  0  0  0
   45.6952   32.3468   49.8135 H   0  0  0  0  0  0  0  0  0  0  0  0
   45.4674   30.9294   48.8053 H   0  0  0  0  0  0  0  0  0  0  0  0
   47.6813   33.0796   48.6320 H   0  0  0  0  0  0  0  0  0  0  0  0
   47.9321   31.3630   48.6670 H   0  0  0  0  0  0  0  0  0  0  0  0
   46.7737   31.1078   46.4288 H   0  0  0  0  0  0  0  0  0  0  0  0
   47.9102   32.3996   46.2028 H   0  0  0  0  0  0  0  0  0  0  0  0
   45.9685   31.6037   41.6614 H   0  0  0  0  0  0  0  0  0  0  0  0
   40.9245   31.9712   41.2679 H   0  0  0  0  0  0  0  0  0  0  0  0
   41.4206   36.0833   40.3579 H   0  0  0  0  0  0  0  0  0  0  0  0
  1  2  1  0
  1  9  1  0
  3  2  1  0
  4  3  1  0
  5  4  1  0
  5  6  1  0
  6 18  1  0
  6  1  1  0
  7 12  2  0
  8  7  1  0
  9  8  2  0
  9 10  1  0
 10 11  2  0
 11 12  1  0
 11 13  1  0
 13 17  1  0
 13 14  1  0
 14 15  1  0
 16 15  1  0
 17 16  1  0
 18 19  1  0
 19 20  2  0
 21 20  1  0
 22 21  2  0
 23 22  1  0
 24 25  1  0
 24 23  2  0
 25 26  2  0
 26 18  1  0
 26 21  1  0
  2 27  1  0
  2 28  1  0
  3 29  1  0
  3 30  1  0
  4 31  1  0
  5 32  1  0
  5 33  1  0
  6 34  1  6
  7 35  1  0
  8 36  1  0
 14 37  1  0
 14 38  1  0
 15 39  1  0
 15 40  1  0
 16 41  1  0
 16 42  1  0
 17 43  1  0
 17 44  1  0
 19 45  1  0
 22 46  1  0
 24 47  1  0
M  END
>  <Score>  (1) 
-7.16376

$$$$
