
     RDKit          3D

 35 38  0  0  0  0  0  0  0  0999 V2000
   44.4140   36.0090   44.7640 C   0  0  0  0  0  0  0  0  0  0  0  0
   45.0550   35.8750   43.4950 C   0  0  0  0  0  0  0  0  0  0  0  0
   45.9450   34.8440   43.3020 C   0  0  0  0  0  0  0  0  0  0  0  0
   46.1570   34.0170   44.3360 N   0  0  0  0  0  0  0  0  0  0  0  0
   45.5460   34.1510   45.5350 C   0  0  0  0  0  0  0  0  0  0  0  0
   44.6720   35.1370   45.7740 N   0  0  0  0  0  0  0  0  0  0  0  0
   45.8590   33.1900   46.5930 C   0  0  0  0  0  0  0  0  0  0  0  0
   45.0200   32.9600   47.6450 C   0  0  0  0  0  0  0  0  0  0  0  0
   45.5810   32.0110   48.4780 C   0  0  0  0  0  0  0  0  0  0  0  0
   46.7630   31.6820   47.9040 N   0  0  0  0  0  0  0  0  0  0  0  0
   46.9410   32.3780   46.7800 N   0  0  0  0  0  0  0  0  0  0  0  0
   49.0620   29.0080   48.5790 N   0  0  0  0  0  0  0  0  0  0  0  0
   47.9570   29.4740   48.0080 N   0  0  0  0  0  0  0  0  0  0  0  0
   47.7830   30.7690   48.2860 C   0  0  0  0  0  0  0  0  0  0  0  0
   48.8580   31.1720   49.1000 C   0  0  0  0  0  0  0  0  0  0  0  0
   49.6410   30.0420   49.2630 C   0  0  0  0  0  0  0  0  0  0  0  0
   46.6230   34.6430   42.0690 N   0  0  0  0  0  0  0  0  0  0  0  0
   47.8340   35.2320   41.9280 C   0  0  0  0  0  0  0  0  0  0  0  0
   48.5240   35.0510   40.7250 C   0  0  0  0  0  0  0  0  0  0  0  0
   47.9790   34.2870   39.7040 C   0  0  0  0  0  0  0  0  0  0  0  0
   48.8230   34.2260   38.5810 N   0  0  0  0  0  0  0  0  0  0  0  0
   46.7560   33.7090   39.8840 N   0  0  0  0  0  0  0  0  0  0  0  0
   46.1310   33.9150   41.0620 C   0  0  0  0  0  0  0  0  0  0  0  0
   45.0030   33.3830   41.2290 O   0  0  0  0  0  0  0  0  0  0  0  0
   43.7006   36.8304   44.9265 H   0  0  0  0  0  0  0  0  0  0  0  0
   44.8402   36.5859   42.6836 H   0  0  0  0  0  0  0  0  0  0  0  0
   44.0496   33.4528   47.8045 H   0  0  0  0  0  0  0  0  0  0  0  0
   45.1575   31.6081   49.4098 H   0  0  0  0  0  0  0  0  0  0  0  0
   49.4183   28.0435   48.5180 H   0  0  0  0  0  0  0  0  0  0  0  0
   49.0380   32.1733   49.5183 H   0  0  0  0  0  0  0  0  0  0  0  0
   50.5727   29.9849   49.8450 H   0  0  0  0  0  0  0  0  0  0  0  0
   48.2643   35.8376   42.7392 H   0  0  0  0  0  0  0  0  0  0  0  0
   49.5096   35.5197   40.5872 H   0  0  0  0  0  0  0  0  0  0  0  0
   49.7275   34.7186   38.5892 H   0  0  0  0  0  0  0  0  0  0  0  0
   48.5367   33.6887   37.7502 H   0  0  0  0  0  0  0  0  0  0  0  0
  1  6  2  0
  2  1  1  0
  3  2  2  0
  3  4  1  0
  4  5  2  0
  5  6  1  0
  5  7  1  0
  7 11  2  0
  7  8  1  0
  8  9  2  0
 10 14  1  0
 10  9  1  0
 11 10  1  0
 12 16  1  0
 13 14  2  0
 13 12  1  0
 14 15  1  0
 15 16  2  0
 17  3  1  0
 18 17  1  0
 19 18  2  0
 20 22  2  0
 20 19  1  0
 21 20  1  0
 22 23  1  0
 23 24  2  0
 23 17  1  0
  1 25  1  0
  2 26  1  0
  8 27  1  0
  9 28  1  0
 12 29  1  0
 15 30  1  0
 16 31  1  0
 18 32  1  0
 19 33  1  0
 21 34  1  0
 21 35  1  0
M  END
>  <Score>  (1) 
-7.42385

$$$$
