
     RDKit          3D

 50 54  0  0  1  0  0  0  0  0999 V2000
   48.4110   30.9920   49.5020 C   0  0  0  0  0  0  0  0  0  0  0  0
   49.6460   30.7250   50.2450 C   0  0  0  0  0  0  0  0  0  0  0  0
   50.0430   29.6190   50.9610 C   0  0  0  0  0  0  0  0  0  0  0  0
   51.2500   29.5620   51.5850 C   0  0  0  0  0  0  0  0  0  0  0  0
   52.0650   30.6210   51.4900 N   0  0  0  0  0  0  0  0  0  0  0  0
   51.7180   31.7300   50.7980 C   0  0  0  0  0  0  0  0  0  0  0  0
   50.5230   31.7650   50.1900 N   0  0  0  0  0  0  0  0  0  0  0  0
   52.6370   32.8270   50.7360 N   0  0  0  0  0  0  0  0  0  0  0  0
   53.9630   32.6100   50.7320 C   0  0  0  0  0  0  0  0  0  0  0  0
   54.6200   33.7640   50.6700 N   0  0  0  0  0  0  0  0  0  0  0  0
   53.7010   34.7480   50.6350 C   0  0  0  0  0  0  0  0  0  0  0  0
   53.7170   36.1140   50.5700 C   0  0  0  0  0  0  0  0  0  0  0  0
   54.8420   36.7000   50.5300 O   0  0  0  0  0  0  0  0  0  0  0  0
   52.5600   36.8020   50.5510 N   0  0  0  0  0  0  0  0  0  0  0  0
   51.3460   36.1970   50.5920 C   0  0  0  0  0  0  0  0  0  0  0  0
   50.2430   37.0920   50.5630 N   0  0  0  0  0  0  0  0  0  0  0  0
   51.3150   34.8360   50.6570 N   0  0  0  0  0  0  0  0  0  0  0  0
   52.4580   34.1590   50.6750 C   0  0  0  0  0  0  0  0  0  0  0  0
   48.5070   30.7830   48.0150 C   0  0  2  0  0  0  0  0  0  0  0  0
   47.1480   32.0960   46.3450 C   0  0  2  0  0  0  0  0  0  0  0  0
   46.8280   30.6600   45.9870 C   0  0  0  0  0  0  0  0  0  0  0  0
   47.2190   30.9850   47.3640 C   0  0  1  0  0  0  0  0  0  0  0  0
   45.9630   33.0410   46.4950 C   0  0  0  0  0  0  0  0  0  0  0  0
   45.2780   32.8850   47.5690 O   0  0  0  0  0  0  0  0  0  0  0  0
   44.5020   35.8460   44.7150 C   0  0  0  0  0  0  0  0  0  0  0  0
   45.1240   35.8060   43.4560 C   0  0  0  0  0  0  0  0  0  0  0  0
   46.0610   34.7890   43.2620 C   0  0  0  0  0  0  0  0  0  0  0  0
   46.2830   33.9440   44.2870 N   0  0  0  0  0  0  0  0  0  0  0  0
   45.6650   34.0150   45.4840 C   0  0  0  0  0  0  0  0  0  0  0  0
   44.7490   34.9830   45.7180 N   0  0  0  0  0  0  0  0  0  0  0  0
   49.0830   29.4050   47.7730 C   0  0  0  0  0  0  0  0  0  0  0  0
   47.6276   30.3248   49.8907 H   0  0  0  0  0  0  0  0  0  0  0  0
   48.1876   32.0590   49.6492 H   0  0  0  0  0  0  0  0  0  0  0  0
   49.3645   28.7560   51.0307 H   0  0  0  0  0  0  0  0  0  0  0  0
   51.5495   28.6690   52.1533 H   0  0  0  0  0  0  0  0  0  0  0  0
   54.4374   31.6185   50.7740 H   0  0  0  0  0  0  0  0  0  0  0  0
   52.5978   37.8302   50.5034 H   0  0  0  0  0  0  0  0  0  0  0  0
   49.2810   36.7249   50.5903 H   0  0  0  0  0  0  0  0  0  0  0  0
   50.4053   38.1080   50.5146 H   0  0  0  0  0  0  0  0  0  0  0  0
   49.1764   31.5306   47.5645 H   0  0  0  0  0  0  0  0  0  0  0  0
   47.8302   32.8663   45.9561 H   0  0  0  0  0  0  0  0  0  0  0  0
   45.7905   30.3686   45.7664 H   0  0  0  0  0  0  0  0  0  0  0  0
   47.1915   29.9534   45.2264 H   0  0  0  0  0  0  0  0  0  0  0  0
   46.7549   30.6790   48.3132 H   0  0  0  0  0  0  0  0  0  0  0  0
   43.7606   36.6387   44.8938 H   0  0  0  0  0  0  0  0  0  0  0  0
   44.8862   36.5349   42.6673 H   0  0  0  0  0  0  0  0  0  0  0  0
   46.5977   34.6820   42.3078 H   0  0  0  0  0  0  0  0  0  0  0  0
   49.2866   28.9180   48.7381 H   0  0  0  0  0  0  0  0  0  0  0  0
   48.3619   28.8012   47.2025 H   0  0  0  0  0  0  0  0  0  0  0  0
   50.0193   29.4940   47.2025 H   0  0  0  0  0  0  0  0  0  0  0  0
  1  2  1  0
  2  3  2  0
  3  4  1  0
  5  4  2  0
  6  5  1  0
  7  2  1  0
  7  6  2  0
  8  6  1  0
  9  8  1  0
 10  9  2  0
 11 10  1  0
 11 18  2  0
 12 11  1  0
 13 12  2  0
 14 12  1  0
 14 15  1  0
 15 17  2  0
 16 15  1  0
 17 18  1  0
 18  8  1  0
 19  1  1  0
 20 23  1  0
 20 22  1  0
 21 20  1  0
 21 22  1  0
 22 19  1  0
 23 24  2  0
 25 30  2  0
 26 25  1  0
 27 26  2  0
 27 28  1  0
 28 29  2  0
 29 30  1  0
 29 23  1  0
 31 19  1  0
  1 32  1  0
  1 33  1  0
  3 34  1  0
  4 35  1  0
  9 36  1  0
 14 37  1  0
 16 38  1  0
 16 39  1  0
 19 40  1  6
 20 41  1  6
 21 42  1  0
 21 43  1  0
 22 44  1  1
 25 45  1  0
 26 46  1  0
 27 47  1  0
 31 48  1  0
 31 49  1  0
 31 50  1  0
M  END
>  <Score>  (1) 
-7.34722

$$$$
