
     RDKit          3D

 44 47  0  0  1  0  0  0  0  0999 V2000
   44.6550   35.4910   44.5540 C   0  0  0  0  0  0  0  0  0  0  0  0
   45.1980   35.1470   43.3050 C   0  0  0  0  0  0  0  0  0  0  0  0
   46.0550   34.0570   43.2370 C   0  0  0  0  0  0  0  0  0  0  0  0
   46.3240   33.3890   44.3630 N   0  0  0  0  0  0  0  0  0  0  0  0
   45.7840   33.7460   45.5590 C   0  0  0  0  0  0  0  0  0  0  0  0
   44.9570   34.7850   45.6650 N   0  0  0  0  0  0  0  0  0  0  0  0
   46.1540   32.9330   46.7280 C   0  0  0  0  0  0  0  0  0  0  0  0
   45.2790   32.8070   47.7820 C   0  0  0  0  0  0  0  0  0  0  0  0
   45.8400   32.0090   48.7470 C   0  0  0  0  0  0  0  0  0  0  0  0
   47.0460   31.6670   48.2540 N   0  0  0  0  0  0  0  0  0  0  0  0
   47.2460   32.2090   47.0550 N   0  0  0  0  0  0  0  0  0  0  0  0
   49.4270   29.1800   49.2890 N   0  0  0  0  0  0  0  0  0  0  0  0
   48.3160   29.5230   48.6380 N   0  0  0  0  0  0  0  0  0  0  0  0
   48.1050   30.8560   48.7750 C   0  0  0  0  0  0  0  0  0  0  0  0
   49.1240   31.3590   49.5410 C   0  0  0  0  0  0  0  0  0  0  0  0
   49.9280   30.2900   49.8430 C   0  0  0  0  0  0  0  0  0  0  0  0
   46.6610   33.6420   41.9520 C   0  0  0  0  0  0  0  0  0  0  0  0
   47.1760   34.8990   41.2640 C   0  0  0  0  0  0  0  0  0  0  0  0
   48.6480   35.0110   41.2270 C   0  0  1  0  0  0  0  0  0  0  0  0
   49.2400   36.2570   41.8670 C   0  0  0  0  0  0  0  0  0  0  0  0
   49.4880   34.8880   42.4410 C   0  0  2  0  0  0  0  0  0  0  0  0
   50.7540   34.2280   42.2940 N   0  0  0  0  0  0  0  0  0  0  0  0
   50.8430   32.8150   42.0210 C   0  0  0  0  0  0  0  0  0  0  0  0
   49.8150   32.1350   42.4230 N   0  0  0  0  0  0  0  0  0  0  0  0
   52.0300   32.3410   41.3510 N   0  0  0  0  0  0  0  0  0  0  0  0
   49.8080   31.1210   42.2620 H   0  0  0  0  0  0  0  0  0  0  0  0
   43.9721   36.3501   44.6285 H   0  0  0  0  0  0  0  0  0  0  0  0
   44.9504   35.7267   42.4035 H   0  0  0  0  0  0  0  0  0  0  0  0
   44.2845   33.2733   47.8419 H   0  0  0  0  0  0  0  0  0  0  0  0
   45.4012   31.7134   49.7114 H   0  0  0  0  0  0  0  0  0  0  0  0
   49.8271   28.2331   49.3539 H   0  0  0  0  0  0  0  0  0  0  0  0
   49.2674   32.4049   49.8500 H   0  0  0  0  0  0  0  0  0  0  0  0
   50.8451   30.3378   50.4485 H   0  0  0  0  0  0  0  0  0  0  0  0
   47.4931   32.9465   42.1360 H   0  0  0  0  0  0  0  0  0  0  0  0
   45.9199   33.1298   41.3207 H   0  0  0  0  0  0  0  0  0  0  0  0
   46.8040   34.9023   40.2288 H   0  0  0  0  0  0  0  0  0  0  0  0
   46.8095   35.7531   41.8523 H   0  0  0  0  0  0  0  0  0  0  0  0
   48.6792   34.5022   40.2522 H   0  0  0  0  0  0  0  0  0  0  0  0
   50.0532   36.8034   41.3668 H   0  0  0  0  0  0  0  0  0  0  0  0
   48.8423   37.2089   42.2487 H   0  0  0  0  0  0  0  0  0  0  0  0
   49.3713   34.4741   43.4535 H   0  0  0  0  0  0  0  0  0  0  0  0
   51.6204   34.7773   42.3858 H   0  0  0  0  0  0  0  0  0  0  0  0
   52.1349   31.3391   41.1365 H   0  0  0  0  0  0  0  0  0  0  0  0
   52.7723   33.0046   41.0873 H   0  0  0  0  0  0  0  0  0  0  0  0
  1  6  2  0
  2  1  1  0
  3  2  2  0
  3  4  1  0
  4  5  2  0
  5  6  1  0
  5  7  1  0
  7 11  2  0
  7  8  1  0
  8  9  2  0
 10  9  1  0
 10 14  1  0
 11 10  1  0
 12 16  1  0
 13 14  2  0
 13 12  1  0
 14 15  1  0
 15 16  2  0
 17  3  1  0
 18 17  1  0
 19 18  1  0
 19 20  1  0
 19 21  1  0
 20 21  1  0
 22 21  1  0
 23 22  1  0
 23 24  2  0
 25 23  1  0
 26 24  1  0
  1 27  1  0
  2 28  1  0
  8 29  1  0
  9 30  1  0
 12 31  1  0
 15 32  1  0
 16 33  1  0
 17 34  1  0
 17 35  1  0
 18 36  1  0
 18 37  1  0
 19 38  1  6
 20 39  1  0
 20 40  1  0
 21 41  1  1
 22 42  1  0
 25 43  1  0
 25 44  1  0
M  END
>  <Score>  (1) 
-7.32596

$$$$
