
     RDKit          3D

 57 61  0  0  0  0  0  0  0  0999 V2000
   46.1790   31.8780   47.2990 C   0  0  0  0  0  0  0  0  0  0  0  0
   44.5580   34.9540   46.1970 C   0  0  0  0  0  0  0  0  0  0  0  0
   44.7850   34.9660   44.8140 C   0  0  0  0  0  0  0  0  0  0  0  0
   45.5080   33.9000   44.2410 C   0  0  0  0  0  0  0  0  0  0  0  0
   45.9440   32.9230   45.0610 N   0  0  0  0  0  0  0  0  0  0  0  0
   45.6970   32.9560   46.4040 C   0  0  0  0  0  0  0  0  0  0  0  0
   45.0160   33.9570   46.9610 N   0  0  0  0  0  0  0  0  0  0  0  0
   45.7140   33.9540   42.8420 N   0  0  0  0  0  0  0  0  0  0  0  0
   44.9600   33.7580   41.7690 C   0  0  0  0  0  0  0  0  0  0  0  0
   45.6830   33.9450   40.6400 N   0  0  0  0  0  0  0  0  0  0  0  0
   46.9300   34.2690   41.0010 C   0  0  0  0  0  0  0  0  0  0  0  0
   48.0470   34.5600   40.2420 C   0  0  0  0  0  0  0  0  0  0  0  0
   48.0590   34.5630   39.0060 O   0  0  0  0  0  0  0  0  0  0  0  0
   49.2150   34.8640   40.8550 N   0  0  0  0  0  0  0  0  0  0  0  0
   49.2220   34.8660   42.1970 C   0  0  0  0  0  0  0  0  0  0  0  0
   50.3860   35.1700   42.9530 N   0  0  0  0  0  0  0  0  0  0  0  0
   48.1500   34.5880   42.9340 N   0  0  0  0  0  0  0  0  0  0  0  0
   46.9510   34.2760   42.3880 C   0  0  0  0  0  0  0  0  0  0  0  0
   47.3570   32.3540   48.1210 C   0  0  0  0  0  0  0  0  0  0  0  0
   45.1010   31.3780   48.2290 C   0  0  0  0  0  0  0  0  0  0  0  0
   46.6750   30.7490   46.4090 C   0  0  0  0  0  0  0  0  0  0  0  0
   45.7060   29.5940   46.4020 C   0  0  0  0  0  0  0  0  0  0  0  0
   45.9840   28.5040   47.1510 C   0  0  0  0  0  0  0  0  0  0  0  0
   44.5770   27.3470   46.8690 S   0  0  0  0  0  0  0  0  0  0  0  0
   43.8140   28.6250   45.7150 C   0  0  0  0  0  0  0  0  0  0  0  0
   44.5910   29.4860   45.7530 N   0  0  0  0  0  0  0  0  0  0  0  0
   42.5460   28.4560   45.0020 N   0  0  0  0  0  0  0  0  0  0  0  0
   41.2640   28.2450   45.5850 C   0  0  0  0  0  0  0  0  0  0  0  0
   40.2220   29.2340   45.1180 C   0  0  0  0  0  0  0  0  0  0  0  0
   40.2540   29.4050   43.6120 C   0  0  0  0  0  0  0  0  0  0  0  0
   41.6630   29.7080   43.1920 C   0  0  0  0  0  0  0  0  0  0  0  0
   42.5190   28.4960   43.5800 C   0  0  0  0  0  0  0  0  0  0  0  0
   43.9946   35.7771   46.6608 H   0  0  0  0  0  0  0  0  0  0  0  0
   44.4074   35.7890   44.1895 H   0  0  0  0  0  0  0  0  0  0  0  0
   43.8955   33.4820   41.7930 H   0  0  0  0  0  0  0  0  0  0  0  0
   50.0632   35.0846   40.3139 H   0  0  0  0  0  0  0  0  0  0  0  0
   50.3487   35.1604   43.9823 H   0  0  0  0  0  0  0  0  0  0  0  0
   51.2671   35.4000   42.4718 H   0  0  0  0  0  0  0  0  0  0  0  0
   47.1201   32.2583   49.1909 H   0  0  0  0  0  0  0  0  0  0  0  0
   48.2401   31.7421   47.8848 H   0  0  0  0  0  0  0  0  0  0  0  0
   47.5671   33.4076   47.8848 H   0  0  0  0  0  0  0  0  0  0  0  0
   45.4189   31.5254   49.2717 H   0  0  0  0  0  0  0  0  0  0  0  0
   44.1712   31.9368   48.0466 H   0  0  0  0  0  0  0  0  0  0  0  0
   44.9270   30.3073   48.0466 H   0  0  0  0  0  0  0  0  0  0  0  0
   46.7910   31.1262   45.3822 H   0  0  0  0  0  0  0  0  0  0  0  0
   47.6384   30.3929   46.8027 H   0  0  0  0  0  0  0  0  0  0  0  0
   46.8628   28.3418   47.7924 H   0  0  0  0  0  0  0  0  0  0  0  0
   40.9247   27.2318   45.3238 H   0  0  0  0  0  0  0  0  0  0  0  0
   41.3753   28.3794   46.6711 H   0  0  0  0  0  0  0  0  0  0  0  0
   39.2268   28.8720   45.4156 H   0  0  0  0  0  0  0  0  0  0  0  0
   40.4388   30.2081   45.5807 H   0  0  0  0  0  0  0  0  0  0  0  0
   39.9144   28.4780   43.1269 H   0  0  0  0  0  0  0  0  0  0  0  0
   39.5887   30.2287   43.3141 H   0  0  0  0  0  0  0  0  0  0  0  0
   42.0260   30.6079   43.7101 H   0  0  0  0  0  0  0  0  0  0  0  0
   41.7174   29.8957   42.1095 H   0  0  0  0  0  0  0  0  0  0  0  0
   42.0719   27.5728   43.1827 H   0  0  0  0  0  0  0  0  0  0  0  0
   43.5348   28.5789   43.1661 H   0  0  0  0  0  0  0  0  0  0  0  0
  1 19  1  0
  1 20  1  0
  2  7  2  0
  3  2  1  0
  4  3  2  0
  4  5  1  0
  5  6  2  0
  6  7  1  0
  6  1  1  0
  8  4  1  0
  9  8  1  0
 10 11  1  0
 10  9  2  0
 11 18  2  0
 12 14  1  0
 12 11  1  0
 13 12  2  0
 14 15  1  0
 15 17  2  0
 15 16  1  0
 18  8  1  0
 18 17  1  0
 21  1  1  0
 22 21  1  0
 22 23  2  0
 24 23  1  0
 25 26  2  0
 25 24  1  0
 26 22  1  0
 27 28  1  0
 27 25  1  0
 29 28  1  0
 30 29  1  0
 31 32  1  0
 31 30  1  0
 32 27  1  0
  2 33  1  0
  3 34  1  0
  9 35  1  0
 14 36  1  0
 16 37  1  0
 16 38  1  0
 19 39  1  0
 19 40  1  0
 19 41  1  0
 20 42  1  0
 20 43  1  0
 20 44  1  0
 21 45  1  0
 21 46  1  0
 23 47  1  0
 28 48  1  0
 28 49  1  0
 29 50  1  0
 29 51  1  0
 30 52  1  0
 30 53  1  0
 31 54  1  0
 31 55  1  0
 32 56  1  0
 32 57  1  0
M  END
>  <Score>  (1) 
-7.77597

$$$$
