
     RDKit          3D

 46 50  0  0  0  0  0  0  0  0999 V2000
   46.7360   34.6720   41.6760 C   0  0  0  0  0  0  0  0  0  0  0  0
   44.6000   35.8370   44.5140 C   0  0  0  0  0  0  0  0  0  0  0  0
   45.1940   35.7690   43.2510 C   0  0  0  0  0  0  0  0  0  0  0  0
   46.0920   34.7630   43.0100 C   0  0  0  0  0  0  0  0  0  0  0  0
   46.3620   33.8780   44.0130 N   0  0  0  0  0  0  0  0  0  0  0  0
   45.7740   33.9620   45.2330 C   0  0  0  0  0  0  0  0  0  0  0  0
   44.8840   34.9590   45.4700 N   0  0  0  0  0  0  0  0  0  0  0  0
   46.0760   33.0140   46.2860 C   0  0  0  0  0  0  0  0  0  0  0  0
   45.3710   33.0660   47.4940 C   0  0  0  0  0  0  0  0  0  0  0  0
   45.6160   32.1950   48.5390 C   0  0  0  0  0  0  0  0  0  0  0  0
   46.6010   31.2970   48.2690 C   0  0  0  0  0  0  0  0  0  0  0  0
   47.3300   31.1870   47.1150 C   0  0  0  0  0  0  0  0  0  0  0  0
   47.0100   32.0880   46.1580 N   0  0  0  0  0  0  0  0  0  0  0  0
   44.3660   34.0550   47.6370 N   0  0  0  0  0  0  0  0  0  0  0  0
   48.1440   35.2400   41.6820 C   0  0  0  0  0  0  0  0  0  0  0  0
   49.1570   34.2090   41.9710 C   0  0  0  0  0  0  0  0  0  0  0  0
   50.4100   34.5130   42.3610 N   0  0  0  0  0  0  0  0  0  0  0  0
   51.0640   33.4060   42.5380 O   0  0  0  0  0  0  0  0  0  0  0  0
   50.2710   32.3850   42.2720 C   0  0  0  0  0  0  0  0  0  0  0  0
   49.0590   32.8610   41.9110 N   0  0  0  0  0  0  0  0  0  0  0  0
   50.7730   31.0550   42.3950 N   0  0  0  0  0  0  0  0  0  0  0  0
   50.7070   30.1320   43.3700 N   0  0  0  0  0  0  0  0  0  0  0  0
   51.3520   29.0180   42.9860 C   0  0  0  0  0  0  0  0  0  0  0  0
   51.8460   29.2510   41.7140 C   0  0  0  0  0  0  0  0  0  0  0  0
   51.4610   30.5610   41.3600 C   0  0  0  0  0  0  0  0  0  0  0  0
   51.8490   31.0760   40.0480 C   0  0  0  0  0  0  0  0  0  0  0  0
   53.1120   31.1870   39.5160 C   0  0  0  0  0  0  0  0  0  0  0  0
   53.0450   31.7180   38.2830 N   0  0  0  0  0  0  0  0  0  0  0  0
   51.7520   31.9600   37.9950 C   0  0  0  0  0  0  0  0  0  0  0  0
   51.0710   31.5670   39.0660 N   0  0  0  0  0  0  0  0  0  0  0  0
   46.1298   35.2341   40.9503 H   0  0  0  0  0  0  0  0  0  0  0  0
   46.8008   33.6084   41.4028 H   0  0  0  0  0  0  0  0  0  0  0  0
   43.8773   36.6396   44.7226 H   0  0  0  0  0  0  0  0  0  0  0  0
   44.9470   36.5040   42.4708 H   0  0  0  0  0  0  0  0  0  0  0  0
   45.0693   32.2252   49.4930 H   0  0  0  0  0  0  0  0  0  0  0  0
   46.8388   30.5784   49.0671 H   0  0  0  0  0  0  0  0  0  0  0  0
   48.1131   30.4269   46.9772 H   0  0  0  0  0  0  0  0  0  0  0  0
   43.8287   34.1203   48.5133 H   0  0  0  0  0  0  0  0  0  0  0  0
   44.1729   34.7085   46.8646 H   0  0  0  0  0  0  0  0  0  0  0  0
   48.3543   35.6769   40.6946 H   0  0  0  0  0  0  0  0  0  0  0  0
   48.1990   36.0003   42.4750 H   0  0  0  0  0  0  0  0  0  0  0  0
   51.4662   28.0942   43.5722 H   0  0  0  0  0  0  0  0  0  0  0  0
   52.4272   28.5493   41.0977 H   0  0  0  0  0  0  0  0  0  0  0  0
   54.0399   30.8858   40.0242 H   0  0  0  0  0  0  0  0  0  0  0  0
   51.3454   32.3919   37.0686 H   0  0  0  0  0  0  0  0  0  0  0  0
   50.0456   31.6320   39.1378 H   0  0  0  0  0  0  0  0  0  0  0  0
  1 15  1  0
  1  4  1  0
  2  7  2  0
  3  2  1  0
  4  3  2  0
  4  5  1  0
  5  6  2  0
  6  7  1  0
  6  8  1  0
  8  9  2  0
  9 14  1  0
  9 10  1  0
 11 10  2  0
 12 11  1  0
 13  8  1  0
 13 12  2  0
 15 16  1  0
 16 17  2  0
 17 18  1  0
 19 21  1  0
 19 18  1  0
 20 16  1  0
 20 19  2  0
 21 22  1  0
 23 22  2  0
 24 23  1  0
 25 24  2  0
 25 21  1  0
 26 25  1  0
 27 26  2  0
 28 27  1  0
 29 28  2  0
 29 30  1  0
 30 26  1  0
  1 31  1  0
  1 32  1  0
  2 33  1  0
  3 34  1  0
 10 35  1  0
 11 36  1  0
 12 37  1  0
 14 38  1  0
 14 39  1  0
 15 40  1  0
 15 41  1  0
 23 42  1  0
 24 43  1  0
 27 44  1  0
 29 45  1  0
 30 46  1  0
M  END
>  <Score>  (1) 
-7.48089

$$$$
