
     RDKit          3D

 42 46  0  0  1  0  0  0  0  0999 V2000
   45.7250   33.7440   45.5260 C   0  0  0  0  0  0  0  0  0  0  0  0
   46.5160   33.7610   44.3800 C   0  0  0  0  0  0  0  0  0  0  0  0
   46.3210   34.7660   43.4390 C   0  0  0  0  0  0  0  0  0  0  0  0
   45.3610   35.6970   43.6750 N   0  0  0  0  0  0  0  0  0  0  0  0
   44.6030   35.6630   44.7950 C   0  0  0  0  0  0  0  0  0  0  0  0
   44.7900   34.6890   45.7110 N   0  0  0  0  0  0  0  0  0  0  0  0
   47.1520   34.7760   42.2470 C   0  0  0  0  0  0  0  0  0  0  0  0
   48.4180   35.3650   42.1270 C   0  0  0  0  0  0  0  0  0  0  0  0
   48.8780   35.1790   40.8850 N   0  0  0  0  0  0  0  0  0  0  0  0
   47.9350   34.4860   40.2120 C   0  0  0  0  0  0  0  0  0  0  0  0
   47.9120   34.0360   38.8950 C   0  0  0  0  0  0  0  0  0  0  0  0
   46.8270   33.3410   38.4330 C   0  0  0  0  0  0  0  0  0  0  0  0
   45.7120   33.0550   39.2390 C   0  0  0  0  0  0  0  0  0  0  0  0
   45.8000   33.5320   40.5350 C   0  0  0  0  0  0  0  0  0  0  0  0
   46.8400   34.2160   41.0330 C   0  0  0  0  0  0  0  0  0  0  0  0
   45.8690   32.7730   46.4970 O   0  0  0  0  0  0  0  0  0  0  0  0
   45.1370   32.6980   47.6860 C   0  0  1  0  0  0  0  0  0  0  0  0
   44.8930   31.3310   48.2260 C   0  0  0  0  0  0  0  0  0  0  0  0
   45.9180   32.2670   48.8850 C   0  0  1  0  0  0  0  0  0  0  0  0
   47.3490   31.8710   48.6840 C   0  0  0  0  0  0  0  0  0  0  0  0
   48.1150   32.6490   48.0510 O   0  0  0  0  0  0  0  0  0  0  0  0
   47.9500   30.7260   49.1110 O   0  0  0  0  0  0  0  0  0  0  0  0
   49.1210   30.7630   49.8490 C   0  0  0  0  0  0  0  0  0  0  0  0
   50.0010   31.8310   49.8560 C   0  0  0  0  0  0  0  0  0  0  0  0
   51.0050   31.4280   50.7190 C   0  0  0  0  0  0  0  0  0  0  0  0
   50.7130   30.1700   51.1920 C   0  0  0  0  0  0  0  0  0  0  0  0
   49.5690   29.8230   50.6360 O   0  0  0  0  0  0  0  0  0  0  0  0
   47.2844   32.9901   44.2214 H   0  0  0  0  0  0  0  0  0  0  0  0
   43.8326   36.4307   44.9597 H   0  0  0  0  0  0  0  0  0  0  0  0
   48.9503   35.8972   42.9291 H   0  0  0  0  0  0  0  0  0  0  0  0
   49.7817   35.5034   40.5122 H   0  0  0  0  0  0  0  0  0  0  0  0
   48.7628   34.2382   38.2278 H   0  0  0  0  0  0  0  0  0  0  0  0
   46.8279   32.9926   37.3896 H   0  0  0  0  0  0  0  0  0  0  0  0
   44.8392   32.4967   38.8694 H   0  0  0  0  0  0  0  0  0  0  0  0
   44.9523   33.3350   41.2077 H   0  0  0  0  0  0  0  0  0  0  0  0
   44.4834   33.5516   47.4531 H   0  0  0  0  0  0  0  0  0  0  0  0
   43.9470   31.1000   48.7376 H   0  0  0  0  0  0  0  0  0  0  0  0
   44.9156   30.3112   47.8143 H   0  0  0  0  0  0  0  0  0  0  0  0
   46.0896   32.6949   49.8837 H   0  0  0  0  0  0  0  0  0  0  0  0
   49.9211   32.7792   49.3042 H   0  0  0  0  0  0  0  0  0  0  0  0
   51.8940   32.0191   50.9841 H   0  0  0  0  0  0  0  0  0  0  0  0
   51.3137   29.5728   51.8938 H   0  0  0  0  0  0  0  0  0  0  0  0
  1  6  1  0
  1 16  1  0
  2  1  2  0
  3  4  2  0
  3  2  1  0
  4  5  1  0
  5  6  2  0
  7  3  1  0
  8  7  2  0
  9  8  1  0
 10  9  1  0
 10 15  2  0
 11 10  1  0
 12 11  2  0
 12 13  1  0
 13 14  2  0
 14 15  1  0
 15  7  1  0
 16 17  1  0
 17 18  1  0
 17 19  1  0
 18 19  1  0
 20 19  1  0
 20 22  1  0
 21 20  2  0
 22 23  1  0
 23 24  2  0
 23 27  1  0
 24 25  1  0
 25 26  2  0
 27 26  1  0
  2 28  1  0
  5 29  1  0
  8 30  1  0
  9 31  1  0
 11 32  1  0
 12 33  1  0
 13 34  1  0
 14 35  1  0
 17 36  1  1
 18 37  1  0
 18 38  1  0
 19 39  1  1
 24 40  1  0
 25 41  1  0
 26 42  1  0
M  END
>  <Score>  (1) 
-7.12381

$$$$
