
     RDKit          3D

 51 54  0  0  0  0  0  0  0  0999 V2000
   44.5450   35.9020   44.7440 C   0  0  0  0  0  0  0  0  0  0  0  0
   45.1150   35.8620   43.5010 C   0  0  0  0  0  0  0  0  0  0  0  0
   46.0210   34.8850   43.0660 C   0  0  0  0  0  0  0  0  0  0  0  0
   46.2360   34.0330   44.0820 N   0  0  0  0  0  0  0  0  0  0  0  0
   45.7260   34.0090   45.2960 C   0  0  0  0  0  0  0  0  0  0  0  0
   44.8750   34.9580   45.6070 N   0  0  0  0  0  0  0  0  0  0  0  0
   46.0330   32.9220   46.1530 N   0  0  0  0  0  0  0  0  0  0  0  0
   45.2820   32.7540   47.2810 C   0  0  0  0  0  0  0  0  0  0  0  0
   45.5810   31.6980   48.1170 C   0  0  0  0  0  0  0  0  0  0  0  0
   46.6490   30.8650   47.7370 C   0  0  0  0  0  0  0  0  0  0  0  0
   46.9450   29.8850   48.4930 O   0  0  0  0  0  0  0  0  0  0  0  0
   47.3460   31.0810   46.6200 N   0  0  0  0  0  0  0  0  0  0  0  0
   47.0300   32.1170   45.8310 C   0  0  0  0  0  0  0  0  0  0  0  0
   47.7220   32.2660   44.8080 O   0  0  0  0  0  0  0  0  0  0  0  0
   46.7190   34.7880   41.8830 C   0  0  0  0  0  0  0  0  0  0  0  0
   47.9340   35.4790   41.8570 C   0  0  0  0  0  0  0  0  0  0  0  0
   48.8180   35.4870   40.7820 C   0  0  0  0  0  0  0  0  0  0  0  0
   48.4700   34.7680   39.6690 C   0  0  0  0  0  0  0  0  0  0  0  0
   47.2730   34.0690   39.6450 C   0  0  0  0  0  0  0  0  0  0  0  0
   46.8740   33.4340   38.5190 C   0  0  0  0  0  0  0  0  0  0  0  0
   45.6720   32.8260   38.4120 C   0  0  0  0  0  0  0  0  0  0  0  0
   44.8910   32.8980   39.5370 C   0  0  0  0  0  0  0  0  0  0  0  0
   45.2420   33.5240   40.7230 C   0  0  0  0  0  0  0  0  0  0  0  0
   46.4530   34.1100   40.7460 C   0  0  0  0  0  0  0  0  0  0  0  0
   44.0370   33.5560   41.5700 C   0  0  0  0  0  0  0  0  0  0  0  0
   43.3010   34.8250   41.6780 C   0  0  0  0  0  0  0  0  0  0  0  0
   44.0790   32.4890   42.6070 C   0  0  0  0  0  0  0  0  0  0  0  0
   42.8430   32.8760   40.8950 C   0  0  0  0  0  0  0  0  0  0  0  0
   44.8460   31.4320   49.3620 C   0  0  0  0  0  0  0  0  0  0  0  0
   43.8338   36.6958   45.0164 H   0  0  0  0  0  0  0  0  0  0  0  0
   44.8420   36.6557   42.7900 H   0  0  0  0  0  0  0  0  0  0  0  0
   44.4585   33.4439   47.5174 H   0  0  0  0  0  0  0  0  0  0  0  0
   48.1230   30.4546   46.3654 H   0  0  0  0  0  0  0  0  0  0  0  0
   48.2113   36.0579   42.7503 H   0  0  0  0  0  0  0  0  0  0  0  0
   49.7619   36.0502   40.8245 H   0  0  0  0  0  0  0  0  0  0  0  0
   49.1390   34.7454   38.7961 H   0  0  0  0  0  0  0  0  0  0  0  0
   47.5555   33.4117   37.6558 H   0  0  0  0  0  0  0  0  0  0  0  0
   45.3457   32.3137   37.4949 H   0  0  0  0  0  0  0  0  0  0  0  0
   43.9020   32.4183   39.4947 H   0  0  0  0  0  0  0  0  0  0  0  0
   43.1557   35.0755   42.7392 H   0  0  0  0  0  0  0  0  0  0  0  0
   43.8754   35.6249   41.1878 H   0  0  0  0  0  0  0  0  0  0  0  0
   42.3215   34.7237   41.1878 H   0  0  0  0  0  0  0  0  0  0  0  0
   44.0609   32.9481   43.6064 H   0  0  0  0  0  0  0  0  0  0  0  0
   43.2061   31.8299   42.4905 H   0  0  0  0  0  0  0  0  0  0  0  0
   45.0010   31.9005   42.4905 H   0  0  0  0  0  0  0  0  0  0  0  0
   42.1597   32.4868   41.6642 H   0  0  0  0  0  0  0  0  0  0  0  0
   42.3112   33.6067   40.2679 H   0  0  0  0  0  0  0  0  0  0  0  0
   43.2002   32.0458   40.2679 H   0  0  0  0  0  0  0  0  0  0  0  0
   45.4886   31.6646   50.2240 H   0  0  0  0  0  0  0  0  0  0  0  0
   43.9441   32.0607   49.3968 H   0  0  0  0  0  0  0  0  0  0  0  0
   44.5554   30.3717   49.3968 H   0  0  0  0  0  0  0  0  0  0  0  0
  1  6  2  0
  2  1  1  0
  3  2  2  0
  3  4  1  0
  4  5  2  0
  5  6  1  0
  5  7  1  0
  7  8  1  0
  8  9  2  0
  9 29  1  0
 10  9  1  0
 10 11  2  0
 12 10  1  0
 13  7  1  0
 13 12  1  0
 14 13  2  0
 15  3  1  0
 16 15  2  0
 17 16  1  0
 18 17  2  0
 19 18  1  0
 19 24  2  0
 20 19  1  0
 21 20  2  0
 21 22  1  0
 22 23  2  0
 23 24  1  0
 23 25  1  0
 24 15  1  0
 25 26  1  0
 25 27  1  0
 28 25  1  0
  1 30  1  0
  2 31  1  0
  8 32  1  0
 12 33  1  0
 16 34  1  0
 17 35  1  0
 18 36  1  0
 20 37  1  0
 21 38  1  0
 22 39  1  0
 26 40  1  0
 26 41  1  0
 26 42  1  0
 27 43  1  0
 27 44  1  0
 27 45  1  0
 28 46  1  0
 28 47  1  0
 28 48  1  0
 29 49  1  0
 29 50  1  0
 29 51  1  0
M  END
>  <Score>  (1) 
-8.2261

$$$$
