
     RDKit          3D

 39 42  0  0  0  0  0  0  0  0999 V2000
   47.2220   34.9030   41.9520 C   0  0  0  0  0  0  0  0  0  0  0  0
   48.4740   35.4990   41.7990 C   0  0  0  0  0  0  0  0  0  0  0  0
   48.9360   35.2610   40.5650 N   0  0  0  0  0  0  0  0  0  0  0  0
   48.0210   34.5300   39.9160 C   0  0  0  0  0  0  0  0  0  0  0  0
   48.0250   34.0310   38.6250 C   0  0  0  0  0  0  0  0  0  0  0  0
   46.9320   33.2960   38.2080 C   0  0  0  0  0  0  0  0  0  0  0  0
   45.8160   33.0160   38.9890 C   0  0  0  0  0  0  0  0  0  0  0  0
   45.8820   33.5440   40.2600 C   0  0  0  0  0  0  0  0  0  0  0  0
   46.9290   34.2840   40.7530 C   0  0  0  0  0  0  0  0  0  0  0  0
   44.5690   35.8960   44.3680 C   0  0  0  0  0  0  0  0  0  0  0  0
   45.3850   35.8880   43.2140 C   0  0  0  0  0  0  0  0  0  0  0  0
   46.3760   34.9200   43.1370 C   0  0  0  0  0  0  0  0  0  0  0  0
   46.5170   34.0350   44.1570 N   0  0  0  0  0  0  0  0  0  0  0  0
   45.7220   34.0690   45.2440 C   0  0  0  0  0  0  0  0  0  0  0  0
   44.7520   34.9860   45.3630 N   0  0  0  0  0  0  0  0  0  0  0  0
   45.9210   33.1140   46.2780 N   0  0  0  0  0  0  0  0  0  0  0  0
   46.9420   32.0830   46.2430 C   0  0  0  0  0  0  0  0  0  0  0  0
   46.1750   30.7700   46.2450 C   0  0  0  0  0  0  0  0  0  0  0  0
   45.5240   30.6350   47.6000 C   0  0  0  0  0  0  0  0  0  0  0  0
   45.3490   31.9250   48.3320 C   0  0  0  0  0  0  0  0  0  0  0  0
   45.0850   33.1190   47.4630 C   0  0  0  0  0  0  0  0  0  0  0  0
   49.0008   36.0760   42.5733 H   0  0  0  0  0  0  0  0  0  0  0  0
   49.8364   35.5834   40.1825 H   0  0  0  0  0  0  0  0  0  0  0  0
   48.8742   34.2144   37.9503 H   0  0  0  0  0  0  0  0  0  0  0  0
   46.9456   32.9027   37.1808 H   0  0  0  0  0  0  0  0  0  0  0  0
   44.9603   32.4278   38.6260 H   0  0  0  0  0  0  0  0  0  0  0  0
   45.0307   33.3587   40.9316 H   0  0  0  0  0  0  0  0  0  0  0  0
   43.7735   36.6497   44.4633 H   0  0  0  0  0  0  0  0  0  0  0  0
   45.2399   36.6216   42.4073 H   0  0  0  0  0  0  0  0  0  0  0  0
   47.5921   32.1524   47.1276 H   0  0  0  0  0  0  0  0  0  0  0  0
   47.5959   32.1784   45.3636 H   0  0  0  0  0  0  0  0  0  0  0  0
   45.4071   30.7810   45.4575 H   0  0  0  0  0  0  0  0  0  0  0  0
   46.8498   29.9235   46.0501 H   0  0  0  0  0  0  0  0  0  0  0  0
   44.5318   30.1809   47.4612 H   0  0  0  0  0  0  0  0  0  0  0  0
   46.1973   30.0161   48.2113 H   0  0  0  0  0  0  0  0  0  0  0  0
   44.5007   31.8123   49.0231 H   0  0  0  0  0  0  0  0  0  0  0  0
   46.3048   32.1211   48.8399 H   0  0  0  0  0  0  0  0  0  0  0  0
   45.2900   34.0326   48.0403 H   0  0  0  0  0  0  0  0  0  0  0  0
   44.0336   33.0840   47.1416 H   0  0  0  0  0  0  0  0  0  0  0  0
  1 12  1  0
  2  1  2  0
  3  2  1  0
  4  3  1  0
  4  9  2  0
  5  4  1  0
  6  5  2  0
  6  7  1  0
  7  8  2  0
  8  9  1  0
  9  1  1  0
 10 15  2  0
 11 10  1  0
 12 11  2  0
 12 13  1  0
 13 14  2  0
 14 15  1  0
 14 16  1  0
 16 21  1  0
 17 18  1  0
 17 16  1  0
 18 19  1  0
 19 20  1  0
 21 20  1  0
  2 22  1  0
  3 23  1  0
  5 24  1  0
  6 25  1  0
  7 26  1  0
  8 27  1  0
 10 28  1  0
 11 29  1  0
 17 30  1  0
 17 31  1  0
 18 32  1  0
 18 33  1  0
 19 34  1  0
 19 35  1  0
 20 36  1  0
 20 37  1  0
 21 38  1  0
 21 39  1  0
M  END
>  <Score>  (1) 
-7.37261

$$$$
