
     RDKit          3D

 36 38  0  0  0  0  0  0  0  0999 V2000
   44.4310   35.9360   44.8340 C   0  0  0  0  0  0  0  0  0  0  0  0
   45.0790   35.9000   43.5930 C   0  0  0  0  0  0  0  0  0  0  0  0
   46.0200   34.9000   43.3480 C   0  0  0  0  0  0  0  0  0  0  0  0
   46.2770   33.9800   44.3430 N   0  0  0  0  0  0  0  0  0  0  0  0
   45.6190   34.0620   45.5250 C   0  0  0  0  0  0  0  0  0  0  0  0
   44.7100   35.0210   45.7730 N   0  0  0  0  0  0  0  0  0  0  0  0
   45.9020   33.1000   46.5360 N   0  0  0  0  0  0  0  0  0  0  0  0
   47.0730   32.2480   46.4720 C   0  0  0  0  0  0  0  0  0  0  0  0
   47.5350   31.8390   47.8580 C   0  0  0  0  0  0  0  0  0  0  0  0
   46.4780   31.1220   48.6270 C   0  0  0  0  0  0  0  0  0  0  0  0
   45.0730   31.5440   48.2560 C   0  0  0  0  0  0  0  0  0  0  0  0
   45.0240   32.9320   47.6780 C   0  0  0  0  0  0  0  0  0  0  0  0
   46.7430   34.7600   42.1330 N   0  0  0  0  0  0  0  0  0  0  0  0
   47.9820   35.3190   41.9970 C   0  0  0  0  0  0  0  0  0  0  0  0
   48.6520   35.1560   40.7940 C   0  0  0  0  0  0  0  0  0  0  0  0
   48.0170   34.4350   39.8050 C   0  0  0  0  0  0  0  0  0  0  0  0
   48.6260   34.2160   38.5370 N   0  0  0  0  0  0  0  0  0  0  0  0
   46.7860   33.8920   39.9710 N   0  0  0  0  0  0  0  0  0  0  0  0
   46.1300   34.0520   41.1510 C   0  0  0  0  0  0  0  0  0  0  0  0
   44.9890   33.5610   41.3370 O   0  0  0  0  0  0  0  0  0  0  0  0
   43.6879   36.7206   45.0396 H   0  0  0  0  0  0  0  0  0  0  0  0
   44.8490   36.6501   42.8220 H   0  0  0  0  0  0  0  0  0  0  0  0
   46.8272   31.3442   45.8952 H   0  0  0  0  0  0  0  0  0  0  0  0
   47.8849   32.8105   45.9878 H   0  0  0  0  0  0  0  0  0  0  0  0
   48.4076   31.1769   47.7572 H   0  0  0  0  0  0  0  0  0  0  0  0
   47.7836   32.7571   48.4104 H   0  0  0  0  0  0  0  0  0  0  0  0
   46.5796   30.0434   48.4367 H   0  0  0  0  0  0  0  0  0  0  0  0
   46.6224   31.3728   49.6882 H   0  0  0  0  0  0  0  0  0  0  0  0
   44.6770   30.8374   47.5118 H   0  0  0  0  0  0  0  0  0  0  0  0
   44.4689   31.5424   49.1753 H   0  0  0  0  0  0  0  0  0  0  0  0
   45.3224   33.6477   48.4582 H   0  0  0  0  0  0  0  0  0  0  0  0
   43.9950   33.1088   47.3316 H   0  0  0  0  0  0  0  0  0  0  0  0
   48.4376   35.8853   42.8227 H   0  0  0  0  0  0  0  0  0  0  0  0
   49.6521   35.5855   40.6347 H   0  0  0  0  0  0  0  0  0  0  0  0
   49.5615   34.6002   38.3417 H   0  0  0  0  0  0  0  0  0  0  0  0
   48.1311   33.6733   37.8148 H   0  0  0  0  0  0  0  0  0  0  0  0
  1  6  2  0
  2  1  1  0
  3  2  2  0
  3  4  1  0
  4  5  2  0
  5  6  1  0
  5  7  1  0
  7 12  1  0
  8  7  1  0
  8  9  1  0
  9 10  1  0
 11 10  1  0
 12 11  1  0
 13  3  1  0
 14 13  1  0
 15 14  2  0
 16 18  2  0
 16 15  1  0
 17 16  1  0
 18 19  1  0
 19 20  2  0
 19 13  1  0
  1 21  1  0
  2 22  1  0
  8 23  1  0
  8 24  1  0
  9 25  1  0
  9 26  1  0
 10 27  1  0
 10 28  1  0
 11 29  1  0
 11 30  1  0
 12 31  1  0
 12 32  1  0
 14 33  1  0
 15 34  1  0
 17 35  1  0
 17 36  1  0
M  END
>  <Score>  (1) 
-7.04304

$$$$
