
     RDKit          3D

 43 46  0  0  0  0  0  0  0  0999 V2000
   46.6250   34.6130   42.1990 C   0  0  0  0  0  0  0  0  0  0  0  0
   47.8220   35.2320   42.0330 C   0  0  0  0  0  0  0  0  0  0  0  0
   48.5330   35.1710   40.8310 C   0  0  0  0  0  0  0  0  0  0  0  0
   47.9790   34.4380   39.7530 C   0  0  0  0  0  0  0  0  0  0  0  0
   46.7490   33.8000   39.9200 C   0  0  0  0  0  0  0  0  0  0  0  0
   46.1040   33.9050   41.1390 C   0  0  0  0  0  0  0  0  0  0  0  0
   44.8490   33.2480   41.2890 N   0  0  0  0  0  0  0  0  0  0  0  0
   44.6220   31.9810   41.7190 C   0  0  0  0  0  0  0  0  0  0  0  0
   43.3490   31.5000   41.8040 C   0  0  0  0  0  0  0  0  0  0  0  0
   42.2680   32.2700   41.4630 C   0  0  0  0  0  0  0  0  0  0  0  0
   41.1020   31.7980   41.5530 O   0  0  0  0  0  0  0  0  0  0  0  0
   42.5200   33.5450   41.0310 N   0  0  0  0  0  0  0  0  0  0  0  0
   43.7660   34.0040   40.9520 C   0  0  0  0  0  0  0  0  0  0  0  0
   43.8690   35.2010   40.5380 O   0  0  0  0  0  0  0  0  0  0  0  0
   41.3800   34.3150   40.6870 C   0  0  0  0  0  0  0  0  0  0  0  0
   41.3380   35.6500   41.0570 C   0  0  0  0  0  0  0  0  0  0  0  0
   40.1260   36.1770   40.6050 C   0  0  0  0  0  0  0  0  0  0  0  0
   39.4780   35.1440   39.9780 N   0  0  0  0  0  0  0  0  0  0  0  0
   40.2280   34.0710   40.0390 N   0  0  0  0  0  0  0  0  0  0  0  0
   44.4950   35.7380   45.1030 C   0  0  0  0  0  0  0  0  0  0  0  0
   45.0660   35.7220   43.8290 C   0  0  0  0  0  0  0  0  0  0  0  0
   45.9660   34.7360   43.4850 C   0  0  0  0  0  0  0  0  0  0  0  0
   46.2720   33.7940   44.4250 N   0  0  0  0  0  0  0  0  0  0  0  0
   45.6990   33.8240   45.6740 C   0  0  0  0  0  0  0  0  0  0  0  0
   44.8220   34.7880   46.0050 N   0  0  0  0  0  0  0  0  0  0  0  0
   46.1140   32.7500   46.5920 C   0  0  0  0  0  0  0  0  0  0  0  0
   45.2460   32.6800   47.8300 C   0  0  0  0  0  0  0  0  0  0  0  0
   48.2468   35.8010   42.8731 H   0  0  0  0  0  0  0  0  0  0  0  0
   49.5017   35.6812   40.7246 H   0  0  0  0  0  0  0  0  0  0  0  0
   48.5130   34.3722   38.7936 H   0  0  0  0  0  0  0  0  0  0  0  0
   46.3006   33.2241   39.0970 H   0  0  0  0  0  0  0  0  0  0  0  0
   45.4695   31.3387   42.0005 H   0  0  0  0  0  0  0  0  0  0  0  0
   43.1860   30.4701   42.1544 H   0  0  0  0  0  0  0  0  0  0  0  0
   42.1184   36.1960   41.6073 H   0  0  0  0  0  0  0  0  0  0  0  0
   39.7653   37.2090   40.7270 H   0  0  0  0  0  0  0  0  0  0  0  0
   38.5517   35.2020   39.5313 H   0  0  0  0  0  0  0  0  0  0  0  0
   43.7770   36.5265   45.3725 H   0  0  0  0  0  0  0  0  0  0  0  0
   44.7970   36.4984   43.0977 H   0  0  0  0  0  0  0  0  0  0  0  0
   46.0509   31.7883   46.0617 H   0  0  0  0  0  0  0  0  0  0  0  0
   47.1428   32.9655   46.9161 H   0  0  0  0  0  0  0  0  0  0  0  0
   45.8812   32.7312   48.7266 H   0  0  0  0  0  0  0  0  0  0  0  0
   44.5408   33.5242   47.8316 H   0  0  0  0  0  0  0  0  0  0  0  0
   44.6852   31.7337   47.8316 H   0  0  0  0  0  0  0  0  0  0  0  0
  1 22  1  0
  2  1  2  0
  3  2  1  0
  4  5  1  0
  4  3  2  0
  5  6  2  0
  6  7  1  0
  6  1  1  0
  7  8  1  0
  8  9  2  0
 10 11  2  0
 10  9  1  0
 12 10  1  0
 13 12  1  0
 13  7  1  0
 14 13  2  0
 15 12  1  0
 15 16  1  0
 17 16  2  0
 18 19  1  0
 18 17  1  0
 19 15  2  0
 20 25  2  0
 21 20  1  0
 22 21  2  0
 22 23  1  0
 23 24  2  0
 24 25  1  0
 24 26  1  0
 26 27  1  0
  2 28  1  0
  3 29  1  0
  4 30  1  0
  5 31  1  0
  8 32  1  0
  9 33  1  0
 16 34  1  0
 17 35  1  0
 18 36  1  0
 20 37  1  0
 21 38  1  0
 26 39  1  0
 26 40  1  0
 27 41  1  0
 27 42  1  0
 27 43  1  0
M  END
>  <Score>  (1) 
-7.86479

$$$$
