
     RDKit          3D

 37 40  0  0  0  0  0  0  0  0999 V2000
   44.4340   36.0820   44.7430 C   0  0  0  0  0  0  0  0  0  0  0  0
   45.1060   36.0580   43.5030 C   0  0  0  0  0  0  0  0  0  0  0  0
   45.9790   35.0160   43.2710 C   0  0  0  0  0  0  0  0  0  0  0  0
   46.1090   34.1080   44.2620 N   0  0  0  0  0  0  0  0  0  0  0  0
   45.4740   34.1260   45.4390 C   0  0  0  0  0  0  0  0  0  0  0  0
   44.6290   35.1410   45.6580 N   0  0  0  0  0  0  0  0  0  0  0  0
   46.7370   34.8370   42.0770 N   0  0  0  0  0  0  0  0  0  0  0  0
   47.9800   35.3460   41.9630 C   0  0  0  0  0  0  0  0  0  0  0  0
   48.6640   35.1500   40.7710 C   0  0  0  0  0  0  0  0  0  0  0  0
   48.0320   34.4470   39.7780 C   0  0  0  0  0  0  0  0  0  0  0  0
   48.6340   34.2130   38.5210 N   0  0  0  0  0  0  0  0  0  0  0  0
   46.7980   33.9520   39.9210 N   0  0  0  0  0  0  0  0  0  0  0  0
   46.1130   34.1360   41.0860 C   0  0  0  0  0  0  0  0  0  0  0  0
   44.9460   33.6770   41.2410 O   0  0  0  0  0  0  0  0  0  0  0  0
   45.8400   32.9980   46.2880 C   0  0  0  0  0  0  0  0  0  0  0  0
   45.4040   32.9030   47.5900 C   0  0  0  0  0  0  0  0  0  0  0  0
   45.7160   31.8680   48.4330 C   0  0  0  0  0  0  0  0  0  0  0  0
   46.5090   30.8330   48.0100 C   0  0  0  0  0  0  0  0  0  0  0  0
   46.9740   30.8750   46.7140 C   0  0  0  0  0  0  0  0  0  0  0  0
   47.7730   29.8400   46.2780 C   0  0  0  0  0  0  0  0  0  0  0  0
   48.2730   29.8200   44.9970 C   0  0  0  0  0  0  0  0  0  0  0  0
   47.9280   30.8970   44.1740 C   0  0  0  0  0  0  0  0  0  0  0  0
   47.1380   31.8940   44.6490 C   0  0  0  0  0  0  0  0  0  0  0  0
   46.6270   31.9390   45.9180 C   0  0  0  0  0  0  0  0  0  0  0  0
   43.7312   36.9008   44.9567 H   0  0  0  0  0  0  0  0  0  0  0  0
   44.9398   36.8415   42.7490 H   0  0  0  0  0  0  0  0  0  0  0  0
   48.4403   35.9022   42.7929 H   0  0  0  0  0  0  0  0  0  0  0  0
   49.6802   35.5459   40.6278 H   0  0  0  0  0  0  0  0  0  0  0  0
   49.5842   34.5626   38.3320 H   0  0  0  0  0  0  0  0  0  0  0  0
   48.1225   33.6929   37.7939 H   0  0  0  0  0  0  0  0  0  0  0  0
   44.7644   33.7090   47.9789 H   0  0  0  0  0  0  0  0  0  0  0  0
   45.3253   31.8680   49.4613 H   0  0  0  0  0  0  0  0  0  0  0  0
   46.7647   29.9995   48.6808 H   0  0  0  0  0  0  0  0  0  0  0  0
   48.0147   29.0164   46.9660 H   0  0  0  0  0  0  0  0  0  0  0  0
   48.9114   28.9992   44.6381 H   0  0  0  0  0  0  0  0  0  0  0  0
   48.2978   30.9365   43.1388 H   0  0  0  0  0  0  0  0  0  0  0  0
   46.8920   32.7218   43.9677 H   0  0  0  0  0  0  0  0  0  0  0  0
  1  6  2  0
  2  1  1  0
  3  2  2  0
  3  4  1  0
  4  5  2  0
  5  6  1  0
  5 15  1  0
  7  3  1  0
  8  7  1  0
  9  8  2  0
 10 12  2  0
 10  9  1  0
 11 10  1  0
 12 13  1  0
 13 14  2  0
 13  7  1  0
 15 16  2  0
 16 17  1  0
 18 17  2  0
 19 18  1  0
 20 19  2  0
 21 20  1  0
 22 23  1  0
 22 21  2  0
 23 24  2  0
 24 15  1  0
 24 19  1  0
  1 25  1  0
  2 26  1  0
  8 27  1  0
  9 28  1  0
 11 29  1  0
 11 30  1  0
 16 31  1  0
 17 32  1  0
 18 33  1  0
 20 34  1  0
 21 35  1  0
 22 36  1  0
 23 37  1  0
M  END
>  <Score>  (1) 
-7.32287

$$$$
