
     RDKit          3D

 34 37  0  0  0  0  0  0  0  0999 V2000
   44.3790   36.1570   44.7810 C   0  0  0  0  0  0  0  0  0  0  0  0
   44.9700   36.0470   43.5080 C   0  0  0  0  0  0  0  0  0  0  0  0
   45.8260   34.9950   43.2740 C   0  0  0  0  0  0  0  0  0  0  0  0
   46.0520   34.1270   44.2810 N   0  0  0  0  0  0  0  0  0  0  0  0
   45.4790   34.2410   45.5000 C   0  0  0  0  0  0  0  0  0  0  0  0
   44.6490   35.2490   45.7490 N   0  0  0  0  0  0  0  0  0  0  0  0
   45.7920   33.2490   46.5120 C   0  0  0  0  0  0  0  0  0  0  0  0
   44.9910   33.0730   47.6070 C   0  0  0  0  0  0  0  0  0  0  0  0
   45.5220   32.0680   48.4020 C   0  0  0  0  0  0  0  0  0  0  0  0
   46.6360   31.6650   47.7610 N   0  0  0  0  0  0  0  0  0  0  0  0
   46.8090   32.3590   46.6340 N   0  0  0  0  0  0  0  0  0  0  0  0
   48.7790   28.8120   48.2540 N   0  0  0  0  0  0  0  0  0  0  0  0
   47.6710   29.3640   47.7340 N   0  0  0  0  0  0  0  0  0  0  0  0
   47.6110   30.6690   48.0720 C   0  0  0  0  0  0  0  0  0  0  0  0
   48.7360   30.9550   48.8420 C   0  0  0  0  0  0  0  0  0  0  0  0
   49.4400   29.7750   48.9340 C   0  0  0  0  0  0  0  0  0  0  0  0
   46.5030   34.7410   42.0470 N   0  0  0  0  0  0  0  0  0  0  0  0
   47.8060   35.1110   41.9560 C   0  0  0  0  0  0  0  0  0  0  0  0
   48.5110   34.8820   40.7700 C   0  0  0  0  0  0  0  0  0  0  0  0
   47.8200   34.2750   39.7320 C   0  0  0  0  0  0  0  0  0  0  0  0
   48.4620   34.0680   38.6560 O   0  0  0  0  0  0  0  0  0  0  0  0
   46.5470   33.9360   39.8780 N   0  0  0  0  0  0  0  0  0  0  0  0
   45.8480   34.1540   41.0290 C   0  0  0  0  0  0  0  0  0  0  0  0
   44.6360   33.8270   41.1570 O   0  0  0  0  0  0  0  0  0  0  0  0
   43.6909   36.9889   44.9916 H   0  0  0  0  0  0  0  0  0  0  0  0
   44.7531   36.7834   42.7201 H   0  0  0  0  0  0  0  0  0  0  0  0
   44.0723   33.6383   47.8226 H   0  0  0  0  0  0  0  0  0  0  0  0
   45.1202   31.6832   49.3509 H   0  0  0  0  0  0  0  0  0  0  0  0
   49.0728   27.8300   48.1528 H   0  0  0  0  0  0  0  0  0  0  0  0
   49.0066   31.9245   49.2856 H   0  0  0  0  0  0  0  0  0  0  0  0
   50.3883   29.6382   49.4743 H   0  0  0  0  0  0  0  0  0  0  0  0
   48.3053   35.5890   42.8117 H   0  0  0  0  0  0  0  0  0  0  0  0
   49.5672   35.1707   40.6651 H   0  0  0  0  0  0  0  0  0  0  0  0
   46.0637   33.4877   39.0866 H   0  0  0  0  0  0  0  0  0  0  0  0
  1  6  2  0
  2  1  1  0
  3  2  2  0
  3  4  1  0
  4  5  2  0
  5  6  1  0
  5  7  1  0
  7 11  2  0
  7  8  1  0
  8  9  2  0
 10 14  1  0
 10  9  1  0
 11 10  1  0
 12 16  1  0
 13 14  2  0
 13 12  1  0
 14 15  1  0
 15 16  2  0
 17  3  1  0
 18 17  1  0
 19 18  2  0
 20 22  1  0
 20 19  1  0
 21 20  2  0
 22 23  1  0
 23 24  2  0
 23 17  1  0
  1 25  1  0
  2 26  1  0
  8 27  1  0
  9 28  1  0
 12 29  1  0
 15 30  1  0
 16 31  1  0
 18 32  1  0
 19 33  1  0
 22 34  1  0
M  END
>  <Score>  (1) 
-7.23087

$$$$
