
     RDKit          3D

 50 55  0  0  0  0  0  0  0  0999 V2000
   48.5860   31.9050   38.7710 C   0  0  0  0  0  0  0  0  0  0  0  0
   48.6070   33.1260   38.2340 C   0  0  0  0  0  0  0  0  0  0  0  0
   48.5300   33.3160   36.8810 C   0  0  0  0  0  0  0  0  0  0  0  0
   48.4280   32.1630   36.0870 C   0  0  0  0  0  0  0  0  0  0  0  0
   48.4460   30.8060   37.3570 S   0  0  0  0  0  0  0  0  0  0  0  0
   48.3290   31.9130   34.6940 C   0  0  0  0  0  0  0  0  0  0  0  0
   48.7760   32.8400   33.7850 C   0  0  0  0  0  0  0  0  0  0  0  0
   48.5390   32.2950   32.5170 C   0  0  0  0  0  0  0  0  0  0  0  0
   47.9540   31.0560   32.7710 C   0  0  0  0  0  0  0  0  0  0  0  0
   47.8460   30.8650   34.0920 O   0  0  0  0  0  0  0  0  0  0  0  0
   47.5170   30.0960   31.7930 N   0  0  0  0  0  0  0  0  0  0  0  0
   48.2030   29.7690   30.6650 C   0  0  0  0  0  0  0  0  0  0  0  0
   47.5370   28.8390   29.9500 N   0  0  0  0  0  0  0  0  0  0  0  0
   46.4150   28.5830   30.6470 C   0  0  0  0  0  0  0  0  0  0  0  0
   45.3220   27.7560   30.4880 C   0  0  0  0  0  0  0  0  0  0  0  0
   44.2980   27.6930   31.3730 N   0  0  0  0  0  0  0  0  0  0  0  0
   44.3360   28.4840   32.4850 C   0  0  0  0  0  0  0  0  0  0  0  0
   45.3750   29.3110   32.6960 N   0  0  0  0  0  0  0  0  0  0  0  0
   46.3770   29.3550   31.8050 C   0  0  0  0  0  0  0  0  0  0  0  0
   45.2780   26.9300   29.3320 N   0  0  0  0  0  0  0  0  0  0  0  0
   48.6450   31.3790   40.1160 C   0  0  0  0  0  0  0  0  0  0  0  0
   47.6580   33.7800   42.6350 N   0  0  0  0  0  0  0  0  0  0  0  0
   48.8810   34.2600   43.0540 C   0  0  0  0  0  0  0  0  0  0  0  0
   50.0600   33.7950   42.5060 C   0  0  0  0  0  0  0  0  0  0  0  0
   49.9780   32.8170   41.5090 C   0  0  0  0  0  0  0  0  0  0  0  0
   51.0310   32.3820   41.0000 O   0  0  0  0  0  0  0  0  0  0  0  0
   48.7440   32.4020   41.1580 N   0  0  0  0  0  0  0  0  0  0  0  0
   47.6300   32.8670   41.7010 C   0  0  0  0  0  0  0  0  0  0  0  0
   46.5060   32.5210   41.4130 O   0  0  0  0  0  0  0  0  0  0  0  0
   44.9840   36.1870   43.4490 C   0  0  0  0  0  0  0  0  0  0  0  0
   46.0300   35.5470   42.7700 C   0  0  0  0  0  0  0  0  0  0  0  0
   46.6000   34.4080   43.3420 C   0  0  0  0  0  0  0  0  0  0  0  0
   46.1260   33.9490   44.5450 N   0  0  0  0  0  0  0  0  0  0  0  0
   45.1040   34.5970   45.1790 C   0  0  0  0  0  0  0  0  0  0  0  0
   44.5410   35.7150   44.6210 N   0  0  0  0  0  0  0  0  0  0  0  0
   48.6882   34.0015   38.8950 H   0  0  0  0  0  0  0  0  0  0  0  0
   48.5472   34.3225   36.4376 H   0  0  0  0  0  0  0  0  0  0  0  0
   49.2301   33.8167   34.0084 H   0  0  0  0  0  0  0  0  0  0  0  0
   48.7643   32.7446   31.5387 H   0  0  0  0  0  0  0  0  0  0  0  0
   49.1706   30.2043   30.3748 H   0  0  0  0  0  0  0  0  0  0  0  0
   43.5119   28.4446   33.2126 H   0  0  0  0  0  0  0  0  0  0  0  0
   44.4778   26.2997   29.1796 H   0  0  0  0  0  0  0  0  0  0  0  0
   46.0463   26.9618   28.6468 H   0  0  0  0  0  0  0  0  0  0  0  0
   47.7333   30.7905   40.2963 H   0  0  0  0  0  0  0  0  0  0  0  0
   49.5623   30.7752   40.1786 H   0  0  0  0  0  0  0  0  0  0  0  0
   48.9180   35.0284   43.8402 H   0  0  0  0  0  0  0  0  0  0  0  0
   51.0333   34.1814   42.8428 H   0  0  0  0  0  0  0  0  0  0  0  0
   44.5225   37.0861   43.0146 H   0  0  0  0  0  0  0  0  0  0  0  0
   46.3941   35.9339   41.8068 H   0  0  0  0  0  0  0  0  0  0  0  0
   44.7310   34.2194   46.1425 H   0  0  0  0  0  0  0  0  0  0  0  0
  1 21  1  0
  2  1  2  0
  3  2  1  0
  4  3  2  0
  4  5  1  0
  5  1  1  0
  6  4  1  0
  7  6  2  0
  8  9  2  0
  8  7  1  0
  9 10  1  0
 10  6  1  0
 11 19  1  0
 11  9  1  0
 12 11  1  0
 13 14  1  0
 13 12  2  0
 14 19  2  0
 15 14  1  0
 15 16  2  0
 16 17  1  0
 17 18  2  0
 19 18  1  0
 20 15  1  0
 21 27  1  0
 22 23  1  0
 22 32  1  0
 24 23  2  0
 25 24  1  0
 26 25  2  0
 27 25  1  0
 27 28  1  0
 28 22  1  0
 29 28  2  0
 30 35  2  0
 31 32  2  0
 31 30  1  0
 32 33  1  0
 33 34  2  0
 35 34  1  0
  2 36  1  0
  3 37  1  0
  7 38  1  0
  8 39  1  0
 12 40  1  0
 17 41  1  0
 20 42  1  0
 20 43  1  0
 21 44  1  0
 21 45  1  0
 23 46  1  0
 24 47  1  0
 30 48  1  0
 31 49  1  0
 34 50  1  0
M  END
>  <Score>  (1) 
-7.14946

$$$$
