
     RDKit          3D

 42 46  0  0  0  0  0  0  0  0999 V2000
   44.4550   35.9820   44.4400 C   0  0  0  0  0  0  0  0  0  0  0  0
   45.2300   35.9580   43.2470 C   0  0  0  0  0  0  0  0  0  0  0  0
   46.1850   34.9550   43.1170 C   0  0  0  0  0  0  0  0  0  0  0  0
   46.3130   34.0740   44.1270 N   0  0  0  0  0  0  0  0  0  0  0  0
   45.5590   34.1170   45.2580 C   0  0  0  0  0  0  0  0  0  0  0  0
   44.6300   35.0750   45.4090 N   0  0  0  0  0  0  0  0  0  0  0  0
   45.8660   33.0850   46.1890 N   0  0  0  0  0  0  0  0  0  0  0  0
   45.3660   33.1830   47.4500 C   0  0  0  0  0  0  0  0  0  0  0  0
   45.7590   32.1210   48.1880 N   0  0  0  0  0  0  0  0  0  0  0  0
   46.5130   31.3380   47.4080 C   0  0  0  0  0  0  0  0  0  0  0  0
   47.1960   30.1440   47.5490 C   0  0  0  0  0  0  0  0  0  0  0  0
   47.1780   29.5540   48.6360 O   0  0  0  0  0  0  0  0  0  0  0  0
   47.8570   29.6850   46.4600 N   0  0  0  0  0  0  0  0  0  0  0  0
   47.9070   30.2880   45.2580 C   0  0  0  0  0  0  0  0  0  0  0  0
   48.6690   29.6150   44.2590 N   0  0  0  0  0  0  0  0  0  0  0  0
   47.2380   31.4670   45.1030 N   0  0  0  0  0  0  0  0  0  0  0  0
   46.5740   31.9430   46.1690 C   0  0  0  0  0  0  0  0  0  0  0  0
   46.9970   34.8930   41.9210 C   0  0  0  0  0  0  0  0  0  0  0  0
   48.2190   35.5360   41.9320 C   0  0  0  0  0  0  0  0  0  0  0  0
   48.9490   35.4530   40.7900 C   0  0  0  0  0  0  0  0  0  0  0  0
   48.4990   34.7840   39.7230 N   0  0  0  0  0  0  0  0  0  0  0  0
   47.3020   34.1630   39.7330 C   0  0  0  0  0  0  0  0  0  0  0  0
   46.5650   34.2390   40.8650 N   0  0  0  0  0  0  0  0  0  0  0  0
   46.8710   33.4640   38.5660 N   0  0  0  0  0  0  0  0  0  0  0  0
   45.9530   32.4930   38.7810 C   0  0  0  0  0  0  0  0  0  0  0  0
   45.4550   31.7400   37.7150 C   0  0  0  0  0  0  0  0  0  0  0  0
   45.9670   32.0670   36.4870 C   0  0  0  0  0  0  0  0  0  0  0  0
   45.4920   31.3600   35.5360 O   0  0  0  0  0  0  0  0  0  0  0  0
   46.8810   33.0290   36.2530 N   0  0  0  0  0  0  0  0  0  0  0  0
   47.3270   33.7260   37.3190 C   0  0  0  0  0  0  0  0  0  0  0  0
   48.1770   34.6350   37.1750 O   0  0  0  0  0  0  0  0  0  0  0  0
   43.6933   36.7650   44.5693 H   0  0  0  0  0  0  0  0  0  0  0  0
   45.0792   36.7065   42.4551 H   0  0  0  0  0  0  0  0  0  0  0  0
   44.7343   34.0060   47.8157 H   0  0  0  0  0  0  0  0  0  0  0  0
   48.3666   28.7956   46.5605 H   0  0  0  0  0  0  0  0  0  0  0  0
   48.7512   30.0187   43.3150 H   0  0  0  0  0  0  0  0  0  0  0  0
   49.1375   28.7250   44.4811 H   0  0  0  0  0  0  0  0  0  0  0  0
   48.5802   36.0838   42.8149 H   0  0  0  0  0  0  0  0  0  0  0  0
   49.9310   35.9463   40.7415 H   0  0  0  0  0  0  0  0  0  0  0  0
   45.5964   32.2953   39.8027 H   0  0  0  0  0  0  0  0  0  0  0  0
   44.7079   30.9443   37.8513 H   0  0  0  0  0  0  0  0  0  0  0  0
   47.2244   33.2239   35.3017 H   0  0  0  0  0  0  0  0  0  0  0  0
  1  6  2  0
  2  1  1  0
  3  2  2  0
  3  4  1  0
  4  5  2  0
  5  6  1  0
  5  7  1  0
  7  8  1  0
  8  9  2  0
 10 11  1  0
 10  9  1  0
 11 12  2  0
 13 11  1  0
 14 13  1  0
 15 14  1  0
 16 14  2  0
 16 17  1  0
 17  7  1  0
 17 10  2  0
 18 19  2  0
 18  3  1  0
 20 19  1  0
 21 22  1  0
 21 20  2  0
 22 23  2  0
 23 18  1  0
 24 25  1  0
 24 22  1  0
 26 25  2  0
 27 26  1  0
 28 27  2  0
 29 27  1  0
 29 30  1  0
 30 24  1  0
 31 30  2  0
  1 32  1  0
  2 33  1  0
  8 34  1  0
 13 35  1  0
 15 36  1  0
 15 37  1  0
 19 38  1  0
 20 39  1  0
 25 40  1  0
 26 41  1  0
 29 42  1  0
M  END
>  <Score>  (1) 
-7.87131

$$$$
