
     RDKit          3D

 35 38  0  0  0  0  0  0  0  0999 V2000
   46.6910   34.8020   42.0350 C   0  0  0  0  0  0  0  0  0  0  0  0
   47.9510   35.3690   41.9490 C   0  0  0  0  0  0  0  0  0  0  0  0
   48.7720   35.2710   40.8470 C   0  0  0  0  0  0  0  0  0  0  0  0
   48.3300   34.5690   39.7550 C   0  0  0  0  0  0  0  0  0  0  0  0
   47.0880   33.9790   39.7700 C   0  0  0  0  0  0  0  0  0  0  0  0
   46.6380   33.2810   38.6740 C   0  0  0  0  0  0  0  0  0  0  0  0
   45.3950   32.6790   38.6450 C   0  0  0  0  0  0  0  0  0  0  0  0
   44.6340   32.8300   39.7990 C   0  0  0  0  0  0  0  0  0  0  0  0
   45.1030   33.5230   40.8630 C   0  0  0  0  0  0  0  0  0  0  0  0
   46.3330   34.1230   40.9020 C   0  0  0  0  0  0  0  0  0  0  0  0
   44.4140   35.9590   44.8690 C   0  0  0  0  0  0  0  0  0  0  0  0
   45.0340   35.9440   43.6230 C   0  0  0  0  0  0  0  0  0  0  0  0
   45.9570   34.9840   43.2590 C   0  0  0  0  0  0  0  0  0  0  0  0
   46.1860   34.0680   44.2460 N   0  0  0  0  0  0  0  0  0  0  0  0
   45.6060   34.0610   45.4420 C   0  0  0  0  0  0  0  0  0  0  0  0
   44.7270   35.0030   45.7450 N   0  0  0  0  0  0  0  0  0  0  0  0
   45.9520   33.0110   46.3990 C   0  0  0  0  0  0  0  0  0  0  0  0
   46.9630   32.1170   46.1200 C   0  0  0  0  0  0  0  0  0  0  0  0
   47.1970   31.1690   47.1040 C   0  0  0  0  0  0  0  0  0  0  0  0
   46.4450   31.1500   48.2800 C   0  0  0  0  0  0  0  0  0  0  0  0
   45.4550   32.0540   48.5130 C   0  0  0  0  0  0  0  0  0  0  0  0
   45.2370   32.9770   47.5380 N   0  0  0  0  0  0  0  0  0  0  0  0
   48.3207   35.9346   42.8170 H   0  0  0  0  0  0  0  0  0  0  0  0
   49.7637   35.7470   40.8431 H   0  0  0  0  0  0  0  0  0  0  0  0
   48.9703   34.4777   38.8652 H   0  0  0  0  0  0  0  0  0  0  0  0
   47.2893   33.1993   37.7913 H   0  0  0  0  0  0  0  0  0  0  0  0
   45.0325   32.1193   37.7702 H   0  0  0  0  0  0  0  0  0  0  0  0
   43.6324   32.3779   39.8481 H   0  0  0  0  0  0  0  0  0  0  0  0
   44.4573   33.6092   41.7493 H   0  0  0  0  0  0  0  0  0  0  0  0
   43.6834   36.7404   45.1252 H   0  0  0  0  0  0  0  0  0  0  0  0
   44.7778   36.7302   42.8976 H   0  0  0  0  0  0  0  0  0  0  0  0
   47.5417   32.1530   45.1852 H   0  0  0  0  0  0  0  0  0  0  0  0
   47.9883   30.4194   46.9557 H   0  0  0  0  0  0  0  0  0  0  0  0
   46.6586   30.3832   49.0392 H   0  0  0  0  0  0  0  0  0  0  0  0
   44.8629   32.0391   49.4399 H   0  0  0  0  0  0  0  0  0  0  0  0
  1 13  1  0
  2  1  2  0
  3  2  1  0
  4  5  1  0
  4  3  2  0
  5 10  2  0
  6  5  1  0
  7  6  2  0
  7  8  1  0
  8  9  2  0
  9 10  1  0
 10  1  1  0
 11 16  2  0
 12 11  1  0
 13 12  2  0
 13 14  1  0
 14 15  2  0
 15 16  1  0
 15 17  1  0
 17 22  1  0
 18 17  2  0
 18 19  1  0
 19 20  2  0
 20 21  1  0
 22 21  2  0
  2 23  1  0
  3 24  1  0
  4 25  1  0
  6 26  1  0
  7 27  1  0
  8 28  1  0
  9 29  1  0
 11 30  1  0
 12 31  1  0
 18 32  1  0
 19 33  1  0
 20 34  1  0
 21 35  1  0
M  END
>  <Score>  (1) 
-7.07709

$$$$
