
     RDKit          3D

 35 37  0  0  0  0  0  0  0  0999 V2000
   44.4550   35.9720   44.5510 C   0  0  0  0  0  0  0  0  0  0  0  0
   45.2140   35.9170   43.3500 C   0  0  0  0  0  0  0  0  0  0  0  0
   46.1500   34.9170   43.2560 C   0  0  0  0  0  0  0  0  0  0  0  0
   46.3280   34.0220   44.2840 N   0  0  0  0  0  0  0  0  0  0  0  0
   45.5740   34.1180   45.4150 C   0  0  0  0  0  0  0  0  0  0  0  0
   44.6370   35.0980   45.5410 N   0  0  0  0  0  0  0  0  0  0  0  0
   45.8560   33.1310   46.4030 N   0  0  0  0  0  0  0  0  0  0  0  0
   45.2160   33.1440   47.5880 C   0  0  0  0  0  0  0  0  0  0  0  0
   45.5250   32.1670   48.5110 C   0  0  0  0  0  0  0  0  0  0  0  0
   46.4780   31.2320   48.1540 C   0  0  0  0  0  0  0  0  0  0  0  0
   46.8580   30.1910   49.0410 N   0  0  0  0  0  0  0  0  0  0  0  0
   47.1030   31.2410   46.9630 N   0  0  0  0  0  0  0  0  0  0  0  0
   46.7940   32.2080   46.0570 C   0  0  0  0  0  0  0  0  0  0  0  0
   47.3560   32.2480   44.9310 O   0  0  0  0  0  0  0  0  0  0  0  0
   46.9490   34.8240   42.0470 C   0  0  0  0  0  0  0  0  0  0  0  0
   48.2490   35.2530   41.8750 C   0  0  0  0  0  0  0  0  0  0  0  0
   48.5370   34.9290   40.5370 C   0  0  0  0  0  0  0  0  0  0  0  0
   47.4150   34.3370   39.9960 C   0  0  0  0  0  0  0  0  0  0  0  0
   46.5050   34.3060   40.9530 O   0  0  0  0  0  0  0  0  0  0  0  0
   47.2640   33.8550   38.6750 N   0  0  0  0  0  0  0  0  0  0  0  0
   48.3030   33.9670   37.7120 C   0  0  0  0  0  0  0  0  0  0  0  0
   49.0590   35.0230   37.7520 N   0  0  0  0  0  0  0  0  0  0  0  0
   48.4490   32.8950   36.7520 N   0  0  0  0  0  0  0  0  0  0  0  0
   49.8530   35.0410   37.0750 H   0  0  0  0  0  0  0  0  0  0  0  0
   43.6952   36.7590   44.6667 H   0  0  0  0  0  0  0  0  0  0  0  0
   45.0589   36.6403   42.5359 H   0  0  0  0  0  0  0  0  0  0  0  0
   44.4650   33.9153   47.8142 H   0  0  0  0  0  0  0  0  0  0  0  0
   45.0318   32.1332   49.4937 H   0  0  0  0  0  0  0  0  0  0  0  0
   47.5705   29.5047   48.7544 H   0  0  0  0  0  0  0  0  0  0  0  0
   46.4212   30.1219   49.9712 H   0  0  0  0  0  0  0  0  0  0  0  0
   48.9069   35.7359   42.6125 H   0  0  0  0  0  0  0  0  0  0  0  0
   49.4874   35.1146   40.0152 H   0  0  0  0  0  0  0  0  0  0  0  0
   46.3757   33.4101   38.4032 H   0  0  0  0  0  0  0  0  0  0  0  0
   47.8110   32.0870   36.7813 H   0  0  0  0  0  0  0  0  0  0  0  0
   49.1910   32.9397   36.0390 H   0  0  0  0  0  0  0  0  0  0  0  0
  1  6  2  0
  2  1  1  0
  3  2  2  0
  3  4  1  0
  4  5  2  0
  5  6  1  0
  5  7  1  0
  7  8  1  0
  8  9  2  0
 10  9  1  0
 10 11  1  0
 12 10  2  0
 13  7  1  0
 13 12  1  0
 14 13  2  0
 15  3  1  0
 16 15  2  0
 17 16  1  0
 18 17  2  0
 18 19  1  0
 19 15  1  0
 20 18  1  0
 21 22  2  0
 21 20  1  0
 23 21  1  0
 24 22  1  0
  1 25  1  0
  2 26  1  0
  8 27  1  0
  9 28  1  0
 11 29  1  0
 11 30  1  0
 16 31  1  0
 17 32  1  0
 20 33  1  0
 23 34  1  0
 23 35  1  0
M  END
>  <Score>  (1) 
-7.90833

$$$$
