
     RDKit          3D

 44 48  0  0  0  0  0  0  0  0999 V2000
   46.9580   34.7740   41.9570 C   0  0  0  0  0  0  0  0  0  0  0  0
   48.2180   35.3030   41.7270 C   0  0  0  0  0  0  0  0  0  0  0  0
   48.5190   34.8850   40.4300 C   0  0  0  0  0  0  0  0  0  0  0  0
   47.4220   34.1310   39.9610 C   0  0  0  0  0  0  0  0  0  0  0  0
   46.5320   34.1050   40.9180 O   0  0  0  0  0  0  0  0  0  0  0  0
   44.4990   36.0280   44.4430 C   0  0  0  0  0  0  0  0  0  0  0  0
   45.2610   35.9220   43.2370 C   0  0  0  0  0  0  0  0  0  0  0  0
   46.1690   34.9080   43.1660 C   0  0  0  0  0  0  0  0  0  0  0  0
   46.2950   34.0710   44.2250 N   0  0  0  0  0  0  0  0  0  0  0  0
   45.5730   34.1800   45.3510 C   0  0  0  0  0  0  0  0  0  0  0  0
   44.6630   35.1700   45.4650 N   0  0  0  0  0  0  0  0  0  0  0  0
   45.8360   33.2070   46.3670 N   0  0  0  0  0  0  0  0  0  0  0  0
   45.1780   33.1440   47.5240 N   0  0  0  0  0  0  0  0  0  0  0  0
   45.6290   32.1420   48.2750 C   0  0  0  0  0  0  0  0  0  0  0  0
   46.6510   31.5120   47.5550 C   0  0  0  0  0  0  0  0  0  0  0  0
   46.7510   32.2100   46.3620 C   0  0  0  0  0  0  0  0  0  0  0  0
   47.3420   33.5300   38.6820 N   0  0  0  0  0  0  0  0  0  0  0  0
   46.6350   32.4020   38.5790 C   0  0  0  0  0  0  0  0  0  0  0  0
   46.5020   31.7450   37.3800 C   0  0  0  0  0  0  0  0  0  0  0  0
   47.1200   32.2780   36.2690 C   0  0  0  0  0  0  0  0  0  0  0  0
   47.0120   31.6930   35.1580 O   0  0  0  0  0  0  0  0  0  0  0  0
   47.8220   33.4200   36.4230 N   0  0  0  0  0  0  0  0  0  0  0  0
   47.9320   34.0430   37.6280 C   0  0  0  0  0  0  0  0  0  0  0  0
   48.6030   35.1070   37.7040 O   0  0  0  0  0  0  0  0  0  0  0  0
   45.7150   30.4860   37.3370 C   0  0  0  0  0  0  0  0  0  0  0  0
   44.3180   30.5940   37.2000 C   0  0  0  0  0  0  0  0  0  0  0  0
   43.3720   31.5720   37.7360 C   0  0  0  0  0  0  0  0  0  0  0  0
   42.0520   31.4080   37.4200 C   0  0  0  0  0  0  0  0  0  0  0  0
   41.6940   30.2950   36.5890 C   0  0  0  0  0  0  0  0  0  0  0  0
   43.2760   29.4630   36.2510 S   0  0  0  0  0  0  0  0  0  0  0  0
   48.8352   35.9093   42.4064 H   0  0  0  0  0  0  0  0  0  0  0  0
   49.4429   35.1034   39.8744 H   0  0  0  0  0  0  0  0  0  0  0  0
   43.7573   36.8349   44.5369 H   0  0  0  0  0  0  0  0  0  0  0  0
   45.1205   36.6271   42.4045 H   0  0  0  0  0  0  0  0  0  0  0  0
   45.2664   31.8613   49.2748 H   0  0  0  0  0  0  0  0  0  0  0  0
   47.2494   30.6445   47.8702 H   0  0  0  0  0  0  0  0  0  0  0  0
   47.4564   31.9903   45.5470 H   0  0  0  0  0  0  0  0  0  0  0  0
   46.1479   31.9894   39.4748 H   0  0  0  0  0  0  0  0  0  0  0  0
   48.2891   33.8331   35.6032 H   0  0  0  0  0  0  0  0  0  0  0  0
   46.0844   29.8961   36.4852 H   0  0  0  0  0  0  0  0  0  0  0  0
   45.8638   30.0301   38.3270 H   0  0  0  0  0  0  0  0  0  0  0  0
   43.7091   32.4065   38.3684 H   0  0  0  0  0  0  0  0  0  0  0  0
   41.2886   32.1075   37.7913 H   0  0  0  0  0  0  0  0  0  0  0  0
   40.6918   30.0097   36.2366 H   0  0  0  0  0  0  0  0  0  0  0  0
  1  8  1  0
  2  1  2  0
  3  2  1  0
  4  3  2  0
  4  5  1  0
  5  1  1  0
  6 11  2  0
  7  6  1  0
  8  7  2  0
  8  9  1  0
  9 10  2  0
 10 11  1  0
 10 12  1  0
 12 13  1  0
 13 14  2  0
 15 14  1  0
 16 12  1  0
 16 15  2  0
 17  4  1  0
 18 17  1  0
 19 18  2  0
 20 22  1  0
 20 19  1  0
 21 20  2  0
 22 23  1  0
 23 24  2  0
 23 17  1  0
 25 19  1  0
 26 25  1  0
 26 27  2  0
 28 27  1  0
 29 28  2  0
 30 29  1  0
 30 26  1  0
  2 31  1  0
  3 32  1  0
  6 33  1  0
  7 34  1  0
 14 35  1  0
 15 36  1  0
 16 37  1  0
 18 38  1  0
 22 39  1  0
 25 40  1  0
 25 41  1  0
 27 42  1  0
 28 43  1  0
 29 44  1  0
M  END
>  <Score>  (1) 
-7.31327

$$$$
