
     RDKit          3D

 44 47  0  0  0  0  0  0  0  0999 V2000
   44.9510   34.6040   45.2890 C   0  0  0  0  0  0  0  0  0  0  0  0
   45.4540   34.7830   43.9790 C   0  0  0  0  0  0  0  0  0  0  0  0
   46.5980   34.0780   43.5950 C   0  0  0  0  0  0  0  0  0  0  0  0
   47.1870   33.2400   44.5050 N   0  0  0  0  0  0  0  0  0  0  0  0
   46.6690   33.1010   45.7460 C   0  0  0  0  0  0  0  0  0  0  0  0
   45.5810   33.7640   46.1310 N   0  0  0  0  0  0  0  0  0  0  0  0
   47.1290   34.2550   42.2410 C   0  0  0  0  0  0  0  0  0  0  0  0
   48.1530   35.1810   42.1520 C   0  0  0  0  0  0  0  0  0  0  0  0
   48.7720   35.4770   40.9590 C   0  0  0  0  0  0  0  0  0  0  0  0
   48.3660   34.8300   39.7860 C   0  0  0  0  0  0  0  0  0  0  0  0
   47.3530   33.9210   39.9080 C   0  0  0  0  0  0  0  0  0  0  0  0
   46.7370   33.6250   41.0860 C   0  0  0  0  0  0  0  0  0  0  0  0
   44.6180   35.8980   42.8600 S   0  0  0  0  0  0  0  0  0  0  0  0
   42.2140   33.4850   40.9730 N   0  0  0  0  0  0  0  0  0  0  0  0
   43.2510   33.6930   41.7500 N   0  0  0  0  0  0  0  0  0  0  0  0
   43.3880   35.0590   41.9120 C   0  0  0  0  0  0  0  0  0  0  0  0
   42.3870   35.6260   41.1930 C   0  0  0  0  0  0  0  0  0  0  0  0
   41.6140   34.6530   40.5790 C   0  0  0  0  0  0  0  0  0  0  0  0
   40.4380   34.8160   39.7140 C   0  0  0  0  0  0  0  0  0  0  0  0
   39.1440   34.3810   40.3030 C   0  0  0  0  0  0  0  0  0  0  0  0
   38.4440   33.2830   39.5240 C   0  0  0  0  0  0  0  0  0  0  0  0
   38.2620   33.6230   38.0650 C   0  0  0  0  0  0  0  0  0  0  0  0
   39.3950   34.4780   37.5410 C   0  0  0  0  0  0  0  0  0  0  0  0
   40.6160   34.1160   38.3720 C   0  0  0  0  0  0  0  0  0  0  0  0
   44.0523   35.1469   45.6168 H   0  0  0  0  0  0  0  0  0  0  0  0
   47.1604   32.4210   46.4574 H   0  0  0  0  0  0  0  0  0  0  0  0
   48.4834   35.6978   43.0651 H   0  0  0  0  0  0  0  0  0  0  0  0
   49.5830   36.2195   40.9274 H   0  0  0  0  0  0  0  0  0  0  0  0
   48.8383   35.0424   38.8155 H   0  0  0  0  0  0  0  0  0  0  0  0
   47.0152   33.3976   39.0014 H   0  0  0  0  0  0  0  0  0  0  0  0
   45.9263   32.8820   41.1120 H   0  0  0  0  0  0  0  0  0  0  0  0
   41.8877   32.5496   40.6910 H   0  0  0  0  0  0  0  0  0  0  0  0
   42.2128   36.7089   41.1089 H   0  0  0  0  0  0  0  0  0  0  0  0
   40.3785   35.9064   39.5820 H   0  0  0  0  0  0  0  0  0  0  0  0
   39.3351   34.0131   41.3219 H   0  0  0  0  0  0  0  0  0  0  0  0
   38.4779   35.2561   40.2839 H   0  0  0  0  0  0  0  0  0  0  0  0
   39.0431   32.3634   39.5981 H   0  0  0  0  0  0  0  0  0  0  0  0
   37.4425   33.1553   39.9607 H   0  0  0  0  0  0  0  0  0  0  0  0
   38.2225   32.6896   37.4843 H   0  0  0  0  0  0  0  0  0  0  0  0
   37.3273   34.1935   37.9612 H   0  0  0  0  0  0  0  0  0  0  0  0
   39.5780   34.2598   36.4785 H   0  0  0  0  0  0  0  0  0  0  0  0
   39.1591   35.5496   37.6192 H   0  0  0  0  0  0  0  0  0  0  0  0
   40.6714   33.0266   38.5143 H   0  0  0  0  0  0  0  0  0  0  0  0
   41.5464   34.4295   37.8760 H   0  0  0  0  0  0  0  0  0  0  0  0
  1  6  2  0
  2  1  1  0
  3  2  2  0
  3  4  1  0
  4  5  2  0
  5  6  1  0
  7  3  1  0
  8  7  2  0
  9  8  1  0
 10 11  1  0
 10  9  2  0
 11 12  2  0
 12  7  1  0
 13  2  1  0
 14 15  1  0
 15 16  2  0
 16 13  1  0
 17 16  1  0
 18 14  1  0
 18 17  2  0
 19 20  1  0
 19 18  1  0
 21 20  1  0
 22 21  1  0
 23 22  1  0
 23 24  1  0
 24 19  1  0
  1 25  1  0
  5 26  1  0
  8 27  1  0
  9 28  1  0
 10 29  1  0
 11 30  1  0
 12 31  1  0
 14 32  1  0
 17 33  1  0
 19 34  1  0
 20 35  1  0
 20 36  1  0
 21 37  1  0
 21 38  1  0
 22 39  1  0
 22 40  1  0
 23 41  1  0
 23 42  1  0
 24 43  1  0
 24 44  1  0
M  END
>  <Score>  (1) 
-7.38537

$$$$
