
     RDKit          3D

 42 46  0  0  0  0  0  0  0  0999 V2000
   48.2590   33.5420   37.9450 S   0  0  0  0  0  0  0  0  0  0  0  0
   48.7720   34.8610   37.3390 O   0  0  0  0  0  0  0  0  0  0  0  0
   49.3470   32.5450   38.0720 O   0  0  0  0  0  0  0  0  0  0  0  0
   47.5790   33.9420   39.5240 C   0  0  0  0  0  0  0  0  0  0  0  0
   46.3570   33.4610   39.8870 C   0  0  0  0  0  0  0  0  0  0  0  0
   45.7800   33.7400   41.1070 C   0  0  0  0  0  0  0  0  0  0  0  0
   46.4460   34.5310   41.9950 C   0  0  0  0  0  0  0  0  0  0  0  0
   47.6730   35.0120   41.6240 C   0  0  0  0  0  0  0  0  0  0  0  0
   48.2720   34.7540   40.4270 C   0  0  0  0  0  0  0  0  0  0  0  0
   44.4560   36.1180   44.7970 C   0  0  0  0  0  0  0  0  0  0  0  0
   45.0350   35.9570   43.5010 C   0  0  0  0  0  0  0  0  0  0  0  0
   45.8050   34.8060   43.2730 C   0  0  0  0  0  0  0  0  0  0  0  0
   45.9670   33.9030   44.2740 N   0  0  0  0  0  0  0  0  0  0  0  0
   45.3920   34.1080   45.4870 C   0  0  0  0  0  0  0  0  0  0  0  0
   44.6490   35.2040   45.7320 N   0  0  0  0  0  0  0  0  0  0  0  0
   46.9660   32.9610   36.9330 C   0  0  0  0  0  0  0  0  0  0  0  0
   45.7310   33.3890   36.6700 N   0  0  0  0  0  0  0  0  0  0  0  0
   45.1420   32.6220   35.8480 O   0  0  0  0  0  0  0  0  0  0  0  0
   45.9400   31.6170   35.4960 C   0  0  0  0  0  0  0  0  0  0  0  0
   47.0440   31.8650   36.1830 N   0  0  0  0  0  0  0  0  0  0  0  0
   45.4390   30.6250   34.5530 C   0  0  0  0  0  0  0  0  0  0  0  0
   44.2520   30.0140   34.7010 N   0  0  0  0  0  0  0  0  0  0  0  0
   43.7700   29.0990   33.8490 C   0  0  0  0  0  0  0  0  0  0  0  0
   44.4530   28.7160   32.7560 N   0  0  0  0  0  0  0  0  0  0  0  0
   45.6530   29.2780   32.5270 C   0  0  0  0  0  0  0  0  0  0  0  0
   46.3680   28.8970   31.4110 C   0  0  0  0  0  0  0  0  0  0  0  0
   47.6010   29.4470   31.1390 C   0  0  0  0  0  0  0  0  0  0  0  0
   48.0850   30.3990   32.0420 C   0  0  0  0  0  0  0  0  0  0  0  0
   47.3380   30.7440   33.1350 C   0  0  0  0  0  0  0  0  0  0  0  0
   46.1190   30.2160   33.4250 C   0  0  0  0  0  0  0  0  0  0  0  0
   45.8087   32.8240   39.1774 H   0  0  0  0  0  0  0  0  0  0  0  0
   44.7921   33.3286   41.3615 H   0  0  0  0  0  0  0  0  0  0  0  0
   48.2118   35.6497   42.3402 H   0  0  0  0  0  0  0  0  0  0  0  0
   49.2610   35.1681   40.1813 H   0  0  0  0  0  0  0  0  0  0  0  0
   43.8467   37.0068   45.0178 H   0  0  0  0  0  0  0  0  0  0  0  0
   44.8830   36.7073   42.7111 H   0  0  0  0  0  0  0  0  0  0  0  0
   45.5359   33.3645   46.2848 H   0  0  0  0  0  0  0  0  0  0  0  0
   42.7869   28.6481   34.0496 H   0  0  0  0  0  0  0  0  0  0  0  0
   45.9477   28.1434   30.7287 H   0  0  0  0  0  0  0  0  0  0  0  0
   48.1792   29.1508   30.2513 H   0  0  0  0  0  0  0  0  0  0  0  0
   49.0649   30.8697   31.8737 H   0  0  0  0  0  0  0  0  0  0  0  0
   47.7499   31.4967   33.8233 H   0  0  0  0  0  0  0  0  0  0  0  0
  1  3  2  0
  1  4  1  0
  2  1  2  0
  4  5  2  0
  4  9  1  0
  5  6  1  0
  6  7  2  0
  7 12  1  0
  8  7  1  0
  9  8  2  0
 10 15  2  0
 11 10  1  0
 12 11  2  0
 12 13  1  0
 13 14  2  0
 14 15  1  0
 16  1  1  0
 17 16  2  0
 18 17  1  0
 19 18  1  0
 19 20  2  0
 20 16  1  0
 21 22  2  0
 21 19  1  0
 23 22  1  0
 24 23  2  0
 25 24  1  0
 25 30  2  0
 26 25  1  0
 27 26  2  0
 27 28  1  0
 28 29  2  0
 29 30  1  0
 30 21  1  0
  5 31  1  0
  6 32  1  0
  8 33  1  0
  9 34  1  0
 10 35  1  0
 11 36  1  0
 14 37  1  0
 23 38  1  0
 26 39  1  0
 27 40  1  0
 28 41  1  0
 29 42  1  0
M  END
>  <Score>  (1) 
-7.08064

$$$$
