
     RDKit          3D

 41 44  0  0  0  0  0  0  0  0999 V2000
   47.5640   33.9560   39.5220 C   0  0  0  0  0  0  0  0  0  0  0  0
   46.3580   33.4690   39.8990 C   0  0  0  0  0  0  0  0  0  0  0  0
   45.7890   33.7350   41.1270 C   0  0  0  0  0  0  0  0  0  0  0  0
   46.4560   34.5240   42.0230 C   0  0  0  0  0  0  0  0  0  0  0  0
   47.6720   35.0140   41.6420 C   0  0  0  0  0  0  0  0  0  0  0  0
   48.2650   34.7710   40.4360 C   0  0  0  0  0  0  0  0  0  0  0  0
   44.4630   36.0680   44.8450 C   0  0  0  0  0  0  0  0  0  0  0  0
   45.0430   35.9080   43.5530 C   0  0  0  0  0  0  0  0  0  0  0  0
   45.8220   34.7790   43.3040 C   0  0  0  0  0  0  0  0  0  0  0  0
   46.0050   33.8650   44.2920 N   0  0  0  0  0  0  0  0  0  0  0  0
   45.4300   34.0590   45.5170 C   0  0  0  0  0  0  0  0  0  0  0  0
   44.6710   35.1520   45.7730 N   0  0  0  0  0  0  0  0  0  0  0  0
   48.2460   33.5900   37.9480 S   0  0  0  0  0  0  0  0  0  0  0  0
   48.7810   34.8880   37.3630 O   0  0  0  0  0  0  0  0  0  0  0  0
   49.3160   32.5700   38.0560 O   0  0  0  0  0  0  0  0  0  0  0  0
   46.9500   33.0190   36.9200 C   0  0  0  0  0  0  0  0  0  0  0  0
   45.6570   33.4050   36.7960 N   0  0  0  0  0  0  0  0  0  0  0  0
   45.0640   32.7080   35.9140 O   0  0  0  0  0  0  0  0  0  0  0  0
   45.8990   31.8190   35.3910 C   0  0  0  0  0  0  0  0  0  0  0  0
   47.0580   32.0300   36.0270 N   0  0  0  0  0  0  0  0  0  0  0  0
   45.6040   30.8550   34.3690 N   0  0  0  0  0  0  0  0  0  0  0  0
   46.6020   30.4440   33.5850 C   0  0  0  0  0  0  0  0  0  0  0  0
   46.2120   29.5110   32.6290 C   0  0  0  0  0  0  0  0  0  0  0  0
   47.2280   28.9670   31.6830 C   0  0  0  0  0  0  0  0  0  0  0  0
   44.9160   29.0580   32.5080 C   0  0  0  0  0  0  0  0  0  0  0  0
   44.6210   28.2020   31.6120 O   0  0  0  0  0  0  0  0  0  0  0  0
   43.9550   29.5200   33.3410 N   0  0  0  0  0  0  0  0  0  0  0  0
   44.3290   30.4350   34.2800 C   0  0  0  0  0  0  0  0  0  0  0  0
   43.3960   30.8300   35.0270 O   0  0  0  0  0  0  0  0  0  0  0  0
   45.8062   32.8313   39.1927 H   0  0  0  0  0  0  0  0  0  0  0  0
   44.8052   33.3153   41.3839 H   0  0  0  0  0  0  0  0  0  0  0  0
   48.2130   35.6503   42.3579 H   0  0  0  0  0  0  0  0  0  0  0  0
   49.2496   35.1937   40.1871 H   0  0  0  0  0  0  0  0  0  0  0  0
   43.8451   36.9503   45.0680 H   0  0  0  0  0  0  0  0  0  0  0  0
   44.8792   36.6606   42.7677 H   0  0  0  0  0  0  0  0  0  0  0  0
   45.5865   33.3133   46.3104 H   0  0  0  0  0  0  0  0  0  0  0  0
   47.6352   30.8081   33.6847 H   0  0  0  0  0  0  0  0  0  0  0  0
   48.0579   28.5226   32.2520 H   0  0  0  0  0  0  0  0  0  0  0  0
   46.7639   28.1967   31.0496 H   0  0  0  0  0  0  0  0  0  0  0  0
   47.6118   29.7803   31.0496 H   0  0  0  0  0  0  0  0  0  0  0  0
   42.9807   29.1938   33.2687 H   0  0  0  0  0  0  0  0  0  0  0  0
  1  2  2  0
  1  6  1  0
  2  3  1  0
  3  4  2  0
  4  9  1  0
  5  4  1  0
  6  5  2  0
  7 12  2  0
  8  7  1  0
  9  8  2  0
  9 10  1  0
 10 11  2  0
 11 12  1  0
 13 15  2  0
 13  1  1  0
 14 13  2  0
 16 13  1  0
 17 16  2  0
 18 17  1  0
 19 18  1  0
 19 20  2  0
 20 16  1  0
 21 19  1  0
 22 21  1  0
 23 22  2  0
 24 23  1  0
 25 23  1  0
 25 27  1  0
 26 25  2  0
 27 28  1  0
 28 21  1  0
 28 29  2  0
  2 30  1  0
  3 31  1  0
  5 32  1  0
  6 33  1  0
  7 34  1  0
  8 35  1  0
 11 36  1  0
 22 37  1  0
 24 38  1  0
 24 39  1  0
 24 40  1  0
 27 41  1  0
M  END
>  <Score>  (1) 
-7.29463

$$$$
