
     RDKit          3D

 43 47  0  0  0  0  0  0  0  0999 V2000
   46.5770   34.6910   42.1720 C   0  0  0  0  0  0  0  0  0  0  0  0
   47.7840   35.3130   42.0040 C   0  0  0  0  0  0  0  0  0  0  0  0
   48.5260   35.1700   40.8160 C   0  0  0  0  0  0  0  0  0  0  0  0
   47.9990   34.3650   39.7910 C   0  0  0  0  0  0  0  0  0  0  0  0
   46.7780   33.7370   39.9680 C   0  0  0  0  0  0  0  0  0  0  0  0
   46.1020   33.9150   41.1460 C   0  0  0  0  0  0  0  0  0  0  0  0
   44.8340   33.2530   41.3060 N   0  0  0  0  0  0  0  0  0  0  0  0
   44.6080   31.9960   41.7640 C   0  0  0  0  0  0  0  0  0  0  0  0
   43.3310   31.5220   41.8520 C   0  0  0  0  0  0  0  0  0  0  0  0
   42.2540   32.2800   41.4900 C   0  0  0  0  0  0  0  0  0  0  0  0
   41.0870   31.8010   41.5880 O   0  0  0  0  0  0  0  0  0  0  0  0
   42.5100   33.5410   41.0320 N   0  0  0  0  0  0  0  0  0  0  0  0
   43.7600   34.0030   40.9470 C   0  0  0  0  0  0  0  0  0  0  0  0
   43.8620   35.1940   40.5050 O   0  0  0  0  0  0  0  0  0  0  0  0
   41.3670   34.3110   40.6610 C   0  0  0  0  0  0  0  0  0  0  0  0
   41.3180   35.6400   41.0040 C   0  0  0  0  0  0  0  0  0  0  0  0
   40.1100   36.1530   40.5280 C   0  0  0  0  0  0  0  0  0  0  0  0
   39.4770   35.1150   39.9150 N   0  0  0  0  0  0  0  0  0  0  0  0
   40.2340   34.0380   40.0040 N   0  0  0  0  0  0  0  0  0  0  0  0
   44.4200   36.0540   44.9590 C   0  0  0  0  0  0  0  0  0  0  0  0
   45.0350   35.9490   43.7140 C   0  0  0  0  0  0  0  0  0  0  0  0
   45.8800   34.9000   43.4400 C   0  0  0  0  0  0  0  0  0  0  0  0
   46.0930   33.9710   44.4230 N   0  0  0  0  0  0  0  0  0  0  0  0
   45.4800   34.0880   45.6420 C   0  0  0  0  0  0  0  0  0  0  0  0
   44.6570   35.1180   45.8980 N   0  0  0  0  0  0  0  0  0  0  0  0
   45.7810   33.0620   46.5770 N   0  0  0  0  0  0  0  0  0  0  0  0
   46.7900   32.2450   46.2450 C   0  0  0  0  0  0  0  0  0  0  0  0
   46.9480   31.3260   47.2390 N   0  0  0  0  0  0  0  0  0  0  0  0
   46.0090   31.6010   48.1900 C   0  0  0  0  0  0  0  0  0  0  0  0
   45.3120   32.6750   47.7440 N   0  0  0  0  0  0  0  0  0  0  0  0
   48.1837   35.9389   42.8154 H   0  0  0  0  0  0  0  0  0  0  0  0
   49.4949   35.6760   40.6928 H   0  0  0  0  0  0  0  0  0  0  0  0
   48.5552   34.2345   38.8510 H   0  0  0  0  0  0  0  0  0  0  0  0
   46.3564   33.1037   39.1735 H   0  0  0  0  0  0  0  0  0  0  0  0
   45.4533   31.3593   42.0642 H   0  0  0  0  0  0  0  0  0  0  0  0
   43.1646   30.5006   42.2250 H   0  0  0  0  0  0  0  0  0  0  0  0
   42.0900   36.1985   41.5537 H   0  0  0  0  0  0  0  0  0  0  0  0
   39.7441   37.1855   40.6278 H   0  0  0  0  0  0  0  0  0  0  0  0
   38.5561   35.1628   39.4560 H   0  0  0  0  0  0  0  0  0  0  0  0
   43.7452   36.8957   45.1741 H   0  0  0  0  0  0  0  0  0  0  0  0
   44.8432   36.7110   42.9443 H   0  0  0  0  0  0  0  0  0  0  0  0
   47.3898   32.3058   45.3250 H   0  0  0  0  0  0  0  0  0  0  0  0
   45.8489   31.0580   49.1332 H   0  0  0  0  0  0  0  0  0  0  0  0
  1 22  1  0
  2  1  2  0
  3  2  1  0
  4  5  1  0
  4  3  2  0
  5  6  2  0
  6  7  1  0
  6  1  1  0
  7  8  1  0
  8  9  2  0
 10 11  2  0
 10  9  1  0
 12 10  1  0
 13 12  1  0
 13  7  1  0
 14 13  2  0
 15 16  1  0
 15 12  1  0
 17 16  2  0
 18 19  1  0
 18 17  1  0
 19 15  2  0
 20 25  2  0
 21 20  1  0
 22 21  2  0
 22 23  1  0
 23 24  2  0
 24 25  1  0
 24 26  1  0
 26 30  1  0
 27 26  1  0
 27 28  2  0
 28 29  1  0
 30 29  2  0
  2 31  1  0
  3 32  1  0
  4 33  1  0
  5 34  1  0
  8 35  1  0
  9 36  1  0
 16 37  1  0
 17 38  1  0
 18 39  1  0
 20 40  1  0
 21 41  1  0
 27 42  1  0
 29 43  1  0
M  END
>  <Score>  (1) 
-8.94785

$$$$
