
     RDKit          3D

 39 43  0  0  0  0  0  0  0  0999 V2000
   44.6100   35.7450   44.7250 C   0  0  0  0  0  0  0  0  0  0  0  0
   44.1410   35.5840   43.4080 C   0  0  0  0  0  0  0  0  0  0  0  0
   44.4420   34.3950   42.8000 C   0  0  0  0  0  0  0  0  0  0  0  0
   45.1560   33.4970   43.5200 N   0  0  0  0  0  0  0  0  0  0  0  0
   45.6120   33.6310   44.7780 C   0  0  0  0  0  0  0  0  0  0  0  0
   45.2840   34.7760   45.2690 N   0  0  0  0  0  0  0  0  0  0  0  0
   46.3320   32.4720   45.2300 C   0  0  0  0  0  0  0  0  0  0  0  0
   47.1450   31.7300   44.3870 C   0  0  0  0  0  0  0  0  0  0  0  0
   47.8370   30.6200   44.7920 C   0  0  0  0  0  0  0  0  0  0  0  0
   47.7620   30.1700   46.0840 C   0  0  0  0  0  0  0  0  0  0  0  0
   46.9760   30.8730   46.9320 C   0  0  0  0  0  0  0  0  0  0  0  0
   46.8950   30.4240   48.2380 C   0  0  0  0  0  0  0  0  0  0  0  0
   46.1190   31.0790   49.1710 C   0  0  0  0  0  0  0  0  0  0  0  0
   45.4200   32.2050   48.7540 C   0  0  0  0  0  0  0  0  0  0  0  0
   45.5490   32.5870   47.4480 C   0  0  0  0  0  0  0  0  0  0  0  0
   46.2980   31.9770   46.4950 C   0  0  0  0  0  0  0  0  0  0  0  0
   44.0010   34.1230   41.4380 C   0  0  0  0  0  0  0  0  0  0  0  0
   44.9550   33.6510   40.4510 C   0  0  0  0  0  0  0  0  0  0  0  0
   43.8880   33.4610   38.9070 S   0  0  0  0  0  0  0  0  0  0  0  0
   42.3980   34.0490   39.8980 C   0  0  0  0  0  0  0  0  0  0  0  0
   42.7930   34.2410   40.9190 N   0  0  0  0  0  0  0  0  0  0  0  0
   41.0410   34.1950   39.3640 N   0  0  0  0  0  0  0  0  0  0  0  0
   40.0950   34.3740   40.2950 N   0  0  0  0  0  0  0  0  0  0  0  0
   38.9030   34.4930   39.6810 C   0  0  0  0  0  0  0  0  0  0  0  0
   39.1480   34.3810   38.3240 C   0  0  0  0  0  0  0  0  0  0  0  0
   40.5170   34.1900   38.1240 C   0  0  0  0  0  0  0  0  0  0  0  0
   44.4103   36.6719   45.2826 H   0  0  0  0  0  0  0  0  0  0  0  0
   43.5652   36.3691   42.8961 H   0  0  0  0  0  0  0  0  0  0  0  0
   47.2390   32.0495   43.3386 H   0  0  0  0  0  0  0  0  0  0  0  0
   48.4642   30.0801   44.0673 H   0  0  0  0  0  0  0  0  0  0  0  0
   48.3148   29.2790   46.4163 H   0  0  0  0  0  0  0  0  0  0  0  0
   47.4596   29.5287   48.5375 H   0  0  0  0  0  0  0  0  0  0  0  0
   46.0556   30.7223   50.2096 H   0  0  0  0  0  0  0  0  0  0  0  0
   44.7842   32.7700   49.4514 H   0  0  0  0  0  0  0  0  0  0  0  0
   44.9880   33.4808   47.1376 H   0  0  0  0  0  0  0  0  0  0  0  0
   46.0303   33.4536   40.5728 H   0  0  0  0  0  0  0  0  0  0  0  0
   37.9266   34.6486   40.1632 H   0  0  0  0  0  0  0  0  0  0  0  0
   38.3876   34.4338   37.5309 H   0  0  0  0  0  0  0  0  0  0  0  0
   41.0475   34.0639   37.1686 H   0  0  0  0  0  0  0  0  0  0  0  0
  1  6  2  0
  2  1  1  0
  3  2  2  0
  3  4  1  0
  4  5  2  0
  5  7  1  0
  5  6  1  0
  7 16  2  0
  8  9  2  0
  8  7  1  0
  9 10  1  0
 10 11  2  0
 11 12  1  0
 12 13  2  0
 14 13  1  0
 15 14  2  0
 16 11  1  0
 16 15  1  0
 17  3  1  0
 18 17  2  0
 19 20  1  0
 19 18  1  0
 20 21  2  0
 21 17  1  0
 22 20  1  0
 22 23  1  0
 24 23  2  0
 25 24  1  0
 26 25  2  0
 26 22  1  0
  1 27  1  0
  2 28  1  0
  8 29  1  0
  9 30  1  0
 10 31  1  0
 12 32  1  0
 13 33  1  0
 14 34  1  0
 15 35  1  0
 18 36  1  0
 24 37  1  0
 25 38  1  0
 26 39  1  0
M  END
>  <Score>  (1) 
-7.30031

$$$$
