
     RDKit          3D

 46 51  0  0  1  0  0  0  0  0999 V2000
   46.9670   34.6340   42.2810 N   0  0  0  0  0  0  0  0  0  0  0  0
   48.3940   34.6730   42.4170 C   0  0  0  0  0  0  0  0  0  0  0  0
   49.0590   33.9570   41.2910 C   0  0  0  0  0  0  0  0  0  0  0  0
   48.5160   34.5050   40.0530 N   0  0  0  0  0  0  0  0  0  0  0  0
   47.2090   33.9290   39.9320 C   0  0  0  0  0  0  0  0  0  0  0  0
   46.2840   34.4040   41.0260 C   0  0  1  0  0  0  0  0  0  0  0  0
   44.4930   35.9920   44.7390 C   0  0  0  0  0  0  0  0  0  0  0  0
   45.2540   35.8870   43.5740 C   0  0  0  0  0  0  0  0  0  0  0  0
   46.1500   34.8270   43.4270 C   0  0  0  0  0  0  0  0  0  0  0  0
   46.2050   33.9590   44.4700 N   0  0  0  0  0  0  0  0  0  0  0  0
   45.4690   34.0700   45.5880 C   0  0  0  0  0  0  0  0  0  0  0  0
   44.6190   35.0750   45.7240 N   0  0  0  0  0  0  0  0  0  0  0  0
   45.6470   33.0590   46.6040 N   0  0  0  0  0  0  0  0  0  0  0  0
   45.2250   32.9780   47.8780 C   0  0  0  0  0  0  0  0  0  0  0  0
   45.6640   31.8180   48.4060 N   0  0  0  0  0  0  0  0  0  0  0  0
   46.3630   31.1830   47.4460 C   0  0  0  0  0  0  0  0  0  0  0  0
   47.0000   29.9560   47.5340 C   0  0  0  0  0  0  0  0  0  0  0  0
   47.6300   29.5680   46.3930 N   0  0  0  0  0  0  0  0  0  0  0  0
   47.6340   30.3110   45.2710 C   0  0  0  0  0  0  0  0  0  0  0  0
   47.0120   31.4950   45.2090 N   0  0  0  0  0  0  0  0  0  0  0  0
   46.3690   31.9420   46.2990 C   0  0  0  0  0  0  0  0  0  0  0  0
   45.1330   33.5480   41.1190 N   0  0  0  0  0  0  0  0  0  0  0  0
   45.0610   32.2490   41.4310 C   0  0  0  0  0  0  0  0  0  0  0  0
   43.7950   31.7800   41.4180 N   0  0  0  0  0  0  0  0  0  0  0  0
   42.9910   32.8070   41.0850 C   0  0  0  0  0  0  0  0  0  0  0  0
   41.6380   33.0080   40.8980 C   0  0  0  0  0  0  0  0  0  0  0  0
   41.1570   34.2290   40.5490 N   0  0  0  0  0  0  0  0  0  0  0  0
   42.0160   35.2470   40.3860 C   0  0  0  0  0  0  0  0  0  0  0  0
   43.3430   35.1060   40.5560 N   0  0  0  0  0  0  0  0  0  0  0  0
   43.8410   33.8800   40.9060 C   0  0  0  0  0  0  0  0  0  0  0  0
   48.7261   35.7217   42.4223 H   0  0  0  0  0  0  0  0  0  0  0  0
   48.6694   34.1761   43.3589 H   0  0  0  0  0  0  0  0  0  0  0  0
   50.1462   34.1194   41.3304 H   0  0  0  0  0  0  0  0  0  0  0  0
   48.8755   32.8742   41.3532 H   0  0  0  0  0  0  0  0  0  0  0  0
   48.4551   35.5317   40.1080 H   0  0  0  0  0  0  0  0  0  0  0  0
   46.7837   34.2125   38.9580 H   0  0  0  0  0  0  0  0  0  0  0  0
   47.3073   32.8367   40.0175 H   0  0  0  0  0  0  0  0  0  0  0  0
   45.9073   35.4003   40.7514 H   0  0  0  0  0  0  0  0  0  0  0  0
   43.7860   36.8265   44.8565 H   0  0  0  0  0  0  0  0  0  0  0  0
   45.1482   36.6360   42.7754 H   0  0  0  0  0  0  0  0  0  0  0  0
   44.6214   33.7333   48.4026 H   0  0  0  0  0  0  0  0  0  0  0  0
   46.9965   29.3467   48.4499 H   0  0  0  0  0  0  0  0  0  0  0  0
   48.1619   29.9359   44.3818 H   0  0  0  0  0  0  0  0  0  0  0  0
   45.9380   31.6303   41.6719 H   0  0  0  0  0  0  0  0  0  0  0  0
   40.9406   32.1682   41.0335 H   0  0  0  0  0  0  0  0  0  0  0  0
   41.6203   36.2335   40.1028 H   0  0  0  0  0  0  0  0  0  0  0  0
  1  2  1  0
  1  9  1  0
  3  2  1  0
  4  3  1  0
  5  4  1  0
  5  6  1  0
  6 22  1  0
  6  1  1  0
  7 12  2  0
  8  7  1  0
  9  8  2  0
  9 10  1  0
 10 11  2  0
 11 12  1  0
 11 13  1  0
 13 14  1  0
 14 15  2  0
 16 17  2  0
 16 15  1  0
 18 17  1  0
 19 18  2  0
 20 19  1  0
 20 21  2  0
 21 13  1  0
 21 16  1  0
 22 23  1  0
 24 23  2  0
 25 24  1  0
 26 25  2  0
 27 26  1  0
 28 27  2  0
 28 29  1  0
 29 30  2  0
 30 25  1  0
 30 22  1  0
  2 31  1  0
  2 32  1  0
  3 33  1  0
  3 34  1  0
  4 35  1  0
  5 36  1  0
  5 37  1  0
  6 38  1  6
  7 39  1  0
  8 40  1  0
 14 41  1  0
 17 42  1  0
 19 43  1  0
 23 44  1  0
 26 45  1  0
 28 46  1  0
M  END
>  <Score>  (1) 
-7.53825

$$$$
