
     RDKit          3D

 39 41  0  0  1  0  0  0  0  0999 V2000
   44.7080   35.3580   44.9790 C   0  0  0  0  0  0  0  0  0  0  0  0
   45.3800   35.5140   43.7460 C   0  0  0  0  0  0  0  0  0  0  0  0
   46.3040   34.5560   43.4360 C   0  0  0  0  0  0  0  0  0  0  0  0
   46.5390   33.5230   44.2940 N   0  0  0  0  0  0  0  0  0  0  0  0
   45.8730   33.4110   45.4670 C   0  0  0  0  0  0  0  0  0  0  0  0
   44.9600   34.3310   45.8020 N   0  0  0  0  0  0  0  0  0  0  0  0
   46.1490   32.3190   46.3290 N   0  0  0  0  0  0  0  0  0  0  0  0
   47.1840   31.3640   45.9750 C   0  0  0  0  0  0  0  0  0  0  0  0
   46.6660   29.9770   46.2680 C   0  0  0  0  0  0  0  0  0  0  0  0
   46.0720   29.8450   47.5030 O   0  0  0  0  0  0  0  0  0  0  0  0
   46.0810   30.9840   48.2850 C   0  0  0  0  0  0  0  0  0  0  0  0
   45.4110   32.1540   47.5520 C   0  0  1  0  0  0  0  0  0  0  0  0
   47.0350   34.6530   42.1790 C   0  0  0  0  0  0  0  0  0  0  0  0
   48.2390   35.2690   41.9500 C   0  0  0  0  0  0  0  0  0  0  0  0
   48.4690   35.0580   40.5830 C   0  0  0  0  0  0  0  0  0  0  0  0
   47.4180   34.3440   40.0710 C   0  0  0  0  0  0  0  0  0  0  0  0
   46.6090   34.1440   41.0850 O   0  0  0  0  0  0  0  0  0  0  0  0
   47.2580   33.9230   38.7320 N   0  0  0  0  0  0  0  0  0  0  0  0
   48.2810   34.0460   37.7670 C   0  0  0  0  0  0  0  0  0  0  0  0
   49.0530   35.1060   37.8390 N   0  0  0  0  0  0  0  0  0  0  0  0
   48.3940   33.0000   36.7820 N   0  0  0  0  0  0  0  0  0  0  0  0
   49.8490   35.1180   37.1530 H   0  0  0  0  0  0  0  0  0  0  0  0
   45.4190   33.3120   48.4050 N   0  0  0  0  0  0  0  0  0  0  0  0
   43.9541   36.1032   45.2727 H   0  0  0  0  0  0  0  0  0  0  0  0
   45.1712   36.3590   43.0734 H   0  0  0  0  0  0  0  0  0  0  0  0
   48.0884   31.5572   46.5705 H   0  0  0  0  0  0  0  0  0  0  0  0
   47.4385   31.4572   44.9089 H   0  0  0  0  0  0  0  0  0  0  0  0
   45.9241   29.7164   45.4989 H   0  0  0  0  0  0  0  0  0  0  0  0
   47.5382   29.3067   46.2638 H   0  0  0  0  0  0  0  0  0  0  0  0
   45.5359   30.7842   49.2193 H   0  0  0  0  0  0  0  0  0  0  0  0
   47.1250   31.2549   48.5011 H   0  0  0  0  0  0  0  0  0  0  0  0
   44.3527   31.9795   47.3081 H   0  0  0  0  0  0  0  0  0  0  0  0
   48.8754   35.8036   42.6705 H   0  0  0  0  0  0  0  0  0  0  0  0
   49.3454   35.4069   40.0172 H   0  0  0  0  0  0  0  0  0  0  0  0
   46.3583   33.5095   38.4483 H   0  0  0  0  0  0  0  0  0  0  0  0
   47.7429   32.2022   36.8010 H   0  0  0  0  0  0  0  0  0  0  0  0
   49.1259   33.0503   36.0590 H   0  0  0  0  0  0  0  0  0  0  0  0
   45.4169   33.0125   49.3905 H   0  0  0  0  0  0  0  0  0  0  0  0
   46.2639   33.8706   48.2177 H   0  0  0  0  0  0  0  0  0  0  0  0
  1  6  2  0
  2  1  1  0
  3  2  2  0
  3  4  1  0
  4  5  2  0
  5  6  1  0
  5  7  1  0
  7 12  1  0
  8  9  1  0
  8  7  1  0
  9 10  1  0
 10 11  1  0
 12 11  1  0
 12 23  1  0
 13  3  1  0
 14 13  2  0
 15 14  1  0
 16 15  2  0
 16 17  1  0
 17 13  1  0
 18 16  1  0
 19 20  2  0
 19 18  1  0
 21 19  1  0
 22 20  1  0
  1 24  1  0
  2 25  1  0
  8 26  1  0
  8 27  1  0
  9 28  1  0
  9 29  1  0
 11 30  1  0
 11 31  1  0
 12 32  1  6
 14 33  1  0
 15 34  1  0
 18 35  1  0
 21 36  1  0
 21 37  1  0
 23 38  1  0
 23 39  1  0
M  END
>  <Score>  (1) 
-7.27936

$$$$
