
     RDKit          3D

 42 45  0  0  0  0  0  0  0  0999 V2000
   46.7430   34.7850   41.6970 C   0  0  0  0  0  0  0  0  0  0  0  0
   44.5770   35.8870   44.5620 C   0  0  0  0  0  0  0  0  0  0  0  0
   45.1850   35.8440   43.2970 C   0  0  0  0  0  0  0  0  0  0  0  0
   46.0910   34.8430   43.0300 C   0  0  0  0  0  0  0  0  0  0  0  0
   46.3580   33.9350   44.0110 N   0  0  0  0  0  0  0  0  0  0  0  0
   45.7570   33.9900   45.2400 C   0  0  0  0  0  0  0  0  0  0  0  0
   44.8670   34.9780   45.4930 N   0  0  0  0  0  0  0  0  0  0  0  0
   46.0620   33.0140   46.2530 C   0  0  0  0  0  0  0  0  0  0  0  0
   45.3740   33.0380   47.4590 C   0  0  0  0  0  0  0  0  0  0  0  0
   45.6040   32.1310   48.4930 C   0  0  0  0  0  0  0  0  0  0  0  0
   46.5650   31.2230   48.2050 C   0  0  0  0  0  0  0  0  0  0  0  0
   47.2820   31.1550   47.0160 C   0  0  0  0  0  0  0  0  0  0  0  0
   46.9730   32.0790   46.0970 N   0  0  0  0  0  0  0  0  0  0  0  0
   44.3780   34.0460   47.6470 N   0  0  0  0  0  0  0  0  0  0  0  0
   48.1760   35.3000   41.7560 C   0  0  0  0  0  0  0  0  0  0  0  0
   49.1480   34.2360   42.0310 C   0  0  0  0  0  0  0  0  0  0  0  0
   50.3950   34.4710   42.4310 N   0  0  0  0  0  0  0  0  0  0  0  0
   51.0070   33.3370   42.5920 O   0  0  0  0  0  0  0  0  0  0  0  0
   50.1790   32.3440   42.3030 C   0  0  0  0  0  0  0  0  0  0  0  0
   49.0040   32.9030   41.9480 N   0  0  0  0  0  0  0  0  0  0  0  0
   50.6240   30.9970   42.4040 N   0  0  0  0  0  0  0  0  0  0  0  0
   50.5110   30.0610   43.3450 N   0  0  0  0  0  0  0  0  0  0  0  0
   51.1210   28.9290   42.9440 C   0  0  0  0  0  0  0  0  0  0  0  0
   51.6440   29.1810   41.6710 C   0  0  0  0  0  0  0  0  0  0  0  0
   51.3080   30.5040   41.3630 C   0  0  0  0  0  0  0  0  0  0  0  0
   51.7220   31.1000   40.0540 C   0  0  0  0  0  0  0  0  0  0  0  0
   52.0830   30.1140   39.1820 F   0  0  0  0  0  0  0  0  0  0  0  0
   50.7300   31.8490   39.4720 F   0  0  0  0  0  0  0  0  0  0  0  0
   52.7930   31.9820   40.2580 F   0  0  0  0  0  0  0  0  0  0  0  0
   46.1693   35.4032   40.9908 H   0  0  0  0  0  0  0  0  0  0  0  0
   46.7656   33.7356   41.3681 H   0  0  0  0  0  0  0  0  0  0  0  0
   43.8511   36.6820   44.7880 H   0  0  0  0  0  0  0  0  0  0  0  0
   44.9415   36.5970   42.5330 H   0  0  0  0  0  0  0  0  0  0  0  0
   45.0584   32.1517   49.4479 H   0  0  0  0  0  0  0  0  0  0  0  0
   46.7987   30.4753   48.9772 H   0  0  0  0  0  0  0  0  0  0  0  0
   48.0539   30.3911   46.8411 H   0  0  0  0  0  0  0  0  0  0  0  0
   43.8504   34.0902   48.5305 H   0  0  0  0  0  0  0  0  0  0  0  0
   44.1879   34.7281   46.8990 H   0  0  0  0  0  0  0  0  0  0  0  0
   48.4241   35.7623   40.7892 H   0  0  0  0  0  0  0  0  0  0  0  0
   48.2350   36.0258   42.5804 H   0  0  0  0  0  0  0  0  0  0  0  0
   51.1939   27.9878   43.5086 H   0  0  0  0  0  0  0  0  0  0  0  0
   52.2071   28.4790   41.0384 H   0  0  0  0  0  0  0  0  0  0  0  0
  1 15  1  0
  1  4  1  0
  2  7  2  0
  3  2  1  0
  4  3  2  0
  4  5  1  0
  5  6  2  0
  6  7  1  0
  6  8  1  0
  8  9  2  0
  9 14  1  0
  9 10  1  0
 11 10  2  0
 12 11  1  0
 13  8  1  0
 13 12  2  0
 15 16  1  0
 16 17  2  0
 17 18  1  0
 19 21  1  0
 19 18  1  0
 20 16  1  0
 20 19  2  0
 21 22  1  0
 23 22  2  0
 24 23  1  0
 25 24  2  0
 25 21  1  0
 26 29  1  0
 26 25  1  0
 27 26  1  0
 28 26  1  0
  1 30  1  0
  1 31  1  0
  2 32  1  0
  3 33  1  0
 10 34  1  0
 11 35  1  0
 12 36  1  0
 14 37  1  0
 14 38  1  0
 15 39  1  0
 15 40  1  0
 23 41  1  0
 24 42  1  0
M  END
>  <Score>  (1) 
-7.18433

$$$$
