
     RDKit          3D

 45 49  0  0  0  0  0  0  0  0999 V2000
   44.6220   35.7230   44.7560 C   0  0  0  0  0  0  0  0  0  0  0  0
   44.1540   35.5580   43.4440 C   0  0  0  0  0  0  0  0  0  0  0  0
   44.4620   34.3620   42.8350 C   0  0  0  0  0  0  0  0  0  0  0  0
   45.1710   33.4850   43.5570 N   0  0  0  0  0  0  0  0  0  0  0  0
   45.6310   33.6170   44.8120 C   0  0  0  0  0  0  0  0  0  0  0  0
   45.3000   34.7620   45.3070 N   0  0  0  0  0  0  0  0  0  0  0  0
   46.3500   32.4660   45.2710 C   0  0  0  0  0  0  0  0  0  0  0  0
   47.1690   31.7220   44.4290 C   0  0  0  0  0  0  0  0  0  0  0  0
   47.8630   30.6080   44.8260 C   0  0  0  0  0  0  0  0  0  0  0  0
   47.7780   30.1530   46.1250 C   0  0  0  0  0  0  0  0  0  0  0  0
   46.9890   30.8560   46.9690 C   0  0  0  0  0  0  0  0  0  0  0  0
   46.9010   30.3990   48.2820 C   0  0  0  0  0  0  0  0  0  0  0  0
   46.1170   31.0600   49.2000 C   0  0  0  0  0  0  0  0  0  0  0  0
   45.4180   32.1860   48.7940 C   0  0  0  0  0  0  0  0  0  0  0  0
   45.5560   32.5730   47.4870 C   0  0  0  0  0  0  0  0  0  0  0  0
   46.3200   31.9580   46.5260 C   0  0  0  0  0  0  0  0  0  0  0  0
   44.0020   34.0840   41.4790 C   0  0  0  0  0  0  0  0  0  0  0  0
   44.9680   33.7330   40.4620 C   0  0  0  0  0  0  0  0  0  0  0  0
   43.8860   33.4620   38.9360 S   0  0  0  0  0  0  0  0  0  0  0  0
   42.3680   33.8780   39.9850 C   0  0  0  0  0  0  0  0  0  0  0  0
   42.7600   34.0930   41.0050 N   0  0  0  0  0  0  0  0  0  0  0  0
   40.9190   33.9650   39.7690 N   0  0  0  0  0  0  0  0  0  0  0  0
   40.1730   34.7490   38.8040 C   0  0  0  0  0  0  0  0  0  0  0  0
   38.7990   34.1460   38.7290 C   0  0  0  0  0  0  0  0  0  0  0  0
   38.2890   34.1180   40.0390 O   0  0  0  0  0  0  0  0  0  0  0  0
   38.8410   33.0030   40.6560 C   0  0  0  0  0  0  0  0  0  0  0  0
   40.3440   33.0790   40.7420 C   0  0  0  0  0  0  0  0  0  0  0  0
   44.4180   36.6515   45.3094 H   0  0  0  0  0  0  0  0  0  0  0  0
   43.5741   36.3393   42.9309 H   0  0  0  0  0  0  0  0  0  0  0  0
   47.2659   32.0463   43.3824 H   0  0  0  0  0  0  0  0  0  0  0  0
   48.4936   30.0721   44.1013 H   0  0  0  0  0  0  0  0  0  0  0  0
   48.3264   29.2599   46.4591 H   0  0  0  0  0  0  0  0  0  0  0  0
   47.4621   29.5035   48.5873 H   0  0  0  0  0  0  0  0  0  0  0  0
   46.0464   30.7011   50.2374 H   0  0  0  0  0  0  0  0  0  0  0  0
   44.7787   32.7459   49.4925 H   0  0  0  0  0  0  0  0  0  0  0  0
   44.9976   33.4681   47.1756 H   0  0  0  0  0  0  0  0  0  0  0  0
   46.0607   33.6455   40.5536 H   0  0  0  0  0  0  0  0  0  0  0  0
   40.1100   35.7965   39.1339 H   0  0  0  0  0  0  0  0  0  0  0  0
   40.6646   34.7380   37.8200 H   0  0  0  0  0  0  0  0  0  0  0  0
   38.1520   34.7597   38.0850 H   0  0  0  0  0  0  0  0  0  0  0  0
   38.8382   33.1331   38.3018 H   0  0  0  0  0  0  0  0  0  0  0  0
   38.4324   32.9242   41.6743 H   0  0  0  0  0  0  0  0  0  0  0  0
   38.5839   32.1222   40.0493 H   0  0  0  0  0  0  0  0  0  0  0  0
   40.7553   32.0711   40.5842 H   0  0  0  0  0  0  0  0  0  0  0  0
   40.5964   33.4752   41.7366 H   0  0  0  0  0  0  0  0  0  0  0  0
  1  6  2  0
  2  1  1  0
  3  2  2  0
  3  4  1  0
  4  5  2  0
  5  7  1  0
  5  6  1  0
  7 16  2  0
  8  9  2  0
  8  7  1  0
  9 10  1  0
 10 11  2  0
 11 12  1  0
 12 13  2  0
 14 13  1  0
 15 14  2  0
 16 11  1  0
 16 15  1  0
 17  3  1  0
 18 17  2  0
 19 20  1  0
 19 18  1  0
 20 21  2  0
 21 17  1  0
 22 20  1  0
 22 27  1  0
 23 22  1  0
 24 23  1  0
 24 25  1  0
 25 26  1  0
 26 27  1  0
  1 28  1  0
  2 29  1  0
  8 30  1  0
  9 31  1  0
 10 32  1  0
 12 33  1  0
 13 34  1  0
 14 35  1  0
 15 36  1  0
 18 37  1  0
 23 38  1  0
 23 39  1  0
 24 40  1  0
 24 41  1  0
 26 42  1  0
 26 43  1  0
 27 44  1  0
 27 45  1  0
M  END
>  <Score>  (1) 
-7.31939

$$$$
