
     RDKit          3D

 34 36  0  0  0  0  0  0  0  0999 V2000
   44.4390   36.0610   44.5130 C   0  0  0  0  0  0  0  0  0  0  0  0
   45.2060   35.9980   43.3140 C   0  0  0  0  0  0  0  0  0  0  0  0
   46.1160   34.9710   43.2390 C   0  0  0  0  0  0  0  0  0  0  0  0
   46.2660   34.0680   44.2620 N   0  0  0  0  0  0  0  0  0  0  0  0
   45.4980   34.1850   45.3870 C   0  0  0  0  0  0  0  0  0  0  0  0
   44.5890   35.1810   45.5080 N   0  0  0  0  0  0  0  0  0  0  0  0
   45.8120   33.1520   46.3210 N   0  0  0  0  0  0  0  0  0  0  0  0
   45.2870   33.1400   47.5600 C   0  0  0  0  0  0  0  0  0  0  0  0
   45.6910   32.0650   48.3510 C   0  0  0  0  0  0  0  0  0  0  0  0
   46.5530   31.0990   47.9050 C   0  0  0  0  0  0  0  0  0  0  0  0
   46.8770   30.1530   48.6750 O   0  0  0  0  0  0  0  0  0  0  0  0
   47.0180   31.2050   46.6550 N   0  0  0  0  0  0  0  0  0  0  0  0
   46.6540   32.2340   45.8440 C   0  0  0  0  0  0  0  0  0  0  0  0
   47.1470   32.2380   44.6940 O   0  0  0  0  0  0  0  0  0  0  0  0
   46.9310   34.8520   42.0350 C   0  0  0  0  0  0  0  0  0  0  0  0
   48.2510   35.2500   41.8890 C   0  0  0  0  0  0  0  0  0  0  0  0
   48.5380   34.9100   40.5560 C   0  0  0  0  0  0  0  0  0  0  0  0
   47.4150   34.3470   39.9910 C   0  0  0  0  0  0  0  0  0  0  0  0
   46.4980   34.3450   40.9320 O   0  0  0  0  0  0  0  0  0  0  0  0
   47.2830   33.8700   38.6720 N   0  0  0  0  0  0  0  0  0  0  0  0
   48.3250   33.9740   37.7220 C   0  0  0  0  0  0  0  0  0  0  0  0
   49.0680   35.0630   37.7590 N   0  0  0  0  0  0  0  0  0  0  0  0
   48.5000   32.8870   36.7810 N   0  0  0  0  0  0  0  0  0  0  0  0
   49.8730   35.0640   37.0960 H   0  0  0  0  0  0  0  0  0  0  0  0
   43.6954   36.8640   44.6241 H   0  0  0  0  0  0  0  0  0  0  0  0
   45.0778   36.7259   42.4993 H   0  0  0  0  0  0  0  0  0  0  0  0
   44.5950   33.9156   47.9198 H   0  0  0  0  0  0  0  0  0  0  0  0
   45.3007   31.9898   49.3767 H   0  0  0  0  0  0  0  0  0  0  0  0
   47.6676   30.4897   46.2982 H   0  0  0  0  0  0  0  0  0  0  0  0
   48.9117   35.7174   42.6340 H   0  0  0  0  0  0  0  0  0  0  0  0
   49.5007   35.0675   40.0476 H   0  0  0  0  0  0  0  0  0  0  0  0
   46.3957   33.4298   38.3896 H   0  0  0  0  0  0  0  0  0  0  0  0
   47.8759   32.0684   36.8179 H   0  0  0  0  0  0  0  0  0  0  0  0
   49.2485   32.9325   36.0749 H   0  0  0  0  0  0  0  0  0  0  0  0
  1  6  2  0
  2  1  1  0
  3  2  2  0
  3  4  1  0
  4  5  2  0
  5  6  1  0
  5  7  1  0
  7  8  1  0
  8  9  2  0
 10  9  1  0
 10 11  2  0
 12 10  1  0
 13  7  1  0
 13 12  1  0
 14 13  2  0
 15  3  1  0
 16 15  2  0
 17 16  1  0
 18 17  2  0
 18 19  1  0
 19 15  1  0
 20 18  1  0
 21 22  2  0
 21 20  1  0
 23 21  1  0
 24 22  1  0
  1 25  1  0
  2 26  1  0
  8 27  1  0
  9 28  1  0
 12 29  1  0
 16 30  1  0
 17 31  1  0
 20 32  1  0
 23 33  1  0
 23 34  1  0
M  END
>  <Score>  (1) 
-7.49866

$$$$
