
     RDKit          3D

 51 56  0  0  1  0  0  0  0  0999 V2000
   44.2550   35.2720   41.8360 C   0  0  0  0  0  0  0  0  0  0  0  0
   43.2500   35.9510   41.2180 C   0  0  0  0  0  0  0  0  0  0  0  0
   42.7950   35.1270   40.2070 C   0  0  0  0  0  0  0  0  0  0  0  0
   43.5470   34.0330   40.2900 N   0  0  0  0  0  0  0  0  0  0  0  0
   44.4460   34.0540   41.2490 N   0  0  0  0  0  0  0  0  0  0  0  0
   43.4710   33.1510   38.0340 N   0  0  0  0  0  0  0  0  0  0  0  0
   44.8360   33.1330   37.5760 C   0  0  0  0  0  0  0  0  0  0  0  0
   45.6230   32.2740   38.5110 C   0  0  0  0  0  0  0  0  0  0  0  0
   44.6820   31.9600   39.6450 C   0  0  0  0  0  0  0  0  0  0  0  0
   43.4670   32.8450   39.4390 C   0  0  1  0  0  0  0  0  0  0  0  0
   42.3070   32.0280   39.7830 N   0  0  0  0  0  0  0  0  0  0  0  0
   42.2180   30.9800   40.6240 C   0  0  0  0  0  0  0  0  0  0  0  0
   40.9430   30.5510   40.6130 N   0  0  0  0  0  0  0  0  0  0  0  0
   40.1970   31.3120   39.7690 C   0  0  0  0  0  0  0  0  0  0  0  0
   38.8830   31.3590   39.3520 C   0  0  0  0  0  0  0  0  0  0  0  0
   38.4670   32.2980   38.4550 N   0  0  0  0  0  0  0  0  0  0  0  0
   39.3530   33.1890   37.9710 C   0  0  0  0  0  0  0  0  0  0  0  0
   40.6230   33.1580   38.3620 N   0  0  0  0  0  0  0  0  0  0  0  0
   41.0850   32.2360   39.2590 C   0  0  0  0  0  0  0  0  0  0  0  0
   37.9760   30.4000   39.8850 N   0  0  0  0  0  0  0  0  0  0  0  0
   45.0270   35.7930   42.9830 C   0  0  0  0  0  0  0  0  0  0  0  0
   45.3690   36.9790   42.9990 O   0  0  0  0  0  0  0  0  0  0  0  0
   44.6810   35.0880   45.2650 C   0  0  0  0  0  0  0  0  0  0  0  0
   45.3770   34.9220   44.0790 C   0  0  0  0  0  0  0  0  0  0  0  0
   46.3370   33.9650   44.0070 C   0  0  0  0  0  0  0  0  0  0  0  0
   46.5840   33.1970   45.1120 N   0  0  0  0  0  0  0  0  0  0  0  0
   45.9080   33.3580   46.2640 C   0  0  0  0  0  0  0  0  0  0  0  0
   44.9390   34.3180   46.3500 N   0  0  0  0  0  0  0  0  0  0  0  0
   46.2670   32.4980   47.3170 N   0  0  0  0  0  0  0  0  0  0  0  0
   47.3570   31.8460   47.6550 N   0  0  0  0  0  0  0  0  0  0  0  0
   47.1370   31.1460   48.8030 C   0  0  0  0  0  0  0  0  0  0  0  0
   45.8420   31.3860   49.1810 C   0  0  0  0  0  0  0  0  0  0  0  0
   45.3090   32.2540   48.2140 C   0  0  0  0  0  0  0  0  0  0  0  0
   42.8757   36.9536   41.4724 H   0  0  0  0  0  0  0  0  0  0  0  0
   41.9867   35.3311   39.4894 H   0  0  0  0  0  0  0  0  0  0  0  0
   42.9216   32.4463   37.5217 H   0  0  0  0  0  0  0  0  0  0  0  0
   44.8832   32.7183   36.5582 H   0  0  0  0  0  0  0  0  0  0  0  0
   45.2467   34.1533   37.5556 H   0  0  0  0  0  0  0  0  0  0  0  0
   45.9435   31.3495   38.0083 H   0  0  0  0  0  0  0  0  0  0  0  0
   46.5362   32.7771   38.8616 H   0  0  0  0  0  0  0  0  0  0  0  0
   44.3912   30.8995   39.6176 H   0  0  0  0  0  0  0  0  0  0  0  0
   45.1532   32.1443   40.6217 H   0  0  0  0  0  0  0  0  0  0  0  0
   43.0410   30.5512   41.2146 H   0  0  0  0  0  0  0  0  0  0  0  0
   39.0233   33.9483   37.2466 H   0  0  0  0  0  0  0  0  0  0  0  0
   36.9880   30.4082   39.5939 H   0  0  0  0  0  0  0  0  0  0  0  0
   38.3077   29.6979   40.5617 H   0  0  0  0  0  0  0  0  0  0  0  0
   43.9017   35.8618   45.3276 H   0  0  0  0  0  0  0  0  0  0  0  0
   46.9054   33.8099   43.0781 H   0  0  0  0  0  0  0  0  0  0  0  0
   47.8630   30.5078   49.3280 H   0  0  0  0  0  0  0  0  0  0  0  0
   45.3246   30.9809   50.0632 H   0  0  0  0  0  0  0  0  0  0  0  0
   44.2866   32.6596   48.1986 H   0  0  0  0  0  0  0  0  0  0  0  0
  1 21  1  0
  2  1  1  0
  3  4  1  0
  3  2  2  0
  4  5  1  0
  5  1  2  0
  6 10  1  0
  7  6  1  0
  7  8  1  0
  8  9  1  0
 10  9  1  0
 10 11  1  1
 10  4  1  0
 11 12  1  0
 13 12  2  0
 14 13  1  0
 15 14  2  0
 15 20  1  0
 16 15  1  0
 17 18  1  0
 17 16  2  0
 18 19  2  0
 19 14  1  0
 19 11  1  0
 21 22  2  0
 21 24  1  0
 23 28  2  0
 24 23  1  0
 25 24  2  0
 25 26  1  0
 26 27  2  0
 27 28  1  0
 27 29  1  0
 29 30  1  0
 29 33  1  0
 30 31  2  0
 31 32  1  0
 33 32  2  0
  2 34  1  0
  3 35  1  0
  6 36  1  0
  7 37  1  0
  7 38  1  0
  8 39  1  0
  8 40  1  0
  9 41  1  0
  9 42  1  0
 12 43  1  0
 17 44  1  0
 20 45  1  0
 20 46  1  0
 23 47  1  0
 25 48  1  0
 31 49  1  0
 32 50  1  0
 33 51  1  0
M  END
>  <Score>  (1) 
-7.05588

$$$$
