
     RDKit          3D

 31 34  0  0  0  0  0  0  0  0999 V2000
   47.2590   34.9330   41.9250 C   0  0  0  0  0  0  0  0  0  0  0  0
   48.4930   35.5290   41.7970 C   0  0  0  0  0  0  0  0  0  0  0  0
   48.9670   35.2850   40.5530 N   0  0  0  0  0  0  0  0  0  0  0  0
   48.0470   34.5440   39.8960 C   0  0  0  0  0  0  0  0  0  0  0  0
   48.0770   34.0530   38.6110 C   0  0  0  0  0  0  0  0  0  0  0  0
   47.0000   33.3230   38.1870 C   0  0  0  0  0  0  0  0  0  0  0  0
   45.8720   33.0360   38.9500 C   0  0  0  0  0  0  0  0  0  0  0  0
   45.9190   33.5640   40.2280 C   0  0  0  0  0  0  0  0  0  0  0  0
   46.9560   34.3030   40.7310 C   0  0  0  0  0  0  0  0  0  0  0  0
   44.5300   35.8750   44.3050 C   0  0  0  0  0  0  0  0  0  0  0  0
   45.3640   35.8730   43.1710 C   0  0  0  0  0  0  0  0  0  0  0  0
   46.3940   34.9450   43.1020 C   0  0  0  0  0  0  0  0  0  0  0  0
   46.5590   34.0630   44.1450 N   0  0  0  0  0  0  0  0  0  0  0  0
   45.7330   34.1030   45.2100 C   0  0  0  0  0  0  0  0  0  0  0  0
   44.7290   34.9850   45.3100 N   0  0  0  0  0  0  0  0  0  0  0  0
   45.9470   33.1610   46.2700 N   0  0  0  0  0  0  0  0  0  0  0  0
   45.2830   33.0630   47.3970 N   0  0  0  0  0  0  0  0  0  0  0  0
   45.7380   32.0670   48.1780 C   0  0  0  0  0  0  0  0  0  0  0  0
   46.7630   31.5080   47.4750 C   0  0  0  0  0  0  0  0  0  0  0  0
   46.8840   32.1930   46.2960 C   0  0  0  0  0  0  0  0  0  0  0  0
   49.0089   36.1081   42.5771 H   0  0  0  0  0  0  0  0  0  0  0  0
   49.8690   35.6069   40.1740 H   0  0  0  0  0  0  0  0  0  0  0  0
   48.9352   34.2404   37.9489 H   0  0  0  0  0  0  0  0  0  0  0  0
   47.0281   32.9312   37.1595 H   0  0  0  0  0  0  0  0  0  0  0  0
   45.0239   32.4456   38.5729 H   0  0  0  0  0  0  0  0  0  0  0  0
   45.0598   33.3762   40.8887 H   0  0  0  0  0  0  0  0  0  0  0  0
   43.7098   36.6044   44.3772 H   0  0  0  0  0  0  0  0  0  0  0  0
   45.2026   36.5930   42.3552 H   0  0  0  0  0  0  0  0  0  0  0  0
   45.3642   31.7686   49.1686 H   0  0  0  0  0  0  0  0  0  0  0  0
   47.3825   30.6581   47.7974 H   0  0  0  0  0  0  0  0  0  0  0  0
   47.6204   31.9882   45.5049 H   0  0  0  0  0  0  0  0  0  0  0  0
  1 12  1  0
  2  1  2  0
  3  2  1  0
  4  3  1  0
  4  9  2  0
  5  4  1  0
  6  5  2  0
  6  7  1  0
  7  8  2  0
  8  9  1  0
  9  1  1  0
 10 15  2  0
 11 10  1  0
 12 11  2  0
 12 13  1  0
 13 14  2  0
 14 15  1  0
 14 16  1  0
 16 20  1  0
 16 17  1  0
 17 18  2  0
 19 18  1  0
 20 19  2  0
  2 21  1  0
  3 22  1  0
  5 23  1  0
  6 24  1  0
  7 25  1  0
  8 26  1  0
 10 27  1  0
 11 28  1  0
 18 29  1  0
 19 30  1  0
 20 31  1  0
M  END
>  <Score>  (1) 
-7.07601

$$$$
