
     RDKit          3D

 52 56  0  0  0  0  0  0  0  0999 V2000
   48.3380   35.2280   41.6530 C   0  0  0  0  0  0  0  0  0  0  0  0
   49.1710   34.0670   42.0440 C   0  0  0  0  0  0  0  0  0  0  0  0
   50.4290   34.1930   42.4800 N   0  0  0  0  0  0  0  0  0  0  0  0
   50.8890   33.0100   42.7420 O   0  0  0  0  0  0  0  0  0  0  0  0
   49.9560   32.1030   42.4880 C   0  0  0  0  0  0  0  0  0  0  0  0
   48.8640   32.7560   42.0450 N   0  0  0  0  0  0  0  0  0  0  0  0
   50.2400   30.7260   42.7030 N   0  0  0  0  0  0  0  0  0  0  0  0
   50.0090   29.8880   43.7190 N   0  0  0  0  0  0  0  0  0  0  0  0
   50.4910   28.6690   43.4140 C   0  0  0  0  0  0  0  0  0  0  0  0
   51.0540   28.7580   42.1320 C   0  0  0  0  0  0  0  0  0  0  0  0
   50.8730   30.0760   41.7210 C   0  0  0  0  0  0  0  0  0  0  0  0
   51.3460   30.4890   40.4350 N   0  0  0  0  0  0  0  0  0  0  0  0
   50.6700   30.7100   39.3020 C   0  0  0  0  0  0  0  0  0  0  0  0
   51.3700   31.1090   38.1790 C   0  0  0  0  0  0  0  0  0  0  0  0
   50.5560   31.3350   36.9610 C   0  0  0  0  0  0  0  0  0  0  0  0
   52.7380   31.2790   38.2130 C   0  0  0  0  0  0  0  0  0  0  0  0
   53.3410   31.6450   37.1650 O   0  0  0  0  0  0  0  0  0  0  0  0
   53.3770   31.0490   39.3640 N   0  0  0  0  0  0  0  0  0  0  0  0
   52.6990   30.6600   40.4580 C   0  0  0  0  0  0  0  0  0  0  0  0
   53.4560   30.4870   41.4580 O   0  0  0  0  0  0  0  0  0  0  0  0
   46.8720   34.8720   41.5410 C   0  0  0  0  0  0  0  0  0  0  0  0
   44.6350   36.0580   44.2910 C   0  0  0  0  0  0  0  0  0  0  0  0
   45.2840   35.9820   43.0580 C   0  0  0  0  0  0  0  0  0  0  0  0
   46.1750   34.9630   42.8490 C   0  0  0  0  0  0  0  0  0  0  0  0
   46.3850   34.0710   43.8550 N   0  0  0  0  0  0  0  0  0  0  0  0
   45.7500   34.1530   45.0510 C   0  0  0  0  0  0  0  0  0  0  0  0
   44.8630   35.1660   45.2600 N   0  0  0  0  0  0  0  0  0  0  0  0
   45.9900   33.1970   46.1010 C   0  0  0  0  0  0  0  0  0  0  0  0
   45.2620   33.2620   47.2810 C   0  0  0  0  0  0  0  0  0  0  0  0
   45.4390   32.3790   48.3370 C   0  0  0  0  0  0  0  0  0  0  0  0
   46.3950   31.4470   48.0970 C   0  0  0  0  0  0  0  0  0  0  0  0
   47.1520   31.3220   46.9590 C   0  0  0  0  0  0  0  0  0  0  0  0
   46.8910   32.2420   45.9970 N   0  0  0  0  0  0  0  0  0  0  0  0
   44.2790   34.2890   47.4140 N   0  0  0  0  0  0  0  0  0  0  0  0
   48.4534   36.0171   42.4106 H   0  0  0  0  0  0  0  0  0  0  0  0
   48.6780   35.5677   40.6636 H   0  0  0  0  0  0  0  0  0  0  0  0
   50.4511   27.7722   44.0498 H   0  0  0  0  0  0  0  0  0  0  0  0
   51.5402   27.9498   41.5659 H   0  0  0  0  0  0  0  0  0  0  0  0
   49.5787   30.5768   39.2648 H   0  0  0  0  0  0  0  0  0  0  0  0
   49.5335   31.6189   37.2508 H   0  0  0  0  0  0  0  0  0  0  0  0
   51.0055   32.1423   36.3642 H   0  0  0  0  0  0  0  0  0  0  0  0
   50.5249   30.4115   36.3642 H   0  0  0  0  0  0  0  0  0  0  0  0
   54.3986   31.1709   39.4135 H   0  0  0  0  0  0  0  0  0  0  0  0
   46.3916   35.5643   40.8339 H   0  0  0  0  0  0  0  0  0  0  0  0
   46.8012   33.8318   41.1904 H   0  0  0  0  0  0  0  0  0  0  0  0
   43.9177   36.8725   44.4700 H   0  0  0  0  0  0  0  0  0  0  0  0
   45.0844   36.7243   42.2711 H   0  0  0  0  0  0  0  0  0  0  0  0
   44.8630   32.4297   49.2728 H   0  0  0  0  0  0  0  0  0  0  0  0
   46.5829   30.7159   48.8971 H   0  0  0  0  0  0  0  0  0  0  0  0
   47.9119   30.5362   46.8365 H   0  0  0  0  0  0  0  0  0  0  0  0
   43.7237   34.3615   48.2784 H   0  0  0  0  0  0  0  0  0  0  0  0
   44.1252   34.9573   46.6455 H   0  0  0  0  0  0  0  0  0  0  0  0
  1  2  1  0
  2  6  1  0
  2  3  2  0
  3  4  1  0
  5  7  1  0
  5  4  1  0
  6  5  2  0
  7  8  1  0
  9  8  2  0
 10  9  1  0
 11 10  2  0
 11  7  1  0
 12 19  1  0
 12 11  1  0
 13 12  1  0
 14 16  1  0
 14 13  2  0
 15 14  1  0
 16 18  1  0
 17 16  2  0
 18 19  1  0
 19 20  2  0
 21  1  1  0
 21 24  1  0
 22 27  2  0
 23 22  1  0
 24 23  2  0
 24 25  1  0
 25 26  2  0
 26 27  1  0
 26 28  1  0
 28 29  2  0
 29 34  1  0
 29 30  1  0
 31 30  2  0
 32 31  1  0
 33 28  1  0
 33 32  2  0
  1 35  1  0
  1 36  1  0
  9 37  1  0
 10 38  1  0
 13 39  1  0
 15 40  1  0
 15 41  1  0
 15 42  1  0
 18 43  1  0
 21 44  1  0
 21 45  1  0
 22 46  1  0
 23 47  1  0
 30 48  1  0
 31 49  1  0
 32 50  1  0
 34 51  1  0
 34 52  1  0
M  END
>  <Score>  (1) 
-7.18295

$$$$
