
     RDKit          3D

 45 48  0  0  0  0  0  0  0  0999 V2000
   46.4530   34.6540   42.1780 C   0  0  0  0  0  0  0  0  0  0  0  0
   47.7530   35.0270   42.0500 C   0  0  0  0  0  0  0  0  0  0  0  0
   48.4550   34.8610   40.8420 C   0  0  0  0  0  0  0  0  0  0  0  0
   47.8020   34.2980   39.7460 C   0  0  0  0  0  0  0  0  0  0  0  0
   46.4900   33.9240   39.8830 C   0  0  0  0  0  0  0  0  0  0  0  0
   45.8370   34.1070   41.0930 C   0  0  0  0  0  0  0  0  0  0  0  0
   44.4110   36.0160   45.0410 C   0  0  0  0  0  0  0  0  0  0  0  0
   44.9680   35.9280   43.7600 C   0  0  0  0  0  0  0  0  0  0  0  0
   45.8090   34.8650   43.4690 C   0  0  0  0  0  0  0  0  0  0  0  0
   46.0480   33.9670   44.4400 N   0  0  0  0  0  0  0  0  0  0  0  0
   45.5010   34.0690   45.6720 C   0  0  0  0  0  0  0  0  0  0  0  0
   44.6820   35.0960   45.9700 N   0  0  0  0  0  0  0  0  0  0  0  0
   45.8120   33.0700   46.6370 N   0  0  0  0  0  0  0  0  0  0  0  0
   45.0640   32.8800   47.8700 C   0  0  0  0  0  0  0  0  0  0  0  0
   45.8130   31.8170   48.6210 C   0  0  0  0  0  0  0  0  0  0  0  0
   46.6930   31.1350   47.6140 C   0  0  0  0  0  0  0  0  0  0  0  0
   46.9170   32.1110   46.5120 C   0  0  0  0  0  0  0  0  0  0  0  0
   44.4780   33.7060   41.1950 N   0  0  0  0  0  0  0  0  0  0  0  0
   43.6440   34.6550   40.6630 C   0  0  0  0  0  0  0  0  0  0  0  0
   42.2670   34.4720   40.6560 C   0  0  0  0  0  0  0  0  0  0  0  0
   41.7740   33.2980   41.2070 C   0  0  0  0  0  0  0  0  0  0  0  0
   40.5380   33.0630   41.2340 O   0  0  0  0  0  0  0  0  0  0  0  0
   42.6260   32.3920   41.7170 N   0  0  0  0  0  0  0  0  0  0  0  0
   43.9490   32.5860   41.7150 C   0  0  0  0  0  0  0  0  0  0  0  0
   44.8150   31.8020   42.1670 O   0  0  0  0  0  0  0  0  0  0  0  0
   41.3330   35.4820   40.0880 C   0  0  0  0  0  0  0  0  0  0  0  0
   48.2704   35.4705   42.9135 H   0  0  0  0  0  0  0  0  0  0  0  0
   49.5072   35.1719   40.7630 H   0  0  0  0  0  0  0  0  0  0  0  0
   48.3289   34.1568   38.7908 H   0  0  0  0  0  0  0  0  0  0  0  0
   45.9544   33.4781   39.0319 H   0  0  0  0  0  0  0  0  0  0  0  0
   43.7414   36.8538   45.2856 H   0  0  0  0  0  0  0  0  0  0  0  0
   44.7425   36.6885   42.9979 H   0  0  0  0  0  0  0  0  0  0  0  0
   45.0325   33.8138   48.4506 H   0  0  0  0  0  0  0  0  0  0  0  0
   44.0198   32.5919   47.6788 H   0  0  0  0  0  0  0  0  0  0  0  0
   46.4233   32.2700   49.4162 H   0  0  0  0  0  0  0  0  0  0  0  0
   45.1255   31.1047   49.1006 H   0  0  0  0  0  0  0  0  0  0  0  0
   47.6522   30.8570   48.0752 H   0  0  0  0  0  0  0  0  0  0  0  0
   46.2241   30.2138   47.2378 H   0  0  0  0  0  0  0  0  0  0  0  0
   46.8855   31.6073   45.5346 H   0  0  0  0  0  0  0  0  0  0  0  0
   47.9014   32.5974   46.5789 H   0  0  0  0  0  0  0  0  0  0  0  0
   44.0711   35.5742   40.2357 H   0  0  0  0  0  0  0  0  0  0  0  0
   42.2487   31.5230   42.1211 H   0  0  0  0  0  0  0  0  0  0  0  0
   40.8342   36.0214   40.9067 H   0  0  0  0  0  0  0  0  0  0  0  0
   41.8967   36.1953   39.4688 H   0  0  0  0  0  0  0  0  0  0  0  0
   40.5778   34.9757   39.4688 H   0  0  0  0  0  0  0  0  0  0  0  0
  1  9  1  0
  2  1  2  0
  3  2  1  0
  4  5  1  0
  4  3  2  0
  5  6  2  0
  6 18  1  0
  6  1  1  0
  7 12  2  0
  8  7  1  0
  9  8  2  0
  9 10  1  0
 10 11  2  0
 11 12  1  0
 11 13  1  0
 13 14  1  0
 14 15  1  0
 16 15  1  0
 17 13  1  0
 17 16  1  0
 18 24  1  0
 19 18  1  0
 20 19  2  0
 20 21  1  0
 21 22  2  0
 21 23  1  0
 24 23  1  0
 24 25  2  0
 26 20  1  0
  2 27  1  0
  3 28  1  0
  4 29  1  0
  5 30  1  0
  7 31  1  0
  8 32  1  0
 14 33  1  0
 14 34  1  0
 15 35  1  0
 15 36  1  0
 16 37  1  0
 16 38  1  0
 17 39  1  0
 17 40  1  0
 19 41  1  0
 23 42  1  0
 26 43  1  0
 26 44  1  0
 26 45  1  0
M  END
>  <Score>  (1) 
-7.7698

$$$$
