
     RDKit          3D

 52 57  0  0  0  0  0  0  0  0999 V2000
   44.8500   35.4120   44.6270 C   0  0  0  0  0  0  0  0  0  0  0  0
   45.7070   35.0600   43.5700 C   0  0  0  0  0  0  0  0  0  0  0  0
   46.5640   34.0130   43.6610 C   0  0  0  0  0  0  0  0  0  0  0  0
   46.5770   33.3040   44.8110 N   0  0  0  0  0  0  0  0  0  0  0  0
   45.7410   33.6520   45.8330 C   0  0  0  0  0  0  0  0  0  0  0  0
   44.9040   34.6730   45.7460 N   0  0  0  0  0  0  0  0  0  0  0  0
   45.9170   32.7430   47.0060 C   0  0  0  0  0  0  0  0  0  0  0  0
   45.0550   32.6030   48.1760 C   0  0  0  0  0  0  0  0  0  0  0  0
   45.9950   31.3380   49.0730 S   0  0  0  0  0  0  0  0  0  0  0  0
   47.3570   31.2230   47.7350 C   0  0  0  0  0  0  0  0  0  0  0  0
   47.0190   32.0850   46.7900 N   0  0  0  0  0  0  0  0  0  0  0  0
   48.5080   30.2910   47.8820 N   0  0  0  0  0  0  0  0  0  0  0  0
   48.7590   29.0870   47.3560 C   0  0  0  0  0  0  0  0  0  0  0  0
   49.9560   28.7200   47.8430 N   0  0  0  0  0  0  0  0  0  0  0  0
   50.4310   29.6820   48.6550 C   0  0  0  0  0  0  0  0  0  0  0  0
   51.6040   29.7620   49.3780 C   0  0  0  0  0  0  0  0  0  0  0  0
   52.4550   28.8360   49.3550 O   0  0  0  0  0  0  0  0  0  0  0  0
   51.8490   30.8640   50.1350 N   0  0  0  0  0  0  0  0  0  0  0  0
   50.9350   31.8710   50.1680 C   0  0  0  0  0  0  0  0  0  0  0  0
   51.1370   33.0660   50.9520 N   0  0  0  0  0  0  0  0  0  0  0  0
   49.7900   31.7760   49.4530 N   0  0  0  0  0  0  0  0  0  0  0  0
   49.4980   30.7150   48.6910 C   0  0  0  0  0  0  0  0  0  0  0  0
   47.4470   33.6700   42.5480 C   0  0  0  0  0  0  0  0  0  0  0  0
   47.7200   34.7410   41.5600 C   0  0  0  0  0  0  0  0  0  0  0  0
   47.3270   34.2330   40.2090 C   0  0  0  0  0  0  0  0  0  0  0  0
   48.2120   34.1760   39.1490 C   0  0  0  0  0  0  0  0  0  0  0  0
   47.9570   33.7340   37.8900 C   0  0  0  0  0  0  0  0  0  0  0  0
   46.6680   33.3070   37.7010 N   0  0  0  0  0  0  0  0  0  0  0  0
   45.7750   33.3470   38.7130 C   0  0  0  0  0  0  0  0  0  0  0  0
   46.0490   33.7910   39.9590 N   0  0  0  0  0  0  0  0  0  0  0  0
   44.4300   32.8740   38.4210 C   0  0  0  0  0  0  0  0  0  0  0  0
   43.3230   33.6230   38.8250 C   0  0  0  0  0  0  0  0  0  0  0  0
   42.0580   33.1730   38.5490 C   0  0  0  0  0  0  0  0  0  0  0  0
   41.8630   32.0280   37.8990 N   0  0  0  0  0  0  0  0  0  0  0  0
   42.9470   31.3200   37.5190 C   0  0  0  0  0  0  0  0  0  0  0  0
   44.2250   31.7240   37.7690 N   0  0  0  0  0  0  0  0  0  0  0  0
   44.1591   36.2635   44.5401 H   0  0  0  0  0  0  0  0  0  0  0  0
   45.6818   35.6507   42.6424 H   0  0  0  0  0  0  0  0  0  0  0  0
   44.1156   33.1128   48.4359 H   0  0  0  0  0  0  0  0  0  0  0  0
   48.1184   28.5161   46.6677 H   0  0  0  0  0  0  0  0  0  0  0  0
   52.7203   30.9361   50.6796 H   0  0  0  0  0  0  0  0  0  0  0  0
   50.4228   33.8082   50.9529 H   0  0  0  0  0  0  0  0  0  0  0  0
   51.9953   33.1765   51.5106 H   0  0  0  0  0  0  0  0  0  0  0  0
   48.4115   33.3546   42.9727 H   0  0  0  0  0  0  0  0  0  0  0  0
   46.9143   32.8881   41.9869 H   0  0  0  0  0  0  0  0  0  0  0  0
   47.1316   35.6367   41.8079 H   0  0  0  0  0  0  0  0  0  0  0  0
   48.7865   35.0101   41.5723 H   0  0  0  0  0  0  0  0  0  0  0  0
   49.2355   34.5272   39.3465 H   0  0  0  0  0  0  0  0  0  0  0  0
   48.7162   33.7200   37.0941 H   0  0  0  0  0  0  0  0  0  0  0  0
   43.4657   34.5716   39.3633 H   0  0  0  0  0  0  0  0  0  0  0  0
   41.1900   33.7677   38.8699 H   0  0  0  0  0  0  0  0  0  0  0  0
   42.7924   30.3724   36.9823 H   0  0  0  0  0  0  0  0  0  0  0  0
  1  6  2  0
  2  3  2  0
  2  1  1  0
  3  4  1  0
  4  5  2  0
  5  7  1  0
  6  5  1  0
  7  8  2  0
  8  9  1  0
 10 12  1  0
 10  9  1  0
 11  7  1  0
 11 10  2  0
 12 22  1  0
 13 14  2  0
 13 12  1  0
 14 15  1  0
 15 22  2  0
 15 16  1  0
 16 18  1  0
 17 16  2  0
 18 19  1  0
 19 20  1  0
 21 19  2  0
 22 21  1  0
 23  3  1  0
 24 23  1  0
 25 24  1  0
 26 25  2  0
 27 26  1  0
 28 27  2  0
 28 29  1  0
 29 30  2  0
 30 25  1  0
 31 29  1  0
 31 32  2  0
 33 32  1  0
 34 33  2  0
 35 36  2  0
 35 34  1  0
 36 31  1  0
  1 37  1  0
  2 38  1  0
  8 39  1  0
 13 40  1  0
 18 41  1  0
 20 42  1  0
 20 43  1  0
 23 44  1  0
 23 45  1  0
 24 46  1  0
 24 47  1  0
 26 48  1  0
 27 49  1  0
 32 50  1  0
 33 51  1  0
 35 52  1  0
M  END
>  <Score>  (1) 
-7.19887

$$$$
