
     RDKit          3D

 49 53  0  0  1  0  0  0  0  0999 V2000
   43.9050   35.1810   41.9260 C   0  0  0  0  0  0  0  0  0  0  0  0
   42.5460   35.4060   41.9790 C   0  0  0  0  0  0  0  0  0  0  0  0
   42.0070   34.7650   40.8920 C   0  0  0  0  0  0  0  0  0  0  0  0
   43.0560   34.2070   40.2680 N   0  0  0  0  0  0  0  0  0  0  0  0
   44.2140   34.4230   40.8420 N   0  0  0  0  0  0  0  0  0  0  0  0
   43.7920   33.9890   37.9770 N   0  0  0  0  0  0  0  0  0  0  0  0
   45.1250   33.4400   38.0470 C   0  0  0  0  0  0  0  0  0  0  0  0
   45.0600   32.1370   38.7620 C   0  0  0  0  0  0  0  0  0  0  0  0
   43.6310   32.0510   39.2690 C   0  0  0  0  0  0  0  0  0  0  0  0
   43.0230   33.4020   39.0370 C   0  0  1  0  0  0  0  0  0  0  0  0
   41.6380   33.3670   38.6260 N   0  0  0  0  0  0  0  0  0  0  0  0
   40.9210   32.2550   38.8320 C   0  0  0  0  0  0  0  0  0  0  0  0
   39.5970   32.2480   38.4290 C   0  0  0  0  0  0  0  0  0  0  0  0
   39.1190   33.4000   37.8420 C   0  0  0  0  0  0  0  0  0  0  0  0
   37.7920   33.5800   37.3660 N   0  0  0  0  0  0  0  0  0  0  0  0
   39.8810   34.5130   37.6490 N   0  0  0  0  0  0  0  0  0  0  0  0
   41.1780   34.4960   38.0540 C   0  0  0  0  0  0  0  0  0  0  0  0
   41.9030   35.5130   37.8860 O   0  0  0  0  0  0  0  0  0  0  0  0
   44.8600   35.7010   42.9190 C   0  0  0  0  0  0  0  0  0  0  0  0
   45.2990   36.8460   42.8010 O   0  0  0  0  0  0  0  0  0  0  0  0
   44.6430   35.0870   45.2440 C   0  0  0  0  0  0  0  0  0  0  0  0
   45.2760   34.8710   44.0220 C   0  0  0  0  0  0  0  0  0  0  0  0
   46.2290   33.9140   43.9390 C   0  0  0  0  0  0  0  0  0  0  0  0
   46.5360   33.1900   45.0630 N   0  0  0  0  0  0  0  0  0  0  0  0
   45.9290   33.3970   46.2370 C   0  0  0  0  0  0  0  0  0  0  0  0
   44.9640   34.3620   46.3360 N   0  0  0  0  0  0  0  0  0  0  0  0
   46.3490   32.5790   47.3010 N   0  0  0  0  0  0  0  0  0  0  0  0
   47.4560   31.9410   47.6090 N   0  0  0  0  0  0  0  0  0  0  0  0
   47.3060   31.2830   48.7910 C   0  0  0  0  0  0  0  0  0  0  0  0
   46.0320   31.5380   49.2240 C   0  0  0  0  0  0  0  0  0  0  0  0
   45.4340   32.3710   48.2530 C   0  0  0  0  0  0  0  0  0  0  0  0
   42.0022   35.9840   42.7407 H   0  0  0  0  0  0  0  0  0  0  0  0
   40.9483   34.7187   40.5970 H   0  0  0  0  0  0  0  0  0  0  0  0
   43.8271   35.0118   38.0937 H   0  0  0  0  0  0  0  0  0  0  0  0
   45.5174   33.2868   37.0308 H   0  0  0  0  0  0  0  0  0  0  0  0
   45.7908   34.1322   38.5832 H   0  0  0  0  0  0  0  0  0  0  0  0
   45.2796   31.3058   38.0758 H   0  0  0  0  0  0  0  0  0  0  0  0
   45.7969   32.0698   39.5759 H   0  0  0  0  0  0  0  0  0  0  0  0
   43.0747   31.2819   38.7131 H   0  0  0  0  0  0  0  0  0  0  0  0
   43.5991   31.7744   40.3332 H   0  0  0  0  0  0  0  0  0  0  0  0
   41.3717   31.3718   39.3082 H   0  0  0  0  0  0  0  0  0  0  0  0
   38.9565   31.3650   38.5704 H   0  0  0  0  0  0  0  0  0  0  0  0
   37.5151   34.4754   36.9388 H   0  0  0  0  0  0  0  0  0  0  0  0
   37.1072   32.8151   37.4482 H   0  0  0  0  0  0  0  0  0  0  0  0
   43.8671   35.8630   45.3202 H   0  0  0  0  0  0  0  0  0  0  0  0
   46.7476   33.7203   42.9885 H   0  0  0  0  0  0  0  0  0  0  0  0
   48.0614   30.6661   49.2997 H   0  0  0  0  0  0  0  0  0  0  0  0
   45.5654   31.1663   50.1482 H   0  0  0  0  0  0  0  0  0  0  0  0
   44.4101   32.7723   48.2758 H   0  0  0  0  0  0  0  0  0  0  0  0
  1  2  1  0
  1 19  1  0
  3  2  2  0
  4  5  1  0
  4  3  1  0
  5  1  2  0
  6  7  1  0
  6 10  1  0
  7  8  1  0
  8  9  1  0
 10 11  1  6
 10  9  1  0
 10  4  1  0
 11 12  1  0
 13 12  2  0
 14 13  1  0
 15 14  1  0
 16 14  2  0
 16 17  1  0
 17 11  1  0
 18 17  2  0
 19 22  1  0
 20 19  2  0
 21 26  2  0
 22 21  1  0
 23 22  2  0
 23 24  1  0
 24 25  2  0
 25 26  1  0
 25 27  1  0
 27 28  1  0
 27 31  1  0
 28 29  2  0
 29 30  1  0
 31 30  2  0
  2 32  1  0
  3 33  1  0
  6 34  1  0
  7 35  1  0
  7 36  1  0
  8 37  1  0
  8 38  1  0
  9 39  1  0
  9 40  1  0
 12 41  1  0
 13 42  1  0
 15 43  1  0
 15 44  1  0
 21 45  1  0
 23 46  1  0
 29 47  1  0
 30 48  1  0
 31 49  1  0
M  END
>  <Score>  (1) 
-7.22032

$$$$
