
     RDKit          3D

 49 54  0  0  1  0  0  0  0  0999 V2000
   46.0710   34.3380   41.3680 N   0  0  0  0  0  0  0  0  0  0  0  0
   47.4810   34.2050   41.1300 C   0  0  0  0  0  0  0  0  0  0  0  0
   47.7430   33.2630   39.9970 C   0  0  0  0  0  0  0  0  0  0  0  0
   46.9420   33.7260   38.8540 N   0  0  0  0  0  0  0  0  0  0  0  0
   45.5990   33.3400   39.1760 C   0  0  0  0  0  0  0  0  0  0  0  0
   45.0580   34.0630   40.3780 C   0  0  1  0  0  0  0  0  0  0  0  0
   44.6120   36.3430   44.1650 C   0  0  0  0  0  0  0  0  0  0  0  0
   45.0210   36.0060   42.8710 C   0  0  0  0  0  0  0  0  0  0  0  0
   45.6270   34.7640   42.6420 C   0  0  0  0  0  0  0  0  0  0  0  0
   45.7620   33.9830   43.7440 N   0  0  0  0  0  0  0  0  0  0  0  0
   45.3710   34.3090   44.9730 C   0  0  0  0  0  0  0  0  0  0  0  0
   44.7980   35.4870   45.1830 N   0  0  0  0  0  0  0  0  0  0  0  0
   45.5440   33.4400   46.0870 N   0  0  0  0  0  0  0  0  0  0  0  0
   44.8590   33.7120   47.2340 C   0  0  0  0  0  0  0  0  0  0  0  0
   45.1320   32.7950   48.1940 N   0  0  0  0  0  0  0  0  0  0  0  0
   46.0030   31.9310   47.6380 C   0  0  0  0  0  0  0  0  0  0  0  0
   46.6570   30.7980   48.0740 C   0  0  0  0  0  0  0  0  0  0  0  0
   46.4860   30.3680   49.2340 O   0  0  0  0  0  0  0  0  0  0  0  0
   47.4870   30.1740   47.2010 N   0  0  0  0  0  0  0  0  0  0  0  0
   47.7100   30.5980   45.9270 C   0  0  0  0  0  0  0  0  0  0  0  0
   48.6030   29.8650   45.0930 N   0  0  0  0  0  0  0  0  0  0  0  0
   47.0780   31.7160   45.4650 N   0  0  0  0  0  0  0  0  0  0  0  0
   46.2460   32.3440   46.3420 C   0  0  0  0  0  0  0  0  0  0  0  0
   43.8870   33.4070   40.8790 N   0  0  0  0  0  0  0  0  0  0  0  0
   43.7640   32.1820   41.4040 C   0  0  0  0  0  0  0  0  0  0  0  0
   42.4800   31.9120   41.7700 N   0  0  0  0  0  0  0  0  0  0  0  0
   41.7380   32.9980   41.4730 C   0  0  0  0  0  0  0  0  0  0  0  0
   40.4130   33.3630   41.5880 C   0  0  0  0  0  0  0  0  0  0  0  0
   39.9940   34.5870   41.1710 N   0  0  0  0  0  0  0  0  0  0  0  0
   40.8880   35.4380   40.6450 C   0  0  0  0  0  0  0  0  0  0  0  0
   42.1910   35.1170   40.5170 N   0  0  0  0  0  0  0  0  0  0  0  0
   42.6220   33.9070   40.9260 C   0  0  0  0  0  0  0  0  0  0  0  0
   47.8995   35.1917   40.8825 H   0  0  0  0  0  0  0  0  0  0  0  0
   47.9552   33.8043   42.0381 H   0  0  0  0  0  0  0  0  0  0  0  0
   48.8119   33.2735   39.7373 H   0  0  0  0  0  0  0  0  0  0  0  0
   47.4711   32.2336   40.2735 H   0  0  0  0  0  0  0  0  0  0  0  0
   47.2527   33.2710   37.9837 H   0  0  0  0  0  0  0  0  0  0  0  0
   44.9534   33.5604   38.3131 H   0  0  0  0  0  0  0  0  0  0  0  0
   45.6106   32.2658   39.4127 H   0  0  0  0  0  0  0  0  0  0  0  0
   44.7307   35.0644   40.0617 H   0  0  0  0  0  0  0  0  0  0  0  0
   44.1344   37.3164   44.3505 H   0  0  0  0  0  0  0  0  0  0  0  0
   44.8682   36.7102   42.0399 H   0  0  0  0  0  0  0  0  0  0  0  0
   44.1748   34.5636   47.3633 H   0  0  0  0  0  0  0  0  0  0  0  0
   47.9785   29.3276   47.5219 H   0  0  0  0  0  0  0  0  0  0  0  0
   48.7790   30.1770   44.1273 H   0  0  0  0  0  0  0  0  0  0  0  0
   49.0726   29.0231   45.4558 H   0  0  0  0  0  0  0  0  0  0  0  0
   44.5999   31.4774   41.5254 H   0  0  0  0  0  0  0  0  0  0  0  0
   39.6888   32.6573   42.0210 H   0  0  0  0  0  0  0  0  0  0  0  0
   40.5473   36.4281   40.3078 H   0  0  0  0  0  0  0  0  0  0  0  0
  1  9  1  0
  2  1  1  0
  3  2  1  0
  4  5  1  0
  4  3  1  0
  5  6  1  0
  6 24  1  0
  6  1  1  0
  7 12  2  0
  8  7  1  0
  9  8  2  0
  9 10  1  0
 10 11  2  0
 11 12  1  0
 11 13  1  0
 13 23  1  0
 13 14  1  0
 14 15  2  0
 16 17  1  0
 16 15  1  0
 17 18  2  0
 19 17  1  0
 20 19  1  0
 21 20  1  0
 22 20  2  0
 22 23  1  0
 23 16  2  0
 24 32  1  0
 24 25  1  0
 25 26  2  0
 27 28  2  0
 27 26  1  0
 29 28  1  0
 30 29  2  0
 31 30  1  0
 31 32  2  0
 32 27  1  0
  2 33  1  0
  2 34  1  0
  3 35  1  0
  3 36  1  0
  4 37  1  0
  5 38  1  0
  5 39  1  0
  6 40  1  6
  7 41  1  0
  8 42  1  0
 14 43  1  0
 19 44  1  0
 21 45  1  0
 21 46  1  0
 25 47  1  0
 28 48  1  0
 30 49  1  0
M  END
>  <Score>  (1) 
-7.34468

$$$$
