
     RDKit          3D

 32 34  0  0  0  0  0  0  0  0999 V2000
   44.8710   33.7620   40.7740 C   0  0  0  0  0  0  0  0  0  0  0  0
   44.3990   33.6830   42.0920 C   0  0  0  0  0  0  0  0  0  0  0  0
   45.3080   34.0760   43.0880 C   0  0  0  0  0  0  0  0  0  0  0  0
   46.5400   34.4900   42.7170 N   0  0  0  0  0  0  0  0  0  0  0  0
   46.9600   34.5520   41.4400 C   0  0  0  0  0  0  0  0  0  0  0  0
   46.1110   34.1850   40.4930 N   0  0  0  0  0  0  0  0  0  0  0  0
   44.9550   34.0440   44.4580 N   0  0  0  0  0  0  0  0  0  0  0  0
   44.3640   35.1680   45.0980 C   0  0  0  0  0  0  0  0  0  0  0  0
   43.5910   35.9200   44.3840 N   0  0  0  0  0  0  0  0  0  0  0  0
   44.6440   35.4110   46.4780 N   0  0  0  0  0  0  0  0  0  0  0  0
   43.1050   36.7560   44.7180 H   0  0  0  0  0  0  0  0  0  0  0  0
   48.3150   35.0120   41.1000 C   0  0  0  0  0  0  0  0  0  0  0  0
   48.4040   35.1780   39.7140 F   0  0  0  0  0  0  0  0  0  0  0  0
   49.2310   34.0010   41.4060 F   0  0  0  0  0  0  0  0  0  0  0  0
   48.7180   36.1240   41.7930 F   0  0  0  0  0  0  0  0  0  0  0  0
   43.7510   33.2710   39.4390 S   0  0  0  0  0  0  0  0  0  0  0  0
   39.3370   33.2520   41.6320 N   0  0  0  0  0  0  0  0  0  0  0  0
   40.0580   32.1440   41.9400 C   0  0  0  0  0  0  0  0  0  0  0  0
   41.2380   32.2690   41.2810 N   0  0  0  0  0  0  0  0  0  0  0  0
   41.2100   33.4100   40.6120 C   0  0  0  0  0  0  0  0  0  0  0  0
   42.1590   33.9780   39.8020 C   0  0  0  0  0  0  0  0  0  0  0  0
   41.9450   35.1720   39.1930 N   0  0  0  0  0  0  0  0  0  0  0  0
   40.7430   35.7760   39.4250 C   0  0  0  0  0  0  0  0  0  0  0  0
   39.8010   35.2180   40.2250 N   0  0  0  0  0  0  0  0  0  0  0  0
   40.0200   34.0520   40.8150 C   0  0  0  0  0  0  0  0  0  0  0  0
   43.3828   33.3358   42.3304 H   0  0  0  0  0  0  0  0  0  0  0  0
   45.1299   33.1880   45.0035 H   0  0  0  0  0  0  0  0  0  0  0  0
   44.2227   36.2214   46.9540 H   0  0  0  0  0  0  0  0  0  0  0  0
   45.2672   34.7757   46.9967 H   0  0  0  0  0  0  0  0  0  0  0  0
   38.3887   33.4479   41.9831 H   0  0  0  0  0  0  0  0  0  0  0  0
   39.7488   31.3134   42.5915 H   0  0  0  0  0  0  0  0  0  0  0  0
   40.5322   36.7448   38.9485 H   0  0  0  0  0  0  0  0  0  0  0  0
  1  2  2  0
  2  3  1  0
  3  7  1  0
  4  3  2  0
  5  4  1  0
  6  1  1  0
  6  5  2  0
  7  8  1  0
  8 10  1  0
  9 11  1  0
  9  8  2  0
 12 14  1  0
 12  5  1  0
 12 15  1  0
 13 12  1  0
 16 21  1  0
 16  1  1  0
 17 18  1  0
 19 18  2  0
 20 25  2  0
 20 19  1  0
 21 20  1  0
 22 23  1  0
 22 21  2  0
 23 24  2  0
 24 25  1  0
 25 17  1  0
  2 26  1  0
  7 27  1  0
 10 28  1  0
 10 29  1  0
 17 30  1  0
 18 31  1  0
 23 32  1  0
M  END
>  <Score>  (1) 
-7.64158

$$$$
