
     RDKit          3D

 44 48  0  0  0  0  0  0  0  0999 V2000
   46.9010   34.7350   41.8750 C   0  0  0  0  0  0  0  0  0  0  0  0
   48.1990   35.1900   41.6560 C   0  0  0  0  0  0  0  0  0  0  0  0
   48.4610   34.7840   40.3440 C   0  0  0  0  0  0  0  0  0  0  0  0
   47.3460   34.1300   39.8620 C   0  0  0  0  0  0  0  0  0  0  0  0
   46.4270   34.1270   40.8290 O   0  0  0  0  0  0  0  0  0  0  0  0
   47.1790   33.5580   38.5800 N   0  0  0  0  0  0  0  0  0  0  0  0
   46.3270   32.5260   38.4310 C   0  0  0  0  0  0  0  0  0  0  0  0
   46.1360   31.9390   37.1960 C   0  0  0  0  0  0  0  0  0  0  0  0
   46.8430   32.4360   36.1060 C   0  0  0  0  0  0  0  0  0  0  0  0
   46.6550   31.8890   34.9920 O   0  0  0  0  0  0  0  0  0  0  0  0
   47.6880   33.4760   36.3120 N   0  0  0  0  0  0  0  0  0  0  0  0
   47.8460   34.0220   37.5370 C   0  0  0  0  0  0  0  0  0  0  0  0
   48.6510   34.9890   37.6570 O   0  0  0  0  0  0  0  0  0  0  0  0
   45.1770   30.8090   37.1240 C   0  0  0  0  0  0  0  0  0  0  0  0
   44.5620   36.1040   44.4200 C   0  0  0  0  0  0  0  0  0  0  0  0
   45.2930   35.9790   43.2060 C   0  0  0  0  0  0  0  0  0  0  0  0
   46.1380   34.8970   43.1000 C   0  0  0  0  0  0  0  0  0  0  0  0
   46.2280   34.0240   44.1380 N   0  0  0  0  0  0  0  0  0  0  0  0
   45.5080   34.1840   45.2820 C   0  0  0  0  0  0  0  0  0  0  0  0
   44.6790   35.2210   45.4210 N   0  0  0  0  0  0  0  0  0  0  0  0
   45.6910   33.1800   46.3250 C   0  0  0  0  0  0  0  0  0  0  0  0
   45.1370   33.2480   47.5830 C   0  0  0  0  0  0  0  0  0  0  0  0
   45.5210   32.1550   48.2650 N   0  0  0  0  0  0  0  0  0  0  0  0
   46.3140   31.3670   47.4820 C   0  0  0  0  0  0  0  0  0  0  0  0
   46.9290   30.1620   47.7620 C   0  0  0  0  0  0  0  0  0  0  0  0
   47.6890   29.5930   46.7350 C   0  0  0  0  0  0  0  0  0  0  0  0
   47.7930   30.2460   45.5090 C   0  0  0  0  0  0  0  0  0  0  0  0
   47.1670   31.4520   45.2580 C   0  0  0  0  0  0  0  0  0  0  0  0
   46.4200   32.0110   46.2690 C   0  0  0  0  0  0  0  0  0  0  0  0
   48.8578   35.7360   42.3472 H   0  0  0  0  0  0  0  0  0  0  0  0
   49.3960   34.9565   39.7908 H   0  0  0  0  0  0  0  0  0  0  0  0
   45.7763   32.1459   39.3041 H   0  0  0  0  0  0  0  0  0  0  0  0
   48.2207   33.8577   35.5174 H   0  0  0  0  0  0  0  0  0  0  0  0
   44.9075   30.4914   38.1421 H   0  0  0  0  0  0  0  0  0  0  0  0
   44.2715   31.1301   36.5883 H   0  0  0  0  0  0  0  0  0  0  0  0
   45.6411   29.9678   36.5883 H   0  0  0  0  0  0  0  0  0  0  0  0
   43.8765   36.9557   44.5412 H   0  0  0  0  0  0  0  0  0  0  0  0
   45.1883   36.7110   42.3917 H   0  0  0  0  0  0  0  0  0  0  0  0
   44.4933   34.0547   47.9635 H   0  0  0  0  0  0  0  0  0  0  0  0
   45.2553   31.9430   49.2373 H   0  0  0  0  0  0  0  0  0  0  0  0
   46.8262   29.6748   48.7429 H   0  0  0  0  0  0  0  0  0  0  0  0
   48.2026   28.6335   46.8948 H   0  0  0  0  0  0  0  0  0  0  0  0
   48.3951   29.7851   44.7121 H   0  0  0  0  0  0  0  0  0  0  0  0
   47.2628   31.9490   44.2814 H   0  0  0  0  0  0  0  0  0  0  0  0
  1 17  1  0
  2  1  2  0
  3  2  1  0
  4  3  2  0
  4  5  1  0
  5  1  1  0
  6  4  1  0
  7  6  1  0
  8  7  2  0
  9 11  1  0
  9  8  1  0
 10  9  2  0
 11 12  1  0
 12 13  2  0
 12  6  1  0
 14  8  1  0
 15 20  2  0
 16 15  1  0
 17 16  2  0
 17 18  1  0
 18 19  2  0
 19 20  1  0
 19 21  1  0
 21 22  2  0
 22 23  1  0
 24 25  2  0
 24 23  1  0
 26 25  1  0
 27 26  2  0
 28 27  1  0
 28 29  2  0
 29 21  1  0
 29 24  1  0
  2 30  1  0
  3 31  1  0
  7 32  1  0
 11 33  1  0
 14 34  1  0
 14 35  1  0
 14 36  1  0
 15 37  1  0
 16 38  1  0
 22 39  1  0
 23 40  1  0
 25 41  1  0
 26 42  1  0
 27 43  1  0
 28 44  1  0
M  END
>  <Score>  (1) 
-7.78776

$$$$
