
     RDKit          3D

 54 58  0  0  1  0  0  0  0  0999 V2000
   44.2510   35.5560   42.9650 C   0  0  0  0  0  0  0  0  0  0  0  0
   47.8400   35.0060   42.2760 C   0  0  0  0  0  0  0  0  0  0  0  0
   48.1240   33.8460   43.0280 C   0  0  0  0  0  0  0  0  0  0  0  0
   47.0730   33.2800   43.7580 C   0  0  0  0  0  0  0  0  0  0  0  0
   45.8760   33.8780   43.6890 N   0  0  0  0  0  0  0  0  0  0  0  0
   45.6340   34.9970   42.9530 C   0  0  0  0  0  0  0  0  0  0  0  0
   46.6180   35.5570   42.2500 N   0  0  0  0  0  0  0  0  0  0  0  0
   47.2920   32.1100   44.5380 N   0  0  0  0  0  0  0  0  0  0  0  0
   47.8960   30.9930   44.0930 C   0  0  0  0  0  0  0  0  0  0  0  0
   47.9330   30.0840   45.1010 N   0  0  0  0  0  0  0  0  0  0  0  0
   47.3360   30.6970   46.1450 C   0  0  0  0  0  0  0  0  0  0  0  0
   47.1390   30.1550   47.4050 C   0  0  0  0  0  0  0  0  0  0  0  0
   47.5090   28.9970   47.7150 O   0  0  0  0  0  0  0  0  0  0  0  0
   46.5140   30.9590   48.2980 N   0  0  0  0  0  0  0  0  0  0  0  0
   46.0980   32.2180   48.0030 C   0  0  0  0  0  0  0  0  0  0  0  0
   45.4570   32.9490   49.0360 N   0  0  0  0  0  0  0  0  0  0  0  0
   46.2990   32.7360   46.7580 N   0  0  0  0  0  0  0  0  0  0  0  0
   46.9150   31.9880   45.8230 C   0  0  0  0  0  0  0  0  0  0  0  0
   48.9790   35.6010   41.4950 C   0  0  0  0  0  0  0  0  0  0  0  0
   48.7180   35.5380   40.1610 F   0  0  0  0  0  0  0  0  0  0  0  0
   49.1800   36.9060   41.8840 F   0  0  0  0  0  0  0  0  0  0  0  0
   50.1130   34.8110   41.7100 F   0  0  0  0  0  0  0  0  0  0  0  0
   43.6090   35.3520   41.6300 C   0  0  0  0  0  0  0  0  0  0  0  0
   43.7270   33.9540   41.1010 C   0  0  1  0  0  0  0  0  0  0  0  0
   42.7450   32.9150   41.4680 C   0  0  0  0  0  0  0  0  0  0  0  0
   42.7920   33.4980   40.0620 C   0  0  1  0  0  0  0  0  0  0  0  0
   41.7440   34.1880   39.6620 O   0  0  0  0  0  0  0  0  0  0  0  0
   38.9120   33.0610   38.8700 N   0  0  0  0  0  0  0  0  0  0  0  0
   39.9000   32.1050   38.5170 C   0  0  0  0  0  0  0  0  0  0  0  0
   41.1670   32.6280   38.0180 C   0  0  0  0  0  0  0  0  0  0  0  0
   41.3950   34.1930   38.3310 C   0  0  1  0  0  0  0  0  0  0  0  0
   40.2460   34.8600   37.8100 C   0  0  0  0  0  0  0  0  0  0  0  0
   38.9370   34.2680   38.1300 C   0  0  0  0  0  0  0  0  0  0  0  0
   43.6575   35.0448   43.7373 H   0  0  0  0  0  0  0  0  0  0  0  0
   44.2971   36.6329   43.1843 H   0  0  0  0  0  0  0  0  0  0  0  0
   49.1314   33.4044   43.0398 H   0  0  0  0  0  0  0  0  0  0  0  0
   48.2944   30.8412   43.0790 H   0  0  0  0  0  0  0  0  0  0  0  0
   46.3458   30.5979   49.2478 H   0  0  0  0  0  0  0  0  0  0  0  0
   45.1246   33.9076   48.8586 H   0  0  0  0  0  0  0  0  0  0  0  0
   45.3240   32.5212   49.9634 H   0  0  0  0  0  0  0  0  0  0  0  0
   42.5407   35.5985   41.7192 H   0  0  0  0  0  0  0  0  0  0  0  0
   44.1381   36.0052   40.9205 H   0  0  0  0  0  0  0  0  0  0  0  0
   44.8219   34.0188   41.1845 H   0  0  0  0  0  0  0  0  0  0  0  0
   43.0745   31.8814   41.6500 H   0  0  0  0  0  0  0  0  0  0  0  0
   41.9755   32.8013   42.2458 H   0  0  0  0  0  0  0  0  0  0  0  0
   42.9404   33.1469   39.0301 H   0  0  0  0  0  0  0  0  0  0  0  0
   38.2224   32.8882   39.6153 H   0  0  0  0  0  0  0  0  0  0  0  0
   40.1168   31.5033   39.4120 H   0  0  0  0  0  0  0  0  0  0  0  0
   39.4692   31.5396   37.6775 H   0  0  0  0  0  0  0  0  0  0  0  0
   41.1957   32.4849   36.9277 H   0  0  0  0  0  0  0  0  0  0  0  0
   41.9663   32.0784   38.5367 H   0  0  0  0  0  0  0  0  0  0  0  0
   42.1968   34.7796   37.8588 H   0  0  0  0  0  0  0  0  0  0  0  0
   40.3342   35.7710   37.1998 H   0  0  0  0  0  0  0  0  0  0  0  0
   38.0038   34.7500   37.8033 H   0  0  0  0  0  0  0  0  0  0  0  0
  2  3  2  0
  3  4  1  0
  4  8  1  0
  5  4  2  0
  6  1  1  0
  6  5  1  0
  7  2  1  0
  7  6  2  0
  8 18  1  0
  9  8  1  0
  9 10  2  0
 10 11  1  0
 11 12  1  0
 12 13  2  0
 12 14  1  0
 15 14  1  0
 15 16  1  0
 17 15  2  0
 18 11  2  0
 18 17  1  0
 19 22  1  0
 19 21  1  0
 19  2  1  0
 20 19  1  0
 23  1  1  0
 24 25  1  0
 24 23  1  0
 26 24  1  0
 26 25  1  0
 27 26  1  0
 29 28  1  0
 30 31  1  0
 30 29  1  0
 31 27  1  0
 32 33  2  0
 32 31  1  0
 33 28  1  0
  1 34  1  0
  1 35  1  0
  3 36  1  0
  9 37  1  0
 14 38  1  0
 16 39  1  0
 16 40  1  0
 23 41  1  0
 23 42  1  0
 24 43  1  6
 25 44  1  0
 25 45  1  0
 26 46  1  6
 28 47  1  0
 29 48  1  0
 29 49  1  0
 30 50  1  0
 30 51  1  0
 31 52  1  6
 32 53  1  0
 33 54  1  0
M  END
>  <Score>  (1) 
-7.6246

$$$$
