
     RDKit          3D

 33 36  0  0  0  0  0  0  0  0999 V2000
   44.5740   35.7770   44.4670 C   0  0  0  0  0  0  0  0  0  0  0  0
   45.3670   35.7550   43.2940 C   0  0  0  0  0  0  0  0  0  0  0  0
   46.3780   34.7860   43.1830 C   0  0  0  0  0  0  0  0  0  0  0  0
   46.5450   33.9160   44.2080 N   0  0  0  0  0  0  0  0  0  0  0  0
   45.7740   33.9600   45.3150 C   0  0  0  0  0  0  0  0  0  0  0  0
   44.8000   34.8700   45.4570 N   0  0  0  0  0  0  0  0  0  0  0  0
   47.1320   34.8140   41.9970 N   0  0  0  0  0  0  0  0  0  0  0  0
   48.3050   35.5080   41.9040 C   0  0  0  0  0  0  0  0  0  0  0  0
   48.8010   35.3570   40.6570 N   0  0  0  0  0  0  0  0  0  0  0  0
   47.9530   34.5730   39.9640 C   0  0  0  0  0  0  0  0  0  0  0  0
   47.9960   34.1190   38.6590 C   0  0  0  0  0  0  0  0  0  0  0  0
   46.9630   33.3300   38.2640 N   0  0  0  0  0  0  0  0  0  0  0  0
   45.9510   33.0050   39.0880 C   0  0  0  0  0  0  0  0  0  0  0  0
   45.9260   33.4660   40.3780 N   0  0  0  0  0  0  0  0  0  0  0  0
   46.9140   34.2390   40.8080 C   0  0  0  0  0  0  0  0  0  0  0  0
   49.0610   34.4700   37.7890 N   0  0  0  0  0  0  0  0  0  0  0  0
   46.0140   32.9900   46.3780 C   0  0  0  0  0  0  0  0  0  0  0  0
   45.2450   32.9890   47.5230 C   0  0  0  0  0  0  0  0  0  0  0  0
   45.4070   32.1170   48.5610 C   0  0  0  0  0  0  0  0  0  0  0  0
   46.3970   31.1790   48.4630 C   0  0  0  0  0  0  0  0  0  0  0  0
   47.1730   31.1670   47.3250 C   0  0  0  0  0  0  0  0  0  0  0  0
   47.0340   32.0420   46.2490 C   0  0  0  0  0  0  0  0  0  0  0  0
   43.7762   36.5261   44.5782 H   0  0  0  0  0  0  0  0  0  0  0  0
   45.1949   36.4817   42.4864 H   0  0  0  0  0  0  0  0  0  0  0  0
   48.7690   36.0933   42.7116 H   0  0  0  0  0  0  0  0  0  0  0  0
   45.1357   32.3631   38.7229 H   0  0  0  0  0  0  0  0  0  0  0  0
   49.0716   34.1196   36.8205 H   0  0  0  0  0  0  0  0  0  0  0  0
   49.8233   35.0751   38.1261 H   0  0  0  0  0  0  0  0  0  0  0  0
   44.4471   33.7417   47.6055 H   0  0  0  0  0  0  0  0  0  0  0  0
   44.7605   32.1676   49.4495 H   0  0  0  0  0  0  0  0  0  0  0  0
   46.5692   30.4532   49.2715 H   0  0  0  0  0  0  0  0  0  0  0  0
   47.9652   30.4066   47.2603 H   0  0  0  0  0  0  0  0  0  0  0  0
   47.6810   31.9905   45.3609 H   0  0  0  0  0  0  0  0  0  0  0  0
  1  6  2  0
  2  1  1  0
  3  2  2  0
  3  4  1  0
  4  5  2  0
  5  6  1  0
  5 17  1  0
  7  3  1  0
  8  7  1  0
  9  8  2  0
 10  9  1  0
 10 15  2  0
 11 10  1  0
 12 11  2  0
 12 13  1  0
 13 14  2  0
 14 15  1  0
 15  7  1  0
 16 11  1  0
 17 18  2  0
 18 19  1  0
 20 19  2  0
 21 20  1  0
 22 17  1  0
 22 21  2  0
  1 23  1  0
  2 24  1  0
  8 25  1  0
 13 26  1  0
 16 27  1  0
 16 28  1  0
 18 29  1  0
 19 30  1  0
 20 31  1  0
 21 32  1  0
 22 33  1  0
M  END
>  <Score>  (1) 
-7.02806

$$$$
