
     RDKit          3D

 46 51  0  0  1  0  0  0  0  0999 V2000
   45.7670   33.8470   45.5090 C   0  0  0  0  0  0  0  0  0  0  0  0
   46.5640   33.8380   44.3660 C   0  0  0  0  0  0  0  0  0  0  0  0
   46.3420   34.7950   43.3800 C   0  0  0  0  0  0  0  0  0  0  0  0
   45.3590   35.7040   43.5640 N   0  0  0  0  0  0  0  0  0  0  0  0
   44.5950   35.6990   44.6790 C   0  0  0  0  0  0  0  0  0  0  0  0
   44.8040   34.7730   45.6410 N   0  0  0  0  0  0  0  0  0  0  0  0
   47.1880   34.7680   42.1920 C   0  0  0  0  0  0  0  0  0  0  0  0
   48.4740   35.3000   42.0750 C   0  0  0  0  0  0  0  0  0  0  0  0
   48.9370   35.0870   40.8360 N   0  0  0  0  0  0  0  0  0  0  0  0
   47.9680   34.4270   40.1610 C   0  0  0  0  0  0  0  0  0  0  0  0
   47.9400   33.9690   38.8510 C   0  0  0  0  0  0  0  0  0  0  0  0
   46.8270   33.3150   38.3850 C   0  0  0  0  0  0  0  0  0  0  0  0
   45.6940   33.0780   39.1730 C   0  0  0  0  0  0  0  0  0  0  0  0
   45.7940   33.5640   40.4710 C   0  0  0  0  0  0  0  0  0  0  0  0
   46.8580   34.2080   40.9730 C   0  0  0  0  0  0  0  0  0  0  0  0
   45.9330   32.9310   46.5210 O   0  0  0  0  0  0  0  0  0  0  0  0
   45.1090   32.7960   47.6410 C   0  0  1  0  0  0  0  0  0  0  0  0
   44.7880   31.4050   48.0570 C   0  0  0  0  0  0  0  0  0  0  0  0
   45.7670   32.2630   48.8740 C   0  0  1  0  0  0  0  0  0  0  0  0
   47.2030   31.8440   48.7720 C   0  0  0  0  0  0  0  0  0  0  0  0
   48.0080   32.5790   48.1390 O   0  0  0  0  0  0  0  0  0  0  0  0
   47.7850   30.7270   49.2850 O   0  0  0  0  0  0  0  0  0  0  0  0
   52.2980   31.0220   49.9690 N   0  0  0  0  0  0  0  0  0  0  0  0
   51.6440   31.6950   50.9390 C   0  0  0  0  0  0  0  0  0  0  0  0
   50.3140   31.5580   50.6620 N   0  0  0  0  0  0  0  0  0  0  0  0
   50.1690   30.8130   49.5420 C   0  0  0  0  0  0  0  0  0  0  0  0
   49.0680   30.3720   48.8250 C   0  0  0  0  0  0  0  0  0  0  0  0
   49.2590   29.6150   47.7040 N   0  0  0  0  0  0  0  0  0  0  0  0
   50.5050   29.2990   47.3000 C   0  0  0  0  0  0  0  0  0  0  0  0
   51.5770   29.7180   47.9820 N   0  0  0  0  0  0  0  0  0  0  0  0
   51.4310   30.4690   49.0960 C   0  0  0  0  0  0  0  0  0  0  0  0
   47.3571   33.0855   44.2447 H   0  0  0  0  0  0  0  0  0  0  0  0
   43.8013   36.4503   44.8037 H   0  0  0  0  0  0  0  0  0  0  0  0
   49.0227   35.8150   42.8773 H   0  0  0  0  0  0  0  0  0  0  0  0
   49.8558   35.3716   40.4675 H   0  0  0  0  0  0  0  0  0  0  0  0
   48.8047   34.1293   38.1903 H   0  0  0  0  0  0  0  0  0  0  0  0
   46.8249   32.9604   37.3437 H   0  0  0  0  0  0  0  0  0  0  0  0
   44.8031   32.5532   38.7975 H   0  0  0  0  0  0  0  0  0  0  0  0
   44.9337   33.4085   41.1386 H   0  0  0  0  0  0  0  0  0  0  0  0
   44.5030   33.6860   47.4158 H   0  0  0  0  0  0  0  0  0  0  0  0
   43.7936   31.1654   48.4617 H   0  0  0  0  0  0  0  0  0  0  0  0
   44.8276   30.4162   47.5767 H   0  0  0  0  0  0  0  0  0  0  0  0
   45.8539   32.6142   49.9128 H   0  0  0  0  0  0  0  0  0  0  0  0
   53.3228   30.9414   49.9040 H   0  0  0  0  0  0  0  0  0  0  0  0
   52.0915   32.2426   51.7815 H   0  0  0  0  0  0  0  0  0  0  0  0
   50.6428   28.6875   46.3961 H   0  0  0  0  0  0  0  0  0  0  0  0
  1  6  1  0
  1 16  1  0
  2  1  2  0
  3  4  2  0
  3  2  1  0
  4  5  1  0
  5  6  2  0
  7  3  1  0
  8  7  2  0
  9  8  1  0
 10  9  1  0
 10 15  2  0
 11 10  1  0
 12 11  2  0
 12 13  1  0
 13 14  2  0
 14 15  1  0
 15  7  1  0
 16 17  1  0
 17 18  1  0
 17 19  1  0
 18 19  1  0
 20 19  1  0
 20 22  1  0
 21 20  2  0
 23 24  1  0
 25 24  2  0
 26 25  1  0
 27 22  1  0
 27 26  2  0
 28 27  1  0
 29 28  2  0
 29 30  1  0
 30 31  2  0
 31 26  1  0
 31 23  1  0
  2 32  1  0
  5 33  1  0
  8 34  1  0
  9 35  1  0
 11 36  1  0
 12 37  1  0
 13 38  1  0
 14 39  1  0
 17 40  1  1
 18 41  1  0
 18 42  1  0
 19 43  1  1
 23 44  1  0
 24 45  1  0
 29 46  1  0
M  END
>  <Score>  (1) 
-7.33588

$$$$
