
     RDKit          3D

 37 39  0  0  0  0  0  0  0  0999 V2000
   46.9720   34.8050   42.0840 C   0  0  0  0  0  0  0  0  0  0  0  0
   48.2600   35.2660   41.8990 C   0  0  0  0  0  0  0  0  0  0  0  0
   48.5200   34.9560   40.5550 C   0  0  0  0  0  0  0  0  0  0  0  0
   47.4080   34.3430   40.0160 C   0  0  0  0  0  0  0  0  0  0  0  0
   46.5250   34.2870   40.9900 O   0  0  0  0  0  0  0  0  0  0  0  0
   44.5070   35.8650   44.6570 C   0  0  0  0  0  0  0  0  0  0  0  0
   45.2430   35.8550   43.4420 C   0  0  0  0  0  0  0  0  0  0  0  0
   46.1870   34.8670   43.3060 C   0  0  0  0  0  0  0  0  0  0  0  0
   46.3800   33.9560   44.3100 N   0  0  0  0  0  0  0  0  0  0  0  0
   45.6530   34.0050   45.4530 C   0  0  0  0  0  0  0  0  0  0  0  0
   44.7170   34.9600   45.6240 N   0  0  0  0  0  0  0  0  0  0  0  0
   45.8860   33.0380   46.4700 N   0  0  0  0  0  0  0  0  0  0  0  0
   46.8960   32.0160   46.2720 C   0  0  0  0  0  0  0  0  0  0  0  0
   46.3410   30.6990   46.7480 C   0  0  0  0  0  0  0  0  0  0  0  0
   45.7110   30.7490   47.9680 O   0  0  0  0  0  0  0  0  0  0  0  0
   45.7410   31.9820   48.5870 C   0  0  0  0  0  0  0  0  0  0  0  0
   45.1280   33.0670   47.6940 C   0  0  0  0  0  0  0  0  0  0  0  0
   47.2600   33.8750   38.6930 N   0  0  0  0  0  0  0  0  0  0  0  0
   48.2950   33.9680   37.7340 C   0  0  0  0  0  0  0  0  0  0  0  0
   49.0480   35.0500   37.7770 N   0  0  0  0  0  0  0  0  0  0  0  0
   48.4440   32.8800   36.7920 N   0  0  0  0  0  0  0  0  0  0  0  0
   49.8260   35.0570   37.0810 H   0  0  0  0  0  0  0  0  0  0  0  0
   48.9217   35.7570   42.6278 H   0  0  0  0  0  0  0  0  0  0  0  0
   49.4572   35.1673   40.0192 H   0  0  0  0  0  0  0  0  0  0  0  0
   43.7408   36.6394   44.8094 H   0  0  0  0  0  0  0  0  0  0  0  0
   45.0661   36.5995   42.6518 H   0  0  0  0  0  0  0  0  0  0  0  0
   47.1505   31.9475   45.2040 H   0  0  0  0  0  0  0  0  0  0  0  0
   47.8050   32.2690   46.8374 H   0  0  0  0  0  0  0  0  0  0  0  0
   45.6152   30.3432   46.0019 H   0  0  0  0  0  0  0  0  0  0  0  0
   47.2017   30.0250   46.8701 H   0  0  0  0  0  0  0  0  0  0  0  0
   45.1707   31.9259   49.5259 H   0  0  0  0  0  0  0  0  0  0  0  0
   46.7902   32.2463   48.7851 H   0  0  0  0  0  0  0  0  0  0  0  0
   45.2132   34.0527   48.1747 H   0  0  0  0  0  0  0  0  0  0  0  0
   44.0579   32.8876   47.5133 H   0  0  0  0  0  0  0  0  0  0  0  0
   46.3640   33.4495   38.4153 H   0  0  0  0  0  0  0  0  0  0  0  0
   47.8070   32.0717   36.8338 H   0  0  0  0  0  0  0  0  0  0  0  0
   49.1871   32.9137   36.0796 H   0  0  0  0  0  0  0  0  0  0  0  0
  1  8  1  0
  2  1  2  0
  3  2  1  0
  4  3  2  0
  4  5  1  0
  5  1  1  0
  6 11  2  0
  7  6  1  0
  8  7  2  0
  8  9  1  0
  9 10  2  0
 10 11  1  0
 10 12  1  0
 12 17  1  0
 13 12  1  0
 13 14  1  0
 14 15  1  0
 15 16  1  0
 17 16  1  0
 18  4  1  0
 19 20  2  0
 19 18  1  0
 21 19  1  0
 22 20  1  0
  2 23  1  0
  3 24  1  0
  6 25  1  0
  7 26  1  0
 13 27  1  0
 13 28  1  0
 14 29  1  0
 14 30  1  0
 16 31  1  0
 16 32  1  0
 17 33  1  0
 17 34  1  0
 18 35  1  0
 21 36  1  0
 21 37  1  0
M  END
>  <Score>  (1) 
-7.17045

$$$$
