
     RDKit          3D

 48 52  0  0  1  0  0  0  0  0999 V2000
   46.4370   33.6490   44.9060 C   0  0  2  0  0  0  0  0  0  0  0  0
   45.0490   34.2960   44.9740 C   0  0  0  0  0  0  0  0  0  0  0  0
   44.7860   35.3260   43.9970 C   0  0  0  0  0  0  0  0  0  0  0  0
   45.7850   35.7310   43.0070 C   0  0  0  0  0  0  0  0  0  0  0  0
   47.0590   34.9940   43.0390 C   0  0  1  0  0  0  0  0  0  0  0  0
   46.9370   33.6100   43.5020 C   0  0  0  0  0  0  0  0  0  0  0  0
   45.9210   32.2470   46.8960 C   0  0  0  0  0  0  0  0  0  0  0  0
   46.3520   32.3170   45.5690 C   0  0  0  0  0  0  0  0  0  0  0  0
   46.7070   31.1010   44.8900 C   0  0  0  0  0  0  0  0  0  0  0  0
   46.5980   29.9420   45.5930 N   0  0  0  0  0  0  0  0  0  0  0  0
   46.1810   29.9230   46.8620 C   0  0  0  0  0  0  0  0  0  0  0  0
   45.8400   31.0610   47.5250 N   0  0  0  0  0  0  0  0  0  0  0  0
   46.1520   28.5960   47.3790 N   0  0  0  0  0  0  0  0  0  0  0  0
   44.8980   28.1670   47.7000 C   0  0  0  0  0  0  0  0  0  0  0  0
   44.6870   26.8860   48.2220 C   0  0  0  0  0  0  0  0  0  0  0  0
   45.8430   26.1140   48.3760 C   0  0  0  0  0  0  0  0  0  0  0  0
   45.6100   24.9650   48.8500 O   0  0  0  0  0  0  0  0  0  0  0  0
   47.0630   26.5640   48.0500 N   0  0  0  0  0  0  0  0  0  0  0  0
   47.2210   27.8040   47.5510 C   0  0  0  0  0  0  0  0  0  0  0  0
   48.3280   28.2760   47.2310 O   0  0  0  0  0  0  0  0  0  0  0  0
   47.6500   34.9700   41.6810 C   0  0  0  0  0  0  0  0  0  0  0  0
   48.8020   35.6370   41.2570 C   0  0  0  0  0  0  0  0  0  0  0  0
   48.9190   35.2970   39.9700 N   0  0  0  0  0  0  0  0  0  0  0  0
   47.9400   34.4760   39.5540 C   0  0  0  0  0  0  0  0  0  0  0  0
   47.7370   33.9160   38.2890 C   0  0  0  0  0  0  0  0  0  0  0  0
   46.6360   33.1100   38.1920 C   0  0  0  0  0  0  0  0  0  0  0  0
   45.7540   32.8330   39.2270 C   0  0  0  0  0  0  0  0  0  0  0  0
   46.0450   33.4380   40.4390 C   0  0  0  0  0  0  0  0  0  0  0  0
   47.1200   34.2660   40.6620 C   0  0  0  0  0  0  0  0  0  0  0  0
   47.1871   34.2444   45.4472 H   0  0  0  0  0  0  0  0  0  0  0  0
   44.2998   33.9943   45.7208 H   0  0  0  0  0  0  0  0  0  0  0  0
   43.8041   35.8218   43.9967 H   0  0  0  0  0  0  0  0  0  0  0  0
   46.0077   36.7959   43.1695 H   0  0  0  0  0  0  0  0  0  0  0  0
   45.3383   35.5099   42.0264 H   0  0  0  0  0  0  0  0  0  0  0  0
   47.6958   35.5276   43.7600 H   0  0  0  0  0  0  0  0  0  0  0  0
   46.2264   33.0624   42.8655 H   0  0  0  0  0  0  0  0  0  0  0  0
   47.9091   33.0976   43.4512 H   0  0  0  0  0  0  0  0  0  0  0  0
   45.6459   33.1684   47.4302 H   0  0  0  0  0  0  0  0  0  0  0  0
   47.0523   31.1076   43.8456 H   0  0  0  0  0  0  0  0  0  0  0  0
   44.0398   28.8378   47.5463 H   0  0  0  0  0  0  0  0  0  0  0  0
   43.6873   26.5142   48.4910 H   0  0  0  0  0  0  0  0  0  0  0  0
   47.8846   25.9570   48.1822 H   0  0  0  0  0  0  0  0  0  0  0  0
   49.4609   36.2913   41.8467 H   0  0  0  0  0  0  0  0  0  0  0  0
   49.6800   35.6295   39.3607 H   0  0  0  0  0  0  0  0  0  0  0  0
   48.4090   34.1082   37.4396 H   0  0  0  0  0  0  0  0  0  0  0  0
   46.4337   32.6445   37.2161 H   0  0  0  0  0  0  0  0  0  0  0  0
   44.8815   32.1765   39.0939 H   0  0  0  0  0  0  0  0  0  0  0  0
   45.3676   33.2420   41.2833 H   0  0  0  0  0  0  0  0  0  0  0  0
  1  2  1  0
  1  8  1  0
  3  2  2  0
  4  5  1  0
  4  3  1  0
  5  6  1  0
  6  1  1  0
  7 12  2  0
  8  7  1  0
  9  8  2  0
  9 10  1  0
 10 11  2  0
 11 13  1  0
 11 12  1  0
 13 19  1  0
 13 14  1  0
 14 15  2  0
 15 16  1  0
 16 17  2  0
 18 16  1  0
 19 18  1  0
 20 19  2  0
 21  5  1  0
 22 21  2  0
 23 22  1  0
 24 23  1  0
 24 29  2  0
 25 24  1  0
 26 25  2  0
 26 27  1  0
 27 28  2  0
 28 29  1  0
 29 21  1  0
  1 30  1  1
  2 31  1  0
  3 32  1  0
  4 33  1  0
  4 34  1  0
  5 35  1  1
  6 36  1  0
  6 37  1  0
  7 38  1  0
  9 39  1  0
 14 40  1  0
 15 41  1  0
 18 42  1  0
 22 43  1  0
 23 44  1  0
 25 45  1  0
 26 46  1  0
 27 47  1  0
 28 48  1  0
M  END
>  <Score>  (1) 
-7.40744

$$$$
