
     RDKit          3D

 45 48  0  0  0  0  0  0  0  0999 V2000
   44.5410   35.0270   46.1660 C   0  0  0  0  0  0  0  0  0  0  0  0
   44.7860   35.0230   44.7800 C   0  0  0  0  0  0  0  0  0  0  0  0
   45.4730   33.9410   44.2090 C   0  0  0  0  0  0  0  0  0  0  0  0
   45.8670   32.9500   45.0320 N   0  0  0  0  0  0  0  0  0  0  0  0
   45.6130   32.9900   46.3640 C   0  0  0  0  0  0  0  0  0  0  0  0
   44.9610   34.0070   46.9360 N   0  0  0  0  0  0  0  0  0  0  0  0
   45.6880   33.9900   42.8280 N   0  0  0  0  0  0  0  0  0  0  0  0
   44.9290   33.7980   41.7370 C   0  0  0  0  0  0  0  0  0  0  0  0
   45.6720   33.9790   40.6160 N   0  0  0  0  0  0  0  0  0  0  0  0
   46.9300   34.2940   40.9990 C   0  0  0  0  0  0  0  0  0  0  0  0
   48.0510   34.5710   40.2290 C   0  0  0  0  0  0  0  0  0  0  0  0
   48.0580   34.5690   38.9970 O   0  0  0  0  0  0  0  0  0  0  0  0
   49.2210   34.8630   40.8600 N   0  0  0  0  0  0  0  0  0  0  0  0
   49.2040   34.8630   42.2020 C   0  0  0  0  0  0  0  0  0  0  0  0
   50.3670   35.1560   42.9630 N   0  0  0  0  0  0  0  0  0  0  0  0
   48.1190   34.5950   42.9250 N   0  0  0  0  0  0  0  0  0  0  0  0
   46.9270   34.2980   42.3680 C   0  0  0  0  0  0  0  0  0  0  0  0
   46.0410   31.9110   47.2780 C   0  0  0  0  0  0  0  0  0  0  0  0
   47.2760   32.3370   48.0730 C   0  0  0  0  0  0  0  0  0  0  0  0
   44.9900   31.4660   48.2430 C   0  0  0  0  0  0  0  0  0  0  0  0
   46.4950   30.7450   46.4130 C   0  0  0  0  0  0  0  0  0  0  0  0
   45.7370   29.5140   46.6730 C   0  0  0  0  0  0  0  0  0  0  0  0
   44.6690   29.3010   45.8240 C   0  0  0  0  0  0  0  0  0  0  0  0
   43.8440   28.2070   45.9100 C   0  0  0  0  0  0  0  0  0  0  0  0
   44.1050   27.2670   46.9090 C   0  0  0  0  0  0  0  0  0  0  0  0
   45.1780   27.4960   47.7500 C   0  0  0  0  0  0  0  0  0  0  0  0
   45.9640   28.5840   47.6320 N   0  0  0  0  0  0  0  0  0  0  0  0
   44.0022   35.8702   46.6229 H   0  0  0  0  0  0  0  0  0  0  0  0
   44.4429   35.8583   44.1518 H   0  0  0  0  0  0  0  0  0  0  0  0
   43.8615   33.5329   41.7501 H   0  0  0  0  0  0  0  0  0  0  0  0
   50.0798   35.0742   40.3320 H   0  0  0  0  0  0  0  0  0  0  0  0
   50.3245   35.1486   43.9921 H   0  0  0  0  0  0  0  0  0  0  0  0
   51.2529   35.3758   42.4857 H   0  0  0  0  0  0  0  0  0  0  0  0
   47.0624   32.2633   49.1496 H   0  0  0  0  0  0  0  0  0  0  0  0
   48.1198   31.6780   47.8206 H   0  0  0  0  0  0  0  0  0  0  0  0
   47.5341   33.3761   47.8206 H   0  0  0  0  0  0  0  0  0  0  0  0
   45.3488   31.6179   49.2717 H   0  0  0  0  0  0  0  0  0  0  0  0
   44.0737   32.0534   48.0838 H   0  0  0  0  0  0  0  0  0  0  0  0
   44.7740   30.3992   48.0838 H   0  0  0  0  0  0  0  0  0  0  0  0
   47.5590   30.5516   46.6142 H   0  0  0  0  0  0  0  0  0  0  0  0
   46.3223   31.0246   45.3633 H   0  0  0  0  0  0  0  0  0  0  0  0
   44.4692   30.0454   45.0392 H   0  0  0  0  0  0  0  0  0  0  0  0
   43.0031   28.0750   45.2132 H   0  0  0  0  0  0  0  0  0  0  0  0
   43.4761   26.3718   47.0233 H   0  0  0  0  0  0  0  0  0  0  0  0
   45.3975   26.7653   48.5423 H   0  0  0  0  0  0  0  0  0  0  0  0
  1  6  2  0
  2  1  1  0
  3  2  2  0
  3  4  1  0
  4  5  2  0
  5  6  1  0
  5 18  1  0
  7  3  1  0
  8  7  1  0
  9 10  1  0
  9  8  2  0
 10 17  2  0
 11 13  1  0
 11 10  1  0
 12 11  2  0
 13 14  1  0
 14 16  2  0
 14 15  1  0
 17  7  1  0
 17 16  1  0
 18 19  1  0
 18 20  1  0
 21 22  1  0
 21 18  1  0
 22 27  2  0
 23 24  2  0
 23 22  1  0
 24 25  1  0
 25 26  2  0
 27 26  1  0
  1 28  1  0
  2 29  1  0
  8 30  1  0
 13 31  1  0
 15 32  1  0
 15 33  1  0
 19 34  1  0
 19 35  1  0
 19 36  1  0
 20 37  1  0
 20 38  1  0
 20 39  1  0
 21 40  1  0
 21 41  1  0
 23 42  1  0
 24 43  1  0
 25 44  1  0
 26 45  1  0
M  END
>  <Score>  (1) 
-7.00599

$$$$
