
     RDKit          3D

 48 53  0  0  0  0  0  0  0  0999 V2000
   44.4530   36.0090   44.3520 C   0  0  0  0  0  0  0  0  0  0  0  0
   45.1560   36.0640   43.1430 C   0  0  0  0  0  0  0  0  0  0  0  0
   46.1600   35.0950   42.9130 C   0  0  0  0  0  0  0  0  0  0  0  0
   46.3930   34.1680   43.8610 N   0  0  0  0  0  0  0  0  0  0  0  0
   45.6800   34.1490   45.0320 C   0  0  0  0  0  0  0  0  0  0  0  0
   44.7280   35.0670   45.2550 N   0  0  0  0  0  0  0  0  0  0  0  0
   46.0350   33.1020   45.9550 N   0  0  0  0  0  0  0  0  0  0  0  0
   45.6760   32.9440   47.2400 C   0  0  0  0  0  0  0  0  0  0  0  0
   46.2460   31.8300   47.6870 N   0  0  0  0  0  0  0  0  0  0  0  0
   46.9760   31.2450   46.7250 C   0  0  0  0  0  0  0  0  0  0  0  0
   47.7450   30.0940   46.6890 C   0  0  0  0  0  0  0  0  0  0  0  0
   48.3490   29.8120   45.5260 N   0  0  0  0  0  0  0  0  0  0  0  0
   48.2040   30.6210   44.4540 C   0  0  0  0  0  0  0  0  0  0  0  0
   47.4510   31.7590   44.4710 N   0  0  0  0  0  0  0  0  0  0  0  0
   46.8310   32.0670   45.6300 C   0  0  0  0  0  0  0  0  0  0  0  0
   48.8840   30.2960   43.1570 C   0  0  0  0  0  0  0  0  0  0  0  0
   48.8120   31.3870   42.3060 F   0  0  0  0  0  0  0  0  0  0  0  0
   48.2870   29.2200   42.5530 F   0  0  0  0  0  0  0  0  0  0  0  0
   50.2250   30.0870   43.3780 F   0  0  0  0  0  0  0  0  0  0  0  0
   47.8950   29.2140   47.8750 C   0  0  0  0  0  0  0  0  0  0  0  0
   49.1350   29.6070   48.5840 C   0  0  0  0  0  0  0  0  0  0  0  0
   50.3470   28.9940   48.7210 C   0  0  0  0  0  0  0  0  0  0  0  0
   51.1480   29.8360   49.5070 C   0  0  0  0  0  0  0  0  0  0  0  0
   50.3940   30.9240   49.8150 N   0  0  0  0  0  0  0  0  0  0  0  0
   49.2080   30.7580   49.2540 N   0  0  0  0  0  0  0  0  0  0  0  0
   50.9540   31.9610   50.6130 C   0  0  0  0  0  0  0  0  0  0  0  0
   51.0500   33.2050   50.0960 N   0  0  0  0  0  0  0  0  0  0  0  0
   51.5590   34.2580   50.7520 C   0  0  0  0  0  0  0  0  0  0  0  0
   52.0090   34.0860   52.0130 N   0  0  0  0  0  0  0  0  0  0  0  0
   51.9520   32.8810   52.6090 C   0  0  0  0  0  0  0  0  0  0  0  0
   52.4080   32.6830   53.9010 C   0  0  0  0  0  0  0  0  0  0  0  0
   52.3420   31.4350   54.4980 C   0  0  0  0  0  0  0  0  0  0  0  0
   51.8050   30.3990   53.7590 C   0  0  0  0  0  0  0  0  0  0  0  0
   51.3430   30.5690   52.4690 C   0  0  0  0  0  0  0  0  0  0  0  0
   51.4230   31.8220   51.9030 C   0  0  0  0  0  0  0  0  0  0  0  0
   43.6665   36.7496   44.5592 H   0  0  0  0  0  0  0  0  0  0  0  0
   44.9341   36.8382   42.3937 H   0  0  0  0  0  0  0  0  0  0  0  0
   46.7392   35.0987   41.9778 H   0  0  0  0  0  0  0  0  0  0  0  0
   45.0261   33.6168   47.8188 H   0  0  0  0  0  0  0  0  0  0  0  0
   47.0290   29.3362   48.5422 H   0  0  0  0  0  0  0  0  0  0  0  0
   47.9508   28.1604   47.5639 H   0  0  0  0  0  0  0  0  0  0  0  0
   50.6403   28.0230   48.2954 H   0  0  0  0  0  0  0  0  0  0  0  0
   52.1876   29.6509   49.8151 H   0  0  0  0  0  0  0  0  0  0  0  0
   51.6090   35.2457   50.2704 H   0  0  0  0  0  0  0  0  0  0  0  0
   52.8293   33.5301   54.4622 H   0  0  0  0  0  0  0  0  0  0  0  0
   52.7043   31.2746   55.5241 H   0  0  0  0  0  0  0  0  0  0  0  0
   51.7430   29.4002   54.2157 H   0  0  0  0  0  0  0  0  0  0  0  0
   50.9208   29.7233   51.9064 H   0  0  0  0  0  0  0  0  0  0  0  0
  1  6  2  0
  2  1  1  0
  3  2  2  0
  3  4  1  0
  4  5  2  0
  5  6  1  0
  5  7  1  0
  7  8  1  0
  8  9  2  0
 10  9  1  0
 11 10  2  0
 11 20  1  0
 12 11  1  0
 13 14  1  0
 13 12  2  0
 14 15  2  0
 15  7  1  0
 15 10  1  0
 16 19  1  0
 16 13  1  0
 17 16  1  0
 18 16  1  0
 20 21  1  0
 21 22  1  0
 21 25  2  0
 22 23  2  0
 23 24  1  0
 24 26  1  0
 25 24  1  0
 26 35  1  0
 27 26  2  0
 27 28  1  0
 28 29  2  0
 29 30  1  0
 30 31  2  0
 31 32  1  0
 33 32  2  0
 34 33  1  0
 35 34  2  0
 35 30  1  0
  1 36  1  0
  2 37  1  0
  3 38  1  0
  8 39  1  0
 20 40  1  0
 20 41  1  0
 22 42  1  0
 23 43  1  0
 28 44  1  0
 31 45  1  0
 32 46  1  0
 33 47  1  0
 34 48  1  0
M  END
>  <Score>  (1) 
-7.86369

$$$$
