REMARK  Name = 
REMARK  1 active torsions:
REMARK  status: ('A' for Active; 'I' for Inactive)
REMARK    1  A    between atoms: C_1  and  C_13
REMARK                            x       y       z     vdW  Elec       q    Type
REMARK                         _______ _______ _______ _____ _____    ______ ____
ROOT
ATOM      1  C   UNL     1      44.395  36.116  44.714  0.00  0.00    +0.000 A 
ATOM      2  C   UNL     1      45.026  36.043  43.475  0.00  0.00    +0.000 A 
ATOM      3  C   UNL     1      45.926  35.052  43.140  0.00  0.00    +0.000 A 
ATOM      4  N   UNL     1      46.133  34.155  44.150  0.00  0.00    +0.000 NA
ATOM      5  C   UNL     1      45.539  34.204  45.348  0.00  0.00    +0.000 A 
ATOM      6  N   UNL     1      44.675  35.187  45.615  0.00  0.00    +0.000 NA
ATOM      7  N   UNL     1      45.844  33.202  46.315  0.00  0.00    +0.000 N 
ATOM      8  C   UNL     1      45.129  33.228  47.456  0.00  0.00    +0.000 A 
ATOM      9  C   UNL     1      45.379  32.283  48.431  0.00  0.00    +0.000 A 
ATOM     10  C   UNL     1      46.362  31.351  48.173  0.00  0.00    +0.000 A 
ATOM     11  O   UNL     1      46.557  30.505  49.091  0.00  0.00    +0.000 OA
ATOM     12  N   UNL     1      47.041  31.376  47.015  0.00  0.00    +0.000 N 
ATOM     13  C   UNL     1      46.804  32.296  46.055  0.00  0.00    +0.000 A 
ATOM     14  O   UNL     1      47.467  32.279  44.987  0.00  0.00    +0.000 OA
ATOM     15  H   UNL     1      47.770  30.667  46.853  0.00  0.00    +0.000 HD
ENDROOT
BRANCH   3  16
ATOM     16  C   UNL     1      46.650  34.812  41.922  0.00  0.00    +0.000 A 
ATOM     17  C   UNL     1      47.926  35.335  41.817  0.00  0.00    +0.000 A 
ATOM     18  C   UNL     1      48.733  35.181  40.726  0.00  0.00    +0.000 A 
ATOM     19  C   UNL     1      48.273  34.465  39.649  0.00  0.00    +0.000 A 
ATOM     20  C   UNL     1      47.017  33.914  39.673  0.00  0.00    +0.000 A 
ATOM     21  C   UNL     1      46.546  33.196  38.596  0.00  0.00    +0.000 A 
ATOM     22  C   UNL     1      45.287  32.630  38.591  0.00  0.00    +0.000 A 
ATOM     23  C   UNL     1      44.521  32.835  39.752  0.00  0.00    +0.000 A 
ATOM     24  C   UNL     1      45.021  33.546  40.786  0.00  0.00    +0.000 A 
ATOM     25  C   UNL     1      46.263  34.111  40.804  0.00  0.00    +0.000 A 
ENDBRANCH   3  16
TORSDOF 1
