REMARK  Name = 
REMARK  3 active torsions:
REMARK  status: ('A' for Active; 'I' for Inactive)
REMARK    1  A    between atoms: C_1  and  S_16
REMARK    2  A    between atoms: C_5  and  C_12
REMARK    3  A    between atoms: S_16  and  C_21
REMARK                            x       y       z     vdW  Elec       q    Type
REMARK                         _______ _______ _______ _____ _____    ______ ____
ROOT
ATOM      1  C   UNL     1      45.237  33.981  41.143  0.00  0.00    +0.000 A 
ATOM      2  C   UNL     1      44.866  33.888  42.502  0.00  0.00    +0.000 A 
ATOM      3  C   UNL     1      45.839  34.298  43.420  0.00  0.00    +0.000 A 
ATOM      4  N   UNL     1      47.039  34.744  42.950  0.00  0.00    +0.000 NA
ATOM      5  C   UNL     1      47.345  34.814  41.646  0.00  0.00    +0.000 A 
ATOM      6  N   UNL     1      46.433  34.429  40.757  0.00  0.00    +0.000 NA
ATOM      7  N   UNL     1      45.493  34.215  44.777  0.00  0.00    +0.000 N 
ATOM      8  C   UNL     1      45.977  33.258  45.616  0.00  0.00    +0.000 A 
ATOM      9  C   UNL     1      45.399  33.528  46.833  0.00  0.00    +0.000 A 
ATOM     10  N   UNL     1      44.599  34.610  46.719  0.00  0.00    +0.000 NA
ATOM     11  C   UNL     1      44.662  35.022  45.461  0.00  0.00    +0.000 A 
ENDROOT
BRANCH   5  12
ATOM     12  C   UNL     1      48.660  35.306  41.206  0.00  0.00    +0.000 C 
ATOM     13  F   UNL     1      48.661  35.420  39.812  0.00  0.00    +0.000 F 
ATOM     14  F   UNL     1      49.646  34.363  41.491  0.00  0.00    +0.000 F 
ATOM     15  F   UNL     1      49.056  36.486  41.821  0.00  0.00    +0.000 F 
ENDBRANCH   5  12
BRANCH   1  16
ATOM     16  S   UNL     1      44.035  33.469  39.889  0.00  0.00    +0.000 S 
BRANCH  16  21
ATOM     17  N   UNL     1      39.672  32.968  42.163  0.00  0.00    +0.000 N 
ATOM     18  C   UNL     1      40.417  31.838  42.236  0.00  0.00    +0.000 A 
ATOM     19  N   UNL     1      41.583  32.102  41.579  0.00  0.00    +0.000 NA
ATOM     20  C   UNL     1      41.505  33.356  41.140  0.00  0.00    +0.000 A 
ATOM     21  C   UNL     1      42.439  34.072  40.422  0.00  0.00    +0.000 A 
ATOM     22  N   UNL     1      42.204  35.346  40.052  0.00  0.00    +0.000 NA
ATOM     23  C   UNL     1      41.002  35.876  40.424  0.00  0.00    +0.000 A 
ATOM     24  N   UNL     1      40.085  35.190  41.124  0.00  0.00    +0.000 NA
ATOM     25  C   UNL     1      40.324  33.927  41.488  0.00  0.00    +0.000 A 
ATOM     26  H   UNL     1      38.732  33.076  42.571  0.00  0.00    +0.000 HD
ENDBRANCH  16  21
ENDBRANCH   1  16
TORSDOF 3
