REMARK  Name = 
REMARK  2 active torsions:
REMARK  status: ('A' for Active; 'I' for Inactive)
REMARK    1  A    between atoms: C_1  and  C_22
REMARK    2  A    between atoms: C_18  and  C_26
REMARK                            x       y       z     vdW  Elec       q    Type
REMARK                         _______ _______ _______ _____ _____    ______ ____
ROOT
ATOM      1  C   UNL     1      46.145  33.388  38.758  0.00  0.00    +0.000 A 
ATOM      2  C   UNL     1      46.823  33.172  37.571  0.00  0.00    +0.000 A 
ATOM      3  C   UNL     1      46.170  32.600  36.499  0.00  0.00    +0.000 A 
ATOM      4  C   UNL     1      44.840  32.283  36.719  0.00  0.00    +0.000 A 
ATOM      5  C   UNL     1      44.139  32.482  37.879  0.00  0.00    +0.000 A 
ATOM      6  N   UNL     1      44.839  33.055  38.912  0.00  0.00    +0.000 NA
ATOM      7  N   UNL     1      42.768  32.120  38.006  0.00  0.00    +0.000 N 
ATOM      8  C   UNL     1      42.357  30.878  37.625  0.00  0.00    +0.000 A 
ATOM      9  N   UNL     1      41.045  30.722  37.817  0.00  0.00    +0.000 NA
ATOM     10  C   UNL     1      40.581  31.874  38.332  0.00  0.00    +0.000 A 
ATOM     11  C   UNL     1      39.382  32.372  38.745  0.00  0.00    +0.000 A 
ATOM     12  O   UNL     1      38.361  31.632  38.666  0.00  0.00    +0.000 OA
ATOM     13  N   UNL     1      39.305  33.622  39.223  0.00  0.00    +0.000 N 
ATOM     14  C   UNL     1      40.372  34.460  39.329  0.00  0.00    +0.000 A 
ATOM     15  N   UNL     1      40.079  35.749  39.862  0.00  0.00    +0.000 N 
ATOM     16  N   UNL     1      41.579  33.978  38.920  0.00  0.00    +0.000 NA
ATOM     17  C   UNL     1      41.654  32.729  38.444  0.00  0.00    +0.000 A 
ATOM     18  H   UNL     1      38.384  33.968  39.528  0.00  0.00    +0.000 HD
ATOM     19  H   UNL     1      40.832  36.443  39.975  0.00  0.00    +0.000 HD
ATOM     20  H   UNL     1      39.114  35.987  40.134  0.00  0.00    +0.000 HD
ENDROOT
BRANCH   1  25
ATOM     21  C   UNL     1      46.857  34.688  42.129  0.00  0.00    +0.000 A 
ATOM     22  C   UNL     1      48.155  35.126  42.088  0.00  0.00    +0.000 A 
ATOM     23  C   UNL     1      48.777  34.966  40.883  0.00  0.00    +0.000 A 
ATOM     24  C   UNL     1      48.141  34.398  39.765  0.00  0.00    +0.000 A 
ATOM     25  C   UNL     1      46.832  33.981  39.885  0.00  0.00    +0.000 A 
ATOM     26  N   UNL     1      46.228  34.142  41.074  0.00  0.00    +0.000 NA
BRANCH  21  29
ATOM     27  C   UNL     1      44.491  35.921  44.729  0.00  0.00    +0.000 A 
ATOM     28  C   UNL     1      45.208  35.838  43.522  0.00  0.00    +0.000 A 
ATOM     29  C   UNL     1      46.097  34.807  43.364  0.00  0.00    +0.000 A 
ATOM     30  N   UNL     1      46.239  33.908  44.396  0.00  0.00    +0.000 NA
ATOM     31  C   UNL     1      45.534  34.017  45.544  0.00  0.00    +0.000 A 
ATOM     32  N   UNL     1      44.666  35.018  45.709  0.00  0.00    +0.000 NA
ENDBRANCH  21  29
ENDBRANCH   1  25
TORSDOF 2
