REMARK  Name = 
REMARK  2 active torsions:
REMARK  status: ('A' for Active; 'I' for Inactive)
REMARK    1  A    between atoms: C_3  and  C_7
REMARK    2  A    between atoms: C_5  and  C_17
REMARK                            x       y       z     vdW  Elec       q    Type
REMARK                         _______ _______ _______ _____ _____    ______ ____
ROOT
ATOM      1  C   UNL     1      44.429  35.979  44.873  0.00  0.00    +0.000 A 
ATOM      2  C   UNL     1      45.082  35.977  43.647  0.00  0.00    +0.000 A 
ATOM      3  C   UNL     1      45.994  34.991  43.271  0.00  0.00    +0.000 A 
ATOM      4  N   UNL     1      46.174  34.038  44.232  0.00  0.00    +0.000 NA
ATOM      5  C   UNL     1      45.549  34.029  45.421  0.00  0.00    +0.000 A 
ATOM      6  N   UNL     1      44.694  34.994  45.716  0.00  0.00    +0.000 NA
ENDROOT
BRANCH   3   7
ATOM      7  C   UNL     1      46.741  34.835  42.061  0.00  0.00    +0.000 A 
ATOM      8  C   UNL     1      47.991  35.427  41.989  0.00  0.00    +0.000 A 
ATOM      9  C   UNL     1      48.821  35.356  40.892  0.00  0.00    +0.000 A 
ATOM     10  C   UNL     1      48.405  34.658  39.783  0.00  0.00    +0.000 A 
ATOM     11  C   UNL     1      47.176  34.047  39.786  0.00  0.00    +0.000 A 
ATOM     12  C   UNL     1      46.744  33.347  38.678  0.00  0.00    +0.000 A 
ATOM     13  C   UNL     1      45.513  32.722  38.638  0.00  0.00    +0.000 A 
ATOM     14  C   UNL     1      44.742  32.844  39.786  0.00  0.00    +0.000 A 
ATOM     15  C   UNL     1      45.190  33.536  40.859  0.00  0.00    +0.000 A 
ATOM     16  C   UNL     1      46.415  34.164  40.911  0.00  0.00    +0.000 A 
ENDBRANCH   3   7
BRANCH   5  17
ATOM     17  C   UNL     1      45.834  32.948  46.360  0.00  0.00    +0.000 A 
ATOM     18  C   UNL     1      45.389  32.845  47.661  0.00  0.00    +0.000 A 
ATOM     19  N   UNL     1      45.874  31.692  48.193  0.00  0.00    +0.000 N 
ATOM     20  C   UNL     1      46.617  31.074  47.249  0.00  0.00    +0.000 A 
ATOM     21  C   UNL     1      47.303  29.879  47.332  0.00  0.00    +0.000 A 
ATOM     22  C   UNL     1      47.973  29.528  46.159  0.00  0.00    +0.000 A 
ATOM     23  C   UNL     1      47.994  30.253  44.984  0.00  0.00    +0.000 A 
ATOM     24  C   UNL     1      47.286  31.436  44.974  0.00  0.00    +0.000 A 
ATOM     25  C   UNL     1      46.607  31.835  46.098  0.00  0.00    +0.000 A 
ATOM     26  H   UNL     1      45.705  31.349  49.149  0.00  0.00    +0.000 HD
ENDBRANCH   5  17
TORSDOF 2
