REMARK  Name = 
REMARK  3 active torsions:
REMARK  status: ('A' for Active; 'I' for Inactive)
REMARK    1  A    between atoms: C_1  and  S_19
REMARK    2  A    between atoms: C_5  and  C_15
REMARK    3  A    between atoms: S_19  and  C_24
REMARK                            x       y       z     vdW  Elec       q    Type
REMARK                         _______ _______ _______ _____ _____    ______ ____
ROOT
ATOM      1  C   UNL     1      45.307  33.831  41.175  0.00  0.00    +0.000 A 
ATOM      2  C   UNL     1      45.010  33.466  42.496  0.00  0.00    +0.000 A 
ATOM      3  C   UNL     1      45.986  33.757  43.460  0.00  0.00    +0.000 A 
ATOM      4  N   UNL     1      47.126  34.365  43.030  0.00  0.00    +0.000 NA
ATOM      5  C   UNL     1      47.380  34.701  41.763  0.00  0.00    +0.000 A 
ATOM      6  N   UNL     1      46.462  34.429  40.845  0.00  0.00    +0.000 NA
ATOM      7  N   UNL     1      45.830  33.452  44.814  0.00  0.00    +0.000 N 
ATOM      8  C   UNL     1      46.381  32.281  45.234  0.00  0.00    +0.000 A 
ATOM      9  C   UNL     1      46.284  31.885  46.553  0.00  0.00    +0.000 A 
ATOM     10  C   UNL     1      45.615  32.703  47.441  0.00  0.00    +0.000 A 
ATOM     11  O   UNL     1      45.472  32.424  48.679  0.00  0.00    +0.000 OA
ATOM     12  N   UNL     1      45.062  33.875  47.031  0.00  0.00    +0.000 N 
ATOM     13  C   UNL     1      45.195  34.194  45.739  0.00  0.00    +0.000 A 
ATOM     14  O   UNL     1      44.688  35.276  45.348  0.00  0.00    +0.000 OA
ATOM     15  H   UNL     1      44.562  34.491  47.687  0.00  0.00    +0.000 HD
ENDROOT
BRANCH   5  16
ATOM     16  C   UNL     1      48.641  35.360  41.369  0.00  0.00    +0.000 C 
ATOM     17  F   UNL     1      48.666  35.523  39.988  0.00  0.00    +0.000 F 
ATOM     18  F   UNL     1      49.713  34.547  41.699  0.00  0.00    +0.000 F 
ATOM     19  F   UNL     1      48.858  36.561  42.029  0.00  0.00    +0.000 F 
ENDBRANCH   5  16
BRANCH   1  20
ATOM     20  S   UNL     1      44.077  33.476  39.883  0.00  0.00    +0.000 S 
BRANCH  20  25
ATOM     21  N   UNL     1      39.767  32.874  42.224  0.00  0.00    +0.000 N 
ATOM     22  C   UNL     1      40.504  31.738  42.212  0.00  0.00    +0.000 A 
ATOM     23  N   UNL     1      41.653  32.032  41.546  0.00  0.00    +0.000 NA
ATOM     24  C   UNL     1      41.583  33.310  41.180  0.00  0.00    +0.000 A 
ATOM     25  C   UNL     1      42.502  34.060  40.486  0.00  0.00    +0.000 A 
ATOM     26  N   UNL     1      42.261  35.362  40.199  0.00  0.00    +0.000 NA
ATOM     27  C   UNL     1      41.076  35.875  40.629  0.00  0.00    +0.000 A 
ATOM     28  N   UNL     1      40.174  35.147  41.309  0.00  0.00    +0.000 NA
ATOM     29  C   UNL     1      40.420  33.860  41.589  0.00  0.00    +0.000 A 
ATOM     30  H   UNL     1      38.838  32.968  42.658  0.00  0.00    +0.000 HD
ENDBRANCH  20  25
ENDBRANCH   1  20
TORSDOF 3
