REMARK  Name = 
REMARK  3 active torsions:
REMARK  status: ('A' for Active; 'I' for Inactive)
REMARK    1  A    between atoms: C_1  and  S_22
REMARK    2  A    between atoms: C_5  and  C_18
REMARK    3  A    between atoms: S_22  and  C_27
REMARK                            x       y       z     vdW  Elec       q    Type
REMARK                         _______ _______ _______ _____ _____    ______ ____
ROOT
ATOM      1  C   UNL     1      45.277  33.835  41.169  0.00  0.00    +0.000 A 
ATOM      2  C   UNL     1      44.961  33.618  42.521  0.00  0.00    +0.000 A 
ATOM      3  C   UNL     1      45.935  34.014  43.444  0.00  0.00    +0.000 A 
ATOM      4  N   UNL     1      47.087  34.567  42.994  0.00  0.00    +0.000 NA
ATOM      5  C   UNL     1      47.350  34.759  41.683  0.00  0.00    +0.000 A 
ATOM      6  N   UNL     1      46.442  34.391  40.777  0.00  0.00    +0.000 NA
ATOM      7  N   UNL     1      45.678  33.822  44.830  0.00  0.00    +0.000 N 
ATOM      8  C   UNL     1      44.992  34.662  45.630  0.00  0.00    +0.000 A 
ATOM      9  N   UNL     1      44.947  34.154  46.891  0.00  0.00    +0.000 NA
ATOM     10  C   UNL     1      45.621  32.967  46.881  0.00  0.00    +0.000 A 
ATOM     11  C   UNL     1      45.903  32.020  47.841  0.00  0.00    +0.000 A 
ATOM     12  O   UNL     1      45.483  32.210  49.030  0.00  0.00    +0.000 OA
ATOM     13  N   UNL     1      46.613  30.895  47.562  0.00  0.00    +0.000 N 
ATOM     14  C   UNL     1      47.014  30.780  46.286  0.00  0.00    +0.000 A 
ATOM     15  N   UNL     1      47.765  29.636  45.897  0.00  0.00    +0.000 N 
ATOM     16  N   UNL     1      46.779  31.658  45.294  0.00  0.00    +0.000 NA
ATOM     17  C   UNL     1      46.076  32.771  45.573  0.00  0.00    +0.000 A 
ATOM     18  H   UNL     1      46.827  30.184  48.276  0.00  0.00    +0.000 HD
ATOM     19  H   UNL     1      48.080  29.534  44.922  0.00  0.00    +0.000 HD
ATOM     20  H   UNL     1      47.994  28.910  46.591  0.00  0.00    +0.000 HD
ENDROOT
BRANCH   5  21
ATOM     21  C   UNL     1      48.626  35.367  41.248  0.00  0.00    +0.000 C 
ATOM     22  F   UNL     1      48.625  35.464  39.862  0.00  0.00    +0.000 F 
ATOM     23  F   UNL     1      49.683  34.499  41.550  0.00  0.00    +0.000 F 
ATOM     24  F   UNL     1      48.908  36.564  41.854  0.00  0.00    +0.000 F 
ENDBRANCH   5  21
BRANCH   1  25
ATOM     25  S   UNL     1      44.072  33.350  39.907  0.00  0.00    +0.000 S 
BRANCH  25  30
ATOM     26  N   UNL     1      39.691  32.976  42.164  0.00  0.00    +0.000 N 
ATOM     27  C   UNL     1      40.404  31.829  42.244  0.00  0.00    +0.000 A 
ATOM     28  N   UNL     1      41.573  32.059  41.593  0.00  0.00    +0.000 NA
ATOM     29  C   UNL     1      41.539  33.306  41.148  0.00  0.00    +0.000 A 
ATOM     30  C   UNL     1      42.493  33.997  40.432  0.00  0.00    +0.000 A 
ATOM     31  N   UNL     1      42.276  35.274  40.064  0.00  0.00    +0.000 NA
ATOM     32  C   UNL     1      41.101  35.838  40.423  0.00  0.00    +0.000 A 
ATOM     33  N   UNL     1      40.157  35.176  41.125  0.00  0.00    +0.000 NA
ATOM     34  C   UNL     1      40.369  33.914  41.489  0.00  0.00    +0.000 A 
ATOM     35  H   UNL     1      38.753  33.110  42.568  0.00  0.00    +0.000 HD
ENDBRANCH  25  30
ENDBRANCH   1  25
TORSDOF 3
