REMARK  Name = 
REMARK  2 active torsions:
REMARK  status: ('A' for Active; 'I' for Inactive)
REMARK    1  A    between atoms: C_1  and  C_13
REMARK    2  A    between atoms: C_15  and  C_17
REMARK                            x       y       z     vdW  Elec       q    Type
REMARK                         _______ _______ _______ _____ _____    ______ ____
ROOT
ATOM      1  C   UNL     1      44.415  35.927  44.889  0.00  0.00    +0.000 A 
ATOM      2  C   UNL     1      45.056  35.938  43.652  0.00  0.00    +0.000 A 
ATOM      3  C   UNL     1      46.009  34.989  43.291  0.00  0.00    +0.000 A 
ATOM      4  N   UNL     1      46.239  34.064  44.270  0.00  0.00    +0.000 NA
ATOM      5  C   UNL     1      45.633  34.039  45.453  0.00  0.00    +0.000 A 
ATOM      6  N   UNL     1      44.731  34.965  45.753  0.00  0.00    +0.000 NA
ENDROOT
BRANCH   3   7
ATOM      7  C   UNL     1      46.754  34.832  42.078  0.00  0.00    +0.000 A 
ATOM      8  C   UNL     1      47.999  35.430  42.001  0.00  0.00    +0.000 A 
ATOM      9  C   UNL     1      48.826  35.363  40.900  0.00  0.00    +0.000 A 
ATOM     10  C   UNL     1      48.409  34.662  39.796  0.00  0.00    +0.000 A 
ATOM     11  C   UNL     1      47.181  34.041  39.804  0.00  0.00    +0.000 A 
ATOM     12  C   UNL     1      46.755  33.334  38.698  0.00  0.00    +0.000 A 
ATOM     13  C   UNL     1      45.529  32.698  38.666  0.00  0.00    +0.000 A 
ATOM     14  C   UNL     1      44.761  32.819  39.813  0.00  0.00    +0.000 A 
ATOM     15  C   UNL     1      45.208  33.518  40.880  0.00  0.00    +0.000 A 
ATOM     16  C   UNL     1      46.414  34.153  40.932  0.00  0.00    +0.000 A 
ENDBRANCH   3   7
BRANCH   5  17
ATOM     17  C   UNL     1      45.971  32.989  46.413  0.00  0.00    +0.000 A 
ATOM     18  C   UNL     1      46.966  32.080  46.166  0.00  0.00    +0.000 A 
ATOM     19  C   UNL     1      47.237  31.112  47.115  0.00  0.00    +0.000 A 
ATOM     20  C   UNL     1      46.500  31.084  48.285  0.00  0.00    +0.000 A 
ATOM     21  C   UNL     1      45.485  32.000  48.556  0.00  0.00    +0.000 A 
ATOM     22  C   UNL     1      45.239  32.948  47.597  0.00  0.00    +0.000 A 
ENDBRANCH   5  17
TORSDOF 2
