REMARK  Name = 
REMARK  2 active torsions:
REMARK  status: ('A' for Active; 'I' for Inactive)
REMARK    1  A    between atoms: C_3  and  N_7
REMARK    2  A    between atoms: C_5  and  C_16
REMARK                            x       y       z     vdW  Elec       q    Type
REMARK                         _______ _______ _______ _____ _____    ______ ____
ROOT
ATOM      1  C   UNL     1      44.480  36.061  44.495  0.00  0.00    +0.000 A 
ATOM      2  C   UNL     1      45.269  35.999  43.314  0.00  0.00    +0.000 A 
ATOM      3  C   UNL     1      46.166  34.957  43.235  0.00  0.00    +0.000 A 
ATOM      4  N   UNL     1      46.208  34.105  44.278  0.00  0.00    +0.000 NA
ATOM      5  C   UNL     1      45.479  34.152  45.383  0.00  0.00    +0.000 A 
ATOM      6  N   UNL     1      44.606  35.152  45.476  0.00  0.00    +0.000 NA
ENDROOT
BRANCH   5   7
ATOM      7  C   UNL     1      45.805  33.059  46.285  0.00  0.00    +0.000 A 
ATOM      8  C   UNL     1      45.352  32.992  47.582  0.00  0.00    +0.000 A 
ATOM      9  C   UNL     1      45.635  31.984  48.460  0.00  0.00    +0.000 A 
ATOM     10  C   UNL     1      46.426  30.934  48.074  0.00  0.00    +0.000 A 
ATOM     11  C   UNL     1      46.913  30.937  46.788  0.00  0.00    +0.000 A 
ATOM     12  C   UNL     1      47.706  29.874  46.417  0.00  0.00    +0.000 A 
ATOM     13  C   UNL     1      48.229  29.809  45.149  0.00  0.00    +0.000 A 
ATOM     14  C   UNL     1      47.918  30.859  44.277  0.00  0.00    +0.000 A 
ATOM     15  C   UNL     1      47.130  31.884  44.697  0.00  0.00    +0.000 A 
ATOM     16  C   UNL     1      46.591  31.981  45.955  0.00  0.00    +0.000 A 
ENDBRANCH   5   7
BRANCH   3  17
ATOM     17  N   UNL     1      46.980  34.852  42.069  0.00  0.00    +0.000 N 
ATOM     18  C   UNL     1      48.211  35.371  41.921  0.00  0.00    +0.000 A 
ATOM     19  N   UNL     1      48.698  35.085  40.686  0.00  0.00    +0.000 NA
ATOM     20  C   UNL     1      47.739  34.374  40.067  0.00  0.00    +0.000 A 
ATOM     21  C   UNL     1      47.702  33.826  38.793  0.00  0.00    +0.000 A 
ATOM     22  N   UNL     1      46.583  33.149  38.435  0.00  0.00    +0.000 NA
ATOM     23  C   UNL     1      45.546  33.013  39.287  0.00  0.00    +0.000 A 
ATOM     24  N   UNL     1      45.544  33.534  40.537  0.00  0.00    +0.000 NA
ATOM     25  C   UNL     1      46.658  34.222  40.926  0.00  0.00    +0.000 A 
ENDBRANCH   3  17
TORSDOF 2
