REMARK  Name = 
REMARK  4 active torsions:
REMARK  status: ('A' for Active; 'I' for Inactive)
REMARK    1  A    between atoms: C_1  and  S_20
REMARK    2  A    between atoms: C_5  and  C_16
REMARK    3  A    between atoms: C_9  and  C_10
REMARK    4  A    between atoms: S_20  and  C_25
REMARK                            x       y       z     vdW  Elec       q    Type
REMARK                         _______ _______ _______ _____ _____    ______ ____
ROOT
ATOM      1  C   UNL     1      45.433  33.798  41.184  0.00  0.00    +0.000 A 
ATOM      2  C   UNL     1      45.204  33.326  42.481  0.00  0.00    +0.000 A 
ATOM      3  C   UNL     1      46.211  33.607  43.431  0.00  0.00    +0.000 A 
ATOM      4  N   UNL     1      47.307  34.304  43.008  0.00  0.00    +0.000 NA
ATOM      5  C   UNL     1      47.487  34.736  41.761  0.00  0.00    +0.000 A 
ATOM      6  N   UNL     1      46.540  34.479  40.846  0.00  0.00    +0.000 NA
ATOM      7  N   UNL     1      46.111  33.187  44.789  0.00  0.00    +0.000 N 
ATOM      8  C   UNL     1      46.659  32.089  45.371  0.00  0.00    +0.000 A 
ATOM      9  C   UNL     1      46.427  31.877  46.723  0.00  0.00    +0.000 A 
ATOM     10  C   UNL     1      47.058  30.653  47.297  0.00  0.00    +0.000 C 
ATOM     11  C   UNL     1      45.669  32.736  47.478  0.00  0.00    +0.000 A 
ATOM     12  O   UNL     1      45.481  32.508  48.707  0.00  0.00    +0.000 OA
ATOM     13  N   UNL     1      45.145  33.812  46.858  0.00  0.00    +0.000 N 
ATOM     14  C   UNL     1      45.361  34.036  45.538  0.00  0.00    +0.000 A 
ATOM     15  O   UNL     1      44.807  35.088  45.089  0.00  0.00    +0.000 OA
ATOM     16  H   UNL     1      44.570  34.476  47.396  0.00  0.00    +0.000 HD
ENDROOT
BRANCH   5  17
ATOM     17  C   UNL     1      48.698  35.485  41.373  0.00  0.00    +0.000 C 
ATOM     18  F   UNL     1      48.737  35.603  39.982  0.00  0.00    +0.000 F 
ATOM     19  F   UNL     1      49.831  34.731  41.711  0.00  0.00    +0.000 F 
ATOM     20  F   UNL     1      48.825  36.699  42.009  0.00  0.00    +0.000 F 
ENDBRANCH   5  17
BRANCH   1  21
ATOM     21  S   UNL     1      44.175  33.466  39.929  0.00  0.00    +0.000 S 
BRANCH  21  26
ATOM     22  N   UNL     1      39.854  32.870  42.226  0.00  0.00    +0.000 N 
ATOM     23  C   UNL     1      40.553  31.717  42.148  0.00  0.00    +0.000 A 
ATOM     24  N   UNL     1      41.716  32.008  41.499  0.00  0.00    +0.000 NA
ATOM     25  C   UNL     1      41.680  33.304  41.213  0.00  0.00    +0.000 A 
ATOM     26  C   UNL     1      42.616  34.069  40.566  0.00  0.00    +0.000 A 
ATOM     27  N   UNL     1      42.416  35.391  40.356  0.00  0.00    +0.000 NA
ATOM     28  C   UNL     1      41.259  35.918  40.810  0.00  0.00    +0.000 A 
ATOM     29  N   UNL     1      40.330  35.178  41.448  0.00  0.00    +0.000 NA
ATOM     30  C   UNL     1      40.528  33.866  41.656  0.00  0.00    +0.000 A 
ATOM     31  H   UNL     1      38.928  32.965  42.666  0.00  0.00    +0.000 HD
ENDBRANCH  21  26
ENDBRANCH   1  21
TORSDOF 3
