REMARK  Name = 
REMARK  4 active torsions:
REMARK  status: ('A' for Active; 'I' for Inactive)
REMARK    1  A    between atoms: C_1  and  C_9
REMARK    2  A    between atoms: C_6  and  C_13
REMARK    3  A    between atoms: C_13  and  O_15
REMARK    4  A    between atoms: O_15  and  C_16
REMARK                            x       y       z     vdW  Elec       q    Type
REMARK                         _______ _______ _______ _____ _____    ______ ____
ROOT
ATOM      1  C   UNL     1      44.731  33.574  40.968  0.00  0.00    +0.000 C 
ATOM      2  O   UNL     1      44.383  32.891  41.957  0.00  0.00    +0.000 OA
ENDROOT
BRANCH   1   8
ATOM      3  C   UNL     1      46.611  34.743  41.952  0.00  0.00    +0.000 A 
ATOM      4  C   UNL     1      47.886  35.229  41.852  0.00  0.00    +0.000 A 
ATOM      5  C   UNL     1      48.656  35.089  40.702  0.00  0.00    +0.000 A 
ATOM      6  C   UNL     1      48.096  34.419  39.604  0.00  0.00    +0.000 A 
ATOM      7  C   UNL     1      46.804  33.920  39.692  0.00  0.00    +0.000 A 
ATOM      8  C   UNL     1      46.088  34.091  40.862  0.00  0.00    +0.000 A 
BRANCH   3  11
ATOM      9  C   UNL     1      44.433  36.126  44.680  0.00  0.00    +0.000 A 
ATOM     10  C   UNL     1      45.067  36.029  43.445  0.00  0.00    +0.000 A 
ATOM     11  C   UNL     1      45.901  34.947  43.201  0.00  0.00    +0.000 A 
ATOM     12  N   UNL     1      46.059  34.034  44.185  0.00  0.00    +0.000 NA
ATOM     13  C   UNL     1      45.426  34.154  45.384  0.00  0.00    +0.000 A 
ATOM     14  N   UNL     1      44.626  35.190  45.621  0.00  0.00    +0.000 NA
ENDBRANCH   3  11
ENDBRANCH   1   8
BRANCH   1  15
ATOM     15  O   UNL     1      43.741  33.785  40.019  0.00  0.00    +0.000 OA
BRANCH  15  16
ATOM     16  C   UNL     1      42.572  34.480  40.299  0.00  0.00    +0.000 A 
ATOM     17  C   UNL     1      42.466  35.499  41.244  0.00  0.00    +0.000 A 
ATOM     18  C   UNL     1      41.274  36.152  41.476  0.00  0.00    +0.000 A 
ATOM     19  C   UNL     1      40.166  35.773  40.743  0.00  0.00    +0.000 A 
ATOM     20  C   UNL     1      40.207  34.772  39.795  0.00  0.00    +0.000 A 
ATOM     21  C   UNL     1      39.105  34.386  39.059  0.00  0.00    +0.000 A 
ATOM     22  C   UNL     1      39.152  33.384  38.111  0.00  0.00    +0.000 A 
ATOM     23  C   UNL     1      40.367  32.734  37.890  0.00  0.00    +0.000 A 
ATOM     24  C   UNL     1      41.453  33.129  38.629  0.00  0.00    +0.000 A 
ATOM     25  C   UNL     1      41.425  34.134  39.586  0.00  0.00    +0.000 A 
ENDBRANCH  15  16
ENDBRANCH   1  15
TORSDOF 4
