REMARK  Name = 
REMARK  3 active torsions:
REMARK  status: ('A' for Active; 'I' for Inactive)
REMARK    1  A    between atoms: C_3  and  C_7
REMARK    2  A    between atoms: C_5  and  C_16
REMARK    3  A    between atoms: C_8  and  C_12
REMARK                            x       y       z     vdW  Elec       q    Type
REMARK                         _______ _______ _______ _____ _____    ______ ____
ROOT
ATOM      1  C   UNL     1      44.596  35.809  44.671  0.00  0.00    +0.000 A 
ATOM      2  C   UNL     1      45.337  35.664  43.486  0.00  0.00    +0.000 A 
ATOM      3  C   UNL     1      46.213  34.583  43.408  0.00  0.00    +0.000 A 
ATOM      4  N   UNL     1      46.254  33.794  44.483  0.00  0.00    +0.000 NA
ATOM      5  C   UNL     1      45.563  33.910  45.618  0.00  0.00    +0.000 A 
ATOM      6  N   UNL     1      44.719  34.955  45.685  0.00  0.00    +0.000 NA
ENDROOT
BRANCH   5   7
ATOM      7  C   UNL     1      45.858  32.863  46.587  0.00  0.00    +0.000 A 
ATOM      8  C   UNL     1      45.372  32.926  47.874  0.00  0.00    +0.000 A 
ATOM      9  C   UNL     1      45.620  31.967  48.827  0.00  0.00    +0.000 A 
ATOM     10  C   UNL     1      46.387  30.865  48.539  0.00  0.00    +0.000 A 
ATOM     11  C   UNL     1      46.897  30.754  47.264  0.00  0.00    +0.000 A 
ATOM     12  C   UNL     1      47.668  29.652  46.963  0.00  0.00    +0.000 A 
ATOM     13  C   UNL     1      48.210  29.479  45.706  0.00  0.00    +0.000 A 
ATOM     14  C   UNL     1      47.931  30.480  44.770  0.00  0.00    +0.000 A 
ATOM     15  C   UNL     1      47.157  31.565  45.112  0.00  0.00    +0.000 A 
ATOM     16  C   UNL     1      46.616  31.743  46.354  0.00  0.00    +0.000 A 
ENDBRANCH   5   7
BRANCH   3  17
ATOM     17  C   UNL     1      47.053  34.313  42.229  0.00  0.00    +0.000 C 
ATOM     18  C   UNL     1      46.361  34.304  40.933  0.00  0.00    +0.000 C 
ATOM     19  C   UNL     1      47.544  34.212  39.981  0.00  0.00    +0.000 C 
ATOM     20  C   UNL     1      48.519  35.204  40.602  0.00  0.00    +0.000 C 
ATOM     21  C   UNL     1      48.139  35.363  42.041  0.00  0.00    +0.000 C 
BRANCH  18  22
ATOM     22  C   UNL     1      45.560  33.003  40.881  0.00  0.00    +0.000 C 
ATOM     23  F   UNL     1      46.126  32.030  41.650  0.00  0.00    +0.000 F 
ATOM     24  F   UNL     1      45.466  32.661  39.549  0.00  0.00    +0.000 F 
ATOM     25  F   UNL     1      44.268  33.237  41.345  0.00  0.00    +0.000 F 
ENDBRANCH  18  22
ENDBRANCH   3  17
TORSDOF 3
