REMARK  Name = 
REMARK  1 active torsions:
REMARK  status: ('A' for Active; 'I' for Inactive)
REMARK    1  A    between atoms: C_1  and  C_13
REMARK                            x       y       z     vdW  Elec       q    Type
REMARK                         _______ _______ _______ _____ _____    ______ ____
ROOT
ATOM      1  C   UNL     1      44.391  36.109  44.788  0.00  0.00    +0.000 A 
ATOM      2  C   UNL     1      45.016  36.051  43.546  0.00  0.00    +0.000 A 
ATOM      3  C   UNL     1      45.914  35.055  43.208  0.00  0.00    +0.000 A 
ATOM      4  N   UNL     1      46.116  34.150  44.213  0.00  0.00    +0.000 NA
ATOM      5  C   UNL     1      45.529  34.189  45.405  0.00  0.00    +0.000 A 
ATOM      6  N   UNL     1      44.674  35.169  45.676  0.00  0.00    +0.000 NA
ATOM      7  N   UNL     1      45.828  33.180  46.368  0.00  0.00    +0.000 N 
ATOM      8  N   UNL     1      45.237  32.855  47.510  0.00  0.00    +0.000 NA
ATOM      9  C   UNL     1      45.899  31.825  48.063  0.00  0.00    +0.000 A 
ATOM     10  C   UNL     1      46.959  31.490  47.220  0.00  0.00    +0.000 A 
ATOM     11  C   UNL     1      46.885  32.376  46.148  0.00  0.00    +0.000 A 
ENDROOT
BRANCH   3  12
ATOM     12  C   UNL     1      46.637  34.814  41.988  0.00  0.00    +0.000 A 
ATOM     13  C   UNL     1      47.920  35.329  41.889  0.00  0.00    +0.000 A 
ATOM     14  C   UNL     1      48.730  35.172  40.787  0.00  0.00    +0.000 A 
ATOM     15  C   UNL     1      48.260  34.466  39.705  0.00  0.00    +0.000 A 
ATOM     16  C   UNL     1      46.995  33.927  39.736  0.00  0.00    +0.000 A 
ATOM     17  C   UNL     1      46.520  33.223  38.656  0.00  0.00    +0.000 A 
ATOM     18  C   UNL     1      45.254  32.671  38.645  0.00  0.00    +0.000 A 
ATOM     19  C   UNL     1      44.502  32.873  39.789  0.00  0.00    +0.000 A 
ATOM     20  C   UNL     1      45.000  33.575  40.841  0.00  0.00    +0.000 A 
ATOM     21  C   UNL     1      46.251  34.126  40.865  0.00  0.00    +0.000 A 
ENDBRANCH   3  12
TORSDOF 1
