REMARK  Name = 
REMARK  2 active torsions:
REMARK  status: ('A' for Active; 'I' for Inactive)
REMARK    1  A    between atoms: C_3  and  C_7
REMARK    2  A    between atoms: C_5  and  C_17
REMARK                            x       y       z     vdW  Elec       q    Type
REMARK                         _______ _______ _______ _____ _____    ______ ____
ROOT
ATOM      1  C   UNL     1      44.474  35.767  44.996  0.00  0.00    +0.000 A 
ATOM      2  C   UNL     1      45.100  35.829  43.752  0.00  0.00    +0.000 A 
ATOM      3  C   UNL     1      46.028  34.900  43.351  0.00  0.00    +0.000 A 
ATOM      4  N   UNL     1      46.218  33.986  44.292  0.00  0.00    +0.000 NA
ATOM      5  C   UNL     1      45.690  33.832  45.487  0.00  0.00    +0.000 A 
ATOM      6  N   UNL     1      44.793  34.769  45.819  0.00  0.00    +0.000 NA
ENDROOT
BRANCH   3   7
ATOM      7  C   UNL     1      46.773  34.789  42.143  0.00  0.00    +0.000 A 
ATOM      8  C   UNL     1      48.008  35.433  42.065  0.00  0.00    +0.000 A 
ATOM      9  C   UNL     1      48.830  35.431  40.970  0.00  0.00    +0.000 A 
ATOM     10  C   UNL     1      48.437  34.754  39.852  0.00  0.00    +0.000 A 
ATOM     11  C   UNL     1      47.241  34.094  39.840  0.00  0.00    +0.000 A 
ATOM     12  C   UNL     1      46.828  33.407  38.716  0.00  0.00    +0.000 A 
ATOM     13  C   UNL     1      45.622  32.726  38.665  0.00  0.00    +0.000 A 
ATOM     14  C   UNL     1      44.842  32.778  39.829  0.00  0.00    +0.000 A 
ATOM     15  C   UNL     1      45.274  33.460  40.914  0.00  0.00    +0.000 A 
ATOM     16  C   UNL     1      46.468  34.137  40.971  0.00  0.00    +0.000 A 
ENDBRANCH   3   7
BRANCH   5  17
ATOM     17  C   UNL     1      45.906  32.826  46.507  0.00  0.00    +0.000 A 
ATOM     18  N   UNL     1      45.381  32.940  47.739  0.00  0.00    +0.000 NA
ATOM     19  C   UNL     1      45.539  32.054  48.728  0.00  0.00    +0.000 A 
ATOM     20  N   UNL     1      46.267  30.938  48.547  0.00  0.00    +0.000 NA
ATOM     21  C   UNL     1      46.845  30.724  47.333  0.00  0.00    +0.000 A 
ATOM     22  C   UNL     1      47.590  29.584  47.142  0.00  0.00    +0.000 A 
ATOM     23  C   UNL     1      48.186  29.336  45.931  0.00  0.00    +0.000 A 
ATOM     24  C   UNL     1      47.994  30.286  44.938  0.00  0.00    +0.000 A 
ATOM     25  C   UNL     1      47.242  31.405  45.177  0.00  0.00    +0.000 A 
ATOM     26  C   UNL     1      46.639  31.670  46.376  0.00  0.00    +0.000 A 
ENDBRANCH   5  17
TORSDOF 2
