REMARK  Name = 
REMARK  2 active torsions:
REMARK  status: ('A' for Active; 'I' for Inactive)
REMARK    1  A    between atoms: C_3  and  C_16
REMARK    2  A    between atoms: C_11  and  N_26
REMARK                            x       y       z     vdW  Elec       q    Type
REMARK                         _______ _______ _______ _____ _____    ______ ____
ROOT
ATOM      1  C   UNL     1      44.447  36.134  44.753  0.00  0.00    +0.000 A 
ATOM      2  C   UNL     1      45.077  36.076  43.511  0.00  0.00    +0.000 A 
ATOM      3  C   UNL     1      45.927  35.053  43.148  0.00  0.00    +0.000 A 
ATOM      4  N   UNL     1      46.087  34.109  44.123  0.00  0.00    +0.000 NA
ATOM      5  C   UNL     1      45.490  34.148  45.323  0.00  0.00    +0.000 A 
ATOM      6  N   UNL     1      44.678  35.160  45.621  0.00  0.00    +0.000 NA
ATOM      7  N   UNL     1      45.744  33.093  46.250  0.00  0.00    +0.000 N 
ATOM      8  C   UNL     1      45.239  33.008  47.513  0.00  0.00    +0.000 A 
ATOM      9  N   UNL     1      45.704  31.874  48.081  0.00  0.00    +0.000 NA
ATOM     10  C   UNL     1      46.493  31.264  47.173  0.00  0.00    +0.000 A 
ATOM     11  C   UNL     1      47.219  30.102  47.196  0.00  0.00    +0.000 A 
ATOM     12  N   UNL     1      47.944  29.713  46.116  0.00  0.00    +0.000 NA
ATOM     13  C   UNL     1      47.973  30.457  44.989  0.00  0.00    +0.000 A 
ATOM     14  N   UNL     1      47.261  31.597  44.968  0.00  0.00    +0.000 NA
ATOM     15  C   UNL     1      46.530  32.022  46.009  0.00  0.00    +0.000 A 
ENDROOT
BRANCH   3  16
ATOM     16  C   UNL     1      46.653  34.825  41.928  0.00  0.00    +0.000 A 
ATOM     17  C   UNL     1      47.927  35.361  41.829  0.00  0.00    +0.000 A 
ATOM     18  C   UNL     1      48.742  35.219  40.725  0.00  0.00    +0.000 A 
ATOM     19  C   UNL     1      48.281  34.508  39.653  0.00  0.00    +0.000 A 
ATOM     20  C   UNL     1      47.034  33.948  39.674  0.00  0.00    +0.000 A 
ATOM     21  C   UNL     1      46.553  33.234  38.598  0.00  0.00    +0.000 A 
ATOM     22  C   UNL     1      45.297  32.662  38.586  0.00  0.00    +0.000 A 
ATOM     23  C   UNL     1      44.543  32.854  39.736  0.00  0.00    +0.000 A 
ATOM     24  C   UNL     1      45.034  33.561  40.786  0.00  0.00    +0.000 A 
ATOM     25  C   UNL     1      46.274  34.129  40.804  0.00  0.00    +0.000 A 
ENDBRANCH   3  16
BRANCH  11  26
ATOM     26  N   UNL     1      47.240  29.259  48.348  0.00  0.00    +0.000 N 
ATOM     27  H   UNL     1      47.794  28.390  48.341  0.00  0.00    +0.000 HD
ATOM     28  H   UNL     1      46.702  29.519  49.187  0.00  0.00    +0.000 HD
ENDBRANCH  11  26
TORSDOF 2
