REMARK  Name = 
REMARK  1 active torsions:
REMARK  status: ('A' for Active; 'I' for Inactive)
REMARK    1  A    between atoms: C_1  and  C_13
REMARK                            x       y       z     vdW  Elec       q    Type
REMARK                         _______ _______ _______ _____ _____    ______ ____
ROOT
ATOM      1  C   UNL     1      44.407  35.925  44.934  0.00  0.00    +0.000 A 
ATOM      2  C   UNL     1      45.007  35.899  43.677  0.00  0.00    +0.000 A 
ATOM      3  C   UNL     1      45.927  34.947  43.307  0.00  0.00    +0.000 A 
ATOM      4  N   UNL     1      46.189  34.037  44.292  0.00  0.00    +0.000 NA
ATOM      5  C   UNL     1      45.624  34.041  45.504  0.00  0.00    +0.000 A 
ATOM      6  N   UNL     1      44.741  34.987  45.805  0.00  0.00    +0.000 NA
ATOM      7  N   UNL     1      45.969  33.045  46.455  0.00  0.00    +0.000 N 
ATOM      8  C   UNL     1      45.164  32.828  47.630  0.00  0.00    +0.000 C 
ATOM      9  C   UNL     1      45.248  31.338  47.955  0.00  0.00    +0.000 C 
ATOM     10  O   UNL     1      45.353  30.661  46.738  0.00  0.00    +0.000 OA
ATOM     11  C   UNL     1      46.617  30.785  46.174  0.00  0.00    +0.000 C 
ATOM     12  C   UNL     1      47.142  32.208  46.282  0.00  0.00    +0.000 C 
ENDROOT
BRANCH   3  13
ATOM     13  C   UNL     1      46.639  34.758  42.070  0.00  0.00    +0.000 A 
ATOM     14  C   UNL     1      47.913  35.290  41.966  0.00  0.00    +0.000 A 
ATOM     15  C   UNL     1      48.712  35.180  40.852  0.00  0.00    +0.000 A 
ATOM     16  C   UNL     1      48.235  34.501  39.766  0.00  0.00    +0.000 A 
ATOM     17  C   UNL     1      46.975  33.940  39.791  0.00  0.00    +0.000 A 
ATOM     18  C   UNL     1      46.491  33.263  38.692  0.00  0.00    +0.000 A 
ATOM     19  C   UNL     1      45.231  32.700  38.684  0.00  0.00    +0.000 A 
ATOM     20  C   UNL     1      44.492  32.861  39.847  0.00  0.00    +0.000 A 
ATOM     21  C   UNL     1      45.000  33.532  40.908  0.00  0.00    +0.000 A 
ATOM     22  C   UNL     1      46.247  34.096  40.930  0.00  0.00    +0.000 A 
ENDBRANCH   3  13
TORSDOF 1
