REMARK  Name = 
REMARK  1 active torsions:
REMARK  status: ('A' for Active; 'I' for Inactive)
REMARK    1  A    between atoms: C_1  and  C_13
REMARK                            x       y       z     vdW  Elec       q    Type
REMARK                         _______ _______ _______ _____ _____    ______ ____
ROOT
ATOM      1  C   UNL     1      44.532  36.003  44.706  0.00  0.00    +0.000 A 
ATOM      2  C   UNL     1      45.214  36.038  43.500  0.00  0.00    +0.000 A 
ATOM      3  C   UNL     1      46.036  34.998  43.070  0.00  0.00    +0.000 A 
ATOM      4  N   UNL     1      46.086  33.966  43.963  0.00  0.00    +0.000 NA
ATOM      5  C   UNL     1      45.437  33.915  45.128  0.00  0.00    +0.000 A 
ATOM      6  N   UNL     1      44.672  34.931  45.481  0.00  0.00    +0.000 NA
ATOM      7  N   UNL     1      45.641  32.735  45.914  0.00  0.00    +0.000 N 
ATOM      8  C   UNL     1      45.554  32.843  47.326  0.00  0.00    +0.000 C 
ATOM      9  N   UNL     1      44.651  33.565  47.883  0.00  0.00    +0.000 NA
ATOM     10  N   UNL     1      46.482  32.134  48.178  0.00  0.00    +0.000 N 
ATOM     11  H   UNL     1      43.959  34.090  47.322  0.00  0.00    +0.000 HD
ATOM     12  H   UNL     1      45.846  31.831  45.465  0.00  0.00    +0.000 HD
ATOM     13  H   UNL     1      46.410  32.220  49.202  0.00  0.00    +0.000 HD
ATOM     14  H   UNL     1      47.216  31.543  47.761  0.00  0.00    +0.000 HD
ENDROOT
BRANCH   3  15
ATOM     15  C   UNL     1      46.810  34.850  41.867  0.00  0.00    +0.000 A 
ATOM     16  C   UNL     1      48.052  35.458  41.834  0.00  0.00    +0.000 A 
ATOM     17  C   UNL     1      48.905  35.398  40.755  0.00  0.00    +0.000 A 
ATOM     18  C   UNL     1      48.514  34.700  39.634  0.00  0.00    +0.000 A 
ATOM     19  C   UNL     1      47.293  34.077  39.609  0.00  0.00    +0.000 A 
ATOM     20  C   UNL     1      46.893  33.381  38.487  0.00  0.00    +0.000 A 
ATOM     21  C   UNL     1      45.667  32.747  38.421  0.00  0.00    +0.000 A 
ATOM     22  C   UNL     1      44.869  32.855  39.548  0.00  0.00    +0.000 A 
ATOM     23  C   UNL     1      45.294  33.549  40.638  0.00  0.00    +0.000 A 
ATOM     24  C   UNL     1      46.503  34.180  40.717  0.00  0.00    +0.000 A 
ENDBRANCH   3  15
TORSDOF 1
