REMARK  Name = 
REMARK  2 active torsions:
REMARK  status: ('A' for Active; 'I' for Inactive)
REMARK    1  A    between atoms: C_3  and  C_7
REMARK    2  A    between atoms: C_5  and  C_17
REMARK                            x       y       z     vdW  Elec       q    Type
REMARK                         _______ _______ _______ _____ _____    ______ ____
ROOT
ATOM      1  C   UNL     1      44.397  36.142  44.824  0.00  0.00    +0.000 A 
ATOM      2  C   UNL     1      45.030  36.083  43.588  0.00  0.00    +0.000 A 
ATOM      3  C   UNL     1      45.888  35.070  43.240  0.00  0.00    +0.000 A 
ATOM      4  N   UNL     1      46.024  34.176  44.234  0.00  0.00    +0.000 NA
ATOM      5  C   UNL     1      45.451  34.170  45.440  0.00  0.00    +0.000 A 
ATOM      6  N   UNL     1      44.638  35.179  45.697  0.00  0.00    +0.000 NA
ENDROOT
BRANCH   3   7
ATOM      7  C   UNL     1      46.628  34.829  42.031  0.00  0.00    +0.000 A 
ATOM      8  C   UNL     1      47.918  35.331  41.952  0.00  0.00    +0.000 A 
ATOM      9  C   UNL     1      48.738  35.171  40.858  0.00  0.00    +0.000 A 
ATOM     10  C   UNL     1      48.277  34.482  39.774  0.00  0.00    +0.000 A 
ATOM     11  C   UNL     1      47.005  33.954  39.780  0.00  0.00    +0.000 A 
ATOM     12  C   UNL     1      46.538  33.263  38.685  0.00  0.00    +0.000 A 
ATOM     13  C   UNL     1      45.268  32.725  38.655  0.00  0.00    +0.000 A 
ATOM     14  C   UNL     1      44.496  32.929  39.800  0.00  0.00    +0.000 A 
ATOM     15  C   UNL     1      44.994  33.615  40.855  0.00  0.00    +0.000 A 
ATOM     16  C   UNL     1      46.247  34.151  40.897  0.00  0.00    +0.000 A 
ENDBRANCH   3   7
BRANCH   5  17
ATOM     17  C   UNL     1      45.844  33.019  46.267  0.00  0.00    +0.000 A 
ATOM     18  C   UNL     1      45.415  32.894  47.572  0.00  0.00    +0.000 A 
ATOM     19  C   UNL     1      45.737  31.862  48.392  0.00  0.00    +0.000 A 
ATOM     20  C   UNL     1      46.532  30.853  47.954  0.00  0.00    +0.000 A 
ATOM     21  C   UNL     1      46.992  30.924  46.658  0.00  0.00    +0.000 A 
ATOM     22  C   UNL     1      47.801  29.904  46.200  0.00  0.00    +0.000 A 
ATOM     23  C   UNL     1      48.308  29.904  44.896  0.00  0.00    +0.000 A 
ATOM     24  C   UNL     1      47.941  30.994  44.098  0.00  0.00    +0.000 A 
ATOM     25  C   UNL     1      47.135  31.977  44.602  0.00  0.00    +0.000 A 
ATOM     26  C   UNL     1      46.643  31.985  45.860  0.00  0.00    +0.000 A 
ENDBRANCH   5  17
TORSDOF 2
