REMARK  Name = 
REMARK  4 active torsions:
REMARK  status: ('A' for Active; 'I' for Inactive)
REMARK    1  A    between atoms: N_13  and  C_18
REMARK    2  A    between atoms: C_18  and  C_19
REMARK    3  A    between atoms: C_18  and  C_20
REMARK    4  A    between atoms: C_20  and  N_21
REMARK                            x       y       z     vdW  Elec       q    Type
REMARK                         _______ _______ _______ _____ _____    ______ ____
ROOT
ATOM      1  C   UNL     1      44.773  36.238  43.032  0.00  0.00    +0.000 A 
ATOM      2  C   UNL     1      44.214  36.050  41.736  0.00  0.00    +0.000 A 
ATOM      3  C   UNL     1      44.371  34.805  41.135  0.00  0.00    +0.000 A 
ATOM      4  N   UNL     1      45.045  33.822  41.799  0.00  0.00    +0.000 NA
ATOM      5  C   UNL     1      45.565  34.021  43.021  0.00  0.00    +0.000 A 
ATOM      6  N   UNL     1      45.431  35.227  43.639  0.00  0.00    +0.000 NA
ATOM      7  N   UNL     1      46.245  32.938  43.620  0.00  0.00    +0.000 N 
ATOM      8  C   UNL     1      46.970  32.007  42.926  0.00  0.00    +0.000 A 
ATOM      9  N   UNL     1      47.502  31.104  43.716  0.00  0.00    +0.000 NA
ATOM     10  C   UNL     1      47.139  31.413  45.001  0.00  0.00    +0.000 A 
ATOM     11  C   UNL     1      47.416  30.811  46.180  0.00  0.00    +0.000 A 
ATOM     12  O   UNL     1      48.125  29.783  46.217  0.00  0.00    +0.000 OA
ATOM     13  N   UNL     1      46.917  31.345  47.302  0.00  0.00    +0.000 N 
ATOM     14  C   UNL     1      46.153  32.466  47.209  0.00  0.00    +0.000 A 
ATOM     15  N   UNL     1      45.645  32.996  48.434  0.00  0.00    +0.000 N 
ATOM     16  N   UNL     1      45.853  33.098  46.024  0.00  0.00    +0.000 NA
ATOM     17  C   UNL     1      46.372  32.538  44.896  0.00  0.00    +0.000 A 
ATOM     18  H   UNL     1      45.060  33.844  48.425  0.00  0.00    +0.000 HD
ATOM     19  H   UNL     1      45.864  32.531  49.326  0.00  0.00    +0.000 HD
ENDROOT
BRANCH  13  20
ATOM     20  C   UNL     1      47.173  30.758  48.571  0.00  0.00    +0.000 C 
ATOM     21  C   UNL     1      46.046  31.047  49.529  0.00  0.00    +0.000 C 
BRANCH  20  22
ATOM     22  C   UNL     1      48.518  31.044  49.145  0.00  0.00    +0.000 C 
BRANCH  22  23
ATOM     23  N   UNL     1      49.037  29.861  49.800  0.00  0.00    +0.000 N 
ATOM     24  C   UNL     1      50.032  30.078  50.790  0.00  0.00    +0.000 A 
ATOM     25  N   UNL     1      50.398  29.147  51.673  0.00  0.00    +0.000 NA
ATOM     26  C   UNL     1      51.333  29.314  52.625  0.00  0.00    +0.000 A 
ATOM     27  N   UNL     1      51.991  30.505  52.740  0.00  0.00    +0.000 NA
ATOM     28  C   UNL     1      51.685  31.509  51.885  0.00  0.00    +0.000 A 
ATOM     29  C   UNL     1      52.339  32.710  51.991  0.00  0.00    +0.000 A 
ATOM     30  C   UNL     1      52.053  33.751  51.138  0.00  0.00    +0.000 A 
ATOM     31  C   UNL     1      51.077  33.553  50.158  0.00  0.00    +0.000 A 
ATOM     32  C   UNL     1      50.456  32.325  50.102  0.00  0.00    +0.000 A 
ATOM     33  C   UNL     1      50.716  31.266  50.936  0.00  0.00    +0.000 A 
ATOM     34  H   UNL     1      48.703  28.916  49.561  0.00  0.00    +0.000 HD
ENDBRANCH  22  23
ENDBRANCH  20  22
ENDBRANCH  13  20
TORSDOF 3
