REMARK  Name = 
REMARK  2 active torsions:
REMARK  status: ('A' for Active; 'I' for Inactive)
REMARK    1  A    between atoms: C_3  and  N_15
REMARK    2  A    between atoms: C_17  and  C_23
REMARK                            x       y       z     vdW  Elec       q    Type
REMARK                         _______ _______ _______ _____ _____    ______ ____
ROOT
ATOM      1  C   UNL     1      44.654  35.991  44.143  0.00  0.00    +0.000 A 
ATOM      2  C   UNL     1      45.226  35.724  42.874  0.00  0.00    +0.000 A 
ATOM      3  C   UNL     1      46.061  34.605  42.753  0.00  0.00    +0.000 A 
ATOM      4  N   UNL     1      46.285  33.826  43.860  0.00  0.00    +0.000 NA
ATOM      5  C   UNL     1      45.715  34.126  45.041  0.00  0.00    +0.000 A 
ATOM      6  N   UNL     1      44.911  35.186  45.197  0.00  0.00    +0.000 NA
ATOM      7  N   UNL     1      45.974  33.291  46.160  0.00  0.00    +0.000 N 
ATOM      8  C   UNL     1      46.952  32.383  46.124  0.00  0.00    +0.000 A 
ATOM      9  C   UNL     1      47.337  31.502  47.106  0.00  0.00    +0.000 A 
ATOM     10  C   UNL     1      46.595  31.588  48.279  0.00  0.00    +0.000 A 
ATOM     11  N   UNL     1      46.917  30.715  49.361  0.00  0.00    +0.000 N 
ATOM     12  N   UNL     1      45.610  32.487  48.346  0.00  0.00    +0.000 NA
ATOM     13  C   UNL     1      45.286  33.330  47.328  0.00  0.00    +0.000 A 
ATOM     14  O   UNL     1      44.346  34.170  47.423  0.00  0.00    +0.000 OA
ATOM     15  H   UNL     1      46.380  30.762  50.239  0.00  0.00    +0.000 HD
ATOM     16  H   UNL     1      47.687  30.037  49.264  0.00  0.00    +0.000 HD
ENDROOT
BRANCH   3  17
ATOM     17  N   UNL     1      46.616  34.366  41.473  0.00  0.00    +0.000 N 
ATOM     18  C   UNL     1      46.058  33.691  40.463  0.00  0.00    +0.000 A 
ATOM     19  C   UNL     1      46.695  33.517  39.251  0.00  0.00    +0.000 A 
ATOM     20  C   UNL     1      47.952  34.092  39.155  0.00  0.00    +0.000 A 
ATOM     21  O   UNL     1      48.586  33.966  38.064  0.00  0.00    +0.000 OA
ATOM     22  N   UNL     1      48.529  34.777  40.167  0.00  0.00    +0.000 N 
ATOM     23  C   UNL     1      47.854  34.912  41.331  0.00  0.00    +0.000 A 
ATOM     24  O   UNL     1      48.458  35.562  42.220  0.00  0.00    +0.000 OA
ATOM     25  C   UNL     1      46.060  32.769  38.152  0.00  0.00    +0.000 C 
ATOM     26  H   UNL     1      49.466  35.189  40.054  0.00  0.00    +0.000 HD
ENDBRANCH   3  17
TORSDOF 1
