REMARK  Name = 
REMARK  1 active torsions:
REMARK  status: ('A' for Active; 'I' for Inactive)
REMARK    1  A    between atoms: C_1  and  C_13
REMARK                            x       y       z     vdW  Elec       q    Type
REMARK                         _______ _______ _______ _____ _____    ______ ____
ROOT
ATOM      1  C   UNL     1      44.382  36.030  44.866  0.00  0.00    +0.000 A 
ATOM      2  C   UNL     1      45.003  35.985  43.631  0.00  0.00    +0.000 A 
ATOM      3  C   UNL     1      45.915  35.010  43.281  0.00  0.00    +0.000 A 
ATOM      4  N   UNL     1      46.136  34.103  44.280  0.00  0.00    +0.000 NA
ATOM      5  C   UNL     1      45.551  34.125  45.476  0.00  0.00    +0.000 A 
ATOM      6  N   UNL     1      44.677  35.094  45.753  0.00  0.00    +0.000 NA
ATOM      7  N   UNL     1      45.873  33.114  46.428  0.00  0.00    +0.000 N 
ATOM      8  C   UNL     1      46.807  32.148  46.468  0.00  0.00    +0.000 A 
ATOM      9  N   UNL     1      46.677  31.453  47.613  0.00  0.00    +0.000 NA
ATOM     10  C   UNL     1      45.639  31.998  48.301  0.00  0.00    +0.000 A 
ATOM     11  N   UNL     1      45.157  33.026  47.546  0.00  0.00    +0.000 NA
ENDROOT
BRANCH   3  12
ATOM     12  C   UNL     1      46.644  34.802  42.060  0.00  0.00    +0.000 A 
ATOM     13  C   UNL     1      47.924  35.322  41.974  0.00  0.00    +0.000 A 
ATOM     14  C   UNL     1      48.738  35.192  40.870  0.00  0.00    +0.000 A 
ATOM     15  C   UNL     1      48.275  34.506  39.773  0.00  0.00    +0.000 A 
ATOM     16  C   UNL     1      47.013  33.962  39.789  0.00  0.00    +0.000 A 
ATOM     17  C   UNL     1      46.541  33.277  38.693  0.00  0.00    +0.000 A 
ATOM     18  C   UNL     1      45.278  32.721  38.668  0.00  0.00    +0.000 A 
ATOM     19  C   UNL     1      44.517  32.898  39.823  0.00  0.00    +0.000 A 
ATOM     20  C   UNL     1      45.016  33.578  40.882  0.00  0.00    +0.000 A 
ATOM     21  C   UNL     1      46.268  34.134  40.920  0.00  0.00    +0.000 A 
ENDBRANCH   3  12
TORSDOF 1
