REMARK  Name = 
REMARK  4 active torsions:
REMARK  status: ('A' for Active; 'I' for Inactive)
REMARK    1  A    between atoms: C_1  and  C_9
REMARK    2  A    between atoms: C_6  and  C_13
REMARK    3  A    between atoms: C_13  and  O_15
REMARK    4  A    between atoms: O_15  and  C_16
REMARK                            x       y       z     vdW  Elec       q    Type
REMARK                         _______ _______ _______ _____ _____    ______ ____
ROOT
ATOM      1  C   UNL     1      44.850  33.635  41.024  0.00  0.00    +0.000 C 
ATOM      2  O   UNL     1      44.659  32.465  41.458  0.00  0.00    +0.000 OA
ENDROOT
BRANCH   1   8
ATOM      3  C   UNL     1      46.692  34.810  42.067  0.00  0.00    +0.000 A 
ATOM      4  C   UNL     1      47.964  35.315  41.994  0.00  0.00    +0.000 A 
ATOM      5  C   UNL     1      48.760  35.208  40.852  0.00  0.00    +0.000 A 
ATOM      6  C   UNL     1      48.226  34.552  39.731  0.00  0.00    +0.000 A 
ATOM      7  C   UNL     1      46.939  34.035  39.791  0.00  0.00    +0.000 A 
ATOM      8  C   UNL     1      46.207  34.179  40.958  0.00  0.00    +0.000 A 
BRANCH   3  11
ATOM      9  C   UNL     1      44.446  36.106  44.784  0.00  0.00    +0.000 A 
ATOM     10  C   UNL     1      45.105  36.054  43.545  0.00  0.00    +0.000 A 
ATOM     11  C   UNL     1      45.959  34.977  43.298  0.00  0.00    +0.000 A 
ATOM     12  N   UNL     1      46.109  34.043  44.257  0.00  0.00    +0.000 NA
ATOM     13  C   UNL     1      45.456  34.123  45.446  0.00  0.00    +0.000 A 
ATOM     14  N   UNL     1      44.638  35.138  45.707  0.00  0.00    +0.000 NA
ENDBRANCH   3  11
ENDBRANCH   1   8
BRANCH   1  15
ATOM     15  O   UNL     1      43.721  34.329  40.634  0.00  0.00    +0.000 OA
BRANCH  15  16
ATOM     16  C   UNL     1      42.892  33.937  39.612  0.00  0.00    +0.000 A 
ATOM     17  C   UNL     1      43.203  33.225  38.474  0.00  0.00    +0.000 A 
ATOM     18  N   UNL     1      42.126  33.021  37.687  0.00  0.00    +0.000 N 
ATOM     19  C   UNL     1      41.080  33.609  38.317  0.00  0.00    +0.000 A 
ATOM     20  C   UNL     1      39.729  33.753  38.041  0.00  0.00    +0.000 A 
ATOM     21  C   UNL     1      38.860  34.417  38.873  0.00  0.00    +0.000 A 
ATOM     22  C   UNL     1      39.315  34.981  40.052  0.00  0.00    +0.000 A 
ATOM     23  C   UNL     1      40.655  34.834  40.319  0.00  0.00    +0.000 A 
ATOM     24  C   UNL     1      41.538  34.171  39.492  0.00  0.00    +0.000 A 
ATOM     25  H   UNL     1      42.103  32.519  36.788  0.00  0.00    +0.000 HD
ENDBRANCH  15  16
ENDBRANCH   1  15
TORSDOF 4
