REMARK  Name = 
REMARK  5 active torsions:
REMARK  status: ('A' for Active; 'I' for Inactive)
REMARK    1  A    between atoms: N_13  and  C_18
REMARK    2  A    between atoms: C_18  and  C_19
REMARK    3  A    between atoms: C_18  and  C_20
REMARK    4  A    between atoms: C_20  and  N_21
REMARK    5  A    between atoms: N_21  and  C_22
REMARK                            x       y       z     vdW  Elec       q    Type
REMARK                         _______ _______ _______ _____ _____    ______ ____
ROOT
ATOM      1  C   UNL     1      44.592  35.968  42.725  0.00  0.00    +0.000 A 
ATOM      2  C   UNL     1      43.846  35.767  41.531  0.00  0.00    +0.000 A 
ATOM      3  C   UNL     1      43.719  34.468  41.075  0.00  0.00    +0.000 A 
ATOM      4  N   UNL     1      44.302  33.459  41.773  0.00  0.00    +0.000 NA
ATOM      5  C   UNL     1      44.997  33.660  42.886  0.00  0.00    +0.000 A 
ATOM      6  N   UNL     1      45.142  34.920  43.363  0.00  0.00    +0.000 NA
ATOM      7  N   UNL     1      45.564  32.539  43.538  0.00  0.00    +0.000 N 
ATOM      8  C   UNL     1      46.040  31.434  42.879  0.00  0.00    +0.000 A 
ATOM      9  N   UNL     1      46.518  30.530  43.710  0.00  0.00    +0.000 NA
ATOM     10  C   UNL     1      46.369  31.022  44.983  0.00  0.00    +0.000 A 
ATOM     11  C   UNL     1      46.690  30.501  46.177  0.00  0.00    +0.000 A 
ATOM     12  O   UNL     1      47.223  29.375  46.266  0.00  0.00    +0.000 OA
ATOM     13  N   UNL     1      46.423  31.219  47.284  0.00  0.00    +0.000 N 
ATOM     14  C   UNL     1      45.841  32.440  47.142  0.00  0.00    +0.000 A 
ATOM     15  N   UNL     1      45.579  33.164  48.345  0.00  0.00    +0.000 N 
ATOM     16  N   UNL     1      45.507  32.989  45.933  0.00  0.00    +0.000 NA
ATOM     17  C   UNL     1      45.783  32.248  44.830  0.00  0.00    +0.000 A 
ATOM     18  H   UNL     1      45.140  34.094  48.301  0.00  0.00    +0.000 HD
ATOM     19  H   UNL     1      45.830  32.756  49.257  0.00  0.00    +0.000 HD
ENDROOT
BRANCH  13  20
ATOM     20  C   UNL     1      46.744  30.712  48.591  0.00  0.00    +0.000 C 
ATOM     21  C   UNL     1      45.529  30.792  49.486  0.00  0.00    +0.000 C 
BRANCH  20  22
ATOM     22  C   UNL     1      47.976  31.304  49.188  0.00  0.00    +0.000 C 
BRANCH  22  23
ATOM     23  N   UNL     1      48.903  30.216  49.482  0.00  0.00    +0.000 N 
ATOM     24  H   UNL     1      48.855  29.335  48.950  0.00  0.00    +0.000 HD
BRANCH  23  25
ATOM     25  C   UNL     1      49.876  30.380  50.511  0.00  0.00    +0.000 A 
ATOM     26  C   UNL     1      50.222  29.467  51.487  0.00  0.00    +0.000 A 
ATOM     27  N   UNL     1      51.189  29.990  52.280  0.00  0.00    +0.000 N 
ATOM     28  C   UNL     1      51.483  31.233  51.839  0.00  0.00    +0.000 A 
ATOM     29  C   UNL     1      52.371  32.205  52.259  0.00  0.00    +0.000 A 
ATOM     30  C   UNL     1      52.481  33.425  51.620  0.00  0.00    +0.000 A 
ATOM     31  C   UNL     1      51.686  33.695  50.526  0.00  0.00    +0.000 A 
ATOM     32  C   UNL     1      50.798  32.700  50.120  0.00  0.00    +0.000 A 
ATOM     33  C   UNL     1      50.679  31.474  50.755  0.00  0.00    +0.000 A 
ATOM     34  H   UNL     1      51.627  29.519  53.084  0.00  0.00    +0.000 HD
ENDBRANCH  23  25
ENDBRANCH  22  23
ENDBRANCH  20  22
ENDBRANCH  13  20
TORSDOF 4
