REMARK  Name = 
REMARK  3 active torsions:
REMARK  status: ('A' for Active; 'I' for Inactive)
REMARK    1  A    between atoms: C_1  and  C_21
REMARK    2  A    between atoms: C_5  and  C_7
REMARK    3  A    between atoms: C_17  and  C_25
REMARK                            x       y       z     vdW  Elec       q    Type
REMARK                         _______ _______ _______ _____ _____    ______ ____
ROOT
ATOM      1  C   UNL     1      45.941  33.241  38.816  0.00  0.00    +0.000 A 
ATOM      2  C   UNL     1      46.646  32.811  37.727  0.00  0.00    +0.000 A 
ATOM      3  C   UNL     1      45.966  32.156  36.692  0.00  0.00    +0.000 A 
ATOM      4  C   UNL     1      44.608  32.008  36.890  0.00  0.00    +0.000 A 
ATOM      5  C   UNL     1      43.880  32.434  37.980  0.00  0.00    +0.000 A 
ATOM      6  N   UNL     1      44.628  33.058  38.928  0.00  0.00    +0.000 NA
ENDROOT
BRANCH   5   7
ATOM      7  C   UNL     1      42.480  32.162  37.955  0.00  0.00    +0.000 A 
ATOM      8  N   UNL     1      42.012  30.970  37.551  0.00  0.00    +0.000 NA
ATOM      9  C   UNL     1      40.723  30.621  37.493  0.00  0.00    +0.000 A 
ATOM     10  N   UNL     1      39.736  31.478  37.853  0.00  0.00    +0.000 NA
ATOM     11  C   UNL     1      40.105  32.711  38.277  0.00  0.00    +0.000 A 
ATOM     12  C   UNL     1      39.142  33.618  38.653  0.00  0.00    +0.000 A 
ATOM     13  C   UNL     1      39.477  34.887  39.093  0.00  0.00    +0.000 A 
ATOM     14  C   UNL     1      40.839  35.190  39.131  0.00  0.00    +0.000 A 
ATOM     15  C   UNL     1      41.754  34.257  38.747  0.00  0.00    +0.000 A 
ATOM     16  C   UNL     1      41.444  32.991  38.308  0.00  0.00    +0.000 A 
ENDBRANCH   5   7
BRANCH   1  21
ATOM     17  C   UNL     1      46.712  34.700  42.113  0.00  0.00    +0.000 A 
ATOM     18  C   UNL     1      47.990  35.195  42.001  0.00  0.00    +0.000 A 
ATOM     19  C   UNL     1      48.583  35.019  40.774  0.00  0.00    +0.000 A 
ATOM     20  C   UNL     1      47.939  34.385  39.714  0.00  0.00    +0.000 A 
ATOM     21  C   UNL     1      46.640  33.905  39.895  0.00  0.00    +0.000 A 
ATOM     22  N   UNL     1      46.077  34.089  41.108  0.00  0.00    +0.000 NA
BRANCH  17  25
ATOM     23  C   UNL     1      44.470  35.967  44.808  0.00  0.00    +0.000 A 
ATOM     24  C   UNL     1      45.135  35.886  43.565  0.00  0.00    +0.000 A 
ATOM     25  C   UNL     1      45.995  34.836  43.376  0.00  0.00    +0.000 A 
ATOM     26  N   UNL     1      46.167  33.926  44.385  0.00  0.00    +0.000 NA
ATOM     27  C   UNL     1      45.518  34.027  45.565  0.00  0.00    +0.000 A 
ATOM     28  N   UNL     1      44.678  35.039  45.772  0.00  0.00    +0.000 NA
ENDBRANCH  17  25
ENDBRANCH   1  21
TORSDOF 3
