REMARK  Name = 
REMARK  5 active torsions:
REMARK  status: ('A' for Active; 'I' for Inactive)
REMARK    1  A    between atoms: C_3  and  C_23
REMARK    2  A    between atoms: C_5  and  C_7
REMARK    3  A    between atoms: C_23  and  C_24
REMARK    4  A    between atoms: C_24  and  C_25
REMARK    5  A    between atoms: C_29  and  C_31
REMARK                            x       y       z     vdW  Elec       q    Type
REMARK                         _______ _______ _______ _____ _____    ______ ____
ROOT
ATOM      1  C   UNL     1      44.850  35.412  44.627  0.00  0.00    +0.000 A 
ATOM      2  C   UNL     1      45.707  35.060  43.570  0.00  0.00    +0.000 A 
ATOM      3  C   UNL     1      46.564  34.013  43.661  0.00  0.00    +0.000 A 
ATOM      4  N   UNL     1      46.577  33.304  44.811  0.00  0.00    +0.000 NA
ATOM      5  C   UNL     1      45.741  33.652  45.833  0.00  0.00    +0.000 A 
ATOM      6  N   UNL     1      44.904  34.673  45.746  0.00  0.00    +0.000 NA
ENDROOT
BRANCH   5   7
ATOM      7  C   UNL     1      45.917  32.743  47.006  0.00  0.00    +0.000 A 
ATOM      8  C   UNL     1      45.055  32.603  48.176  0.00  0.00    +0.000 A 
ATOM      9  S   UNL     1      45.995  31.338  49.073  0.00  0.00    +0.000 S 
ATOM     10  C   UNL     1      47.357  31.223  47.735  0.00  0.00    +0.000 A 
ATOM     11  N   UNL     1      47.019  32.085  46.790  0.00  0.00    +0.000 NA
ATOM     12  N   UNL     1      48.508  30.291  47.882  0.00  0.00    +0.000 N 
ATOM     13  C   UNL     1      48.759  29.087  47.356  0.00  0.00    +0.000 A 
ATOM     14  N   UNL     1      49.956  28.720  47.843  0.00  0.00    +0.000 NA
ATOM     15  C   UNL     1      50.431  29.682  48.655  0.00  0.00    +0.000 A 
ATOM     16  C   UNL     1      51.604  29.762  49.378  0.00  0.00    +0.000 A 
ATOM     17  O   UNL     1      52.455  28.836  49.355  0.00  0.00    +0.000 OA
ATOM     18  N   UNL     1      51.849  30.864  50.135  0.00  0.00    +0.000 N 
ATOM     19  C   UNL     1      50.935  31.871  50.168  0.00  0.00    +0.000 A 
ATOM     20  N   UNL     1      51.137  33.066  50.952  0.00  0.00    +0.000 N 
ATOM     21  N   UNL     1      49.790  31.776  49.453  0.00  0.00    +0.000 NA
ATOM     22  C   UNL     1      49.498  30.715  48.691  0.00  0.00    +0.000 A 
ATOM     23  H   UNL     1      52.720  30.936  50.680  0.00  0.00    +0.000 HD
ATOM     24  H   UNL     1      50.423  33.808  50.953  0.00  0.00    +0.000 HD
ATOM     25  H   UNL     1      51.995  33.176  51.511  0.00  0.00    +0.000 HD
ENDBRANCH   5   7
BRANCH   3  26
ATOM     26  C   UNL     1      47.447  33.670  42.548  0.00  0.00    +0.000 C 
BRANCH  26  27
ATOM     27  C   UNL     1      47.720  34.741  41.560  0.00  0.00    +0.000 C 
BRANCH  27  28
ATOM     28  C   UNL     1      47.327  34.233  40.209  0.00  0.00    +0.000 A 
ATOM     29  C   UNL     1      48.212  34.176  39.149  0.00  0.00    +0.000 A 
ATOM     30  C   UNL     1      47.957  33.734  37.890  0.00  0.00    +0.000 A 
ATOM     31  N   UNL     1      46.668  33.307  37.701  0.00  0.00    +0.000 NA
ATOM     32  C   UNL     1      45.775  33.347  38.713  0.00  0.00    +0.000 A 
ATOM     33  N   UNL     1      46.049  33.791  39.959  0.00  0.00    +0.000 NA
BRANCH  32  34
ATOM     34  C   UNL     1      44.430  32.874  38.421  0.00  0.00    +0.000 A 
ATOM     35  C   UNL     1      43.323  33.623  38.825  0.00  0.00    +0.000 A 
ATOM     36  C   UNL     1      42.058  33.173  38.549  0.00  0.00    +0.000 A 
ATOM     37  N   UNL     1      41.863  32.028  37.899  0.00  0.00    +0.000 NA
ATOM     38  C   UNL     1      42.947  31.320  37.519  0.00  0.00    +0.000 A 
ATOM     39  N   UNL     1      44.225  31.724  37.769  0.00  0.00    +0.000 NA
ENDBRANCH  32  34
ENDBRANCH  27  28
ENDBRANCH  26  27
ENDBRANCH   3  26
TORSDOF 5
