REMARK  Name = 
REMARK  1 active torsions:
REMARK  status: ('A' for Active; 'I' for Inactive)
REMARK    1  A    between atoms: C_3  and  C_16
REMARK                            x       y       z     vdW  Elec       q    Type
REMARK                         _______ _______ _______ _____ _____    ______ ____
ROOT
ATOM      1  C   UNL     1      44.446  36.107  44.906  0.00  0.00    +0.000 A 
ATOM      2  C   UNL     1      45.064  36.046  43.661  0.00  0.00    +0.000 A 
ATOM      3  C   UNL     1      45.889  35.009  43.285  0.00  0.00    +0.000 A 
ATOM      4  N   UNL     1      46.027  34.060  44.260  0.00  0.00    +0.000 NA
ATOM      5  C   UNL     1      45.449  34.092  45.455  0.00  0.00    +0.000 A 
ATOM      6  N   UNL     1      44.666  35.111  45.765  0.00  0.00    +0.000 NA
ATOM      7  N   UNL     1      45.689  33.023  46.369  0.00  0.00    +0.000 N 
ATOM      8  C   UNL     1      45.150  32.889  47.598  0.00  0.00    +0.000 A 
ATOM      9  N   UNL     1      45.597  31.761  48.184  0.00  0.00    +0.000 NA
ATOM     10  C   UNL     1      46.440  31.161  47.315  0.00  0.00    +0.000 A 
ATOM     11  C   UNL     1      47.191  30.000  47.355  0.00  0.00    +0.000 A 
ATOM     12  N   UNL     1      47.957  29.672  46.280  0.00  0.00    +0.000 NA
ATOM     13  C   UNL     1      48.008  30.448  45.176  0.00  0.00    +0.000 A 
ATOM     14  N   UNL     1      47.282  31.587  45.119  0.00  0.00    +0.000 NA
ATOM     15  C   UNL     1      46.499  31.958  46.167  0.00  0.00    +0.000 A 
ENDROOT
BRANCH   3  16
ATOM     16  C   UNL     1      46.603  34.779  42.056  0.00  0.00    +0.000 A 
ATOM     17  C   UNL     1      47.892  35.275  41.957  0.00  0.00    +0.000 A 
ATOM     18  C   UNL     1      48.699  35.130  40.858  0.00  0.00    +0.000 A 
ATOM     19  C   UNL     1      48.209  34.443  39.759  0.00  0.00    +0.000 A 
ATOM     20  C   UNL     1      46.932  33.924  39.795  0.00  0.00    +0.000 A 
ATOM     21  C   UNL     1      46.436  33.243  38.702  0.00  0.00    +0.000 A 
ATOM     22  C   UNL     1      45.161  32.712  38.689  0.00  0.00    +0.000 A 
ATOM     23  C   UNL     1      44.424  32.910  39.844  0.00  0.00    +0.000 A 
ATOM     24  C   UNL     1      44.939  33.585  40.905  0.00  0.00    +0.000 A 
ATOM     25  C   UNL     1      46.204  34.116  40.926  0.00  0.00    +0.000 A 
ENDBRANCH   3  16
TORSDOF 1
