REMARK  Name = 
REMARK  3 active torsions:
REMARK  status: ('A' for Active; 'I' for Inactive)
REMARK    1  A    between atoms: C_1  and  C_8
REMARK    2  A    between atoms: C_4  and  N_18
REMARK    3  A    between atoms: C_20  and  C_26
REMARK                            x       y       z     vdW  Elec       q    Type
REMARK                         _______ _______ _______ _____ _____    ______ ____
ROOT
ATOM      1  C   UNL     1      46.897  34.699  41.944  0.00  0.00    +0.000 A 
ATOM      2  C   UNL     1      48.180  35.158  41.697  0.00  0.00    +0.000 A 
ATOM      3  C   UNL     1      48.414  34.768  40.376  0.00  0.00    +0.000 A 
ATOM      4  C   UNL     1      47.291  34.114  39.912  0.00  0.00    +0.000 A 
ATOM      5  O   UNL     1      46.396  34.098  40.902  0.00  0.00    +0.000 OA
ENDROOT
BRANCH   1   8
ATOM      6  C   UNL     1      44.531  35.974  44.517  0.00  0.00    +0.000 A 
ATOM      7  C   UNL     1      45.240  35.868  43.290  0.00  0.00    +0.000 A 
ATOM      8  C   UNL     1      46.149  34.840  43.188  0.00  0.00    +0.000 A 
ATOM      9  N   UNL     1      46.329  33.989  44.234  0.00  0.00    +0.000 NA
ATOM     10  C   UNL     1      45.623  34.135  45.385  0.00  0.00    +0.000 A 
ATOM     11  N   UNL     1      44.730  35.115  45.535  0.00  0.00    +0.000 NA
ATOM     12  N   UNL     1      45.849  33.218  46.447  0.00  0.00    +0.000 N 
ATOM     13  C   UNL     1      46.996  32.333  46.504  0.00  0.00    +0.000 C 
ATOM     14  C   UNL     1      47.520  32.325  47.914  0.00  0.00    +0.000 C 
ATOM     15  C   UNL     1      46.500  31.701  48.830  0.00  0.00    +0.000 C 
ATOM     16  C   UNL     1      45.103  31.826  48.314  0.00  0.00    +0.000 C 
ATOM     17  C   UNL     1      44.917  33.122  47.552  0.00  0.00    +0.000 C 
ENDBRANCH   1   8
BRANCH   4  18
ATOM     18  N   UNL     1      47.105  33.557  38.625  0.00  0.00    +0.000 N 
ATOM     19  C   UNL     1      46.217  32.559  38.468  0.00  0.00    +0.000 A 
ATOM     20  C   UNL     1      46.001  31.987  37.226  0.00  0.00    +0.000 A 
ATOM     21  C   UNL     1      46.712  32.460  36.152  0.00  0.00    +0.000 A 
ATOM     22  O   UNL     1      46.502  31.931  35.038  0.00  0.00    +0.000 OA
ATOM     23  N   UNL     1      47.589  33.462  36.367  0.00  0.00    +0.000 N 
ATOM     24  C   UNL     1      47.791  34.012  37.582  0.00  0.00    +0.000 A 
ATOM     25  O   UNL     1      48.624  34.943  37.710  0.00  0.00    +0.000 OA
ATOM     26  C   UNL     1      45.001  30.893  37.157  0.00  0.00    +0.000 C 
ATOM     27  H   UNL     1      48.129  33.823  35.568  0.00  0.00    +0.000 HD
ENDBRANCH   4  18
TORSDOF 2
