REMARK  Name = 
REMARK  4 active torsions:
REMARK  status: ('A' for Active; 'I' for Inactive)
REMARK    1  A    between atoms: C_1  and  C_9
REMARK    2  A    between atoms: C_6  and  C_13
REMARK    3  A    between atoms: C_13  and  O_15
REMARK    4  A    between atoms: O_15  and  C_16
REMARK                            x       y       z     vdW  Elec       q    Type
REMARK                         _______ _______ _______ _____ _____    ______ ____
ROOT
ATOM      1  C   UNL     1      44.751  33.666  41.017  0.00  0.00    +0.000 C 
ATOM      2  O   UNL     1      44.526  32.437  41.094  0.00  0.00    +0.000 OA
ENDROOT
BRANCH   1   8
ATOM      3  C   UNL     1      46.630  34.791  42.048  0.00  0.00    +0.000 A 
ATOM      4  C   UNL     1      47.910  35.262  41.946  0.00  0.00    +0.000 A 
ATOM      5  C   UNL     1      48.686  35.151  40.804  0.00  0.00    +0.000 A 
ATOM      6  C   UNL     1      48.122  34.514  39.680  0.00  0.00    +0.000 A 
ATOM      7  C   UNL     1      46.818  34.025  39.758  0.00  0.00    +0.000 A 
ATOM      8  C   UNL     1      46.121  34.178  40.930  0.00  0.00    +0.000 A 
BRANCH   3  11
ATOM      9  C   UNL     1      44.483  36.114  44.811  0.00  0.00    +0.000 A 
ATOM     10  C   UNL     1      45.116  36.059  43.570  0.00  0.00    +0.000 A 
ATOM     11  C   UNL     1      45.923  34.966  43.290  0.00  0.00    +0.000 A 
ATOM     12  N   UNL     1      46.050  34.011  44.236  0.00  0.00    +0.000 NA
ATOM     13  C   UNL     1      45.426  34.084  45.435  0.00  0.00    +0.000 A 
ATOM     14  N   UNL     1      44.646  35.135  45.713  0.00  0.00    +0.000 NA
ENDBRANCH   3  11
ENDBRANCH   1   8
BRANCH   1  15
ATOM     15  O   UNL     1      43.616  34.475  41.022  0.00  0.00    +0.000 OA
BRANCH  15  16
ATOM     16  C   UNL     1      42.372  33.934  40.722  0.00  0.00    +0.000 A 
ATOM     17  N   UNL     1      41.857  32.959  41.489  0.00  0.00    +0.000 NA
ATOM     18  C   UNL     1      40.650  32.428  41.203  0.00  0.00    +0.000 A 
ATOM     19  N   UNL     1      39.931  32.857  40.146  0.00  0.00    +0.000 NA
ATOM     20  C   UNL     1      40.394  33.827  39.345  0.00  0.00    +0.000 A 
ATOM     21  C   UNL     1      39.680  34.289  38.252  0.00  0.00    +0.000 A 
ATOM     22  C   UNL     1      40.266  35.285  37.513  0.00  0.00    +0.000 A 
ATOM     23  C   UNL     1      41.495  35.883  37.737  0.00  0.00    +0.000 A 
ATOM     24  C   UNL     1      42.154  35.379  38.837  0.00  0.00    +0.000 A 
ATOM     25  C   UNL     1      41.626  34.378  39.625  0.00  0.00    +0.000 A 
ENDBRANCH  15  16
ENDBRANCH   1  15
TORSDOF 4
